#------------------------------------------------------------------------------
#$Date: 2019-11-26 11:10:00 +0200 (Tue, 26 Nov 2019) $
#$Revision: 243308 $
#$URL: file:///home/coder/svn-repositories/cod/cif/4/13/35/4133551.cif $
#------------------------------------------------------------------------------
#
# This file is available in the Crystallography Open Database (COD),
# http://www.crystallography.net/
#
# All data on this site have been placed in the public domain by the
# contributors.
#
data_4133551
loop_
_publ_author_name
'Xiong, Yang'
'Du, Zhuanzhuan'
'Chen, Haohua'
'Yang, Zhao'
'Tan, Qiuyuan'
'Zhang, Changhui'
'Zhu, Lei'
'Lan, Yu'
'Zhang, Min'
_publ_section_title
;
 Well-Designed Phosphine-Urea Ligand for Highly Diastereo- and
 Enantioselective 1,3-Dipolar Cycloaddition of Methacrylonitrile: A
 Combined Experimental and Theoretical Study.
;
_journal_issue                   2
_journal_name_full               'Journal of the American Chemical Society'
_journal_page_first              961
_journal_page_last               971
_journal_paper_doi               10.1021/jacs.8b10939
_journal_volume                  141
_journal_year                    2019
_chemical_absolute_configuration ad
_chemical_formula_moiety         'C14 H15 Br N2 O2'
_chemical_formula_sum            'C14 H15 Br N2 O2'
_chemical_formula_weight         323.19
_space_group_crystal_system      monoclinic
_space_group_IT_number           4
_space_group_name_Hall           'P 2yb'
_space_group_name_H-M_alt        'P 1 21 1'
_atom_sites_solution_hydrogens   mixed
_atom_sites_solution_primary     dual
_audit_creation_date             2017-06-08
_audit_creation_method
;
Olex2 1.2-alpha
(compiled 2017.06.06 svn.r3414 for OlexSys, GUI svn.r5353)
;
_cell_angle_alpha                90
_cell_angle_beta                 94.707(3)
_cell_angle_gamma                90
_cell_formula_units_Z            2
_cell_length_a                   10.3489(3)
_cell_length_b                   6.3912(3)
_cell_length_c                   11.1677(4)
_cell_measurement_reflns_used    2506
_cell_measurement_temperature    295(2)
_cell_measurement_theta_max      22.9300
_cell_measurement_theta_min      3.9380
_cell_volume                     736.16(5)
_computing_molecular_graphics    'Olex2 (Dolomanov et al., 2009)'
_computing_publication_material  'Olex2 (Dolomanov et al., 2009)'
_computing_structure_refinement  'ShelXL (Sheldrick, 2015)'
_computing_structure_solution    'ShelXT (Sheldrick, 2015)'
_diffrn_ambient_temperature      295(2)
_diffrn_detector_area_resol_mean 16.0892
_diffrn_measured_fraction_theta_full 0.997
_diffrn_measured_fraction_theta_max 0.998
_diffrn_measurement_device_type  'SuperNova, Single source at offset, Eos'
_diffrn_measurement_method       '\w scans'
_diffrn_radiation_type           MoK\a
_diffrn_radiation_wavelength     0.71073
_diffrn_reflns_av_R_equivalents  0.0330
_diffrn_reflns_av_unetI/netI     0.0388
_diffrn_reflns_Laue_measured_fraction_full 0.997
_diffrn_reflns_Laue_measured_fraction_max 0.998
_diffrn_reflns_limit_h_max       12
_diffrn_reflns_limit_h_min       -12
_diffrn_reflns_limit_k_max       7
_diffrn_reflns_limit_k_min       -7
_diffrn_reflns_limit_l_max       13
_diffrn_reflns_limit_l_min       -13
_diffrn_reflns_number            9679
_diffrn_reflns_point_group_measured_fraction_full 0.999
_diffrn_reflns_point_group_measured_fraction_max 0.999
_diffrn_reflns_theta_full        25.242
_diffrn_reflns_theta_max         26.367
_diffrn_reflns_theta_min         3.661
_diffrn_source                   'micro-focus sealed X-ray tube'
_exptl_absorpt_coefficient_mu    2.791
_exptl_absorpt_correction_T_max  1.00000
_exptl_absorpt_correction_T_min  0.35752
_exptl_absorpt_correction_type   multi-scan
_exptl_absorpt_process_details
;
CrysAlisPro 1.171.38.41k (Rigaku Oxford Diffraction, 2015)
Empirical absorption correction using spherical harmonics,
 implemented in SCALE3 ABSPACK scaling algorithm.
;
_exptl_crystal_colour            Colorless
_exptl_crystal_density_diffrn    1.458
_exptl_crystal_description       Block
_exptl_crystal_F_000             328
_exptl_crystal_size_max          0.5
_exptl_crystal_size_mid          0.2
_exptl_crystal_size_min          0.19
_refine_diff_density_max         0.264
_refine_diff_density_min         -0.453
_refine_diff_density_rms         0.048
_refine_ls_abs_structure_details
;
 Flack x determined using 713 quotients [(I+)-(I-)]/[(I+)+(I-)]
 (Parsons, Flack and Wagner, Acta Cryst. B69 (2013) 249-259).
;
_refine_ls_abs_structure_Flack   0.01(2)
_refine_ls_extinction_method     none
_refine_ls_goodness_of_fit_ref   1.029
_refine_ls_hydrogen_treatment    mixed
_refine_ls_matrix_type           full
_refine_ls_number_parameters     187
_refine_ls_number_reflns         2989
_refine_ls_number_restraints     1
_refine_ls_restrained_S_all      1.028
_refine_ls_R_factor_all          0.0825
_refine_ls_R_factor_gt           0.0530
_refine_ls_shift/su_max          0.000
_refine_ls_shift/su_mean         0.000
_refine_ls_structure_factor_coef Fsqd
_refine_ls_weighting_details
'w=1/[\s^2^(Fo^2^)+(0.0563P)^2^+0.4234P] where P=(Fo^2^+2Fc^2^)/3'
_refine_ls_weighting_scheme      calc
_refine_ls_wR_factor_gt          0.1168
_refine_ls_wR_factor_ref         0.1324
_reflns_Friedel_coverage         0.831
_reflns_Friedel_fraction_full    1.000
_reflns_Friedel_fraction_max     1.000
_reflns_number_gt                2101
_reflns_number_total             2989
_reflns_threshold_expression     'I > 2\s(I)'
_iucr_refine_instructions_details
;

    xy09022.res created by SHELXL-2014/7

TITL xy09022_b.res in P2(1)
REM Old TITL xy09022_b.res in P2(1)
REM SHELXT solution in P2(1)
REM R1 0.231, Rweak 0.141, Alpha 0.008, Orientation as input
REM Flack x = 0.014 ( 0.014 ) from Parsons' quotients
REM Formula found by SHELXT: C15 Br N2 O
CELL 0.71073 10.3489 6.3912 11.1677 90 94.707 90
ZERR 2 0.0003 0.0003 0.0004 0 0.003 0
LATT -1
SYMM -X,0.5+Y,-Z
SFAC C H Br N O
UNIT 28 30 2 4 4
 
L.S. 30
PLAN  20
BOND $H
LIST 6
fmap 2
acta
SHEL 999 0.8
REM <olex2.extras>
REM <HklSrc "%.\\xy09022.hkl">
REM </olex2.extras>
 
WGHT    0.056300    0.423400
FVAR       1.00542   0.57043
BR1   3   -0.003944    0.269361    0.845393    11.00000    0.06153    0.16010 =
         0.10313    0.03452    0.01648   -0.01788
O1    5    0.863891    0.532977    0.551860    11.00000    0.05804    0.07686 =
         0.12233   -0.00277    0.01913    0.00569
C7    1    0.631420    0.419125    0.820655    11.00000    0.04546    0.04637 =
         0.05574   -0.00279   -0.00824   -0.00263
C5    1    0.622060    0.649537    0.814423    11.00000    0.05140    0.04055 =
         0.04339   -0.00008   -0.00171   -0.00043
C4    1    0.730794    0.735772    0.741802    11.00000    0.04776    0.04607 =
         0.06039   -0.00087   -0.00001   -0.00408
AFIX  23
H4A   2    0.746327    0.882751    0.759203    11.00000   -1.20000
H4B   2    0.810821    0.658850    0.759876    11.00000   -1.20000
AFIX   0
C8    1    0.501211    0.715401    0.732201    11.00000    0.05397    0.04662 =
         0.05540    0.00895    0.00514    0.00836
AFIX  13
H8    2    0.489527    0.866888    0.739571    11.00000   -1.20000
AFIX   0
N2    4    0.643297    0.244768    0.828552    11.00000    0.07835    0.04163 =
         0.14698    0.01211   -0.00322    0.00344
C13   1    0.233315    0.311045    0.737808    11.00000    0.04993    0.08510 =
         0.05672   -0.00570   -0.00667   -0.00368
AFIX  43
H13   2    0.214526    0.178406    0.706855    11.00000   -1.20000
AFIX   0
C9    1    0.376518    0.608978    0.756608    11.00000    0.04613    0.06299 =
         0.04215    0.00742    0.00276    0.01409
N1    4    0.540509    0.670346    0.612672    11.00000    0.04180    0.10710 =
         0.04530    0.01605    0.00167    0.01334
H1    2    0.494807    0.746711    0.566678    11.00000   -1.20000
C3    1    0.679176    0.704428    0.609997    11.00000    0.04278    0.07797 =
         0.05561    0.01920    0.00012    0.00474
AFIX  13
H3    2    0.694286    0.831543    0.564096    11.00000   -1.20000
AFIX   0
C2    1    0.739943    0.518251    0.551480    11.00000    0.04679    0.11380 =
         0.05573   -0.01693    0.00224   -0.00840
PART 1
O3    5    0.680987    0.430158    0.478957    21.00000    0.07555    0.15177 =
         0.13413   -0.09203    0.00140   -0.01662
PART 0
PART 2
O2    5    0.691412    0.311773    0.547147   -21.00000    0.06183    0.08147 =
         0.09802   -0.02536    0.00134   -0.01085
PART 0
C12   1    0.150438    0.407844    0.808722    11.00000    0.04596    0.09984 =
         0.04915    0.01756    0.00064    0.00320
C10   1    0.288866    0.704189    0.827199    11.00000    0.06891    0.07217 =
         0.05945   -0.00107    0.01429    0.02165
AFIX  43
H10   2    0.305996    0.837826    0.857406    11.00000   -1.20000
AFIX   0
C11   1    0.175493    0.601702    0.853289    11.00000    0.05917    0.09682 =
         0.06814    0.00717    0.02349    0.02274
AFIX  43
H11   2    0.117593    0.666212    0.900966    11.00000   -1.20000
AFIX   0
C6    1    0.625205    0.733822    0.942762    11.00000    0.08855    0.06415 =
         0.05329   -0.01352    0.00498   -0.01146
AFIX 137
H6A   2    0.552124    0.680541    0.980842    11.00000   -1.50000
H6B   2    0.621564    0.883887    0.940848    11.00000   -1.50000
H6C   2    0.703902    0.689960    0.987175    11.00000   -1.50000
AFIX   0
C14   1    0.346113    0.413300    0.712482    11.00000    0.04318    0.08707 =
         0.04867   -0.01434    0.00113    0.00374
AFIX  43
H14   2    0.402763    0.347238    0.664176    11.00000   -1.20000
AFIX   0
C1    1    0.931444    0.361640    0.499285    11.00000    0.08467    0.11105 =
         0.13038   -0.02030    0.01816    0.02855
AFIX 137
H1A   2    0.908837    0.357900    0.414205    11.00000   -1.50000
H1B   2    0.906949    0.232055    0.534541    11.00000   -1.50000
H1C   2    1.023299    0.381462    0.514279    11.00000   -1.50000
AFIX   0
HKLF 4
 
REM  xy09022_b.res in P2(1)
REM R1 =  0.0530 for    2101 Fo > 4sig(Fo)  and  0.0825 for all    2989 data
REM    187 parameters refined using      1 restraints
 
END  
     
WGHT      0.0563      0.4234 

REM Highest difference peak  0.264,  deepest hole -0.453,  1-sigma level  0.048
Q1    1   0.0463  0.1414  0.8616  11.00000  0.05    0.26
Q2    1   0.0650  0.2695  0.9196  11.00000  0.05    0.24
Q3    1   0.6421  0.2606  0.7523  11.00000  0.05    0.21
Q4    1   0.0292  0.3886  0.9035  11.00000  0.05    0.19
Q5    1   0.8975  0.6774  0.7077  11.00000  0.05    0.16
Q6    1   0.8373  0.5033  1.0137  11.00000  0.05    0.15
Q7    1   0.7606  0.5910  1.0176  11.00000  0.05    0.14
Q8    1   0.8403  0.0429  0.4710  11.00000  0.05    0.14
Q9    1  -0.0815  0.2587  0.7473  11.00000  0.05    0.14
Q10   1   0.1027  0.8215  0.9728  11.00000  0.05    0.14
Q11   1   0.6719  0.6027  0.5538  11.00000  0.05    0.14
Q12   1   0.0398  0.3303  1.0035  11.00000  0.05    0.14
Q13   1   0.3203  0.2519  0.8509  11.00000  0.05    0.13
Q14   1   0.5650  0.2823  0.8178  11.00000  0.05    0.13
Q15   1   0.0468  0.5576  1.0032  11.00000  0.05    0.13
Q16   1   0.8413  0.7274  0.7711  11.00000  0.05    0.13
Q17   1   0.9736  0.4804  0.3671  11.00000  0.05    0.13
Q18   1   0.8455  1.0491  0.7408  11.00000  0.05    0.13
Q19   1   0.5874  1.0346  1.0667  11.00000  0.05    0.13
Q20   1   0.9895  0.4448  0.2793  11.00000  0.05    0.13

  REM The information below was added by Olex2.
  REM
  REM R1 = 0.0530 for 2101 Fo > 4sig(Fo) and 0.0825 for all 10429 data
  REM n/a parameters refined using n/a restraints
  REM Highest difference peak 0.26, deepest hole -0.45
  REM Mean Shift 0, Max Shift 0.000.

  REM +++ Tabular Listing of Refinement Information +++
  REM R1_all = 0.0825
  REM R1_gt = 0.0530
  REM wR_ref = 0.1324
  REM GOOF = 1.029
  REM Shift_max = 0.000
  REM Shift_mean = 0
  REM Reflections_all = 10429
  REM Reflections_gt = 2101
  REM Parameters = n/a
  REM Hole = -0.45
  REM Peak = 0.26
  REM Flack = 0.01(2)

  
;
_cod_data_source_file            ja8b10939_si_002.cif
_cod_data_source_block           xy09022
_cod_database_code               4133551
_shelx_shelxl_version_number     2014/7
_shelx_space_group_comment
;
The symmetry employed for this shelxl refinement is uniquely defined
by the following loop, which should always be used as a source of
symmetry information in preference to the above space-group names.
They are only intended as comments.
;
_olex2_refinement_description
;
1. Fixed Uiso
 At 1.2 times of:
  All C(H) groups, All C(H,H) groups, All N(H) groups
 At 1.5 times of:
  All C(H,H,H) groups
2. Others
 Sof(O2)=1-FVAR(1)
 Sof(O3)=FVAR(1)
3.a Ternary CH refined with riding coordinates:
 C8(H8), C3(H3)
3.b Secondary CH2 refined with riding coordinates:
 C4(H4A,H4B)
3.c Aromatic/amide H refined with riding coordinates:
 C13(H13), C10(H10), C11(H11), C14(H14)
3.d Idealised Me refined as rotating group:
 C6(H6A,H6B,H6C), C1(H1A,H1B,H1C)
;
_olex2_submission_special_instructions 'No special instructions were received'
_oxdiff_exptl_absorpt_empirical_details
;
Empirical correction (ABSPACK) includes:
- Absorption correction using spherical harmonics
- Frame scaling
;
_oxdiff_exptl_absorpt_empirical_full_max 1.849
_oxdiff_exptl_absorpt_empirical_full_min 0.685
loop_
_space_group_symop_operation_xyz
'x, y, z'
'-x, y+1/2, -z'
loop_
_atom_site_label
_atom_site_type_symbol
_atom_site_fract_x
_atom_site_fract_y
_atom_site_fract_z
_atom_site_U_iso_or_equiv
_atom_site_adp_type
_atom_site_occupancy
_atom_site_site_symmetry_order
_atom_site_calc_flag
_atom_site_refinement_flags_posn
_atom_site_refinement_flags_occupancy
_atom_site_disorder_assembly
_atom_site_disorder_group
Br1 Br -0.00394(8) 0.2694(2) 0.84539(9) 0.1077(5) Uani 1 1 d . . . .
O1 O 0.8639(5) 0.5330(9) 0.5519(6) 0.0851(17) Uani 1 1 d . . . .
C7 C 0.6314(6) 0.4191(11) 0.8207(6) 0.0499(16) Uani 1 1 d . . . .
C5 C 0.6221(6) 0.6495(9) 0.8144(5) 0.0454(14) Uani 1 1 d . . . .
C4 C 0.7308(5) 0.7358(11) 0.7418(5) 0.0517(15) Uani 1 1 d . . . .
H4A H 0.7463 0.8828 0.7592 0.062 Uiso 1 1 calc R . . .
H4B H 0.8108 0.6589 0.7599 0.062 Uiso 1 1 calc R . . .
C8 C 0.5012(6) 0.7154(10) 0.7322(5) 0.0520(16) Uani 1 1 d . . . .
H8 H 0.4895 0.8669 0.7396 0.062 Uiso 1 1 calc R . . .
N2 N 0.6433(6) 0.2448(12) 0.8286(7) 0.090(2) Uani 1 1 d . . . .
C13 C 0.2333(6) 0.3110(14) 0.7378(6) 0.0645(19) Uani 1 1 d . . . .
H13 H 0.2145 0.1784 0.7069 0.077 Uiso 1 1 calc R . . .
C9 C 0.3765(6) 0.6090(11) 0.7566(6) 0.0505(15) Uani 1 1 d . . . .
N1 N 0.5405(5) 0.6703(11) 0.6127(5) 0.0648(18) Uani 1 1 d . . . .
H1 H 0.495(7) 0.747(15) 0.567(6) 0.078 Uiso 1 1 d R . . .
C3 C 0.6792(6) 0.7044(12) 0.6100(6) 0.059(2) Uani 1 1 d . . . .
H3 H 0.6943 0.8315 0.5641 0.071 Uiso 1 1 calc R . . .
C2 C 0.7399(7) 0.5183(16) 0.5515(7) 0.072(2) Uani 1 1 d . . . .
O3 O 0.6810(14) 0.430(8) 0.479(4) 0.121(16) Uani 0.57(6) 1 d . P A 1
O2 O 0.6914(17) 0.312(5) 0.547(4) 0.081(9) Uani 0.43(6) 1 d . P A 2
C12 C 0.1504(7) 0.4078(15) 0.8087(6) 0.065(2) Uani 1 1 d . . . .
C10 C 0.2889(7) 0.7042(12) 0.8272(6) 0.066(2) Uani 1 1 d . . . .
H10 H 0.3060 0.8378 0.8574 0.080 Uiso 1 1 calc R . . .
C11 C 0.1755(8) 0.6017(15) 0.8533(7) 0.074(2) Uani 1 1 d . . . .
H11 H 0.1176 0.6662 0.9010 0.088 Uiso 1 1 calc R . . .
C6 C 0.6252(8) 0.7338(14) 0.9428(6) 0.0687(19) Uani 1 1 d . . . .
H6A H 0.5521 0.6805 0.9808 0.103 Uiso 1 1 calc GR . . .
H6B H 0.6216 0.8839 0.9408 0.103 Uiso 1 1 calc GR . . .
H6C H 0.7039 0.6900 0.9872 0.103 Uiso 1 1 calc GR . . .
C14 C 0.3461(6) 0.4133(13) 0.7125(6) 0.0598(18) Uani 1 1 d . . . .
H14 H 0.4028 0.3472 0.6642 0.072 Uiso 1 1 calc R . . .
C1 C 0.9314(10) 0.3616(17) 0.4993(11) 0.108(3) Uani 1 1 d . . . .
H1A H 0.9088 0.3579 0.4142 0.162 Uiso 1 1 calc GR . . .
H1B H 0.9069 0.2321 0.5345 0.162 Uiso 1 1 calc GR . . .
H1C H 1.0233 0.3815 0.5143 0.162 Uiso 1 1 calc GR . . .
loop_
_atom_site_aniso_label
_atom_site_aniso_U_11
_atom_site_aniso_U_22
_atom_site_aniso_U_33
_atom_site_aniso_U_23
_atom_site_aniso_U_13
_atom_site_aniso_U_12
Br1 0.0615(5) 0.1601(10) 0.1031(7) 0.0345(8) 0.0165(4) -0.0179(6)
O1 0.058(3) 0.077(3) 0.122(5) -0.003(3) 0.019(3) 0.006(3)
C7 0.045(3) 0.046(4) 0.056(4) -0.003(3) -0.008(3) -0.003(3)
C5 0.051(3) 0.041(3) 0.043(3) 0.000(3) -0.002(3) 0.000(3)
C4 0.048(3) 0.046(4) 0.060(4) -0.001(3) 0.000(3) -0.004(3)
C8 0.054(3) 0.047(4) 0.055(4) 0.009(3) 0.005(3) 0.008(3)
N2 0.078(4) 0.042(4) 0.147(6) 0.012(5) -0.003(4) 0.003(4)
C13 0.050(4) 0.085(6) 0.057(4) -0.006(4) -0.007(3) -0.004(4)
C9 0.046(3) 0.063(4) 0.042(3) 0.007(3) 0.003(3) 0.014(3)
N1 0.042(3) 0.107(5) 0.045(3) 0.016(3) 0.002(2) 0.013(3)
C3 0.043(3) 0.078(6) 0.056(4) 0.019(3) 0.000(3) 0.005(3)
C2 0.047(4) 0.114(7) 0.056(5) -0.017(5) 0.002(3) -0.008(4)
O3 0.076(8) 0.15(3) 0.13(2) -0.09(2) 0.001(10) -0.017(10)
O2 0.062(8) 0.081(16) 0.098(16) -0.025(14) 0.001(8) -0.011(8)
C12 0.046(4) 0.100(6) 0.049(4) 0.018(4) 0.001(3) 0.003(4)
C10 0.069(4) 0.072(6) 0.059(4) -0.001(3) 0.014(3) 0.022(4)
C11 0.059(4) 0.097(6) 0.068(5) 0.007(5) 0.023(4) 0.023(4)
C6 0.089(5) 0.064(5) 0.053(4) -0.014(4) 0.005(3) -0.011(5)
C14 0.043(4) 0.087(5) 0.049(4) -0.014(4) 0.001(3) 0.004(4)
C1 0.085(7) 0.111(8) 0.130(9) -0.020(6) 0.018(6) 0.029(5)
loop_
_atom_type_symbol
_atom_type_description
_atom_type_scat_dispersion_real
_atom_type_scat_dispersion_imag
_atom_type_scat_source
C C 0.0033 0.0016 'International Tables Vol C Tables 4.2.6.8 and 6.1.1.4'
H H 0.0000 0.0000 'International Tables Vol C Tables 4.2.6.8 and 6.1.1.4'
Br Br -0.2901 2.4595 'International Tables Vol C Tables 4.2.6.8 and 6.1.1.4'
N N 0.0061 0.0033 'International Tables Vol C Tables 4.2.6.8 and 6.1.1.4'
O O 0.0106 0.0060 'International Tables Vol C Tables 4.2.6.8 and 6.1.1.4'
loop_
_geom_angle_atom_site_label_1
_geom_angle_atom_site_label_2
_geom_angle_atom_site_label_3
_geom_angle
C2 O1 C1 117.2(8)
N2 C7 C5 177.0(7)
C7 C5 C4 109.5(5)
C7 C5 C8 110.2(5)
C7 C5 C6 108.1(6)
C4 C5 C8 100.4(5)
C6 C5 C4 114.0(5)
C6 C5 C8 114.5(6)
C5 C4 H4A 110.9
C5 C4 H4B 110.9
H4A C4 H4B 108.9
C3 C4 C5 104.2(5)
C3 C4 H4A 110.9
C3 C4 H4B 110.9
C5 C8 H8 108.5
C9 C8 C5 115.7(5)
C9 C8 H8 108.5
N1 C8 C5 102.5(5)
N1 C8 H8 108.5
N1 C8 C9 112.7(5)
C12 C13 H13 120.5
C12 C13 C14 119.0(8)
C14 C13 H13 120.5
C10 C9 C8 121.0(6)
C14 C9 C8 121.5(6)
C14 C9 C10 117.5(7)
C8 N1 H1 105(5)
C3 N1 C8 109.9(5)
C3 N1 H1 114(5)
C4 C3 H3 109.6
N1 C3 C4 105.4(5)
N1 C3 H3 109.6
N1 C3 C2 109.6(6)
C2 C3 C4 113.0(6)
C2 C3 H3 109.6
O1 C2 C3 112.9(7)
O1 C2 O2 114.9(11)
O3 C2 O1 121.4(11)
O3 C2 C3 118.9(17)
O2 C2 C3 126.1(9)
C13 C12 Br1 119.6(7)
C11 C12 Br1 119.1(6)
C11 C12 C13 121.3(7)
C9 C10 H10 119.6
C9 C10 C11 120.8(7)
C11 C10 H10 119.6
C12 C11 C10 119.5(7)
C12 C11 H11 120.3
C10 C11 H11 120.3
C5 C6 H6A 109.5
C5 C6 H6B 109.5
C5 C6 H6C 109.5
H6A C6 H6B 109.5
H6A C6 H6C 109.5
H6B C6 H6C 109.5
C13 C14 H14 119.0
C9 C14 C13 121.9(7)
C9 C14 H14 119.0
O1 C1 H1A 109.5
O1 C1 H1B 109.5
O1 C1 H1C 109.5
H1A C1 H1B 109.5
H1A C1 H1C 109.5
H1B C1 H1C 109.5
loop_
_geom_bond_atom_site_label_1
_geom_bond_atom_site_label_2
_geom_bond_distance
Br1 C12 1.900(7)
O1 C2 1.286(9)
O1 C1 1.449(11)
C7 C5 1.477(9)
C7 N2 1.124(10)
C5 C4 1.542(9)
C5 C8 1.548(8)
C5 C6 1.529(8)
C4 H4A 0.9700
C4 H4B 0.9700
C4 C3 1.537(9)
C8 H8 0.9800
C8 C9 1.503(9)
C8 N1 1.456(9)
C13 H13 0.9300
C13 C12 1.363(10)
C13 C14 1.387(10)
C9 C10 1.390(9)
C9 C14 1.371(10)
N1 H1 0.83(8)
N1 C3 1.454(8)
C3 H3 0.9800
C3 C2 1.518(12)
C2 O3 1.124(16)
C2 O2 1.41(3)
C12 C11 1.352(12)
C10 H10 0.9300
C10 C11 1.395(11)
C11 H11 0.9300
C6 H6A 0.9600
C6 H6B 0.9600
C6 H6C 0.9600
C14 H14 0.9300
C1 H1A 0.9600
C1 H1B 0.9600
C1 H1C 0.9600
loop_
_refln_index_h
_refln_index_k
_refln_index_l
_refln_F_squared_meas
_refln_F_squared_sigma
0 -8 1 1.54 5.76
0 -8 2 4.74 6.31
0 -8 -2 6.14 5.87
0 -8 -3 0.65 5.35
0 -8 3 2.31 4.78
0 -8 4 1.3 4.31
0 -7 0 14.88 7.4
0 -7 0 21.59 7.62
0 -7 -1 15.41 7.17
0 -7 1 8.66 5.39
0 -7 -2 7.27 5.73
0 -7 2 0.48 4.17
0 -7 -3 3.77 5.22
0 -7 3 2.34 4.66
0 -7 4 -2.54 5.97
0 -7 4 8.51 6.39
0 -7 -4 12.98 6.75
0 -7 -5 8.06 6.21
0 -7 5 -0.4 4.44
0 -7 5 -0.62 4.46
0 -7 6 -10.37 7.21
0 -7 -6 3.19 6.19
0 -7 6 0.04 5.8
0 -7 7 6.54 7.43
0 -7 -7 1.98 6.36
0 -7 -8 1.76 4.84
0 -6 0 61.5 10.49
0 -6 0 59.08 11.34
0 -6 -1 28.89 8.05
0 -6 1 20.38 6.27
0 -6 1 23.26 6.21
0 -6 2 24.37 7.33
0 -6 -2 28.3 8.13
0 -6 2 26.37 6.95
0 -6 -3 13.75 5.61
0 -6 3 19.34 6.16
0 -6 3 13.76 5.86
0 -6 4 0.08 5.03
0 -6 4 6.26 5.19
0 -6 -4 12.92 6.28
0 -6 5 1.76 4.97
0 -6 -5 -0.12 4.37
0 -6 -6 -3.23 5.2
0 -6 6 6.77 4.93
0 -6 7 -0.51 4.9
0 -6 -7 -7.77 5.12
0 -6 8 3.1 6.53
0 -6 -8 8.63 7.41
0 -6 9 0.69 7.4
0 -6 -9 14.16 9.58
0 -6 -10 18.48 9.45
0 -5 0 4.2 3.95
0 -5 0 5.32 3.07
0 -5 0 2.37 3.8
0 -5 1 69.98 10.03
0 -5 1 87.82 11.73
0 -5 -1 79.95 11.04
0 -5 -1 72.5 9.84
0 -5 1 79.39 9.69
0 -5 2 95.72 12.03
0 -5 2 97.35 11.53
0 -5 -2 93.33 11.77
0 -5 2 99.04 9.1
0 -5 3 36.54 8.04
0 -5 3 27.69 5.07
0 -5 -3 26.67 7.17
0 -5 -4 61 9.93
0 -5 4 68.5 8.22
0 -5 -4 69.29 10.54
0 -5 4 73.81 11.29
0 -5 5 114.01 15.08
0 -5 -5 106.93 13.98
0 -5 -5 111.66 13.91
0 -5 5 107.6 10.88
0 -5 6 19.63 7.67
0 -5 -6 17.55 7.38
0 -5 6 15.03 5.26
0 -5 -6 23.47 7.92
0 -5 7 13.86 5.22
0 -5 -7 26.81 8.88
0 -5 7 20.21 8.51
0 -5 -7 25.24 8.64
0 -5 8 19.01 7.97
0 -5 -8 12.44 7.17
0 -5 8 19.89 7.03
0 -5 -8 14.61 7.5
0 -5 -9 2.88 5.58
0 -5 -9 9.56 6.45
0 -5 9 24.04 7.76
0 -5 10 -1.61 5.99
0 -5 -10 -2.85 6.65
0 -5 -10 1.06 5.88
0 -5 -11 -7.29 7.26
0 -5 -12 -7.75 7.37
0 -4 0 243.2 16.03
0 -4 0 240.72 16.24
0 -4 0 247.36 13.85
0 -4 1 31.75 6.69
0 -4 -1 34.59 6.29
0 -4 -1 26.33 5.72
0 -4 1 32.74 6.3
0 -4 1 33.52 4.7
0 -4 1 31.86 5.82
0 -4 2 85.92 7.51
0 -4 -2 84 8.88
0 -4 -2 72.87 9.06
0 -4 2 91.85 10.18
0 -4 3 53.36 6.32
0 -4 3 67.63 9.38
0 -4 -3 52.17 8.47
0 -4 -3 50.41 7.96
0 -4 -4 42.48 7.83
0 -4 4 44.77 6.44
0 -4 4 48.38 8.53
0 -4 -4 48.91 8.31
0 -4 5 76.56 8.78
0 -4 5 72.49 11.11
0 -4 -5 80.91 11.46
0 -4 -5 61.9 9.61
0 -4 6 9.62 3.77
0 -4 -6 8.55 4.97
0 -4 6 5.26 4.77
0 -4 -6 10.59 5.76
0 -4 7 48.74 8.73
0 -4 -7 54.49 9.89
0 -4 7 59.99 11.45
0 -4 -7 62.7 11.32
0 -4 -8 20.89 7.15
0 -4 8 27.52 8.24
0 -4 8 17.63 5.89
0 -4 -8 11.54 6.18
0 -4 -9 30.58 8.75
0 -4 9 43.57 9.83
0 -4 9 34.28 9.78
0 -4 -9 32.07 8.65
0 -4 -10 52.75 11.54
0 -4 10 65.47 14.05
0 -4 10 37.92 10.17
0 -4 -10 29.04 9.92
0 -4 11 1.75 5.79
0 -4 -11 -0.97 6.46
0 -4 11 2.17 6.28
0 -4 -11 2.04 5.9
0 -4 12 -3.62 7.24
0 -4 -12 -4.51 6.97
0 -4 -12 -5.6 6.2
0 -4 12 0.81 6.02
0 -4 13 0.38 8.28
0 -4 -13 9.11 7.06
0 -3 0 -0.69 1.84
0 -3 0 0.79 1.33
0 -3 0 -1.27 1.97
0 -3 0 0.47 2.22
0 -3 -1 864.22 26.28
0 -3 1 918.81 27.63
0 -3 -1 878.22 23.4
0 -3 1 842.04 20.18
0 -3 -1 857.48 26.82
0 -3 1 902.57 25.4
0 -3 -1 929.26 20.07
0 -3 2 528.83 21.34
0 -3 2 512.33 16.64
0 -3 -2 532.94 20.77
0 -3 -2 519.48 21.07
0 -3 -3 130.87 11.45
0 -3 3 123.48 8.8
0 -3 3 122.49 11.47
0 -3 -3 128.39 11.24
0 -3 -4 542.09 23.72
0 -3 4 572.74 25.51
0 -3 4 516.74 19.53
0 -3 4 536.15 18.62
0 -3 -4 581.48 25.2
0 -3 -5 229.94 16.75
0 -3 5 216.22 14.19
0 -3 5 218.43 12.44
0 -3 5 235.9 17.55
0 -3 -5 244.12 17.62
0 -3 6 120.67 13.81
0 -3 -6 114.49 13
0 -3 6 97.3 10.79
0 -3 6 86.54 8.3
0 -3 -6 114.03 12.94
0 -3 7 66.44 10.68
0 -3 -7 79.79 11.85
0 -3 -7 62.24 10.46
0 -3 -8 45.33 9.05
0 -3 -8 49.19 10.31
0 -3 8 46.23 9.73
0 -3 9 58.66 11.47
0 -3 -9 41.23 9.91
0 -3 -9 51.64 10.21
0 -3 10 8.81 4.86
0 -3 -10 8.81 5.27
0 -3 -10 16.88 7.43
0 -3 -11 19.7 6.93
0 -3 11 22.71 8.48
0 -3 -12 2.77 6.97
0 -3 -12 0.48 4.74
0 -3 12 6.26 5.84
0 -3 13 1.93 6.01
0 -3 -13 -17.93 8.6
0 -3 -13 -13.34 7.77
0 -2 0 5663.06 42.24
0 -2 0 5788.53 56.3
0 -2 0 5850.08 55.62
0 -2 0 5743.98 47.1
0 -2 1 1690.16 30.82
0 -2 -1 1657.82 20.32
0 -2 -1 1624.55 29.39
0 -2 1 1612.9 28.57
0 -2 -1 1538.23 29.27
0 -2 -1 1656.47 27.9
0 -2 1 1536.8 22.97
0 -2 -2 1289.24 27.82
0 -2 2 1295.27 23.08
0 -2 2 1284.1 22.51
0 -2 2 1308.17 29.03
0 -2 3 604.07 16.21
0 -2 -3 666.44 22.58
0 -2 -3 635.03 20.58
0 -2 3 619.76 18.1
0 -2 3 662.31 22.69
0 -2 -4 524.12 20.47
0 -2 -4 539.47 21.84
0 -2 4 494.94 15.55
0 -2 4 537.39 22.04
0 -2 5 343.89 14.33
0 -2 5 364.97 12.8
0 -2 -5 332.03 9.68
0 -2 -5 368.09 19.18
0 -2 5 392.82 20.36
0 -2 -5 367.78 19.55
0 -2 -6 147.54 7.74
0 -2 -6 166.54 13.99
0 -2 -6 155.68 13.56
0 -2 6 143.23 10.46
0 -2 6 153.52 9.9
0 -2 6 152.99 13.69
0 -2 -6 156.35 10.45
0 -2 -7 96.49 9.82
0 -2 7 84.45 9.4
0 -2 -7 102.79 11.83
0 -2 -7 87.49 11.46
0 -2 7 114.64 12.58
0 -2 -7 89.25 7.12
0 -2 7 112.94 9.81
0 -2 -8 23.48 6.53
0 -2 -8 30.76 6.56
0 -2 8 36.34 6.44
0 -2 -8 50.43 9.16
0 -2 8 59.16 10.28
0 -2 9 244.11 20.46
0 -2 -9 149.14 15.2
0 -2 -9 114.17 14.93
0 -2 9 202.06 16.2
0 -2 -9 202.99 18.46
0 -2 -10 22.74 7.48
0 -2 10 43.69 8.28
0 -2 10 52.65 10.3
0 -2 -10 40.17 8.86
0 -2 -10 22.25 6.39
0 -2 11 -1.41 4
0 -2 -11 8.9 8.04
0 -2 -11 -2.78 5.58
0 -2 11 -4.84 5.42
0 -2 12 4.25 4.99
0 -2 -12 6.35 4.67
0 -2 -12 18.33 9.25
0 -2 13 0.55 5.51
0 -2 -13 2.35 5.55
0 -2 -13 11.67 7.56
0 -2 -14 -7.99 6.13
0 -2 14 2.24 5.4
0 -1 -1 3888.67 33.43
0 -1 -1 4084.67 34.44
0 -1 -1 4014.61 33.96
0 -1 1 3923.11 35.18
0 -1 1 3985.95 27.37
0 -1 1 3924.19 28.23
0 -1 -2 2944.43 34.98
0 -1 -2 2935.07 32.42
0 -1 2 2941.67 20.78
0 -1 -2 2871.63 34.25
0 -1 2 2896.1 25.82
0 -1 -3 24.4 2.28
0 -1 -3 26.21 2.08
0 -1 -3 28.25 3.99
0 -1 -3 25.57 3.79
0 -1 -3 27.86 4.25
0 -1 3 26.81 2.78
0 -1 -3 24.44 2.75
0 -1 3 24.97 2.87
0 -1 3 27.47 4.29
0 -1 -4 1260.86 23.56
0 -1 4 1213.36 21.8
0 -1 -4 1291.25 29.23
0 -1 4 1296.13 30.47
0 -1 4 1250.77 23.05
0 -1 4 1268.04 25.6
0 -1 -4 1317.18 29.63
0 -1 -4 1243.92 18.69
0 -1 5 1575.5 30.47
0 -1 -5 1542.06 24.55
0 -1 5 1627.62 37.25
0 -1 5 1489.74 34.48
0 -1 -5 1594.52 35.98
0 -1 5 1561.76 29.02
0 -1 -5 1604.77 31.35
0 -1 -6 493.91 21.58
0 -1 6 421.04 21.35
0 -1 6 509.68 18.54
0 -1 6 516.61 22.33
0 -1 -6 487.46 19.55
0 -1 6 497.65 19.3
0 -1 -6 484.1 15.56
0 -1 -7 325.3 18.68
0 -1 7 353.08 18.1
0 -1 -7 353.74 14.6
0 -1 -7 365.97 18.74
0 -1 7 374.66 20.58
0 -1 -8 115.27 12.05
0 -1 8 100.05 10.57
0 -1 -8 84.01 10.28
0 -1 8 107.62 11.92
0 -1 -9 27.93 8.47
0 -1 -9 7.31 4.51
0 -1 9 23.99 7.18
0 -1 9 13.93 5.64
0 -1 10 14.32 7.08
0 -1 10 6.19 4.72
0 -1 -10 2.83 4.27
0 -1 11 29.05 9.04
0 -1 -11 9.89 5.39
0 -1 11 13.94 6.03
0 -1 -11 27.78 8.82
0 -1 12 13.96 7.43
0 -1 -12 9.45 6.67
0 -1 -12 -2.47 4.97
0 -1 12 9.52 5.95
0 -1 13 3.44 5.19
0 -1 -13 -3.62 5.07
0 -1 13 2.22 4.44
0 -1 -14 -10.7 6.59
0 -1 -15 0.24 5.2
0 0 -2 2485.88 25.74
0 0 -2 2491.6 24.28
0 0 2 2491.79 25.2
0 0 -2 2499.91 24.02
0 0 2 2521.51 24.86
0 0 -2 2520.34 24.95
0 0 2 2524.82 25.66
0 0 3 9899.85 61.49
0 0 -3 9767.66 57.65
0 0 -3 9354.9 60.69
0 0 -3 9433.92 58.58
0 0 3 9422.93 61.41
0 0 -3 9458.45 57.18
0 0 3 9285.84 59.61
0 0 3 9999 62.45
0 0 4 77.37 6.38
0 0 -4 73.54 5.92
0 0 -4 66.27 5.74
0 0 -4 71.99 5.79
0 0 4 68.86 6.07
0 0 -4 79.57 6.45
0 0 4 76.78 6.24
0 0 4 70.18 6.39
0 0 5 424.54 16.55
0 0 5 405.01 16.17
0 0 -5 393.67 16.02
0 0 -5 394.11 14.87
0 0 -5 385.94 15.14
0 0 5 385.78 15.56
0 0 5 394.89 16.63
0 0 -5 379.54 14.94
0 0 -6 444.2 17.3
0 0 6 402.5 18.58
0 0 -6 416.58 17.27
0 0 6 401.11 17.45
0 0 -6 435.86 17.29
0 0 7 734.57 27.46
0 0 -7 650.44 23.86
0 0 7 666.33 24.46
0 0 -7 716.69 23.9
0 0 -8 20.91 5.65
0 0 8 9.3 4.51
0 0 8 5.66 4.61
0 0 -8 18.16 5.9
0 0 -9 469.21 23.03
0 0 -9 515.78 23.11
0 0 9 468.83 23.65
0 0 9 514.42 26.88
0 0 10 117 13.18
0 0 -10 132.48 12.58
0 0 -10 125.37 12.81
0 0 10 134.43 14.89
0 0 11 34.25 8.85
0 0 11 28.19 7.27
0 0 -11 35.63 7.63
0 0 -11 42.69 8.03
0 0 -12 12.96 5.21
0 0 -12 10.01 5.29
0 0 12 3.93 4.18
0 0 12 18.55 8.33
0 0 -13 8.37 6.15
0 0 13 6.08 7.13
0 0 -13 4.67 4.49
0 0 14 10.94 7.6
0 0 15 15.47 7.8
0 1 1 4800.67 36.52
0 1 1 4796.27 37.84
0 1 -1 4932.18 40.82
0 1 -1 4830.2 30.82
0 1 1 4862.56 36.65
0 1 -1 4886.23 40.59
0 1 2 3088.92 35.35
0 1 -2 3103.44 24.38
0 1 -2 3045.3 20.94
0 1 -2 3105.88 37.11
0 1 2 3065.86 22.54
0 1 -2 3113.22 19.47
0 1 2 3047.28 31.02
0 1 -3 48.02 3.49
0 1 3 42.75 3.14
0 1 -3 48.64 5.22
0 1 -3 46.02 3.27
0 1 3 46.8 2.77
0 1 -3 50.75 5.22
0 1 3 39.64 4.86
0 1 -3 48.46 3.46
0 1 3 47.82 5.15
0 1 4 1606.86 33.63
0 1 -4 1683.49 33.22
0 1 -4 1622.54 23.69
0 1 -4 1714.73 32.23
0 1 -4 1622.3 24.81
0 1 4 1572.58 22.77
0 1 4 1766.67 34.5
0 1 4 1629.28 21.64
0 1 5 1627.8 36.89
0 1 -5 1574.62 26.68
0 1 -5 1633.97 34.64
0 1 5 1528.23 25.02
0 1 -5 1580.76 28.64
0 1 5 1580.04 26.99
0 1 -6 512.88 18.23
0 1 6 483.03 16.21
0 1 6 527.14 17.8
0 1 6 525.17 23.08
0 1 -6 530.04 20.84
0 1 -6 496.72 16.64
0 1 -7 378.92 16
0 1 7 381.42 16.07
0 1 -7 415.35 19.52
0 1 7 415.33 22.39
0 1 8 128.88 10.3
0 1 -8 153.21 12.8
0 1 -8 132.71 10.44
0 1 8 166.05 15.02
0 1 -9 7.14 3.37
0 1 -9 3.89 4
0 1 9 8.72 3.51
0 1 9 9.33 5.26
0 1 -10 16.88 6.27
0 1 10 11.72 3.81
0 1 10 11.5 6.53
0 1 -10 6.7 3.89
0 1 11 9.03 3.52
0 1 -11 11.4 4.6
0 1 11 11.75 6.27
0 1 -11 13.33 6.1
0 1 -12 -2.3 4.02
0 1 12 -7.38 6.69
0 1 -12 -2.93 4.82
0 1 -13 0.84 3.97
0 1 13 -9.92 6.86
0 1 14 3.4 6.43
0 1 -14 -14.58 6.39
0 2 0 5700.06 42.76
0 2 0 5885.83 46.27
0 2 0 5529.27 48.93
0 2 0 5562.11 45.86
0 2 0 6011.04 60.26
0 2 1 1631.92 32.36
0 2 1 1560.47 30.55
0 2 -1 1493.8 20.54
0 2 1 1555.09 22.06
0 2 -1 1576.04 29.25
0 2 -1 1595.24 25.88
0 2 1 1528.85 27.01
0 2 1 1548.14 25.9
0 2 -1 1607.9 32.14
0 2 1 1545.67 25.83
0 2 -1 1530.3 23.07
0 2 -2 1262.22 28.7
0 2 2 1312.65 15.45
0 2 2 1349.62 27.5
0 2 2 1296.65 29.31
0 2 -2 1447.07 30.52
0 2 2 1351.15 27.9
0 2 2 1368.98 15.26
0 2 2 1362.49 27.89
0 2 -2 1333.01 22.75
0 2 3 775.77 14.87
0 2 -3 786.2 11.68
0 2 3 799.78 24.1
0 2 3 787.95 21.37
0 2 -3 797.78 17.39
0 2 4 430.03 19.32
0 2 -4 472.54 19.48
0 2 -4 433.3 10.9
0 2 -4 469.34 13.39
0 2 -4 468.13 10.43
0 2 4 449.1 11.62
0 2 -5 396.64 12.42
0 2 -5 404.37 12.68
0 2 5 435.06 21.05
0 2 -5 392.98 11.45
0 2 5 369.48 11.61
0 2 -5 418 19.63
0 2 6 230.58 16.55
0 2 6 238.64 10.34
0 2 -6 249.18 16.03
0 2 6 206.24 7.54
0 2 -6 257.48 10.91
0 2 -6 225.44 10.07
0 2 -6 248.32 11.26
0 2 7 115.9 8.26
0 2 -7 105.63 8.36
0 2 -7 111.77 11.6
0 2 -7 105.61 7.62
0 2 7 125.1 13.37
0 2 7 101.76 6.3
0 2 -8 46.12 5.7
0 2 -8 58.54 9.58
0 2 8 43.7 9.29
0 2 8 36.34 4.34
0 2 -9 229.03 13.39
0 2 9 205.39 11.15
0 2 9 237.96 20.37
0 2 10 48.98 10.74
0 2 -10 42.62 6.49
0 2 -10 44.28 8.66
0 2 11 -0.53 6.05
0 2 -11 4.73 4.78
0 2 12 -3.33 6.36
0 2 -12 8.03 5.41
0 2 -13 2.87 5.24
0 2 13 1.97 6.66
0 2 -14 0.01 4.82
0 3 0 0.56 1.02
0 3 0 0.59 1.2
0 3 0 -0.01 1.4
0 3 0 0.87 1.22
0 3 -1 1198.08 28.49
0 3 1 1187.76 26.87
0 3 1 1204.01 28.18
0 3 1 1149.87 24.14
0 3 -1 1193.45 30.2
0 3 -1 1120.22 22.39
0 3 -1 1171.69 20.91
0 3 1 1144.71 27.23
0 3 -1 1217.23 25.44
0 3 2 621.92 21.62
0 3 -2 517.43 13.55
0 3 2 550.7 14.27
0 3 -2 637.56 20.14
0 3 -2 588.06 17.43
0 3 2 540.88 19.2
0 3 3 109.69 10.24
0 3 -3 133.32 9.06
0 3 3 120.24 5.24
0 3 3 96.47 4.49
0 3 -3 104.14 4.51
0 3 4 651.56 25.98
0 3 4 602.71 15.53
0 3 -4 656.51 25.87
0 3 -4 632.44 18.97
0 3 -4 593.72 10.63
0 3 -5 273.69 12.13
0 3 -5 263.81 17.25
0 3 5 282.76 18.34
0 3 -5 266.18 8.17
0 3 5 253.91 10.08
0 3 -5 256.64 8.3
0 3 6 90.59 11.73
0 3 -6 88.95 5.45
0 3 6 88.03 6.09
0 3 -6 93.13 5.87
0 3 -6 117.05 12.53
0 3 -6 103.88 7.68
0 3 -7 60.37 5.43
0 3 -7 59.7 4.78
0 3 7 84.14 12.57
0 3 -7 79.83 10.73
0 3 -7 75.8 6.79
0 3 7 54.81 5.09
0 3 -8 80.8 11.18
0 3 -8 67.28 5.82
0 3 8 73.49 11.77
0 3 9 75.58 12.93
0 3 -9 77.14 11.88
0 3 10 20.03 7.91
0 3 -10 21.89 7.96
0 3 -11 35.68 9.13
0 3 11 27.84 10.14
0 3 -12 20.67 8.15
0 3 12 14.57 8.14
0 3 13 7.74 9.28
0 3 -13 5.76 6.74
0 4 0 216.44 13.36
0 4 0 223.72 15.1
0 4 0 220.18 12.22
0 4 -1 28.8 5.63
0 4 -1 20.73 3.45
0 4 -1 24.31 3.89
0 4 -1 28.75 4.7
0 4 1 25.66 5.12
0 4 1 21.68 4.04
0 4 1 22.61 4.55
0 4 2 78.58 8.78
0 4 2 68.28 6.28
0 4 -2 66.1 5.72
0 4 -2 77.7 7.31
0 4 -2 74.17 8.25
0 4 -2 73.73 5.39
0 4 -3 80.64 8.48
0 4 3 85.92 9.96
0 4 3 82.32 5.81
0 4 -3 69.75 4.47
0 4 3 68.15 5.17
0 4 -3 62.31 5
0 4 -4 36.56 3.43
0 4 4 38.97 6.9
0 4 -4 33.13 2.43
0 4 4 41.1 3.03
0 4 -4 37.83 2.4
0 4 -4 35.27 7.12
0 4 -4 44.53 6.18
0 4 -5 78.98 10.83
0 4 5 71.47 5.98
0 4 -5 79.69 7.63
0 4 5 77.23 10.7
0 4 -5 56.64 3.69
0 4 -5 74.44 4.19
0 4 -6 6.44 2.73
0 4 -6 -1.34 5.05
0 4 6 2.44 4.64
0 4 7 75.42 12.02
0 4 -7 65.3 6.81
0 4 -7 74.82 11.3
0 4 8 25.16 9
0 4 -8 30.75 8.51
0 4 -8 29.14 4.85
0 4 9 44.65 11.13
0 4 -9 51.77 10.1
0 4 -10 64.45 11.82
0 4 10 77.87 14.52
0 4 11 3.4 7.05
0 4 -11 17.89 8.29
0 4 -12 5.39 6.37
0 4 12 1.77 6.76
0 5 0 2.61 2.79
0 5 0 5.6 4.3
0 5 -1 87.61 7.97
0 5 -1 77.16 9.94
0 5 1 79.19 9.24
0 5 -2 95.43 7.38
0 5 2 94.06 10.78
0 5 -2 102.28 11.07
0 5 3 40.2 7.83
0 5 3 44.64 5.39
0 5 -3 33.84 6.37
0 5 -3 38.76 3.8
0 5 4 94.35 12.16
0 5 -4 87.5 9.93
0 5 -4 89.42 12.14
0 5 -5 119.14 14.43
0 5 -5 132.57 11.85
0 5 5 137.83 15.24
0 5 -6 24.71 5.18
0 5 -6 25.44 7.6
0 5 6 34.74 8.93
0 5 -7 26.07 8.01
0 5 7 33.59 9.48
0 5 -8 20.43 8.11
0 5 8 22.92 8.33
0 5 9 33.97 11.06
0 5 -9 33.04 9.91
0 5 10 7.26 8.57
0 5 -10 -7.06 5.96
0 6 0 74.18 12.38
0 6 0 40.31 6.8
0 6 1 34.35 9.04
0 6 1 26.35 6.26
0 6 -1 26.57 7.25
0 6 2 26.54 8.62
0 6 -2 40.02 8.63
0 6 2 33.38 7.8
0 6 -3 24.02 7.62
0 6 -3 9.8 4.94
0 6 3 9.74 5.18
0 6 -4 17.83 5.85
0 6 -4 7.86 5.99
0 6 4 8.68 4.87
0 6 -5 5.06 4.09
0 6 -5 2.43 4.17
0 6 5 9.85 5.66
0 6 -6 8.1 5.75
0 6 6 7.18 6.07
0 6 -7 0.2 7.16
0 6 7 0.66 5.72
0 6 -8 9.07 7.47
0 6 8 1.13 6.37
0 6 -9 7.97 7.69
0 6 9 15.66 8.93
0 7 0 8.16 6.88
0 7 1 20.06 7.99
0 7 -1 12.11 6.76
0 7 -1 6.08 5.02
0 7 2 -5.04 8.42
0 7 -2 -0.14 4.87
0 7 -2 1.36 4.98
0 7 3 -9.79 7.1
0 7 -3 -3.58 5.03
0 7 3 8.81 5.15
0 7 -3 -0.34 4.67
0 7 -4 5.8 6.28
0 7 4 3.35 4.21
0 7 -5 9.75 7.26
0 7 5 4.1 5.12
0 7 6 1.1 5.76
0 7 -6 -7.73 7.92
0 7 7 1.42 6.28
0 7 -7 8.71 7.25
0 7 8 1.03 5.72
0 8 0 -8.19 7.03
0 8 1 10.84 8.37
0 8 -1 0.53 4.8
0 8 2 -2.24 6.05
0 8 -2 2.77 4.74
0 8 3 -2.41 6.29
0 8 -3 5.83 6.36
0 8 -4 0.39 5.42
-1 -8 3 2.16 5.07
-1 -8 2 2.18 5.53
-1 -8 1 5.29 5.52
1 -8 -1 1.01 4.75
1 -8 1 4 5.75
-1 -8 -2 13.28 8.59
1 -8 2 0.76 4.79
-1 -8 -3 -0.86 5.52
1 -8 3 7.71 5.96
1 -8 4 5.54 7.09
-1 -8 -4 1.04 4.17
1 -8 4 7.71 6.13
1 -8 5 -7.33 5.81
1 -7 -7 0.85 5.68
-1 -7 6 -11.69 7.02
1 -7 -6 6.71 6.56
-1 -7 5 8.14 7.03
1 -7 -5 5.57 5.76
1 -7 -4 2.66 4.07
-1 -7 4 0.82 4.29
1 -7 -3 2.3 5.08
-1 -7 3 3.64 5.37
-1 -7 2 6.6 6.01
1 -7 -2 1.57 4.81
1 -7 -1 0.74 5.14
-1 -7 1 4.13 5.5
1 -7 0 3.95 4.97
-1 -7 0 6.7 5.71
1 -7 0 6.46 6.59
-1 -7 -1 3.98 5.14
1 -7 1 5.05 4.24
1 -7 1 8.04 6.19
1 -7 2 3.6 4.64
-1 -7 -2 13.44 7.04
1 -7 2 3.8 5.09
-1 -7 -3 0.54 4.59
1 -7 3 16.33 7.58
1 -7 3 3.92 4.87
-1 -7 -4 2.66 4.72
1 -7 4 7.63 6.16
1 -7 4 2.09 4.39
1 -7 5 7.04 5.79
1 -7 5 7.46 6.39
-1 -7 -5 -0.82 4.84
1 -7 6 -12.36 7.28
-1 -7 -6 0.57 4.35
1 -7 6 2.86 6.48
1 -7 7 2.35 5.98
-1 -7 -7 -4.53 5.35
-1 -7 -8 0.01 5.23
-1 -7 -9 0.01 5.37
1 -6 -10 11.11 10.82
-1 -6 9 5.92 7.57
1 -6 -9 8.56 9.22
-1 -6 8 -2.23 5.46
1 -6 -8 13.22 7.89
-1 -6 7 18.26 8.1
1 -6 -7 14.72 7.74
1 -6 -6 -2.02 5.15
-1 -6 6 4.35 5.6
1 -6 -5 12.76 5.88
-1 -6 5 25.1 8.07
-1 -6 4 11.41 4.11
1 -6 -4 2.8 3.55
-1 -6 4 7.75 6.27
-1 -6 3 6.42 3.76
1 -6 -3 4.9 4.54
-1 -6 3 3.13 5.12
-1 -6 2 -1.05 4.75
-1 -6 2 2.67 2.84
1 -6 -2 9.35 6.01
-1 -6 1 -0.65 4.41
1 -6 -1 5.56 4.34
-1 -6 0 9.53 6.17
1 -6 0 6.79 4.39
-1 -6 0 4.93 5.64
1 -6 0 3.42 3.26
1 -6 0 2.92 4.19
1 -6 1 22.06 5.75
-1 -6 -1 26.2 7.22
1 -6 1 21.59 7.49
1 -6 1 19.13 6.36
-1 -6 -2 15.55 6.54
1 -6 2 22.98 7.22
1 -6 2 23.21 7.02
-1 -6 -3 5.18 3.96
1 -6 3 0.99 3.84
1 -6 3 3.73 3.83
1 -6 4 10.59 6.14
-1 -6 -4 12.1 5.71
-1 -6 -4 4.8 4.74
1 -6 4 -1.8 4.65
-1 -6 -5 5.16 4.99
1 -6 5 9.3 6.93
-1 -6 -5 1.93 4.19
-1 -6 -6 -0.35 4.75
-1 -6 -6 -0.08 4.67
1 -6 6 1.92 4.8
-1 -6 -7 -1.47 5.35
1 -6 7 0.8 5.94
-1 -6 -7 -8.47 7.59
-1 -6 -8 -0.81 4.55
-1 -6 -8 -11.01 8.8
1 -6 8 5.59 5.35
1 -6 9 -7.54 9.27
-1 -6 -9 -7.45 6.8
-1 -6 -9 9.6 7.21
-1 -6 -10 14.13 8.16
1 -5 -12 5.46 7.52
1 -5 -11 1.35 5.4
1 -5 -10 -1.24 5.12
-1 -5 10 4.42 7.25
-1 -5 10 13.5 8.66
-1 -5 9 11.46 8.53
1 -5 -9 2.72 5.93
-1 -5 9 3.98 4.79
-1 -5 8 5.83 4.87
1 -5 -8 16.21 7.63
-1 -5 8 10.43 5.14
1 -5 -7 3.84 5.63
-1 -5 7 -2.36 6.01
-1 -5 7 -3.34 4.03
-1 -5 6 8.01 5
-1 -5 6 18.11 5.46
1 -5 -6 20.93 7.79
-1 -5 5 32.66 8.41
1 -5 -5 26.73 8.24
-1 -5 5 29.19 6.29
1 -5 -4 18.83 5.51
-1 -5 4 17.39 4.83
-1 -5 4 27.7 7.82
-1 -5 3 8.3 3.48
-1 -5 3 10.41 5.17
1 -5 -3 13.55 5.43
-1 -5 2 54.24 7.47
-1 -5 2 53.89 9.79
1 -5 -2 50.56 9.08
1 -5 -1 22.06 5.71
-1 -5 1 23.56 5.24
1 -5 -1 15.88 5.37
1 -5 -1 16.26 4.02
-1 -5 1 22.27 6.11
-1 -5 0 30.32 7.48
-1 -5 0 45.41 7.98
1 -5 0 37.83 6.2
1 -5 0 35.28 7.13
1 -5 0 36.83 7.93
1 -5 1 22.16 6.85
1 -5 1 14.39 4.94
-1 -5 -1 19.27 6.24
-1 -5 -1 15.62 5.18
1 -5 1 11.38 4.51
1 -5 2 21.38 6.2
1 -5 2 12.42 4.48
-1 -5 -2 19.68 5.84
-1 -5 -2 18.56 5.17
1 -5 2 21.21 3.77
1 -5 3 7.27 4.48
-1 -5 -3 10.41 4.34
-1 -5 -3 11.07 4.48
1 -5 3 11 2.78
1 -5 4 3.55 2.26
-1 -5 -4 3.88 3.37
1 -5 4 0.06 4.04
-1 -5 -4 4.25 4.69
-1 -5 -5 9.21 4
1 -5 5 10.14 3.64
-1 -5 -5 11.07 5.73
1 -5 5 4.64 5.44
1 -5 6 38.63 9.58
-1 -5 -6 34.98 8.79
1 -5 6 41.64 7.06
-1 -5 -6 36.7 8.73
-1 -5 -7 4.88 4.01
1 -5 7 2.64 5.63
-1 -5 -7 -0.94 6.2
1 -5 8 3.76 5.02
-1 -5 -8 -9.01 8.08
-1 -5 -8 9.44 6.73
1 -5 9 -2.23 5.33
-1 -5 -9 -2.91 5.78
-1 -5 -9 -2.76 6.55
-1 -5 -10 -5.55 7.39
1 -5 10 -10.82 8.65
-1 -5 -10 0.81 5.74
-1 -5 -11 1.85 4.82
-1 -4 13 2.55 7.23
1 -4 -13 -21.16 9.75
-1 -4 12 -6.19 7.32
-1 -4 12 5.49 7.42
1 -4 -12 -5.72 7.59
1 -4 -12 -19.34 9.23
1 -4 -11 5.77 5.64
-1 -4 11 -6.35 7.37
-1 -4 11 -13.08 9.1
1 -4 -11 -10.76 9.11
1 -4 -10 -4.08 6.88
1 -4 -10 -12.87 8.66
-1 -4 10 5.54 6.62
-1 -4 10 -2.4 7.3
-1 -4 9 9.34 5.26
-1 -4 9 4.4 4.71
1 -4 -9 3.32 4.99
1 -4 -9 3.58 5.33
-1 -4 8 -5.97 6.44
1 -4 -8 -2.96 6.25
-1 -4 8 -3.91 5.06
1 -4 -8 -2.26 4.88
1 -4 -7 87.48 13.53
-1 -4 7 93.52 12.48
1 -4 -7 82.6 12.85
-1 -4 7 87.2 13.51
-1 -4 6 28.81 6.7
1 -4 -6 25.76 7.74
1 -4 -6 29.28 7.88
-1 -4 6 36.89 8.99
-1 -4 5 92.97 10.3
1 -4 -5 98.66 12.55
1 -4 -5 99.59 12.44
-1 -4 5 94.42 12.36
-1 -4 4 84.6 9.43
1 -4 -4 84.57 11.18
-1 -4 4 108.69 12.74
-1 -4 3 109.77 11.92
-1 -4 3 100.19 9.58
1 -4 -2 52.74 5.12
-1 -4 2 58.59 8.1
1 -4 -2 52.41 7.68
-1 -4 2 46.91 6.29
1 -4 -1 193.08 11.04
1 -4 -1 197.65 14.98
-1 -4 1 189.03 12.38
1 -4 -1 190.69 13.56
-1 -4 1 179.66 14.66
-1 -4 0 431.67 21.71
1 -4 0 452.11 22.66
-1 -4 0 422.22 17.67
-1 -4 0 407.14 21.38
1 -4 0 441.92 18.49
1 -4 0 383.14 19.37
-1 -4 -1 68.79 8.95
1 -4 1 63.31 8.81
-1 -4 -1 65.32 8.99
1 -4 1 55.46 7.71
1 -4 1 59.4 7.72
-1 -4 -1 62.02 7.33
1 -4 2 35.9 4.15
1 -4 2 38.76 7.49
-1 -4 -2 32.46 6.22
1 -4 2 31.15 6.29
-1 -4 -2 26.66 5.81
-1 -4 -3 154.86 13.14
1 -4 3 145.26 13.6
-1 -4 -3 158.2 13.36
1 -4 3 157.02 9.43
-1 -4 -4 30.44 6.92
-1 -4 -4 24.35 5.98
1 -4 4 31.22 7.65
1 -4 4 28.97 4.9
1 -4 5 1.02 1.82
1 -4 5 -2.23 4.06
-1 -4 -5 -2.95 3.82
-1 -4 -5 -7.55 5.97
1 -4 6 107.59 14.29
1 -4 6 93.67 10.14
-1 -4 -6 106.21 13.11
-1 -4 -6 104.03 13.21
1 -4 7 25.64 6
-1 -4 -7 33.33 8.57
1 -4 7 42.74 9.71
-1 -4 -7 40.03 8.57
-1 -4 -8 17.96 7.07
1 -4 8 20.61 5.94
1 -4 8 21.68 7.93
-1 -4 -8 16.09 6.56
1 -4 9 12.85 5.48
-1 -4 -9 15.66 7.06
1 -4 9 35.42 10.32
-1 -4 -9 19.77 7.49
1 -4 10 -3.32 6.63
-1 -4 -10 -9.28 6.41
-1 -4 -10 -5.78 6.71
1 -4 10 -2.83 5.66
1 -4 11 -4.26 5.82
-1 -4 -11 -13.71 8.97
1 -4 11 -6.57 7.71
-1 -4 -11 -5.56 5.91
-1 -4 -12 -4.66 7.12
1 -4 12 -4.06 7.41
1 -3 -14 0.01 6.83
-1 -3 13 -5.43 8.12
1 -3 -13 -4.4 6.73
1 -3 -13 -15.53 8.2
-1 -3 13 10.24 10.3
1 -3 -12 -15.13 8.92
-1 -3 12 -0.34 4.76
1 -3 -12 -6.18 6.7
-1 -3 11 31.84 10.96
1 -3 -11 26.09 8.08
-1 -3 11 23.81 8.13
-1 -3 10 52.46 12.08
-1 -3 10 59.21 12.22
1 -3 -10 47.5 10.57
-1 -3 9 30.81 9.72
1 -3 -9 26.23 7.65
1 -3 -9 29.93 9.35
-1 -3 9 30.61 9.01
-1 -3 8 343.76 25.09
-1 -3 8 297.05 23.36
1 -3 -8 324.31 24.07
1 -3 -8 265.88 23.44
-1 -3 7 14.18 6.23
1 -3 -7 8.72 4.76
1 -3 -7 17.61 7.28
-1 -3 7 10.9 5.3
-1 -3 6 239.71 19.02
-1 -3 6 233.31 11.35
-1 -3 6 239.3 17.44
1 -3 -6 251.82 19.46
1 -3 -6 235.46 18.72
-1 -3 5 293.23 17.32
-1 -3 5 289.51 12.07
1 -3 -5 306.17 19.81
-1 -3 5 340 21.46
1 -3 -5 280.76 19.1
1 -3 -4 107.14 10.97
-1 -3 4 92.64 9.19
-1 -3 4 110.94 11.94
1 -3 -4 110.01 11.38
-1 -3 3 200.48 14.52
1 -3 -3 191.49 13.34
1 -3 -3 205.04 14.26
-1 -3 3 166.27 11.26
1 -3 -2 406.28 11.32
1 -3 -2 387.14 18.86
-1 -3 2 377.6 16.15
-1 -3 2 391.22 18.57
-1 -3 1 811.35 24.02
1 -3 -1 777.67 25.8
-1 -3 1 763.73 22.16
1 -3 -1 820.46 19.18
-1 -3 1 769.25 27.52
1 -3 -1 755.98 23.14
-1 -3 0 29.66 5.36
1 -3 0 29.1 4.36
-1 -3 0 33.86 5.22
-1 -3 0 23.37 4.01
1 -3 0 28.83 5.11
1 -3 0 27.06 4.59
-1 -3 0 34.72 4.34
1 -3 1 553.92 12.82
-1 -3 -1 583.52 19.32
1 -3 1 572.56 20.5
1 -3 1 566.94 21.55
-1 -3 -1 551.96 22.22
-1 -3 -1 556.07 21.05
-1 -3 -2 468.48 19.42
-1 -3 -2 520.89 20.26
1 -3 2 482.25 13.6
1 -3 2 516.93 21.54
1 -3 2 557.64 22.29
-1 -3 -3 21.3 4.79
-1 -3 -3 23.43 4.55
1 -3 3 22.35 3.34
1 -3 3 32.38 6.09
1 -3 4 136.1 12.98
-1 -3 -4 121.02 10.83
1 -3 4 129.78 9.1
-1 -3 -4 120.53 11.46
-1 -3 -5 89.81 10.18
-1 -3 -5 93.29 11.11
1 -3 5 93.97 8.91
1 -3 5 104.96 12.09
1 -3 6 15.02 5.99
-1 -3 -6 18.09 3.07
-1 -3 -6 17.81 5.75
-1 -3 -6 18.38 6.3
-1 -3 -7 81.61 11.47
-1 -3 -7 86.81 11.73
1 -3 7 95.83 13.37
-1 -3 -8 9.02 5.7
1 -3 8 14.41 6.34
-1 -3 -8 20.31 7.25
1 -3 9 19.13 7.64
-1 -3 -9 22.23 7.85
-1 -3 -9 24.51 8.34
1 -3 10 37.4 9.67
-1 -3 -10 31.05 8.35
-1 -3 -10 39.02 9.72
-1 -3 -11 -1.32 5
1 -3 11 5.69 6.06
-1 -3 -11 9.5 6.79
-1 -3 -12 -12.44 7.07
-1 -3 -12 3.72 4.96
1 -3 12 2.06 4.94
-1 -3 -13 3.45 4.43
1 -3 13 -0.93 5.95
1 -2 -14 -0.68 4.85
1 -2 -14 20.54 10.79
1 -2 -13 3.1 5.03
-1 -2 13 1.07 5.41
-1 -2 12 4.86 4.94
1 -2 -12 -0.15 6.05
-1 -2 11 28.65 8.14
-1 -2 11 23.76 7.28
1 -2 -11 18.04 5.84
1 -2 -11 1.47 9.68
1 -2 -11 29.55 9.98
-1 -2 10 44.09 8.66
1 -2 -10 21.39 8.1
-1 -2 10 32.12 8.58
1 -2 -10 21.81 5.94
1 -2 -10 40.09 8.07
-1 -2 9 0.3 3.49
1 -2 -9 4.49 4.94
1 -2 -9 1.53 4.8
-1 -2 9 -2.25 5.97
1 -2 -9 -9.06 7.09
1 -2 -8 28.34 6.58
-1 -2 8 29 5.99
-1 -2 8 23.73 4.84
1 -2 -8 33.87 7.07
1 -2 -8 21.13 6.7
-1 -2 8 40.66 8.17
1 -2 -7 72.09 4.77
1 -2 -7 70.28 5.33
1 -2 -7 76.45 9.55
-1 -2 7 76.12 8.43
1 -2 -7 71.43 9.64
-1 -2 7 92.96 11.91
-1 -2 7 67.11 6.91
1 -2 -7 63.92 10.08
-1 -2 6 734.38 30.35
1 -2 -6 665.79 23.85
1 -2 -6 656.82 29.18
-1 -2 6 661.33 21.98
1 -2 -6 579.81 12.88
1 -2 -6 661.84 28.19
-1 -2 6 614.29 17.76
-1 -2 5 7.31 1.76
1 -2 -5 10.17 4.69
1 -2 -5 3.55 2.98
-1 -2 5 9.36 4.58
-1 -2 4 173.97 11.9
-1 -2 4 200.48 13.87
1 -2 -4 179.99 12.8
1 -2 -4 176.51 12.59
-1 -2 4 179.47 7.44
1 -2 -3 1096.36 28.18
1 -2 -3 1082.33 27.24
-1 -2 3 1092.59 26.28
1 -2 -3 1165.97 29.82
1 -2 -2 267.62 13.33
-1 -2 2 284.19 13.87
1 -2 -2 281.55 6.87
-1 -2 2 246.92 11.59
1 -2 -2 255.39 11.94
1 -2 -1 1369.79 28.72
1 -2 -1 1328.26 19.82
-1 -2 1 1311.15 25.75
-1 -2 1 1383.97 26.97
-1 -2 1 1385.05 16.78
1 -2 -1 1319.19 23.52
1 -2 0 581.53 18.46
-1 -2 0 549.63 16.61
-1 -2 0 579.11 18.9
1 -2 0 566.95 12.6
1 -2 0 565.56 15.97
-1 -2 0 583.35 13.99
1 -2 0 551.57 15.21
-1 -2 0 557.93 16.24
1 -2 1 123.74 4.76
-1 -2 -1 123.43 8.92
-1 -2 -1 122.53 7.6
1 -2 1 132.83 8.6
-1 -2 -1 122.97 8.08
1 -2 1 123.19 8.5
1 -2 1 125.99 8.17
-1 -2 -2 464.69 15.93
1 -2 2 470.97 11.5
1 -2 2 483.28 16.02
1 -2 2 485.68 18.26
-1 -2 -2 491.39 17.06
-1 -2 -3 905.62 23.28
-1 -2 -3 931.08 25.87
-1 -2 -3 882 16.85
1 -2 3 902.76 22.91
-1 -2 -4 476.96 18.28
-1 -2 -4 465.69 13.01
1 -2 4 521.45 22.58
1 -2 4 474.65 17.72
-1 -2 -4 522.43 21.31
1 -2 4 466.7 9.95
-1 -2 -5 103.7 9.72
1 -2 5 100.57 8.99
-1 -2 -5 108.09 10.76
1 -2 5 123.93 12.27
-1 -2 -5 102.73 6.85
1 -2 5 101.43 6.15
-1 -2 -6 184.32 14.71
-1 -2 -6 182.73 14.29
-1 -2 -6 180.45 9.94
1 -2 6 184.91 10.31
-1 -2 -6 171.93 10.18
1 -2 6 195.54 15.85
1 -2 7 196.84 16.96
-1 -2 -7 165.35 11.51
-1 -2 -7 171.35 14.98
1 -2 7 182.03 11.86
-1 -2 -7 196.62 16.21
-1 -2 -7 146.22 10.29
1 -2 8 52.07 7.55
1 -2 8 56.92 10.26
-1 -2 -8 50.01 9.25
-1 -2 -8 34.19 6.11
-1 -2 -8 30.35 7.06
-1 -2 -9 17.54 4.57
1 -2 9 32.73 6.5
-1 -2 -9 35.04 8.15
1 -2 9 30.69 8.16
-1 -2 -9 13.25 5.58
1 -2 10 15.39 6.21
-1 -2 -10 2.26 3.58
-1 -2 -10 10.92 5.98
1 -2 10 12.62 7.2
-1 -2 -11 9.01 5.9
1 -2 11 13.67 6.35
-1 -2 -11 7.71 4.75
-1 -2 -12 13.43 7.3
1 -2 12 8.26 5.82
-1 -2 -12 12.7 6.1
-1 -2 -13 3.48 5.59
-1 -2 -13 1.11 4.81
1 -2 13 0.09 5.35
-1 -2 -14 -4.26 5.92
1 -2 14 11.18 7.48
1 -1 -14 -14.21 6.9
-1 -1 13 -0.99 5.14
-1 -1 13 4.49 6.59
1 -1 -13 -0.82 4.95
1 -1 -12 29.67 8.87
-1 -1 12 30.26 9.3
-1 -1 12 13.03 6.37
1 -1 -12 13.21 5.37
1 -1 -11 5.14 4.13
-1 -1 11 7.12 5.29
-1 -1 11 4.57 5.07
1 -1 -11 17.19 7.1
-1 -1 10 36.44 8.41
1 -1 -10 58.58 10.82
-1 -1 10 34.55 7.93
-1 -1 9 33.97 8.1
1 -1 -9 21.62 5.34
1 -1 -9 35.78 8.53
-1 -1 9 20.87 5.95
-1 -1 8 387.23 22.39
-1 -1 8 342.47 20.9
1 -1 -8 348.05 21.09
1 -1 -8 336.69 20.34
1 -1 -8 380.72 15.87
1 -1 -7 1.2 3.79
-1 -1 7 3.71 3.24
1 -1 -7 9.78 4.74
1 -1 -7 3.55 1.64
-1 -1 7 7.17 3.47
-1 -1 7 10.48 3.07
-1 -1 7 -3.17 3.37
1 -1 -6 419.04 20.14
-1 -1 6 447.31 15.93
-1 -1 6 433.57 20.94
1 -1 -6 417.32 19.5
-1 -1 6 400.38 18.34
1 -1 -6 439.04 13.85
1 -1 -5 443.56 19.17
-1 -1 5 392.01 15.52
-1 -1 5 448.21 17.05
-1 -1 5 497.16 14.66
-1 -1 5 478.78 20.48
1 -1 -5 459.81 12.41
1 -1 -5 435.46 17.79
1 -1 -4 183.68 10.89
1 -1 -4 186.97 6.91
1 -1 -4 179.92 11.27
-1 -1 4 180.85 11.54
-1 -1 4 188.32 11.46
-1 -1 4 170.18 7.92
-1 -1 4 178.49 9.56
1 -1 -4 178.1 9.8
-1 -1 4 172.53 7.37
1 -1 -3 2839.14 40.37
1 -1 -3 2765.91 37.76
-1 -1 3 2890.18 41.64
1 -1 -3 2779.45 33.4
-1 -1 3 2651.25 20.64
1 -1 -3 2735.97 20.5
-1 -1 3 2707.57 21.99
-1 -1 3 2825.06 40.62
-1 -1 3 2729.56 32.35
1 -1 -2 1738.43 26.58
-1 -1 2 1764.14 27.1
-1 -1 2 1731.65 28.32
-1 -1 2 1888.46 29.37
1 -1 -2 1814.2 27.76
1 -1 -2 1819.1 27.83
1 -1 -1 4036.51 33.95
-1 -1 1 4289.49 37.7
1 -1 -1 4200.55 24.9
1 -1 -1 4357.61 37.87
-1 -1 1 4010.92 36.47
1 -1 0 443.98 9.34
-1 -1 0 434.53 11.69
-1 -1 0 432.55 9.02
1 -1 0 444.83 11.83
1 -1 0 434.98 11.65
-1 -1 0 458.16 10.86
-1 -1 0 444.87 9.42
-1 -1 0 443.16 12.66
1 -1 0 433.15 8.47
1 -1 0 438.27 10.55
-1 -1 -1 6766.28 47.59
1 -1 1 6840.89 49.85
1 -1 1 7157.37 46.9
1 -1 1 6963.04 47.49
-1 -1 -1 7316.82 41.97
-1 -1 -1 6888.16 41.48
1 -1 2 4119.72 43.92
-1 -1 -2 4153.54 43.65
1 -1 2 4150.49 22.35
-1 -1 -2 4128.4 32.7
1 -1 2 4049.28 39.39
-1 -1 -2 4091.04 33.97
1 -1 3 510.13 17.56
-1 -1 -3 518.31 14.59
-1 -1 -3 492.67 13.06
-1 -1 -3 512.84 17.18
1 -1 3 525.47 16.23
1 -1 3 505.62 11.26
-1 -1 -3 513.38 9.93
1 -1 4 1077.61 20.29
-1 -1 -4 1136.92 27.98
1 -1 4 1102.42 27.29
-1 -1 -4 1058.62 22.12
1 -1 4 1065.91 27.98
-1 -1 -4 1090.4 18.98
-1 -1 -5 434 15.74
1 -1 5 453.41 21.01
1 -1 5 493.77 20.75
1 -1 5 491.3 16.09
-1 -1 -5 439.24 14.72
-1 -1 -5 462.37 19.27
-1 -1 -6 267.25 12.92
-1 -1 -6 242.65 12.91
1 -1 6 275.48 16.88
1 -1 6 271.8 13.76
-1 -1 -6 242.35 14.84
-1 -1 -7 12.68 3.3
1 -1 7 9.64 3.49
1 -1 7 13.88 5.25
-1 -1 -7 15.3 4.38
-1 -1 -8 270.62 15.71
1 -1 8 256.34 18.4
1 -1 8 270.43 16.54
-1 -1 -8 241.92 16.99
-1 -1 -9 112.14 12.6
1 -1 9 110.21 13.11
1 -1 9 129.34 12.63
-1 -1 -9 124.35 11.52
1 -1 10 59.46 10.78
-1 -1 -10 52.66 8.8
-1 -1 -10 51.88 9.67
1 -1 10 46.36 8.41
1 -1 11 31.86 7.48
1 -1 11 22.27 6.82
-1 -1 -11 47.72 9.01
-1 -1 -11 25.98 7.3
-1 -1 -12 -0.06 4.53
1 -1 12 3.97 4.16
1 -1 12 7.96 6.14
1 -1 13 2.82 5.32
-1 -1 -13 1.52 4.57
-1 -1 -14 4.05 5.52
-1 0 15 16.97 8.7
1 0 -14 14.61 7.6
-1 0 14 8.33 8.32
-1 0 13 9.54 7.04
1 0 -13 -2.66 4.63
1 0 -12 -0.57 3.36
-1 0 12 2.95 3.53
1 0 -11 9.08 3.49
1 0 -11 10.64 4.82
-1 0 11 15.97 4.96
1 0 -10 69.51 9.56
1 0 -10 64.91 9.14
-1 0 10 68.18 10.15
-1 0 10 81.96 12.61
1 0 -9 0.48 3.54
1 0 -9 1.6 4.24
-1 0 9 -1.85 4.17
-1 0 9 1.53 4.07
-1 0 8 3.29 4.09
1 0 -8 7.54 3.92
-1 0 8 2.09 2.66
1 0 -8 1.49 2.57
-1 0 7 475.39 20.98
-1 0 7 498.18 23.4
1 0 -7 502.54 20.89
1 0 -7 497.45 21.41
1 0 -6 1646.79 32.45
1 0 -6 1535.65 34.96
1 0 -6 1529 33.83
-1 0 6 1545.96 34.92
-1 0 6 1508.84 37.5
1 0 -5 29.12 4.53
-1 0 5 30.52 4.12
-1 0 5 34.29 4.71
1 0 -5 31.14 4.84
1 0 -5 27.34 4.04
-1 0 5 32.99 4.65
-1 0 5 26.16 4.86
-1 0 4 2689.09 34.51
-1 0 4 2571.8 39.49
1 0 -4 2541.25 37.57
-1 0 4 2684.39 36.85
1 0 -4 2627.76 35.92
1 0 -4 2632.54 36.7
-1 0 4 2543.25 35.56
1 0 -4 2759.53 35.16
-1 0 3 909.18 17.75
-1 0 3 885.93 18.32
1 0 -3 894.91 18.3
-1 0 3 917.42 20.33
1 0 -3 936.08 17.64
-1 0 3 902.88 18.5
1 0 -3 898.62 18.99
1 0 -3 898.56 19.41
1 0 -2 57.59 4.18
-1 0 2 59.54 3.91
-1 0 2 60.53 4.39
1 0 -2 60.52 4.36
1 0 -2 62.82 3.89
-1 0 2 56.32 3.99
-1 0 -2 945.01 17.04
-1 0 -2 996.43 17.1
1 0 2 965.67 17.01
1 0 2 918.79 17.49
1 0 2 972.48 19.93
1 0 3 8639.88 58.39
1 0 3 8649.4 69.72
1 0 3 8578.32 59.71
-1 0 -3 8582.23 59.87
1 0 3 8590.51 63.58
-1 0 -4 142.68 7.88
-1 0 -4 145.51 8.69
1 0 4 147.94 8.87
1 0 4 151.25 9.06
-1 0 -4 139.76 8.95
1 0 4 136.34 9.14
1 0 4 156.47 10.66
-1 0 -5 398.95 16.26
1 0 5 368.4 15.56
-1 0 -5 375.86 15.49
-1 0 -5 390.73 14.5
1 0 5 406.64 16.4
1 0 6 578.83 21.6
1 0 6 560.39 21.18
-1 0 -6 576.7 18.75
-1 0 -6 556.04 20.7
1 0 7 174.78 13.07
-1 0 -7 163.79 11.14
1 0 7 181.18 13.57
-1 0 -7 152.36 11.65
1 0 8 9.12 4.73
-1 0 -8 8.58 3.73
-1 0 -8 1.6 3.22
1 0 8 6.38 3.99
-1 0 -9 12.59 5.69
-1 0 -9 4.59 4.1
1 0 9 1.74 3.74
1 0 9 3.1 3.43
-1 0 -10 36.08 6.56
1 0 10 36.36 7.71
-1 0 -10 29.55 7.05
1 0 10 28.55 7.19
-1 0 -11 9.08 4.61
1 0 11 3.27 3.43
1 0 11 9.26 5.4
-1 0 -11 8.17 4.26
-1 0 -12 0.3 3.57
-1 0 -12 7.86 5.43
1 0 12 6.11 4
1 0 12 6.7 5.81
1 0 13 -1.54 5.85
-1 0 -13 2.37 3.66
1 0 14 7.67 7.93
-1 0 -14 -10.94 6.09
1 1 -15 15.62 6.83
1 1 -14 0.7 4.14
-1 1 14 14.18 9.76
1 1 -13 -5.81 5.83
-1 1 13 16.62 9.59
-1 1 12 20.08 8.94
1 1 -12 12.34 6.28
1 1 -11 13.89 6.25
-1 1 11 5.08 5.81
1 1 -11 14.39 4.86
1 1 -10 23.51 5.22
1 1 -10 33.4 7.41
-1 1 10 25.23 7.21
-1 1 9 13.05 6.12
-1 1 9 12.92 3.49
1 1 -9 21.49 5.79
1 1 -9 13.6 3.81
-1 1 8 416.98 24.46
1 1 -8 399.85 21.06
1 1 -8 347.8 16.84
-1 1 8 336.04 16.15
1 1 -7 20.78 4.07
-1 1 7 14.73 3.23
-1 1 7 21.81 5.76
1 1 -7 22.45 5.69
-1 1 6 490.36 23.03
-1 1 6 419.54 14.61
1 1 -6 412.5 15.02
1 1 -6 503.71 20.79
-1 1 5 542.52 21.64
1 1 -5 486.81 14.38
1 1 -5 547.22 20.39
-1 1 5 506.21 15.83
1 1 -5 538.38 17
1 1 -4 225.34 8.34
1 1 -4 252.64 10.48
1 1 -4 265.75 13.14
-1 1 4 252 12.47
1 1 -4 257.22 12.92
-1 1 4 243.27 9.91
-1 1 4 241.41 13.57
1 1 -3 2842.24 30.57
-1 1 3 2916.09 40.63
-1 1 3 2966.08 31.81
1 1 -3 2972.69 39.59
1 1 -3 2840.76 22.47
-1 1 3 2950.7 39.37
1 1 -3 2980.31 39.87
-1 1 2 1358.4 24.08
-1 1 2 1317.42 20.33
1 1 -2 1301.03 18.69
1 1 -2 1315.54 23.6
-1 1 2 1398.43 24.63
1 1 -2 1382.49 24.53
1 1 -1 4632.19 37.38
-1 1 1 4721.33 39.98
-1 1 1 4629.08 36.55
1 1 -1 4601.19 39.36
1 1 0 451.02 9.59
1 1 0 462.06 9.24
-1 1 0 481.27 8.54
-1 1 0 461.52 12.6
-1 1 0 468.69 12.16
1 1 0 439.6 12.17
1 1 0 468.05 11.41
-1 1 0 447.84 10.41
1 1 0 499.35 14.19
1 1 1 6659.39 52.29
-1 1 -1 6498.81 47.88
1 1 1 6715.19 40.57
1 1 1 6703.35 38.93
-1 1 -1 6706.88 45.13
1 1 1 6766.71 50.91
1 1 2 5103.19 34.15
-1 1 -2 5049.92 49.74
1 1 2 5127.1 49.3
1 1 2 5070.72 36.24
-1 1 -2 5128.73 40.25
1 1 3 576.26 18.22
1 1 3 544.3 10.11
-1 1 -3 591.55 18.74
-1 1 -3 581.09 13.76
1 1 3 570.35 12.09
-1 1 -3 601.69 14.79
1 1 3 610.69 19.28
1 1 4 1211.61 28.77
1 1 4 1183.26 19.19
-1 1 -4 1205.54 22.27
-1 1 -4 1188.15 22.42
1 1 4 1205.05 21.01
-1 1 -4 1218.77 29.4
-1 1 -5 475.07 18.46
1 1 5 467.22 20.08
-1 1 -5 473.56 15.68
1 1 5 439.98 14.54
1 1 6 315 13.59
-1 1 -6 329.1 14.68
-1 1 -6 343.7 16.68
1 1 6 326.12 18.07
-1 1 -7 20.81 4.32
-1 1 -7 20.43 5.07
1 1 7 13.65 4.78
1 1 7 22.41 4.42
1 1 8 204.2 13.5
1 1 8 237.01 17.6
-1 1 -8 201.96 13.21
-1 1 -8 218.92 14.98
1 1 9 128.36 11.48
-1 1 -9 126.37 12.2
-1 1 -9 129.78 11.09
1 1 9 140.81 14.74
-1 1 -10 62.51 8.77
1 1 10 63.85 10.82
-1 1 -10 53.84 8.77
1 1 10 49.13 7.48
-1 1 -11 28.47 6.65
1 1 11 32.25 8.83
1 1 11 32.99 6.69
-1 1 -11 36.43 7.23
1 1 12 3.42 5.03
-1 1 -12 7.35 5.15
-1 1 -12 2.86 3.81
-1 1 -13 9.57 5.52
1 1 13 3.69 4.61
1 1 14 4.37 5.91
-1 1 -14 -1.95 4.25
1 2 -14 0.96 4.9
1 2 -13 4.15 5.26
-1 2 13 -1.57 6.83
-1 2 12 -4.61 7.79
1 2 -12 1.99 3.92
-1 2 11 17.46 6.82
1 2 -11 46.74 9.46
1 2 -10 24.17 4.11
-1 2 10 51.25 10.6
1 2 -10 41.3 8.64
1 2 -9 2.59 1.9
1 2 -9 7.63 4.94
-1 2 9 3.27 4
1 2 -8 34.99 4.67
-1 2 8 45.59 9.08
1 2 -8 42.91 8.06
1 2 -7 55.66 5.29
-1 2 7 60.09 9.37
-1 2 6 779.1 30.4
1 2 -6 721.88 20.1
-1 2 6 698.17 19.38
1 2 -6 780.15 28.19
-1 2 5 5.17 3.71
1 2 -5 2.14 2.7
1 2 -5 4.42 1.46
1 2 -5 2.98 0.82
-1 2 5 2.49 1.25
1 2 -5 4.22 1.84
-1 2 4 228.4 14.1
1 2 -4 222.72 13.72
-1 2 4 217.94 9.95
1 2 -4 233 7.41
1 2 -4 222.64 9.19
1 2 -3 1245.76 17.51
-1 2 3 1229.13 29.6
-1 2 3 1150.16 22.62
1 2 -3 1178.48 19.74
-1 2 2 217.05 11.65
1 2 -2 222.25 10.92
1 2 -2 232.67 11.88
-1 2 2 214.81 11.21
-1 2 2 240.85 12.34
1 2 -2 228.83 8.18
-1 2 2 236.12 11.58
1 2 -2 218.47 11.83
1 2 -1 1343.83 25.29
-1 2 1 1301.62 28.69
1 2 -1 1295.78 26.57
1 2 -1 1250.17 17.15
-1 2 1 1308.88 19.55
1 2 -1 1283.72 28.15
1 2 -1 1325.85 26.58
-1 2 1 1345.9 27.42
-1 2 1 1324.05 27.11
-1 2 1 1309.53 23.61
1 2 0 942.8 18.65
-1 2 0 965.65 13.91
1 2 0 1002.8 24.4
-1 2 0 988.17 16.67
-1 2 0 983.62 25.49
-1 2 0 942.21 20.26
1 2 0 948.61 22.8
-1 2 0 971.43 23.16
1 2 0 909.16 20.16
1 2 1 174.81 9.96
1 2 1 166.1 10.11
1 2 1 183.61 11.63
-1 2 -1 171.96 9.52
-1 2 -1 171.03 4.8
1 2 1 167.46 7.61
-1 2 -1 164.6 9.7
-1 2 -1 174.61 10.94
1 2 1 153.04 7.28
1 2 1 173.5 9.43
-1 2 -2 617.71 20.46
1 2 2 594.29 13.33
1 2 2 566.07 18.89
1 2 2 650.49 20.45
1 2 2 552.13 16.76
-1 2 -2 599 17.29
-1 2 -2 585.48 20.36
1 2 2 582.04 20.91
-1 2 -3 1069.93 23.03
1 2 3 1035.36 16.91
-1 2 -3 879.41 24.99
1 2 3 969.51 11.05
1 2 3 997.51 22.73
1 2 3 1116.13 28.56
-1 2 -4 535.4 16.39
1 2 4 482.07 9.24
-1 2 -4 530.28 14.2
1 2 4 508.51 10.98
1 2 4 504.18 21.25
-1 2 -5 139.2 8.09
-1 2 -5 160.75 9.35
-1 2 -5 142.19 11.61
1 2 5 154.63 7.04
1 2 5 144.06 6.59
1 2 5 142.9 12.21
1 2 6 209.24 9.45
-1 2 -6 210.29 14.75
1 2 6 215.35 16.2
-1 2 -6 207.27 10.7
-1 2 -6 228.83 11.7
1 2 6 200.19 8.87
-1 2 -7 183.78 10.95
1 2 7 197.65 10.16
1 2 7 194.52 16.46
1 2 7 188.06 10.25
-1 2 -7 204 15.28
1 2 8 51.61 5.76
1 2 8 63.21 10.4
-1 2 -8 66.65 9.7
-1 2 -8 49.01 6.44
1 2 9 57.76 10.52
1 2 9 50.2 6.17
-1 2 -9 50.15 6.76
-1 2 -9 55.96 9.27
1 2 10 18.87 8.12
-1 2 -10 22.91 6.97
-1 2 -10 17.59 4.92
-1 2 -11 18.75 6.43
1 2 11 1.73 7.21
-1 2 -12 21.99 7.66
1 2 12 19.12 8.83
1 2 13 3.51 7.11
-1 2 -13 -0.4 4.71
-1 2 -14 0.01 4.33
1 3 -13 6.67 6.18
-1 3 13 6.2 8.51
-1 3 12 -2.16 6.48
1 3 -12 -0.05 4.76
1 3 -11 41.89 10.08
-1 3 11 38.12 10.87
-1 3 10 67.94 13.56
1 3 -10 67.03 11.4
-1 3 9 38.05 9.73
1 3 -9 46.71 9.37
-1 3 8 384.98 26.56
1 3 -8 365.08 23.09
-1 3 7 43.04 9.45
1 3 -7 27.12 4.07
1 3 -7 30.43 7.52
1 3 -6 280.73 10.48
1 3 -6 243.65 10.84
1 3 -6 264.17 18.31
-1 3 6 280.98 20.21
1 3 -5 410.19 21.56
-1 3 5 382.22 21.95
1 3 -5 373.19 12.15
-1 3 5 354.29 14.12
1 3 -5 396.67 12.62
1 3 -4 66.27 5.07
-1 3 4 72.39 8.99
1 3 -4 81.13 6.03
1 3 -4 76.39 9.28
-1 3 4 65.35 6.14
1 3 -3 166.08 12.15
1 3 -3 156.84 8.78
-1 3 3 166.62 12.41
1 3 -2 495.98 18.73
1 3 -2 506.37 19.96
-1 3 2 474.76 12.61
1 3 -2 499.23 16.57
1 3 -2 452.24 10.88
-1 3 2 525.52 19.56
-1 3 1 734.16 19.09
-1 3 1 784.11 26.89
-1 3 1 762.99 21.17
1 3 -1 775.4 22.88
1 3 -1 708.1 16.84
-1 3 1 736.29 19.31
1 3 -1 758.39 23.62
1 3 0 34.08 5.14
-1 3 0 34.57 5.6
-1 3 0 33.83 4.71
-1 3 0 35.75 4.9
-1 3 0 33.29 3.76
1 3 0 35.09 4.89
1 3 0 31.96 4.31
-1 3 0 38.18 4.23
-1 3 -1 560.43 12.61
1 3 1 547.73 21.31
-1 3 -1 522.53 20.1
1 3 1 538.55 18.84
-1 3 -1 495.46 12.54
1 3 1 499.75 16.48
-1 3 -2 671.13 22.18
1 3 2 644.16 22.78
1 3 2 685.6 17.54
-1 3 -3 33.33 5.03
1 3 3 29.33 3.26
1 3 3 32.26 5.64
1 3 3 30.67 3.51
1 3 4 111.36 5.4
1 3 4 134.49 12.1
1 3 4 137.18 6.54
1 3 4 132.3 5.43
-1 3 -4 131.25 9.36
1 3 5 124.95 4.85
1 3 5 132.44 13.09
1 3 5 119.83 5.17
-1 3 -5 129.5 9.3
-1 3 -5 133.88 7.72
-1 3 -6 34.76 5.62
1 3 6 19.35 1.88
1 3 6 29.08 7.09
-1 3 -6 26.48 3.93
1 3 6 22.7 2.65
-1 3 -6 16.87 4.83
1 3 7 73.52 3.72
-1 3 -7 101.94 7.64
-1 3 -7 109.28 9.08
1 3 7 105.02 13.33
-1 3 -7 102.01 12.27
-1 3 -8 17.14 3.59
-1 3 -8 14.07 5.77
1 3 8 23.42 7.93
-1 3 -8 11.21 3.38
-1 3 -9 18.07 6.7
1 3 9 26.54 9.42
1 3 10 57.37 11.9
-1 3 -10 51.27 10.57
-1 3 -11 18.67 8
1 3 11 8.05 7.09
-1 3 -12 14.6 7.62
1 3 12 8.75 7.17
-1 3 -13 1.76 4.68
1 4 -12 11.84 7.4
-1 4 12 8.88 7.32
1 4 -11 16.13 7.47
-1 4 11 3.72 7.19
1 4 -10 10.31 7.72
-1 4 10 -2.76 7.59
-1 4 9 33.49 9.81
1 4 -9 36.71 9.58
1 4 -8 0.05 4.24
-1 4 8 -1.62 4.58
1 4 -7 129.8 14.82
1 4 -7 140.89 8.53
-1 4 7 120.34 14.93
1 4 -6 26.06 6.95
-1 4 6 18.25 6.74
1 4 -6 20.97 3.65
1 4 -5 128.15 8.62
-1 4 5 122.88 13.52
1 4 -5 130.38 13.39
1 4 -5 118.26 6.58
1 4 -4 111.29 6.83
-1 4 4 116.57 12.46
1 4 -4 113.73 12.2
1 4 -4 125.88 9.45
-1 4 3 92.75 5.65
1 4 -3 104.3 10.92
-1 4 3 98.51 10.61
1 4 -3 89.92 4.89
1 4 -3 103.7 8.94
1 4 -2 75.15 9.01
1 4 -2 64.35 5.23
1 4 -2 85.38 8.47
-1 4 2 70.84 6.07
-1 4 2 70.76 8.21
-1 4 2 65.59 7.22
-1 4 1 194.21 12.21
-1 4 1 178.61 11.08
-1 4 1 198.08 15.59
1 4 -1 167.37 9.71
1 4 -1 199.4 13.32
-1 4 1 190.67 11.62
-1 4 0 552.02 18.35
-1 4 0 581.53 25
-1 4 0 565.16 18.33
1 4 1 94.89 9.32
-1 4 -1 94.25 6.57
-1 4 -1 100.81 6.8
-1 4 -1 96.63 10.18
1 4 2 41.23 5.34
-1 4 -2 37.25 3.09
-1 4 -2 36.19 6.43
1 4 2 32.16 4.61
1 4 2 39.13 6.71
-1 4 -2 32.49 4.58
1 4 3 219.47 10.89
1 4 3 210.2 15.5
1 4 3 196.84 10.32
-1 4 -3 227.27 14.73
-1 4 -4 30.38 5.79
1 4 4 29.83 3.55
1 4 4 25.52 5.99
1 4 4 23.7 3.02
1 4 4 28.57 3.43
-1 4 -5 -3.49 3.6
1 4 5 0.04 0.95
1 4 5 -0.98 4.38
1 4 5 2.06 1.25
-1 4 -6 152.31 15.61
1 4 6 142.34 15.76
-1 4 -6 128.24 10.58
-1 4 -6 142.71 8.07
1 4 7 26 7.41
-1 4 -7 35.33 6.46
-1 4 -7 27.88 8.07
-1 4 -8 33.74 5.74
1 4 8 30 8.56
-1 4 -8 32.16 9.1
-1 4 -9 45.39 10.41
1 4 9 52.05 12.24
1 4 10 -3.57 5.65
-1 4 -10 3.55 5.18
-1 4 -11 11.56 7.24
1 4 11 19.67 9.28
-1 4 -12 28.82 9.73
-1 5 10 14.56 8.13
1 5 -10 6.75 5.86
-1 5 9 0.39 6.96
1 5 -9 9.8 7.15
1 5 -8 15.88 7.45
-1 5 8 6.35 6.33
-1 5 7 2.81 5.79
1 5 -7 -2.5 5.15
-1 5 6 18.04 7.51
1 5 -6 21.88 7.52
1 5 -5 36.63 6.12
-1 5 5 38.92 8.95
1 5 -5 32.53 8.29
1 5 -4 29.22 7.64
1 5 -4 33 6.07
-1 5 4 39.21 8.9
1 5 -3 9.11 3.93
-1 5 3 11.23 5.19
1 5 -3 10.15 4.51
1 5 -2 53.28 8.14
-1 5 2 63.37 10.41
-1 5 2 55.06 8.17
1 5 -2 55.35 8.36
-1 5 1 30.78 7.79
1 5 -1 38.2 7.17
-1 5 1 38.51 6.43
-1 5 1 33.35 5.82
1 5 -1 33.83 6.7
1 5 -1 29.14 4.93
-1 5 0 50.06 8.95
-1 5 0 45.67 6.2
1 5 0 40.56 6.49
-1 5 0 44.25 5.84
-1 5 -1 10.57 2.84
-1 5 -1 14.25 3.26
-1 5 -1 10.93 5.18
1 5 1 11.74 4.2
-1 5 -2 34.3 3.57
1 5 2 36.67 6.3
1 5 2 31.27 6.87
-1 5 -2 31.44 6.42
-1 5 -3 10.93 4.85
1 5 3 11.11 5.36
1 5 3 16.44 3.84
1 5 4 5.8 4.55
1 5 4 8.04 2.4
-1 5 -4 8.09 4.3
1 5 5 22.34 6.72
-1 5 -5 24.18 5.34
-1 5 -5 23.09 7.45
-1 5 -6 50.08 10.44
1 5 6 57.44 10.69
-1 5 -6 44.05 6.91
-1 5 -7 12.36 5.97
-1 5 -7 14.83 5.21
1 5 7 2.88 5.05
1 5 8 -2.52 5.59
-1 5 -8 -0.48 5.2
1 5 9 -0.2 6.4
-1 5 -9 5.85 6.66
1 5 10 13.31 10.61
-1 5 -10 3.85 6.25
-1 6 9 14.78 9.4
1 6 -9 23.38 9.25
1 6 -8 5.7 7.14
-1 6 8 4.91 6.76
1 6 -7 15.24 6.36
-1 6 7 24.34 9.54
-1 6 6 -0.44 5.02
1 6 -6 -1.75 5.84
1 6 -5 22.23 7.68
-1 6 5 28.42 8.7
1 6 -4 8.07 4.09
-1 6 4 8.85 5.4
1 6 -4 7.92 4.77
1 6 -3 3.46 4.37
-1 6 3 2.95 4.84
-1 6 3 10.25 7.32
1 6 -3 4.17 3.75
1 6 -2 5.92 4.5
-1 6 2 -0.49 4.4
-1 6 2 6.03 4.59
1 6 -2 0 3.48
1 6 -1 11.2 5.54
1 6 -1 4.08 4.01
1 6 -1 1.06 2.43
-1 6 1 3.36 3.03
-1 6 0 12.2 6.09
1 6 0 5.31 3.34
1 6 0 8.44 4.67
-1 6 0 3.05 3.18
1 6 0 4.38 4.73
1 6 1 21.66 6.42
1 6 1 20.55 5.16
-1 6 -1 35.33 8.71
1 6 2 18.4 5.15
-1 6 -2 12.79 5.62
1 6 2 17.55 5.93
1 6 3 -1.34 3.77
-1 6 -3 2.08 3.78
-1 6 -4 11.41 5.47
1 6 4 7.83 5.26
1 6 5 14.76 7.43
-1 6 -5 14.3 6.22
-1 6 -5 -0.91 6
1 6 6 -1.7 5.59
-1 6 -6 -0.83 6.33
1 6 7 -1.5 5.25
-1 6 -7 -0.41 5.17
1 6 8 20.2 9
-1 6 -8 -13.08 7.72
-1 6 -9 1.84 5.58
1 6 9 6.12 7.58
-1 7 8 0.27 6.45
-1 7 7 4.07 7.15
1 7 -7 3.14 5.75
-1 7 6 5.66 6.77
1 7 -6 7.07 6.48
-1 7 5 3.33 5.46
-1 7 5 1.13 6.79
1 7 -5 -1.22 4.71
-1 7 4 5.69 7.1
-1 7 4 7.44 5.87
1 7 -4 1.63 4.73
-1 7 3 3.5 4.35
1 7 -3 -2.12 4.42
-1 7 3 -3.19 7.34
-1 7 2 -5.2 5.87
1 7 -2 14.87 6.48
1 7 -2 6.21 5.04
1 7 -1 3.52 4.68
-1 7 1 -0.51 4.94
1 7 -1 1.06 3.7
1 7 0 17.23 7.79
1 7 0 7.96 4.16
-1 7 0 1.42 5.6
-1 7 -1 -0.22 4.05
1 7 1 0.53 4.62
-1 7 -2 -0.49 4.8
1 7 2 -1.77 5.79
1 7 2 5.76 4.26
-1 7 -3 17.66 7.68
1 7 3 15.5 6.65
1 7 4 4.6 5.7
-1 7 -4 -6.27 6.19
-1 7 -4 2.16 4.77
1 7 5 7.32 6.31
-1 7 -5 9.6 6.43
-1 7 -6 3.86 7.53
1 7 6 7.19 6.19
1 7 7 3.26 6.02
1 8 -5 7.36 8.02
1 8 -4 2.36 5.24
-1 8 3 7.1 8.47
1 8 -3 -1.28 4.75
-1 8 2 5.96 7.54
-1 8 1 3.36 5.77
-1 8 0 1.02 5.54
1 8 0 -5.6 6.52
1 8 1 0.81 5.81
-1 8 -1 -12.41 7.67
-1 8 -2 1.64 5.81
1 8 2 -0.02 5.68
-1 8 -2 0.85 4.9
1 8 3 1.6 6.27
-1 8 -3 1.41 5.11
-1 8 -4 4.68 6.08
1 8 6 3.68 6.93
-2 -8 2 -5.38 5.42
-2 -8 1 7.31 6.54
2 -8 2 3.05 4.24
-2 -8 -3 12.14 7.96
2 -8 3 2.05 6.3
2 -8 3 0.01 5.27
-2 -8 -4 7.03 5.71
2 -8 4 0.03 6.43
2 -7 -7 2.9 6.08
-2 -7 6 -1.03 5.83
2 -7 -6 -1.72 5.49
2 -7 -5 -0.52 5.63
-2 -7 5 -4.3 6.72
-2 -7 4 1.83 5.4
2 -7 -4 -8.74 6.88
-2 -7 3 4.92 5.46
2 -7 -3 12.62 6.24
2 -7 -2 7.55 5.15
-2 -7 2 9.72 5.82
2 -7 -1 11.37 6.81
-2 -7 1 10.76 6.59
-2 -7 0 9.13 6.02
2 -7 0 16.21 7.59
2 -7 1 5.34 5.56
2 -7 1 6.16 4.78
2 -7 1 6.14 4.64
2 -7 2 10.7 5.93
2 -7 2 8.1 5.33
-2 -7 -2 1.97 5.48
2 -7 3 3.9 6.55
2 -7 3 -0.66 3.5
-2 -7 -3 5.25 5.36
2 -7 4 5.14 6.25
2 -7 4 2.59 4.18
-2 -7 -4 11.1 6.41
-2 -7 -5 11.67 7.18
2 -7 5 9.5 6.77
2 -7 5 8.1 7.24
2 -7 6 -3.49 5.26
-2 -7 -6 5.48 5.43
-2 -7 -6 1.48 4.69
2 -7 6 8 7.75
-2 -7 -7 -16.53 8.41
-2 -7 -7 -15.81 7.49
2 -6 -9 8.23 8.8
2 -6 -8 11.21 9.43
2 -6 -7 -3.56 6.23
-2 -6 6 16.81 6.27
2 -6 -6 1.69 5.58
2 -6 -5 -3.02 6.24
-2 -6 5 1.09 2.88
-2 -6 4 0.33 3.18
-2 -6 4 -2.38 5.85
2 -6 -4 0.15 4.86
2 -6 -3 12.28 7.07
-2 -6 3 15 5.37
-2 -6 3 7 4.65
-2 -6 2 6.4 3.86
-2 -6 2 7.47 5
2 -6 -2 4.3 4.45
-2 -6 1 7.36 3.8
-2 -6 1 6.72 5.49
2 -6 -1 6.95 3.52
2 -6 -1 12.37 6.6
2 -6 0 6.74 4.51
-2 -6 0 8.94 5.64
2 -6 0 1.28 4.43
2 -6 0 2.6 3.33
2 -6 1 5.25 4.4
2 -6 1 14.75 6.71
-2 -6 -1 5.79 4.54
2 -6 1 11.81 5.58
2 -6 2 9.71 4.79
2 -6 2 18.73 6.75
-2 -6 -2 5.28 3.32
-2 -6 -2 11.71 5.92
2 -6 3 -0.05 3.7
2 -6 3 3.28 4.63
-2 -6 -3 0.9 4.11
-2 -6 -3 10.09 5.63
2 -6 4 21.51 8
-2 -6 -4 17.02 6.95
2 -6 4 21.61 6.17
-2 -6 -4 7.55 5.16
2 -6 5 7.38 6.08
-2 -6 -5 0.31 3.89
-2 -6 -5 -0.49 4.9
-2 -6 -6 -2.61 4.65
2 -6 6 1.9 5.47
-2 -6 -6 -1.23 5.62
-2 -6 -7 -9.67 7.82
-2 -6 -7 1.29 3.89
2 -6 7 6.28 5.44
-2 -6 -8 -10.97 6.5
2 -6 8 -0.57 6.64
-2 -6 -8 -14.94 8.47
-2 -6 -9 -6.35 6.75
2 -5 -11 -20.59 10.75
-2 -5 11 7.22 7.51
2 -5 -10 0.49 6.14
-2 -5 10 7.97 6.85
-2 -5 9 -1.95 5.51
2 -5 -9 -3 6.33
2 -5 -8 22.65 8.65
-2 -5 8 10.26 6
-2 -5 7 12.24 4.72
2 -5 -7 17.02 8.81
-2 -5 6 59.9 9.82
2 -5 -6 58.19 12.17
2 -5 -5 24.84 7.82
-2 -5 5 21.5 6.08
2 -5 -4 46.85 9.4
-2 -5 4 47.1 7.78
2 -5 -3 97.78 7.03
-2 -5 3 95.02 13.33
2 -5 -3 103.95 12.46
-2 -5 3 85.94 10.26
-2 -5 2 13.2 5.11
2 -5 -2 10.14 4.32
2 -5 -2 16.96 3.46
-2 -5 2 12.92 4.25
-2 -5 1 22.07 6.08
-2 -5 1 20.99 5.92
2 -5 -1 21.06 6.64
2 -5 -1 21.1 4.9
-2 -5 0 32.89 5.19
2 -5 0 32.24 6.37
2 -5 0 29.35 7.02
2 -5 0 36.5 6.5
-2 -5 0 32.94 7.72
-2 -5 0 37.11 6.76
-2 -5 -1 52.79 7.46
-2 -5 -1 48.32 9.1
2 -5 1 44.46 7.57
2 -5 1 56.05 9.38
2 -5 1 50.74 7.94
-2 -5 -1 52.46 8.99
2 -5 2 7.99 4.52
-2 -5 -2 7.98 4
2 -5 2 10.06 3.77
-2 -5 -2 16.4 5.76
2 -5 2 16.9 6.83
-2 -5 -3 97.29 11.62
-2 -5 -3 79.57 10.59
2 -5 3 79.44 11.44
-2 -5 -4 7.12 4.18
-2 -5 -4 6.63 4.04
2 -5 4 -0.08 4.65
-2 -5 -5 36.1 8.9
-2 -5 -5 26.42 6.47
2 -5 5 22 7.83
2 -5 6 17.84 7.55
-2 -5 -6 22.3 7.2
-2 -5 -6 19.25 6.12
2 -5 7 -2.76 5.51
-2 -5 -7 -2.72 6.66
-2 -5 -7 1.61 3.55
-2 -5 -8 11.67 5.79
2 -5 8 18.63 8.75
-2 -5 -8 14.34 6.89
2 -5 9 3.41 5.49
-2 -5 -9 10.19 6.36
-2 -5 -9 -2.28 6.36
-2 -5 -10 3.5 5.69
2 -5 10 5.81 8.13
-2 -4 13 -6.13 8.57
-2 -4 12 7.34 7.45
2 -4 -12 -42.32 13.54
2 -4 -11 -19.26 9.51
-2 -4 11 3.09 8.57
-2 -4 10 9.27 6.39
-2 -4 10 -1.57 6.28
2 -4 -10 12.29 8.57
-2 -4 9 40.75 10.14
2 -4 -9 22.43 8.99
-2 -4 9 26.48 8.44
-2 -4 8 7.42 5.18
-2 -4 8 1.98 5.64
2 -4 -8 -0.77 5.21
2 -4 -7 76.82 12.95
-2 -4 7 68.04 12.14
-2 -4 7 83.85 12.19
2 -4 -6 150.52 16.94
-2 -4 6 143.77 15.94
-2 -4 6 128.01 13.97
-2 -4 5 10.77 6.31
2 -4 -5 15.44 5.86
-2 -4 5 13.45 5.02
2 -4 -4 341.4 22.49
-2 -4 4 327.86 19.7
-2 -4 3 41.85 6.97
2 -4 -3 42.46 4.14
2 -4 -3 39.75 7.57
-2 -4 2 41.59 7.9
2 -4 -2 46.76 8.01
2 -4 -2 42.77 4.99
-2 -4 2 43.1 6.61
-2 -4 1 257.87 18.06
2 -4 -1 275.62 18.22
2 -4 -1 257.21 13.46
-2 -4 1 266.09 16.12
-2 -4 1 263.54 11.8
2 -4 0 52.41 6.93
-2 -4 0 50.32 8.4
-2 -4 0 46.49 6.97
2 -4 0 44.46 6.61
-2 -4 0 59.31 8.58
2 -4 0 51.3 8.13
-2 -4 0 51.12 6.02
-2 -4 -1 121.75 10.16
2 -4 1 120.91 10.8
2 -4 1 125.86 12.18
-2 -4 -1 135.38 12.89
-2 -4 -1 130.86 11.73
2 -4 1 127.42 11.68
-2 -4 -2 56.63 7.8
2 -4 2 56.71 8.59
2 -4 2 68.05 9.42
-2 -4 -2 49.46 7.62
2 -4 2 52.58 3.5
2 -4 3 186.93 16.16
-2 -4 -3 165.15 13.33
2 -4 3 160.67 7.79
-2 -4 -3 169.87 14.19
2 -4 4 3.71 4.27
-2 -4 -4 4.16 2.67
-2 -4 -4 4.92 4.25
2 -4 4 4.21 1.83
2 -4 5 16.51 5.24
2 -4 5 16.71 3.6
-2 -4 -5 18.44 5.7
-2 -4 -5 13.77 5.92
2 -4 6 53.52 7.39
-2 -4 -6 55.1 10.17
2 -4 6 67.74 11.93
-2 -4 -6 57.02 9.18
2 -4 7 -0.89 2.69
2 -4 7 -2.47 5.46
-2 -4 -7 0.43 4.53
-2 -4 -7 6.15 4.7
2 -4 8 1.56 3.3
-2 -4 -8 6.05 6.25
2 -4 8 -0.61 5.44
-2 -4 -8 0.02 3.93
2 -4 9 -4.31 4.71
-2 -4 -9 0.14 4.17
2 -4 9 -6.45 5.52
-2 -4 -9 1.34 5.49
-2 -4 -10 2.96 5.3
-2 -4 -10 -1.47 4.31
2 -4 10 -1.24 5.66
2 -4 11 1.7 4.89
-2 -4 -11 4.57 5.28
2 -3 -13 0.72 7.59
-2 -3 13 17.54 11.19
2 -3 -12 -1.27 6.45
-2 -3 12 13.16 8.83
-2 -3 11 14.75 8.68
2 -3 -11 -10.34 8.11
-2 -3 11 7.53 6.31
-2 -3 10 13.66 5.33
-2 -3 10 8.75 6.8
2 -3 -10 6.66 5.77
2 -3 -9 -3.67 5.68
2 -3 -9 5.36 5.02
-2 -3 9 0.66 5.23
-2 -3 9 0.04 4.71
2 -3 -8 61.86 12.36
-2 -3 8 97.73 13.59
2 -3 -8 70.69 11.29
-2 -3 8 84.28 13.21
2 -3 -7 128.66 15.9
-2 -3 7 129.14 15.04
-2 -3 7 119.54 14.45
-2 -3 6 47.26 9.08
2 -3 -6 53.59 10.18
-2 -3 6 42.49 8.33
-2 -3 5 444.9 24.48
-2 -3 5 421.48 21.97
2 -3 -5 416.76 23.57
2 -3 -4 293.1 18.85
-2 -3 4 282.77 18.49
-2 -3 4 281.58 16.85
2 -3 -3 85.51 9.97
-2 -3 3 92.37 9.25
2 -3 -3 92.41 5.04
-2 -3 2 262.38 14.98
2 -3 -2 266.44 10.47
-2 -3 2 260.81 7.75
2 -3 -2 265.06 16.3
-2 -3 1 530.17 23.66
2 -3 -1 536.85 17.78
-2 -3 1 508.06 20.2
2 -3 -1 521.1 17.03
-2 -3 1 523.35 14.03
2 -3 -1 521.59 21.72
2 -3 0 176.01 10.9
2 -3 0 167.9 10.18
2 -3 0 176.15 8.74
-2 -3 0 182.59 11.98
2 -3 0 172.1 12.5
-2 -3 0 168.07 9.41
-2 -3 0 176.54 13.33
-2 -3 0 171.59 11.78
-2 -3 -1 283.97 13.69
-2 -3 -1 292.89 14.54
-2 -3 -1 311.07 17.37
2 -3 1 283.7 15.93
-2 -3 -1 285.51 14.83
2 -3 1 310.62 15.95
-2 -3 -2 536.64 20.09
2 -3 2 517.65 22.49
2 -3 2 574.49 22.46
-2 -3 -2 535.88 20.7
2 -3 2 527.18 10.53
-2 -3 -3 61.2 7.2
-2 -3 -3 61.97 8.19
2 -3 3 70.84 8.98
2 -3 3 65.24 4.78
2 -3 4 57.32 8.79
-2 -3 -4 52.36 6.89
2 -3 4 56.16 5.68
-2 -3 -4 46.86 7.91
-2 -3 -5 189.94 15.25
-2 -3 -5 180.05 10.83
-2 -3 -5 177.59 13.17
2 -3 5 185.43 15.98
2 -3 6 18.27 6.4
-2 -3 -6 27.09 5.92
-2 -3 -6 28.95 7.52
-2 -3 -6 16.43 3.65
2 -3 7 1.01 0.95
-2 -3 -7 6.56 5.36
2 -3 7 9.21 6.75
-2 -3 -7 -4.08 3.89
-2 -3 -8 56.55 10.23
-2 -3 -8 45.77 8.7
2 -3 8 45.2 10.15
-2 -3 -9 13.81 6.25
-2 -3 -9 13.8 6.26
2 -3 9 6.65 6.41
-2 -3 -10 -1.13 4.49
2 -3 10 11.2 6.92
-2 -3 -10 6.19 5.1
-2 -3 -11 7.91 5.38
2 -3 11 -0.67 5.03
-2 -3 -11 -5.33 5.08
-2 -3 -12 0.02 4.55
2 -3 12 -1.15 5.76
2 -3 13 -5.61 6.83
2 -2 -14 23.2 12.11
2 -2 -13 37.83 12.74
-2 -2 12 -3.98 6.53
2 -2 -12 -9.92 10.95
2 -2 -12 19.19 10.41
2 -2 -12 1.18 5.04
2 -2 -11 -5.97 6.45
-2 -2 11 -9.96 8.39
2 -2 -10 1.1 7.68
-2 -2 10 26.99 6.77
2 -2 -10 16.9 8.45
-2 -2 10 31.71 7.94
2 -2 -10 22.09 6.08
2 -2 -9 42.03 8.24
2 -2 -9 17.86 6.57
-2 -2 9 32.87 7.33
2 -2 -9 31.21 7.28
-2 -2 9 34.8 7.56
2 -2 -8 66.99 10.17
2 -2 -8 33.83 7.85
-2 -2 8 56.08 9.84
2 -2 -8 59.34 10.04
2 -2 -7 191.15 18.26
2 -2 -7 228.26 17.19
-2 -2 7 199.33 8.96
2 -2 -7 230.46 17.53
-2 -2 7 239.26 18.54
2 -2 -7 245.97 8.73
-2 -2 7 265.86 11.7
-2 -2 6 297.97 8.89
2 -2 -6 298.89 18.87
-2 -2 6 334.16 11.09
2 -2 -6 336.79 21.78
-2 -2 6 331.61 20.79
2 -2 -6 295.96 8.79
-2 -2 6 324.92 20.32
2 -2 -6 328.32 8.81
-2 -2 5 282.94 7.7
-2 -2 5 314.17 18.78
2 -2 -5 319.13 19.34
-2 -2 5 294.24 17.92
-2 -2 5 267.31 6.5
2 -2 -5 302.86 7.46
2 -2 -4 433.31 20.54
-2 -2 4 443.76 20.77
-2 -2 4 438.21 19.7
2 -2 -3 1867.51 39.11
2 -2 -3 1820.19 20.98
-2 -2 3 1842.28 37.34
2 -2 -2 107.31 7.81
-2 -2 2 102.22 8.52
2 -2 -2 111.36 9.16
-2 -2 2 107.19 4.07
-2 -2 2 105.37 8.24
2 -2 -2 115.58 6.02
-2 -2 1 111.41 7.6
2 -2 -1 112.45 8.78
-2 -2 1 105.49 5.62
2 -2 -1 112.5 7.07
-2 -2 1 115.74 8.63
2 -2 -1 112.49 7.08
-2 -2 0 1361.67 23.98
2 -2 0 1351.96 21.27
-2 -2 0 1420.05 31.5
2 -2 0 1347.39 22.17
2 -2 0 1419.44 27.55
-2 -2 0 1391.97 29.26
2 -2 0 1381.48 29.67
2 -2 0 1323.86 28.41
2 -2 1 772.53 22.01
2 -2 1 716.43 12.32
-2 -2 -1 792.84 23.49
-2 -2 -1 692.94 17.89
-2 -2 -1 740.33 21.21
-2 -2 -1 746.16 20.41
2 -2 1 742.01 21.62
2 -2 1 739.5 21.08
-2 -2 -2 201.08 11.55
-2 -2 -2 176.7 9.46
-2 -2 -2 192.9 9.77
2 -2 2 210.8 12.44
2 -2 2 208.77 11.56
2 -2 2 175.66 10.99
-2 -2 -3 570.91 21.39
-2 -2 -3 545.02 17.01
-2 -2 -3 554.25 16.74
2 -2 3 565.98 22.24
2 -2 4 568.54 11.36
-2 -2 -4 556.1 17.58
-2 -2 -4 551.38 18.53
-2 -2 -4 596.26 23.34
2 -2 4 577.82 24.04
2 -2 5 167.22 7.94
-2 -2 -5 166.57 12.97
-2 -2 -5 156.9 11.07
-2 -2 -5 156.04 10.17
2 -2 5 172.63 14.2
-2 -2 -6 233.56 16.15
-2 -2 -6 226.66 13.54
-2 -2 -6 246.93 15.5
2 -2 6 262.27 11.86
2 -2 6 258.66 18.19
-2 -2 -6 232.03 9.12
-2 -2 -7 103.79 11.07
2 -2 7 107.49 8.84
2 -2 7 111.77 13.13
-2 -2 -7 83.55 7.1
-2 -2 -7 97.22 11.14
2 -2 8 10.73 3.4
-2 -2 -8 15.69 6.11
2 -2 8 8.71 5.58
-2 -2 -8 6.6 4.21
-2 -2 -8 3.58 2.03
2 -2 9 15.96 4.48
2 -2 9 26.3 7.82
-2 -2 -9 25.72 7.65
-2 -2 -9 11.12 4.36
2 -2 10 24.56 8.1
-2 -2 -10 20.75 7.3
2 -2 10 42.07 7.77
-2 -2 -10 15.66 5.82
-2 -2 -11 7.12 4.88
2 -2 11 18.67 7.37
-2 -2 -12 1.38 4.65
2 -2 12 9.07 6.09
-2 -2 -13 8.5 5.19
2 -2 13 7.33 6.31
2 -2 14 -6.11 6.37
-2 -1 14 0.01 7.09
-2 -1 13 -7.11 6.71
2 -1 -13 -1.84 5.71
2 -1 -12 -7.23 5.61
2 -1 -12 7.22 5.39
-2 -1 12 5.18 5.61
-2 -1 11 32.73 8.67
2 -1 -11 24.27 8.08
2 -1 -11 33.1 7.67
2 -1 -10 15.85 5.63
-2 -1 10 15.16 6.46
2 -1 -10 21.4 7.72
-2 -1 9 138.77 14.25
2 -1 -9 146.14 14.36
2 -1 -9 140.3 15.67
-2 -1 9 154.04 15.76
2 -1 -8 144.05 13.48
-2 -1 8 159.02 14.62
2 -1 -8 171.1 16.25
-2 -1 8 160.94 14.97
-2 -1 7 303.29 18.61
2 -1 -7 283.92 19.45
2 -1 -7 311.86 13.15
-2 -1 7 334.75 14.4
2 -1 -7 285.85 17.7
-2 -1 7 303.83 18.82
2 -1 -6 215.83 14.95
-2 -1 6 215.23 10.53
-2 -1 6 222.22 15.06
2 -1 -6 234.38 10.75
2 -1 -6 213.36 14.44
-2 -1 6 252.73 12.78
-2 -1 6 215.94 14.3
-2 -1 5 1345.31 22.42
2 -1 -5 1288.82 32.32
2 -1 -5 1365.31 33.63
-2 -1 5 1315.3 31.89
2 -1 -5 1355.14 22.28
-2 -1 4 556.89 12.58
-2 -1 4 550.55 18.59
2 -1 -4 543.62 12.73
2 -1 -4 555.51 19.1
-2 -1 3 177.73 6.18
-2 -1 3 183.8 11.08
-2 -1 3 181.51 10.39
2 -1 -3 186.32 10.04
2 -1 -3 178.7 6.81
2 -1 -3 179.76 9.81
2 -1 -2 1838.99 28.79
2 -1 -2 1805.13 20.09
-2 -1 2 1829.11 29.28
2 -1 -2 1877.28 30.62
-2 -1 2 1833.54 31.22
2 -1 -1 1703.48 24.59
-2 -1 1 1753.97 29.36
2 -1 -1 1772.73 21.07
-2 -1 1 1698.9 24.99
2 -1 -1 1688.42 26.26
2 -1 -1 1685.29 27.07
-2 -1 0 137.5 6.29
2 -1 0 127.83 6.02
-2 -1 0 145.16 8.07
-2 -1 0 152.01 7.8
2 -1 0 137.23 4.26
2 -1 0 149.07 7.25
2 -1 0 135.61 7.6
-2 -1 0 135.19 5.96
-2 -1 0 141.26 8.14
2 -1 0 154.02 7.04
-2 -1 -1 1889.87 30.07
-2 -1 -1 1909.59 17.39
2 -1 1 1993.49 29.52
2 -1 1 1930.99 18.52
-2 -1 -1 1973.53 27.94
2 -1 1 1958.18 25.77
-2 -1 -1 1874.93 19.07
-2 -1 -1 1926.84 27.23
2 -1 1 1979.09 30.26
2 -1 2 5277.82 52.68
-2 -1 -2 5239.34 33.75
-2 -1 -2 5117.16 46.86
2 -1 2 5379.44 54.94
-2 -1 -2 5219.47 51.01
-2 -1 -3 1385.94 14.07
-2 -1 -3 1332.61 20.34
2 -1 3 1412.85 30.37
-2 -1 -3 1350.9 26.07
2 -1 3 1422.3 30.78
-2 -1 -3 1396.6 29.22
-2 -1 -4 1707.6 35.41
2 -1 4 1778.83 36.97
-2 -1 -4 1757.14 20.49
-2 -1 -4 1664.06 28.15
-2 -1 -4 1646.15 31.81
2 -1 4 1685.25 37.81
2 -1 4 1770.53 26.57
-2 -1 -5 1693.2 38.17
2 -1 5 1668.76 29.67
2 -1 5 1625.17 38.19
-2 -1 -5 1656.3 24.32
-2 -1 -6 192.56 9.84
2 -1 6 178.86 13.59
-2 -1 -6 177.57 13.25
2 -1 6 182.18 10.89
-2 -1 -7 109.23 11.29
2 -1 7 135.31 10.4
-2 -1 -7 130.57 9.07
2 -1 7 113.9 12.01
-2 -1 -8 133.13 12.32
2 -1 8 151.46 12.22
2 -1 8 132.34 13.62
-2 -1 -8 152.12 10.69
2 -1 9 17.67 5.91
-2 -1 -9 15.65 4.35
2 -1 9 14.38 4.73
-2 -1 -9 7.14 4.04
2 -1 10 3.48 4.07
-2 -1 -10 4.96 2.55
2 -1 10 0.92 3.5
2 -1 11 38.54 9.29
-2 -1 -11 41.03 9.27
2 -1 11 26.76 6.77
2 -1 12 17.46 6.46
-2 -1 -12 25.05 7.55
2 -1 12 21.44 7.21
-2 -1 -13 8.21 5.83
2 -1 13 14.32 6.74
-2 -1 -14 2.84 4.83
-2 0 15 0.01 6.84
2 0 -14 19.32 8.21
-2 0 14 1.01 6.86
2 0 -13 12.35 7.51
-2 0 13 10.31 7.65
2 0 -12 -4.19 4.35
2 0 -12 15.93 7.37
-2 0 12 14.07 8.07
2 0 -11 21.97 5.64
-2 0 11 38.28 10.39
2 0 -11 50.79 10.33
2 0 -10 1.27 2.98
-2 0 10 9.58 6.57
-2 0 9 31.22 8.38
2 0 -9 38.9 7.63
2 0 -9 13.94 4.63
2 0 -8 1.1 2.45
-2 0 8 1.38 4.14
2 0 -8 -6.4 5.32
2 0 -7 25.15 5.17
-2 0 7 34.07 7.5
2 0 -7 26.82 4.98
2 0 -6 22.17 3.92
2 0 -6 13.23 3.63
-2 0 6 14.96 4.85
2 0 -5 380.37 17.49
-2 0 5 393.53 14.84
-2 0 5 402.11 18.24
2 0 -5 384.83 14.51
-2 0 4 563.96 19.48
-2 0 4 580 16.82
2 0 -4 557.21 16.22
2 0 -4 568.45 19.35
-2 0 4 567.93 17.45
2 0 -4 576.03 18.01
-2 0 3 1938.15 28.29
2 0 -3 1888.35 30.27
-2 0 3 1885.74 32.21
2 0 -3 1907.42 31.42
-2 0 3 1939.51 29.68
-2 0 2 1498.69 23.69
2 0 -2 1464.27 24.56
-2 0 2 1511.82 25.69
-2 0 2 1520.08 18.99
2 0 -2 1445.16 24.11
-2 0 2 1494.75 25.54
-2 0 1 14.34 1.79
2 0 -1 12.21 2.1
2 0 -1 11.96 1.67
-2 0 1 11.71 1.99
2 0 -1 13.72 2.21
-2 0 1 12.28 2.05
-2 0 1 12.73 2.1
2 0 0 315.84 9.83
2 0 0 305.6 9.24
-2 0 0 326.37 7.35
-2 0 0 319.94 9.83
2 0 0 320.62 7.51
2 0 0 307.05 10.02
-2 0 0 306.55 9.95
-2 0 0 306.83 8.79
-2 0 -1 3870.65 37.22
-2 0 -1 3924.11 35.02
2 0 1 3793.96 37.61
2 0 1 3824.1 37.09
-2 0 -1 3950.03 36.13
2 0 1 3957.41 36.12
-2 0 -2 660.7 16.34
2 0 2 652.24 18.27
-2 0 -2 636.73 16.98
-2 0 -2 703.77 16.82
2 0 2 676.13 16.33
2 0 3 110.64 7.34
2 0 3 117.03 9.01
-2 0 -3 117.42 7.72
-2 0 -3 111.56 7.91
-2 0 -4 2694.73 42.18
2 0 4 2799.22 41.1
2 0 4 2834.59 40.78
-2 0 -4 2744.4 40.62
2 0 4 2624.89 43.1
-2 0 -5 130.64 9.89
2 0 5 140.44 10.35
-2 0 -5 137.72 8.52
2 0 5 147.1 10.07
-2 0 -6 1576.71 36.03
-2 0 -6 1578.12 31.12
2 0 6 1632.27 36.72
2 0 6 1550.98 35.94
-2 0 -7 247.68 15.55
2 0 7 225.37 15
-2 0 -7 238.89 12.9
2 0 7 251.13 15.64
2 0 8 83.03 9.8
2 0 8 82.87 9.91
-2 0 -8 82.75 9.62
-2 0 -8 90.77 8.36
-2 0 -9 147.56 13.47
-2 0 -9 165.45 12.2
2 0 9 184.81 16.06
2 0 9 177.31 15.21
-2 0 -10 42.41 7.59
2 0 10 60.04 9.87
-2 0 -10 55.93 7.65
2 0 10 61.96 10.14
2 0 11 3.29 4.47
-2 0 -11 2.84 3.26
-2 0 -11 6.58 4.87
2 0 11 2.65 4.94
-2 0 -12 6.66 3.9
-2 0 -12 9.47 6.3
2 0 12 7.8 5.71
2 0 12 3.01 4.49
-2 0 -13 7.84 5.7
2 0 13 4.37 4.91
-2 0 -14 1.55 4.71
2 0 14 0.01 4.9
2 1 -14 14.66 7.96
-2 1 14 8.75 8.52
2 1 -13 -8.07 5.56
-2 1 13 1.58 6.17
-2 1 12 26.29 10.55
2 1 -12 4.15 4.55
2 1 -11 22.78 7.14
-2 1 11 53.57 12.08
2 1 -10 9.74 3.25
2 1 -10 29.51 7.97
-2 1 10 25.47 8.96
2 1 -9 113.73 10.25
-2 1 9 168.03 17.62
2 1 -9 155.61 14.45
2 1 -8 125.32 9.83
-2 1 8 144.22 14.88
2 1 -8 143.44 13.42
-2 1 7 293.91 19.7
2 1 -7 312.19 18.1
2 1 -6 170.84 12.69
-2 1 6 148.19 12.98
2 1 -5 1301.93 32.75
-2 1 5 1321.01 35.5
-2 1 4 709.53 22.05
-2 1 4 675.06 18.77
-2 1 4 669.46 22.81
2 1 -4 635.83 18.09
2 1 -4 653.68 20.8
2 1 -4 638.59 21.21
-2 1 3 165.57 10
-2 1 3 148.13 9.96
-2 1 3 149.45 8.41
2 1 -3 148.51 9.29
2 1 -3 140.5 9.02
2 1 -3 141.45 7.89
-2 1 2 1754.19 27.98
-2 1 2 1794.31 29.63
-2 1 2 1754.61 20.29
-2 1 2 1791.93 29.9
2 1 -2 1784.96 28.13
2 1 -2 1779.26 30.46
2 1 -1 1879 24.89
-2 1 1 1822.3 21.65
-2 1 1 1901.58 26.34
2 1 -1 1885.44 31.2
-2 1 1 1873.46 27.21
2 1 -1 1799.02 17
-2 1 1 1902.38 29.21
2 1 0 141.86 5.6
2 1 0 147.71 7.77
-2 1 0 131.73 6.86
-2 1 0 135.54 6.61
-2 1 0 142.57 7.77
2 1 0 144.6 8.59
-2 1 0 146.27 4.79
2 1 1 1605.16 28.9
2 1 1 1547.9 25.05
2 1 1 1655.55 25.15
-2 1 -1 1619.08 24.98
2 1 1 1583.64 17.96
2 1 1 1611.5 30.28
-2 1 -1 1567.03 25.61
-2 1 -1 1604.59 26.44
2 1 2 5283.45 45
-2 1 -2 5431.41 48.95
2 1 2 5249.34 53.31
2 1 2 5289.56 31.91
2 1 2 5274.58 56.52
-2 1 -2 5240.74 53.62
-2 1 -2 5100.23 45.86
-2 1 -3 1482.72 31.33
2 1 3 1461.96 24.74
-2 1 -3 1563.73 27.43
2 1 3 1463.16 31.66
-2 1 -4 1625.98 29.22
-2 1 -4 1636.57 29.71
2 1 4 1583.69 27.05
-2 1 -5 1955.65 35.16
2 1 5 1989.19 33.86
2 1 5 1948.17 41.48
-2 1 -5 1953.62 34.08
-2 1 -6 199.07 13.01
2 1 6 206.22 14.91
-2 1 -6 210.73 12.55
2 1 6 229.49 12.61
-2 1 -7 124.38 10.32
2 1 7 135.27 12.76
-2 1 -7 122.38 10.98
2 1 7 120.28 10.13
-2 1 -8 163.2 13.19
2 1 8 162.91 12.55
2 1 8 175.15 15.44
-2 1 -8 174.33 13.26
2 1 9 24.7 6.94
2 1 9 18.76 5.04
-2 1 -9 19.38 5.21
-2 1 -9 29.33 6.43
-2 1 -10 4.27 3.56
-2 1 -10 9.34 5.16
2 1 10 8.96 4.33
2 1 10 18.4 7.4
2 1 11 30.86 8.39
-2 1 -11 45.2 8.38
-2 1 -11 33.71 7.24
2 1 11 37.98 7.5
-2 1 -12 34.46 8.05
-2 1 -12 19.83 6.37
2 1 12 34.31 9.75
-2 1 -13 8.13 4.76
2 1 13 3.87 6.48
2 1 14 0.01 4.66
2 2 -14 -9.26 6.2
-2 2 13 14.81 8.11
2 2 -13 -2.73 6.04
2 2 -12 7.99 5.53
-2 2 12 11.78 7.83
-2 2 11 -3.32 7.24
2 2 -11 0.21 4.2
2 2 -10 52.98 9.97
-2 2 10 46.35 10.91
2 2 -9 51.03 9.19
-2 2 9 29.6 7.67
2 2 -8 98.17 12.07
-2 2 8 77.33 11.81
-2 2 7 259.99 19.76
2 2 -7 268.66 17.75
-2 2 6 392.14 22.58
2 2 -6 451.14 21.99
2 2 -5 291.85 12.81
-2 2 5 314.83 18.65
-2 2 4 431.45 15.91
2 2 -4 407.4 14.48
-2 2 4 454.65 20.81
2 2 -4 445.03 19.46
2 2 -3 2034.54 38.28
-2 2 3 2058.76 39.71
-2 2 3 1991.93 33.77
-2 2 2 103.34 8.54
-2 2 2 87.57 4.41
-2 2 2 109.24 8.08
2 2 -2 96.08 8.26
2 2 -2 89.5 7.82
-2 2 2 102.98 8.83
2 2 -2 101.75 8.1
2 2 -1 223.28 7.63
-2 2 1 231.12 10.39
-2 2 1 221.07 10
2 2 -1 237.09 10.73
2 2 -1 225.18 11.87
-2 2 1 228.62 8.49
-2 2 1 229.4 12.25
2 2 -1 226.54 12.63
2 2 -1 220.17 11.34
-2 2 1 237.4 12.84
-2 2 0 1481.91 21.52
2 2 0 1506.67 30.05
-2 2 0 1518.24 32.58
-2 2 0 1473.83 31.05
2 2 0 1471.19 32.91
2 2 0 1426.58 23.7
-2 2 0 1435.14 26.07
2 2 0 1490.86 22.86
2 2 1 820.53 21.17
2 2 1 835.96 13.4
2 2 1 844.16 26.55
-2 2 -1 827.81 22.79
2 2 1 819.17 20.08
2 2 1 841.23 20.96
-2 2 -1 822.48 24.16
-2 2 -1 811.67 22.1
2 2 1 806.98 25.19
2 2 2 169.09 10.8
2 2 2 168.63 8.81
-2 2 -2 164.04 10.96
2 2 2 160.36 8.68
-2 2 -2 167.2 10.29
-2 2 -3 817.71 22.74
2 2 3 776.61 18.94
2 2 3 784.95 18.54
2 2 4 808.51 28.05
2 2 4 749.04 18.5
-2 2 -4 767.21 22.02
-2 2 -5 225.94 12.4
2 2 5 215 15.45
-2 2 -5 213.58 11.36
2 2 5 214.32 9.84
-2 2 -6 338.03 15.61
2 2 6 357.19 21.01
-2 2 -6 341.1 15.08
2 2 6 357.31 14.07
-2 2 -7 131.65 12.42
-2 2 -7 131.72 10.12
2 2 7 124.81 13.63
2 2 7 125.51 9.18
-2 2 -7 151.05 10.89
-2 2 -8 18.59 5.67
2 2 8 12.87 5.21
2 2 8 17.45 4
-2 2 -8 20.75 4.69
-2 2 -9 8.28 3.32
-2 2 -9 13.96 5.55
2 2 9 13.72 3.81
2 2 9 15.2 7.16
-2 2 -10 22 5.26
-2 2 -10 29.38 7.34
-2 2 -11 25.87 5.75
-2 2 -11 24.6 7.12
2 2 11 32.07 9.85
-2 2 -12 4.11 4.85
2 2 12 12.95 7.79
2 2 13 9.98 8.3
-2 2 -13 9.08 6.12
-2 2 -14 18.46 7.1
2 3 -13 4.14 5.94
2 3 -12 4.56 6.4
-2 3 12 11.97 7.75
-2 3 11 13.12 8.05
2 3 -11 3.63 5.58
2 3 -10 12.59 6.98
-2 3 10 17.86 7.61
2 3 -9 5.42 5.06
-2 3 9 5.7 4.6
-2 3 8 94.96 14.04
2 3 -8 92.16 12.21
-2 3 7 162.19 16.31
2 3 -7 165.6 15.1
-2 3 6 86.71 11.36
2 3 -6 96.07 11.46
2 3 -5 455.5 9.91
2 3 -5 421.07 15.51
-2 3 5 455.1 24.24
2 3 -4 358.75 10.25
2 3 -4 336.51 13.99
-2 3 4 343.59 19.58
2 3 -4 376.51 19.43
-2 3 3 123.55 10.99
2 3 -3 117.55 10.63
2 3 -3 119.09 6.86
-2 3 3 98.8 4.09
-2 3 2 277.62 15.28
2 3 -2 284.25 8.14
-2 3 2 320.51 15.54
-2 3 2 293.13 9.69
-2 3 2 319.47 18.34
2 3 -2 302.02 15.57
2 3 -1 585.41 19.85
-2 3 1 570.69 18.36
-2 3 1 533.81 22.61
-2 3 1 534.51 16.59
2 3 -1 527.1 14.42
-2 3 1 525.47 13.21
-2 3 0 196.62 9.18
2 3 0 187.09 10.06
2 3 0 198.12 10.52
-2 3 0 175.1 12.75
-2 3 0 169.45 5.67
-2 3 0 190.8 11.23
2 3 1 346.95 15.48
-2 3 -1 335.24 9.31
2 3 1 337.28 14.92
2 3 1 352.21 12.29
-2 3 -1 309.74 16.44
2 3 2 518.32 17.46
-2 3 -2 494.82 20.27
2 3 2 540.21 12.81
-2 3 -3 80.71 8.51
2 3 3 87.92 6.95
2 3 3 83.9 3.38
2 3 4 45.35 4.91
2 3 4 46.52 7.79
-2 3 -4 36.74 5.54
2 3 5 243.26 11.12
-2 3 -5 250.47 14.07
2 3 5 264.07 18.4
-2 3 -6 21.03 3.92
2 3 6 24.18 3.46
2 3 6 32.1 7.96
-2 3 -6 28.49 5.59
-2 3 -7 2.45 2.89
-2 3 -7 0.46 1.94
2 3 7 1.32 4.65
2 3 7 2 1.72
-2 3 -7 -3.36 5.67
-2 3 -8 71.8 7.92
2 3 8 61.25 10.73
-2 3 -8 73.78 8.72
-2 3 -8 61.44 10.06
-2 3 -9 15.21 4.31
2 3 9 19.07 7.39
-2 3 -9 9.69 4.22
-2 3 -10 17 6.99
2 3 10 9.85 7.41
2 3 11 -1.75 4.88
-2 3 -11 5.51 5.53
-2 3 -12 6.55 6.45
2 3 12 0.17 5.23
-2 3 -13 5.3 5.76
2 4 -12 6.54 7.24
-2 4 12 14.05 8.21
2 4 -11 12.44 6.64
-2 4 11 1.06 6.11
-2 4 10 0.67 6.25
2 4 -10 12.46 7.03
-2 4 9 46.61 11.53
2 4 -9 65.86 11.98
-2 4 8 4.69 6.21
2 4 -8 2.34 5.09
-2 4 7 101.81 14.48
2 4 -7 91.18 12.17
-2 4 6 202.88 18.81
2 4 -6 209.76 8.55
2 4 -6 207.78 17.5
2 4 -5 7.94 2.25
-2 4 5 6.28 5.01
2 4 -5 12.3 5.96
2 4 -5 5 1.32
-2 4 4 429.57 23.55
2 4 -4 427.65 23.1
2 4 -4 404.15 15.25
-2 4 3 54.39 8.3
2 4 -3 62.38 8.6
2 4 -3 60.5 6.59
-2 4 3 54.07 4.01
2 4 -2 48.22 4.32
-2 4 2 47.12 7.14
2 4 -2 60.71 6.85
2 4 -2 50.95 7.4
-2 4 2 42.23 7.88
-2 4 2 48.73 5.6
2 4 -1 336.56 17.12
-2 4 1 337.2 15.9
2 4 -1 317.83 13.12
-2 4 1 335.73 13.13
-2 4 1 333.45 20.39
2 4 0 60.11 7.02
-2 4 0 66.46 9.32
-2 4 0 68.9 6.4
-2 4 0 56.02 4.24
2 4 1 127.37 9.09
-2 4 -1 131.79 6.95
2 4 1 129.39 10.55
-2 4 -1 134.43 12.48
2 4 2 64.72 5.91
2 4 2 70.08 7.61
-2 4 -2 67.85 8.57
2 4 3 233.12 9.3
2 4 3 221.63 12.25
2 4 3 236.16 16.82
-2 4 -3 227.31 15.68
2 4 4 9.31 1.32
2 4 4 15.34 3.5
-2 4 -4 20.22 6.08
2 4 4 11.75 1.61
2 4 4 7.39 2.36
2 4 4 11.6 5.49
-2 4 -5 17.8 4.71
2 4 5 26.64 7.35
2 4 5 23.65 3.5
2 4 6 51.92 10.18
-2 4 -6 60.2 6.39
-2 4 -6 53.01 7.43
-2 4 -7 8.48 4.99
-2 4 -7 4.16 2.37
-2 4 -7 3.81 4.34
2 4 7 3.57 5
-2 4 -8 0.52 3.14
-2 4 -8 -2.92 6.03
2 4 8 1.15 4.24
2 4 9 -0.6 4.63
-2 4 -9 -10.53 8.44
-2 4 -9 5.86 4.43
2 4 10 3.25 5.66
-2 4 -10 3.71 6.16
2 4 11 2.2 4.85
-2 4 -11 17.29 7.95
-2 4 -12 7.58 8.12
-2 5 10 -1.31 5.99
2 5 -10 7.03 6.08
-2 5 9 -1.22 6.74
2 5 -9 10.05 6.17
2 5 -8 19.04 7.07
-2 5 8 3.99 5.26
-2 5 7 5.33 4.24
2 5 -7 8.36 6.3
-2 5 6 89.47 13.55
2 5 -6 102.36 13.56
2 5 -5 50.56 9.49
-2 5 5 56.78 10.46
2 5 -5 52.05 6.3
2 5 -4 48.03 6.54
2 5 -4 44.45 8.58
-2 5 4 46.04 8.57
2 5 -3 138.93 13.89
-2 5 3 151.44 14.27
-2 5 3 128.03 15.44
2 5 -3 123.94 11.1
2 5 -2 31.16 6.65
2 5 -2 29.48 5.85
-2 5 2 20.67 6.55
-2 5 2 29.03 6.31
-2 5 1 24.7 7.25
2 5 -1 20.2 5.09
-2 5 1 22.54 5.12
-2 5 0 44.68 8.6
-2 5 0 46.65 5.81
2 5 0 48.67 7.11
-2 5 -1 75.54 11.02
-2 5 -1 65.97 5.86
2 5 1 55.84 8.35
2 5 1 67.46 9.34
2 5 1 57.34 7.37
2 5 2 22.07 5.24
-2 5 -2 7.56 4.03
2 5 2 16.32 3.82
2 5 2 15.22 4.73
2 5 3 104.38 7.85
-2 5 -3 103.48 12.21
2 5 3 96.96 12.05
2 5 3 98.4 9.58
-2 5 -4 9.26 5.08
2 5 4 8.3 3.06
2 5 4 6.07 3.9
-2 5 -5 14.08 3.95
2 5 5 21.47 6.69
-2 5 -6 22.4 5.59
2 5 6 25.78 8.09
2 5 7 7.42 6.11
-2 5 -7 5.46 4.31
2 5 8 10.18 6.12
-2 5 -8 11.54 7.86
-2 5 -8 18.54 5.67
-2 5 -9 1.04 6.61
2 5 9 9.74 7.74
-2 5 -10 11.85 6.59
2 5 10 21.2 10.89
-2 6 9 2.21 6.92
2 6 -9 -0.27 5.32
2 6 -8 7.67 7.26
-2 6 8 -0.06 5.81
-2 6 7 10.31 7.54
2 6 -7 13.64 7.23
-2 6 6 9.35 6.59
2 6 -6 11.22 6.06
-2 6 5 3.12 4.7
2 6 -5 10.97 6.66
-2 6 5 10.55 6.75
-2 6 4 -4.01 5.71
-2 6 4 1.31 4.77
2 6 -4 3.62 4.93
2 6 -3 14.22 4.79
2 6 -3 21.5 7.25
-2 6 3 21.75 8.85
-2 6 3 19.12 6.23
2 6 -2 6.48 4.46
-2 6 2 17.29 7.26
2 6 -2 12.59 5.84
-2 6 2 5.96 4.12
-2 6 1 5.27 5.15
2 6 -1 6.96 4.97
-2 6 1 2.69 2.85
2 6 -1 1.83 2.32
2 6 -1 2.62 3.09
-2 6 0 4.5 4.84
2 6 0 8.1 4.45
2 6 0 5.67 3.39
-2 6 -1 1.27 4.32
2 6 1 6.45 3.9
2 6 1 7.46 3.54
2 6 1 4.22 3.46
-2 6 -2 7.15 4.75
2 6 2 10 4.96
2 6 2 12.72 4.82
2 6 3 7.38 5.85
-2 6 -3 1.58 3.86
-2 6 -4 19.82 6.92
2 6 4 20.23 7.2
2 6 5 1.08 4.83
-2 6 -5 0.16 5.18
2 6 6 -1.2 5.26
-2 6 -6 0.09 5.56
-2 6 -6 -6.83 5.65
-2 6 -7 1.19 7.09
2 6 7 -0.58 5.35
-2 6 -8 0.15 6.99
2 6 8 1.14 6.05
2 6 9 7.02 8.38
-2 7 8 15.72 8.94
-2 7 7 2.85 6.96
2 7 -7 8.88 7.55
-2 7 6 3.73 7.07
-2 7 6 0.03 5.58
2 7 -6 17.5 8.19
-2 7 5 6.26 6.65
-2 7 5 2.75 4.59
2 7 -5 11.29 7.42
-2 7 4 3.03 6.64
-2 7 4 2.61 4.92
2 7 -4 4.46 4.2
-2 7 3 19.38 8.89
2 7 -3 7.53 5.73
-2 7 2 19.52 9.54
2 7 -2 9.91 5.48
2 7 -1 4.26 4.5
-2 7 1 -2.26 4.88
2 7 -1 5.52 4.13
-2 7 0 7.25 6.28
2 7 0 2.29 4.77
2 7 0 -0.09 5.28
2 7 1 -0.24 5.69
2 7 1 -2.14 3.79
-2 7 -1 -10.56 7.74
-2 7 -2 -0.57 5.58
2 7 2 2.54 3.93
-2 7 -3 -8.5 5.96
2 7 3 1.32 4.56
2 7 4 0.36 4.68
-2 7 -4 3.31 5.24
2 7 5 4.45 6.11
-2 7 -5 -7.83 7
2 7 6 2.01 5.98
-2 7 -6 7.55 7.87
2 7 7 3.29 7.66
2 8 -5 0.01 6.87
2 8 -4 -0.46 4.39
-2 8 2 6.95 7.27
-2 8 1 10.16 9.23
-2 8 0 -10.25 7.65
-2 8 -1 -14.8 8.27
2 8 1 -0.17 4.84
-2 8 -2 0.01 4.95
2 8 2 0.95 7.05
2 8 3 -4.48 6.67
3 -8 4 0.11 6.48
3 -7 -6 -1.06 6.4
-3 -7 6 -2.78 5.35
-3 -7 5 5.79 4.59
3 -7 -5 9.27 7.33
-3 -7 4 5.75 5.45
3 -7 -4 -3.79 6.9
-3 -7 3 6.26 6.16
3 -7 -3 -1.59 5.04
-3 -7 2 11.01 7.01
3 -7 -2 5.67 5.29
-3 -7 2 15.75 5.93
-3 -7 1 6.6 4.77
3 -7 -1 11.66 7.3
3 -7 0 11.23 6.74
-3 -7 0 5.91 7.19
3 -7 1 3.21 3.88
3 -7 1 1.62 5.66
3 -7 1 6.46 4.89
3 -7 2 3.63 4.47
3 -7 2 -0.02 3.92
-3 -7 -3 1.99 3.4
3 -7 3 0.83 3.62
3 -7 3 -0.49 5.26
-3 -7 -4 1.9 3.96
3 -7 4 0.2 3.71
-3 -7 -4 7.11 5.74
3 -7 4 -2.28 5.38
-3 -7 -5 2.19 4.65
-3 -7 -5 6.33 6
3 -7 5 7.32 6.15
-3 -7 -6 -7.7 6.21
3 -7 6 8.23 8.7
3 -7 6 -10.79 6.48
-3 -7 -6 0.02 4.95
-3 -7 -7 -11.66 7.8
3 -6 -9 9.7 9.29
3 -6 -8 9.65 6.47
-3 -6 8 0.97 4.67
-3 -6 7 5.17 4.32
3 -6 -7 13.54 8.46
3 -6 -6 1.71 5.45
-3 -6 6 9 5.16
-3 -6 5 1.89 4.23
3 -6 -5 3.42 5.46
-3 -6 5 -3.11 4.09
-3 -6 4 3.09 3.68
3 -6 -4 0.42 4.01
-3 -6 4 -2.57 4.11
-3 -6 3 15.18 7.54
3 -6 -3 4.56 4.81
-3 -6 3 11.81 4.8
-3 -6 2 1.92 3.98
-3 -6 2 -3.77 5.16
3 -6 -2 1.71 4.64
-3 -6 1 6.66 5.22
3 -6 -1 -2.45 4.08
-3 -6 1 1.11 3.63
3 -6 -1 -5.6 3.45
3 -6 0 34.27 7.33
-3 -6 0 43.72 10.46
3 -6 0 26.18 8.39
-3 -6 -1 8.82 3.81
3 -6 1 14.58 5.45
3 -6 1 10.2 5.48
3 -6 1 10.98 5.34
-3 -6 -2 14.92 5.15
3 -6 2 9.69 5.67
3 -6 2 16.73 5.59
-3 -6 -2 26.62 7.54
3 -6 2 19.73 7.08
-3 -6 -3 16.52 6.13
3 -6 3 12.75 5.19
-3 -6 -3 24.85 7.49
3 -6 3 14.79 5.94
-3 -6 -4 -4.53 5.39
-3 -6 -4 -0.85 3.09
3 -6 4 -1.27 4.01
3 -6 4 1.79 5.76
-3 -6 -5 1.43 4.86
-3 -6 -5 10.82 5.66
3 -6 5 7.02 6.74
-3 -6 -6 2.62 5.43
-3 -6 -6 -0.04 3.4
3 -6 6 2.74 7.01
-3 -6 -7 0.42 6.21
-3 -6 -7 0.02 3.59
3 -6 7 -2.17 6.73
-3 -6 -8 -3.26 7.44
3 -6 8 3.64 8.03
-3 -5 12 -0.01 7.07
-3 -5 11 10.12 7.81
3 -5 -11 -22.27 11.37
-3 -5 10 -11.25 7.38
3 -5 -10 -4.15 7.91
3 -5 -9 -13.21 9.99
-3 -5 9 -3.09 6.13
3 -5 -8 2.9 5.5
-3 -5 8 -1.73 4.52
3 -5 -7 6.66 4.83
-3 -5 7 10.56 5.95
-3 -5 6 7.17 4.69
3 -5 -6 6.94 5.91
3 -5 -5 97.83 14.59
-3 -5 5 72.6 11.16
3 -5 -4 23.51 7.09
-3 -5 4 38.81 7.82
3 -5 -3 40.08 8.87
3 -5 -3 40.34 5.04
-3 -5 3 33.97 8.68
-3 -5 3 35.33 6.99
-3 -5 2 132.96 15.45
3 -5 -2 147.03 15.11
3 -5 -2 150.85 10.91
-3 -5 2 145.61 13.72
-3 -5 1 42.69 7.74
-3 -5 1 37.4 5.25
3 -5 -1 34.2 6.25
-3 -5 1 42.96 9.17
3 -5 -1 42.1 8.06
3 -5 0 18.56 4.85
3 -5 0 15.66 5.19
-3 -5 0 16.32 6.54
3 -5 0 11.59 4.31
-3 -5 0 13.84 3.88
-3 -5 0 21.91 5.68
-3 -5 -1 74.95 9.12
3 -5 1 71.95 9.14
-3 -5 -1 83.9 12.15
3 -5 1 70.76 10.58
3 -5 1 68.57 10.33
-3 -5 -2 12.83 4.92
-3 -5 -2 12.68 5.33
3 -5 2 8.99 4.51
3 -5 2 4.55 3.34
3 -5 2 12.84 5.24
-3 -5 -3 55.98 9.54
3 -5 3 47.31 9.29
-3 -5 -3 57.99 8.82
-3 -5 -4 42.67 8.99
-3 -5 -4 57.82 9.03
3 -5 4 53.89 10.5
3 -5 5 20.44 7.58
-3 -5 -5 3.98 3.9
-3 -5 -5 17.36 5.67
-3 -5 -6 2.17 4.9
3 -5 6 4.33 5.32
-3 -5 -6 3.55 3.68
-3 -5 -7 21.86 8.27
3 -5 7 20.93 9.43
-3 -5 -7 2.27 3.39
-3 -5 -8 2.6 5.24
-3 -5 -8 4.45 3.52
3 -5 8 7.8 6.31
-3 -5 -9 9.57 7.95
3 -5 9 15.05 8.42
-3 -5 -10 -4.81 6.3
3 -5 10 1.2 7.47
3 -4 -12 -50.11 15.54
-3 -4 12 -16.53 10.03
-3 -4 11 11.77 8.77
3 -4 -11 2.77 7.21
3 -4 -10 8.56 7.76
-3 -4 10 6.13 6
-3 -4 9 13.41 7.22
3 -4 -9 25.47 11.26
3 -4 -8 20.49 8.12
-3 -4 8 21.11 7.88
3 -4 -7 19.54 7.44
-3 -4 7 21.22 6.87
3 -4 -6 89.01 13.43
-3 -4 6 92.39 12.39
3 -4 -5 44.95 9.47
-3 -4 5 50.79 9.1
-3 -4 4 117.09 12.61
3 -4 -4 122.56 14.31
3 -4 -4 130.18 6.66
3 -4 -3 99.42 12.09
-3 -4 3 89.15 10.84
3 -4 -3 102.68 7.47
-3 -4 2 6.22 1.69
-3 -4 2 2.84 2.9
3 -4 -2 5.51 4.66
3 -4 -2 10.5 3.24
-3 -4 2 8.37 4.34
-3 -4 1 121.63 12.85
3 -4 -1 120.53 12.45
-3 -4 1 129.62 12.15
3 -4 -1 143.25 10.95
-3 -4 1 134.54 8.73
-3 -4 0 118.92 9.5
3 -4 0 129.79 11.48
3 -4 0 111.88 9.57
-3 -4 0 131.79 13.4
3 -4 0 124.94 8.67
-3 -4 0 134.02 12.29
3 -4 0 130.58 12.63
-3 -4 -1 100.41 9.59
-3 -4 -1 107.44 12.11
3 -4 1 97.09 9.31
3 -4 1 91.85 10.73
-3 -4 -1 107.45 10.6
-3 -4 -1 101.84 10.59
3 -4 1 99.18 11.16
-3 -4 -2 31.43 6.16
-3 -4 -2 33.88 6.11
3 -4 2 41.6 7.47
3 -4 2 34.65 7.08
3 -4 3 85.57 11.18
-3 -4 -3 93.01 10.79
-3 -4 -3 86.24 9.69
3 -4 4 164.6 16.53
3 -4 4 159.79 7.81
-3 -4 -4 147.79 12.63
-3 -4 -4 164.44 15.38
-3 -4 -5 61.48 10.66
-3 -4 -5 39.47 6.82
3 -4 5 49.05 9.96
3 -4 5 41.7 5.23
-3 -4 -6 26.98 6.48
3 -4 6 28.37 8.47
-3 -4 -6 37.67 9.61
3 -4 6 23.9 4.95
3 -4 7 21.83 5.54
-3 -4 -7 46.97 10.49
-3 -4 -7 30.33 7.25
3 -4 7 32.44 9.69
-3 -4 -8 6.44 4.42
3 -4 8 16.26 7.77
-3 -4 -8 14.08 7.06
-3 -4 -9 22.2 8.68
3 -4 9 17.36 8.41
-3 -4 -10 10.22 6.88
3 -4 10 8.13 7.8
-3 -4 -11 2.41 5.38
3 -4 11 5.02 6.28
-3 -3 13 -7.42 9.06
3 -3 -13 13.17 9.61
-3 -3 12 9.39 9.34
3 -3 -12 -3.19 7.8
3 -3 -11 -8.1 10.34
-3 -3 11 21.4 11.01
-3 -3 10 0.67 6.04
3 -3 -10 -5.54 6.74
-3 -3 9 53.06 11.82
3 -3 -9 32.77 10.6
-3 -3 8 1.72 5.41
3 -3 -8 11.62 6.95
-3 -3 7 -1.42 4.25
3 -3 -7 8.67 6.75
3 -3 -6 77.11 12.63
-3 -3 6 77.81 11.19
3 -3 -5 145.8 14.47
3 -3 -5 152.48 6.13
-3 -3 5 138.36 13.62
3 -3 -4 271.06 9.96
-3 -3 4 273.18 17.84
3 -3 -4 274.46 18.66
-3 -3 3 225.92 5.65
3 -3 -3 260.09 17.63
3 -3 -3 255.21 11.27
-3 -3 3 258.8 16.96
-3 -3 2 635.93 14.03
3 -3 -2 635.25 25.78
3 -3 -2 657.8 20
-3 -3 2 644.56 25.23
-3 -3 1 359.92 13.17
-3 -3 1 353.43 18.29
3 -3 -1 365.33 16.35
-3 -3 1 336.88 19.32
3 -3 -1 359.09 18.55
3 -3 -1 359.84 15.19
-3 -3 0 146.96 9.74
3 -3 0 154.97 12.05
3 -3 0 145.72 8.65
3 -3 0 152.44 9.11
-3 -3 0 168.27 13.58
3 -3 0 154 11.6
-3 -3 0 148.8 12
-3 -3 -1 229.02 15.64
3 -3 1 223.04 9.16
3 -3 1 239.83 12.14
-3 -3 -1 231.12 13.37
3 -3 1 232.2 14.97
-3 -3 -1 217.84 14.16
3 -3 1 222.08 14.29
-3 -3 -2 202.88 13.63
3 -3 2 175.24 6.37
3 -3 2 196.73 13.18
-3 -3 -2 181.83 11.35
3 -3 2 198.38 14.43
3 -3 3 28.63 7.06
3 -3 3 28.13 3.05
-3 -3 -3 37.02 5.88
-3 -3 -3 21.02 5.75
-3 -3 -4 221.1 15.91
3 -3 4 255.4 18.25
-3 -3 -4 232.76 13.42
-3 -3 -5 94.6 11.3
-3 -3 -5 90.22 8.93
3 -3 5 97.82 12.11
3 -3 6 8.27 5.16
3 -3 6 7.73 1.35
-3 -3 -6 20.32 5.28
-3 -3 -6 16.51 5.09
3 -3 7 47.6 9.58
-3 -3 -7 47.69 7.75
-3 -3 -7 61.88 10
-3 -3 -8 21.25 7.86
-3 -3 -8 12.25 5.11
3 -3 8 12.13 6.09
-3 -3 -9 20.41 8.02
-3 -3 -9 9.22 4.31
3 -3 9 13.08 7.48
3 -3 10 3.1 5.57
-3 -3 -10 12.79 6.75
-3 -3 -11 9.25 5.66
3 -3 11 1.55 5.27
-3 -3 -12 1.65 6.35
3 -3 12 13.7 8.3
-3 -2 13 18.34 11.57
3 -2 -13 40.72 15.16
3 -2 -12 26.69 12.59
-3 -2 12 26.46 11.74
3 -2 -11 -0.31 9.77
-3 -2 11 37.55 13.13
3 -2 -11 43.58 15.09
-3 -2 10 69.47 14.88
3 -2 -10 38.46 10.92
3 -2 -10 43.2 9.83
3 -2 -9 58.15 11.31
-3 -2 9 73.62 12.76
3 -2 -9 45.63 11.73
3 -2 -8 19.23 6.49
-3 -2 8 21.66 8.07
3 -2 -8 20.26 3.57
3 -2 -8 10.15 6.57
-3 -2 7 269.77 10.46
3 -2 -7 249.05 10.03
3 -2 -7 234.74 10.38
-3 -2 7 252.3 20.57
-3 -2 6 544.68 12.56
3 -2 -6 493.79 13.42
3 -2 -6 513.55 13.27
3 -2 -6 491.32 27.67
-3 -2 6 514.06 26.88
-3 -2 5 174.57 5.97
3 -2 -5 165.96 7.15
3 -2 -5 173.94 15.17
-3 -2 5 170.85 14.38
-3 -2 4 868.71 12.38
-3 -2 4 875.8 29.99
3 -2 -4 881.01 16
3 -2 -4 932.08 31.21
3 -2 -3 1602.68 22.88
3 -2 -3 1596.31 37.78
-3 -2 3 1509.23 37.09
-3 -2 2 239.97 13.54
-3 -2 2 222.76 8.62
3 -2 -2 216.15 11.58
3 -2 -2 221.52 13.24
-3 -2 2 210.77 13.34
-3 -2 1 1155.75 22.09
3 -2 -1 1175.18 24.66
-3 -2 1 1205.07 31.56
-3 -2 1 1106.07 26.84
3 -2 -1 1134.94 28.69
3 -2 -1 1182.22 25.24
-3 -2 1 1140.72 30.11
-3 -2 0 2451.17 34.93
-3 -2 0 2534.32 36.61
3 -2 0 2555.52 32.78
-3 -2 0 2604.18 45.32
3 -2 0 2573.25 41.34
-3 -2 0 2606.39 45.66
3 -2 0 2551.06 26.18
3 -2 0 2721.52 41.49
-3 -2 -1 250.23 12.69
3 -2 1 258.96 9.35
-3 -2 -1 263.91 9.18
-3 -2 -1 273.55 14.68
3 -2 1 257.41 13
-3 -2 -1 261.72 13.06
-3 -2 -1 249.04 14.07
3 -2 1 279.37 14.39
-3 -2 -2 163.75 4.9
-3 -2 -2 186.75 11.64
3 -2 2 167.89 7.04
3 -2 2 170.72 10.25
-3 -2 -2 180.1 10.96
3 -2 2 178.53 12.48
-3 -2 -2 162.91 8.24
3 -2 2 146.74 5.87
-3 -2 -3 1510.1 35.72
-3 -2 -3 1507.45 32.16
-3 -2 -3 1435.11 25.58
-3 -2 -4 586.6 24.05
-3 -2 -4 524.44 16.57
3 -2 4 571.7 24.57
-3 -2 -5 447.05 21.83
3 -2 5 444.22 13.06
-3 -2 -5 393.66 15.97
3 -2 5 415.83 22.14
-3 -2 -6 253.81 17.65
3 -2 6 256.78 18.48
3 -2 6 245.4 11.19
-3 -2 -6 216.33 13.14
-3 -2 -7 138.46 13.85
3 -2 7 157.37 10.34
-3 -2 -7 122.22 11.22
3 -2 7 145.64 14.76
-3 -2 -8 43.79 8.12
3 -2 8 55.68 6.95
3 -2 8 53.38 9.56
-3 -2 -8 39.33 7.23
3 -2 9 59.23 7.98
-3 -2 -9 41.27 8.01
3 -2 9 52.86 9.99
-3 -2 -9 38.15 8.06
-3 -2 -10 23.56 8.18
-3 -2 -10 3.22 3.54
3 -2 10 18.98 7.5
-3 -2 -11 2.83 4.37
3 -2 11 2.69 5.49
-3 -2 -12 7.23 6.1
3 -2 12 7.56 6.83
-3 -2 -13 9.71 7.06
3 -2 13 3.29 6.58
3 -1 -14 -14.67 7.8
-3 -1 14 -19.35 9.51
3 -1 -13 -26.34 9.39
-3 -1 13 -4.84 6.66
3 -1 -12 14.71 7.83
-3 -1 12 15.23 8.26
3 -1 -11 15.64 6.95
-3 -1 11 18.05 6.3
-3 -1 10 -3.44 6.9
3 -1 -10 -3.53 7.25
3 -1 -9 61.59 10.93
-3 -1 9 87.31 12.84
3 -1 -8 92.05 12.38
-3 -1 8 90.2 11.8
-3 -1 8 123.89 9.46
3 -1 -7 33.17 7.05
-3 -1 7 29.76 4.26
-3 -1 7 16.59 5.08
3 -1 -7 28.68 4.35
-3 -1 6 295.72 12.01
3 -1 -6 286.85 18.43
3 -1 -6 294.65 12.43
-3 -1 6 304.94 18.1
-3 -1 5 564.52 15.53
3 -1 -5 537.45 22.98
3 -1 -5 534.88 16.66
3 -1 -5 532.83 15.68
-3 -1 5 566.09 24.89
-3 -1 5 524.38 10.37
-3 -1 4 1910.97 26.63
-3 -1 4 1897.49 42.23
3 -1 -4 1864.02 29.04
3 -1 -4 1942.68 39.28
-3 -1 3 183.89 11.93
3 -1 -3 176.48 8.37
3 -1 -3 183.53 11.78
3 -1 -2 2567.78 31.36
3 -1 -2 2680.63 37.61
3 -1 -2 2635.85 39.1
-3 -1 2 2647.6 37.69
-3 -1 2 2510.11 41.42
-3 -1 2 2578.14 27.3
3 -1 -2 2603.47 37.43
3 -1 -1 2637.44 32.73
3 -1 -1 2666.8 35.23
-3 -1 1 2625.99 34.24
-3 -1 1 2696.93 42.24
3 -1 -1 2714.48 35.87
3 -1 -1 2643.28 37.6
-3 -1 0 153.59 8.99
3 -1 0 147.04 7.9
3 -1 0 145.57 6.48
-3 -1 0 159.31 9.53
-3 -1 0 150.38 9.86
3 -1 0 153.88 9.2
-3 -1 0 144.82 7.27
3 -1 0 146.56 8.2
-3 -1 -1 1348.09 27.49
3 -1 1 1324.32 22.29
-3 -1 -1 1287.95 19.16
3 -1 1 1342.48 27.1
3 -1 1 1256.66 20.17
-3 -1 -1 1366.95 29.46
3 -1 1 1285.52 27.99
-3 -1 -1 1315.55 25.11
3 -1 2 434.83 17.27
-3 -1 -2 406.67 15.6
-3 -1 -2 392.55 7.18
3 -1 2 443.22 13.33
3 -1 2 400.16 12.62
3 -1 2 450.69 16.78
-3 -1 -2 442.64 16.02
-3 -1 -2 394.51 9.87
-3 -1 -3 345.45 15.24
-3 -1 -3 317.09 8.19
3 -1 3 362.13 16.37
-3 -1 -3 339.15 15.3
-3 -1 -4 74.48 7.88
-3 -1 -4 75.34 4.98
3 -1 4 78.34 8.47
-3 -1 -5 1061.72 30.64
-3 -1 -5 1060.03 18.79
3 -1 5 1070.47 25.13
3 -1 5 1097.19 32.92
-3 -1 -6 537.1 15.15
3 -1 6 582.1 25.23
3 -1 6 567.13 19.81
-3 -1 -6 546.54 23.62
-3 -1 -7 100.02 11.14
3 -1 7 114.03 9.92
3 -1 7 114.41 12.18
-3 -1 -7 126.71 8.2
3 -1 8 392.35 23.36
3 -1 8 373.2 18.85
-3 -1 -8 369.86 21.86
-3 -1 -8 395.29 15.77
-3 -1 -9 68.41 9.99
-3 -1 -9 67.69 7.32
3 -1 9 67.07 8.93
3 -1 9 62.32 10.26
-3 -1 -10 24.21 6.45
3 -1 10 33.86 7.65
3 -1 10 28.2 8.27
-3 -1 -11 13.56 5.6
3 -1 11 14.56 7.44
3 -1 11 3.23 4.25
3 -1 12 3.86 5.93
-3 -1 -12 8.67 5.67
-3 -1 -13 3.19 4.4
3 -1 13 11.1 7.05
-3 -1 -14 1.68 5.77
3 0 -15 0.01 4.72
3 0 -14 2.82 4.89
-3 0 14 -7.2 7.19
3 0 -13 32.42 10.34
-3 0 13 11.8 8.14
-3 0 12 17.74 8.44
3 0 -12 26.3 9.5
3 0 -11 20.94 8.08
-3 0 11 -4.86 6.13
-3 0 10 133.2 16.87
3 0 -10 157.25 16.83
-3 0 9 230.91 19.88
3 0 -9 232.84 19.28
3 0 -8 18.92 6.32
-3 0 8 9.52 5.23
-3 0 7 472.62 25.17
3 0 -7 460.87 23.74
-3 0 6 1302.87 38.18
3 0 -6 1236.76 36.63
-3 0 5 76.6 7.02
3 0 -5 81.22 8.98
-3 0 5 82.53 9.26
3 0 -5 71.58 6.8
-3 0 4 1110.16 25.16
-3 0 4 1052.09 21.57
3 0 -4 1095.14 28.77
-3 0 4 1058.92 29.45
-3 0 3 2004.93 37.44
-3 0 3 1973.38 26.97
3 0 -3 2011.99 33
3 0 -3 2006.73 35.84
3 0 -3 1990.18 33.83
-3 0 3 2032.4 33.6
3 0 -2 1.29 1.46
-3 0 2 2.34 1
-3 0 2 2.64 1.61
3 0 -2 3.05 1.35
3 0 -2 1.45 1.83
-3 0 2 1.86 1.32
3 0 -2 1.81 1.51
3 0 -1 2422.99 33.72
-3 0 1 2376.42 34.62
-3 0 1 2428.58 34.13
-3 0 1 2412.2 29.44
-3 0 1 2409.8 32.46
3 0 -1 2325.37 29.6
3 0 -1 2313.36 33.63
3 0 0 6332.69 53.99
3 0 0 6026.94 50.9
-3 0 0 6165.94 54.21
-3 0 0 6158.59 48.1
-3 0 0 6202.88 39.21
-3 0 0 6218 54.1
3 0 0 6165.37 54.74
3 0 1 390.11 13.61
-3 0 -1 388.44 14.16
3 0 1 373.48 13.97
3 0 1 376.18 13.38
-3 0 -1 396.45 13.29
-3 0 -1 377.93 13.47
-3 0 -2 1200.36 26.67
3 0 2 1234.51 27.92
-3 0 -2 1270.48 25.41
3 0 2 1164.65 26.2
3 0 2 1250.13 25.49
3 0 3 3291.91 43.53
-3 0 -3 3310.46 44.68
-3 0 -3 3227.92 47.96
-3 0 -4 190.02 11.43
3 0 4 177.85 11.21
-3 0 -5 300.37 15.73
3 0 5 311.86 16.06
-3 0 -6 317.24 14.27
-3 0 -6 327.67 17.43
3 0 6 315.92 16.92
3 0 6 306.42 17.3
-3 0 -7 27.55 6.13
3 0 7 26.72 5.61
-3 0 -7 32.13 4.94
3 0 7 38.88 6.92
-3 0 -8 97.08 11.15
3 0 8 96.79 10.83
3 0 8 86 10.64
-3 0 -8 83.62 8.5
-3 0 -9 74.36 10.46
3 0 9 71.82 10.48
3 0 9 69.68 10.3
-3 0 -9 73.35 8.39
-3 0 -10 5.05 3.46
3 0 10 4.25 4.29
3 0 10 -2.26 4.52
-3 0 -10 1.46 4.06
3 0 11 3.98 5.39
-3 0 -11 0.07 3.73
-3 0 -11 1.69 2.89
3 0 11 6.82 5.41
3 0 12 9.55 5.27
3 0 12 6.53 5.44
-3 0 -12 12.42 5.37
-3 0 -13 16.08 7.2
3 0 13 0.12 4.4
-3 0 -14 3.81 5.56
3 1 -14 21.98 9.37
-3 1 14 6.01 7.36
3 1 -13 16.68 7.94
-3 1 13 10.27 8.8
-3 1 12 37.95 12.29
3 1 -12 55.35 12.01
3 1 -11 21.01 6.94
-3 1 11 20.56 8.31
3 1 -10 -5.71 6.01
-3 1 10 8.82 6.29
-3 1 9 102 13.91
3 1 -9 73.9 10.75
-3 1 8 103.85 13.57
3 1 -8 113.77 12.73
-3 1 7 27.79 7.59
3 1 -7 28.16 6.34
-3 1 6 339.62 20.47
3 1 -6 308.36 18.25
3 1 -5 619.73 24.06
-3 1 5 657.47 26.41
-3 1 4 1948.47 41.34
3 1 -4 1888.51 38.92
3 1 -3 146.4 9.98
3 1 -3 146.2 9.51
-3 1 3 156.06 10.87
-3 1 3 143.81 9.81
-3 1 3 162.79 9.96
3 1 -2 2651.68 37.76
3 1 -2 2727.04 22.94
-3 1 2 2696.37 32.65
3 1 -2 2725.58 41.75
-3 1 2 2758.51 36.03
-3 1 2 2698.87 39.72
-3 1 2 2722.23 39.67
-3 1 2 2725.15 40.67
3 1 -2 2797.81 43.13
3 1 -1 2802.05 40.71
3 1 -1 2620.78 26.79
-3 1 1 2718.94 38.67
-3 1 1 2840.16 35.7
-3 1 1 2714.28 33.66
3 1 -1 2740.21 34.2
3 1 -1 2797.06 43.25
-3 1 1 2672.29 31.03
-3 1 0 154.25 8.45
3 1 0 158.06 10.33
3 1 0 158.89 9.54
-3 1 0 146.49 7.82
-3 1 0 153.44 9.23
3 1 0 150.61 7.63
3 1 0 153.23 7.26
-3 1 0 153.74 6.93
3 1 1 1488.88 28.38
3 1 1 1500.99 30.34
-3 1 -1 1466.19 28.72
3 1 1 1450.84 16.91
-3 1 -1 1432.76 24.53
3 1 1 1383.42 26.62
3 1 1 1475.06 32.65
-3 1 -1 1433.12 28.03
3 1 2 500.9 16.51
-3 1 -2 473.68 14.33
3 1 2 483.3 7.64
3 1 2 496.1 18.15
3 1 2 485.59 19.56
-3 1 -2 482.09 17.7
-3 1 -2 495.05 17.01
-3 1 -3 280.41 11.39
3 1 3 305.36 13.23
-3 1 -4 58.98 6.4
-3 1 -4 47.72 5.04
-3 1 -4 68.01 6.96
3 1 4 63.37 6.47
3 1 5 1032.43 26.19
-3 1 -5 1080.48 28.35
-3 1 -5 1063.79 27.77
-3 1 -6 565.04 22.01
3 1 6 586.92 25.01
3 1 6 583.55 21.62
-3 1 -6 567.96 21.24
-3 1 -7 132 11.23
-3 1 -7 119.57 10.83
3 1 7 125.21 12.66
3 1 7 119.36 10.89
-3 1 -8 399.13 20.37
-3 1 -8 379.81 20.25
3 1 8 428.4 24.53
3 1 8 404.93 20.74
-3 1 -9 61.49 9.06
3 1 9 46.06 7.73
3 1 9 54.24 9.65
-3 1 -9 54.9 8.38
-3 1 -10 28.94 6.41
-3 1 -10 24.13 6.13
3 1 10 34.62 8.71
3 1 10 28.28 6.12
3 1 11 14.8 5.26
-3 1 -11 6.21 4.52
3 1 11 17.09 7.3
-3 1 -11 1.02 4.01
-3 1 -12 -1.32 3.62
3 1 12 4.52 6.91
-3 1 -12 2.28 4.02
-3 1 -13 9.52 5.66
3 1 13 -5.34 5.49
3 1 14 0.07 7.37
3 2 -13 -5.64 7.02
-3 2 13 17.36 9.36
3 2 -12 10.87 6.51
-3 2 12 19.58 9.88
3 2 -11 23.83 7.6
-3 2 11 35.87 11.56
3 2 -10 94.72 13.34
-3 2 10 98.17 16.29
3 2 -9 85.01 11.78
-3 2 9 101.75 15.25
3 2 -8 37.87 8.49
-3 2 8 33.12 9.57
-3 2 7 280.02 21.14
3 2 -7 282.43 19.02
-3 2 6 611.03 28.61
3 2 -6 571.52 25.73
-3 2 5 204.42 16.02
3 2 -5 208.03 14.89
-3 2 4 951.14 30.95
3 2 -4 906.55 28.54
-3 2 3 1899.15 39.23
-3 2 3 1834.47 23.82
3 2 -3 1845.98 37.42
-3 2 3 1888.5 41.88
-3 2 2 170.1 10.8
-3 2 2 171.7 8.6
-3 2 2 183.74 12.51
-3 2 2 177 8.07
3 2 -2 177.34 10.72
-3 2 1 1083.33 21.82
-3 2 1 1124.56 24.51
-3 2 1 1088.93 16.72
-3 2 1 1109.05 19.61
3 2 -1 1105.54 28.81
-3 2 1 1116.95 29.85
3 2 -1 1114.59 23.58
-3 2 0 2901.48 39.36
3 2 0 3065.92 42.15
3 2 0 2972.13 44.6
-3 2 0 2929.12 46.13
-3 2 0 3031.18 47.7
3 2 0 2942.44 33.11
3 2 1 231.97 12.02
3 2 1 225.72 10.6
-3 2 -1 250.22 13.58
-3 2 -1 213.05 12.66
3 2 1 222.58 7.51
3 2 1 202.06 11.15
-3 2 -1 225.58 11.93
3 2 2 151.07 9.77
-3 2 -2 141.06 10.33
3 2 2 141.42 7.82
-3 2 -2 153.86 11.03
3 2 3 1509.15 30.02
-3 2 -3 1498.8 33.22
-3 2 -3 1410.46 33.16
3 2 3 1445.06 23.92
-3 2 -4 625.66 22.08
3 2 4 631.03 19.52
-3 2 -5 463.85 18.5
3 2 5 460.02 17.31
3 2 5 410.39 15.5
-3 2 -5 459.99 19.21
-3 2 -6 300.4 15.71
3 2 6 310.01 20.51
3 2 6 296.52 14.24
-3 2 -6 305.36 16.1
-3 2 -7 215.74 14.11
-3 2 -7 215.21 14.12
3 2 7 196.23 12.54
3 2 7 226.45 17.99
3 2 8 51.65 7.07
-3 2 -8 49.56 8.7
-3 2 -8 58.79 8.14
3 2 8 50.34 9.99
-3 2 -9 70.93 8.98
3 2 9 69.45 11.52
3 2 9 65.76 8.3
-3 2 -9 84.45 11.19
-3 2 -10 12.28 4.53
3 2 10 15.82 6.66
-3 2 -10 10.75 5.73
-3 2 -11 1.8 3.45
3 2 11 8.01 7.28
-3 2 -11 -2.02 4.35
-3 2 -12 12.04 6.33
3 2 12 7.37 7.5
-3 2 -13 3.55 5.88
3 2 13 -0.33 5.69
3 3 -12 -6.24 7.06
-3 3 12 18.05 10.17
3 3 -11 17.05 8.04
-3 3 11 40.56 12.72
3 3 -10 5.35 5.96
-3 3 10 7.65 6.89
3 3 -9 75.96 11.98
-3 3 9 71.55 13.01
-3 3 8 10.04 5.79
3 3 -8 18.34 6.97
3 3 -7 13.81 5.81
-3 3 7 2.05 5.76
-3 3 6 91.88 12.04
3 3 -6 118.59 12.73
-3 3 5 186.81 15.97
3 3 -5 184.38 15
-3 3 4 346.54 20.19
3 3 -4 323.07 7.2
3 3 -4 369.11 19.83
-3 3 4 361.01 21.97
-3 3 3 363.21 18.78
-3 3 3 310.87 15.85
3 3 -3 340.73 10.78
-3 3 3 335.35 20.7
-3 3 3 308.54 9.71
3 3 -3 346.29 17.83
-3 3 2 675.51 16.82
-3 3 2 711.6 23.78
-3 3 2 672.75 22.39
-3 3 2 687.46 28.13
3 3 -2 729.34 23.91
-3 3 1 456.61 16.95
3 3 -1 443.41 17.23
-3 3 1 432.65 15.28
-3 3 1 450.34 21.98
3 3 0 172.48 10.01
3 3 0 184.9 12.82
-3 3 0 186.97 13.85
-3 3 0 172.74 9.31
3 3 0 191.68 10.04
3 3 1 282.98 14.88
3 3 1 301.83 10.46
-3 3 -1 280.72 16.43
3 3 2 213.09 6.8
3 3 2 207.32 12.38
-3 3 -2 224.68 14.69
3 3 3 51.8 6.65
-3 3 -3 39.69 7.45
3 3 4 307.16 14.28
-3 3 -4 303.81 16.85
3 3 5 98.11 12.43
-3 3 -5 87.47 9.41
3 3 5 95.88 8.16
-3 3 -6 17.12 4.59
3 3 6 21.09 4.12
3 3 6 18.29 6.62
-3 3 -6 22.42 5.91
-3 3 -7 83.83 9.59
-3 3 -7 76.53 8.57
3 3 7 80.84 7.41
3 3 7 80.42 12.31
-3 3 -8 13.48 4.83
-3 3 -8 8.7 3.99
3 3 8 17.85 7.25
-3 3 -8 17.18 7
-3 3 -9 6.31 5.06
-3 3 -9 8.88 4.32
3 3 9 -0.32 4.96
3 3 10 5.9 5.98
-3 3 -10 -2.68 4.08
3 3 11 2.51 5.46
-3 3 -11 7.12 4.93
3 3 12 12.69 8.29
-3 3 -12 3.28 5.18
-3 3 -13 2.97 6.22
3 4 -11 14.75 7.92
-3 4 11 3.74 6.09
3 4 -10 7.65 6.18
-3 4 10 23.3 9.23
3 4 -9 26.15 8.52
-3 4 9 19.67 8.67
-3 4 8 44.65 10.42
3 4 -8 48.4 10.34
-3 4 7 11.45 5.16
3 4 -7 12.15 6.44
-3 4 6 86.13 12.67
3 4 -6 103.61 12.99
-3 4 5 65.94 10.34
3 4 -5 73.84 10.92
3 4 -5 56.08 3.83
3 4 -4 106.57 6.99
-3 4 4 127.96 13.31
-3 4 4 112.01 14.35
3 4 -4 116.3 12.46
-3 4 3 103.22 6.29
-3 4 3 102.27 13.18
-3 4 3 102.69 11.04
3 4 -3 117.5 8.5
3 4 -3 127.04 12.04
-3 4 2 21.57 7.04
-3 4 2 22.89 5.41
3 4 -2 17.55 5.3
-3 4 2 15.5 3.12
-3 4 2 16.22 3
3 4 -1 123.41 8.29
-3 4 1 138.77 10.25
-3 4 1 140.51 13.96
-3 4 1 123.27 6.21
3 4 -1 134.06 11
-3 4 0 128.13 13.09
-3 4 0 115.05 8.31
3 4 0 113.71 11.36
3 4 0 130.72 9.8
-3 4 -1 129.64 12.82
3 4 1 119.27 11.33
3 4 1 132.89 8.74
-3 4 -2 31.59 6.27
3 4 2 40.55 6.37
3 4 2 41.77 4.2
3 4 3 76.91 8.16
3 4 3 75.21 3.72
-3 4 -3 86.15 10.37
3 4 4 192.24 17.29
-3 4 -4 183.47 14.86
3 4 4 185.87 12.12
3 4 5 48.06 10
-3 4 -5 40.29 6.51
3 4 5 39.12 5.41
3 4 6 28.2 4.54
3 4 6 42.17 9.42
-3 4 -6 32.8 6.6
-3 4 -7 51.86 8.37
-3 4 -7 38.6 6.32
3 4 7 43.85 9.67
3 4 8 10.06 6.71
-3 4 -8 11.41 6.54
-3 4 -8 8.17 4.29
3 4 9 9.88 6.2
-3 4 -9 13.19 5.53
-3 4 -9 6.3 4.78
3 4 10 13.3 7.48
-3 4 -10 14.88 7.12
-3 4 -11 2.32 5.76
3 4 11 11.66 8.71
3 5 -10 8.09 7.24
-3 5 10 24.27 10.38
-3 5 9 13.13 8.5
3 5 -9 8.11 5.99
-3 5 8 18.07 7.88
3 5 -8 6.87 4.72
-3 5 7 15.64 6.37
3 5 -7 24.34 7.97
-3 5 6 8.63 6.99
-3 5 6 5.11 5.28
3 5 -6 9.01 5.78
-3 5 5 114.32 16.73
-3 5 5 90.74 12.95
3 5 -5 99.95 13.18
3 5 -4 49.84 6.3
-3 5 4 58.14 12.12
-3 5 4 48.14 9.03
3 5 -4 55.59 9.84
-3 5 3 49.99 10.83
3 5 -3 57.12 7.57
-3 5 3 51.35 9.07
3 5 -3 50.87 8.69
-3 5 2 167.08 13.68
3 5 -2 167.41 13.28
3 5 -2 176.88 14.49
-3 5 2 161.24 17.17
-3 5 1 37.74 8.91
-3 5 1 40.71 6.53
3 5 -1 32.67 6.27
-3 5 0 21.2 7.54
3 5 0 19.68 5.57
-3 5 0 17.65 3.78
3 5 0 19.16 4.84
-3 5 -1 73.32 10.75
-3 5 -1 70.38 5.79
3 5 1 80.11 10.35
3 5 1 81.78 8.18
3 5 2 13.06 4.76
3 5 2 15.06 3.22
-3 5 -3 58.04 9.33
3 5 3 66.87 8.67
3 5 3 63.43 10.18
3 5 4 68.06 8.15
3 5 4 60.34 10.45
-3 5 -4 66.65 10.53
3 5 5 26.79 7.99
-3 5 -5 20.63 5.02
-3 5 -6 4.1 4.57
3 5 6 10.43 6.68
-3 5 -7 24.46 6.87
3 5 7 22.32 8.77
3 5 8 6.14 5.67
-3 5 -8 8.13 6.97
-3 5 -8 22.33 6.76
3 5 9 -3.95 6.74
-3 5 -9 4.55 6.45
3 5 10 2.49 6.89
-3 5 -10 -3.08 6.74
-3 6 9 1.07 6.29
3 6 -9 13.49 7.41
-3 6 8 -7.77 7.9
-3 6 8 -3.23 6.45
3 6 -8 8.4 6.91
-3 6 7 2.14 6.06
-3 6 7 6.08 6.64
3 6 -7 16.54 7.45
-3 6 6 -3.78 7.2
-3 6 6 2.27 4.88
3 6 -6 9.37 6.34
-3 6 5 -1.89 5.38
-3 6 5 6.93 5.7
3 6 -5 -8.07 5.27
-3 6 4 -1.84 7.3
-3 6 4 1.88 5.24
3 6 -4 -0.57 4.25
-3 6 3 6.36 6.53
3 6 -3 6.52 4.11
-3 6 2 1.67 5.04
3 6 -2 1.79 3.83
-3 6 2 5.81 4.27
3 6 -2 4.23 4.47
-3 6 1 0.56 6.09
3 6 -1 3.98 4.05
3 6 -1 3.98 4.6
-3 6 0 44.97 10.07
3 6 0 32.42 6
3 6 0 36.13 8.47
-3 6 -1 7.18 3.72
3 6 1 4.68 3.91
3 6 1 3.99 3.49
-3 6 -2 21.84 7.48
3 6 2 14.4 5.13
3 6 2 14.92 5.74
-3 6 -3 18.4 6.65
3 6 3 10.11 5.27
-3 6 -4 7.38 5.62
3 6 4 8.63 6.04
3 6 5 -3.69 5.61
-3 6 -5 -13.12 7.78
3 6 6 7.89 6.49
-3 6 -6 0.73 4.58
-3 6 -7 4.93 4.24
3 6 7 5.6 6.54
-3 6 -7 -9.13 8.25
-3 6 -8 -4.18 6.02
3 6 8 9.22 8.75
-3 7 8 18.2 9.28
-3 7 7 -4.52 6.3
3 7 -7 12.12 8.27
-3 7 6 -4.62 8.87
-3 7 6 1.9 6.36
3 7 -6 0.96 6.34
-3 7 5 17.37 7.4
3 7 -5 1.26 5.12
-3 7 5 12.9 9.79
-3 7 4 -3.41 7.56
3 7 -4 0.12 4.77
-3 7 3 4.87 6.96
3 7 -3 7.51 5.92
-3 7 2 17.07 9.29
3 7 -2 18.25 6.59
-3 7 1 -2.9 5.35
3 7 -1 5.16 5.1
3 7 -1 2.76 4.72
-3 7 0 6.09 6.5
3 7 0 7.26 6.15
3 7 0 7.44 6.07
-3 7 -1 -7.21 7.47
3 7 1 5.97 4.56
-3 7 -2 2.97 4.99
3 7 2 3.59 5.31
-3 7 -3 7.57 6.37
3 7 3 4.35 5.23
3 7 4 -4.1 4.92
-3 7 -4 -0.7 5.26
3 7 5 2.82 4.47
-3 7 -5 -16.53 7.23
3 7 6 3.77 6.21
3 8 -5 -3.32 5.39
-3 8 1 0.43 4.94
-3 8 0 -18.74 9.27
-3 8 -1 4.48 6.82
-3 8 -2 -10.59 6.96
3 8 2 -2.29 5.91
-3 8 -3 5.65 6.8
-4 -7 5 0.39 5.72
4 -7 -5 -1.66 6.71
-4 -7 4 -0.1 3.57
-4 -7 4 -0.82 4.88
4 -7 -4 -5.67 6.18
-4 -7 3 3.98 4.86
4 -7 -3 1.22 5.74
-4 -7 3 4.69 4.98
-4 -7 2 -4.63 5.65
4 -7 -2 4.3 5.31
-4 -7 2 4.21 5.25
4 -7 -1 16.44 8.54
-4 -7 1 12.65 6.21
-4 -7 0 11.14 7.61
4 -7 0 5.96 5.71
4 -7 1 4.33 5.79
4 -7 1 6.77 5.93
4 -7 2 1.21 4.63
-4 -7 -3 3.08 4.32
4 -7 3 -6.87 6.01
-4 -7 -4 2.88 5.95
4 -7 4 0.48 6.06
-4 -7 -5 -7.35 6.11
4 -7 5 3.95 6.79
-4 -7 -6 -4.85 6.56
4 -7 6 4.9 7.85
-4 -6 10 0.43 6.41
-4 -6 9 -0.01 5.59
4 -6 -8 8.92 6.79
-4 -6 8 -3.87 5.09
4 -6 -7 24.03 10.47
-4 -6 7 3.3 5.09
4 -6 -6 6.91 7.07
-4 -6 6 4.09 4.67
-4 -6 5 -5.61 7.48
-4 -6 5 -1.26 4.22
4 -6 -5 6.42 5.79
-4 -6 4 9.22 6.68
4 -6 -4 4.57 4.05
-4 -6 4 19.88 6.41
4 -6 -3 4.8 6.11
-4 -6 3 4.39 4.91
-4 -6 3 2.28 4.33
-4 -6 2 26.89 8.79
4 -6 -2 32.7 8.98
-4 -6 2 26.48 7.49
-4 -6 1 9.09 5.72
-4 -6 1 1.58 4.71
4 -6 -1 2.34 4.35
4 -6 -1 3.94 3.32
-4 -6 0 -1.12 4.63
4 -6 0 0.56 3.69
4 -6 0 -2.52 3.91
4 -6 1 1.71 4.02
-4 -6 -1 6.68 3.69
4 -6 1 5.98 3.89
4 -6 1 6.6 5.58
-4 -6 -2 0.56 4.24
4 -6 2 -1.32 2.69
4 -6 2 10.26 5.99
4 -6 2 -0.47 5.32
-4 -6 -3 6.53 4.75
4 -6 3 0.84 2.86
4 -6 3 -2.7 5.65
-4 -6 -4 10.94 7
4 -6 4 4.46 3.96
-4 -6 -4 10.28 5.16
4 -6 4 9.46 6.61
-4 -6 -5 2.97 5.67
-4 -6 -5 4.63 3.8
4 -6 5 -1.45 7.05
-4 -6 -6 2.3 5.74
4 -6 6 15.85 9.1
-4 -6 -7 -1.12 5.76
4 -6 7 -4.36 6.22
-4 -6 -8 2.19 5.57
-4 -5 11 0.01 6.74
4 -5 -10 -23.52 11.67
-4 -5 10 2.61 4.99
4 -5 -9 10.32 8.49
-4 -5 9 6.59 6.12
4 -5 -8 5.68 5.85
-4 -5 8 4.88 4.81
4 -5 -7 5.13 4.97
-4 -5 7 0.95 4.42
4 -5 -6 0.98 5.17
-4 -5 6 6.32 4.87
-4 -5 5 5.7 5.2
4 -5 -5 16.97 7.31
4 -5 -4 4.42 5.42
-4 -5 4 7.92 4.3
-4 -5 3 94.91 13.48
4 -5 -3 99.54 13.56
4 -5 -3 116.59 9.68
-4 -5 3 96.24 12.37
-4 -5 2 17.01 3.25
-4 -5 2 13.51 5.72
4 -5 -2 15.55 5.35
4 -5 -2 24.1 5.8
-4 -5 2 16.62 5.31
-4 -5 1 115.74 9.45
-4 -5 1 125.44 14.84
4 -5 -1 108.55 13.25
4 -5 -1 132.4 12.69
-4 -5 1 122.3 13.55
4 -5 0 5.27 4.63
-4 -5 0 -0.39 3.04
4 -5 0 -0.37 3.59
-4 -5 0 -1.22 2.22
-4 -5 -1 69.38 9.11
4 -5 1 91.71 9.73
-4 -5 -1 69.47 11.38
4 -5 1 84.17 11.63
4 -5 1 80.57 11.68
-4 -5 -2 6.34 4.3
4 -5 2 10.55 4.3
4 -5 2 14.38 6.13
4 -5 2 14.27 6.56
-4 -5 -3 12.76 5.43
4 -5 3 17.68 5.09
-4 -5 -3 20.04 5.78
4 -5 3 13.25 6.49
-4 -5 -4 6.33 4.63
-4 -5 -4 12.15 4.57
4 -5 4 1.39 4.85
-4 -5 -5 -1.67 2.76
-4 -5 -5 -4.17 5.98
4 -5 5 -4.12 5.82
-4 -5 -6 29.5 8.88
-4 -5 -6 18.2 5.7
4 -5 6 22.54 8.62
-4 -5 -7 -2.65 4.25
4 -5 7 11.99 8.21
-4 -5 -8 6.74 6.01
4 -5 8 14.98 9.69
-4 -5 -9 4.54 6.78
4 -5 9 -4.49 6.35
-4 -4 12 10.95 9.39
4 -4 -11 -14.9 12.5
-4 -4 11 2.26 6.45
4 -4 -10 7.2 6.48
-4 -4 10 2.79 5.71
4 -4 -9 14.94 8.77
-4 -4 9 6.78 5.44
4 -4 -8 12.05 8.11
-4 -4 8 5.32 5.71
4 -4 -7 23.62 8.01
-4 -4 7 25.18 8.41
4 -4 -6 34.83 9.12
-4 -4 6 28.33 7.29
4 -4 -5 17.22 5.96
-4 -4 5 15.61 5.4
4 -4 -4 46.37 5.27
4 -4 -4 48.61 9.37
-4 -4 4 46.13 8.87
-4 -4 3 145.7 6.46
4 -4 -3 145.78 10.26
4 -4 -3 138.38 15.11
-4 -4 3 144.27 14.06
-4 -4 2 227.81 10.41
-4 -4 2 223.88 18.53
4 -4 -2 203.83 17.19
4 -4 -2 206.77 13.6
-4 -4 2 201.31 16.21
-4 -4 1 145.15 9.93
-4 -4 1 149.88 13.95
-4 -4 1 139.77 14.25
4 -4 -1 136.08 13.17
4 -4 -1 150.72 12.52
-4 -4 0 213.57 13.74
4 -4 0 220.56 12.29
4 -4 0 220.08 12.59
4 -4 0 220.61 16.84
4 -4 0 216.72 16.04
-4 -4 0 222.87 17.99
-4 -4 0 220.13 16.79
-4 -4 -1 12.79 4.32
-4 -4 -1 14.28 4.95
-4 -4 -1 16.56 5.51
4 -4 1 14.36 3.48
4 -4 1 15.2 5.02
4 -4 1 11.13 2.6
4 -4 1 11.38 4.95
-4 -4 -2 119.72 12.17
4 -4 2 118.29 10.41
4 -4 2 121.92 6.1
4 -4 2 116.29 11.78
4 -4 2 121.63 13.33
-4 -4 -3 83.1 10.68
4 -4 3 125.43 13
-4 -4 -3 100.51 9.79
4 -4 3 106.55 13.27
-4 -4 -4 5.9 3.97
-4 -4 -4 5.44 3.29
4 -4 4 -0.49 5.29
-4 -4 -5 -0.61 4.01
-4 -4 -5 7.86 3.4
4 -4 5 6.58 6.03
-4 -4 -6 44.26 9.47
-4 -4 -6 36.68 6.5
4 -4 6 29.94 7.66
-4 -4 -7 31.72 9.04
4 -4 7 28.4 9.02
-4 -4 -7 20.26 5.33
-4 -4 -8 12.84 7.07
4 -4 8 4 6.14
-4 -4 -9 15.23 7.12
4 -4 9 5.19 6.74
-4 -4 -10 14.45 8.19
4 -4 10 6.65 6.34
4 -4 11 6.13 7.29
-4 -3 12 3.48 7.13
4 -3 -12 0.52 7.07
-4 -3 11 1.6 6.3
4 -3 -11 -15.1 11.39
-4 -3 10 -1.46 5.88
4 -3 -10 -11.88 8.98
-4 -3 9 19.82 8.24
4 -3 -9 16.32 8.68
4 -3 -8 103.92 17.37
-4 -3 8 76.27 13.28
4 -3 -7 41.75 11.03
-4 -3 7 47.38 10.15
4 -3 -6 82.72 12.77
-4 -3 6 85.77 12.15
4 -3 -5 227.21 18.81
4 -3 -5 204.69 10.45
-4 -3 5 210.42 17.81
-4 -3 4 12.85 1.68
4 -3 -4 11.08 4.66
4 -3 -4 9.57 2.46
-4 -3 4 10.63 4.39
-4 -3 3 173.02 8.2
-4 -3 3 151.32 13.79
4 -3 -3 157.85 10.6
4 -3 -3 148.52 13.82
-4 -3 2 508.79 25.31
4 -3 -2 522.14 24.33
4 -3 -2 537.34 20.63
-4 -3 2 508.4 23.97
-4 -3 2 540.46 17.37
-4 -3 1 83.44 7.8
-4 -3 1 68.49 9.13
4 -3 -1 82.73 9.51
4 -3 -1 75.58 8.33
-4 -3 1 69.15 9.22
-4 -3 0 63.58 6.48
4 -3 0 61.94 7.96
4 -3 0 53.75 5.9
4 -3 0 56.05 4.85
-4 -3 0 60.72 8.71
-4 -3 0 56.3 6.95
4 -3 0 49.53 7.03
-4 -3 0 64.52 8.97
-4 -3 -1 290.88 16.68
4 -3 1 270.7 11.59
-4 -3 -1 285 18.24
4 -3 1 275.63 12.05
4 -3 1 269.05 15.87
4 -3 1 304.33 18.35
-4 -3 -1 297.72 17.68
-4 -3 -2 118.26 11.45
4 -3 2 97.64 6.22
4 -3 2 103.22 10.02
4 -3 2 123.71 12.39
-4 -3 -3 35.28 6.78
4 -3 3 27.49 2.96
4 -3 3 31.18 6.42
-4 -3 -3 28.86 4.57
4 -3 3 27.01 2.74
4 -3 3 41.14 8.53
-4 -3 -4 96.74 11.25
4 -3 4 88.02 4.77
-4 -3 -4 95.97 8.21
-4 -3 -5 160.65 14.92
4 -3 5 168.34 6.32
-4 -3 -5 154.92 10.94
4 -3 5 196.72 17.2
-4 -3 -6 22.6 4.6
-4 -3 -6 18.85 6.16
4 -3 6 25.27 7.9
-4 -3 -7 159.7 15.68
-4 -3 -7 136.12 11.66
4 -3 7 149.15 16.55
-4 -3 -8 23.46 6.61
4 -3 8 28.26 8.63
-4 -3 -9 17.89 6.26
4 -3 9 6.59 5.66
4 -3 10 22.66 9.12
-4 -3 -10 18.4 7.4
-4 -3 -11 13.39 7.54
4 -3 11 7.11 6.27
4 -3 12 2.73 6.6
-4 -2 13 16.4 12.1
4 -2 -13 34.61 14.98
-4 -2 12 31.15 12.15
4 -2 -12 41.92 15.99
-4 -2 11 26.94 10.9
4 -2 -11 31.22 13.91
4 -2 -10 24.16 7.49
-4 -2 10 55.52 13.44
4 -2 -10 41.77 12.79
-4 -2 9 53.41 10.9
4 -2 -9 29.75 9.91
-4 -2 8 50.2 10.91
4 -2 -8 42.41 5.57
4 -2 -8 35.58 10.17
4 -2 -7 246.11 12.29
4 -2 -7 231.27 22.46
4 -2 -7 258.97 11.22
-4 -2 7 265.12 21.61
-4 -2 6 56.69 9.91
-4 -2 6 59.62 4.63
4 -2 -6 60.29 5.61
4 -2 -6 61.19 10.97
-4 -2 5 64.64 4.56
4 -2 -5 64.59 5.8
4 -2 -5 77.38 10.77
-4 -2 5 59.78 8.93
4 -2 -4 140.23 8.22
4 -2 -4 145.82 13.16
-4 -2 4 124.94 12.28
-4 -2 3 609.9 25.63
4 -2 -3 630.36 24.61
4 -2 -3 614.3 17.68
4 -2 -2 927.25 28.1
-4 -2 2 940.73 31.02
4 -2 -2 997.95 23.37
-4 -2 1 315.61 13
-4 -2 1 304.86 16.56
4 -2 -1 317.32 13.87
4 -2 -1 312.86 15.74
-4 -2 1 306.19 17
-4 -2 1 318.63 15.55
-4 -2 0 1958.67 35.21
4 -2 0 1920.06 32.28
-4 -2 0 1964.87 41.39
4 -2 0 1897.83 37.13
4 -2 0 1972.04 38.62
-4 -2 0 1926.42 42.69
-4 -2 0 1960.12 35.71
-4 -2 -1 6.75 2.59
4 -2 1 8.38 2.04
-4 -2 -1 9.24 2.57
4 -2 1 7.77 2.95
4 -2 1 8.54 3.29
-4 -2 -1 6.32 3.11
4 -2 1 5.75 1.23
-4 -2 -2 312.21 16.06
4 -2 2 278.83 13.82
-4 -2 -2 292.53 10.62
4 -2 2 279.08 9.9
4 -2 2 323.69 17.2
-4 -2 -3 573.93 22.89
-4 -2 -3 491.71 12.99
4 -2 3 472.56 14.59
4 -2 3 556.28 24.39
-4 -2 -3 499.03 10.57
-4 -2 -4 54.21 8.03
-4 -2 -4 49.49 4.54
4 -2 4 60.36 9.22
-4 -2 -5 15.29 5.41
-4 -2 -5 10.31 2.42
4 -2 5 15.78 6.08
-4 -2 -6 194.07 15.87
4 -2 6 192.38 10.49
-4 -2 -6 165.9 10.36
4 -2 6 191.63 16.64
-4 -2 -7 159.32 15.15
4 -2 7 168.68 10.77
-4 -2 -7 153.53 11.24
4 -2 7 168.09 16.05
-4 -2 -8 29.91 7.79
4 -2 8 27.24 7.36
4 -2 8 42.67 6.03
-4 -2 -8 33.08 6.07
-4 -2 -9 59.99 10.33
4 -2 9 72.21 11.83
-4 -2 -10 12.99 5.45
4 -2 10 13.69 7.04
4 -2 11 9.67 5.54
-4 -2 -11 9.22 5.83
-4 -2 -12 16 7.55
4 -2 12 6.33 6.24
4 -2 13 0.01 5.6
4 -1 -14 -16.19 8.69
4 -1 -13 -34.18 11.33
-4 -1 13 -23.57 10.15
4 -1 -12 -2.06 9.61
-4 -1 12 4.43 6.24
4 -1 -11 33.5 8.83
-4 -1 11 40.04 10.19
4 -1 -10 3.24 7.71
-4 -1 10 7.34 6.01
4 -1 -9 72.64 11.98
-4 -1 9 58.46 10.75
4 -1 -8 140.94 11.59
-4 -1 8 154.1 17.75
4 -1 -8 118.46 15
-4 -1 8 155.69 8.71
4 -1 -7 139.57 10.84
4 -1 -7 144.12 14.82
-4 -1 7 143.23 7.34
-4 -1 7 149.02 16.15
-4 -1 6 296.61 21.04
-4 -1 6 302.26 13.2
4 -1 -6 306.44 19.95
4 -1 -6 315.05 15.19
-4 -1 6 299.84 9.11
-4 -1 5 595.77 17.78
4 -1 -5 585.89 25.47
4 -1 -5 585.25 19.54
-4 -1 5 586.14 26.98
-4 -1 5 538.03 10.88
-4 -1 4 347.81 8.7
4 -1 -4 372.29 14.87
-4 -1 4 375.78 19.72
4 -1 -3 1586.28 29.99
-4 -1 3 1571.85 21.47
-4 -1 3 1583.7 38.49
4 -1 -2 1464.76 28.22
4 -1 -2 1472.92 31.01
-4 -1 2 1474.64 24.82
4 -1 -2 1477.71 31.09
-4 -1 2 1473.89 35.42
4 -1 -1 1000.59 23.62
-4 -1 1 1012.5 25.39
4 -1 -1 991.07 23.38
-4 -1 1 1106.7 24.73
4 -1 -1 970.6 21.12
4 -1 -1 994.84 24.64
-4 -1 1 1015.78 29.1
-4 -1 1 1022.09 23.59
4 -1 -1 1009.33 26.08
-4 -1 0 504.53 17.52
4 -1 0 495.8 15.47
-4 -1 0 502.39 20.23
-4 -1 0 511.38 15.45
4 -1 0 503.4 15.11
4 -1 0 525.4 17.76
-4 -1 -1 620.26 19.45
4 -1 1 587.39 15.84
-4 -1 -1 593.58 15.71
4 -1 1 584.65 17.04
-4 -1 -1 613.88 21.98
-4 -1 -2 1415.54 31
4 -1 2 1377.5 23.5
4 -1 2 1451.55 32.86
4 -1 2 1324.84 27.07
-4 -1 -2 1355.49 23.01
-4 -1 -3 22.01 4.54
4 -1 3 19.53 3.69
4 -1 3 20.13 4.84
-4 -1 -4 213.15 14
-4 -1 -4 186.53 5.9
4 -1 4 216.27 14.45
-4 -1 -5 178.82 13.47
-4 -1 -5 165.39 7.56
4 -1 5 182.04 13.98
-4 -1 -6 3.38 3.5
4 -1 6 1.79 2.76
-4 -1 -6 2.13 1.49
-4 -1 -6 3.44 2.13
4 -1 6 8.9 5.32
-4 -1 -7 57.41 5.49
4 -1 7 49.63 8.41
-4 -1 -7 58.4 8.78
-4 -1 -7 52.46 6.38
4 -1 7 50.37 6.73
-4 -1 -8 28.97 7.18
-4 -1 -8 22.01 3.99
4 -1 8 24.1 6.87
4 -1 8 31.22 5.8
-4 -1 -8 21.68 5.06
4 -1 9 23.79 7.01
4 -1 9 22.75 5.82
-4 -1 -9 14.03 4.52
-4 -1 -9 16.92 5.55
-4 -1 -10 -7.57 5.62
4 -1 10 2.78 3.01
4 -1 10 2.77 4.35
-4 -1 -11 9.39 5.02
4 -1 11 10.82 4.93
4 -1 11 13.15 6.61
-4 -1 -12 1.17 5.26
4 -1 12 9.98 7.08
-4 -1 -13 12.46 7.44
4 -1 13 0.01 4.7
4 0 -14 -9.18 6.65
-4 0 14 -8.3 7.65
4 0 -13 0.78 5.36
-4 0 13 2.44 6.11
4 0 -12 9.68 7.12
-4 0 12 2.21 5.64
4 0 -11 18.09 8.47
-4 0 11 -1.58 5.74
4 0 -10 84.01 13.75
-4 0 10 76.67 13.59
4 0 -9 22.82 7.95
-4 0 9 15.5 6.09
4 0 -8 165.95 16.37
-4 0 8 171.92 17.24
-4 0 7 576.7 28.97
4 0 -7 543.7 27.67
-4 0 7 570.53 21.07
-4 0 6 89.5 10.66
4 0 -6 86.11 11.1
-4 0 6 83.19 7.56
-4 0 5 42.61 7.84
-4 0 5 36.78 6.52
4 0 -5 44.15 6.35
4 0 -5 41.3 7.45
-4 0 5 39.08 4.97
4 0 -4 801.13 24.57
-4 0 4 827.69 28.16
4 0 -4 818.43 26.89
-4 0 4 792.19 19.77
4 0 -3 401.37 16.8
-4 0 3 397.55 13.62
4 0 -3 400.48 13.58
-4 0 3 370.57 17.47
4 0 -3 381.9 17.44
4 0 -2 83.86 7.82
4 0 -2 82.33 7.46
4 0 -2 76.77 7.2
-4 0 2 90.13 7.62
-4 0 2 79.16 6.28
4 0 -2 76.38 5.98
-4 0 2 77.06 7.54
-4 0 1 508.13 15.65
4 0 -1 519.1 18.33
4 0 -1 514.15 16.16
4 0 -1 518.48 18.1
-4 0 1 541.72 18.59
-4 0 1 511.27 17.24
-4 0 1 506.08 18.64
4 0 0 578.43 19.34
-4 0 0 569.89 17.87
4 0 0 597.89 19.46
4 0 0 574.01 18.13
-4 0 0 565.6 18.99
4 0 0 596.01 12.99
-4 0 0 598.55 17.64
-4 0 0 565.33 19.15
-4 0 -1 9.84 3.15
-4 0 -1 5.16 2.4
4 0 1 4.12 1.49
4 0 1 5.75 1.13
4 0 1 2.51 2.24
4 0 1 1.92 1.08
4 0 1 6.28 1.99
-4 0 -2 565.48 18.72
4 0 2 507.73 19.62
4 0 2 546.09 19.17
-4 0 -3 190.95 12.08
-4 0 -3 197.69 12.03
4 0 3 188.25 11.93
4 0 4 90.24 8.63
-4 0 -4 100 9.2
-4 0 -4 85.59 8.63
-4 0 -5 16.8 5.02
4 0 5 15.77 4.75
-4 0 -6 48.64 7.22
4 0 6 47.27 7.47
-4 0 -7 287.85 14.86
-4 0 -7 297.65 18.67
4 0 7 304.16 18.17
4 0 7 317.44 19.54
-4 0 -8 86.76 8.77
-4 0 -8 89.45 10.61
4 0 8 83.56 10.51
4 0 8 105.28 12.1
-4 0 -9 37.21 8.01
-4 0 -9 34.66 6.07
4 0 9 32.91 7.53
4 0 9 38.45 7.96
-4 0 -10 57.65 9.87
-4 0 -10 62.43 8
4 0 10 62.52 10.34
4 0 10 64.89 10.71
-4 0 -11 7.64 5.07
4 0 11 6.21 4.81
4 0 11 1.45 4.09
4 0 12 2.75 5.2
4 0 12 7.09 5.72
-4 0 -12 3.24 5.03
-4 0 -13 4.58 4.89
4 0 13 7.42 6.2
-4 0 -14 7.98 5.76
4 1 -14 8.46 7.33
4 1 -13 11.87 7.4
-4 1 13 -0.07 7.95
4 1 -12 45.9 11.71
-4 1 12 32.19 11.37
4 1 -11 82.87 14.05
-4 1 11 52.24 12.91
4 1 -10 35.81 9.99
-4 1 10 19.94 7.58
-4 1 9 81.48 13.46
4 1 -9 112.83 15.12
-4 1 8 151.41 16.77
4 1 -8 158.64 16.35
-4 1 7 151.58 15.5
4 1 -7 152.47 14.68
4 1 -6 379.02 21.43
-4 1 6 350.84 21.92
-4 1 6 366.72 19.19
-4 1 5 609.07 26.77
-4 1 5 631.78 23.8
4 1 -5 634.97 25.88
-4 1 4 346.13 18.77
-4 1 4 363.92 16.95
4 1 -4 366.89 18.16
-4 1 3 1748.14 39.29
-4 1 3 1775.4 31.15
4 1 -3 1768.95 39.05
-4 1 3 1749.27 35.57
4 1 -3 1726.29 21.5
4 1 -3 1753.09 36.39
-4 1 3 1781.71 35.97
-4 1 2 1353.78 27.43
4 1 -2 1370.67 33.01
-4 1 2 1332.95 29.97
4 1 -2 1312.82 21.35
-4 1 2 1293.61 27.48
4 1 -2 1361.64 29.52
-4 1 1 811.42 20.75
-4 1 1 802.58 21.65
4 1 -1 845.12 24.97
4 1 -1 818.88 21.32
-4 1 1 847.49 23.53
4 1 -1 794.23 17.68
-4 1 0 530.42 18.18
4 1 0 523.9 16.18
4 1 0 545.23 19.88
-4 1 0 542.83 15.94
-4 1 0 556.14 19.4
4 1 0 506.09 15.98
-4 1 0 533.59 16.03
4 1 1 419.42 17.36
4 1 1 422.72 17.09
4 1 1 445.95 9.72
-4 1 -1 400.18 13.16
4 1 1 402.31 15.82
-4 1 -1 437.73 17.28
-4 1 -1 421.15 13.84
4 1 2 1471.46 31.74
-4 1 -2 1468.3 32.1
4 1 2 1354.4 31.7
-4 1 -2 1341.55 24.97
-4 1 -3 11.49 2.43
4 1 3 11.48 3.15
-4 1 -3 17.99 5.06
-4 1 -4 135.25 8.52
-4 1 -4 160.96 11.46
4 1 4 158.59 10.97
-4 1 -5 179.92 12.86
4 1 5 185.77 12.09
-4 1 -5 205.41 13.66
-4 1 -6 5.84 3.46
-4 1 -6 2.39 1.59
4 1 6 3.67 2.66
-4 1 -7 39.54 7
4 1 7 37.3 6.52
4 1 7 40.22 8.05
-4 1 -8 32.58 7.31
4 1 8 24.54 6.85
4 1 8 26.86 6.57
-4 1 -8 20.58 4.96
-4 1 -9 33.02 7.56
4 1 9 28.24 8.09
-4 1 -9 21.99 5.65
4 1 9 34.62 7.2
-4 1 -10 4.35 4.01
4 1 10 8.07 5.25
-4 1 -10 1.92 3.47
4 1 10 2.2 3.49
-4 1 -11 10.84 5.68
-4 1 -11 16.33 5.86
4 1 11 14.76 7
4 1 11 7.64 4.4
-4 1 -12 0.62 3.88
4 1 12 10.29 7.1
-4 1 -13 -8.04 5.36
4 1 13 12.92 7.3
4 2 -13 14.68 8.43
-4 2 13 1.12 6.84
4 2 -12 -2.04 5.55
-4 2 12 19 10.49
4 2 -11 9.86 5.96
-4 2 11 18.88 9.92
4 2 -10 82.49 12.57
-4 2 10 100.01 16.36
4 2 -9 72.57 11.59
-4 2 9 71.68 12.89
4 2 -8 48.19 9.46
-4 2 8 39.96 9.94
-4 2 7 306.04 23.18
4 2 -7 309.74 20.65
-4 2 6 82.02 10.54
4 2 -6 61.13 9.18
-4 2 6 79.44 11.58
-4 2 5 84.44 10.82
4 2 -5 87.69 10.2
-4 2 5 90.43 10.68
-4 2 4 223.53 15.73
-4 2 4 200.58 15.03
4 2 -4 205.95 14.25
-4 2 3 720.27 26.1
-4 2 3 689.86 18.27
-4 2 3 726.85 27.12
4 2 -3 737.58 24.74
4 2 -3 705.16 11.4
-4 2 2 1053.11 29.26
-4 2 2 1061.76 23.8
-4 2 2 1041.9 19.1
4 2 -2 1052.8 31.86
4 2 -2 1041.72 17.63
-4 2 2 1062.3 31.92
-4 2 2 1075.02 23.31
4 2 -2 1090.25 27.71
4 2 -1 348.39 17.6
4 2 -1 355.14 12.16
-4 2 1 355.5 17.91
4 2 -1 366.03 14.64
-4 2 1 357.32 11.49
-4 2 1 353.62 14.49
-4 2 0 2003.13 41.9
4 2 0 1985.61 40.8
4 2 0 2077.18 35.2
4 2 0 1922.72 32.91
-4 2 0 2019.75 23.94
4 2 0 2031.19 30.71
-4 2 -1 18.06 4.9
4 2 1 13.92 2.42
4 2 1 17.48 2.99
-4 2 -1 19.7 4.08
4 2 1 13.43 3.92
4 2 2 308.3 15.65
-4 2 -2 322.13 16.13
4 2 2 299.86 10.83
-4 2 -2 315.77 16.55
4 2 3 598.98 21.25
-4 2 -3 546.67 21.72
4 2 3 551.5 13.23
4 2 4 27.95 5.11
-4 2 -4 27.01 6.01
4 2 5 12.94 3.65
-4 2 -5 18.86 5.56
-4 2 -6 170.07 12.96
4 2 6 147.2 11.04
-4 2 -6 161.51 12.88
-4 2 -7 179.97 13.76
4 2 7 187.56 17.24
-4 2 -7 178.02 13.88
4 2 7 170.34 12.68
-4 2 -8 34.39 6.83
4 2 8 33.94 6.49
4 2 8 41.85 9.78
-4 2 -8 50.88 8.29
-4 2 -9 80.02 10.27
4 2 9 68.03 11.64
4 2 9 62.65 8.82
-4 2 -9 55.4 9.33
-4 2 -10 20.8 5.75
4 2 10 26.06 8.74
-4 2 -10 19.22 6
4 2 11 10.19 6.34
-4 2 -11 9.48 5.38
-4 2 -11 10.75 5.29
-4 2 -12 10.59 6.79
4 2 12 9.56 7.57
-4 2 -13 8.38 5.44
4 2 13 -4.92 6.64
4 3 -12 8.03 6.83
-4 3 12 12.55 7.66
4 3 -11 -0.01 5.91
-4 3 11 11.47 9.36
4 3 -10 0.98 4.74
-4 3 10 1.34 6.63
4 3 -9 23.68 7.91
-4 3 9 46.79 11.68
4 3 -8 95.41 13.15
-4 3 8 113.73 15.56
4 3 -7 46.17 9.82
-4 3 7 57.89 11.31
4 3 -6 121.21 13.2
-4 3 6 100.31 13.41
-4 3 6 111.19 13.89
-4 3 5 248.89 19.08
-4 3 5 248.12 19.95
4 3 -5 228.25 17.03
-4 3 4 17.87 6.16
-4 3 4 25.37 6.48
4 3 -4 19.41 5.46
-4 3 4 24.36 3.18
-4 3 3 177.22 13.86
-4 3 3 159.81 8.52
-4 3 3 158.84 10.81
4 3 -3 160.52 6.54
-4 3 3 179.32 15.49
4 3 -3 168.76 12.89
-4 3 2 505.54 16.83
-4 3 2 533.91 18.22
-4 3 2 529.9 21.49
-4 3 2 514.12 25.39
4 3 -2 527.15 20.96
-4 3 1 131.04 10.09
4 3 -1 136.62 12.34
4 3 -1 149.79 10.11
-4 3 1 134.94 12.86
-4 3 1 124.77 5.5
-4 3 0 62.09 8.63
4 3 0 66.23 8.39
4 3 0 66.75 6.21
4 3 1 285.14 16.21
-4 3 -1 301.69 18.16
4 3 1 296.93 10.89
-4 3 -2 130.28 12.09
4 3 2 130.55 10.78
4 3 2 137.37 10.13
4 3 2 133.18 5.91
4 3 3 30.73 5.56
4 3 3 25.85 4.16
-4 3 -3 21.55 4.37
4 3 4 101.06 9.38
-4 3 -4 87.73 9.91
4 3 4 90.28 7.43
-4 3 -5 213.37 15.3
4 3 5 201.74 13.08
4 3 6 39.32 6.11
4 3 6 46.26 10.08
-4 3 -6 50.39 8.52
-4 3 -7 168.53 13.42
4 3 7 177.15 18.28
4 3 7 167.55 11.85
-4 3 -7 183.55 14.47
-4 3 -8 49 7.64
4 3 8 60.84 11.61
-4 3 -8 53.79 8.61
-4 3 -9 14.31 4.92
4 3 9 25.45 8.58
-4 3 -9 25.05 7.04
-4 3 -9 21.31 7.37
-4 3 -10 17.27 6.52
4 3 10 25.45 9.65
4 3 11 6.39 7.04
-4 3 -11 4.8 4.79
4 3 12 7 7.77
-4 3 -12 8.26 7.1
4 4 -11 22.58 9.42
-4 4 11 32.34 11.33
4 4 -10 10.74 6.95
-4 4 10 18.56 8.94
4 4 -9 18.94 7.28
-4 4 9 28.43 11.82
4 4 -8 5.76 5.12
-4 4 8 6.67 6.77
-4 4 7 27.06 9.64
4 4 -7 46.62 9.62
-4 4 7 36.11 9.6
-4 4 6 36.61 9.87
-4 4 6 39.83 9.54
4 4 -6 46.61 9.36
-4 4 5 28.12 7.92
-4 4 5 24.96 7.8
4 4 -5 24.26 7.25
4 4 -4 79.27 5.5
-4 4 4 83.75 11.4
-4 4 4 75.01 11.87
4 4 -4 90.33 11.34
-4 4 3 162.11 9.03
-4 4 3 157.85 14.22
4 4 -3 180.33 14.68
-4 4 3 166.13 16.89
-4 4 2 253.68 12.89
-4 4 2 292.42 17.32
-4 4 2 273.51 20.85
4 4 -2 280.31 16.67
-4 4 1 192.63 12.67
4 4 -1 196.72 16.48
-4 4 1 189.3 16.94
4 4 -1 213.69 13.47
4 4 0 272.98 18.33
-4 4 0 258.54 18.97
4 4 0 292.29 14.14
-4 4 -1 19.55 6.67
4 4 1 23.72 3.83
4 4 1 20.99 5.58
-4 4 -2 153.91 14.45
4 4 2 143.12 12.39
4 4 2 143.58 6.96
4 4 3 134.69 11.94
-4 4 -3 128.55 13.36
4 4 4 10.19 3.81
-4 4 -4 -2.77 4.83
-4 4 -5 2.56 3.68
4 4 5 10.91 5.21
4 4 5 12.23 4
4 4 6 76.83 13.11
4 4 6 71.96 8.14
-4 4 -6 71.31 9.81
-4 4 -7 17.58 4.53
4 4 7 23.7 8.32
-4 4 -7 28.28 7.2
-4 4 -8 13.78 5.56
4 4 8 17.6 8.77
-4 4 -9 4.92 5.95
-4 4 -9 17.26 6.23
4 4 9 4.52 6.43
-4 4 -10 -3.15 5.44
4 4 10 -5.94 7.48
-4 4 -10 5.17 4.86
-4 4 -11 -0.33 5.49
-4 5 10 -7.47 9.06
4 5 -10 7.64 7.18
-4 5 10 14.12 11.31
-4 5 9 16.89 10.94
4 5 -9 -3.07 5.76
-4 5 9 11.5 7.42
-4 5 8 5.93 7.27
4 5 -8 20.61 7.43
-4 5 8 17.47 8.42
-4 5 7 3.36 6.42
-4 5 7 3.55 6.53
4 5 -7 12.5 6.84
-4 5 6 -1.98 6.09
-4 5 6 3.37 5.34
4 5 -6 8.59 6.01
-4 5 5 6.68 5.61
-4 5 5 22.86 8.54
4 5 -5 13.25 6.87
-4 5 4 24.6 8.88
-4 5 4 15.56 6.64
4 5 -4 16.1 6.5
-4 5 3 103.78 14.78
-4 5 3 114.81 12.75
4 5 -3 115.66 10.03
4 5 -3 107.68 12.37
-4 5 2 40.14 9.97
-4 5 2 44.06 7.44
4 5 -2 41.38 7.43
-4 5 1 173.55 12.71
4 5 -1 203.95 18.4
4 5 -1 178.82 13.57
-4 5 1 156.4 16.89
-4 5 0 -4.85 5.53
-4 5 0 -4.22 2.6
4 5 0 1.85 2.45
4 5 0 -1.52 3.73
4 5 1 121.12 9.21
4 5 1 114.49 12.93
-4 5 -1 107.63 13.54
-4 5 -2 15.88 6.47
4 5 2 25.1 6.34
-4 5 -3 23.92 7.52
4 5 3 15.92 5
4 5 4 14.56 5.03
4 5 4 16.75 7.47
-4 5 -4 12.18 4.58
4 5 5 -2.44 2.89
4 5 5 1.76 4.07
4 5 6 24.94 8.43
-4 5 -6 26.07 6.98
4 5 7 1.62 5.5
-4 5 -7 1.98 4.5
4 5 8 -4.14 6.2
-4 5 -8 19.54 6.76
4 5 9 -4.4 7.18
-4 5 -9 0.75 6.63
-4 5 -9 6.03 4.57
-4 6 9 13.07 9.67
-4 6 8 0.37 8.04
-4 6 8 3.44 7.34
4 6 -8 4.68 6.77
-4 6 7 -0.01 6.99
-4 6 7 11.49 8.16
4 6 -7 3.7 5.35
-4 6 6 -3.89 8.08
-4 6 6 11.84 7.58
4 6 -6 -1.98 4.75
-4 6 5 1.67 5.09
4 6 -5 -1.59 4.33
-4 6 4 13.58 7.03
-4 6 4 31.37 8.13
4 6 -4 10.44 5.35
-4 6 3 -1.5 5.26
-4 6 3 -0.74 3.33
4 6 -3 -1.94 4.24
-4 6 2 30.93 10.23
-4 6 2 16.79 5
4 6 -2 30.04 7.03
-4 6 1 9.17 5.83
4 6 -1 4.43 3.93
4 6 -1 4.71 5.15
-4 6 0 -1.91 6.12
4 6 0 6.81 5.93
-4 6 -1 5.19 3.98
4 6 1 4.95 3.98
-4 6 -2 1.6 4.42
4 6 2 1.15 3.55
-4 6 -3 10.71 6.87
4 6 3 -11.62 7.34
-4 6 -4 18.63 7.69
4 6 4 13.2 7.37
4 6 5 2.82 7.2
-4 6 -5 -8.95 6.77
-4 6 -6 -0.86 4.54
4 6 6 5.52 5.96
4 6 7 -0.22 6.33
-4 6 -7 2.22 5.16
4 6 8 2.2 5.77
-4 7 8 13.77 8.24
-4 7 7 7.64 7.16
4 7 -7 6.92 8.38
-4 7 6 11.44 7.26
4 7 -6 -9.28 6.54
-4 7 5 2.93 7.55
4 7 -5 15.48 7.85
-4 7 4 1.26 6.35
4 7 -4 0.29 4.87
-4 7 3 -2.93 7.22
4 7 -3 -0.93 3.89
-4 7 2 2.43 6.98
4 7 -2 -9.62 6.53
-4 7 1 3.5 4.66
4 7 -1 7.97 5.04
4 7 0 1.85 4.29
4 7 0 -1.76 3.35
-4 7 -1 9.87 5.65
4 7 1 2.48 3.8
-4 7 -2 4.41 5.99
4 7 2 5.17 4.97
-4 7 -3 5.61 6.44
4 7 3 1.73 4.44
4 7 4 8.29 6.82
-4 7 -4 6.05 6.67
4 7 5 5.37 6.11
-4 7 -5 -12.66 6.73
4 7 6 -0.01 6.36
4 8 -3 4.33 6.87
-4 8 -1 0.75 5.43
-4 8 -2 -0.5 4.81
-4 8 -3 16.4 8.42
4 8 4 -4.33 5.11
-4 8 -4 0.01 6.35
-5 -7 6 -4.61 5.16
-5 -7 5 -6.88 5.56
-5 -7 4 7.48 7.05
5 -7 -4 1.81 5.82
-5 -7 4 2.65 5.29
-5 -7 3 11.96 6.84
5 -7 -3 13.25 7.94
-5 -7 3 11.57 6.33
-5 -7 2 1.75 4.19
5 -7 -2 9.37 6.49
-5 -7 2 3.28 5.21
-5 -7 1 7.96 6.49
5 -7 -1 9.66 6.6
-5 -7 1 10.44 5.94
5 -7 0 11.42 7.19
5 -7 1 15.16 7.66
5 -7 1 -8.89 5.73
5 -7 2 3.9 5.33
5 -7 2 -0.31 4.48
5 -7 3 -13.33 7.7
-5 -7 -4 0.44 5.4
5 -7 4 -7.56 6.71
-5 -7 -5 3.36 7.72
5 -7 5 3.5 8.19
-5 -7 -6 -8.44 7.26
-5 -6 9 -8.94 7.03
-5 -6 8 3.37 6.23
5 -6 -7 9.73 6.67
-5 -6 7 5.17 6.01
-5 -6 6 -0.56 5.49
5 -6 -6 -0.27 6.17
-5 -6 6 2.09 4.66
-5 -6 5 4.94 5.79
5 -6 -5 6.55 6.25
-5 -6 5 -3.1 5.14
-5 -6 4 -4.57 5.94
5 -6 -4 0.83 5.11
-5 -6 4 -7.17 5.84
-5 -6 3 18.1 7.57
5 -6 -3 13.32 6.76
-5 -6 3 24.24 7.19
-5 -6 2 10.73 6.22
5 -6 -2 2.13 5.14
-5 -6 2 3.03 4.71
-5 -6 1 14.98 6.81
5 -6 -1 4.94 4.71
5 -6 -1 6.25 3.53
-5 -6 1 6.41 4.72
5 -6 0 40.42 8.99
-5 -6 0 34 9.53
5 -6 0 29.01 8
-5 -6 0 35.67 8.79
-5 -6 -1 3.2 3.07
5 -6 1 -0.73 3.79
5 -6 1 0.83 5.17
-5 -6 -2 8.45 4.83
5 -6 2 19.38 6.68
5 -6 2 13.33 6.93
-5 -6 -3 20.66 6.9
5 -6 3 6.31 5.23
-5 -6 -4 -0.96 4.93
5 -6 4 -4.12 7.52
-5 -6 -5 -12.62 7.45
5 -6 5 12.11 7.75
-5 -6 -6 -5.11 6.42
5 -6 6 9.41 6.88
-5 -6 -7 -3.51 6.19
5 -6 7 -3.92 7.74
5 -5 -10 -17.46 10.33
-5 -5 10 1.95 6.32
5 -5 -9 5.55 7.73
-5 -5 9 -2.38 6.88
5 -5 -8 -9.02 8.77
-5 -5 8 -6.98 6.07
5 -5 -7 3.3 5.87
-5 -5 7 5.04 5.35
5 -5 -6 14.93 7.35
-5 -5 6 2.09 4.53
5 -5 -5 12.6 7.01
-5 -5 5 12.9 6.36
-5 -5 4 33.97 9.67
5 -5 -4 43.94 9.72
-5 -5 4 32.21 7.95
-5 -5 3 40.31 9.19
5 -5 -3 40.3 9
5 -5 -3 39.7 6.68
-5 -5 3 35.37 8.61
-5 -5 2 7.38 4.83
5 -5 -2 3.72 3.68
-5 -5 2 -1.94 4.79
5 -5 -2 0.78 3.31
-5 -5 1 90.09 8.85
-5 -5 1 95.9 13.45
5 -5 -1 90.43 12.54
5 -5 -1 78.79 10.75
-5 -5 1 107.88 13.93
-5 -5 0 6.13 3.42
-5 -5 0 5.86 4.56
5 -5 0 9.52 4.97
5 -5 0 4.32 4.02
-5 -5 0 12.6 6.1
-5 -5 -1 31.83 7.16
5 -5 1 39.72 6.03
5 -5 1 38.11 8
5 -5 1 33.09 7.87
-5 -5 -2 42.52 9
5 -5 2 57.18 10.56
5 -5 2 48.59 7.2
5 -5 2 58.17 9.89
-5 -5 -3 -1.79 4.2
5 -5 3 -0.66 2.43
5 -5 3 8.07 5.83
5 -5 3 1.56 4.13
-5 -5 -4 45.98 9.62
5 -5 4 55.1 11.69
-5 -5 -5 11.35 7.28
5 -5 5 0.61 5.02
-5 -5 -6 10.08 7.64
5 -5 6 9.89 6.07
-5 -5 -7 6.01 6.19
5 -5 7 5.79 6
-5 -5 -8 9.64 7.62
5 -5 8 15.9 8.47
-5 -5 -9 3.12 5.23
5 -5 9 5 6.74
5 -4 -11 0.76 8.5
-5 -4 11 4.74 5.94
5 -4 -10 -4.88 6.57
-5 -4 10 1.54 6.75
5 -4 -9 21.34 11.62
-5 -4 9 -2.5 5.94
5 -4 -8 34.15 10.19
-5 -4 8 17.65 7.64
5 -4 -7 32.47 9.09
-5 -4 7 48.12 10.63
5 -4 -6 30.76 8.24
-5 -4 6 25.74 7.91
5 -4 -5 53.43 10.88
-5 -4 5 44.82 9.96
5 -4 -4 92.94 12.98
5 -4 -4 75.8 8.37
-5 -4 4 77.4 11.8
-5 -4 3 63.47 5.34
-5 -4 3 51.23 9.74
5 -4 -3 43.51 8.75
5 -4 -3 58.61 8.05
-5 -4 3 54.28 9.71
-5 -4 2 20.49 4.31
-5 -4 2 21.6 6.37
5 -4 -2 17.62 5.65
5 -4 -2 14.37 4.07
-5 -4 2 14.63 5.23
-5 -4 1 27.66 5.69
5 -4 -1 25.3 5.91
-5 -4 1 22.82 6.8
5 -4 -1 17.58 5.22
-5 -4 1 34.05 7.74
5 -4 0 26.87 6.71
-5 -4 0 24.23 5.84
-5 -4 0 26.63 7.24
5 -4 0 18.53 5.25
-5 -4 0 22.5 6.34
-5 -4 -1 34.17 7.11
5 -4 1 44.07 8.88
5 -4 1 37.95 5.12
-5 -4 -1 33.64 8.14
5 -4 1 33.04 6.86
-5 -4 -1 35.51 7.44
-5 -4 -2 111.84 12.78
5 -4 2 106.13 9.25
5 -4 2 92.02 10.91
5 -4 2 127.82 14.73
-5 -4 -3 5.39 3.9
5 -4 3 15.74 5.73
5 -4 3 23.95 7.56
-5 -4 -4 15.49 5.8
-5 -4 -4 12.11 4.16
5 -4 4 8.21 5.52
-5 -4 -5 0.6 4.16
-5 -4 -5 2.19 2.45
5 -4 5 1 4.88
-5 -4 -6 36.99 8.33
5 -4 6 52.35 10.96
-5 -4 -7 -6.72 6.86
5 -4 7 -5.03 6.48
5 -4 8 19.73 9.71
-5 -4 -8 20.86 8.12
-5 -4 -9 12.65 7.38
5 -4 9 4.75 6.9
-5 -4 -10 6.34 6.53
5 -4 10 6.43 7.62
-5 -3 12 -3.59 8.96
5 -3 -12 -4.18 10.05
-5 -3 11 -2.43 7.19
5 -3 -11 -13.33 10.7
5 -3 -10 4.14 7.02
-5 -3 10 7.84 6.76
5 -3 -9 25.03 10.19
-5 -3 9 47.94 11.75
5 -3 -8 79.86 15.56
-5 -3 8 85.37 14.69
5 -3 -7 13.79 8.08
-5 -3 7 1.59 4.03
5 -3 -6 63.93 11.82
5 -3 -6 42.63 4.63
-5 -3 6 59.22 11.29
-5 -3 5 232.2 10.52
5 -3 -5 249.31 20.19
-5 -3 5 216.02 19.03
-5 -3 4 32.42 4.4
5 -3 -4 34.56 7.63
5 -3 -4 32.54 5.48
-5 -3 4 26.98 7.13
-5 -3 3 26.85 4.47
5 -3 -3 22.41 6.27
5 -3 -3 27.42 5.31
-5 -3 3 20.49 5.9
-5 -3 2 179.27 12.47
-5 -3 2 153.31 14.43
-5 -3 2 166.14 15.02
5 -3 -2 163.92 14.12
5 -3 -2 167.75 12.73
-5 -3 1 364.23 18.51
-5 -3 1 335.99 20.26
5 -3 -1 345.38 19.8
5 -3 -1 366.32 19.34
-5 -3 1 361.04 21.57
5 -3 0 29.15 6.41
-5 -3 0 30.83 6.07
-5 -3 0 28.33 6.67
5 -3 0 19.7 4.59
-5 -3 0 34.3 5.78
-5 -3 0 34.41 7.4
-5 -3 -1 591.43 19.47
-5 -3 -1 584.18 24.92
-5 -3 -1 546.76 26.19
5 -3 1 487.95 17.53
-5 -3 -1 548.82 26.13
5 -3 1 509.07 13.73
5 -3 1 508.5 22.29
5 -3 1 575.68 26.82
-5 -3 -2 410.52 12.17
-5 -3 -2 418.37 21.78
5 -3 2 357.9 14.01
5 -3 2 396.08 19.82
5 -3 2 428.9 23.93
5 -3 3 33.52 4.1
-5 -3 -3 42.83 7.89
5 -3 3 36.13 6.46
5 -3 3 50.57 9.3
5 -3 3 33.23 3.37
-5 -3 -4 154.2 14.98
-5 -3 -4 133.54 8.61
5 -3 4 155.9 15.7
5 -3 5 66.3 11.2
-5 -3 -5 67.98 10.41
-5 -3 -5 45.76 5.35
-5 -3 -6 3.69 4.18
-5 -3 -6 1.84 1.88
5 -3 6 8.56 6.11
-5 -3 -7 4.76 4.84
5 -3 7 8.65 6.31
-5 -3 -8 47.7 9.55
5 -3 8 31.4 8.82
-5 -3 -9 3.31 4.96
5 -3 9 3.46 5.64
-5 -3 -10 2.49 3.86
5 -3 10 2.18 5.71
-5 -3 -11 31.62 10.12
5 -3 11 19.61 9.54
-5 -2 12 6.8 9.33
5 -2 -12 49.86 18.7
-5 -2 11 6.61 6.04
5 -2 -11 29.32 14.21
-5 -2 10 25.54 10.12
5 -2 -10 5.35 5.94
-5 -2 9 13.94 7.67
5 -2 -9 2.45 8.75
-5 -2 8 9.71 6.17
5 -2 -8 3.45 7.08
5 -2 -8 17.08 4.58
5 -2 -7 130.77 17.79
5 -2 -7 142.02 10.96
-5 -2 7 114.83 15.08
-5 -2 6 204.65 9.67
5 -2 -6 203.98 12.32
5 -2 -6 220.66 19.88
-5 -2 6 198.36 18.4
5 -2 -5 10.8 3.09
5 -2 -5 1.92 3.51
-5 -2 5 7.83 4.89
5 -2 -4 364.9 15.47
-5 -2 4 338.8 21.31
5 -2 -4 372.16 21.37
5 -2 -3 463.12 22.16
-5 -2 3 448.61 23.96
5 -2 -3 451.95 17.34
5 -2 -2 64.15 8.05
5 -2 -2 59.06 6.47
-5 -2 2 59.11 8.67
-5 -2 1 164.48 10.55
-5 -2 1 151.36 12.12
5 -2 -1 167.93 12.2
-5 -2 1 151.4 13.15
5 -2 -1 166.5 11.18
-5 -2 0 355.92 16.17
-5 -2 0 357.94 18.67
5 -2 0 355.7 16.67
5 -2 0 362.62 17.88
-5 -2 0 350.41 19.81
5 -2 0 345.37 11.41
-5 -2 0 351 16.44
-5 -2 -1 422.39 18.76
5 -2 1 407.21 16.34
5 -2 1 391.02 16.82
5 -2 1 381.13 12.33
-5 -2 -1 416.91 21.71
5 -2 1 400.49 19.66
-5 -2 -1 407.44 16.58
-5 -2 -2 21.96 5.01
-5 -2 -2 16.26 3.28
5 -2 2 20.21 4.31
5 -2 2 18.06 4.87
-5 -2 -2 17.92 5.33
5 -2 2 19.88 3.25
-5 -2 -3 442.09 20.82
5 -2 3 363.2 14.6
5 -2 3 439.83 22.18
-5 -2 -3 364.8 13.01
-5 -2 -4 184.8 14.66
5 -2 4 146.86 10.32
-5 -2 -4 138.01 7.01
5 -2 4 179.96 15.26
-5 -2 -5 14.53 4.88
-5 -2 -5 6.3 1.38
-5 -2 -5 10.28 1.81
-5 -2 -5 9.03 1.24
5 -2 5 7.75 4.58
-5 -2 -6 101.93 12.05
-5 -2 -6 75.41 5.55
5 -2 6 108.22 12.88
-5 -2 -7 52.44 9.25
5 -2 7 60.38 6.86
5 -2 7 62.24 10.56
-5 -2 -8 4.48 4.6
5 -2 8 9.51 3.35
5 -2 8 4.03 5.6
-5 -2 -9 6.81 5.01
5 -2 9 9.66 5.76
-5 -2 -10 11.37 5.71
5 -2 10 16.49 7.43
-5 -2 -11 -8.59 6.92
5 -2 11 -6.53 6.75
-5 -2 -12 10.25 6.78
5 -2 12 10.87 8.17
5 -1 -14 -23.73 10.69
-5 -1 13 27.77 13.81
5 -1 -13 -48.05 13.71
-5 -1 12 12.71 9.85
5 -1 -12 -16.33 12.04
-5 -1 11 22.52 10.86
5 -1 -11 -19.97 11.54
-5 -1 10 54.53 12.79
5 -1 -10 26.71 8.74
5 -1 -10 56.97 8.87
-5 -1 9 71.08 14.22
5 -1 -9 54.67 10.68
5 -1 -9 76.63 9.67
5 -1 -8 515.57 23.71
5 -1 -8 502.69 31.49
-5 -1 8 541.57 33.02
-5 -1 7 38.54 8.95
5 -1 -7 33.53 8.22
-5 -1 7 40.1 3.8
5 -1 -7 43.79 6.82
5 -1 -6 226.71 14.14
-5 -1 6 223.41 8.46
-5 -1 6 226.96 19.08
5 -1 -6 253.91 19.41
5 -1 -5 512.98 20.24
-5 -1 5 487.04 12.24
-5 -1 5 530.59 26.68
5 -1 -4 324.38 15.78
-5 -1 4 301.64 10.76
-5 -1 4 319.33 19.64
-5 -1 3 88.46 10.1
5 -1 -3 78.23 7.69
5 -1 -3 95.2 9.5
-5 -1 3 82.87 6.16
-5 -1 2 504.49 22.82
5 -1 -2 520.18 19.04
5 -1 -2 508.37 19.34
-5 -1 2 536.76 17.25
5 -1 -1 1523.45 33.23
-5 -1 1 1519.21 32.69
5 -1 -1 1520.03 30.98
-5 -1 1 1632.25 32.94
-5 -1 1 1487.57 38.06
5 -1 -1 1528.94 30.67
-5 -1 0 73.28 8.43
-5 -1 0 78.62 7.48
5 -1 0 84.05 6.87
-5 -1 0 91.23 8.6
-5 -1 0 83.17 7.1
5 -1 0 75.61 6.74
5 -1 0 87.7 8.41
5 -1 1 1608.86 19.48
5 -1 1 1621 27.98
-5 -1 -1 1646.95 30.34
-5 -1 -1 1742.66 40.98
5 -1 1 1638.81 32.71
5 -1 1 1775.8 37.39
-5 -1 -2 860.11 26.32
5 -1 2 837.36 19.47
-5 -1 -2 783.16 20.97
-5 -1 -2 826.19 27.91
5 -1 2 870.93 27.43
5 -1 2 796.45 23.62
-5 -1 -3 7.42 3.41
5 -1 3 7.59 2.58
5 -1 3 7.62 4.23
-5 -1 -4 362.71 18.95
5 -1 4 329.77 18.77
-5 -1 -5 354.4 19.66
5 -1 5 349.26 20.08
-5 -1 -6 3.01 4.04
-5 -1 -6 4.46 1.32
5 -1 6 3.44 4.08
-5 -1 -7 3.11 4.11
-5 -1 -7 1.02 1.25
-5 -1 -7 1.53 1.93
5 -1 7 0.44 4.12
5 -1 7 3.79 3.27
-5 -1 -8 34.58 8.15
-5 -1 -8 28.36 4.25
5 -1 8 28.17 5.79
5 -1 8 44.54 9.56
-5 -1 -9 17.3 6.49
5 -1 9 7.31 4.54
5 -1 9 14.42 4.86
-5 -1 -10 2.2 4.46
5 -1 10 1.98 3.75
5 -1 10 -4.06 5.47
-5 -1 -11 5.73 5.55
5 -1 11 13.54 7.22
-5 -1 -12 -5.05 5.69
5 -1 12 5.75 6.16
5 -1 13 10.79 9.04
5 0 -14 0.29 6.06
-5 0 14 -27.06 11.48
5 0 -13 -1.45 4.89
-5 0 13 -4.28 9.36
5 0 -12 2.78 5.04
-5 0 12 -15.11 10.62
5 0 -11 5.48 6.17
-5 0 11 -7.83 8.96
5 0 -10 62.67 12.39
-5 0 10 57.21 12.19
-5 0 9 15.63 4.57
5 0 -9 12.08 6.42
-5 0 9 0.01 5.32
-5 0 8 -3.32 4.31
-5 0 8 2.26 2.18
5 0 -8 -5.45 5.26
-5 0 8 5.99 4.92
-5 0 7 52.76 10.09
-5 0 7 50.35 6.55
5 0 -7 55.68 8.72
5 0 -7 42.94 9.05
-5 0 7 45.96 9.32
5 0 -6 377.66 20.25
5 0 -6 371.8 22.33
-5 0 6 375 16.03
-5 0 6 398.01 24.53
-5 0 5 22.18 6.5
-5 0 5 17.53 3.49
5 0 -5 18.8 5.37
5 0 -5 24.59 5.18
5 0 -4 563.91 22.64
5 0 -4 549 24.17
-5 0 4 556.42 24.75
-5 0 4 559.49 18.25
-5 0 3 1493.37 29.85
5 0 -3 1495.07 37.53
5 0 -3 1523.97 35.74
5 0 -3 1531.61 29.81
-5 0 3 1417.98 37.17
5 0 -2 1012.88 28.69
-5 0 2 1021.95 24.72
5 0 -2 1011.75 24.98
-5 0 2 967.87 29.31
5 0 -1 2786.31 42.88
5 0 -1 2798.36 47.55
-5 0 1 2754.6 33.13
-5 0 1 2723.25 40.47
-5 0 1 2880.11 49.43
5 0 0 621.04 22.31
5 0 0 598.37 14.79
-5 0 0 639.45 20.51
-5 0 0 597.58 22.16
5 0 1 1568.69 35.42
-5 0 -1 1542.47 35.21
5 0 1 1480.95 26.95
5 0 1 1458.24 19.05
-5 0 -1 1577.62 32.99
-5 0 -2 332.49 15.92
5 0 2 320.15 16.39
-5 0 -3 593.89 22.28
5 0 3 543 21.78
-5 0 -4 545.01 22.82
5 0 4 513.82 21.89
-5 0 -4 563.71 22.59
-5 0 -5 16.21 5.02
5 0 5 17.4 5.04
-5 0 -5 14 2.02
-5 0 -6 437.29 22.44
5 0 6 415.38 21.69
-5 0 -7 114.2 12.49
5 0 7 115.8 11.89
5 0 7 112.18 12.26
-5 0 -8 9.91 5.31
5 0 8 2.59 3.29
-5 0 -8 4.21 2.44
5 0 8 6.83 4.7
-5 0 -9 40.21 8.26
-5 0 -9 44.55 7.04
5 0 9 38.4 7.69
5 0 9 43.87 8.99
-5 0 -10 32.77 8.28
5 0 10 22 7.22
5 0 10 29.62 7.75
-5 0 -11 4.25 4.66
5 0 11 0.06 4.87
5 0 11 13.12 6.13
-5 0 -12 11.29 6.75
5 0 12 2.6 4.62
5 0 12 14.05 6.39
-5 0 -13 -3.72 5.26
5 1 -13 9.26 5.91
-5 1 13 -3.84 9.88
5 1 -12 13.09 8.05
-5 1 12 -5.74 6.66
5 1 -11 41.35 10.59
-5 1 11 1.37 7.79
-5 1 10 70.65 10.86
5 1 -10 71.14 13.52
-5 1 10 48.87 11.01
5 1 -9 96.61 14.19
-5 1 9 83.06 13.5
-5 1 9 90.61 11.68
-5 1 8 536.76 32.07
-5 1 8 568.76 27.4
5 1 -8 514.43 29.4
-5 1 7 40.55 7.61
5 1 -7 39.25 8.83
-5 1 7 30.62 7.71
-5 1 6 226.9 18.71
-5 1 6 246.68 16.4
5 1 -6 251.16 18.33
-5 1 5 605.09 28.35
5 1 -5 633.7 27.24
-5 1 5 569.81 23.63
5 1 -5 594.76 26.19
-5 1 5 592.95 26.82
5 1 -4 340.35 18.77
5 1 -4 345.13 19.56
-5 1 4 339.93 17.27
-5 1 4 352.18 19.01
-5 1 3 41.17 5.94
5 1 -3 54.72 7.84
5 1 -3 42.22 6.54
5 1 -3 51.43 4.68
-5 1 3 51.67 6.82
5 1 -2 796.29 19.75
5 1 -2 755.07 26.87
-5 1 2 739.73 24.34
5 1 -2 754.71 24.46
-5 1 2 748.91 23.64
5 1 -1 1672.81 38.98
5 1 -1 1688.87 34.58
5 1 -1 1603.66 30.01
-5 1 1 1659.49 36.39
-5 1 1 1627.15 33.83
5 1 0 90.43 9.33
-5 1 0 89.64 8.61
-5 1 0 93.32 7.79
5 1 1 1831.4 40.05
5 1 1 1839.22 38.82
-5 1 -1 1750.64 29.29
-5 1 -1 1847.55 33.63
-5 1 -1 1771.64 37.55
5 1 2 931.46 28.12
-5 1 -2 940.05 27.87
-5 1 -3 5.89 1.85
5 1 3 3.34 3.04
-5 1 -3 6.74 4.48
-5 1 -4 322.02 13.12
-5 1 -4 371.61 18.45
5 1 4 350.34 18.05
-5 1 -5 389.58 20.33
5 1 5 348.95 18.17
-5 1 -5 415.14 20.08
5 1 5 398.86 19.77
-5 1 -6 4.22 3.21
-5 1 -6 5.49 2.07
-5 1 -6 10.43 5.38
5 1 6 7.44 3.37
-5 1 -7 1.93 3.86
5 1 7 13.53 5.03
-5 1 -8 41.27 8.24
5 1 8 32.03 8.44
5 1 8 32.59 6.74
-5 1 -9 17.9 6.48
5 1 9 15.67 6.38
5 1 9 23.89 6.93
-5 1 -9 8.38 3.97
-5 1 -10 2.42 3.85
5 1 10 -2.47 4.69
-5 1 -10 -5.88 4.22
5 1 10 -2.76 4.65
-5 1 -11 8.54 5.43
5 1 11 3.49 5.15
-5 1 -11 5.98 4.1
5 1 11 10.1 5.04
-5 1 -12 4.5 4.26
5 1 12 6.49 5.76
-5 1 -13 3.69 4.61
5 1 13 11.83 7.03
5 2 -13 24.1 10.24
5 2 -12 20.11 9.28
-5 2 12 -1.61 7.93
-5 2 11 3.99 4.26
5 2 -11 15.54 8.05
-5 2 11 11.25 7.89
-5 2 10 29.11 8.32
5 2 -10 44.22 10.8
-5 2 10 42.47 11.14
-5 2 9 45.31 10.27
5 2 -9 49.1 11.62
-5 2 9 51.79 13.05
-5 2 8 33.37 8.23
5 2 -8 45.38 9.84
-5 2 8 27.79 8.81
-5 2 7 212.45 19.54
5 2 -7 204.92 18.21
-5 2 7 212.24 18.25
-5 2 6 236.67 19.47
-5 2 6 231.42 18.17
5 2 -6 225.25 17.72
-5 2 5 4.46 3.68
5 2 -5 13.53 5.98
-5 2 5 6.09 4.13
-5 2 4 455.53 23.94
-5 2 4 430.59 16.51
5 2 -4 475.09 24.74
-5 2 4 437.87 23.05
5 2 -4 455.17 22.39
-5 2 4 440.26 20.48
-5 2 3 458.52 22.42
-5 2 3 462.67 17.38
5 2 -3 474.12 12.24
5 2 -3 477.54 24.01
-5 2 3 457.14 22.59
-5 2 3 442.33 18.42
5 2 -3 476.06 20.95
-5 2 2 53.74 7.62
5 2 -2 67.73 9.23
-5 2 2 54.66 3.42
5 2 -2 61.7 5.1
5 2 -2 64.68 7.54
-5 2 2 63.16 6.15
5 2 -1 190.81 14.07
-5 2 1 184.3 10
5 2 -1 184.78 9.84
-5 2 1 179.41 13.42
5 2 -1 183.31 11.33
5 2 0 364.61 18.94
5 2 0 370.38 14.93
-5 2 0 369.62 19.42
5 2 0 355.46 14.63
-5 2 0 351.97 12.63
5 2 1 483.64 21.51
-5 2 -1 434.72 21.13
5 2 1 450.96 15.04
5 2 2 48.84 7.25
5 2 2 47.63 4.14
-5 2 -2 42.85 6.89
5 2 3 378.46 18.76
-5 2 -3 382.45 19.63
5 2 3 359.24 8.99
-5 2 -4 218.89 15.35
5 2 4 194.57 13.56
5 2 5 15.25 4.55
-5 2 -5 31.57 7.13
-5 2 -6 93.49 10.62
5 2 6 107.06 10.22
-5 2 -6 94.24 10.93
5 2 6 107.22 10.88
-5 2 -7 72.11 10.03
-5 2 -7 51.64 8.21
5 2 7 61.61 10.62
5 2 7 53.25 7.54
-5 2 -8 9.72 4.48
5 2 8 16.7 6.72
5 2 8 12.91 5.21
-5 2 -8 17.36 6.18
-5 2 -9 6.58 4.58
5 2 9 13.02 5.37
5 2 9 12.91 6.5
-5 2 -9 -1.66 5.13
-5 2 -10 4.63 4.64
-5 2 -10 6.4 5.02
-5 2 -11 0.67 4.03
5 2 11 7.43 6.81
-5 2 -11 1.66 4.19
5 2 12 -0.33 6.4
-5 2 -12 3.44 5.56
-5 3 12 -11.28 8.32
5 3 -12 0.65 7.14
-5 3 12 -0.73 6.11
-5 3 11 -2.61 6.73
5 3 -11 -4.89 6.89
-5 3 11 7.78 8.27
-5 3 10 11.55 7.11
5 3 -10 5.63 5.66
-5 3 10 10.85 8.58
-5 3 9 41.72 10.27
5 3 -9 37.8 9.37
-5 3 9 55.92 12.81
-5 3 8 98.79 15.19
5 3 -8 87.66 13.43
-5 3 8 106.71 16.05
-5 3 7 4.52 4.7
5 3 -7 6.88 4.98
-5 3 7 10.64 5.14
-5 3 6 69.93 12.27
5 3 -6 48.44 9.18
-5 3 6 63.52 11.58
-5 3 5 247.78 19.65
-5 3 5 244.58 20.33
5 3 -5 253.12 18.82
-5 3 4 45.15 9.23
-5 3 4 27.01 4.45
5 3 -4 25.95 6.22
-5 3 4 39.1 7.49
-5 3 4 34.56 4.6
-5 3 3 48.18 8.72
-5 3 3 45.19 5.4
-5 3 3 46.67 5.31
5 3 -3 49.67 7.56
-5 3 3 45.07 7.57
5 3 -3 44.79 9.07
5 3 -3 45.54 4
-5 3 3 49.11 6.28
-5 3 2 183.07 13.81
5 3 -2 209.52 16.45
5 3 -2 186.25 13.24
5 3 -2 184.45 9.39
-5 3 2 187.45 16.26
-5 3 2 177.08 9.47
5 3 -1 420.17 22.7
5 3 -1 433.59 18.11
-5 3 1 410.25 22.97
-5 3 1 407.69 11.81
-5 3 0 44.96 7.97
5 3 0 38.52 6.91
5 3 0 44.46 5.4
5 3 1 533.25 23.86
5 3 1 571.2 21.9
-5 3 -1 554.97 25.99
5 3 1 529.16 16.33
5 3 2 463.07 22.27
5 3 2 474.12 18.43
-5 3 -2 486.57 24.52
5 3 3 43.47 7.36
5 3 3 39.19 4.78
-5 3 -3 47.15 7.87
5 3 4 147.95 12.4
5 3 4 146.34 8.58
-5 3 -4 150.69 13.21
5 3 5 53.58 7.77
-5 3 -5 61.01 9.2
5 3 6 7.44 4.2
-5 3 -6 11.45 5.68
-5 3 -7 6.38 4.16
-5 3 -7 1.75 3.42
5 3 7 4.45 2.89
5 3 7 12.73 6.82
-5 3 -8 46.45 8.12
5 3 8 63.52 11.91
-5 3 -8 60.26 10.09
-5 3 -9 12.33 5.17
5 3 9 1.7 5.58
-5 3 -9 19.99 6.73
-5 3 -10 14.03 5.42
5 3 10 18.26 9.7
-5 3 -10 13.51 6.4
5 3 11 10.7 8.13
-5 3 -11 18.24 8.05
-5 3 -12 -3.49 5.24
-5 4 12 5.08 7.69
-5 4 11 6.83 7.25
5 4 -11 -3.75 6.27
-5 4 11 8.48 8.47
-5 4 10 -7.49 8.33
5 4 -10 4.52 7.02
-5 4 10 2.53 7.51
-5 4 9 12.5 8.14
5 4 -9 23.59 8.82
-5 4 9 25.18 10.09
-5 4 8 48.38 12.36
5 4 -8 45.41 10.27
-5 4 8 49.87 11.74
-5 4 7 68.14 13.51
5 4 -7 80.73 12.79
-5 4 7 58.64 12.2
-5 4 6 49.59 11.34
5 4 -6 41.53 9.32
-5 4 6 47.78 10.54
-5 4 5 58.1 11.51
5 4 -5 61.61 9.67
-5 4 5 57.84 10.83
-5 4 4 102.84 14.57
-5 4 4 113.05 13.48
5 4 -4 118.08 12.54
-5 4 3 37.92 8.76
5 4 -3 56.59 10.19
-5 4 3 46.09 8.13
5 4 -3 54.83 8.38
-5 4 3 59 6.26
-5 4 2 4.97 5.33
-5 4 2 10.79 3.88
5 4 -2 12.65 4.56
5 4 -2 20.53 6.97
-5 4 2 9.84 1.98
-5 4 1 31.51 7.57
5 4 -1 28.77 5.29
5 4 -1 36.79 7.7
-5 4 0 53.35 9.63
5 4 0 51.19 8.65
5 4 0 55.94 6.67
-5 4 -1 28.13 7.28
5 4 1 45.58 8.44
5 4 1 40.42 4.93
5 4 2 144.62 13.32
-5 4 -2 160.03 15.7
5 4 2 147.02 7.45
5 4 3 10.39 4.84
-5 4 -3 6.7 4.84
5 4 4 14.14 4.97
-5 4 -4 12.37 5.02
-5 4 -5 6.29 3.92
5 4 5 4.17 3.16
5 4 6 50.42 11.21
5 4 6 43.95 7.15
-5 4 -6 51.75 9.31
-5 4 -7 3.13 3.98
5 4 7 4.37 3.59
5 4 7 5.31 6.88
-5 4 -7 11.04 6.18
-5 4 -8 17.52 5.5
5 4 8 8.69 8.28
-5 4 -8 24.35 6.83
5 4 9 14.25 8.56
-5 4 -9 8.66 5.33
-5 4 -10 6.1 5.41
5 4 10 0.44 5.66
-5 4 -10 -4.2 6.19
-5 4 -11 2.35 5.62
-5 5 10 18.25 10.77
5 5 -10 0.16 6.71
-5 5 10 24.85 11.83
-5 5 9 8.75 9.51
5 5 -9 -0.95 5.68
-5 5 9 -3.47 7.01
-5 5 8 6.11 7.6
5 5 -8 8.32 6.63
-5 5 8 4.3 6.51
-5 5 7 -2.55 6.59
5 5 -7 7.2 4.98
-5 5 7 8.83 6.71
-5 5 6 12.17 6.74
5 5 -6 15.92 7.13
-5 5 6 21.56 8.53
-5 5 5 27.3 9.78
-5 5 5 20.12 6.92
5 5 -5 20.27 7.05
-5 5 4 58.89 13
-5 5 4 49.7 9.56
5 5 -4 42.54 8.97
5 5 -3 69.63 12.42
-5 5 3 71.41 12.77
-5 5 3 56.94 9.39
5 5 -3 50.85 8.53
-5 5 2 8.02 5.45
-5 5 2 10.19 4.08
5 5 -2 11.18 5.31
5 5 -2 7.61 4.83
-5 5 1 90.78 13.42
5 5 -1 96.43 13.36
5 5 -1 106.48 10.74
-5 5 0 5.75 5.45
5 5 0 12.33 4.04
5 5 0 11.7 5.38
-5 5 -1 29.71 8.27
5 5 1 30.43 7.22
-5 5 -2 58.16 11.06
5 5 2 54.87 9.3
5 5 3 -0.79 3.21
-5 5 -3 -0.45 4.49
5 5 4 53.15 8.69
-5 5 -4 36.57 7.89
5 5 5 0.64 3.66
5 5 5 7.31 6.89
-5 5 -5 4.46 4.2
5 5 6 1.26 5.67
-5 5 -6 11.07 6.04
5 5 7 -9.03 8.11
-5 5 -7 7.47 5.38
5 5 8 3.85 5.19
-5 5 -8 5.8 5.83
5 5 9 0.08 7.96
-5 5 -9 -4.69 7.85
-5 5 -9 1.2 4.03
-5 6 9 3.6 7.41
-5 6 8 14.43 9.12
5 6 -8 3.51 5.6
-5 6 8 -5.3 6.44
-5 6 7 13.32 9.93
-5 6 7 11.13 7.65
5 6 -7 10.87 7.41
-5 6 6 0.03 6.6
-5 6 6 2.87 5.22
5 6 -6 1.29 5.64
-5 6 5 -0.42 6.84
-5 6 5 4.4 5.55
5 6 -5 7.22 5.86
-5 6 4 8.34 7.85
-5 6 4 -4.16 4.68
5 6 -4 4.95 4.95
-5 6 3 24.77 10.07
-5 6 3 27.37 7.13
5 6 -3 15.42 6.07
5 6 -3 23.38 9.14
-5 6 2 15.99 7.42
5 6 -2 1.42 4.47
5 6 -2 11.01 4.36
-5 6 1 -1.15 6.13
5 6 -1 2.17 5.1
-5 6 0 31.94 9.45
5 6 0 41.29 9.8
-5 6 -1 -2.18 4.75
5 6 1 6.71 5.48
-5 6 -2 23.61 8.46
5 6 2 25.61 7.12
-5 6 -3 24.2 8.4
5 6 3 27.79 7.02
5 6 4 10.99 6.13
-5 6 -4 -16.02 8.85
5 6 5 8.58 7.11
-5 6 -5 -3.32 6.42
5 6 6 6.74 6.04
-5 6 -6 -0.49 4.16
5 6 7 4.84 5.94
-5 6 -7 6.32 6.84
-5 6 -8 6.93 6.63
-5 7 7 13.12 8.1
5 7 -6 1.73 5.28
5 7 -5 6.14 6.21
-5 7 4 -5.43 5.61
5 7 -4 -0.4 6.12
5 7 -4 5.44 5.4
-5 7 3 9.12 6.72
5 7 -3 -15.36 8.62
-5 7 2 -10.6 9.51
5 7 -2 2.62 5.76
-5 7 1 0.44 4.68
5 7 -1 1.35 4.87
-5 7 0 -14.99 9.64
5 7 0 11.31 7.39
-5 7 -1 4.84 6.76
-5 7 -2 1.62 5.83
5 7 2 2.14 4.67
-5 7 -3 3.12 7.02
5 7 3 1.72 4.82
5 7 4 1.51 5.17
-5 7 -4 -33.84 9.96
5 7 5 -3.58 5.9
-5 7 -5 -13.12 7.09
-5 7 -6 0.01 4.55
-6 -7 6 -10.73 6.73
-6 -7 5 -3.75 5.17
-6 -7 4 5.93 6.22
6 -7 -3 -1.13 4.54
-6 -7 3 1.74 4.88
-6 -7 2 5.78 6.03
6 -7 -2 10.85 6.8
-6 -7 2 9.56 6.14
-6 -7 1 11.13 7.31
6 -7 -1 2.74 5.36
-6 -7 1 2.35 5.15
6 -7 0 10.34 6.05
6 -7 1 10.52 6.76
6 -7 2 10.65 7.15
6 -7 2 -3.45 5.44
6 -7 3 -4.01 5.96
6 -7 4 -7.08 7.59
-6 -7 -5 0.01 6.15
-6 -6 8 1.62 5.68
6 -6 -7 7.11 5.42
-6 -6 7 0.04 5.12
-6 -6 6 12.12 7.61
6 -6 -6 6.78 8.16
-6 -6 6 -4.72 6.41
-6 -6 5 -8.48 6.58
6 -6 -5 4.19 6.35
-6 -6 5 -0.15 4.71
-6 -6 4 13.48 7.33
6 -6 -4 3.2 4.65
-6 -6 4 2.34 5.29
-6 -6 3 2.51 5.26
6 -6 -3 2.96 4.46
-6 -6 3 -3.52 5.23
-6 -6 2 9.97 5.93
6 -6 -2 -0.27 4.96
-6 -6 2 5.05 4.79
-6 -6 1 10.33 7.32
6 -6 -1 -5.13 4.94
6 -6 -1 2.89 4.45
-6 -6 1 5.63 4.97
-6 -6 0 16.82 6.98
6 -6 0 13.36 6.36
-6 -6 0 23.61 8.07
6 -6 0 20.45 7.57
6 -6 1 4.43 4.59
6 -6 1 4.88 6.35
-6 -6 -2 15.89 6.94
6 -6 2 17.84 7.07
6 -6 2 12.73 7.06
-6 -6 -3 30.88 10.06
6 -6 3 23.88 9.82
-6 -6 -4 0.55 5.14
6 -6 4 -0.34 6.35
-6 -6 -5 8.14 7.35
6 -6 5 8.25 8.65
-6 -6 -6 8.89 8.06
6 -6 6 7.52 7.62
-6 -6 -7 7.09 7.29
-6 -5 10 -0.58 6.69
6 -5 -9 -2.3 6.78
-6 -5 9 4.56 6.25
6 -5 -8 17.31 10.17
-6 -5 8 8.08 6.88
6 -5 -7 2.46 6.27
-6 -5 7 7.93 6.83
6 -5 -6 -0.36 6.13
-6 -5 6 21.41 8.38
-6 -5 5 25.32 8.59
6 -5 -5 26.31 9.49
-6 -5 5 24.56 8.44
-6 -5 4 6 5.1
-6 -5 4 1.15 5.45
-6 -5 3 28 8.63
6 -5 -3 24.47 8.05
6 -5 -3 20.02 5.45
-6 -5 3 15.25 6.52
-6 -5 2 36.52 9.15
6 -5 -2 47.13 8.96
6 -5 -2 39.22 7.72
-6 -5 2 43.12 9.08
-6 -5 1 27.57 5.98
-6 -5 1 24.66 7.77
6 -5 -1 20.44 6.98
6 -5 -1 19.76 6.54
-6 -5 1 26.42 7.92
-6 -5 0 24.63 6.91
-6 -5 0 20.37 7.36
6 -5 0 21.63 6.69
6 -5 0 22.51 7.38
-6 -5 0 17.26 6.23
-6 -5 -1 17.03 6.66
6 -5 1 15.81 5.81
-6 -5 -1 27.55 8.3
6 -5 1 21.04 7.58
-6 -5 -2 -0.5 4.04
6 -5 2 4.21 4.05
6 -5 2 10.94 6.92
-6 -5 -3 21 7.09
6 -5 3 29.1 7.87
6 -5 3 14.59 7.04
-6 -5 -4 5.74 5.18
6 -5 4 1.68 4.76
-6 -5 -5 11.85 5.38
6 -5 5 5.76 5.19
-6 -5 -6 5.55 6.02
6 -5 6 7.84 5.65
-6 -5 -7 19.81 9.67
6 -5 7 -2.47 5.71
-6 -5 -8 4.12 7.39
6 -5 8 4.45 5.55
-6 -4 11 0.45 5.71
6 -4 -10 14.47 8.75
-6 -4 10 1.52 6.6
6 -4 -9 24.63 11.55
-6 -4 9 20.17 9.94
6 -4 -8 11.59 8.02
-6 -4 8 14.42 7.26
6 -4 -7 1.87 5.64
-6 -4 7 7.64 5.74
6 -4 -6 39.07 10.19
-6 -4 6 37.38 9.59
6 -4 -5 19.04 7.51
-6 -4 5 25.06 7.65
6 -4 -4 13.07 4.39
6 -4 -4 14.65 5.7
-6 -4 4 8.36 5.14
-6 -4 3 29.71 7.28
6 -4 -3 51.77 9.92
6 -4 -3 43.69 7.48
-6 -4 3 32.52 7.8
-6 -4 2 -1.22 3.2
6 -4 -2 -2.15 3.62
-6 -4 2 -0.17 3.93
6 -4 -2 -0.47 3.82
-6 -4 2 6.86 3.94
6 -4 -1 18.24 5.57
-6 -4 1 21.48 6.08
-6 -4 1 22.08 6.81
6 -4 -1 19.53 6.05
-6 -4 1 21.62 6.74
-6 -4 0 47 8.85
-6 -4 0 48.69 9.3
6 -4 0 49.2 8.26
6 -4 0 48.61 9.01
-6 -4 0 56.12 10.39
6 -4 1 41.3 9.6
-6 -4 -1 41.42 8.72
6 -4 1 31.64 7.02
-6 -4 -1 43.94 9.24
-6 -4 -2 39.25 8.61
6 -4 2 35.87 7.26
6 -4 2 53.32 10.76
-6 -4 -3 57.96 10.91
6 -4 3 63.98 9.82
6 -4 3 64.64 11.7
-6 -4 -4 88.65 12.65
6 -4 4 79.95 13.06
-6 -4 -5 3.74 4.78
6 -4 5 10.32 6.46
6 -4 6 29.06 10.35
-6 -4 -6 13.72 6.52
-6 -4 -7 15.18 6.58
6 -4 7 23.06 8.33
-6 -4 -8 -0.11 5.4
6 -4 8 -1.62 5.77
-6 -4 -9 7.66 6.89
6 -4 9 20.79 9.22
6 -3 -11 -7.12 13.09
-6 -3 11 11.67 7.98
6 -3 -10 13.91 11.63
-6 -3 10 2.34 5.71
6 -3 -9 18.46 10.41
-6 -3 9 37.52 11.34
6 -3 -8 37.12 11.47
-6 -3 8 44.45 11.11
6 -3 -7 24.62 9.28
-6 -3 7 22.97 7.92
6 -3 -6 148.31 17.64
-6 -3 6 122.64 16.32
-6 -3 5 113.76 9.86
6 -3 -5 117.97 14.37
-6 -3 5 123.48 15.21
6 -3 -5 96.81 9.03
-6 -3 4 67.51 7.85
6 -3 -4 66.15 10.52
-6 -3 4 55.36 10.39
-6 -3 3 233.19 15.12
-6 -3 3 218.15 17.95
6 -3 -3 209.78 17.44
6 -3 -3 200.05 14.59
-6 -3 3 210.1 18.26
-6 -3 2 348.94 18.81
-6 -3 2 319.86 21.03
6 -3 -2 333.59 20.94
6 -3 -2 323.57 18.97
-6 -3 2 321.42 21.62
-6 -3 1 87.16 9.94
-6 -3 1 76.26 10.42
6 -3 -1 66.52 9.21
-6 -3 1 68.96 10.36
6 -3 -1 84.86 10.23
-6 -3 0 29.5 6.32
-6 -3 0 32.29 7.15
6 -3 0 26.19 5.62
6 -3 0 28.64 6.56
-6 -3 0 25.4 6.68
-6 -3 -1 104.91 11.27
6 -3 1 96.06 10.03
6 -3 1 107.11 12.29
-6 -3 -1 86.54 11.85
-6 -3 -1 103.59 10.21
-6 -3 -2 118.43 12.98
6 -3 2 115.22 10.92
-6 -3 -2 122.83 13.93
6 -3 2 135.84 14.32
-6 -3 -3 66.16 10.31
6 -3 3 54.11 7.95
6 -3 3 56.3 10.4
-6 -3 -4 104.47 12.99
6 -3 4 108.35 14.05
-6 -3 -5 97.19 12.87
6 -3 5 100.2 13.69
-6 -3 -6 12.02 6.9
6 -3 6 15.22 7.02
-6 -3 -7 27.22 8.23
6 -3 7 23.32 7.9
-6 -3 -8 27.92 8.08
6 -3 8 31 9.85
-6 -3 -9 16.85 6.98
6 -3 9 0.56 5.83
-6 -3 -10 -2.43 6.49
6 -3 10 -9.48 7.56
-6 -2 12 21.41 10.49
6 -2 -12 57.46 19.5
-6 -2 11 4.58 6.88
6 -2 -11 18.68 12.26
-6 -2 10 19.77 8.94
6 -2 -10 5.58 6.93
-6 -2 9 44.96 10.98
6 -2 -9 31.31 10.83
6 -2 -8 -2.18 7.04
-6 -2 8 -6.8 7.16
6 -2 -7 247.05 15.91
6 -2 -7 242.69 24.38
-6 -2 7 272.54 23.71
6 -2 -6 80.65 8.85
6 -2 -6 77.77 12.73
-6 -2 6 79.71 12.47
6 -2 -5 31.33 5.52
6 -2 -5 26.02 6.52
-6 -2 5 35.33 8.64
6 -2 -4 473.66 20.1
6 -2 -4 499.81 25.24
-6 -2 4 456.23 26.48
6 -2 -3 209.53 15.64
-6 -2 3 215.47 17.75
6 -2 -3 209.84 13.49
-6 -2 2 1.06 2.57
6 -2 -2 13.36 4.68
6 -2 -2 5.85 3.59
-6 -2 2 3.86 3.38
-6 -2 1 303.63 17.76
6 -2 -1 300.19 16.88
-6 -2 1 277.12 19.14
6 -2 -1 317.02 16.8
-6 -2 0 428.22 19.57
-6 -2 0 418.58 20.58
6 -2 0 426.84 19.22
-6 -2 0 423.55 23.56
6 -2 0 453.48 20.98
6 -2 0 422.23 15.11
-6 -2 -1 66.34 8.44
6 -2 1 62.13 7.04
6 -2 1 67.78 9.03
6 -2 1 57.98 5.86
-6 -2 -1 65.73 7.4
-6 -2 -1 64.92 9.31
-6 -2 -2 141.61 12.3
6 -2 2 136.5 10.22
6 -2 2 139.62 12.97
-6 -2 -2 139.9 13.71
6 -2 2 134.07 9.42
-6 -2 -2 126.82 9.67
-6 -2 -3 386.31 20.65
6 -2 3 407.81 18.12
6 -2 3 371 22
6 -2 3 308.72 14.92
-6 -2 -3 316.75 14.19
-6 -2 -4 116.24 12.25
-6 -2 -4 88.01 6.9
-6 -2 -5 30.37 7.31
6 -2 5 27.76 7.53
-6 -2 -6 83.88 11.64
6 -2 6 80.41 12.02
6 -2 7 18.68 7.81
-6 -2 -7 9.91 6.04
6 -2 7 11.86 3.81
-6 -2 -8 1.74 4.7
6 -2 8 5.16 4.74
6 -2 9 2.4 4.77
-6 -2 -9 1.67 4.36
-6 -2 -10 13.08 6.78
6 -2 10 16.81 7.81
-6 -2 -11 2.14 4.92
6 -2 11 -0.37 5.88
6 -2 12 6.48 6.75
6 -1 -13 -39.03 13.18
-6 -1 12 -0.76 7.05
6 -1 -12 -9.48 8.54
-6 -1 11 13.69 8.75
6 -1 -11 -7.74 9.69
-6 -1 10 13.82 7.29
6 -1 -10 -18.3 10.14
-6 -1 9 26.05 9.37
6 -1 -9 2.69 6.75
6 -1 -9 18.57 5.15
-6 -1 8 45.66 11.06
6 -1 -8 32.74 8.72
6 -1 -8 46.13 8.08
-6 -1 7 101.92 14.18
6 -1 -7 76.15 11.96
6 -1 -7 82.37 9.67
6 -1 -6 157.93 12.81
-6 -1 6 125.24 7.16
-6 -1 6 133.93 15.54
6 -1 -5 706.19 26.14
-6 -1 5 645.9 17.5
-6 -1 5 693.11 32.79
6 -1 -4 214.53 14.32
6 -1 -4 230.92 16.9
-6 -1 4 191.75 10.21
-6 -1 4 226.56 17.48
6 -1 -3 68.31 8.2
6 -1 -3 70.23 8.86
-6 -1 3 77 7.08
-6 -1 3 61.73 9.02
6 -1 -2 1279.02 33.49
-6 -1 2 1364.97 33.76
6 -1 -2 1341.43 33.08
-6 -1 2 1366.03 30.47
-6 -1 2 1312.9 40.07
6 -1 -1 727.58 25.55
-6 -1 1 719.18 23.44
6 -1 -1 752.6 23.07
-6 -1 1 816.58 25.54
-6 -1 1 723.14 28.82
-6 -1 0 94.93 8.58
6 -1 0 96.07 7.95
-6 -1 0 116.94 10.43
-6 -1 0 96.36 10.81
6 -1 0 95.77 8.65
6 -1 0 104.17 10.05
6 -1 1 587.07 12.52
6 -1 1 594.5 18.01
-6 -1 -1 657.31 26.93
6 -1 1 626.86 22.73
6 -1 1 681.64 25.25
-6 -1 -2 606.06 24.23
6 -1 2 586.07 17.21
-6 -1 -2 556.41 19.85
-6 -1 -2 582.77 25.26
6 -1 2 595.37 24.66
-6 -1 -3 43.99 7.25
-6 -1 -3 41.82 5.63
6 -1 3 39.72 7.18
-6 -1 -4 358.98 20.25
6 -1 4 357.74 20.67
-6 -1 -5 83.32 10.55
6 -1 5 102.28 11.87
-6 -1 -6 80.13 10.81
6 -1 6 65.03 10.15
-6 -1 -7 97.44 12.24
6 -1 7 88.1 12.36
-6 -1 -8 78.9 11.94
6 -1 8 78.35 9.69
6 -1 8 91.72 13
-6 -1 -9 10.09 6.9
6 -1 9 5.83 3.8
6 -1 9 12.61 7.18
-6 -1 -10 1.16 4.6
6 -1 10 7.05 5.5
-6 -1 -11 15.24 7.16
6 -1 11 9.23 5.79
-6 -1 -12 0.98 4.97
6 -1 12 5.79 5.88
6 -1 13 0.01 6.01
6 0 -13 -14.33 8.84
-6 0 12 14.14 8.14
6 0 -12 -7.6 8.2
-6 0 11 18.29 10.58
6 0 -11 4.28 5.5
6 0 -11 10.68 5.62
-6 0 10 49.15 13.09
6 0 -10 35.74 8.89
6 0 -10 48.42 9.66
6 0 -9 266.97 20.82
6 0 -9 242.01 22.4
-6 0 9 269.26 25.99
-6 0 8 7.67 6.25
-6 0 8 1.79 2.15
6 0 -8 1.15 6.3
6 0 -8 6.78 4.63
6 0 -7 859.43 34.3
-6 0 7 933.84 27.88
6 0 -7 887.65 39.01
-6 0 7 918.7 41.51
6 0 -6 662 28.44
-6 0 6 700.11 23.46
6 0 -6 674.79 32.1
-6 0 6 696.53 33.43
-6 0 5 80.35 7.91
6 0 -5 80.94 10.79
6 0 -5 81.89 10.05
-6 0 5 86.29 11.51
6 0 -4 922.79 33.31
-6 0 4 911.05 25.65
6 0 -4 896.13 30.7
-6 0 4 886.59 33.5
6 0 -3 1297.43 35.95
-6 0 3 1289.9 30.47
-6 0 3 1288.96 37.83
6 0 -2 193.2 14.02
-6 0 2 182.33 14.12
-6 0 2 186.93 11.63
6 0 -1 330.16 17.9
-6 0 1 320.93 12.3
6 0 -1 322.7 13.51
-6 0 1 335.08 15.63
-6 0 1 337.09 18.06
6 0 0 2236.05 46.26
6 0 0 2192.97 31.04
-6 0 0 2290.41 42.02
-6 0 0 2292.67 47.41
6 0 1 292.55 16.58
6 0 1 284.59 12.83
6 0 1 263.48 9.13
-6 0 -1 283.14 15.6
-6 0 -1 276.98 16.39
6 0 2 1599.65 33.15
6 0 2 1603.52 16.41
-6 0 -3 643.13 24.66
6 0 3 601.59 24.89
-6 0 -4 172.72 14.07
6 0 4 161.4 13.37
-6 0 -4 179.84 13.95
6 0 4 178.91 14.19
-6 0 -5 327.29 19.75
6 0 5 305.36 19.03
-6 0 -6 70.71 10.17
6 0 6 83.74 10.49
-6 0 -7 5.05 4.49
6 0 7 9.35 5.13
-6 0 -8 4.18 5.42
6 0 8 3 4.33
6 0 8 4.29 4.18
-6 0 -9 11.23 5.24
6 0 9 3.29 4.01
6 0 9 8.65 5.13
-6 0 -10 3.09 4.67
6 0 10 -1.13 4.11
6 0 10 5.48 4.47
-6 0 -11 5.21 4.92
6 0 11 0.7 3.89
6 0 11 -2.35 4.69
-6 0 -12 -0.26 4.57
6 0 12 -0.01 4.53
6 1 -13 0.98 6.65
-6 1 13 -20.03 10.35
6 1 -12 12.27 8.94
-6 1 12 -20.36 10.69
6 1 -11 16.01 8.59
-6 1 11 -8.74 9.16
-6 1 10 12.56 7.97
6 1 -10 2.72 5.37
-6 1 10 -3.86 8.43
-6 1 9 22.34 8.28
-6 1 9 17.5 5.11
6 1 -9 36.41 9.23
-6 1 9 16.09 6.93
-6 1 8 96.74 15.03
6 1 -8 75.86 12.57
6 1 -8 90.51 13.62
-6 1 8 109.61 15.55
-6 1 8 97.99 11.61
-6 1 7 101.46 14
-6 1 7 107.11 14.47
6 1 -7 102.36 13.1
-6 1 7 112.3 11.94
6 1 -7 102.88 13.47
6 1 -6 193.87 17.16
-6 1 6 212.65 15.44
6 1 -6 195.19 17.31
-6 1 6 211.69 18.36
6 1 -5 829.13 33.27
-6 1 5 831.45 29.4
6 1 -5 817.42 32.96
-6 1 5 819.65 33.01
6 1 -4 226.63 16.98
-6 1 4 210.87 14.59
6 1 -4 214.63 16.05
6 1 -4 215.73 10.52
-6 1 4 204.59 15.54
6 1 -3 73.15 9.05
-6 1 3 92.46 9.67
6 1 -3 83.25 10.21
6 1 -3 92.51 7.26
-6 1 3 83.54 9.25
6 1 -2 1436.49 37.28
6 1 -2 1502.03 40.59
-6 1 2 1367.06 18.35
-6 1 2 1472.15 37.07
6 1 -2 1478.32 30.84
-6 1 2 1442.03 36.03
6 1 -1 748.21 28.57
-6 1 1 760.61 26.48
-6 1 1 738.62 25.04
6 1 0 101.25 10.69
-6 1 0 89.34 9.05
-6 1 0 75.76 7.94
6 1 1 873.94 30.23
-6 1 -1 867.28 28.52
-6 1 -1 889.8 26.38
6 1 2 579.27 24.56
-6 1 -2 640.7 24.94
-6 1 -3 39.15 4.37
6 1 3 47.22 7.35
-6 1 -3 43.99 7.28
-6 1 -4 348.72 12.72
-6 1 -4 408.24 20.73
6 1 4 388.96 20.73
-6 1 -5 88.81 10.62
-6 1 -5 99.03 10.86
6 1 5 120.81 12.1
-6 1 -6 68.79 9.79
6 1 6 65.14 9.26
-6 1 -6 73.11 10.18
-6 1 -7 103.53 12.13
6 1 7 96.15 11.69
-6 1 -8 82.24 11.69
6 1 8 90.69 12.87
6 1 8 72.75 10.56
-6 1 -9 6.74 3.76
6 1 9 3.98 4.54
6 1 9 0.3 3.45
-6 1 -9 -1.55 4.15
6 1 10 4.69 5.14
-6 1 -10 -0.52 3.83
6 1 10 -2.31 3.97
-6 1 -10 -1.79 4.02
-6 1 -11 10.59 6.58
6 1 11 16.47 8.47
6 1 11 11.28 5.86
-6 1 -12 0.05 3.89
6 1 12 -0.08 5.26
-6 1 -13 6.29 5.37
6 1 13 0.01 5.39
6 2 -12 27.56 11.55
-6 2 12 -5.65 8.4
6 2 -11 27.7 10.94
-6 2 11 0.03 8.73
-6 2 10 34.3 9.66
6 2 -10 29.14 10.37
-6 2 10 21.51 9.14
-6 2 9 54.94 10.66
6 2 -9 72.66 13.51
-6 2 9 34.72 10.06
-6 2 8 5.32 5.4
6 2 -8 10.1 7.04
-6 2 8 -9.44 8.18
-6 2 7 249.27 22.34
-6 2 7 246.69 20.29
6 2 -7 267.52 21.5
-6 2 7 263.61 21.77
-6 2 6 99.56 13.63
6 2 -6 115.36 14.34
-6 2 6 111.23 13.26
6 2 -6 109.1 13.3
-6 2 6 118.54 13.68
-6 2 5 50.14 8.36
-6 2 5 48.62 8.43
6 2 -5 53.14 9.57
-6 2 5 45.09 9.11
6 2 -5 47.27 9.16
6 2 -4 541.25 28.15
-6 2 4 521.67 26.11
6 2 -4 522.28 13.12
6 2 -4 530.63 25.34
-6 2 4 488.32 23.03
6 2 -3 221.59 17.46
6 2 -3 208.19 9.95
-6 2 3 219.47 16.59
6 2 -3 251.32 16.5
-6 2 3 220.36 14.07
-6 2 2 12.03 4.56
6 2 -2 8.34 3.34
6 2 -2 8.91 4.42
-6 2 2 11.28 3.34
6 2 -2 7.13 2.03
6 2 -1 354.83 20.43
-6 2 1 375.67 20.62
6 2 -1 327.24 16.54
-6 2 1 324.09 15.02
6 2 0 433.01 22.59
-6 2 0 467.52 23.28
-6 2 0 454.6 16.9
6 2 1 70.78 5.93
6 2 1 54.52 7.92
-6 2 -1 54.91 8.02
6 2 2 138.81 12.66
6 2 2 139.44 6.25
-6 2 -2 137.17 12.03
6 2 3 411.97 21.37
-6 2 -3 406.93 21.49
-6 2 -4 114.67 12.01
6 2 4 92.23 10.31
6 2 5 29.68 6.42
-6 2 -5 26.97 6.99
-6 2 -6 88.42 11.01
6 2 6 76.66 9.28
6 2 6 82.81 10.53
-6 2 -6 91.04 11.38
-6 2 -7 14.72 4.94
6 2 7 16.46 5.27
-6 2 -7 22.48 6.84
-6 2 -8 10.86 5.23
6 2 8 2.54 5.66
6 2 8 8.33 4.26
-6 2 -8 9.19 5.42
-6 2 -9 1.45 4.17
6 2 9 1.51 4.38
6 2 9 2.4 3.63
-6 2 -10 16.89 6.59
6 2 10 17.97 8.53
-6 2 -10 9.79 5.2
-6 2 -11 13.37 6.49
6 2 11 -0.91 5.13
-6 2 -11 1.49 4.25
-6 2 -12 3.26 5.62
6 2 12 7.38 7.55
-6 3 11 26.17 9.22
-6 3 11 13.85 7.57
-6 3 10 3.34 4.93
-6 3 10 3.99 5.64
-6 3 9 27.13 9.11
6 3 -9 61.28 13.31
-6 3 9 38.46 11.36
-6 3 8 63.73 12.65
6 3 -8 92.93 14.84
-6 3 8 74.55 14.35
-6 3 7 22.06 7.8
6 3 -7 31.65 9.48
-6 3 7 12.48 6.6
-6 3 6 149.03 17.09
-6 3 6 163.54 17.97
6 3 -6 174.58 17.4
-6 3 5 144.18 16.13
6 3 -5 151.99 16.86
-6 3 5 137.2 16.12
6 3 -5 161.48 15.98
-6 3 5 130.75 13.07
-6 3 4 93.95 12.66
-6 3 4 75.62 11.05
6 3 -4 88.18 13.12
6 3 -4 98.1 11.63
-6 3 4 72.45 8.7
-6 3 3 250.9 10.41
6 3 -3 277.11 21.07
6 3 -3 262.88 10.7
-6 3 3 278.51 20.59
6 3 -3 288.81 18.27
-6 3 3 249.26 14
6 3 -2 333.66 21.91
6 3 -2 318.31 13.5
-6 3 2 304.39 21.16
6 3 -2 318.71 17.95
-6 3 2 305.71 13.82
6 3 -1 89.65 11.41
-6 3 1 89.19 11.54
6 3 -1 87.27 8.74
-6 3 1 82.46 6.3
-6 3 0 40.97 8.43
6 3 0 42.09 8.02
6 3 0 41.49 5.41
6 3 1 115.04 12.24
-6 3 -1 145.85 14.57
6 3 1 130.86 10.55
6 3 2 120.6 12.22
6 3 2 124.5 9.24
-6 3 -2 104.93 11.85
6 3 3 63.32 9.25
-6 3 -3 56.34 8.66
6 3 4 107.21 11.18
-6 3 -4 99.45 12.06
-6 3 -5 94.07 11.94
6 3 5 99.02 11.16
6 3 6 19.48 6.19
-6 3 -6 31.76 8.95
-6 3 -7 13.13 5
6 3 7 23.02 5.83
-6 3 -8 26.07 6.86
6 3 8 24.96 9.06
-6 3 -8 36.24 8.59
-6 3 -9 14.52 5.26
6 3 9 8.72 7.09
-6 3 -9 21.22 8
-6 3 -10 0.09 3.64
6 3 10 12.38 8.24
-6 3 -10 2.56 4.9
-6 3 -11 7.27 6.21
-6 3 -12 17.6 7.71
-6 4 12 -13.9 9.88
-6 4 11 5.9 8.02
-6 4 10 -2.95 8.69
6 4 -10 0.91 7.41
-6 4 10 -5.35 8.15
-6 4 9 8.04 8.27
6 4 -9 5.25 6.01
-6 4 9 2.34 7.41
-6 4 8 21.8 9.19
6 4 -8 10.51 5.51
-6 4 8 3.41 5.56
-6 4 7 3.39 6.4
6 4 -7 -6.75 6.99
-6 4 7 -7.94 7.52
-6 4 6 59.42 12.44
6 4 -6 53.18 10.2
-6 4 6 51.95 10.71
-6 4 5 28.45 6.4
-6 4 5 36.78 10.47
6 4 -5 19.66 6.23
-6 4 5 27.69 8.36
6 4 -5 24.71 8.1
6 4 -4 14.68 6.35
-6 4 4 13.48 4.03
-6 4 4 13.02 7
6 4 -4 5.91 3.73
-6 4 4 6.87 4.8
-6 4 3 44.73 9.46
6 4 -3 59.04 9.16
-6 4 3 52.63 8.84
6 4 -3 51.86 9.99
-6 4 3 49.87 5.66
-6 4 2 -7.21 6.84
6 4 -2 7.21 5.92
6 4 -2 6.75 4.5
-6 4 1 16.03 5.68
6 4 -1 22.58 5.32
6 4 -1 18.2 6.38
-6 4 0 52.06 9.68
6 4 0 43.36 6.16
6 4 0 41.09 8.83
-6 4 -1 46.98 9.68
6 4 1 41.21 5.25
6 4 1 45.61 7.83
6 4 2 19.38 6.15
-6 4 -2 40.13 9.45
6 4 3 60.34 9.24
-6 4 -3 57.55 9.09
6 4 4 99.14 11.88
-6 4 -4 87.15 11.66
6 4 5 14.95 5.12
-6 4 -5 23.1 7.41
6 4 6 21.94 6.1
-6 4 -6 28.4 8.15
-6 4 -7 27.26 7.12
6 4 7 39.22 7.53
6 4 7 38.85 11.04
-6 4 -7 43.64 9.51
-6 4 -8 -2.72 3.63
6 4 8 7.74 8.01
-6 4 -8 0.35 4
6 4 9 9.99 7.94
-6 4 -9 18.92 7.28
-6 4 -10 1.61 4.89
-6 4 -10 8.16 5.93
-6 5 10 4.99 7.92
-6 5 9 3.06 7.03
6 5 -9 1.07 6.51
-6 5 9 6.3 6.26
-6 5 8 16.65 9.4
6 5 -8 6.85 7.14
-6 5 8 11.02 7.41
6 5 -7 -1.03 5.69
-6 5 7 6.61 7.39
-6 5 6 15.56 9.57
6 5 -6 5.79 5.02
-6 5 6 4.89 6.01
-6 5 5 37.06 11.42
6 5 -5 22.7 9.06
6 5 -5 24.72 6.76
-6 5 5 20.79 7.62
-6 5 4 28.46 10.14
6 5 -4 8.64 6.26
6 5 -4 14.39 6.07
-6 5 4 19.76 6.77
6 5 -3 19.48 8.13
-6 5 3 17.9 8.09
6 5 -3 24.46 7.31
-6 5 3 13.5 5.48
-6 5 2 48.85 10.39
6 5 -2 51.67 8.67
6 5 -2 47.75 10.89
-6 5 1 24.8 7.79
6 5 -1 33.91 6.6
6 5 -1 23.71 7.78
-6 5 0 20.21 7.44
6 5 0 13.31 3.79
6 5 0 22.61 6.84
6 5 1 23.48 6.74
-6 5 -1 24.31 8.38
-6 5 -2 1.85 5.96
6 5 2 -0.42 4.38
6 5 3 20.52 6.15
-6 5 -3 9.77 5.18
6 5 4 0.82 3.05
-6 5 -4 -7.62 6.56
6 5 5 9.02 4.73
-6 5 -5 8.47 5.51
6 5 6 10.58 9.39
-6 5 -6 4.29 4.93
6 5 7 5.33 8.39
-6 5 -7 9.73 6.33
6 5 8 -0.31 6.91
-6 5 -8 -13.53 6.61
-6 5 -9 0 4.28
6 6 -8 -11.99 7.68
-6 6 8 1.52 7.23
-6 6 7 13.87 10.26
6 6 -7 8.52 5.94
-6 6 7 6.21 6.23
-6 6 6 16.03 8.56
6 6 -6 12.98 7.05
-6 6 6 11.53 7.11
-6 6 5 8.36 7.64
6 6 -5 8.57 6.08
-6 6 5 3.53 5.22
6 6 -5 -1.42 6.56
-6 6 4 19.93 9.65
6 6 -4 21.35 7.09
-6 6 4 7.37 5.17
6 6 -4 14.66 7.68
6 6 -3 -0.16 6.19
-6 6 3 -2.58 8.11
6 6 -3 2.14 3.89
-6 6 2 -11.92 8.32
6 6 -2 1.99 5.16
-6 6 1 -2.39 5.98
6 6 -1 7.84 5.9
-6 6 0 20.57 8.21
6 6 0 30.77 9.58
-6 6 -1 -0.41 5.99
6 6 1 3.47 4.52
-6 6 -2 13.9 6.81
6 6 2 -0.4 4.84
6 6 3 34.2 8.98
-6 6 -3 36.67 10.94
-6 6 -4 -9.93 7.48
6 6 5 -0.5 4.88
-6 6 -5 -3.13 5.31
6 6 6 9.04 8.6
-6 6 -6 3.44 6.03
-6 6 -7 3.32 6.47
-6 6 -8 9.45 7.51
6 7 -6 6.31 6.16
6 7 -5 10.65 7.52
6 7 -4 0.27 7.5
6 7 -3 3.12 6.8
6 7 -2 0.65 6.3
-6 7 2 8.18 7.65
-6 7 1 -4.14 6.48
6 7 -1 -2.22 5.69
-6 7 0 1.38 6.55
6 7 0 -6.62 6.19
-6 7 -1 11.71 7.7
-6 7 -2 18.11 8.94
6 7 3 0.14 5.5
-6 7 -3 16.15 9.27
6 7 4 0.36 5.45
-6 7 -4 -19.45 8.76
-7 -7 4 0.01 5.22
-7 -7 3 5.63 7.56
-7 -7 2 0.87 4.33
-7 -7 1 1.57 5.77
7 -7 0 1.37 4.19
7 -7 1 6.86 6.98
7 -7 2 9.79 8.01
7 -7 2 0.01 6.42
7 -7 3 -14.73 8.76
-7 -6 7 -5.22 6.22
-7 -6 6 -8.16 6.57
7 -6 -6 0.77 5.77
-7 -6 6 -12.08 7.5
-7 -6 5 -4.06 6.49
7 -6 -5 6.39 5.85
-7 -6 5 -10.05 6.8
-7 -6 4 -2.58 4.25
7 -6 -4 -1.62 4.6
-7 -6 4 -6.1 6.59
-7 -6 3 -1.2 5.09
7 -6 -3 -1.86 4.63
-7 -6 3 7.76 5.83
-7 -6 2 1.62 5.08
7 -6 -2 0.92 4.86
-7 -6 2 10.05 6.89
-7 -6 1 5.9 5.86
7 -6 -1 1.03 3.67
-7 -6 1 2.27 5.31
7 -6 0 3.3 4.37
7 -6 0 8.07 6.17
-7 -6 0 4.19 5.54
7 -6 1 3.58 4.23
7 -6 1 -1.76 4.91
7 -6 2 3.19 4.65
7 -6 2 -4.48 7.48
-7 -6 -3 -6.31 6.66
7 -6 3 -9.86 7.12
-7 -6 -4 0.48 5.83
7 -6 4 10.2 8.38
-7 -6 -5 7.89 7.92
7 -6 5 6.03 7.19
-7 -6 -6 1.94 5.64
-7 -5 9 1.38 5.71
7 -5 -8 -2.31 6.24
-7 -5 8 4.51 6.25
7 -5 -7 -3.9 6.61
-7 -5 7 9.05 6.95
-7 -5 6 6.47 5.81
7 -5 -6 5.32 5.02
-7 -5 6 11.28 6.67
-7 -5 5 12.46 6.5
7 -5 -5 9.64 6.56
-7 -5 5 8.93 5.95
-7 -5 4 2.54 4.92
7 -5 -4 2.02 4.05
-7 -5 4 -9.15 7.2
-7 -5 3 -3.97 5.18
7 -5 -3 12.81 6.74
-7 -5 3 -0.25 6.11
-7 -5 2 11.25 6.64
7 -5 -2 4.27 4.48
7 -5 -2 -1.08 4.26
-7 -5 2 7.98 5.76
-7 -5 1 0.63 3.89
7 -5 -1 2.59 4.26
7 -5 -1 6.54 4.31
-7 -5 1 7.3 6.32
-7 -5 0 23.05 8.15
-7 -5 0 13.11 6.21
7 -5 0 5.41 4.07
7 -5 0 12.4 6.44
-7 -5 0 10.41 6.64
-7 -5 -1 10.38 6.35
7 -5 1 14.08 6.23
7 -5 1 17.79 7.23
-7 -5 -1 30.33 8.86
-7 -5 -2 -5.31 6.19
7 -5 2 3.3 4.38
7 -5 2 9.68 6.43
-7 -5 -3 -4.46 6.66
7 -5 3 -0.92 3.85
7 -5 3 -2.92 5.07
-7 -5 -4 18.49 7.57
7 -5 4 35.01 10.13
-7 -5 -5 -0.55 4.77
7 -5 5 1.24 4.64
-7 -5 -6 -5.93 8.13
7 -5 6 -0.76 4.78
-7 -5 -7 10.17 6.9
7 -5 7 -12.06 8.01
7 -4 -10 18.16 12.19
-7 -4 10 -2.57 7.98
7 -4 -9 12.91 9.7
-7 -4 9 9.03 8.09
7 -4 -8 -2.57 5.72
-7 -4 8 2.78 5.3
7 -4 -7 71.05 14.14
-7 -4 7 55.73 12.76
7 -4 -6 17.32 7.34
-7 -4 6 16.74 6.68
7 -4 -5 26.47 7.9
-7 -4 5 23.74 7.66
-7 -4 4 11.01 4.72
7 -4 -4 27.07 8.3
7 -4 -4 15.22 5.42
-7 -4 4 25.34 8.61
-7 -4 3 72.45 11.95
7 -4 -3 98.3 13.47
7 -4 -3 76.7 10.62
-7 -4 3 72.38 11.82
-7 -4 2 29.18 6.74
-7 -4 2 33.85 7.97
7 -4 -2 27.65 7.55
7 -4 -2 32.39 7.66
-7 -4 2 33.04 8.66
-7 -4 1 26.88 8.07
-7 -4 1 17.69 6.57
7 -4 -1 22.42 6.22
7 -4 -1 16.72 5.75
-7 -4 1 23.68 7.32
-7 -4 0 116.7 15.05
-7 -4 0 100.42 13.32
7 -4 0 100.06 11.94
7 -4 0 102.02 13.42
-7 -4 0 110.88 14.38
-7 -4 -1 18.57 7.55
7 -4 1 3.95 2.89
7 -4 1 6.27 4.88
-7 -4 -1 14.33 6
-7 -4 -2 42.02 9.78
7 -4 2 36.56 7.37
7 -4 2 48.19 10.37
-7 -4 -3 25.13 8.37
7 -4 3 29.86 7.12
7 -4 3 24.9 8.07
-7 -4 -4 1.72 5.06
7 -4 4 11.46 7.66
-7 -4 -5 31.36 8.17
7 -4 5 47.23 10.76
-7 -4 -6 4.4 5.83
7 -4 6 17.06 8.22
-7 -4 -7 0.69 4.68
7 -4 7 6.18 6.58
-7 -4 -8 -3.55 5.6
7 -4 8 2.98 4.61
7 -3 -11 -9.31 14.04
-7 -3 11 2.58 8.09
7 -3 -10 6.58 8.46
-7 -3 10 -0.74 5.87
7 -3 -9 20.33 10.73
-7 -3 9 23.99 10.67
7 -3 -8 54.3 14.4
-7 -3 8 62.67 13.08
7 -3 -7 32.51 9.57
-7 -3 7 29.24 9.42
7 -3 -6 24.69 8.32
-7 -3 6 31.66 9.4
7 -3 -5 102.98 13.84
-7 -3 5 112.24 15.73
7 -3 -5 98.86 10.33
-7 -3 4 60.88 8.42
7 -3 -4 55.6 8.15
7 -3 -4 60.81 10.31
-7 -3 4 59.14 11.18
-7 -3 3 47 7.71
-7 -3 3 37.68 8.2
7 -3 -3 40.99 8.4
-7 -3 3 37.49 8.82
-7 -3 2 204.68 15.67
-7 -3 2 193.94 16.81
7 -3 -2 171.27 15.65
7 -3 -2 186.56 15.51
-7 -3 2 172.65 17.19
-7 -3 1 30.59 6.89
-7 -3 1 23.98 6.67
7 -3 -1 19.19 5.34
7 -3 -1 20.14 6.04
-7 -3 1 21.02 6.92
-7 -3 0 93.1 11.08
-7 -3 0 74.55 10.52
7 -3 0 75.41 9.52
7 -3 0 80.75 10.79
-7 -3 0 83.26 11.87
-7 -3 -1 158.47 14.64
7 -3 1 132.95 12.13
7 -3 1 130.85 13.98
-7 -3 -1 129 14.83
-7 -3 -2 16.89 5.45
7 -3 2 19.86 5.15
7 -3 2 17.88 5.92
-7 -3 -2 17.55 6.42
-7 -3 -3 15.9 5.7
7 -3 3 12.51 4.55
7 -3 3 13.59 6.06
-7 -3 -4 8.52 5.88
7 -3 4 0.49 4.66
-7 -3 -5 33.17 8.31
7 -3 5 22.72 7.84
-7 -3 -6 41.95 9.56
7 -3 6 34.89 9.81
-7 -3 -7 15.15 6.39
7 -3 7 38.44 10.63
-7 -3 -8 11.88 7.17
7 -3 8 3.75 5.53
-7 -3 -9 1.64 5
7 -3 9 1.23 4.5
7 -3 10 11.31 6.94
7 -2 -11 11.07 8.85
-7 -2 11 10.33 8.41
7 -2 -10 6.42 8.6
-7 -2 10 9.95 8.27
7 -2 -9 6.35 7.51
-7 -2 9 35.6 10.65
7 -2 -8 10.85 9.74
-7 -2 8 19.84 7.43
7 -2 -7 84.34 10.3
7 -2 -7 110.97 16.53
-7 -2 7 87.84 14.51
7 -2 -6 138.51 12.9
7 -2 -6 137.97 17.09
-7 -2 6 139.87 17.03
7 -2 -5 9.7 3.91
7 -2 -5 10.55 5.46
-7 -2 5 5.16 4.24
7 -2 -4 403.9 23.57
-7 -2 4 388.7 25.98
7 -2 -4 421.95 20.89
-7 -2 3 69.29 9.86
7 -2 -3 70.39 9.48
-7 -2 3 72.35 10.87
7 -2 -3 81.56 9.34
-7 -2 2 188.95 14.79
7 -2 -2 205.39 15.16
-7 -2 2 189.41 17.02
7 -2 -2 198.62 14.56
-7 -2 1 336.82 19.75
7 -2 -1 367.5 19.52
-7 -2 1 367.1 23.18
7 -2 -1 367.02 19.8
-7 -2 0 154.08 12.83
-7 -2 0 151.43 13.09
7 -2 0 145.09 11.68
-7 -2 0 141.03 14.55
7 -2 0 156.38 13.32
7 -2 0 129.52 9.53
-7 -2 -1 30.97 6.36
7 -2 1 28.41 5.04
7 -2 1 38.88 7.48
-7 -2 -1 39.84 8.45
7 -2 1 31.35 4.88
-7 -2 -2 78.36 10.06
7 -2 2 83.17 8.37
7 -2 2 84.04 11.02
-7 -2 -2 90.95 12.18
7 -2 2 71.32 7.73
-7 -2 -3 231.8 17.18
7 -2 3 243.72 14.14
7 -2 3 237 18.4
-7 -2 -4 4.82 4.9
7 -2 4 8.07 4.95
-7 -2 -5 18.68 6.35
7 -2 5 22.79 7.53
-7 -2 -6 76.07 11.8
7 -2 6 81.52 12.03
-7 -2 -7 28.13 8.38
7 -2 7 42.63 9.92
7 -2 8 2.87 5.44
-7 -2 -8 -6.06 5.68
-7 -2 -9 11.77 6.15
7 -2 9 10.25 6.68
-7 -2 -10 -4.33 4.96
7 -2 10 3.57 5.12
7 -2 11 1.49 6.06
-7 -1 12 -1.15 6.8
7 -1 -12 -7.88 10.93
-7 -1 11 7.92 7.95
7 -1 -11 -2.8 10.05
-7 -1 10 21.83 10.07
7 -1 -10 -4.82 9.15
-7 -1 9 41.67 11.43
7 -1 -9 29.83 9.56
7 -1 -9 21.52 5.84
7 -1 -8 146.02 14.59
-7 -1 8 139.75 18.47
7 -1 -7 13.52 4.98
-7 -1 7 17.85 6.77
7 -1 -6 83.41 10.25
-7 -1 6 72.32 6.58
-7 -1 6 87.69 13.22
7 -1 -5 104.53 11.41
7 -1 -5 124.3 14.65
-7 -1 5 87.39 7.57
-7 -1 5 97.58 13.07
7 -1 -4 213.28 15.55
7 -1 -4 228.38 17.43
-7 -1 4 206.3 12.13
-7 -1 4 210.25 18.18
7 -1 -3 250.48 16.49
7 -1 -3 238.04 15.98
-7 -1 3 258.63 14.2
-7 -1 3 259.26 19.4
7 -1 -2 513.54 23.24
-7 -1 2 484.73 20.64
7 -1 -2 527.39 22.18
-7 -1 2 548.96 21.61
-7 -1 2 478.26 25.77
-7 -1 1 80.5 8.27
7 -1 -1 70.82 7.33
-7 -1 1 87.36 9.27
-7 -1 1 72.34 10.1
7 -1 -1 77.57 9.29
7 -1 0 29.83 4.98
7 -1 0 27.93 6.07
-7 -1 0 33.63 6.5
-7 -1 0 20.53 5.45
7 -1 1 389.03 15.28
-7 -1 -1 452.64 22.3
-7 -1 -1 423.45 23.44
7 -1 1 420.93 21.68
-7 -1 -2 229.79 16.16
7 -1 2 225.62 10.31
7 -1 2 263.67 11.93
-7 -1 -2 248.71 17.74
7 -1 2 263.71 17.87
-7 -1 -3 111.07 11.78
7 -1 3 102.91 11.75
-7 -1 -4 29.46 7.1
7 -1 4 21.5 6.51
-7 -1 -5 176.5 15.34
7 -1 5 164.76 15.48
-7 -1 -6 9.81 5.42
7 -1 6 13.42 5.96
-7 -1 -7 36.29 8.65
7 -1 7 30.45 7.97
7 -1 8 2.1 3.23
7 -1 8 5.07 4.68
-7 -1 -9 4.26 5.29
7 -1 9 2.64 3.21
7 -1 9 -1.58 4.5
-7 -1 -10 6.99 6.17
7 -1 10 21.83 8.52
-7 -1 -11 1.27 5.4
7 -1 11 0.42 5.09
7 -1 12 -1.62 5.57
-7 0 12 7.68 8.96
7 0 -12 -9.78 10.11
-7 0 11 -7.18 8.7
7 0 -11 -22.08 11.36
7 0 -11 -3.83 4.31
-7 0 10 27.85 11.18
7 0 -10 26.29 7.09
7 0 -10 24.28 9.38
-7 0 9 -1.53 5.29
7 0 -9 -10.44 9.11
7 0 -9 2.56 4.65
-7 0 8 -8.76 7.21
7 0 -8 -3.43 6.04
7 0 -8 0.37 4.94
-7 0 7 15.37 6.87
-7 0 7 18.64 4.69
7 0 -7 3.08 6.12
7 0 -7 8.6 4.13
7 0 -6 422.91 23.91
-7 0 6 416.61 19.31
7 0 -6 389.47 25.65
-7 0 6 420.41 27.32
7 0 -5 22.54 6.31
7 0 -5 16.35 5.26
-7 0 5 15.9 5.52
-7 0 5 22.89 4.9
7 0 -4 395.86 21.84
-7 0 4 379.73 18.06
-7 0 4 372.06 23.11
7 0 -3 635.46 27.75
-7 0 3 636.7 22.81
-7 0 3 608.19 28.24
-7 0 2 50.79 5.53
7 0 -2 50.77 8.27
-7 0 2 41.45 6.33
-7 0 2 49.29 8.12
7 0 -1 85.82 10.37
7 0 -1 95.44 8.05
-7 0 1 97.79 9.58
-7 0 1 93.68 10.65
7 0 0 434.68 22.36
7 0 0 418.17 14.84
-7 0 0 445.53 20.6
-7 0 0 443.4 22.84
7 0 1 47.88 4.27
-7 0 -1 53.33 7.49
-7 0 -1 51.75 7.71
7 0 1 37.53 7.08
7 0 2 99.76 8.67
7 0 2 107.29 4.31
-7 0 -2 111.74 11.15
7 0 2 101.44 11.14
-7 0 -3 531.11 24.17
7 0 3 494.4 24.21
-7 0 -4 329.1 20.37
-7 0 -4 357.68 20.47
7 0 4 316.21 20.07
-7 0 -5 67.82 9.97
7 0 5 60.91 9.61
-7 0 -6 35.04 7.99
7 0 6 25.92 6.85
-7 0 -7 183.02 17.32
7 0 7 179.78 16.9
-7 0 -8 12.63 5.66
7 0 8 -0.51 4.02
-7 0 -9 17.51 7.72
7 0 9 3.85 4.51
7 0 9 4.25 5.02
-7 0 -10 15.75 6.86
7 0 10 1.24 4.18
7 0 10 16.04 6.28
-7 0 -11 10.01 6.97
7 0 11 4.52 5.02
7 0 11 0.59 4.57
7 0 12 7.34 7
-7 1 12 20.58 11.12
7 1 -12 14.7 7.33
-7 1 11 11.44 8.73
7 1 -11 7.7 7.19
7 1 -11 23.19 8.54
-7 1 10 13.93 8.26
7 1 -10 10 6.86
7 1 -10 11.64 6.57
-7 1 9 32.42 11.04
-7 1 9 38.75 8.11
7 1 -9 29.53 9.14
7 1 -9 28.4 7.85
-7 1 8 119.9 16.66
7 1 -8 117.79 15.26
-7 1 8 114.72 12.6
7 1 -8 121.46 15.93
-7 1 7 21.8 7.49
-7 1 7 22.09 5.56
7 1 -7 19.55 7.19
7 1 -7 24.62 7.08
-7 1 6 79.17 11.89
-7 1 6 72.63 9.52
7 1 -6 77.18 11.31
7 1 -6 85.91 12.11
7 1 -5 97.59 11.92
7 1 -5 111.02 13.2
-7 1 5 102.57 10.91
-7 1 5 94.25 11.96
7 1 -4 291.16 20.03
-7 1 4 261.64 16.99
7 1 -4 258.8 18.55
7 1 -4 270.86 13.45
-7 1 4 249.62 18.06
7 1 -3 275.79 19.13
-7 1 3 270.35 17.19
7 1 -3 257.62 17.8
-7 1 3 243.1 16.96
7 1 -2 522.23 25.98
-7 1 2 462.39 9.7
-7 1 2 504.87 23.08
-7 1 2 488.33 23.23
7 1 -1 93.5 11.11
-7 1 1 78.78 9
-7 1 1 85.94 9.59
7 1 0 29.28 6.86
-7 1 0 26.07 5.36
-7 1 0 23.03 5.46
7 1 1 364.2 21.4
7 1 1 365.69 9.55
-7 1 -1 375.37 20.31
-7 1 -1 365.12 18.43
7 1 2 247.44 17.56
-7 1 -2 255.28 17.05
-7 1 -3 138.07 13.13
7 1 3 118.62 12.32
7 1 4 41.97 8.12
-7 1 -4 50.03 7.99
-7 1 -5 173.6 15.52
-7 1 -5 193.52 16.03
7 1 5 175.16 15.34
-7 1 -6 16.36 6.05
7 1 6 12.68 4.47
-7 1 -7 38.52 8.65
7 1 7 32.91 7.27
-7 1 -8 9.83 5.96
7 1 8 19.26 6.92
-7 1 -9 8.12 6.32
7 1 9 -2.56 4.05
7 1 9 1.66 4.13
-7 1 -10 20.42 7.68
7 1 10 4.02 5.54
7 1 10 16.99 6.96
-7 1 -11 9.5 6.7
7 1 11 1.88 4.32
7 1 11 6.11 5.82
-7 1 -12 11.57 6.76
7 1 12 0.71 6.62
7 2 -13 5.64 6.22
-7 2 12 20.68 10.8
7 2 -12 0.82 5.11
-7 2 11 17.07 9.97
7 2 -11 18.71 9.48
-7 2 11 -4.28 9.06
7 2 -11 17.52 8.76
-7 2 10 16.78 8.78
-7 2 10 21.61 8.29
7 2 -10 24.07 9.23
-7 2 10 5.78 6.67
7 2 -10 23.61 9.03
-7 2 9 35.4 10.3
-7 2 9 33.72 8.71
7 2 -9 48.21 11.63
7 2 -9 29.05 9.31
-7 2 9 35.11 9.97
-7 2 8 13.93 5.94
7 2 -8 16.2 7.35
-7 2 8 13.26 6.5
7 2 -8 8.81 5.82
7 2 -7 116.25 16.15
-7 2 7 112.76 14.26
7 2 -7 131.69 16.11
-7 2 7 119.21 15.75
7 2 -6 130.57 15.76
-7 2 6 119.9 14.06
7 2 -6 111.41 14.21
-7 2 6 113.06 13.98
-7 2 5 15.17 5.65
-7 2 5 9.74 4.36
7 2 -5 17.3 6.2
7 2 -5 17.86 7.18
7 2 -4 436.6 26.72
7 2 -4 409.89 23.24
-7 2 4 428.17 22.55
-7 2 4 466.68 25.63
-7 2 3 92.86 11.64
7 2 -3 86.33 12.04
7 2 -3 77.32 7
7 2 -3 82.96 10.13
-7 2 3 81.46 9.2
7 2 -2 240.92 18.48
-7 2 2 229.13 17.51
7 2 -2 219.39 15.57
-7 2 2 222.97 14.51
7 2 -1 369.51 22.26
7 2 -1 370.99 19.02
-7 2 1 401.01 22.91
-7 2 1 369.51 17.77
7 2 0 163.01 15.26
-7 2 0 140.09 13.02
-7 2 0 152.53 11.09
7 2 1 61.09 5.52
7 2 1 47.98 8.62
-7 2 -1 49.81 8.12
7 2 2 100.8 11.97
7 2 2 91.6 3.83
-7 2 -2 112.35 12.13
7 2 3 244.14 17.6
-7 2 -3 257.57 18.46
7 2 4 5.6 4.1
-7 2 -4 17.84 7.18
7 2 5 30.61 7.21
-7 2 -5 28.09 6.71
-7 2 -6 110.78 12.89
7 2 6 103.27 12.37
-7 2 -6 105.56 12.7
-7 2 -7 20.44 6.71
7 2 7 12.75 5.56
-7 2 -7 29.69 7.78
-7 2 -8 -1.64 4.34
7 2 8 1.05 3.41
-7 2 -8 6.57 5.34
-7 2 -9 14.77 6.85
7 2 9 5.02 5.22
7 2 9 5.33 4.8
-7 2 -10 10.21 6.58
7 2 10 2.33 5.09
-7 2 -10 -10.53 5.77
-7 2 -11 6.39 5.38
7 2 11 -0.11 5.5
-7 2 -12 -4.1 4.89
-7 3 12 23.05 11.37
-7 3 11 0.42 6.93
-7 3 11 11.11 7.66
7 3 -11 22.54 10.73
-7 3 11 -8.84 8.4
-7 3 10 11.6 9.73
-7 3 10 3.28 6.08
7 3 -10 21.22 9.21
-7 3 10 4.36 6.08
-7 3 9 24.5 10.11
-7 3 9 24.63 9.28
7 3 -9 30.59 10.23
-7 3 9 20.51 10.09
7 3 -9 11.23 7.46
-7 3 8 62.63 12.65
-7 3 8 46.73 11.46
7 3 -8 76.78 13.79
-7 3 8 55.77 12.95
7 3 -8 61.7 13.78
-7 3 7 39.32 9.41
7 3 -7 42.69 11.48
-7 3 7 31.9 8.66
7 3 -7 38.31 10.56
-7 3 7 14.09 7.43
-7 3 6 12.52 5.7
-7 3 6 12.85 6.78
7 3 -6 22.72 8.32
7 3 -6 22.49 8.13
-7 3 6 7.45 5.44
7 3 -5 173.75 19.57
-7 3 5 151.23 16.9
7 3 -5 178.63 17.18
-7 3 5 151.2 14.27
-7 3 4 73.18 11.94
7 3 -4 71.11 12.41
7 3 -4 67.6 10.49
-7 3 4 55.75 7.93
-7 3 3 34.64 8.36
7 3 -3 33.5 6.99
7 3 -3 33.46 8.53
-7 3 3 34.89 5.79
7 3 -2 185.85 17.77
-7 3 2 201.06 18.14
7 3 -2 176.17 14.29
-7 3 2 191.32 12.16
-7 3 1 44.96 9.44
7 3 -1 40.4 9.19
7 3 -1 36.5 6.04
-7 3 1 42.67 5.23
7 3 0 86.06 8.52
-7 3 0 101.11 12.88
7 3 0 89.44 11.26
7 3 1 103.23 12.53
-7 3 -1 98.81 12.21
7 3 2 45.44 8.46
-7 3 -2 35.34 7.37
7 3 3 14.79 5.78
-7 3 -3 13.49 5.63
-7 3 -4 11.74 5.8
7 3 4 6.45 3.7
7 3 5 22.9 6.21
-7 3 -5 41.39 8.63
7 3 6 41.31 8.42
-7 3 -6 48.26 10.1
-7 3 -7 19.01 6.06
7 3 7 26.41 6.97
7 3 7 32.58 7.45
-7 3 -7 29.06 7.87
-7 3 -8 8.53 4.57
7 3 8 3.01 6.15
-7 3 -8 8.19 4.99
-7 3 -9 4.31 4.99
7 3 9 -3.22 7.22
-7 3 -9 10.93 6.67
-7 3 -10 6.33 5.62
7 3 10 -6.66 7.34
-7 3 -11 -3.66 5.12
-7 4 11 3.77 7.64
-7 4 10 6.89 6.52
7 4 -10 26.93 10.68
-7 4 10 0.45 8.8
-7 4 9 25.07 9.63
-7 4 9 13.65 8.93
7 4 -9 23.35 10.11
-7 4 9 25.97 10.71
-7 4 8 7.96 5.45
-7 4 8 2.43 6.57
7 4 -8 19.25 9.02
-7 4 8 -3.44 7.93
7 4 -8 -2.85 6.39
-7 4 7 93.28 16.57
7 4 -7 78.78 13.62
-7 4 7 98.08 16.58
7 4 -7 94.82 16.66
-7 4 6 29.62 9.49
7 4 -6 39.88 10.45
-7 4 6 28.95 8.34
7 4 -6 27.41 9.75
7 4 -5 25.66 8.54
-7 4 5 23.5 8.22
7 4 -5 24.74 8.37
-7 4 5 2.61 5.53
-7 4 4 8.95 4.95
7 4 -4 34.59 8.33
7 4 -4 35.08 9.84
7 4 -3 99.89 14.9
-7 4 3 113.48 15.42
7 4 -3 129.9 13.71
-7 4 2 29.51 8.07
7 4 -2 30.69 6.59
7 4 -2 42.46 9.33
-7 4 1 39.74 9
7 4 -1 33.16 6.12
7 4 -1 43.66 9.28
7 4 0 106.33 13.48
-7 4 0 132.34 15.86
7 4 0 118.63 10.15
7 4 1 16.31 6.51
-7 4 -1 20.85 7.65
7 4 2 42.05 8.8
-7 4 -2 31.08 6.91
7 4 3 8.6 4.79
-7 4 -3 11 4.5
7 4 4 7.25 5.15
-7 4 -4 -2.81 5.01
7 4 5 28.41 6.64
-7 4 -5 27.59 8.14
7 4 6 18.05 6.16
-7 4 -6 25.54 8.53
-7 4 -7 -9.8 5.46
-7 4 -7 -1.56 3.93
-7 4 -8 7.86 5.11
7 4 8 1.74 6.85
-7 4 -8 7.8 6.15
-7 4 -9 1.42 5.64
-7 4 -10 12.5 6.28
-7 5 9 5.51 6.18
7 5 -9 22.45 10.73
-7 5 9 2.9 6.77
-7 5 8 9.99 8.68
7 5 -8 6.42 6.39
-7 5 8 0.19 7.17
7 5 -8 0.71 8.16
-7 5 7 4.13 7.24
7 5 -7 7.87 6.13
-7 5 7 0.78 6.35
7 5 -7 -7.34 9.43
-7 5 6 21.14 9.55
7 5 -6 18.55 7.49
-7 5 6 6.35 5.46
7 5 -6 21.62 9.7
-7 5 5 27.32 9.28
7 5 -5 17.6 8.88
7 5 -5 26.66 8.43
-7 5 5 19.14 7.38
-7 5 4 -11.45 9.33
7 5 -4 13.15 6.92
7 5 -4 -0.05 5.42
-7 5 3 6.18 5.98
7 5 -3 11.43 6.74
7 5 -3 17.87 6.53
-7 5 2 12.11 6.7
7 5 -2 15.93 5.47
7 5 -2 5.72 5.13
-7 5 1 1.07 5.71
7 5 -1 3.88 3.02
7 5 -1 4.55 5.22
-7 5 0 21.09 8.02
7 5 0 18.2 7.84
-7 5 -1 39.14 10.45
7 5 1 24.09 7.64
7 5 2 1.91 3.69
-7 5 -2 14.17 7.8
7 5 3 -0.29 3.67
-7 5 -3 -12.59 7.87
7 5 4 46.68 9.34
-7 5 -4 22.73 7.49
-7 5 -5 -3.62 4.93
7 5 5 -10.05 5.25
-7 5 -6 4.62 5.88
7 5 7 3 7.49
-7 5 -7 5.59 6.01
-7 5 -8 1.82 5.47
-7 6 8 -8.49 7.54
7 6 -7 -3.37 6.19
-7 6 7 -7.02 6.85
-7 6 6 7.42 9.02
7 6 -6 -5.24 6.55
-7 6 6 -12.76 7.84
7 6 -6 4.28 6.2
-7 6 5 -9.17 8.35
7 6 -5 -6.69 5.39
-7 6 5 -14.25 7.32
7 6 -5 -7.97 8.17
-7 6 4 2.68 6.53
7 6 -4 5.55 5.9
7 6 -4 -0.7 6.72
7 6 -3 13.43 9.58
-7 6 3 -7.99 8.48
-7 6 2 2.63 5.43
7 6 -2 3.01 5.64
-7 6 1 -1.11 5.02
7 6 -1 2.57 5.98
-7 6 0 6.52 6.39
7 6 0 7.37 6.19
-7 6 -1 9.7 7.4
7 6 1 -0.97 4.88
7 6 2 -1.32 4.28
-7 6 -2 8.81 8.47
7 6 3 -1.03 4.4
-7 6 -3 -16.34 9.74
-7 6 -4 3.42 4.56
-7 6 -5 -0.91 6.32
-7 6 -6 -2.03 4.66
7 7 -3 12.78 8.64
7 7 -2 5.65 7.09
7 7 -1 -0.01 5.9
7 7 0 0.01 6.28
-8 -6 5 -1.15 6.94
-8 -6 4 10.65 7.4
8 -6 -4 9.96 6.73
-8 -6 4 -2.06 6.34
-8 -6 3 2.41 4.96
8 -6 -3 -1.13 4.82
-8 -6 3 9.48 7.11
-8 -6 2 9.89 6.87
8 -6 -2 7.35 4.67
-8 -6 2 9.03 6.95
-8 -6 1 8.25 7.11
8 -6 -1 4.17 4.9
-8 -6 1 13.55 7.56
8 -6 0 2.58 4.4
8 -6 0 0.49 4.42
-8 -6 0 11.78 6.92
8 -6 1 3.67 4.66
8 -6 1 -4.89 5.89
8 -6 2 3.8 5.41
8 -6 2 6.61 6.76
-8 -6 -3 0.01 6.84
8 -6 3 -2.85 6.47
-8 -6 -4 5.91 7.3
8 -6 4 7.23 7.59
-8 -6 -5 15.06 9.27
-8 -5 7 8.44 7.14
8 -5 -7 11.21 7.17
-8 -5 7 20.37 9.86
-8 -5 6 9.66 7.74
8 -5 -6 13.16 7.47
-8 -5 6 19.54 9.84
-8 -5 5 15.69 6.68
8 -5 -5 13.34 7.18
-8 -5 5 10.43 6.66
-8 -5 4 5.81 5
8 -5 -4 26 9.8
-8 -5 4 14.24 7.27
-8 -5 3 15.44 6.54
8 -5 -3 12.85 6.92
-8 -5 3 -0.74 5.42
-8 -5 2 14.32 7.14
8 -5 -2 15.53 6.48
8 -5 -2 6.64 4.41
-8 -5 2 15.19 7.3
-8 -5 1 8.47 5.79
8 -5 -1 8.88 4.8
8 -5 -1 5.63 4.72
-8 -5 1 8.51 6.31
8 -5 0 2.93 4.22
8 -5 0 8.76 6.15
-8 -5 0 14.73 6.91
-8 -5 -1 3.26 5.9
8 -5 1 11.51 5.66
8 -5 1 15.09 7.77
-8 -5 -1 19.9 7.65
-8 -5 -2 22.89 9.98
8 -5 2 18.48 6.22
8 -5 2 28.1 10.13
-8 -5 -3 2.24 5.6
8 -5 3 5.03 4.45
8 -5 3 4.08 6.42
-8 -5 -4 12.65 7.59
8 -5 4 7.79 7.26
-8 -5 -5 5.36 5.93
8 -5 5 21.24 9.56
-8 -5 -6 -0.06 4.96
8 -5 6 10.84 8.21
8 -4 -9 4.44 7.37
-8 -4 9 5.52 8.28
8 -4 -8 12.01 8.15
-8 -4 8 26.67 10.27
8 -4 -7 21.24 8.77
-8 -4 7 26.73 10.53
8 -4 -6 2.05 4.77
-8 -4 6 13.74 7.75
-8 -4 5 6.37 4.5
8 -4 -5 5.15 4.31
-8 -4 5 14.21 8.36
-8 -4 4 54.72 11.04
8 -4 -4 56.34 11.21
8 -4 -4 53.35 9.53
-8 -4 4 66.51 11.84
-8 -4 3 23.6 6.97
8 -4 -3 29.68 8.45
8 -4 -3 23.94 7.47
-8 -4 3 19.77 7.31
-8 -4 2 19.44 6.85
-8 -4 2 20.39 7.33
8 -4 -2 23.29 7.01
8 -4 -2 14.38 6.13
-8 -4 2 17.41 6.58
-8 -4 1 22.96 8.59
-8 -4 1 19.44 7.35
8 -4 -1 14.08 5.63
8 -4 -1 5.64 4.81
-8 -4 1 15.54 6.34
-8 -4 0 49.27 11.13
8 -4 0 39.47 7.7
8 -4 0 46.03 9.58
-8 -4 0 51.14 11
-8 -4 -1 51.01 11.3
8 -4 1 26.35 6.61
8 -4 1 38.31 9.39
-8 -4 -1 53.56 11.28
-8 -4 -2 12.31 7.21
8 -4 2 -0.15 3.16
8 -4 2 4.68 5.55
-8 -4 -3 19.93 7.85
8 -4 3 20.67 6.32
8 -4 3 35.2 9.57
-8 -4 -4 10.69 6.46
8 -4 4 3.49 5.94
-8 -4 -5 18.63 7.82
8 -4 5 18.04 8.74
-8 -4 -6 -3 6.44
8 -4 6 8.35 7.12
-8 -4 -7 7.86 6.06
8 -4 7 9.13 7.46
8 -3 -10 -0.24 8.45
-8 -3 10 -1.9 7.53
8 -3 -9 30.18 12.84
-8 -3 9 9.35 6.03
8 -3 -8 35.1 12.02
-8 -3 8 17.79 9.01
8 -3 -7 38.33 11.76
-8 -3 7 44.11 11.5
8 -3 -6 19.63 7.87
-8 -3 6 17.5 7.95
8 -3 -5 115.72 15.07
8 -3 -5 102.03 11.76
-8 -3 5 114.96 16.06
-8 -3 4 48.92 8.28
-8 -3 4 38.06 8.83
8 -3 -4 40.02 7.57
8 -3 -4 40.73 8.7
-8 -3 4 45.63 10.31
-8 -3 3 42.52 8.1
-8 -3 3 36.65 7.66
8 -3 -3 49.63 8.63
8 -3 -3 30.31 7.14
-8 -3 3 35.35 8.34
-8 -3 2 135.36 13.74
-8 -3 2 95.62 12.21
8 -3 -2 111.74 13.33
8 -3 -2 113.48 13.26
-8 -3 2 105.74 14.08
-8 -3 1 63.24 9.5
-8 -3 1 50.87 9.46
8 -3 -1 53.22 8.88
8 -3 -1 48.35 9.32
-8 -3 1 50.89 10.22
-8 -3 0 6.76 4.95
8 -3 0 3.05 2.72
8 -3 0 6.8 5.12
-8 -3 0 5.65 5.28
-8 -3 -1 88.32 11.68
8 -3 1 85.02 10.05
8 -3 1 98.41 12.88
-8 -3 -1 96.26 13.54
-8 -3 -2 42.39 8.7
8 -3 2 33.77 6.49
8 -3 2 33.21 8.39
-8 -3 -3 42.02 9
8 -3 3 36 6.84
8 -3 3 39.14 8.67
-8 -3 -4 69.26 11.55
8 -3 4 56.71 10.75
-8 -3 -5 20.89 7.63
8 -3 5 10.61 5.38
-8 -3 -6 3.42 5.31
8 -3 6 11.4 7.79
-8 -3 -7 8.37 5.56
8 -3 7 -2.38 5.65
-8 -3 -8 3.77 4.86
8 -3 8 4.27 5.74
8 -3 9 0.31 4.38
8 -2 -11 -12.39 11.88
-8 -2 11 -1.44 7.8
8 -2 -10 4.94 7.64
-8 -2 10 26.64 10.4
8 -2 -9 13.6 9.9
-8 -2 9 21.81 9.88
8 -2 -8 41.01 11.9
-8 -2 8 49.62 11.8
8 -2 -7 46.92 8.98
8 -2 -7 38.2 11.16
-8 -2 7 52.97 12.2
8 -2 -6 57.57 9.15
8 -2 -6 58.38 11.52
-8 -2 6 47.81 10.55
8 -2 -5 16.14 5.32
8 -2 -5 15.82 6.14
-8 -2 5 20.21 8.04
8 -2 -4 97.16 11.94
-8 -2 4 89.83 13.53
8 -2 -4 97.02 11.26
-8 -2 3 210.13 16.57
8 -2 -3 226.65 17.14
-8 -2 3 211.16 19.3
8 -2 -3 223.8 16.84
-8 -2 2 31.24 6.31
8 -2 -2 33.16 7.19
8 -2 -2 36.9 7.42
-8 -2 2 23.19 6.13
-8 -2 1 293.22 18.86
8 -2 -1 293.7 18.42
-8 -2 1 314.86 22.82
8 -2 -1 321.34 20.14
-8 -2 0 149.82 13.78
8 -2 0 128.72 11.42
-8 -2 0 147.53 16.06
8 -2 0 147.57 14.27
-8 -2 -1 153.3 13.86
8 -2 1 123.09 10.5
8 -2 1 119.82 13.24
-8 -2 -1 125.11 14.93
-8 -2 -2 170.77 15.12
8 -2 2 161.63 11.89
8 -2 2 178.78 16.63
-8 -2 -2 169.71 16.86
-8 -2 -3 25.08 6.89
8 -2 3 26.98 5.2
8 -2 3 15.89 6
-8 -2 -4 56.72 9.85
8 -2 4 54.48 10.29
-8 -2 -5 -0.77 4.39
8 -2 5 7.28 6.25
-8 -2 -6 21.61 7.52
8 -2 6 22.62 6.95
-8 -2 -7 31.1 8.9
8 -2 7 29.8 8.61
-8 -2 -8 2.52 5.81
8 -2 8 11.54 7.16
-8 -2 -9 18.55 7.34
8 -2 9 19.07 8.66
8 -2 10 2.79 4.92
8 -1 -11 31.51 14.78
-8 -1 11 12.57 7.36
-8 -1 10 -2.52 6.37
8 -1 -9 55.74 9.98
-8 -1 9 55.34 13.61
8 -1 -8 65.74 15.37
8 -1 -8 65.05 10.36
-8 -1 8 70.75 13.54
8 -1 -7 1 3.81
8 -1 -7 5.33 5.66
-8 -1 7 4.83 5.95
8 -1 -6 28.15 7.01
8 -1 -6 38.88 9.84
-8 -1 6 30.06 8.81
8 -1 -5 600.27 28.37
8 -1 -5 651.51 32.88
-8 -1 5 560.09 21.3
-8 -1 5 634.59 34.46
8 -1 -4 115.56 12.55
8 -1 -4 122.65 13.12
-8 -1 4 129.59 10.82
-8 -1 4 126.21 15
8 -1 -3 49.89 8.71
-8 -1 3 48.22 6.97
8 -1 -3 58.25 8.78
-8 -1 3 50.41 7.47
-8 -1 3 56.36 10.33
8 -1 -2 348.15 20.62
-8 -1 2 302.32 16.95
8 -1 -2 323.98 18.45
-8 -1 2 349.05 18.88
-8 -1 2 353.23 23.21
-8 -1 1 274.38 15.63
8 -1 -1 286.51 15.93
-8 -1 1 314.28 18.67
-8 -1 1 282.69 20.85
8 -1 -1 306.06 19.34
8 -1 0 24.49 4.7
8 -1 0 18.09 5.2
-8 -1 0 26.86 6.48
-8 -1 0 29.64 7.52
8 -1 1 179.07 10.76
-8 -1 -1 202.81 15.61
-8 -1 -1 197.48 17.39
8 -1 1 210.45 16.51
-8 -1 -2 144.87 13.88
8 -1 2 160.67 9.56
-8 -1 -2 142.89 14.73
8 -1 2 156.1 14.62
-8 -1 -3 59.49 9.59
8 -1 3 50.01 8.87
-8 -1 -4 187.09 16.4
8 -1 4 195.13 17.17
-8 -1 -5 212.34 18.44
8 -1 5 181.19 17.32
-8 -1 -6 16.36 6.77
8 -1 6 12.68 6.6
-8 -1 -7 25.29 7.42
8 -1 7 42.46 9.94
-8 -1 -8 39.66 9.52
8 -1 8 30.6 8.74
-8 -1 -9 7.82 6.4
8 -1 9 2.11 5.07
-8 -1 -10 5.83 7.45
8 -1 10 9.92 6.9
8 -1 11 1.36 5.92
-8 0 11 -4.22 6.5
8 0 -11 -17.27 11.38
-8 0 10 50.26 13.69
8 0 -10 35.54 10.51
8 0 -10 44.58 10.49
8 0 -9 2.05 6.87
8 0 -9 4.43 5.18
-8 0 9 2.24 4.65
8 0 -8 -0.5 6.66
8 0 -8 2.77 3.81
-8 0 8 4.23 4.12
8 0 -7 104.3 14.73
8 0 -7 120.03 14.34
-8 0 7 116.92 16.3
-8 0 6 -1.16 3.04
8 0 -6 9.96 5.28
-8 0 6 1 4.18
-8 0 5 96.98 9.77
8 0 -5 88.49 11.72
-8 0 5 91.94 13.09
8 0 -4 1.99 3.53
-8 0 4 6.63 3.58
-8 0 4 1.67 4.28
8 0 -3 602.49 29.11
-8 0 3 543.6 19.97
-8 0 3 575.13 23.88
-8 0 3 592.99 29.65
8 0 -2 392.01 22.99
-8 0 2 368.54 14.83
8 0 -2 386.53 18.51
-8 0 2 385.32 20.11
-8 0 2 386.97 23.05
8 0 -1 292.24 19.81
8 0 -1 285.66 14.47
-8 0 1 296.91 17.54
-8 0 1 270.83 19.21
8 0 0 912.34 34.78
8 0 0 848.67 22.19
-8 0 0 964.4 32.02
-8 0 0 904.62 34.76
8 0 1 190.73 8.87
-8 0 -1 201.46 15.41
-8 0 -1 200.83 16.09
8 0 1 197.4 16.55
-8 0 -2 201.87 15.65
8 0 2 187.69 16.15
-8 0 -3 208.7 16.31
8 0 3 186.2 16.33
-8 0 -4 28.81 7.06
8 0 4 33.65 8.35
-8 0 -4 30.48 7.86
-8 0 -5 9.4 5.12
8 0 5 15.22 5.49
-8 0 -6 130.99 14.86
8 0 6 120.36 14.06
-8 0 -7 34.24 8.31
8 0 7 37.27 8.52
-8 0 -8 18.52 6.74
8 0 8 19.71 7.04
-8 0 -9 20.48 8.01
8 0 9 23.68 7.76
8 0 9 24.15 8.18
-8 0 -10 26.33 8.77
8 0 10 26.5 8.74
8 0 10 24.73 8.59
8 0 11 20.82 8.29
-8 1 12 9.07 8.69
8 1 -12 10.69 6.98
-8 1 11 7.62 7.86
8 1 -11 -12.08 10.16
8 1 -11 4.97 6.35
-8 1 10 1.56 5.48
8 1 -10 8.39 6.1
-8 1 9 38.88 11.4
8 1 -9 33.76 9.48
8 1 -9 37.06 9.75
-8 1 8 84.48 14.4
-8 1 8 82.13 11.2
8 1 -8 68.74 12.99
8 1 -8 74.83 13.06
-8 1 7 3.4 3.03
8 1 -7 3.11 5.27
8 1 -7 -0.12 5.37
-8 1 7 -1.77 4.91
-8 1 6 36.52 7.37
8 1 -6 19.2 5.76
8 1 -6 32.7 8.64
-8 1 6 20.78 6.98
8 1 -5 551.08 30.22
-8 1 5 580.97 27.37
8 1 -5 565.33 30.68
-8 1 5 552.71 30.12
8 1 -4 163.37 16.5
-8 1 4 197.8 15.95
8 1 -4 164.59 15.84
-8 1 4 153.36 15.28
-8 1 3 39.21 3.74
8 1 -3 46.66 9.18
-8 1 3 53.15 8.73
-8 1 3 36.43 6.62
8 1 -2 323.64 22.01
-8 1 2 342.51 20.16
-8 1 2 320.21 19.95
8 1 -1 392.53 24.1
-8 1 1 379.37 21.02
-8 1 1 354.62 20.7
8 1 0 33.71 8.29
8 1 0 27.74 4
-8 1 0 25.69 5.86
-8 1 0 26.66 6.29
8 1 1 245.91 18.99
8 1 1 212.14 7.46
-8 1 -1 250.41 17.82
-8 1 -1 234.66 16.14
8 1 2 159.83 15.04
-8 1 -2 165.65 15.26
8 1 3 57.03 9.59
-8 1 -3 57.84 9.41
-8 1 -4 221.59 17.3
8 1 4 221.66 17.94
-8 1 -5 185.19 16.85
-8 1 -5 231.4 18.43
8 1 5 207.4 17.86
-8 1 -6 12.69 5.47
8 1 6 16.99 6.21
-8 1 -6 20.28 6.47
-8 1 -7 51.2 9.66
8 1 7 40.63 9.13
-8 1 -8 26.9 7.58
8 1 8 37.92 8.8
-8 1 -9 2.23 4.86
8 1 9 10.14 6.39
8 1 9 1.61 4.37
-8 1 -10 1.33 5.26
8 1 10 1.71 5.95
8 1 10 -2.49 4.51
-8 1 -11 9.94 8.13
8 1 11 -0.01 4.66
-8 2 12 8 9.38
8 2 -12 6.68 8.22
-8 2 11 20.53 10.25
8 2 -11 5.47 6.67
8 2 -11 7.25 8.14
-8 2 10 32.98 11.44
8 2 -10 9.84 7.82
8 2 -10 16.05 7.64
-8 2 9 22.23 9.28
-8 2 9 19.48 6.66
8 2 -9 20.7 8.89
8 2 -9 13.06 7.19
-8 2 8 53.96 12.06
-8 2 8 39.75 8.71
8 2 -8 62.54 12.44
8 2 -8 54.28 12.5
-8 2 7 59.11 11.27
-8 2 7 55.24 10.33
8 2 -7 46.88 10.92
8 2 -7 48.92 10.61
-8 2 6 68.43 11.28
8 2 -6 61.99 11.37
8 2 -6 63.76 12.29
-8 2 6 67.64 11.51
-8 2 5 4.06 3.8
8 2 -5 9.17 4.64
8 2 -5 11.38 6.16
-8 2 5 5.14 4
8 2 -4 170.45 17.71
-8 2 4 153.23 15.29
8 2 -4 140.49 14.4
-8 2 4 134.2 13.52
8 2 -3 216.76 19.15
-8 2 3 233.88 18.75
8 2 -3 199.44 16.93
-8 2 3 206.59 16.09
8 2 -2 29.97 5.93
8 2 -2 39.57 8.18
-8 2 2 42.21 7.05
-8 2 2 53.35 9.99
8 2 -1 349.9 23.89
-8 2 1 339.64 21.89
-8 2 1 321.28 18.2
8 2 0 145.64 15.23
-8 2 0 131.37 13.58
-8 2 0 144.83 11.82
8 2 1 140.9 15.09
-8 2 -1 126.2 13.44
8 2 2 163.64 16.01
-8 2 -2 189.05 16.54
-8 2 -3 29.12 7.76
8 2 3 16.69 5.63
-8 2 -4 90.92 12.35
8 2 4 77.23 11.26
8 2 5 22.11 7.37
-8 2 -5 9.5 5.05
-8 2 -6 31.62 8.15
8 2 6 35.59 8.25
-8 2 -6 29.43 8.1
-8 2 -7 31.97 8.42
8 2 7 29.96 7.2
-8 2 -8 2.98 4.8
8 2 8 4.99 4.78
-8 2 -8 15.14 7.55
-8 2 -9 17.02 7.71
8 2 9 21.75 10.28
8 2 9 18.32 7.12
-8 2 -10 0.9 4.43
8 2 10 1.25 4.76
-8 2 -11 0.05 5.37
-8 3 11 8.28 7.35
8 3 -11 5.31 8.08
-8 3 10 8.23 7.45
-8 3 10 14.42 7.78
8 3 -10 16.96 9.47
8 3 -10 7.91 7.97
-8 3 9 15.99 7.94
8 3 -9 14.14 8.81
-8 3 9 14.65 7.99
8 3 -9 29.12 10.34
-8 3 8 30.32 9.43
-8 3 8 20.85 8.08
8 3 -8 37.6 10.28
8 3 -8 33.35 10.75
-8 3 7 33.73 8.72
-8 3 7 13.44 5.55
8 3 -7 39.56 10.53
8 3 -7 36.46 11.02
-8 3 6 20.93 7.82
8 3 -6 20.21 7.26
8 3 -6 19.97 8.48
-8 3 6 15.46 5.55
8 3 -5 119.38 16.61
-8 3 5 109.01 15.27
8 3 -5 134.35 15.97
-8 3 5 106.63 12.3
-8 3 4 50.57 10.21
8 3 -4 39.39 8.61
8 3 -4 52.45 11.09
-8 3 4 53.47 8.19
-8 3 3 34.94 8.95
8 3 -3 22.22 6.39
8 3 -3 36.84 9.66
-8 3 3 24.15 5.38
8 3 -2 166.47 17.42
-8 3 2 163.71 17.7
8 3 -2 155.68 14.07
-8 3 2 158.23 11.8
8 3 -1 45.81 7.21
8 3 -1 46.96 9.68
-8 3 1 48.19 9.63
8 3 0 1.83 3.93
-8 3 0 -14.38 8.55
8 3 1 108.48 13.4
-8 3 -1 113.14 13.37
8 3 2 41.99 8.85
-8 3 -2 43.11 8.38
8 3 3 44.32 9.03
-8 3 -3 52.27 9.86
-8 3 -4 52.87 10.61
8 3 4 41.96 8.6
8 3 5 18.28 6.37
-8 3 -5 30.72 8.66
8 3 6 6.85 5.61
-8 3 -6 1.57 4.53
-8 3 -7 3.25 4.27
8 3 7 10.6 6.41
8 3 7 1.14 3.93
-8 3 -7 9.86 6.73
-8 3 -8 5.03 5.24
-8 3 -8 5.99 5.51
-8 3 -9 1.1 4.58
8 3 9 0.08 6.48
-8 3 -9 7.66 6.05
-8 3 -10 0.01 4.21
-8 4 11 11.72 9.78
-8 4 10 11.66 8.67
-8 4 9 0.56 5.77
8 4 -9 10.03 8.56
-8 4 9 1.57 5.59
8 4 -9 8.02 8.82
-8 4 8 22.75 10.46
8 4 -8 18.01 9.74
8 4 -8 33.57 11.29
-8 4 8 19.81 9.91
-8 4 7 23.11 8.6
8 4 -7 21.9 9.55
8 4 -7 21.49 9.25
-8 4 6 14.93 7.71
8 4 -6 24.07 8.85
8 4 -6 11.72 7.69
-8 4 5 11.33 7.27
8 4 -5 7.87 5.57
8 4 -5 18.17 7.27
-8 4 4 85.2 14.56
8 4 -4 84.92 12.51
8 4 -4 75.41 13.77
-8 4 3 16.96 7.48
8 4 -3 17.07 5.81
8 4 -3 19.49 7.33
-8 4 2 22.6 7.44
8 4 -2 15.29 5.24
8 4 -2 16.55 8.03
8 4 -1 7.57 6.18
-8 4 1 20.83 8.03
8 4 -1 8.1 3.65
8 4 0 31.23 5.66
8 4 0 34.44 8.49
8 4 1 26.76 7.83
-8 4 -1 12.31 5.41
8 4 2 3.55 4.16
-8 4 -2 -6.98 7.33
8 4 3 18.19 7
-8 4 -3 3.77 4.35
8 4 4 -7.45 6.32
-8 4 -4 14.78 7.06
8 4 5 6.32 4.94
-8 4 -5 21.64 8.28
8 4 6 6.73 4.94
-8 4 -6 22.59 8.13
8 4 7 4.73 4.71
-8 4 -7 6.12 5.69
-8 4 -8 -0.14 3.78
-8 4 -8 5.29 6.14
-8 5 8 16.38 11.11
8 5 -8 5.86 7.51
-8 5 8 -9.81 7.86
-8 5 7 5.35 6.48
8 5 -7 18.07 9.07
8 5 -7 2.08 7.69
-8 5 6 12.73 7.44
8 5 -6 31.48 9.79
8 5 -6 16.59 10.01
-8 5 5 15.96 6.96
8 5 -5 11.1 7.92
8 5 -5 27.63 9.05
-8 5 4 7.96 6.93
8 5 -4 30.12 8.67
8 5 -4 22.48 9.8
-8 5 3 16.2 8.94
8 5 -3 15.42 6.23
8 5 -3 14.33 7.11
-8 5 2 31.5 11.2
8 5 -2 13.25 7.49
-8 5 1 4.82 6.36
8 5 -1 9.72 6.06
-8 5 0 23.58 10.38
8 5 0 -8.95 6.98
8 5 1 8.86 7.14
-8 5 -1 19.33 8.15
8 5 2 21.9 7.8
-8 5 -2 -2.27 6.18
8 5 3 10.07 6.64
-8 5 -3 -8 7.44
8 5 4 25.45 8.29
-8 5 -4 -9.35 7.66
8 5 5 6.65 5.13
-8 5 -5 22.2 8.88
-8 5 -6 8.94 6.52
8 6 -7 0.01 6.68
8 6 -6 0.01 4.96
8 6 -5 2.83 6.2
-8 6 4 2.38 7.15
8 6 -4 15.36 10.46
-8 6 3 4.89 5.85
8 6 -3 3.15 5.51
-8 6 2 12.86 7.15
8 6 -2 2.38 6.35
-8 6 1 8.75 8.01
8 6 -1 5.23 5.76
-8 6 0 4.61 6.82
8 6 0 1.47 5.36
8 6 1 -0.31 5.36
-8 6 -1 10.28 6.95
8 6 2 2.5 4.95
-8 6 -2 -29.37 10.28
8 6 3 7.96 6.71
-8 6 -3 -21.43 9.29
8 7 -1 4.57 8.87
8 7 0 7.17 7.19
9 -6 -3 -9.81 6.43
-9 -6 2 3.55 5.87
9 -6 -2 -7.38 5.9
9 -6 -1 4.76 5.77
9 -6 0 1.31 4.6
9 -6 0 0.07 4.75
9 -6 1 6.31 4.58
9 -6 1 -4.86 5.95
9 -6 2 1.06 3.53
9 -6 2 5.39 7.38
-9 -6 -4 -2.69 6.6
-9 -5 7 -15.82 8.64
-9 -5 6 -1.83 5.95
9 -5 -6 12.31 8.22
-9 -5 6 -12.91 8.06
-9 -5 5 6.16 5.59
9 -5 -5 2.36 4.8
-9 -5 5 -1.03 5.73
-9 -5 4 -3.14 4.85
9 -5 -4 0.18 4.81
-9 -5 4 3.62 6.29
-9 -5 3 13.99 7.07
9 -5 -3 11.5 6.4
-9 -5 3 4.34 4.96
-9 -5 2 9.74 7.12
9 -5 -2 0.66 4.71
9 -5 -2 -6.82 5.64
-9 -5 2 15.59 6.61
-9 -5 1 4.15 4.82
9 -5 -1 -2.76 4.6
9 -5 -1 -4.48 5.59
-9 -5 1 10.64 7.5
9 -5 0 0.5 3.98
9 -5 0 6.57 6.47
-9 -5 0 14.15 9.02
-9 -5 -1 11.22 8.35
9 -5 1 15.5 6.3
9 -5 1 6.1 6.12
9 -5 2 2.22 4.12
9 -5 2 -0.13 5.05
-9 -5 -3 -1.39 5.67
9 -5 3 12.17 9.21
-9 -5 -4 1.5 5.36
9 -5 4 2.88 6.27
-9 -5 -5 -15.52 8.59
9 -4 -8 -17.13 9.16
-9 -4 8 6.32 7.1
9 -4 -7 15.82 8.2
-9 -4 7 11.57 6.55
-9 -4 6 5.22 4.9
9 -4 -6 17.3 7.91
-9 -4 6 26.81 10.4
-9 -4 5 19.65 8.47
9 -4 -5 21.93 8.22
-9 -4 5 17.13 7.27
-9 -4 4 17.77 7.19
9 -4 -4 22.89 8.38
9 -4 -4 17.14 6.82
-9 -4 4 20.73 7.42
-9 -4 3 61.39 11.66
9 -4 -3 55.36 11.13
9 -4 -3 44.96 9.79
-9 -4 3 59.79 11.66
-9 -4 2 8.12 5.59
9 -4 -2 2.48 3.33
9 -4 -2 1.51 4.91
-9 -4 2 -1.52 5.37
-9 -4 1 27.74 8.44
-9 -4 1 32.93 8.4
9 -4 -1 36.52 8.29
9 -4 -1 25.52 7.46
-9 -4 1 26 8.39
-9 -4 0 35.46 9.89
9 -4 0 11.78 4.72
9 -4 0 38.35 9.75
-9 -4 0 33.66 9.52
-9 -4 -1 22.31 9.09
9 -4 1 10.26 4.99
9 -4 1 6.02 4.67
-9 -4 -1 18.72 8.14
-9 -4 -2 19.62 8.1
9 -4 2 11.15 4.77
9 -4 2 17.78 7.28
-9 -4 -3 34.76 9.91
9 -4 3 31.32 9.31
-9 -4 -4 10.66 7.45
9 -4 4 -5.22 5.84
-9 -4 -5 3.91 6.09
9 -4 5 2.74 7.06
-9 -4 -6 21.82 8.46
9 -4 6 18.61 8.81
9 -3 -9 11.25 10.55
-9 -3 9 10.62 7.88
9 -3 -8 28.56 11.14
-9 -3 8 25.46 10.45
9 -3 -7 19.53 9.11
-9 -3 7 21.36 9.51
9 -3 -6 42.36 11.06
-9 -3 6 52.33 12.35
-9 -3 5 34.08 8.94
9 -3 -5 19.67 6.61
9 -3 -5 35.73 8.55
-9 -3 5 30.59 9.91
-9 -3 4 30.63 7.64
9 -3 -4 39.26 8.39
9 -3 -4 31.87 8.08
-9 -3 4 23.41 8.01
-9 -3 3 42.54 8.64
-9 -3 3 33.53 8.23
9 -3 -3 41.79 8.72
9 -3 -3 40.66 9.05
-9 -3 3 38.25 9.32
-9 -3 2 51.67 9.51
-9 -3 2 54.28 9.79
9 -3 -2 54.84 9.62
9 -3 -2 48.6 9.21
-9 -3 2 51.7 11.05
-9 -3 1 101.07 12.82
-9 -3 1 87.61 11.79
9 -3 -1 78.71 10.83
9 -3 -1 95.39 12.93
-9 -3 1 101.18 14.91
-9 -3 0 5.45 4.98
9 -3 0 5.87 3.1
9 -3 0 11.5 5.97
-9 -3 0 12.55 6.56
-9 -3 -1 47.84 9.39
9 -3 1 48.16 7.79
9 -3 1 56.29 10.8
-9 -3 -1 49.44 10.78
-9 -3 -2 70.6 11.12
9 -3 2 69.49 9.09
9 -3 2 72.55 12.27
-9 -3 -3 15.64 6.51
9 -3 3 23.47 8.32
-9 -3 -4 34.79 8.73
9 -3 4 35.7 9.88
-9 -3 -5 0.77 3.95
9 -3 5 7.78 5.39
-9 -3 -6 10.23 6.1
9 -3 6 15.77 7.77
-9 -3 -7 5.4 5.49
9 -3 7 15.49 7.61
9 -2 -10 15.49 11.14
-9 -2 10 16.63 9.04
9 -2 -9 9.68 9.35
-9 -2 9 9.39 7.6
9 -2 -8 21.8 9.68
-9 -2 8 30.52 9.7
9 -2 -7 44.5 11.51
-9 -2 7 52.36 12.75
9 -2 -6 95.93 12.65
9 -2 -6 91.45 14.36
-9 -2 6 93.92 15.01
9 -2 -5 22.56 6.88
9 -2 -5 35.68 7.72
-9 -2 4 75.27 10.62
9 -2 -4 83.88 11.78
9 -2 -4 85.14 11.73
-9 -2 4 94.6 14.28
-9 -2 3 203.08 16.76
9 -2 -3 217.93 18.25
-9 -2 3 214.91 20.39
9 -2 -3 227.75 18.15
-9 -2 2 14.85 5.25
9 -2 -2 17.87 5.65
9 -2 -2 27.77 7.51
-9 -2 2 16.5 5.88
-9 -2 1 69 9.61
9 -2 -1 76.68 9.84
9 -2 -1 84.5 11.49
-9 -2 1 75.91 12.39
-9 -2 0 127.93 13.57
9 -2 0 116.55 11.25
-9 -2 0 119.84 15.28
9 -2 0 141.11 14.55
-9 -2 -1 7.49 4.87
9 -2 1 11.25 3.67
9 -2 1 15.11 6.93
-9 -2 -1 11.58 6.21
-9 -2 -2 89.15 11.97
9 -2 2 89.5 12.31
-9 -2 -2 105.7 14.27
-9 -2 -3 21.75 6.56
9 -2 3 31.49 8.17
-9 -2 -4 77.06 11.76
9 -2 4 89.6 13.16
-9 -2 -5 50.97 10.4
9 -2 5 44.93 9.97
-9 -2 -6 7.32 5.22
9 -2 6 12.95 6.91
-9 -2 -7 12.49 7.08
9 -2 7 10.57 7.16
-9 -2 -8 15.33 7.51
9 -2 8 7.62 7.81
9 -1 -10 6.16 7.72
-9 -1 10 -15.2 11.32
9 -1 -9 19.61 10.64
-9 -1 9 25.81 10.78
9 -1 -8 60.16 10.97
9 -1 -8 84.77 15.98
-9 -1 8 57.31 12.91
9 -1 -7 40.84 8.96
9 -1 -7 22.2 8.43
-9 -1 7 31.34 10.28
9 -1 -6 100.29 13.27
9 -1 -6 114.31 15.93
-9 -1 6 85.7 14.53
9 -1 -5 88.18 12.31
9 -1 -5 92.65 12.83
-9 -1 5 84.23 13.74
9 -1 -4 92.67 12.32
-9 -1 4 85.79 10.24
9 -1 -4 100.54 12.08
-9 -1 4 99.65 10.37
-9 -1 4 90.54 13.78
9 -1 -3 33.43 7.94
-9 -1 3 23.32 5.18
9 -1 -3 21.75 5.67
-9 -1 3 32.81 6.51
-9 -1 3 24.45 7.65
9 -1 -2 406.65 24.07
-9 -1 2 363.9 18.96
9 -1 -2 389.43 20.79
-9 -1 2 440.6 22.78
-9 -1 2 408.46 26.75
9 -1 -1 229.99 15.21
-9 -1 1 277.42 18.75
-9 -1 1 240.32 20.38
9 -1 -1 238.19 18.72
9 -1 0 12.12 3.47
9 -1 0 17.83 6.93
-9 -1 0 23.34 6.16
-9 -1 0 13.76 6.26
9 -1 1 410.67 16.67
-9 -1 -1 433.93 26.87
9 -1 1 444.9 25.74
-9 -1 -2 164.69 15.76
9 -1 2 174.19 16.74
-9 -1 -3 38.77 8.3
9 -1 3 39.97 9.33
-9 -1 -4 62.19 10.19
9 -1 4 67.4 11.44
-9 -1 -5 12.02 6.35
9 -1 5 6.15 5.46
-9 -1 -6 5.4 4.82
9 -1 6 7.57 5.75
-9 -1 -7 12.34 7.21
9 -1 7 24.51 8.79
-9 -1 -8 12.54 6.49
9 -1 8 18.57 7.98
-9 -1 -9 11.4 7.08
9 -1 9 15.93 8.3
-9 0 11 18.17 10.21
9 0 -10 0.65 7.5
9 0 -10 5.44 5.33
-9 0 10 -7.7 8.38
9 0 -9 8.91 5.74
9 0 -9 -5.67 8.27
-9 0 9 17.17 9.14
9 0 -8 -2.12 5.02
-9 0 8 13.47 7.11
9 0 -7 156.11 17.1
-9 0 7 170.46 20.82
9 0 -6 33.87 8.42
-9 0 6 31.96 6.27
-9 0 6 45.05 10.03
9 0 -5 -0.15 3.86
-9 0 5 7.08 3.64
-9 0 5 7.16 5.27
9 0 -4 487.7 28.09
-9 0 4 427.16 19.32
-9 0 4 475.89 23.03
-9 0 4 442.88 28.07
-9 0 3 9.71 3.02
9 0 -3 14.39 5.63
9 0 -3 15.01 5.17
-9 0 3 9.06 4.8
-9 0 3 15.1 6.7
9 0 -2 9.68 5.79
9 0 -2 9.75 3.97
-9 0 2 10.77 4.79
-9 0 2 5.73 3.49
9 0 -1 86.63 11.79
9 0 -1 92.12 8.74
-9 0 1 112.93 11.99
-9 0 1 84.64 11.67
9 0 0 105.1 13.31
9 0 0 106.28 8.4
-9 0 0 95.86 11.13
-9 0 0 120.11 13.97
9 0 1 2.27 4.72
-9 0 -1 7.37 4.93
-9 0 -1 -0.51 3.51
9 0 2 24.67 6.84
-9 0 -2 32.08 7.38
9 0 3 108.13 13.4
-9 0 -3 106.78 12.92
-9 0 -4 8.23 5.49
9 0 4 19.3 6.78
-9 0 -4 15.8 5.88
-9 0 -5 12.12 6.02
9 0 5 8.69 5.65
-9 0 -6 23.19 6.87
9 0 6 7.66 5.25
-9 0 -7 6.05 5.11
9 0 7 -2.11 4.31
-9 0 -8 3.79 4.69
9 0 8 -4.59 5.3
-9 0 -9 4.17 5.06
9 0 9 3.13 5.28
9 0 9 7.36 5.16
9 0 10 -0.01 5.72
-9 1 11 10.04 7.09
9 1 -11 11.28 7.36
9 1 -10 -3.53 8.9
9 1 -10 7.4 6.74
-9 1 10 4.85 7.93
9 1 -9 7.42 5.87
9 1 -9 13.04 7.32
-9 1 9 20.36 9.32
9 1 -8 65.1 12.84
9 1 -8 72.55 13.19
-9 1 8 68.97 13.75
-9 1 7 43.89 8.5
9 1 -7 37.38 9.43
9 1 -7 48.59 10.97
-9 1 7 32.12 9.18
9 1 -6 108.48 15.09
9 1 -6 89.23 13.5
-9 1 6 96.32 12.52
-9 1 6 88.71 14.03
-9 1 5 97.89 12.19
9 1 -5 102.84 13.71
-9 1 5 100.6 13.79
9 1 -4 59.26 10.56
-9 1 4 65.83 10.91
-9 1 4 64.4 9.96
9 1 -3 46.14 9.53
-9 1 3 46.75 8.5
-9 1 3 35.21 6.87
9 1 -2 381.38 25.51
-9 1 2 342 21.45
-9 1 2 332.4 21.64
9 1 -1 236.98 19.76
-9 1 1 244.26 18.36
-9 1 1 237.89 18.02
9 1 0 25.68 8.18
-9 1 0 17.47 5.37
-9 1 0 29.83 7.81
9 1 1 409.32 25.79
-9 1 -1 437.43 24.67
-9 1 -1 383.54 22.27
-9 1 -2 193.49 16.95
9 1 2 182.39 17.47
9 1 3 40.56 9.07
-9 1 -3 33.59 8.59
9 1 4 52.78 9.68
-9 1 -4 75.48 11.37
-9 1 -5 -7.46 6.38
9 1 5 13.52 6.81
-9 1 -5 11.94 6.82
-9 1 -6 11.46 4.88
9 1 6 6.94 5.63
-9 1 -6 20.03 7.07
-9 1 -7 10.43 5.57
9 1 7 4.57 5.82
-9 1 -8 17.34 7.15
9 1 8 14.64 6.64
-9 1 -9 9.54 6.26
9 1 9 3.42 5.88
9 1 9 8.43 6.54
9 1 10 0.01 5.48
9 1 10 4.24 6.53
-9 2 11 7.81 8.41
9 2 -11 11.8 8.84
-9 2 10 21.55 9.73
9 2 -10 8.55 6.59
9 2 -10 9.98 8.08
9 2 -9 -7.37 7.5
9 2 -9 4.66 6.99
-9 2 9 5.59 5.37
-9 2 8 12.94 6.14
9 2 -8 13.47 6.9
9 2 -8 15.12 7.24
-9 2 8 6.05 5.56
-9 2 7 53.98 10.68
9 2 -7 38.07 10.26
9 2 -7 53.4 12.02
-9 2 7 55.53 11.33
-9 2 6 114.22 14.29
9 2 -6 110.61 15.12
9 2 -6 103.12 15.82
-9 2 6 96.78 13.89
-9 2 5 24.86 7.58
9 2 -5 21.3 7.41
9 2 -5 33.13 9.61
-9 2 5 29.8 7.95
9 2 -4 84.24 13.36
9 2 -4 87.08 12.83
-9 2 4 108.07 14.01
-9 2 4 84.13 11.59
9 2 -3 250.43 21.72
-9 2 3 255.84 20.94
-9 2 3 245.61 18.28
9 2 -2 11.68 6.47
-9 2 2 9.14 4.2
-9 2 2 6.75 4.26
9 2 -1 78.93 12.5
-9 2 1 89.77 10.61
-9 2 1 79.17 11.28
9 2 0 170.61 17.66
-9 2 0 162 15.47
-9 2 0 166.56 13.69
9 2 1 32.15 8.67
-9 2 -1 23.68 7.41
9 2 2 100.34 13.42
-9 2 -2 134.67 15.12
-9 2 -3 42.42 9.97
9 2 3 20.83 6.3
9 2 4 60.03 10.21
-9 2 -4 81.84 12.11
9 2 5 45.95 9.38
-9 2 -5 54.01 10.21
-9 2 -6 2.19 4.72
9 2 6 14.89 6.82
-9 2 -6 8.27 5.84
-9 2 -7 2.87 4.84
9 2 7 12.67 5.92
-9 2 -7 10.13 6.34
-9 2 -8 4.03 4.48
9 2 8 -1.4 4.56
-9 2 -9 1.32 4.45
9 2 9 4.61 6.71
9 2 9 -0.06 4.16
-9 3 11 0.34 5.38
-9 3 10 5.12 7.21
-9 3 9 26.2 9.62
-9 3 9 13.13 7.42
9 3 -9 22.32 10.54
9 3 -9 12.39 9.15
-9 3 8 23.29 8.76
9 3 -8 23.17 10.07
9 3 -8 21.3 8.78
-9 3 8 28.28 9.43
-9 3 7 20.16 7.66
9 3 -7 3.37 7.1
9 3 -7 17.1 8.93
-9 3 7 13.86 6.25
-9 3 6 67.19 13.22
9 3 -6 63.59 12.02
9 3 -6 54.14 12.27
-9 3 6 46.97 9.51
-9 3 5 41.04 9.93
9 3 -5 19.29 7.1
9 3 -5 33.02 9.48
-9 3 4 37.83 9.34
9 3 -4 15.89 5.31
9 3 -4 25.81 8.69
-9 3 3 52.11 11.13
9 3 -3 58.45 11.33
9 3 -3 48.43 9.22
9 3 -2 50.44 8.6
9 3 -2 35.69 8.85
-9 3 2 61.48 11.63
9 3 -1 100.97 14.57
-9 3 1 83.09 12.34
9 3 0 6.99 5.24
-9 3 0 -5.75 6.5
9 3 1 64.62 11.04
-9 3 -1 66.14 10.79
9 3 2 64.54 11.14
-9 3 -2 57.81 10.38
9 3 3 5.93 4.31
-9 3 -3 16.97 6.71
9 3 4 48.22 9.69
-9 3 -4 53.22 10.77
9 3 5 -1.36 4.87
-9 3 -5 19.91 7.39
9 3 6 3.14 4.81
-9 3 -6 -2.62 4.56
-9 3 -7 0.12 5.11
9 3 7 6.61 5.99
9 3 7 7.97 5.84
-9 3 -7 8.71 6
-9 3 -8 0.02 4.48
-9 3 -8 -0.1 5.3
-9 3 -9 -4.36 5.22
-9 4 10 -5.32 7.28
-9 4 9 3.9 5.84
-9 4 8 3.1 7.26
9 4 -8 5.37 7.52
9 4 -8 4.92 9.42
9 4 -7 11.55 7.68
-9 4 7 14.7 8.11
9 4 -7 14.74 8.41
-9 4 6 17.85 8.19
9 4 -6 16.67 8.1
9 4 -6 30.37 10.45
-9 4 5 35.79 10.37
9 4 -5 29.38 9.39
9 4 -5 33.58 10.77
-9 4 4 20.2 8.16
9 4 -4 14.93 5.7
9 4 -4 26.66 10.08
-9 4 3 53.8 11.75
9 4 -3 46.99 9.02
9 4 -3 45.63 11.53
9 4 -2 9.8 5.01
9 4 -2 -0.68 5.92
9 4 -1 31.34 9.34
-9 4 1 47.27 11.33
9 4 0 22.56 7.5
-9 4 0 13.22 5.87
9 4 1 5.59 5.22
-9 4 -1 8.78 5.57
9 4 2 18.43 7.09
-9 4 -2 14.97 6.32
9 4 3 39.81 10.02
-9 4 -3 31.39 8.49
-9 4 -4 1.12 5.06
9 4 4 -15.57 8.04
9 4 5 -9.57 5.67
-9 4 -5 9.94 6.56
9 4 6 17.3 7.38
-9 4 -6 34.64 9.57
-9 4 -7 4.62 6.36
9 4 7 6.18 5.62
-9 4 -8 3.67 4.89
9 5 -7 0.17 5.83
-9 5 6 2.38 6.1
9 5 -6 -15.13 7.84
-9 5 5 7.59 7.02
9 5 -5 4.25 5.13
9 5 -5 7.66 8.79
-9 5 4 2.95 6.32
9 5 -4 4.43 4.91
9 5 -4 13.21 9.05
-9 5 3 28.92 10.27
9 5 -3 14.99 8.44
-9 5 2 19.85 8.6
9 5 -2 6.6 5.71
-9 5 1 8.28 6.91
9 5 -1 -6.57 6.3
9 5 0 -3.19 6.92
-9 5 0 15.69 8.21
9 5 1 9.37 6.88
-9 5 -1 -12.29 10.21
9 5 2 -5.81 5.74
-9 5 -2 -12.69 9.21
9 5 3 4.41 5.35
-9 5 -3 1.77 4.76
9 5 4 -7.57 6.04
-9 5 -4 4.37 5.21
9 5 5 7.3 6.19
9 6 -2 4.91 6.87
9 6 -1 -9.27 6.85
9 6 0 0.74 6.12
9 6 1 -0.01 4.96
9 6 2 0.01 5.04
9 6 3 2.85 6.67
10 -6 -1 -4.88 4.96
10 -6 0 6.4 5.35
10 -6 1 -0.01 5.82
-10 -5 5 4.51 6.21
10 -5 -5 2.28 6.35
-10 -5 4 5.41 5.94
10 -5 -4 20.28 8.65
-10 -5 3 9.12 7.52
10 -5 -3 1.11 4.52
-10 -5 2 -6.34 5.55
10 -5 -2 -3.88 4.95
-10 -5 2 11.46 7.87
10 -5 -1 1.12 3.62
10 -5 -1 -8.36 6.83
-10 -5 1 10.2 7.29
10 -5 0 2.43 4.82
10 -5 0 1.15 5
-10 -5 0 7.15 6.74
10 -5 1 16.89 9.18
-10 -5 -2 3.05 6.75
10 -5 2 9.5 9.01
-10 -5 -3 12.43 8.42
10 -5 3 8.37 8.39
-10 -5 -4 14.71 8.7
-10 -4 7 4.92 6.08
10 -4 -7 5.17 6.27
-10 -4 6 21.53 9.99
10 -4 -6 21.67 9.29
-10 -4 6 14.91 8.9
-10 -4 5 -2.06 4.58
10 -4 -5 -0.87 4.69
-10 -4 5 -2.2 7.12
-10 -4 4 30.52 8.87
10 -4 -4 33.32 9.7
-10 -4 4 27.3 9.63
-10 -4 3 2.71 4.63
10 -4 -3 -0.11 4.23
10 -4 -3 6.5 5.7
-10 -4 3 -0.88 4.84
-10 -4 2 17.14 6.74
10 -4 -2 17.52 6.84
10 -4 -2 11.77 7.11
-10 -4 2 4.11 6.02
10 -4 -1 14.78 5.8
10 -4 -1 17.13 7.62
-10 -4 1 21.22 9.25
-10 -4 0 6.44 4.7
10 -4 0 5.89 4.21
10 -4 0 8.88 6.15
-10 -4 0 9.77 6.77
-10 -4 -1 19.59 8.63
10 -4 1 3.96 5.64
-10 -4 -1 11.26 7.02
-10 -4 -2 18.75 8.57
10 -4 2 -1.41 6.1
-10 -4 -3 8.05 6.74
10 -4 3 -2.18 5.95
-10 -4 -4 4.81 6.78
10 -4 4 2.46 5.76
-10 -4 -5 22.24 9.48
10 -3 -8 3.99 6.38
-10 -3 8 12.64 8.92
10 -3 -7 4.25 5.75
-10 -3 7 0.39 5.67
-10 -3 6 19.91 7.4
10 -3 -6 15.15 7.58
-10 -3 6 18.24 8.45
-10 -3 5 22.02 7.56
10 -3 -5 28.85 9.07
-10 -3 5 32.03 10.31
-10 -3 4 21.49 7.04
10 -3 -4 10.59 5.06
10 -3 -4 8.54 5.37
-10 -3 4 7.47 5.79
-10 -3 3 33.48 8.19
-10 -3 3 16.25 6.34
10 -3 -3 34.27 8.27
10 -3 -3 30.03 8.03
-10 -3 3 16.9 6.56
-10 -3 2 74.21 11.43
-10 -3 2 60.72 10.09
10 -3 -2 56.65 10.13
10 -3 -2 62.36 11.88
-10 -3 2 75.69 13.7
-10 -3 1 4.52 4.82
10 -3 -1 4.9 3.68
10 -3 -1 17.05 7.27
-10 -3 1 15.47 8.03
-10 -3 0 10.77 5.86
10 -3 0 22.99 6.05
10 -3 0 17.74 7.04
-10 -3 0 24.84 8.72
-10 -3 -1 53.78 10.46
10 -3 1 34.25 9.28
-10 -3 -1 56.66 11.75
-10 -3 -2 0.1 4.58
10 -3 2 -1.01 4.49
-10 -3 -3 5.61 5.95
10 -3 3 4.45 6.4
-10 -3 -4 12.11 6.91
10 -3 4 18.61 8.63
-10 -3 -5 9.66 5.59
10 -3 5 0.23 5.23
-10 -3 -6 9.1 6.22
10 -3 6 5.24 6.82
10 -2 -9 13.58 10.29
-10 -2 9 27.78 11.76
10 -2 -8 4.62 6.93
-10 -2 8 11.36 7.1
10 -2 -7 59.54 12.96
-10 -2 7 84.88 16.34
10 -2 -6 35.09 9.4
-10 -2 6 48.34 11.61
10 -2 -6 37.98 9.14
-10 -2 5 25.31 7.42
10 -2 -5 12.06 4.92
10 -2 -5 22.32 7.23
-10 -2 5 14.56 7.41
-10 -2 4 47.22 8.86
10 -2 -4 47.95 9.16
10 -2 -4 53.29 9.87
-10 -2 4 60.39 12.16
-10 -2 3 63.26 9.76
10 -2 -3 76.17 11.25
10 -2 -3 67.43 11.01
-10 -2 3 71.53 12.2
-10 -2 2 22.89 5.85
10 -2 -2 29.31 6.78
10 -2 -2 32.89 8.21
-10 -2 2 19.04 7.08
10 -2 -1 15.32 5.74
10 -2 -1 16.3 6.87
-10 -2 1 18.36 7.19
-10 -2 0 133.85 14.7
-10 -2 0 127.78 16.71
10 -2 0 146.46 15.89
-10 -2 -1 6.04 4.33
10 -2 1 16.81 6.83
-10 -2 -1 14.35 7
-10 -2 -2 21.37 7.17
10 -2 2 19.61 7.3
-10 -2 -3 85.13 13.08
10 -2 3 103.94 14.55
-10 -2 -4 11.46 6.03
10 -2 4 6.1 7.07
-10 -2 -5 19.96 7.78
10 -2 5 19.04 7.43
-10 -2 -6 11.6 6.65
10 -2 6 16.96 8.62
-10 -2 -7 12.3 7.27
10 -2 7 11.17 7.09
10 -1 -10 10.83 10.79
10 -1 -9 14.47 10.14
-10 -1 9 17.37 9.63
10 -1 -8 40.91 10.11
10 -1 -8 37.06 12.41
-10 -1 8 22.74 9.09
10 -1 -7 13.58 6.18
10 -1 -7 17.42 7.95
-10 -1 7 18.3 6.5
10 -1 -6 19.79 6.48
10 -1 -6 9.94 6.49
-10 -1 6 7.01 6.72
10 -1 -5 82.55 12.44
10 -1 -5 85.12 12.33
-10 -1 5 93.93 15
10 -1 -4 39.16 9
10 -1 -4 31.34 7.45
-10 -1 4 48.59 10.84
10 -1 -3 41.41 8.89
10 -1 -3 50.34 8.41
-10 -1 3 57.77 9.04
-10 -1 3 45.78 10.69
10 -1 -2 46.58 7.65
-10 -1 2 58.73 9.41
10 -1 -2 43.11 9.14
-10 -1 2 53.42 10.49
10 -1 -1 16.67 4.75
10 -1 -1 15.77 5.58
-10 -1 1 15.86 6.31
10 -1 0 -3.87 5.77
-10 -1 0 -1.79 3.63
-10 -1 0 0.08 4.03
10 -1 1 52.84 10.62
-10 -1 -1 49.72 10.4
-10 -1 -2 31.71 7.87
10 -1 2 34.47 8.57
-10 -1 -3 14.03 6.47
10 -1 3 14.24 6.55
-10 -1 -4 21.74 7.18
10 -1 4 15 6.09
-10 -1 -5 33.16 8.81
10 -1 5 24.31 7.64
-10 -1 -6 8.95 6.92
10 -1 6 -2.53 5.42
-10 -1 -7 -0.52 4.92
10 -1 7 4.87 5.87
10 -1 8 2.98 6.95
-10 0 10 4.04 6.48
10 0 -9 -3.64 4.97
-10 0 9 -2.75 5.54
10 0 -8 5.25 6.16
-10 0 8 15.59 7.63
10 0 -7 31.37 9.47
-10 0 7 40.8 9.87
10 0 -6 36.8 9.12
-10 0 6 34 9.21
10 0 -5 17.64 7.73
10 0 -5 15.72 6.6
-10 0 5 18.34 5.75
-10 0 5 10.82 6.37
10 0 -4 132.11 16.2
10 0 -4 145.86 14.86
-10 0 4 145.21 14.25
-10 0 4 136.64 16.7
10 0 -3 67.59 11.83
10 0 -3 53.49 8.38
-10 0 3 65.12 9.85
-10 0 3 58.08 10.69
10 0 -2 5.97 4.82
10 0 -2 1.89 3
-10 0 2 14.48 5.97
-10 0 2 3.45 4.21
10 0 -1 70.17 11.54
-10 0 1 68 9.96
-10 0 1 77.17 12.19
-10 0 0 45.58 8.76
-10 0 0 56.37 10.62
10 0 0 54.68 10.2
10 0 1 70.61 11.83
-10 0 -1 69.3 10.92
-10 0 -1 72.71 11.81
10 0 2 9.22 6.72
-10 0 -2 22.52 7.32
10 0 3 100.3 14.57
-10 0 -3 104.82 13.11
-10 0 -4 10.54 4.74
10 0 4 35.4 9.54
-10 0 -4 27.28 8.08
-10 0 -5 12.81 6.61
10 0 5 0.46 5.09
-10 0 -6 19.27 7.01
10 0 6 20.32 6.84
-10 0 -7 11.47 6.26
10 0 7 12.44 6.9
-10 0 -8 5.46 7.02
10 0 8 -11.51 7.02
10 1 -11 3.91 5.65
10 1 -10 9.75 7.62
-10 1 10 7.39 7.32
10 1 -9 5.99 6.68
10 1 -9 21.11 8.1
-10 1 9 13.41 8.73
10 1 -8 24.91 8.85
10 1 -8 23.04 8.84
-10 1 8 24.95 9.32
10 1 -7 9.17 4.7
-10 1 7 19.31 8.09
10 1 -6 11.25 5.71
-10 1 6 12.78 6.02
-10 1 6 9.17 3.92
10 1 -5 101.7 15.2
-10 1 5 91.76 14.28
-10 1 5 91.04 11.85
10 1 -4 34.37 8.62
-10 1 4 27.28 7.88
-10 1 4 27.62 7.11
10 1 -3 50.06 10.3
-10 1 3 44.86 9.46
-10 1 3 45.18 8.73
10 1 -2 77.13 12.53
10 1 -2 62.87 8.01
-10 1 2 73.23 11.33
-10 1 2 76.78 11.54
10 1 -1 11.2 6.07
-10 1 1 10.95 5.25
-10 1 1 15.95 6.37
10 1 0 -1.01 4.86
-10 1 0 4.78 4.68
-10 1 0 10.82 6.12
10 1 1 26.27 7.14
-10 1 -1 33.87 7.8
-10 1 -1 42.04 9.42
10 1 2 41.93 9.72
-10 1 -2 52.68 9.15
10 1 3 17.17 6.71
-10 1 -3 17.49 7.06
10 1 4 21.47 7.53
-10 1 -4 46.4 10.03
-10 1 -5 33.64 9.02
10 1 5 42.94 10.18
-10 1 -5 40.03 9.7
-10 1 -6 8.7 5.98
10 1 6 7.98 6.35
-10 1 -6 8.48 6.05
-10 1 -7 1.02 5.79
10 1 7 -11.08 7.17
-10 1 -8 12.26 7.74
10 1 8 4.21 4.83
10 1 9 6.26 7.39
10 2 -10 4.89 7.17
-10 2 10 2.34 7.3
10 2 -9 -9.72 9.86
10 2 -9 8.9 7.7
-10 2 9 6.06 6.38
10 2 -8 0.7 7.2
10 2 -8 5.74 6.68
-10 2 8 6.84 5.5
-10 2 7 87.01 13.57
10 2 -7 58.55 12.46
10 2 -7 79.89 14.95
-10 2 7 67.33 13.21
-10 2 6 54.43 11.03
10 2 -6 48.4 11.84
10 2 -6 44.41 10.33
-10 2 6 44.24 10.21
10 2 -5 24.56 7.97
10 2 -5 12.27 5.73
-10 2 5 19.8 7.19
-10 2 5 25.08 8.49
10 2 -4 65.79 12.29
-10 2 4 56.4 9.93
-10 2 4 66.76 10.67
10 2 -3 64.63 11.8
-10 2 3 55.16 9.32
-10 2 3 52.57 9.7
10 2 -2 28.53 8.76
-10 2 2 23.93 6.11
-10 2 2 27.14 6.81
10 2 -1 8.36 6.1
-10 2 1 3.46 2.58
-10 2 1 -1.31 3.75
10 2 0 119.45 15.62
-10 2 0 149.41 15.84
10 2 1 13.3 7.23
-10 2 -1 20.17 7.11
10 2 2 5.58 4.89
-10 2 -2 17.02 8.04
-10 2 -3 121.49 15.76
10 2 3 97.15 14.07
10 2 4 8.09 5.09
-10 2 -4 11.93 6.81
10 2 5 23.93 8.72
-10 2 -5 16.32 7.71
-10 2 -6 6.51 5.12
10 2 6 11.38 6.19
-10 2 -6 15.89 7.12
-10 2 -7 5.63 6.12
10 2 7 11.96 6.21
-10 2 -7 16.97 7.23
-10 2 -8 0.1 5.88
10 2 8 1.42 5.38
-10 3 8 5.94 6.56
10 3 -8 -7.46 8.65
10 3 -8 11.91 8.43
-10 3 7 4.04 5.39
10 3 -7 -5.88 7.55
10 3 -7 -4.69 7.49
-10 3 6 36.12 9.64
10 3 -6 29.03 9.2
10 3 -6 51.64 13.33
-10 3 5 25.94 9.24
10 3 -5 10.69 5.14
10 3 -5 26.18 9.81
-10 3 4 35.22 9.89
10 3 -4 2.06 6.25
10 3 -4 28.16 9.47
10 3 -3 22.54 8.88
-10 3 3 45.49 10.89
10 3 -2 67.36 12.49
-10 3 2 75.47 12.41
10 3 -1 11.76 5.57
-10 3 1 7.1 4.79
10 3 0 16.82 8.06
-10 3 0 14.26 6.86
10 3 1 66.28 12.28
-10 3 -1 60.4 11.21
10 3 2 15.75 8.41
-10 3 -2 6.87 6.6
-10 3 -3 15.01 7.84
10 3 3 -7.85 7.13
10 3 4 9.76 5.8
-10 3 -4 38.95 10.89
10 3 5 6 5.39
-10 3 -5 0.1 4.16
10 3 6 6.98 6.74
-10 3 -6 1.57 5.28
-10 3 -7 6.93 6.16
10 3 7 10.29 7.02
10 3 7 11.83 6.99
-10 4 9 20.13 10.94
-10 4 8 -8.58 6.99
-10 4 7 11.4 9.78
10 4 -7 12.85 8.87
-10 4 6 13.81 8.39
10 4 -6 3.84 6.12
10 4 -6 6.25 7.55
-10 4 5 4.8 8.54
10 4 -5 0.85 6
10 4 -5 13.81 8.49
-10 4 4 37.18 10.93
10 4 -4 48.32 12.07
10 4 -4 24.29 7.09
10 4 -3 -1.15 5.28
10 4 -3 -2.63 5.1
10 4 -2 17.54 7.38
-10 4 2 16.11 8.12
10 4 -1 13.29 7.32
-10 4 1 -0.9 7.7
10 4 0 28.05 9.69
-10 4 0 -11.08 9
10 4 1 9.64 6.85
-10 4 -1 2.33 6.27
10 4 2 14.08 7.08
-10 4 -2 2.15 5.29
10 4 3 13.29 8.28
-10 4 -3 12.7 7.32
-10 4 -4 12.35 8.06
10 4 4 -7.16 6.17
10 4 5 9.2 7.08
10 4 6 5.85 5.74
10 4 7 8.64 5.86
10 5 -6 4.88 6.13
10 5 -5 6.95 6.37
-10 5 3 7.26 8.48
10 5 -3 -1.48 5.62
10 5 -2 0.18 5.59
-10 5 2 12.54 9.13
10 5 -1 1.44 7.18
-10 5 1 14.94 8.14
10 5 0 4.65 5.97
-10 5 0 -27.97 9.77
10 5 1 4.79 5.57
10 5 2 1.46 5.07
10 5 3 4.67 6.2
10 5 4 0.01 5.03
10 5 5 1.01 4.25
-11 -5 3 6.15 5.49
11 -5 -3 7.76 6.65
11 -5 -2 -7.08 5.48
11 -5 -1 0.02 5.33
11 -5 0 -15.29 8.41
-11 -5 -3 4.19 6.55
-11 -4 7 3.91 5.36
-11 -4 6 -0.23 4.14
11 -4 -6 2.48 6.81
-11 -4 5 2.38 4.71
11 -4 -5 9.81 7.35
-11 -4 4 0.07 4.18
11 -4 -4 -0.61 3.99
-11 -4 3 10.75 6.57
11 -4 -3 -4.06 4.75
11 -4 -3 3.31 7.21
-11 -4 3 -4.73 6.67
11 -4 -2 4.23 4.78
11 -4 -2 8.23 7.09
-11 -4 2 7.61 5.76
11 -4 -1 -0.25 5.36
-11 -4 1 3.94 6.88
-11 -4 0 4.22 5.38
11 -4 0 -0.61 5.22
-11 -4 0 8.81 7.39
-11 -4 -1 12.21 8.32
11 -4 1 2.24 5.38
-11 -4 -1 17.07 8.24
-11 -4 -2 19.21 10.27
11 -4 2 -0.89 4.83
-11 -4 -3 16.15 8.97
-11 -4 -4 6.68 7.83
11 -3 -7 -1.09 5.64
11 -3 -6 7.46 5.59
-11 -3 6 16.09 8.55
-11 -3 5 40.32 9.86
11 -3 -5 23.63 8.37
-11 -3 5 31.52 10.15
-11 -3 4 3.44 4.48
11 -3 -4 8.95 6.71
11 -3 -4 4.46 5.08
-11 -3 4 -6.67 7.41
-11 -3 3 26.37 7.34
11 -3 -3 15.82 6.91
-11 -3 3 6.92 5.24
-11 -3 2 31.69 8.82
11 -3 -2 18.84 6.32
11 -3 -2 24.92 8.86
-11 -3 2 13.31 7.93
-11 -3 1 11.55 6.33
11 -3 -1 16.3 6.83
-11 -3 1 19.71 8.23
-11 -3 0 6.92 5.28
11 -3 0 9.83 7.13
-11 -3 0 10.12 7.6
-11 -3 -1 17.39 7.31
11 -3 1 15 6.88
-11 -3 -1 15.92 9.2
-11 -3 -2 9.24 6.34
11 -3 2 22.38 9.03
-11 -3 -3 0.27 5.21
11 -3 3 0.78 5.67
-11 -3 -4 22.41 8.22
11 -3 4 4.92 5.75
-11 -3 -5 10.77 7.69
11 -2 -8 -12.2 7.82
11 -2 -7 1.24 5.26
-11 -2 7 13.1 7.98
11 -2 -6 27.07 8.76
-11 -2 6 36.92 12.09
11 -2 -5 1.81 4.13
11 -2 -5 1.05 4.49
-11 -2 5 8.24 7.19
11 -2 -4 35.48 8.65
11 -2 -4 29.81 8.53
-11 -2 4 15.19 6.62
11 -2 -3 35.48 8.26
11 -2 -3 39.03 9.64
-11 -2 3 39.41 9.97
11 -2 -2 11.73 6.23
-11 -2 2 2.6 5.98
-11 -2 1 31.3 8.28
11 -2 -1 29.43 7.94
-11 -2 1 31.82 9.25
-11 -2 0 41.28 8.82
11 -2 0 37.68 9.61
-11 -2 0 47.61 11.45
-11 -2 -1 21.05 6.94
11 -2 1 11.88 6.24
-11 -2 -1 16.87 7.58
-11 -2 -2 9.37 5.6
11 -2 2 4.01 5.12
-11 -2 -3 41.19 9.65
11 -2 3 39.88 9.88
-11 -2 -4 13.74 6.68
11 -2 4 1.16 5.73
-11 -2 -5 1.56 4.88
11 -2 5 -0.47 5.7
11 -1 -9 19.81 11.33
11 -1 -8 13.47 8.17
-11 -1 8 17.22 10.33
11 -1 -7 2.33 5.81
11 -1 -7 3.35 5.55
-11 -1 7 4.73 7.27
11 -1 -6 25.19 8.47
11 -1 -6 20.77 7.7
-11 -1 6 14.73 7.92
11 -1 -5 71.54 12.37
11 -1 -5 69.88 11.62
-11 -1 5 52.47 11.81
11 -1 -4 19.93 6.77
11 -1 -4 24.09 6.58
-11 -1 4 17.89 6.54
11 -1 -3 20.54 6
-11 -1 3 19.42 7.42
11 -1 -3 25.72 7.94
-11 -1 2 142.66 15.07
11 -1 -2 103.94 14.35
-11 -1 2 98.01 14.98
11 -1 -1 4.45 3.82
-11 -1 1 16.51 6.87
-11 -1 1 12 5.9
11 -1 0 21.6 7.77
-11 -1 0 22.84 8.11
11 -1 1 55.51 11.11
-11 -1 -1 28.26 8.36
-11 -1 -2 6.31 5.28
11 -1 2 9.93 6.65
-11 -1 -3 3.65 5.19
11 -1 3 5.55 5.58
-11 -1 -4 18.9 8.12
11 -1 4 13.27 6.76
-11 -1 -5 9.79 5.62
11 -1 5 11.78 5.99
-11 -1 -6 4.62 6.62
11 -1 6 3.4 5.57
11 0 -9 6.81 6.61
11 0 -9 29.79 11.8
-11 0 9 14.08 9.21
11 0 -8 8.56 5.68
11 0 -8 27.28 11.14
-11 0 8 15.07 8.03
11 0 -7 38.44 10.17
11 0 -7 60.05 12.91
-11 0 7 46.11 11.76
11 0 -6 43.59 10.27
11 0 -6 53.74 11.46
-11 0 6 44.46 11.49
11 0 -5 6.27 5.22
11 0 -5 5.08 4.73
-11 0 5 12.06 7.56
11 0 -4 97.26 14.41
11 0 -4 82.54 11.28
-11 0 4 95.86 12.64
-11 0 4 74.6 12.7
11 0 -3 96.42 14.32
-11 0 3 99.63 12.71
-11 0 3 92.74 13.65
11 0 -2 9.09 6.41
-11 0 2 5.48 4.99
-11 0 2 1.74 4.37
11 0 -1 142.05 16.76
-11 0 1 165.39 16.14
-11 0 1 116.46 15.36
-11 0 0 101.84 13.16
-11 0 0 120.09 15.49
11 0 0 123.15 15.85
11 0 1 19.08 6.81
-11 0 -1 26.46 7.98
-11 0 -1 18.57 7.01
11 0 2 58.29 11.65
-11 0 -2 52.28 10.15
-11 0 -3 51.27 10.33
11 0 3 64.23 12.26
-11 0 -3 59.58 11.24
-11 0 -4 10.07 6.02
11 0 4 0.82 4.07
-11 0 -5 31.37 9.75
11 0 5 18.7 7.45
-11 0 -6 11.95 7.44
11 0 6 10.75 6.7
11 0 7 -4.56 6.09
11 1 -10 -7.37 7.08
11 1 -9 -0.01 6.59
-11 1 9 16.95 9.24
11 1 -8 3.67 5.24
-11 1 8 15.75 8.42
11 1 -7 -1.05 6.21
-11 1 7 -18.17 8.27
11 1 -6 25.13 8.1
-11 1 6 19.12 6.77
11 1 -5 89.89 14.99
-11 1 5 73.48 11.22
-11 1 5 64.82 12.21
11 1 -4 20.92 7.4
-11 1 4 30.57 7.74
-11 1 4 17.69 6.88
11 1 -3 21.63 8.34
-11 1 3 38.46 8.77
-11 1 3 19.96 6.64
11 1 -2 124.03 16.37
-11 1 2 142.96 15.85
-11 1 2 113.36 14.46
11 1 -1 20.93 7.84
-11 1 1 10.44 5.2
-11 1 1 31.04 8.6
11 1 0 24.32 8.93
-11 1 0 20.67 6.58
-11 1 0 43.32 10.12
-11 1 -1 60.89 10.98
11 1 1 53.85 11.23
11 1 2 4.24 6.21
-11 1 -2 11.3 7.5
11 1 3 3.45 6.68
-11 1 -3 4.63 6.61
11 1 4 19.49 7.92
-11 1 -4 36.06 9.63
-11 1 -5 15.13 6.89
11 1 5 40.91 11
-11 1 -5 24.8 9.43
-11 1 -6 2.83 5.15
11 1 6 5.02 5.59
11 1 7 6.6 6.82
-11 2 9 -9.5 7.53
-11 2 8 6.67 6.71
11 2 -8 11.07 8.71
11 2 -7 1.36 7.49
-11 2 7 5.23 5.51
11 2 -6 24.11 9.4
-11 2 6 18.29 7.24
11 2 -5 -5.55 7.15
-11 2 5 3.86 4.96
11 2 -4 28.93 9.11
-11 2 4 23.98 6.86
11 2 -3 40.94 10.45
-11 2 3 34.67 8.79
11 2 -2 6.37 5.66
-11 2 2 5.91 5.04
11 2 -1 67.78 13.26
-11 2 1 36.03 8.64
11 2 0 27.64 8.97
-11 2 0 47.39 10.23
11 2 1 4.49 5.38
-11 2 -1 16.5 6.37
-11 2 -2 -4.92 4.16
11 2 2 3.09 4.51
11 2 3 28.29 8.6
-11 2 -3 31.25 8.56
11 2 4 8.45 6.81
-11 2 -4 15.63 7.68
11 2 5 8.38 7.38
-11 2 -5 6.93 6.74
11 2 6 10.68 6.57
11 2 6 11.82 7.61
11 2 7 6.43 5.78
-11 3 7 12.92 8.3
11 3 -7 -18.59 9.19
11 3 -6 9.76 6.48
11 3 -6 1.42 5.53
-11 3 6 21.86 9.01
11 3 -5 47.86 12.55
-11 3 5 72.19 14.05
11 3 -4 4.03 6.93
-11 3 4 -12.74 8.91
11 3 -3 20.54 9.5
-11 3 3 4.9 6.46
11 3 -2 14.91 8.34
-11 3 2 8.02 4.51
11 3 -1 20.61 6.9
-11 3 1 14.07 6.95
11 3 0 9.66 7.5
-11 3 0 0.31 4.9
11 3 1 16.2 8.26
-11 3 -1 11.79 6.75
11 3 2 10.55 6.22
-11 3 -2 36.16 10.24
-11 3 -3 31.09 10.39
11 3 3 -0.61 5.18
11 3 4 9.4 5.87
-11 3 -4 12.1 7.52
11 3 5 2.08 5.86
11 3 7 0.01 4.25
-11 4 6 14.58 10.39
11 4 -6 -15.56 8.27
-11 4 5 13.62 9.2
11 4 -5 -4.61 5.63
11 4 -4 -8.69 6.36
-11 4 4 28.46 11.63
11 4 -3 -10.36 7.64
-11 4 3 -9.7 6.81
11 4 -2 4.62 6.61
-11 4 2 -17.22 10.12
11 4 -1 -3.69 6.63
-11 4 1 -13.2 7.89
11 4 0 -0.65 4.1
-11 4 0 -0.11 6.47
11 4 1 -1.57 4.86
-11 4 -1 2.69 5.57
11 4 2 -2.51 4.85
11 4 3 -1.92 4.86
11 4 4 3.17 6.86
12 -4 -5 0.01 4.5
12 -4 -3 0.02 6.27
12 -4 -2 12.41 7.47
12 -4 -1 7.69 8.3
-12 -4 -1 7.4 7.9
-12 -4 -2 13.35 7.55
12 -3 -6 1.96 5.85
12 -3 -5 6.04 6.37
12 -3 -3 13.76 8.37
-12 -3 3 12.9 7.61
12 -3 -2 20.06 8.68
-12 -3 2 25.96 8.98
-12 -3 1 7.06 6.83
12 -3 -1 3.49 6.25
-12 -3 1 9.71 6.7
-12 -3 0 4.37 5.98
12 -3 0 4.91 5.09
-12 -3 0 19.33 9.29
-12 -3 -1 1.76 4.76
12 -3 1 17.79 9.07
-12 -3 -1 2.51 5.36
-12 -3 -2 19.69 8.65
-12 -3 -3 1.73 6.17
12 -2 -7 -5.51 6.25
12 -2 -6 -11.04 6.39
12 -2 -5 9.39 5.78
12 -2 -5 3.23 5.58
-12 -2 5 -3.28 6.4
12 -2 -4 9.64 6.55
-12 -2 4 11.49 7.11
12 -2 -3 45.69 11.28
-12 -2 3 30.77 9.65
12 -2 -2 -1.99 4.81
-12 -2 2 6.19 5.43
-12 -2 1 22.93 7.86
12 -2 -1 35.69 10.36
-12 -2 1 25.23 8.53
-12 -2 0 11.98 5.73
12 -2 0 12 6.69
-12 -2 -1 6.15 5.76
12 -2 1 18.23 8.55
-12 -2 -1 6.75 6
-12 -2 -2 27 9.38
12 -2 2 14.52 7.86
-12 -2 -3 4.8 6.43
12 -2 3 11.67 8.35
12 -1 -8 7.74 7.81
12 -1 -7 5.86 6.44
12 -1 -7 4.2 5.22
-12 -1 7 -2.9 5.83
12 -1 -6 17.59 8.17
12 -1 -6 12.94 6.87
-12 -1 6 14.66 8.29
12 -1 -5 44.52 11.1
-12 -1 5 62.65 13.03
-12 -1 4 -4.02 6.1
12 -1 -4 2.29 5
12 -1 -3 17.09 7.71
-12 -1 3 20 8.18
12 -1 -2 45.08 10.5
-12 -1 2 49.95 11.44
12 -1 -1 18.74 7.86
-12 -1 1 27.17 8.62
12 -1 0 9.65 6.83
-12 -1 0 7.39 6.36
-12 -1 -1 55.33 11.31
12 -1 1 56.45 11.65
-12 -1 -1 57.66 12.39
-12 -1 -2 10.46 6.18
12 -1 2 15.95 7.39
-12 -1 -3 0.92 4.59
12 -1 3 -0.17 5.19
-12 -1 -4 26.14 9.07
12 0 -8 -9.26 6.43
12 0 -8 1.94 6.1
-12 0 8 3.54 7.53
12 0 -7 38.82 11.32
12 0 -7 50.16 12.16
-12 0 7 28.85 10.55
12 0 -6 13.16 7.7
-12 0 6 26 9.99
12 0 -5 10.69 7.48
-12 0 5 -2.69 5.43
12 0 -4 34.52 9.64
-12 0 4 26.6 8.6
12 0 -3 45.14 11.11
-12 0 3 71.68 11.3
-12 0 3 40.31 9.75
-12 0 2 0.69 4.67
-12 0 2 -0.84 4.56
12 0 -2 -0.41 5.47
-12 0 1 47.24 9.82
12 0 -1 14.75 6.82
-12 0 1 33.14 8.84
12 0 0 44.56 11.2
-12 0 0 33.65 9.01
-12 0 0 29.48 8.93
12 0 1 -6.45 5.43
-12 0 -1 1.52 5.33
12 0 2 43.66 11.43
-12 0 -2 34.2 9.06
-12 0 -3 3.24 6.37
12 0 3 7.79 6.4
-12 0 -4 2.45 5.08
12 0 4 -2.13 5.34
-12 1 8 18.93 10.19
12 1 -7 2.58 4.56
-12 1 7 4.35 6.29
12 1 -6 29.69 9.46
-12 1 6 16.19 7.9
12 1 -5 69.93 13.63
-12 1 5 53.4 11.65
12 1 -4 1.25 5.43
-12 1 4 1.32 3.73
12 1 -3 21.85 8.35
-12 1 3 21.21 7.4
-12 1 3 14.39 6.49
12 1 -2 70.3 13.15
-12 1 2 76.04 12.64
-12 1 2 61.11 11.29
12 1 -1 10.8 5.87
-12 1 1 18.65 7.48
-12 1 0 2.88 4.87
12 1 0 3.95 6.06
12 1 1 48.57 10.81
-12 1 -1 62.42 11.95
12 1 2 22.65 9.4
-12 1 -2 11.51 7.06
12 1 3 8.47 6.47
-12 1 -3 12.29 7.13
12 1 4 23.75 8.95
-12 1 -4 43.71 10.97
12 2 -5 14.85 8.38
-12 2 5 -8.55 6.16
12 2 -4 16.46 8.49
-12 2 4 11.46 6.53
12 2 -3 34.62 10.36
-12 2 3 35.87 8.92
12 2 -2 10.17 7.92
-12 2 2 6.57 5.79
12 2 -1 44.73 12.19
-12 2 1 29.95 9.4
12 2 0 27.15 8.6
-12 2 0 49 11.7
-12 2 -1 15.77 8.1
12 2 1 0.62 5.8
-12 2 -2 26.26 8.61
12 2 2 11.84 6.81
12 2 3 -2.14 5.22
-12 2 -3 9.47 6.49
-12 3 6 -7.32 7.48
-12 3 5 -2.4 6.68
-12 3 4 -19.89 8.87
-12 3 3 0.04 5.45
-12 3 2 18.21 7.59
12 3 -1 7.46 6.99
-12 3 1 20.75 9.38
12 3 0 4.57 6.63
-12 3 0 -5.02 6.29
-12 3 -1 6.83 7.6
-13 -3 0 9.67 6.67
13 -2 -4 25.9 9.68
13 -2 -3 2.47 5.73
-13 -2 2 2.98 5.14
13 -2 -2 6.85 7.28
-13 -2 1 8.7 6.11
13 -2 -1 6.15 7.58
-13 -2 1 9.54 6.07
-13 -2 0 2.83 5.64
-13 -2 0 26.03 9.9
-13 -2 -1 1.9 5.45
13 -1 -6 16.08 8.19
13 -1 -5 -3.07 5.63
-13 -1 5 4.01 7.28
13 -1 -4 1.51 5.16
-13 -1 4 -1.08 4.77
13 -1 -3 2.54 4.64
-13 -1 3 -6.25 5.75
13 -1 -2 22.98 8.68
-13 -1 2 22.14 8.86
13 -1 -1 9.37 6.71
-13 -1 1 9.07 5.95
13 -1 0 5.77 6.87
-13 -1 0 13.15 7.38
-13 -1 -1 17.38 7.83
-13 0 6 20.7 9.79
13 0 -5 12.95 8.83
-13 0 5 1.43 5.29
13 0 -4 23.55 9.3
-13 0 4 16.33 7.46
-13 0 3 28.69 9.5
13 0 -3 39.73 11.2
-13 0 2 -7.66 5.88
13 0 -2 -13.82 7.6
13 0 -1 11.56 7.07
-13 0 1 24.78 8.5
-13 0 1 4.17 4.91
13 0 0 41.01 11.15
-13 0 0 44.77 10.37
-13 0 0 34.95 9.7
-13 0 -1 7.76 6.37
-13 1 3 11.47 7.07
-13 1 2 21.33 8.41
-13 1 1 0.4 5.26
-13 1 0 -2.95 5.26
-13 1 -1 24.33 8.77
-13 2 4 17.25 8.32
-13 2 3 11.22 7.51
-13 2 2 9.75 7.37
-13 2 1 22.44 9.58
-13 2 0 27.3 9.23
-14 0 0 19.19 8.72
