#------------------------------------------------------------------------------
#$Date: 2020-02-04 05:13:16 +0200 (Tue, 04 Feb 2020) $
#$Revision: 247531 $
#$URL: file:///home/coder/svn-repositories/cod/cif/4/13/39/4133976.cif $
#------------------------------------------------------------------------------
#
# This file is available in the Crystallography Open Database (COD),
# http://www.crystallography.net/
#
# All data on this site have been placed in the public domain by the
# contributors.
#
data_4133976
loop_
_publ_author_name
'Bear, Joseph C.'
'Cockcroft, Jeremy K.'
'Williams, Jeffrey H.'
_publ_section_title
;
 Influence of Solvent in Crystal Engineering: A Significant Change to the
 Order-Disorder Transition in Ferrocene.
;
_journal_issue                   4
_journal_name_full               'Journal of the American Chemical Society'
_journal_page_first              1731
_journal_page_last               1734
_journal_paper_doi               10.1021/jacs.9b11895
_journal_volume                  142
_journal_year                    2020
_chemical_formula_moiety         'C10 H10 Fe, 2(C3 F3)'
_chemical_formula_sum            'C16 H10 F6 Fe'
_chemical_formula_weight         372.09
_chemical_name_systematic        Ferrocene:hexafluorobenzene
_space_group_crystal_system      triclinic
_space_group_IT_number           2
_space_group_name_Hall           '-P 1'
_space_group_name_H-M_alt        'P -1'
_atom_sites_solution_hydrogens   geom
_atom_sites_solution_primary     dual
_audit_creation_date             2019-09-12
_audit_creation_method
;
Olex2 1.2
(compiled 2018.05.29 svn.r3508 for OlexSys, GUI svn.r5506)
;
_cell_angle_alpha                76.824(6)
_cell_angle_beta                 77.466(6)
_cell_angle_gamma                83.877(5)
_cell_formula_units_Z            2
_cell_length_a                   7.1877(5)
_cell_length_b                   9.2267(6)
_cell_length_c                   11.8150(8)
_cell_measurement_reflns_used    3341
_cell_measurement_temperature    297.50(10)
_cell_measurement_theta_max      26.4280
_cell_measurement_theta_min      4.6580
_cell_volume                     743.40(9)
_computing_cell_refinement       'CrysAlisPro 1.171.39.46 (Rigaku OD, 2018)'
_computing_data_collection       'CrysAlisPro 1.171.39.46 (Rigaku OD, 2018)'
_computing_data_reduction        'CrysAlisPro 1.171.39.46 (Rigaku OD, 2018)'
_computing_molecular_graphics    'Olex2 (Dolomanov et al., 2009)'
_computing_publication_material  'Olex2 (Dolomanov et al., 2009)'
_computing_structure_refinement  'ShelXL (Sheldrick, 2015)'
_computing_structure_solution    'ShelXT (Sheldrick, 2015)'
_diffrn_ambient_environment      C6F6
_diffrn_ambient_temperature      297.5
_diffrn_detector                 'CCD plate'
_diffrn_detector_area_resol_mean 5.2031
_diffrn_detector_type            Atlas
_diffrn_measured_fraction_theta_full 0.998
_diffrn_measured_fraction_theta_max 0.998
_diffrn_measurement_details
;
List of Runs (angles in degrees, time in seconds):

  # Type    Start    End  Width  t~exp~   \w     \q     \k     \f   Frames
--------------------------------------------------------------------------
  1  \w    -19.00  52.00   1.00    1.50    --   11.17 -99.00 -60.00   71
  2  \w    -16.00  84.00   1.00    1.50    --   11.17  57.00 -30.00  100
  3  \w    -18.00  52.00   1.00    1.50    --   11.17 -99.00  60.00   70
  4  \w     -4.00  58.00   1.00    1.50    --   11.17-110.00 120.00   62
  5  \w    -11.00  84.00   1.00    1.50    --   11.17  77.00  90.00   95
  6  \w    -53.00  39.00   1.00    1.50    --   11.17 -57.00-180.00   92
  7  \w    -12.00  80.00   1.00    1.50    --   11.17  38.00-120.00   92
;
_diffrn_measurement_device       'four-circle diffractometer'
_diffrn_measurement_device_type  'SuperNova, Dual, Cu at home/near, Atlas'
_diffrn_measurement_method       '\w scans'
_diffrn_orient_matrix_type
'CrysAlisPro convention (1999,Acta A55,543-557)'
_diffrn_orient_matrix_UB_11      0.0209923000
_diffrn_orient_matrix_UB_12      -0.0757181000
_diffrn_orient_matrix_UB_13      0.0255472000
_diffrn_orient_matrix_UB_21      -0.0303888000
_diffrn_orient_matrix_UB_22      0.0155605000
_diffrn_orient_matrix_UB_23      0.0574923000
_diffrn_orient_matrix_UB_31      -0.0943008000
_diffrn_orient_matrix_UB_32      -0.0167584000
_diffrn_orient_matrix_UB_33      0.0006099000
_diffrn_radiation_monochromator  mirror
_diffrn_radiation_probe          x-ray
_diffrn_radiation_type           MoK\a
_diffrn_radiation_wavelength     0.71073
_diffrn_reflns_av_R_equivalents  0.0400
_diffrn_reflns_av_unetI/netI     0.0333
_diffrn_reflns_Laue_measured_fraction_full 0.998
_diffrn_reflns_Laue_measured_fraction_max 0.998
_diffrn_reflns_limit_h_max       8
_diffrn_reflns_limit_h_min       -8
_diffrn_reflns_limit_k_max       10
_diffrn_reflns_limit_k_min       -10
_diffrn_reflns_limit_l_max       13
_diffrn_reflns_limit_l_min       -13
_diffrn_reflns_number            10074
_diffrn_reflns_point_group_measured_fraction_full 0.998
_diffrn_reflns_point_group_measured_fraction_max 0.998
_diffrn_reflns_theta_full        24.707
_diffrn_reflns_theta_max         24.707
_diffrn_reflns_theta_min         3.187
_diffrn_source                   'micro-focus sealed X-ray tube'
_diffrn_source_type              'SuperNova (Mo) X-ray Source'
_exptl_absorpt_coefficient_mu    1.073
_exptl_absorpt_correction_T_max  1.00000
_exptl_absorpt_correction_T_min  0.38986
_exptl_absorpt_correction_type   multi-scan
_exptl_absorpt_process_details
;
CrysAlisPro 1.171.39.46 (Rigaku Oxford Diffraction, 2018)
Empirical absorption correction using spherical harmonics,
 implemented in SCALE3 ABSPACK scaling algorithm.
;
_exptl_crystal_colour            'clear dark orange'
_exptl_crystal_colour_lustre     clear
_exptl_crystal_colour_modifier   dark
_exptl_crystal_colour_primary    orange
_exptl_crystal_density_diffrn    1.662
_exptl_crystal_description       block
_exptl_crystal_F_000             372
_exptl_crystal_preparation       'Ferrocene dissolved in hot C6F6'
_exptl_crystal_recrystallization_method
'Crystals grown using C6F6 as solvent in an NMR tube stood in hot water'
_exptl_crystal_size_max          0.722
_exptl_crystal_size_mid          0.389
_exptl_crystal_size_min          0.2
_refine_diff_density_max         0.336
_refine_diff_density_min         -0.256
_refine_diff_density_rms         0.064
_refine_ls_extinction_coef       0.030(4)
_refine_ls_extinction_expression Fc^*^=kFc[1+0.001xFc^2^\l^3^/sin(2\q)]^-1/4^
_refine_ls_extinction_method     'SHELXL-2014/7 (Sheldrick 2014'
_refine_ls_goodness_of_fit_ref   1.044
_refine_ls_hydrogen_treatment    constr
_refine_ls_matrix_type           full
_refine_ls_number_parameters     209
_refine_ls_number_reflns         2541
_refine_ls_number_restraints     0
_refine_ls_restrained_S_all      1.044
_refine_ls_R_factor_all          0.0651
_refine_ls_R_factor_gt           0.0462
_refine_ls_shift/su_max          0.000
_refine_ls_shift/su_mean         0.000
_refine_ls_structure_factor_coef Fsqd
_refine_ls_weighting_details
'w=1/[\s^2^(Fo^2^)+(0.0721P)^2^+0.2122P] where P=(Fo^2^+2Fc^2^)/3'
_refine_ls_weighting_scheme      calc
_refine_ls_wR_factor_gt          0.1276
_refine_ls_wR_factor_ref         0.1465
_reflns_Friedel_coverage         0.000
_reflns_number_gt                1771
_reflns_number_total             2541
_reflns_threshold_expression     'I > 2\s(I)'
_cod_data_source_file            ja9b11895_si_002.cif
_cod_data_source_block           exp_1343
_cod_depositor_comments
'Adding full bibliography for 4133967--4133980.cif.'
_cod_database_code               4133976
_shelx_shelxl_version_number     2014/7
_chemical_oxdiff_formula         'Fe C16 H10 F6'
_chemical_oxdiff_usercomment     'In capillary'
_shelx_space_group_comment
;
The symmetry employed for this shelxl refinement is uniquely defined
by the following loop, which should always be used as a source of
symmetry information in preference to the above space-group names.
They are only intended as comments.
;
_shelx_estimated_absorpt_t_max   0.814
_shelx_estimated_absorpt_t_min   0.511
_reflns_odcompleteness_completeness 99.84
_reflns_odcompleteness_iscentric 1
_reflns_odcompleteness_theta     26.32
_olex2_refinement_description
;
1. Fixed Uiso
 At 1.2 times of:
  All C(H) groups
2.a Aromatic/amide H refined with riding coordinates:
 C7(H7), C8(H8), C9(H9), C10(H10), C11(H11), C12(H12), C13(H13), C14(H14),
 C15(H15), C16(H16)
;
_shelx_res_file
;
    exp_1343.res created by SHELXL-2014/7

TITL exp_1343 in P-1
CELL 0.71073 7.187663 9.226742 11.815047 76.8242 77.4659 83.8771
ZERR 2 0.000454 0.000589 0.000842 0.0058 0.0057 0.0052
LATT 1
SFAC C H F Fe
UNIT 32 20 12 2

L.S. 10 0 0
PLAN  1
SIZE 0.2 0.389 0.722
TEMP 24.35
BOND $H
CONF
list 4
fmap 2 53
acta
SHEL 50 0.85
REM <olex2.extras>
REM <HklSrc "%.\\exp_1343.hkl">
REM </olex2.extras>

WGHT    0.072100    0.212200
EXTI    0.029722
FVAR       0.89301
FE1   4    0.243926    0.497780    0.251135    11.00000    0.06519    0.04945 =
         0.05351   -0.00436   -0.01896    0.00319
C7    1    0.313499    0.675414    0.120890    11.00000    0.08283    0.11196 =
         0.14604    0.07388   -0.04038   -0.03221
AFIX  43
H7    2    0.436078    0.708826    0.093381    11.00000   -1.20000
AFIX   0
C8    1    0.232970    0.574256    0.079046    11.00000    0.13208    0.10964 =
         0.05411   -0.00128   -0.01850    0.04279
AFIX  43
H8    2    0.292056    0.527575    0.017470    11.00000   -1.20000
AFIX   0
C9    1    0.057709    0.554834    0.141186    11.00000    0.11846    0.08083 =
         0.09909   -0.00283   -0.06496   -0.00351
AFIX  43
H9    2   -0.026799    0.491562    0.130864    11.00000   -1.20000
AFIX   0
C10   1    0.020960    0.642386    0.222685    11.00000    0.10514    0.10520 =
         0.07576   -0.00947   -0.02093    0.04896
AFIX  43
H10   2   -0.093009    0.649020    0.276933    11.00000   -1.20000
AFIX   0
C11   1    0.176395    0.718035    0.212169    11.00000    0.19244    0.04910 =
         0.13441   -0.01253   -0.10661    0.01170
AFIX  43
H11   2    0.189493    0.785574    0.257153    11.00000   -1.20000
AFIX   0
C12   1    0.475209    0.410069    0.318491    11.00000    0.06770    0.11906 =
         0.15229    0.05667   -0.05018   -0.01332
AFIX  43
H12   2    0.595222    0.448724    0.295145    11.00000   -1.20000
AFIX   0
C13   1    0.405019    0.305680    0.270283    11.00000    0.12112    0.09007 =
         0.07504    0.00173   -0.00992    0.05391
AFIX  43
H13   2    0.471230    0.262419    0.208223    11.00000   -1.20000
AFIX   0
C14   1    0.226401    0.279563    0.329340    11.00000    0.12002    0.05298 =
         0.09594    0.00137   -0.04217   -0.00625
AFIX  43
H14   2    0.147753    0.214751    0.315082    11.00000   -1.20000
AFIX   0
C15   1    0.178632    0.363494    0.413793    11.00000    0.10224    0.08280 =
         0.06334    0.00262   -0.01270    0.01314
AFIX  43
H15   2    0.062258    0.365445    0.466624    11.00000   -1.20000
AFIX   0
C16   1    0.328387    0.443101    0.407812    11.00000    0.14164    0.07293 =
         0.09294   -0.01076   -0.07390    0.00079
AFIX  43
H16   2    0.332424    0.509343    0.455808    11.00000   -1.20000
AFIX   0

F1    3    0.367292    0.993911   -0.114715    11.00000    0.08088    0.13509 =
         0.12398   -0.00596    0.00764    0.00515
F2    3    0.123314    0.815295   -0.152132    11.00000    0.16525    0.09198 =
         0.08737   -0.03799   -0.02469    0.02684
F3    3   -0.243218    0.820749   -0.036700    11.00000    0.13378    0.11127 =
         0.15945   -0.02791   -0.05411   -0.03654
C1    1    0.184328    0.996803   -0.058745    11.00000    0.07022    0.07036 =
         0.07068    0.00182   -0.00887    0.01091
C2    1    0.061689    0.907466   -0.077291    11.00000    0.09525    0.05734 =
         0.06076   -0.01126   -0.01888    0.01172
C3    1   -0.121979    0.910098   -0.018947    11.00000    0.08739    0.05708 =
         0.08391    0.00280   -0.03218   -0.00936
F4    3    0.781592    0.160265    0.514913    11.00000    0.13437    0.12611 =
         0.18799   -0.01257   -0.06991   -0.05119
F5    3    0.427948    0.196127    0.644149    11.00000    0.21686    0.09495 =
         0.09923   -0.04667   -0.05329    0.03442
F6    3    0.147056    0.036782    0.628259    11.00000    0.08872    0.15400 =
         0.11764    0.01189    0.01439    0.02594
C4    1    0.641536    0.080979    0.507626    11.00000    0.08610    0.06662 =
         0.08850    0.00782   -0.03930   -0.01354
C5    1    0.464813    0.098423    0.572696    11.00000    0.10567    0.05567 =
         0.06465   -0.01034   -0.02772    0.01276
C6    1    0.323022    0.018281    0.565839    11.00000    0.07266    0.07575 =
         0.06617    0.00735   -0.00616    0.01339
HKLF 4

REM  exp_1343 in P-1
REM R1 =  0.0462 for    1771 Fo > 4sig(Fo)  and  0.0651 for all    2541 data
REM    209 parameters refined using      0 restraints

END

WGHT      0.0716      0.2072

REM Highest difference peak  0.336,  deepest hole -0.256,  1-sigma level  0.064
Q1    1   0.4086  0.5036  0.1978  11.00000  0.05    0.34
;
_shelx_res_checksum              32731
_shelx_hkl_file
;
   0   0   2   86.19    4.40
   0   0   2   92.27    4.36
   0   0   3   -0.53    0.35
   0   0  -3    0.35    0.52
   0   0  -3    0.73    0.62
   0   0   3   -0.23    0.39
   0   0  -4  100.38    5.71
   0   0   4  113.41   10.65
   0   0  -4   95.79    6.28
   0   0   4  107.90    6.83
   0   0   4   96.32    6.61
   0   0  -5   29.37    3.99
   0   0  -5   27.27    3.18
   0   0   5   26.58    3.90
   0   0   5   26.14    3.82
   0   0   6  727.64   25.53
   0   0  -6  740.59   24.28
   0   0  -6  727.14   21.13
   0   0   6  763.71   26.06
   0   0   7    1.44    1.39
   0   0   7    0.67    0.92
   0   0  -7    0.72    0.72
   0   0   8  286.10   17.08
   0   0  -8  284.04   16.03
   0   0   8  315.50   19.18
   0   0  -8  268.70   21.73
   0   0  -8  285.70   13.36
   0   0   9    0.13    1.08
   0   0   9   -1.58    1.55
   0   0  -9    1.43    0.97
   0   0  -9    1.98    1.88
   0   0   9   -0.34    1.71
   0   0   9    0.71    1.72
   0   0  10  159.41   14.60
   0   0  10  155.95   14.46
   0   0  10  161.44   15.37
   0   0  10  147.79   15.22
   0   0 -10  152.31   10.55
   0   0  11    0.86    2.24
   0   0  11    3.74    2.78
   0   0  11   -0.55    2.63
   0   0  11    1.78    1.76
   0   0 -11    1.83    1.67
   0   0  12   86.54   11.89
   0   0  12   84.91   11.81
   0   0 -12   86.09    8.52
   0   0  13    2.47    3.22
   0   0 -13    0.77    1.55
   0   0  13   -1.29    1.47
   0   0 -14    2.28    1.97
   0   0  14    1.93    1.19
   0   0  14   -0.08    1.51
   0  -1  15    5.49    4.16
   0  -1  14   12.10    5.48
   0  -1  14    3.20    1.89
   0   1 -14    8.16    2.79
   0  -1  13   -6.03    3.68
   0  -1  13   -3.70    2.49
   0   1 -13    4.25    2.04
   0   1 -12   32.87    6.52
   0   1 -12   37.94    5.88
   0  -1  12   33.91    7.88
   0  -1  12   39.69    8.14
   0  -1  11    2.60    2.83
   0  -1  11   -0.71    1.39
   0  -1  11   -1.66    1.74
   0   1 -11    1.33    1.24
   0   1 -11   -2.37    1.98
   0  -1  10   59.39    9.53
   0  -1  10   61.19    9.31
   0   1 -10   57.60    6.51
   0   1 -10   60.61    8.04
   0  -1  10   55.00    9.14
   0  -1   9    0.86    1.43
   0   1  -9    0.37    0.96
   0   1  -9   -0.88    0.98
   0  -1   9   -0.01    1.43
   0   1  -8   10.96    3.00
   0  -1   8   11.03    3.27
   0   1  -8   11.17    2.59
   0   1  -8   11.36    4.16
   0  -1   7    0.81    0.75
   0  -1   7   -0.68    0.79
   0   1  -7   -0.01    1.09
   0   1  -7   -1.56    2.25
   0   1  -7    0.77    1.46
   0  -1   7   -0.53    3.02
   0  -1   6  524.66   21.66
   0   1  -6  542.22   18.07
   0  -1   6  517.53   21.05
   0   1  -6  512.84   20.06
   0  -1   6  551.57   30.09
   0  -1   5    3.31    1.37
   0  -1   5    3.47    2.60
   0   1  -5    3.61    1.32
   0  -1   5    5.35    1.86
   0   1  -5    3.50    1.03
   0  -1   4  380.66   19.51
   0  -1   4  359.05   14.79
   0   1  -4  371.56   12.90
   0   1  -4  371.82   14.33
   0  -1   4  346.22   14.03
   0   1  -3   -0.53    0.63
   0   1  -3   -1.00    1.02
   0  -1   3    0.87    0.77
   0  -1   3   -0.96    1.95
   0   1  -3   -0.16    0.84
   0  -1   3   -0.19    0.50
   0  -1   2 5990.74  102.37
   0   1  -2 6306.29  102.46
   0  -1   2 6037.93  105.66
   0   1  -2 6062.04  100.96
   0   1  -1    0.56    0.36
   0   1   2 4941.94   84.92
   0  -1  -2 4697.72   84.61
   0  -1  -3    4.31    1.52
   0   1   3    2.02    0.70
   0   1   3    2.13    1.43
   0   1   3    1.68    0.72
   0  -1  -3    2.50    0.98
   0   1   4 2477.36   46.86
   0  -1  -4 2436.49   46.81
   0   1   4 2372.21   48.98
   0   1   4 2357.69   50.81
   0   1   4 2391.78   50.96
   0   1   5   19.79    2.82
   0  -1  -5   21.45    2.89
   0   1   5   20.32    3.39
   0   1   5   23.42    3.74
   0   1   5   20.28    3.72
   0   1   6 1134.39   32.82
   0   1   6 1140.36   33.66
   0   1   6 1138.64   33.63
   0   1   6 1157.79   30.82
   0  -1  -6 1129.26   28.26
   0   1   7  115.00   10.23
   0  -1  -7  120.21    7.99
   0   1   7  114.82    9.19
   0   1   7  112.16    9.84
   0   1   7  101.08    9.42
   0  -1  -8  734.41   23.15
   0  -1  -8  742.65   38.23
   0   1   8  742.82   29.93
   0   1   8  708.55   29.28
   0   1   8  776.05   28.15
   0   1   9    0.21    0.80
   0   1   9    1.91    2.02
   0   1   9    0.47    1.45
   0  -1  -9    0.42    1.36
   0   1  10   58.41    8.34
   0   1  10   56.24    8.83
   0  -1 -10   58.17    6.38
   0   1  10   49.92    8.31
   0   1  10   49.57    8.49
   0   1  11    0.85    1.28
   0  -1 -11    1.71    1.50
   0   1  11    1.36    2.17
   0   1  11    1.75    1.83
   0   1  12   32.82    7.19
   0  -1 -12   39.93    5.83
   0   1  12   43.78    8.81
   0   1  13    3.55    2.74
   0   1  13   -2.72    2.46
   0  -1 -13    4.97    2.50
   0   1  14   19.16    5.52
   0   1  14   19.74    6.61
   0  -1 -14   17.67    4.39
   0  -1 -15   -1.30    1.35
   0  -2  14   -1.85    2.59
   0  -2  14    0.03    2.82
   0  -2  13    0.97    1.93
   0   2 -13    3.10    2.13
   0   2 -13   -0.25    1.01
   0   2 -12   18.75    5.18
   0   2 -12   20.01    4.31
   0  -2  12   22.16    6.35
   0   2 -11    0.30    1.12
   0   2 -11    0.12    0.99
   0   2 -10   82.31    7.82
   0   2 -10   64.30    8.43
   0  -2  10   73.36   10.58
   0  -2  10   68.42   10.60
   0   2  -9    0.69    1.27
   0   2  -9    0.31    1.25
   0  -2   9   -1.64    1.86
   0  -2   8  110.69   11.18
   0   2  -8   99.26    9.63
   0  -2   8   96.29   14.67
   0   2  -8  125.77    9.19
   0   2  -8  122.65   14.14
   0   2  -7    7.70    2.66
   0  -2   7    4.11    2.29
   0   2  -7    7.78    2.45
   0   2  -7    7.40    3.43
   0   2  -6  778.06   23.74
   0   2  -6  774.61   26.63
   0   2  -6  777.22   33.04
   0  -2   6  778.37   36.07
   0   2  -5    1.36    0.85
   0   2  -5    0.88    1.10
   0   2  -5    2.07    0.69
   0  -2   5    2.49    2.44
   0  -2   5    2.67    1.52
   0   2  -4  658.39   20.48
   0  -2   4  628.88   22.21
   0   2  -4  652.24   25.47
   0   2  -4  655.73   21.99
   0  -2   4  636.96   26.02
   0   2  -3    0.06    1.08
   0   2  -3    0.76    0.80
   0  -2   3    0.04    1.03
   0   2  -3   -0.41    0.86
   0  -2   3    0.91    1.14
   0  -2   2 4240.40   79.81
   0   2  -2 4154.47   80.85
   0  -2   2 4272.19   81.00
   0  -2   2 4266.54   81.29
   0   2  -2 4348.33   79.74
   0   2  -1    1.28    0.71
   0  -2   1   -0.51    0.78
   0  -2   1    0.56    0.70
   0   2  -1    1.07    0.60
   0   2  -1    0.92    0.63
   0   2   0 2600.64   47.36
   0  -2   0 2676.36   48.02
   0   2   0 2701.83   50.60
   0  -2   0 2704.62   50.66
   0   2   0 2578.34   52.05
   0   2   1    5.53    1.14
   0  -2  -1    4.04    1.10
   0   2   1    4.72    1.34
   0  -2  -2 5914.46  101.77
   0   2   2 5855.52  104.40
   0   2   3    1.85    1.05
   0  -2  -3   -0.22    0.99
   0  -2  -3    0.00    0.69
   0   2   4   10.52    2.66
   0  -2  -4   11.85    2.32
   0   2   4    7.74    1.21
   0   2   4   13.66    2.54
   0   2   5   32.92    5.20
   0  -2  -5   33.09    4.17
   0   2   5   36.60    4.48
   0  -2  -5   25.17    4.15
   0   2   5   28.68    4.61
   0   2   5   33.08    3.21
   0  -2  -6 1920.16   42.08
   0   2   6 1797.29   45.36
   0   2   6 1863.20   40.75
   0   2   6 1755.76   46.62
   0   2   6 1790.87   48.79
   0  -2  -7   -1.61    1.47
   0   2   7    0.31    1.05
   0   2   7    0.92    1.61
   0   2   7   -0.12    1.02
   0   2   8  176.20   11.44
   0  -2  -8  196.30   11.31
   0   2   8  180.32   14.56
   0   2   8  165.28   13.16
   0  -2  -8  180.20   18.94
   0   2   9    3.23    1.90
   0   2   9    5.15    2.64
   0   2   9    5.50    3.72
   0  -2  -9    5.74    2.03
   0   2   9    0.87    1.46
   0   2  10   45.38    7.72
   0   2  10   50.40    8.14
   0   2  10   52.11    8.84
   0  -2 -10   55.24    6.40
   0   2  10   42.82    6.40
   0  -2 -11    2.66    2.00
   0   2  11    1.17    3.08
   0   2  11   -0.12    1.01
   0   2  11   -4.05    2.52
   0  -2 -12   82.79    8.76
   0   2  12   79.85    9.83
   0   2  12   68.16   11.00
   0  -2 -13    0.66    1.51
   0   2  13    2.31    2.99
   0   2  13   -0.18    1.71
   0   2  14   20.08    6.32
   0  -2 -14   22.22    5.07
   0  -2 -15    1.74    2.36
   0   2  15   -0.37    1.28
   0  -3  13    3.74    4.54
   0   3 -12   18.75    3.91
   0   3 -12   23.99    5.78
   0  -3  12   30.59    8.41
   0  -3  11   -0.88    2.10
   0   3 -11   -3.26    2.26
   0   3 -11   -1.78    1.50
   0  -3  10   95.29   16.86
   0  -3  10   70.12   10.54
   0   3 -10   68.40    9.11
   0   3 -10   80.09    8.23
   0   3  -9    3.87    1.79
   0  -3   9    3.63    2.73
   0  -3   9    9.36    5.62
   0   3  -9    3.65    2.04
   0   3  -8  157.14   10.75
   0   3  -8  135.52   12.00
   0  -3   8  129.92   12.99
   0  -3   8  149.35   19.05
   0  -3   7    0.33    2.16
   0  -3   7    2.79    2.14
   0   3  -7    3.19    2.54
   0   3  -7    0.83    1.40
   0   3  -7    1.33    1.22
   0   3  -6   99.51    9.52
   0   3  -6   88.25   10.92
   0  -3   6   87.23   11.95
   0   3  -6   97.63    8.14
   0   3  -5    3.82    1.74
   0   3  -5    0.40    1.30
   0  -3   5    1.89    1.41
   0   3  -5    4.39    2.16
   0  -3   5    2.53    1.29
   0   3  -4  691.96   24.97
   0   3  -4  706.51   23.44
   0  -3   4  622.39   24.16
   0  -3   4  650.63   27.53
   0   3  -4  672.97   27.38
   0  -3   3    2.94    1.56
   0  -3   3    3.16    1.81
   0   3  -3    2.76    1.23
   0   3  -3    6.45    2.34
   0   3  -2  212.92   11.95
   0  -3   2  224.27   12.63
   0   3  -2  212.97   12.24
   0  -3   2  225.83   12.63
   0   3  -1    2.02    1.03
   0   3  -1    1.70    0.75
   0  -3   1    1.71    1.08
   0  -3   1    0.58    0.59
   0   3  -1    1.84    0.76
   0   3   0  804.03   25.10
   0  -3   0  833.31   20.74
   0  -3   0  814.17   23.36
   0   3   0  782.16   19.66
   0  -3  -1    9.08    1.79
   0   3   1    9.59    1.67
   0   3   1    9.69    2.09
   0  -3  -2  382.90   14.67
   0   3   2  359.74   15.98
   0   3   3   13.78    3.24
   0  -3  -3   14.62    2.92
   0  -3  -3   13.08    2.60
   0  -3  -3   11.09    3.02
   0  -3  -4 1073.83   30.11
   0   3   4 1158.56   34.38
   0  -3  -5    7.87    2.67
   0   3   5    9.69    3.20
   0  -3  -5    2.14    0.80
   0   3   6   39.10    6.48
   0  -3  -6   32.75    5.46
   0  -3  -6   35.97    5.08
   0   3   6   33.39    4.80
   0   3   6   32.36    2.60
   0   3   7    0.56    0.56
   0   3   7   -0.53    1.43
   0  -3  -7    0.88    0.77
   0   3   7   -1.42    1.82
   0  -3  -7    0.15    1.25
   0   3   8  286.31   12.15
   0  -3  -8  266.48   23.94
   0   3   8  281.78   19.41
   0   3   8  297.95   17.97
   0   3   8  274.45   17.54
   0   3   9   23.22    5.32
   0   3   9   20.19    4.77
   0  -3  -9   26.85    4.68
   0   3   9   15.68    3.18
   0   3   9   25.09    6.09
   0   3  10  161.53   10.97
   0   3  10  151.64   14.20
   0   3  10  166.80   16.52
   0  -3 -10  172.96   12.34
   0  -3 -11    8.26    2.98
   0   3  11    3.23    1.92
   0   3  11    5.85    4.18
   0   3  12   47.66    6.59
   0  -3 -12   64.59    8.21
   0   3  12   56.66   10.16
   0  -3 -13    1.41    1.13
   0   3  13    4.42    3.58
   0  -3 -14   13.63    4.04
   0   3  14   12.18    5.44
   0   3  15    4.65    3.94
   0  -3 -15    0.77    1.57
   0  -4  12   13.19    5.73
   0   4 -12    7.09    3.60
   0  -4  11    0.28    2.15
   0   4 -11    0.75    1.30
   0   4 -11    5.85    2.96
   0   4 -10  139.25   11.21
   0   4 -10  127.89   13.25
   0  -4  10  123.44   19.96
   0  -4   9    3.62    2.62
   0  -4   9    5.09    4.45
   0   4  -9    0.90    1.04
   0   4  -9   -0.80    1.87
   0  -4   8   66.43    9.88
   0  -4   8   71.82   13.46
   0   4  -8   64.46    7.24
   0  -4   8   65.84    9.34
   0   4  -8   65.98    9.08
   0  -4   7    1.83    1.76
   0  -4   7   -3.79    4.10
   0   4  -7    0.14    0.98
   0   4  -7   -0.46    1.57
   0   4  -6  233.53   18.98
   0   4  -6  216.26   13.70
   0  -4   6  217.10   16.44
   0   4  -6  220.14   15.70
   0  -4   6  214.32   19.14
   0   4  -5    1.13    1.49
   0   4  -5    0.14    1.03
   0  -4   5    0.88    1.57
   0   4  -5    0.88    1.03
   0  -4   5    2.54    1.88
   0  -4   4  534.23   26.14
   0   4  -4  521.66   25.22
   0   4  -4  510.34   23.27
   0   4  -3    2.36    1.58
   0  -4   3    1.04    1.45
   0   4  -2 1281.82   37.74
   0   4  -2 1263.37   32.61
   0   4  -2 1224.53   37.11
   0  -4   2 1267.93   37.94
   0   4  -1   -0.47    1.46
   0  -4   1    4.03    1.67
   0   4  -1    1.78    0.54
   0   4  -1    3.41    1.51
   0   4   0  840.31   22.32
   0  -4   0  895.79   27.75
   0  -4   0  861.78   23.86
   0   4   0  888.73   29.70
   0  -4  -1  131.15    8.05
   0   4   1  144.85    7.80
   0  -4  -1  137.91    9.78
   0   4   1  147.93   11.18
   0   4   2 1294.28   39.37
   0  -4  -2 1429.75   36.05
   0  -4  -3   41.72    5.50
   0   4   3   40.47    6.00
   0  -4  -4   34.26    5.42
   0  -4  -4   34.16    5.86
   0   4   4   31.51    5.52
   0  -4  -4   32.46    2.24
   0  -4  -5   -1.65    1.64
   0   4   5    0.95    1.64
   0  -4  -5   -0.87    2.03
   0  -4  -6  284.09   18.24
   0  -4  -6  266.89   15.36
   0   4   6  308.22   18.77
   0   4   7   -1.12    1.20
   0  -4  -7   -2.83    2.49
   0   4   7   -1.23    1.93
   0  -4  -7    0.33    1.58
   0  -4  -8  446.73   21.17
   0  -4  -8  434.29   23.69
   0   4   8  459.79   26.16
   0   4   8  437.32   23.48
   0   4   8  473.68   23.21
   0  -4  -9   -2.81    2.24
   0   4   9    0.68    1.45
   0   4   9    0.36    2.04
   0   4   9    0.78    0.61
   0   4  10   44.22    3.81
   0   4  10   57.36   10.10
   0  -4 -10   63.65    7.89
   0   4  10   46.07    7.96
   0  -4 -11   -1.75    1.75
   0   4  11    0.50    0.41
   0   4  11   -0.17    1.69
   0  -4 -12    5.41    2.35
   0   4  12    3.77    2.90
   0  -4 -13    0.53    1.70
   0   4  13    0.63    1.86
   0   4  14   19.72    7.25
   0  -4 -14   12.06    4.14
   0  -4 -15    1.62    1.70
   0   4  15   -0.86    1.85
   0  -5  11    7.01    4.19
   0   5 -11    2.94    2.46
   0  -5  11   -1.19    2.75
   0   5 -10   32.44    7.15
   0  -5  10   28.19   10.21
   0   5 -10   24.91    4.89
   0   5  -9   -0.41    1.67
   0  -5   9    0.12    4.43
   0   5  -9   -3.69    2.63
   0  -5   8  161.71   20.98
   0   5  -8  154.76   15.08
   0   5  -8  159.73   12.59
   0   5  -7    3.82    2.29
   0  -5   7    2.32    3.08
   0   5  -7    1.57    1.45
   0   5  -6  140.51   15.50
   0  -5   6  107.84   14.31
   0   5  -6  114.90   12.48
   0   5  -6  125.69   11.37
   0  -5   6  122.83   13.11
   0  -5   5    6.07    3.75
   0  -5   5    7.56    3.41
   0   5  -5    3.40    2.04
   0   5  -5    4.66    2.07
   0   5  -5    7.68    2.90
   0  -5   4  481.20   26.27
   0  -5   4  475.99   24.99
   0   5  -4  465.18   24.30
   0   5  -4  473.37   25.49
   0   5  -3   16.92    3.59
   0   5  -3   20.81    4.76
   0  -5   3   11.96    3.88
   0  -5   3   18.70    4.68
   0   5  -3   16.63    4.33
   0   5  -2  416.01   20.76
   0  -5   2  414.59   11.73
   0  -5   2  405.58   21.24
   0  -5   2  409.79   21.59
   0   5  -2  399.31   21.28
   0   5  -2  410.89   17.12
   0   5  -1    2.56    1.79
   0   5  -1    1.71    0.92
   0  -5   1    3.87    1.84
   0   5  -1    3.94    1.88
   0   5   0  194.66    9.88
   0  -5   0  202.06   13.36
   0   5   0  201.62   14.69
   0  -5  -1   18.74    4.04
   0   5   1   16.10    4.50
   0   5   1   17.07    2.83
   0  -5  -1   14.17    3.05
   0   5   2  986.91   35.09
   0  -5  -2  897.58   28.68
   0  -5  -3   79.46    8.17
   0   5   3   91.30   10.09
   0   5   4 1708.01   50.47
   0  -5  -4 1676.42   47.23
   0  -5  -4 1632.23   51.41
   0  -5  -5    1.83    1.49
   0  -5  -5    0.92    0.92
   0   5   5    1.73    1.71
   0   5   6  373.32   22.38
   0   5   6  378.24   18.13
   0  -5  -6  303.40   20.50
   0  -5  -6  282.15   18.78
   0  -5  -7    0.88    1.27
   0  -5  -7   -3.17    3.28
   0  -5  -7    0.03    1.01
   0   5   7    0.58    1.37
   0   5   7   -0.86    2.74
   0   5   8   41.23    7.79
   0  -5  -8   32.29    6.64
   0  -5  -8   34.78    5.84
   0  -5  -9   -3.07    3.36
   0   5   9    2.91    2.86
   0  -5  -9   -1.70    2.15
   0   5  10    8.40    3.72
   0  -5 -10    8.41    2.85
   0   5  11    7.56    3.73
   0  -5 -11   -1.51    2.22
   0   5  12   40.22    8.79
   0  -5 -12   27.60    5.97
   0   5  13   -0.59    2.29
   0  -5 -13   -1.65    2.24
   0  -5 -14   11.93    4.41
   0   5  14    5.94    4.14
   0   5  15   -2.32    1.92
   0  -5 -15   -4.46    2.83
   0   6 -11    0.47    1.17
   0  -6  11   -4.37    3.09
   0   6 -10   30.74    7.77
   0  -6  10   34.78   11.05
   0  -6  10   20.52    7.41
   0  -6   9    1.11    3.92
   0   6  -9   -3.86    3.14
   0   6  -9    3.00    1.98
   0   6  -8  103.55   13.29
   0   6  -8   89.77   10.03
   0  -6   8   94.32   16.01
   0  -6   7   11.70    5.47
   0   6  -7    7.94    3.76
   0   6  -7    6.68    3.04
   0  -6   6  195.26   19.93
   0   6  -6  200.58   17.80
   0   6  -6  211.55   16.37
   0   6  -5    1.23    1.27
   0   6  -5    3.07    2.73
   0  -6   5    0.43    1.75
   0   6  -4   44.34    8.03
   0   6  -4   44.23    6.44
   0  -6   4   50.75    8.74
   0  -6   4   54.03    8.67
   0   6  -4   45.65    7.90
   0  -6   3   -2.16    1.88
   0   6  -3    1.22    1.42
   0   6  -3    3.47    2.33
   0  -6   3    1.19    1.06
   0   6  -3    1.27    1.84
   0  -6   3    0.98    1.68
   0   6  -2   47.25    7.16
   0   6  -2   33.50    6.79
   0  -6   2   44.04    7.29
   0  -6   2   43.27    7.34
   0   6  -2   39.52    5.06
   0  -6   1    1.44    0.81
   0   6  -1    0.65    0.45
   0   6  -1   -1.84    2.94
   0  -6   1    1.38    1.63
   0   6   0  529.11   18.91
   0   6   0  549.02   28.44
   0  -6   0  570.23   26.09
   0   6   1   47.40    8.03
   0  -6  -1   40.82    6.62
   0  -6  -1   38.81    5.41
   0   6   1   47.83    5.04
   0   6   2 1075.79   41.03
   0   6   2 1101.63   32.40
   0  -6  -2 1046.16   37.50
   0  -6  -2  997.06   32.49
   0   6   3   42.22    7.56
   0   6   3   40.44    5.47
   0  -6  -3   37.45    6.89
   0  -6  -3   38.91    6.16
   0   6   4  407.67   18.24
   0  -6  -4  386.96   21.15
   0  -6  -4  384.35   23.94
   0   6   4  415.68   24.43
   0   6   5   -0.36    2.12
   0  -6  -5   -1.04    1.79
   0  -6  -5    3.84    2.73
   0   6   5    1.54    1.43
   0   6   6   56.77    7.04
   0  -6  -6   51.56    8.27
   0   6   6   63.15    9.53
   0  -6  -6   41.27    7.72
   0  -6  -7    0.23    2.04
   0  -6  -7   -0.51    1.18
   0   6   7    2.78    2.36
   0  -6  -8   71.42   10.44
   0   6   8   82.12   11.90
   0   6   9    3.82    3.84
   0  -6  -9    2.20    2.10
   0   6  10  124.12   15.06
   0  -6 -10  115.24   14.07
   0   6  11    4.38    3.10
   0  -6 -11    1.95    2.96
   0  -6 -12   22.27    7.07
   0   6  12   22.89    7.00
   0   6  13    7.10    5.14
   0  -6 -13    4.73    3.65
   0   6  14   11.18    5.34
   0   6  15    1.83    3.43
   0   7 -10    2.68    2.36
   0  -7  10    2.35    3.36
   0   7  -9   -2.11    2.68
   0  -7   9    0.66    4.05
   0   7  -8   35.90    6.76
   0  -7   8   39.82   11.39
   0   7  -8   28.87    7.51
   0  -7   7    1.85    2.13
   0   7  -7    7.31    3.18
   0   7  -7    5.01    2.81
   0   7  -6   60.59    9.35
   0   7  -6   62.03   10.65
   0  -7   6   61.09   11.83
   0   7  -6   59.36    9.11
   0  -7   5    4.49    3.53
   0  -7   5   -0.64    1.11
   0   7  -5    2.18    1.66
   0  -7   4  207.38    9.95
   0  -7   4  220.46   19.73
   0   7  -4  213.69   18.88
   0  -7   3   10.38    3.90
   0   7  -3   11.07    3.73
   0   7  -3   10.15    2.82
   0   7  -3   10.95    3.72
   0   7  -2  123.89   14.01
   0  -7   2  117.45   13.03
   0   7  -2  120.29    9.13
   0   7  -1    2.65    1.49
   0   7  -1    4.13    1.46
   0  -7   1    1.62    1.56
   0   7   0  133.16    9.03
   0   7   0  142.79   15.12
   0  -7   0  140.84   13.69
   0  -7  -1    0.80    0.97
   0   7   1    2.18    1.10
   0  -7  -1    1.05    1.21
   0   7   1    1.91    2.55
   0  -7  -1    0.62    0.77
   0  -7  -2   73.84   10.05
   0   7   2   66.20   10.30
   0  -7  -2   64.12    9.12
   0  -7  -2   64.63    7.97
   0   7   2   68.94    7.53
   0   7   3    3.44    1.04
   0  -7  -3    4.05    2.50
   0   7   3    1.36    1.33
   0  -7  -3    2.27    1.78
   0  -7  -3    2.45    2.12
   0   7   3    3.72    2.93
   0  -7  -4   93.88   10.35
   0   7   4   90.95   12.09
   0   7   4  100.89    9.28
   0   7   5   23.54    6.51
   0  -7  -5   30.16    6.21
   0   7   6  121.53   14.28
   0  -7  -6  124.87   13.72
   0  -7  -7   -0.75    2.19
   0   7   7    3.44    3.08
   0   7   8  207.31   19.55
   0  -7  -8  150.84   16.16
   0  -7  -9    5.20    3.52
   0   7   9   -0.85    1.33
   0  -7 -10   18.77    6.33
   0   7  10   31.76    7.81
   0   7  11    4.87    4.05
   0  -7 -11    5.41    3.91
   0  -7 -12   15.55    5.97
   0   7  12    3.89    2.41
   0  -7 -13    5.16    3.92
   0   7  13    3.97    3.52
   0   7  14    8.40    5.22
   0   8  -9   -2.71    2.88
   0  -8   9   -7.89    5.10
   0   8  -8    5.25    2.91
   0  -8   8    1.33    2.48
   0   8  -7    2.14    2.27
   0  -8   7   -2.39    1.60
   0   8  -7   -0.27    1.31
   0   8  -6   93.11   12.24
   0  -8   6   87.54   14.98
   0   8  -6   96.89   14.19
   0   8  -5    4.54    3.04
   0  -8   5    5.68    3.54
   0  -8   4  102.25   14.28
   0   8  -4   87.10   12.77
   0   8  -3   -2.36    2.81
   0  -8   3   -1.07    2.70
   0   8  -3   -0.06    0.84
   0  -8   2  120.90   14.14
   0   8  -2  109.16    8.81
   0   8  -2  125.55   15.24
   0   8  -1    0.77    0.99
   0   8  -1   -0.59    1.02
   0  -8   1   -0.38    1.35
   0   8   0   42.33    8.87
   0  -8   0   51.14    8.94
   0   8   0   42.49    5.17
   0  -8  -1   -2.77    3.10
   0   8   1   -0.62    1.69
   0   8   1    0.58    1.08
   0   8   2   74.00   11.67
   0  -8  -2   64.28   10.07
   0  -8  -2   76.84    9.14
   0   8   3   -0.54    1.52
   0  -8  -3   -0.41    2.15
   0  -8  -3    0.40    0.81
   0  -8  -4  132.46   12.78
   0  -8  -4  124.16   13.86
   0   8   4  130.95    7.47
   0   8   4  147.27   16.73
   0  -8  -5   13.50    4.39
   0   8   5    9.97    4.08
   0   8   6   96.28   13.48
   0  -8  -6   89.00    5.11
   0  -8  -6   82.93    5.19
   0  -8  -6   96.20   12.00
   0   8   7    0.95    2.61
   0  -8  -7   -1.55    3.08
   0  -8  -8   14.24    5.04
   0   8   8   16.32    5.81
   0   8   9   -0.82    1.46
   0  -8  -9   -4.16    2.98
   0  -8 -10   17.80    6.12
   0   8  10   17.72    6.77
   0  -8 -11    0.92    1.73
   0   8  11    4.08    2.83
   0   8  12   13.76    5.72
   0  -8 -12    7.69    4.18
   0  -8 -13   -0.52    1.34
   0   8  13   -0.03    2.45
   0   8  14    4.08    3.75
   0   9  -8   16.84    6.53
   0  -9   8   -3.43    3.78
   0   9  -7    3.86    3.20
   0  -9   7    3.54    3.59
   0  -9   6    6.63    4.85
   0   9  -6    2.03    1.69
   0   9  -6    5.43    3.45
   0   9  -5   -2.30    2.96
   0  -9   5    1.07    2.45
   0   9  -4   80.21   13.15
   0  -9   4   63.09   12.08
   0  -9   3   -2.31    2.29
   0   9  -3   -1.75    3.02
   0   9  -2   80.76   12.95
   0  -9   2   70.04   11.61
   0   9  -1   -1.14    1.56
   0  -9   1    3.98    3.65
   0  -9   0   63.89   10.90
   0   9   0   49.25    5.59
   0   9   0   54.62   10.79
   0   9   0   54.40   10.98
   0  -9  -1    2.79    2.80
   0   9   1   -2.58    3.89
   0   9   2  221.66   22.45
   0  -9  -2  202.37   15.42
   0  -9  -2  194.92   19.19
   0  -9  -3    0.28    1.64
   0  -9  -3   -1.52    1.85
   0   9   3   -3.57    3.26
   0  -9  -4   56.09   10.09
   0  -9  -4   71.89    9.87
   0   9   4   71.32   12.58
   0   9   5    0.23    0.55
   0   9   5   -2.61    2.84
   0  -9  -5   -0.81    2.07
   0  -9  -5    0.45    1.30
   0  -9  -5   -3.98    2.92
   0   9   6   14.52    5.97
   0  -9  -6    4.67    1.86
   0   9   6    7.29    2.47
   0  -9  -6   12.12    2.30
   0   9   7   -0.85    3.70
   0  -9  -7    0.65    1.41
   0   9   8   11.91    5.31
   0  -9  -8   15.30    5.32
   0   9   9   -5.69    3.59
   0  -9  -9    2.02    2.53
   0   9  10   13.98    6.14
   0  -9 -10   11.12    5.11
   0   9  11   -0.83    1.62
   0  -9 -11    0.88    1.32
   0  -9 -12    3.29    2.57
   0   9  12    6.26    4.70
   0 -10   7   -4.41    4.23
   0  10  -6   13.84    5.91
   0 -10   6    8.80    5.28
   0  10  -5   -1.57    2.30
   0 -10   5    2.51    2.95
   0  10  -4   14.50    5.99
   0 -10   4   17.96    6.90
   0 -10   3    1.04    2.81
   0  10  -3    1.44    1.27
   0  10  -2    7.84    4.17
   0 -10   2   14.87    5.32
   0 -10   1   -0.56    1.76
   0  10  -1    4.46    2.68
   0  10   0   94.66   15.42
   0 -10   0   89.47   14.06
   0 -10  -1    4.39    3.12
   0  10   1    7.23    4.66
   0 -10  -2   28.56    7.52
   0  10   2   28.16    8.58
   0 -10  -3    7.74    3.45
   0  10   3   10.70    5.47
   0 -10  -3    4.31    4.09
   0 -10  -4   30.53    6.59
   0 -10  -4   39.40    6.86
   0 -10  -4   45.08    9.55
   0  10   5   -5.12    3.89
   0 -10  -5   -0.87    2.95
   0 -10  -5   -1.93    1.82
   0 -10  -6   25.09    6.39
   0  10   6   23.05    7.75
   0 -10  -6   19.17    6.28
   0  10   7    0.05    1.46
   0 -10  -7    0.78    1.67
   0  10   8   33.34    9.44
   0 -10  -8   13.19    5.05
   0  10   9   -3.99    3.72
   0 -10  -9   -2.07    2.64
   0  10  10    9.33    4.53
   0 -10 -10    7.08    4.21
   0 -10 -11   -4.52    3.65
   0 -11   4   -5.12    4.08
   0 -11   3   -0.03    0.90
   0  11  -3   -4.60    2.90
   0  11  -2   33.75    9.75
   0 -11   2   31.04    8.90
   0 -11   1    3.34    3.09
   0  11  -1    2.81    4.27
   0 -11   0    0.69    2.44
   0  11   0    1.00    3.35
   0  11   1    2.84    2.80
   0 -11  -1    0.05    1.85
   0  11   2   14.37    6.96
   0 -11  -2   14.95    5.65
   0 -11  -3    0.16    1.27
   0  11   3   -2.11    3.65
   0 -11  -3   -0.10    1.08
   0 -11  -4   13.86    5.48
   0  11   4   35.85    9.99
   0 -11  -5    0.26    2.06
   0  11   5    8.68    5.79
   0 -11  -6   14.99    5.48
   0  11   6   16.24    6.76
   0  11   7   -4.36    3.72
   0 -11  -7   -0.14    1.70
   0 -12   1    2.79    4.87
   0 -12   0   13.74    5.66
   0 -12  -1    0.05    2.26
   0 -12  -3    4.78    3.82
   0 -12  -4   -1.52    2.15
   0 -12  -5    1.02    2.15
   0 -12  -6    8.08    4.06
   0 -12  -7    4.60    3.54
   1 -12  -7    7.00    5.30
   1 -12  -6   -2.72    2.90
   1 -12  -5    8.18    4.73
   1 -12  -4   -2.52    3.61
   1 -12  -3    2.55    2.69
   1 -12  -2   -0.44    1.95
   1 -12  -1    2.94    2.81
   1 -12   0    0.96    2.29
   1 -12   1   11.27    6.12
  -1  11   7    5.56    3.72
   1 -11  -7    1.18    2.56
  -1  11   6    1.99    2.72
   1 -11  -6   -0.89    1.80
   1 -11  -5    9.72    5.14
  -1  11   5    9.38    5.14
   1 -11  -4    4.34    2.46
  -1  11   4   -1.39    2.77
  -1  11   3    7.20    4.62
   1 -11  -3   13.34    6.18
  -1  11   2   -0.31    1.75
   1 -11  -2   -3.20    3.11
   1 -11  -1    5.90    3.21
  -1  11   1    6.96    4.79
  -1  11   0    4.30    3.99
   1 -11   0   -2.47    1.73
  -1  11  -1   29.15    9.68
   1 -11   1   23.64    8.19
   1 -11   2    3.58    3.42
   1 -11   3   -1.32    1.77
   1 -11   4   -1.61    1.46
   1 -10 -11    5.21    4.05
  -1  10  10    0.34    1.95
   1 -10 -10   -2.38    3.25
   1 -10  -9    6.93    3.77
  -1  10   9    8.42    4.82
   1 -10  -8    6.21    3.99
  -1  10   8    2.70    3.63
   1 -10  -7   11.44    4.50
  -1  10   7   10.86    5.13
   1 -10  -6    0.65    1.43
  -1  10   6    1.73    3.09
   1 -10  -6   -0.59    2.27
  -1  10   5   20.22    7.43
   1 -10  -5   20.93    5.24
   1 -10  -5   15.53    6.08
  -1  10   4    0.36    2.21
   1 -10  -4    1.27    2.13
   1 -10  -3   78.36   13.82
  -1  10   3   68.21   13.63
   1 -10  -2    2.52    3.35
  -1  10   2   -2.40    3.18
  -1  10   1   53.91   12.03
   1 -10  -1   33.97    8.51
   1 -10   0    0.36    2.81
  -1  10   0    5.58    4.56
  -1  10  -1   23.75    8.06
   1 -10   1   21.28    7.37
  -1  10  -2    3.65    3.10
   1 -10   2    0.87    3.40
   1 -10   3   22.60    7.55
  -1  10  -3   20.38    7.31
   1 -10   4   -1.62    2.60
  -1  10  -4    1.93    2.66
   1 -10   5   10.28    5.03
  -1  10  -5    4.38    3.56
   1 -10   6    8.02    5.50
   1  -9 -12    2.00    2.87
  -1   9  12   -1.94    2.38
   1  -9 -11    2.24    1.40
  -1   9  11   -4.35    3.40
   1  -9 -10   -3.44    2.48
  -1   9  10   -1.44    2.96
   1  -9  -9    5.77    3.70
  -1   9   9    7.06    3.49
  -1   9   9   10.61    5.27
  -1   9   8    0.83    1.83
  -1   9   8    0.36    1.22
   1  -9  -8   -0.94    2.38
  -1   9   7   18.83    4.63
  -1   9   7   27.07    7.80
   1  -9  -7   16.97    5.35
  -1   9   6    2.03    3.39
  -1   9   6    1.27    1.32
   1  -9  -6   -1.08    1.32
  -1   9   5  112.45   15.91
  -1   9   5   89.98    7.90
   1  -9  -5   93.21   10.79
  -1   9   4    1.50    2.49
   1  -9  -4   -0.44    0.96
   1  -9  -4    2.50    2.88
   1  -9  -3   64.56    8.05
   1  -9  -3   60.65   11.07
  -1   9   3   60.02   11.83
   1  -9  -2    1.71    1.35
  -1   9   2   -1.45    3.49
   1  -9  -2    2.62    2.29
  -1   9   1   40.62    9.43
   1  -9  -1   44.73    9.90
   1  -9   0   -1.35    2.57
  -1   9   0    5.06    4.30
  -1   9  -1   80.46   13.75
   1  -9   1   65.29   11.71
   1  -9   2    5.06    2.82
  -1   9  -2    3.06    3.41
   1  -9   3  106.05   15.41
  -1   9  -3   99.77   15.23
  -1   9  -4   -0.53    3.10
   1  -9   4    2.98    3.64
   1  -9   5   33.42    9.23
  -1   9  -5   30.03    8.36
   1  -9   6    2.20    2.67
  -1   9  -6    4.45    3.85
  -1   9  -7    8.31    4.17
   1  -9   7    5.61    4.68
  -1   9  -8   -4.26    4.17
  -1   8  13    2.47    3.23
  -1   8  12   -3.57    3.48
   1  -8 -12    1.86    1.84
   1  -8 -11   10.01    4.67
  -1   8  11   13.04    5.46
   1  -8 -10   -0.33    0.96
  -1   8  10    0.02    1.26
  -1   8   9   31.01    7.85
   1  -8  -9   28.49    7.26
  -1   8   8   -2.29    2.30
   1  -8  -8    1.51    1.85
  -1   8   7   92.53   10.73
  -1   8   7  100.89   14.05
   1  -8  -7   70.42   10.38
   1  -8  -6    1.05    0.53
  -1   8   6    0.58    1.34
   1  -8  -6   -0.43    1.32
  -1   8   6   -0.06    0.82
  -1   8   5   20.31    4.16
   1  -8  -5   22.70    5.32
  -1   8   5   23.89    7.09
  -1   8   4    1.38    2.27
   1  -8  -4   -0.40    0.93
  -1   8   4   -0.76    0.68
  -1   8   3   17.36    2.13
  -1   8   3   26.21    7.32
   1  -8  -3   18.28    5.68
   1  -8  -3   19.81    4.37
  -1   8   2    4.42    2.49
   1  -8  -2    5.65    2.20
   1  -8  -2    6.18    3.52
  -1   8   1   71.70   11.89
   1  -8  -1   78.08   12.24
  -1   8   1   67.15    7.48
  -1   8   0   -1.30    0.98
   1  -8   0   -0.65    2.01
  -1   8   0   -2.29    3.12
   1  -8   1  235.46   20.91
  -1   8  -1  210.65   13.60
  -1   8  -1  230.29   21.34
  -1   8  -2    4.47    1.81
  -1   8  -2   -0.70    2.34
  -1   8  -3  163.73   17.98
   1  -8   3  155.21   17.66
  -1   8  -3  142.65    7.39
   1  -8   4    0.84    1.28
  -1   8  -4    0.58    1.32
   1  -8   5   71.61   12.70
  -1   8  -5   81.05   13.16
   1  -8   6    0.43    2.25
  -1   8  -6    0.57    2.09
  -1   8  -6   -1.21    2.21
  -1   8  -7   15.39    5.65
   1  -8   7   15.81    6.20
  -1   8  -8   -0.58    1.05
   1  -8   8   11.09    6.35
   1  -8   9    5.47    5.35
  -1   8  -9   16.27    6.63
  -1   8 -10    6.29    3.91
  -1   7  13    9.93    4.91
   1  -7 -13   12.03    5.35
   1  -7 -12    2.20    2.64
  -1   7  12    1.60    2.13
   1  -7 -11   23.57    6.67
  -1   7  11   25.66    7.07
  -1   7  10   -1.33    2.17
   1  -7 -10    0.51    2.06
  -1   7   9   72.56   11.42
   1  -7  -9   67.02   10.21
  -1   7   8   -0.14    2.26
   1  -7  -8   -3.42    2.32
   1  -7  -7    7.10    3.51
   1  -7  -7   10.76    1.60
  -1   7   7   12.21    4.03
   1  -7  -6   -1.52    1.76
   1  -7  -6    0.24    0.44
  -1   7   5   62.16    7.49
   1  -7  -5   66.12    8.62
   1  -7  -5   64.15    5.84
  -1   7   5   66.63   10.89
  -1   7   4    0.68    1.82
   1  -7  -4    1.05    0.88
  -1   7   4    0.51    0.69
   1  -7  -3  265.05   15.49
  -1   7   3  287.14   12.61
  -1   7   3  292.75   22.33
  -1   7   3  302.01   15.85
   1  -7  -2   -0.91    1.98
  -1   7   2    0.02    1.76
  -1   7   2    0.81    0.96
   1  -7  -2   -0.56    1.01
  -1   7   1  225.53   13.19
   1  -7  -1  219.34   18.99
  -1   7   1  218.74   19.34
   1  -7  -1  211.48   11.63
  -1   7   0   -2.38    3.17
  -1   7   0   -0.39    2.73
  -1   7   0    0.54    0.65
   1  -7   0   -0.92    2.01
  -1   7  -1   29.27    4.52
  -1   7  -1   39.68    7.99
   1  -7   1   24.89    6.00
  -1   7  -2    3.31    1.07
   1  -7   2    0.98    1.57
  -1   7  -2   -0.76    2.84
  -1   7  -3  108.70   13.77
   1  -7   3  111.50   13.55
  -1   7  -3   99.88    6.48
  -1   7  -4    1.29    0.68
   1  -7   4    0.48    0.32
  -1   7  -4    1.01    1.25
   1  -7   5  104.83   14.29
  -1   7  -5  105.26    9.09
  -1   7  -5  103.50   13.75
  -1   7  -6    0.39    0.81
   1  -7   6   -0.59    1.50
  -1   7  -7   64.29   11.41
   1  -7   7   68.41   13.10
  -1   7  -7   83.17    9.37
   1  -7   8    1.33    1.99
  -1   7  -8   -1.64    2.90
  -1   7  -9   19.40    6.49
   1  -7   9   10.42    5.46
  -1   7 -10   -0.69    1.66
   1  -7  10    4.91    6.66
  -1   7 -11   -0.59    2.78
  -1   6  14   -1.79    2.68
   1  -6 -13    7.86    3.48
  -1   6  13    5.75    3.24
   1  -6 -12   -2.06    2.35
  -1   6  12    4.31    2.36
   1  -6 -11   14.65    4.10
  -1   6  11   11.39    4.56
   1  -6 -10   -1.48    2.03
  -1   6  10   -0.75    1.39
  -1   6   9   21.38    5.99
   1  -6  -9   19.46    4.30
   1  -6  -8   -0.79    2.92
  -1   6   8    4.07    3.35
   1  -6  -7  119.24    5.79
   1  -6  -7  125.81   12.14
   1  -6  -7  137.90   12.50
   1  -6  -7  130.60   14.13
  -1   6   7  158.17   15.28
   1  -6  -6    1.26    1.06
   1  -6  -6   -1.03    1.34
   1  -6  -6    2.08    1.42
  -1   6   6    0.47    1.25
  -1   6   5  648.08   26.11
  -1   6   5  664.81   31.79
   1  -6  -5  610.26   26.82
   1  -6  -5  665.07   32.25
   1  -6  -5  638.00   19.68
   1  -6  -4   -0.54    1.32
   1  -6  -4   -0.46    1.00
  -1   6   4    1.38    1.54
  -1   6   4    1.50    0.84
  -1   6   3  673.32   31.91
   1  -6  -3  650.78   29.62
   1  -6  -3  661.46   24.53
  -1   6   3  703.42   24.28
  -1   6   3  624.54   21.57
  -1   6   2    1.62    1.26
  -1   6   2   -1.09    2.32
   1  -6  -2    1.70    1.57
   1  -6  -2    0.79    1.18
   1  -6  -2    3.77    2.45
  -1   6   2    0.97    0.72
  -1   6   1    3.72    1.73
   1  -6  -1   -0.04    0.71
  -1   6   1   -1.29    2.51
   1  -6  -1    4.80    2.42
   1  -6  -1    4.34    3.03
   1  -6   0    7.29    2.97
  -1   6   0    8.51    3.54
   1  -6   0    4.77    2.41
  -1   6  -1  254.38   18.90
   1  -6   1  241.37   18.32
  -1   6  -1  261.46    8.86
   1  -6   1  257.19   18.28
   1  -6   2   15.47    4.48
  -1   6  -2   20.24    5.03
  -1   6  -2   15.99    4.76
   1  -6   2    7.62    3.52
  -1   6  -2   12.60    1.97
  -1   6  -3  220.45   18.15
   1  -6   3  235.09   18.52
   1  -6   3  217.71   18.08
   1  -6   3  212.14    9.26
  -1   6  -3  211.04   17.15
  -1   6  -3  204.51    9.65
  -1   6  -4    1.15    2.18
  -1   6  -4    2.38    1.27
  -1   6  -4    4.41    2.77
   1  -6   4    2.35    1.47
   1  -6   5   91.59   12.60
  -1   6  -5  108.56   13.10
  -1   6  -5   89.64    8.60
  -1   6  -6    2.19    1.68
   1  -6   6   -0.69    1.48
  -1   6  -6    2.11    0.87
  -1   6  -7   92.59   12.57
   1  -6   7   95.43   14.87
  -1   6  -7   94.97    9.31
   1  -6   8    1.99    3.29
  -1   6  -8    0.59    0.63
  -1   6  -8   -0.46    1.48
   1  -6   9   30.76    9.40
  -1   6  -9   45.81    9.64
   1  -6  10   -1.36    2.48
  -1   6 -10    1.31    1.11
  -1   6 -11    5.55    2.99
   1  -6  11    4.88    5.67
  -1   6 -12    2.03    2.61
  -1   5  14   -0.27    1.08
   1  -5 -14    1.65    1.13
   1  -5 -13   15.40    4.83
  -1   5  13   11.37    4.49
   1  -5 -12    0.98    1.86
  -1   5  12    0.57    2.20
  -1   5  11   15.62    5.08
   1  -5 -11   12.20    4.14
   1  -5 -10   -0.57    1.63
  -1   5  10    5.48    3.46
  -1   5   9  159.91   15.61
   1  -5  -9  142.07   14.25
   1  -5  -9  178.53   13.79
   1  -5  -8    0.11    1.05
  -1   5   8    4.15    2.86
   1  -5  -8    7.19    3.42
  -1   5   7  344.49   21.38
   1  -5  -7  319.90   18.19
   1  -5  -7  327.81   21.37
  -1   5   6    3.67    1.98
   1  -5  -6    7.73    2.96
  -1   5   6   11.50    4.23
   1  -5  -6    5.97    2.08
   1  -5  -6   13.48    2.59
   1  -5  -5  250.02   18.06
  -1   5   5  261.11   17.94
   1  -5  -5  236.74   10.38
  -1   5   5  273.85   15.92
   1  -5  -5  244.49   15.30
   1  -5  -4    0.49    0.75
  -1   5   4    0.02    1.06
  -1   5   4    0.58    1.31
   1  -5  -4    2.27    2.12
   1  -5  -4   -1.88    2.83
  -1   5   3  217.71   11.99
   1  -5  -3  235.49   12.96
  -1   5   3  249.78   13.13
  -1   5   3  241.09   16.49
   1  -5  -3  231.30   15.45
  -1   5   2    7.07    1.74
   1  -5  -2   12.36    3.53
   1  -5  -2    7.91    2.22
  -1   5   2   11.92    3.85
  -1   5   1 1790.20   35.54
  -1   5   1 1824.55   52.27
   1  -5  -1 1754.64   38.71
   1  -5  -1 1751.71   52.26
   1  -5   0    4.03    2.05
  -1   5   0    4.91    1.70
  -1   5   0    7.27    2.00
   1  -5   1  250.28    7.38
   1  -5   1  259.32   17.30
  -1   5  -1  263.24   17.50
  -1   5  -1  290.87    8.61
  -1   5  -2   -1.15    1.43
   1  -5   2    0.18    0.41
   1  -5   2    0.20    1.12
  -1   5  -2    0.37    1.00
  -1   5  -2    0.35    0.32
  -1   5  -3 1028.44   38.14
   1  -5   3 1105.42   40.26
  -1   5  -3  968.34   25.90
   1  -5   3 1046.07   39.03
  -1   5  -3 1036.80   38.55
   1  -5   4   -2.12    2.50
  -1   5  -4    2.19    2.83
  -1   5  -4   -1.04    1.19
   1  -5   4   -1.92    2.11
  -1   5  -5  325.58   23.02
  -1   5  -5  352.59   22.33
   1  -5   5  325.67   23.42
   1  -5   5  325.53   22.21
  -1   5  -6    0.20    1.03
   1  -5   6   -2.01    2.41
  -1   5  -6   -0.51    0.98
  -1   5  -7   26.59    4.38
   1  -5   7   24.12    6.88
  -1   5  -7   15.51    5.04
  -1   5  -8   -0.86    1.18
   1  -5   8    3.10    3.25
  -1   5  -8   -1.45    2.02
  -1   5  -9   76.47    7.22
   1  -5   9   75.08   14.70
  -1   5  -9   81.50   11.69
   1  -5  10   -1.66    2.99
  -1   5 -10    2.04    2.38
   1  -5  11   32.00   10.62
  -1   5 -11   23.42    6.75
  -1   5 -12   -5.68    3.38
   1  -4 -14    0.89    1.72
   1  -4 -13   16.44    4.48
  -1   4  13   12.35    4.90
  -1   4  12    1.45    2.54
   1  -4 -12    0.18    1.59
  -1   4  11   34.54    4.63
  -1   4  11   42.22    8.39
   1  -4 -11   37.53    6.31
  -1   4  10   10.70    3.81
  -1   4  10   11.12    2.49
   1  -4 -10   20.49    4.64
  -1   4  10   18.03    5.27
   1  -4  -9  159.89   12.05
  -1   4   9  163.30   14.96
  -1   4   9  130.78   12.65
  -1   4   9  139.27    8.55
   1  -4  -8    2.17    1.44
   1  -4  -8    1.63    0.88
  -1   4   8    2.89    2.26
   1  -4  -7   58.65    8.12
  -1   4   7   69.71    8.85
  -1   4   7   72.03    9.12
   1  -4  -7   76.37    7.76
   1  -4  -6   62.58    7.02
   1  -4  -6   51.07    4.76
   1  -4  -6   42.30    6.96
  -1   4   6   52.07    7.87
   1  -4  -5    7.81    1.83
  -1   4   5   11.99    3.28
   1  -4  -5   13.10    3.19
   1  -4  -5   10.31    3.20
   1  -4  -4   15.69    3.95
   1  -4  -4   12.32    2.13
   1  -4  -4   11.41    2.69
  -1   4   4    7.09    2.51
   1  -4  -3 2456.04   56.12
   1  -4  -3 2448.19   59.97
  -1   4   2   69.00    6.03
   1  -4  -2   64.44    7.07
  -1   4   2   59.39    5.31
  -1   4   2   70.62    8.11
   1  -4  -2   65.48    5.52
   1  -4  -1  444.32   14.05
  -1   4   1  437.23   15.10
  -1   4   1  412.96   19.71
  -1   4   1  415.57   13.42
  -1   4   0    0.16    1.75
   1  -4   0    3.06    0.83
  -1   4   0    1.37    0.76
   1  -4   0   -0.42    1.47
   1  -4   1 1690.17   33.77
  -1   4  -1 1677.79   46.77
  -1   4  -1 1738.71   31.01
   1  -4   1 1626.55   46.61
  -1   4  -1 1657.77   45.82
  -1   4  -2    1.08    0.53
  -1   4  -2    1.07    0.91
   1  -4   2   -1.30    2.00
  -1   4  -2    1.37    1.13
   1  -4   3 2880.06   70.57
  -1   4  -3 2743.04   68.87
  -1   4  -3 2803.21   68.22
  -1   4  -4   10.69    4.02
   1  -4   4    8.69    2.93
   1  -4   4   13.18    4.08
  -1   4  -4    1.20    2.86
   1  -4   5  150.40   14.57
  -1   4  -5  144.26   14.04
   1  -4   5  143.58   13.04
  -1   4  -5  141.01   13.05
  -1   4  -5  145.24    9.45
  -1   4  -6    1.81    2.01
   1  -4   6   -1.72    1.93
  -1   4  -6   -3.60    2.20
  -1   4  -6    0.30    0.90
   1  -4   7  250.30   19.16
  -1   4  -7  258.31   12.76
   1  -4   7  266.81   22.74
  -1   4  -7  240.49   18.15
   1  -4   8    1.45    2.77
  -1   4  -8    0.17    1.46
  -1   4  -8   -0.83    0.70
  -1   4  -9  168.17   10.45
   1  -4   9  184.37   22.21
  -1   4  -9  165.71   15.81
   1  -4  10    1.92    2.20
  -1   4 -10   -0.01    0.64
  -1   4 -10    0.11    1.09
  -1   4 -11   35.14    7.82
   1  -4  11   35.54   11.20
   1  -4  12    6.12    4.04
  -1   4 -12    1.23    1.95
   1  -4  13    6.90    4.39
  -1   4 -13    7.62    3.65
   1  -3 -15    0.09    0.99
   1  -3 -14   -1.81    1.76
   1  -3 -13   22.67    5.32
  -1   3  13   24.39    6.75
  -1   3  12    2.15    1.66
   1  -3 -12    4.90    2.57
  -1   3  12   -0.21    1.66
  -1   3  11   20.49    4.39
  -1   3  11   14.92    4.59
   1  -3 -11   31.81    5.64
  -1   3  11   28.98    6.97
   1  -3 -10    1.45    0.80
  -1   3  10    0.14    1.30
  -1   3  10   -0.98    1.39
  -1   3  10   -0.85    2.15
  -1   3   9   18.87    4.93
   1  -3  -9   22.50    4.29
  -1   3   9   18.58    4.44
  -1   3   9   16.62    3.54
  -1   3   8    3.10    2.29
   1  -3  -8    2.34    1.91
  -1   3   8    2.22    1.33
  -1   3   8    3.05    2.50
   1  -3  -7  128.62   10.80
  -1   3   7  134.85   11.71
  -1   3   7  115.89    7.76
   1  -3  -7  139.06    9.68
  -1   3   7  134.79   12.63
   1  -3  -6   17.03    2.84
  -1   3   6   18.57    4.19
   1  -3  -6   17.64    3.24
   1  -3  -6   13.34    3.63
  -1   3   6   14.20    2.40
   1  -3  -5  528.56   22.24
  -1   3   5  611.84   23.27
   1  -3  -5  531.76   17.68
   1  -3  -5  597.74   20.16
   1  -3  -4   36.77    3.73
   1  -3  -4   48.93    5.17
  -1   3   4   44.40    5.58
   1  -3  -4   35.85    5.22
  -1   3   3  570.96   21.02
   1  -3  -3  517.52   20.65
   1  -3  -3  565.29   16.56
   1  -3  -3  538.75   18.17
  -1   3   2   74.80    5.90
   1  -3  -2   84.79    7.18
   1  -3  -2   94.86    6.76
  -1   3   2   90.59    6.60
  -1   3   2   83.84    7.42
  -1   3   1 1964.99   40.71
   1  -3  -1 2010.29   42.64
   1  -3  -1 1834.91   44.64
   1  -3  -1 2064.74   38.06
  -1   3   1 1909.32   39.71
  -1   3   1 1874.65   45.74
  -1   3   0    4.65    1.12
   1  -3   0    2.98    1.51
  -1   3   0    2.96    0.98
   1  -3   0    2.98    0.94
  -1   3   0    3.28    1.39
   1  -3   0    2.47    1.38
  -1   3  -1   43.77    5.46
  -1   3  -1   53.22    6.06
   1  -3   1   52.63    6.10
   1  -3   1   47.34    3.77
  -1   3  -1   49.47    3.69
   1  -3   2   -0.30    1.12
  -1   3  -2    0.08    0.83
  -1   3  -3   72.79    7.77
   1  -3   3   76.36    8.40
   1  -3   4    1.67    2.00
  -1   3  -4    1.80    1.70
  -1   3  -5 5000.40   93.88
  -1   3  -5 5285.24  112.89
   1  -3   5 5328.48  114.00
  -1   3  -5 5305.97  107.22
   1  -3   6    4.00    3.50
  -1   3  -6   -0.04    0.56
  -1   3  -6    0.66    1.29
  -1   3  -6    1.43    1.58
   1  -3   6    4.90    2.77
  -1   3  -7  217.42   16.11
   1  -3   7  216.65   16.87
   1  -3   7  212.53   19.30
  -1   3  -7  233.69   19.69
  -1   3  -7  231.65   10.84
   1  -3   8   -3.09    3.48
   1  -3   8   -0.86    2.09
  -1   3  -8   -1.16    1.81
  -1   3  -8    1.42    0.79
  -1   3  -9  106.11    7.69
  -1   3  -9  102.03   11.51
   1  -3   9   96.60   15.44
   1  -3  10    1.35    2.63
  -1   3 -10    1.02    1.38
  -1   3 -10   -0.64    0.83
  -1   3 -11   79.37    7.06
   1  -3  11   77.32   15.85
  -1   3 -11   67.75   10.16
   1  -3  12    2.89    4.88
  -1   3 -12   -1.60    2.57
  -1   3 -13    3.09    1.85
   1  -3  13    3.68    3.35
  -1   3 -14    4.45    3.20
   1  -3  14   -0.27    1.60
   1  -2 -15    5.07    2.98
   1  -2 -14    0.69    0.71
  -1   2  13   30.59    6.60
   1  -2 -13   38.76    6.65
  -1   2  13   22.21    6.34
  -1   2  12    3.91    2.14
  -1   2  12    2.62    2.94
   1  -2 -12   -0.02    1.32
  -1   2  11    3.31    2.91
   1  -2 -11   -1.79    2.14
  -1   2  11    2.55    1.99
  -1   2  11    1.18    1.29
  -1   2  10   12.55    3.85
  -1   2  10   20.55    4.58
   1  -2 -10   20.04    4.27
  -1   2  10   20.80    5.49
   1  -2  -9  130.91   10.08
  -1   2   9  125.70   10.97
  -1   2   9  120.12   11.91
  -1   2   9  120.39   13.31
  -1   2   8   10.98    3.31
  -1   2   8   15.37    4.02
   1  -2  -8   12.23    5.37
   1  -2  -8   16.34    3.43
  -1   2   8   12.88    3.99
  -1   2   7  745.40   30.92
  -1   2   7  787.34   26.38
  -1   2   7  848.17   30.25
  -1   2   7  714.57   26.74
   1  -2  -7  792.45   25.02
   1  -2  -6   14.98    3.07
  -1   2   6    9.05    2.52
  -1   2   6    8.63    2.47
  -1   2   6   14.73    3.62
  -1   2   6    8.91    2.66
   1  -2  -5  444.93   17.58
   1  -2  -5  459.16   16.79
  -1   2   5  443.93   15.72
  -1   2   5  498.25   19.55
   1  -2  -5  457.94   16.65
  -1   2   4  172.03    9.99
  -1   2   4  144.55    7.54
   1  -2  -4  135.45    8.94
   1  -2  -4  152.86    8.38
   1  -2  -4  165.75    8.86
   1  -2  -3   49.15    4.36
  -1   2   3   48.52    4.06
  -1   2   3   49.80    4.81
   1  -2  -3   43.63    4.73
   1  -2  -3   47.12    4.00
   1  -2  -2   22.69    2.78
  -1   2   2   18.91    2.71
   1  -2  -2   23.06    2.81
  -1   2   2   18.62    2.81
   1  -2  -2   23.85    3.18
   1  -2  -1  300.83   10.01
  -1   2   1  278.00   10.36
  -1   2   1  291.65   11.73
  -1   2   1  291.25   10.75
   1  -2  -1  277.83   11.29
   1  -2   0   -0.27    0.84
   1  -2   0    1.60    1.04
  -1   2   0   -0.59    0.71
  -1   2   0    0.33    0.66
   1  -2   0    0.34    0.97
  -1   2   0    0.05    0.94
   1  -2   0    0.58    0.48
  -1   2  -1 3817.77   74.19
  -1   2  -1 3805.02   64.88
   1  -2   1 3808.78   68.36
   1  -2   1 3721.19   74.93
  -1   2  -2    1.76    1.34
   1  -2   2   -0.12    0.74
   1  -2   3 6109.63  114.64
   1  -2   3 5782.17  111.91
  -1   2  -3 5922.25  111.84
   1  -2   4    1.42    0.79
  -1   2  -4    1.03    0.71
   1  -2   4    1.44    0.83
  -1   2  -4   -0.01    1.10
  -1   2  -5   91.97    5.48
  -1   2  -5   88.85    8.66
   1  -2   5   89.99    9.77
   1  -2   5   89.38    8.82
  -1   2  -6    0.63    0.67
  -1   2  -6    3.70    2.53
   1  -2   7  193.44   17.84
  -1   2  -7  194.45   17.03
   1  -2   7  180.10   14.49
  -1   2  -7  209.79    9.59
  -1   2  -7  175.95   13.63
   1  -2   8   -0.15    1.30
   1  -2   8   -3.26    2.53
  -1   2  -8   -0.01    0.98
  -1   2  -8   -0.63    1.03
   1  -2   9  132.33   17.75
  -1   2  -9  134.73    8.48
   1  -2   9  134.16   14.40
  -1   2  -9  129.30   12.39
  -1   2 -10   -1.72    2.07
  -1   2 -10    0.96    1.10
   1  -2  10   -1.81    3.57
   1  -2  11   80.07   16.30
  -1   2 -11   90.98    7.56
  -1   2 -11   93.54   11.43
  -1   2 -12    4.82    1.83
  -1   2 -12    4.55    2.42
   1  -2  13   15.60    5.79
  -1   2 -13   14.68    4.98
   1  -2  14   -6.15    3.90
  -1   2 -14    5.32    3.18
   1  -2  15    6.47    3.93
   1  -2  15    4.32    4.12
   1  -1 -15    3.38    2.36
   1  -1 -14   -4.64    2.38
  -1   1  13   17.09    5.42
   1  -1 -13   14.35    3.95
  -1   1  13   15.91    5.09
  -1   1  12    5.09    3.33
   1  -1 -12    3.06    2.21
  -1   1  12    2.58    2.34
   1  -1 -11  158.94   12.39
  -1   1  11  162.37   15.47
  -1   1  11  159.08   14.94
  -1   1  11  158.32   15.36
  -1   1  10    0.64    1.67
  -1   1  10   -0.87    2.10
  -1   1  10    2.71    2.33
   1  -1 -10   -1.25    1.13
   1  -1  -9  127.82    9.87
  -1   1   9  127.32   12.11
  -1   1   9  124.29   11.75
  -1   1   9  129.45   14.42
   1  -1  -8   15.99    5.43
  -1   1   8   21.37    4.52
  -1   1   8   15.59    3.78
   1  -1  -8   16.58    3.60
  -1   1   8   18.75    4.62
  -1   1   8   13.40    3.50
  -1   1   7  385.40   21.67
  -1   1   7  387.96   18.62
  -1   1   7  381.09   19.09
   1  -1  -7  392.43   16.60
  -1   1   7  377.67   17.77
   1  -1  -6    4.60    1.63
  -1   1   6   10.35    5.94
  -1   1   6    8.50    3.40
  -1   1   6    5.96    2.02
  -1   1   6    4.69    1.88
  -1   1   5   15.82    2.83
  -1   1   5   14.32    3.17
   1  -1  -5   15.94    2.76
  -1   1   5   13.55    2.71
   1  -1  -4   -0.07    0.68
  -1   1   4   -0.24    0.73
  -1   1   4    1.12    1.12
   1  -1  -4    1.13    0.95
  -1   1   4    0.91    1.18
   1  -1  -3 1177.77   27.56
   1  -1  -3 1279.23   30.13
  -1   1   3 1349.01   29.10
  -1   1   3 1252.81   29.20
   1  -1  -3 1258.35   28.88
  -1   1   2   10.47    1.77
  -1   1   2    9.54    1.56
   1  -1  -2    9.50    1.72
   1  -1  -2   10.27    1.68
   1  -1  -2    9.37    1.60
  -1   1   1 5492.77   83.54
   1  -1  -1 5487.36   83.33
  -1   1   1 5603.70   86.83
   1  -1  -1 5209.38   85.45
   1  -1   0    0.70    0.25
  -1   1   0    1.38    0.54
  -1   1   0    0.47    0.43
   1  -1   0    0.76    0.38
   1  -1   1 5454.18   97.82
  -1   1  -1 5502.85   96.42
  -1   1  -2    0.14    0.66
   1  -1   2    0.13    0.53
   1  -1   3 9779.81  174.94
  -1   1  -3 9999.00  174.37
   1  -1   4    0.84    0.49
  -1   1  -4    2.50    1.74
  -1   1  -4    0.79    0.48
   1  -1   4   -0.05    1.12
   1  -1   4    2.17    1.36
   1  -1   5  691.96   19.63
  -1   1  -5  737.49   25.28
  -1   1  -5  707.98   16.90
   1  -1   5  694.44   28.38
   1  -1   5  716.70   25.84
   1  -1   6   -0.12    0.74
  -1   1  -6   -0.15    0.97
   1  -1   6   -1.66    2.28
  -1   1  -6   -0.51    0.94
  -1   1  -7  617.96   25.52
  -1   1  -7  644.70   18.13
   1  -1   7  597.93   21.72
   1  -1   7  606.06   32.81
  -1   1  -8    6.87    1.96
  -1   1  -8    3.31    1.90
   1  -1   8    5.27    2.19
   1  -1   8    6.05    3.81
   1  -1   8    3.92    2.40
  -1   1  -8    4.71    2.86
  -1   1  -9   42.21    7.04
  -1   1  -9   54.01    5.30
   1  -1   9   46.36   10.40
   1  -1   9   40.47    6.23
   1  -1   9   46.27    8.15
   1  -1  10    0.23    0.75
  -1   1 -10   -0.39    1.82
   1  -1  10    4.10    3.00
   1  -1  10    3.10    4.88
  -1   1 -10    1.27    0.74
  -1   1 -11  113.45   12.59
   1  -1  11  114.99   12.32
  -1   1 -11  144.05    9.77
  -1   1 -12    1.23    0.95
  -1   1 -12   -0.94    2.07
   1  -1  13   11.39    4.54
   1  -1  13   16.93    6.15
  -1   1 -13   11.74    4.34
  -1   1 -13   18.26    3.81
   1  -1  14   -0.94    2.24
   1  -1  14    4.94    3.31
   1  -1  15    1.49    2.41
   1  -1  15    5.83    3.89
   1   0 -15    0.83    1.46
  -1   0  14    3.53    3.02
   1   0 -14    1.30    1.56
   1   0 -13   59.44    8.07
  -1   0  13   58.45    9.73
  -1   0  13   66.29   11.42
  -1   0  12    1.00    2.58
   1   0 -12    0.04    0.90
  -1   0  11   43.07    8.46
  -1   0  11   44.15    7.76
  -1   0  11   38.17    7.62
   1   0 -11   37.59    5.95
   1   0 -10   -0.46    1.08
  -1   0  10    2.13    2.51
  -1   0  10   -0.95    1.52
  -1   0  10    1.10    1.54
  -1   0   9   41.41    7.69
   1   0  -9   44.90    5.93
  -1   0   9   45.21    6.82
  -1   0   9   45.43    8.56
  -1   0   8    6.63    2.34
  -1   0   8    3.40    1.81
   1   0  -8    4.06    1.48
  -1   0   8    6.22    3.20
   1   0  -8    6.60    4.02
  -1   0   8    3.94    1.42
  -1   0   7  353.65   21.28
  -1   0   7  343.29   16.87
  -1   0   7  346.27   19.35
   1   0  -7  333.06   24.16
   1   0  -7  379.40   16.74
  -1   0   7  350.84   16.71
  -1   0   6    4.58    3.03
  -1   0   6    1.49    1.62
  -1   0   6    0.79    0.67
  -1   0   6    0.90    1.09
   1   0  -6    4.16    2.03
   1   0  -5 2495.54   53.73
  -1   0   5 2466.98   51.19
  -1   0   5 2423.98   58.76
  -1   0   5 2457.06   57.63
  -1   0   5 2558.28   51.80
   1   0  -4   68.06    5.65
  -1   0   4   60.56    4.56
  -1   0   4   61.95    6.26
  -1   0   4   57.80    4.41
  -1   0   4   65.59    6.51
   1   0  -3 2353.38   47.34
   1   0  -3 2295.16   48.95
  -1   0   3 2293.37   42.37
  -1   0   3 2261.29   42.08
  -1   0   3 2376.20   50.28
  -1   0   3 2320.92   49.56
   1   0  -2    3.72    1.05
   1   0  -2    4.81    1.58
  -1   0   2    3.94    1.18
  -1   0   1 5442.48   94.26
  -1   0  -2    0.18    0.43
   1   0   2    1.01    0.87
  -1   0  -2   -0.05    0.41
  -1   0  -2    0.04    0.40
   1   0   3  707.24   15.75
  -1   0  -3  869.96   22.71
  -1   0  -3  831.76   23.86
  -1   0  -3  807.68   16.72
   1   0   3  961.61   25.41
  -1   0  -4    0.75    0.61
   1   0   4    0.51    0.42
   1   0   4    0.01    1.36
  -1   0  -4    0.89    0.47
  -1   0  -4    0.63    0.67
   1   0   4    1.54    1.28
   1   0   5 1570.59   35.00
   1   0   5 1587.54   48.49
  -1   0  -5 1618.70   40.83
   1   0   5 1590.08   41.73
  -1   0  -5 1681.97   33.05
  -1   0  -6    2.59    1.90
   1   0   6    0.16    0.53
   1   0   6    1.82    1.13
  -1   0  -6    0.73    1.17
   1   0   6    1.51    2.30
   1   0   7  203.16   18.23
  -1   0  -7  170.81   12.54
   1   0   7  199.24   11.87
  -1   0  -7  199.33    9.44
  -1   0  -8    2.41    1.41
   1   0   8    2.46    1.51
  -1   0  -8    0.13    1.78
   1   0   8    0.94    0.98
  -1   0  -8    0.74    1.16
  -1   0  -9  193.37   10.51
   1   0   9  203.19   16.88
  -1   0  -9  200.42   15.06
   1   0   9  197.87   14.48
   1   0  10    6.51    2.78
  -1   0 -10   10.70    2.62
  -1   0 -10    4.90    2.71
   1   0  10   11.34    4.23
  -1   0 -11   19.44    4.87
   1   0  11   21.89    5.56
   1   0  11   31.27    7.06
  -1   0 -11   26.27    4.34
   1   0  12    0.46    2.22
   1   0  12   -0.70    2.64
  -1   0 -12    4.27    2.11
  -1   0 -12    1.07    2.02
   1   0  13   22.77    6.62
  -1   0 -13   22.76    4.47
   1   0  13   23.21    6.18
   1   0  14   -0.87    2.15
  -1   0 -14    2.77    1.64
   1   0  14   -1.20    1.36
   1   0  15    5.71    3.78
  -1  -1  14   -3.75    2.95
   1   1 -14   -1.53    1.50
   1   1 -13   -1.02    1.25
  -1  -1  13    2.39    3.20
  -1  -1  12    1.08    2.19
   1   1 -12    0.97    1.48
  -1  -1  12   -1.99    1.06
  -1  -1  11   98.12   11.88
  -1  -1  11   78.02    9.88
  -1  -1  11   86.09   12.54
   1   1 -11   96.32    9.60
  -1  -1  10    2.19    2.47
  -1  -1  10    0.19    1.56
   1   1 -10    1.48    1.68
  -1  -1  10   -0.68    1.30
   1   1  -9  146.56   11.21
   1   1  -9  132.27   10.44
  -1  -1   9  127.60   13.70
  -1  -1   9  125.40   14.44
   1   1  -8    0.87    1.05
  -1  -1   8   -0.83    2.08
  -1  -1   8    2.19    1.54
   1   1  -8    0.60    0.85
   1   1  -8    2.20    1.70
  -1  -1   8   -0.12    0.76
  -1  -1   7  361.36   17.54
   1   1  -7  392.57   17.66
  -1  -1   7  364.01   21.68
   1   1  -7  351.94   23.84
   1   1  -7  370.09   16.01
  -1  -1   7  365.85   21.42
  -1  -1   6   36.86    6.05
   1   1  -6   38.11    7.17
  -1  -1   6   39.81    4.99
   1   1  -6   30.27    3.95
  -1  -1   6   39.46    6.44
   1   1  -6   42.60    5.46
   1   1  -5 1373.97   45.35
  -1  -1   5 1434.28   41.41
  -1  -1   5 1457.47   41.86
   1   1  -5 1475.41   37.13
   1   1  -5 1386.58   32.42
  -1  -1   5 1414.12   34.20
   1   1  -4    2.28    1.52
   1   1  -4    0.69    1.44
  -1  -1   4    0.92    1.08
  -1  -1   4    1.67    1.47
   1   1  -4    1.62    0.87
  -1  -1   4    2.35    0.82
  -1  -1   3   39.58    4.89
   1   1  -3   43.80    5.77
  -1  -1   3   41.36    3.25
   1   1  -3   41.72    3.16
   1   1  -3   42.50    4.77
  -1  -1   3   43.73    5.08
  -1  -1   2    1.10    0.82
   1   1  -2    1.43    1.00
  -1  -1   2    1.12    0.62
   1   1  -2    0.08    0.70
   1   1  -2    1.75    0.57
   1   1  -1 3725.69   60.49
  -1  -1   1 3673.13   64.86
   1   1  -1 3418.09   65.40
  -1  -1   1 3608.41   60.36
  -1  -1   1 3458.99   67.06
  -1  -1   0   20.79    2.18
  -1  -1   0   18.76    2.28
  -1  -1   0   22.66    2.62
   1   1   0   20.36    2.29
  -1  -1  -1 5930.92  104.15
   1   1   1 6250.99  104.03
   1   1   2    5.80    1.29
  -1  -1  -2    3.97    1.12
  -1  -1  -2    4.99    1.44
  -1  -1  -2    5.58    1.57
   1   1   2    5.52    1.51
   1   1   3 3782.86   71.64
  -1  -1  -3 3689.08   71.01
  -1  -1  -3 3902.72   73.77
   1   1   3 3428.83   65.32
  -1  -1  -3 3417.60   71.38
  -1  -1  -4    5.19    2.23
  -1  -1  -4    2.52    0.81
   1   1   4    3.15    0.99
  -1  -1  -4    1.59    0.97
   1   1   4    3.02    1.44
   1   1   4    1.35    1.89
   1   1   4    2.13    1.23
   1   1   5  625.25   28.45
   1   1   5  612.36   22.35
   1   1   5  616.54   22.60
  -1  -1  -5  619.59   21.85
  -1  -1  -5  640.59   18.68
   1   1   5  586.22   17.40
  -1  -1  -5  586.24   25.01
   1   1   6   17.37    2.91
   1   1   6   14.86    3.67
  -1  -1  -6   19.26    3.05
   1   1   6   18.37    3.82
  -1  -1  -6   19.52    4.27
   1   1   7 1567.63   41.05
  -1  -1  -7 1638.73   46.08
   1   1   7 1712.96   48.73
  -1  -1  -8    3.01    2.34
   1   1   8    0.35    1.00
   1   1   8   -1.23    2.21
   1   1   8   -1.29    0.92
  -1  -1  -8    1.57    1.83
  -1  -1  -8   -0.11    1.18
  -1  -1  -9    3.49    1.78
  -1  -1  -9    4.84    2.75
   1   1   9    6.14    2.51
   1   1   9    7.00    2.27
  -1  -1  -9    9.97    2.81
   1   1   9    5.95    2.44
   1   1  10   -1.35    1.57
   1   1  10    0.44    1.61
   1   1  10   -2.76    2.83
  -1  -1 -10    2.03    1.59
   1   1  11   62.05   10.44
  -1  -1 -11   75.02    7.72
   1   1  11   74.12   10.04
   1   1  11   65.06    8.56
  -1  -1 -12    3.52    2.07
   1   1  12    0.86    1.85
   1   1  13   44.14    9.89
   1   1  13   42.96    7.99
  -1  -1 -13   46.40    6.68
   1   1  14    1.31    1.84
   1   1  14    1.12    3.28
  -1  -1 -14    1.65    1.48
   1   1  15    8.39    5.05
   1   1  16   -1.79    2.48
  -1  -2  14    1.05    1.99
   1   2 -14   -0.08    0.74
  -1  -2  13    5.13    3.95
   1   2 -13    8.68    3.02
   1   2 -12   -1.39    1.47
  -1  -2  12   -3.83    4.13
  -1  -2  12   -1.03    1.87
   1   2 -11   38.61    6.21
   1   2 -11   40.82    6.57
  -1  -2  11   52.45   10.35
   1   2 -10    1.61    1.99
   1   2 -10    1.19    1.02
  -1  -2  10   -0.34    0.76
  -1  -2  10    2.91    2.42
  -1  -2   9   24.32    6.17
   1   2  -9   25.08    4.66
   1   2  -9   21.05    4.08
   1   2  -8   20.44    4.33
   1   2  -8   22.45    4.24
  -1  -2   8   20.81    6.55
  -1  -2   7  230.03   17.75
  -1  -2   7  226.76   13.77
   1   2  -7  221.15   13.47
   1   2  -7  217.05   12.25
   1   2  -7  209.74   17.98
   1   2  -6   -0.60    0.99
   1   2  -6    0.74    1.36
  -1  -2   6    0.65    0.95
   1   2  -6   -1.27    2.14
  -1  -2   5  297.70   21.31
  -1  -2   5  295.27   17.61
   1   2  -5  284.77   14.82
   1   2  -5  296.53   12.99
   1   2  -5  287.70   18.31
  -1  -2   5  263.93   12.95
   1   2  -4   -0.29    1.18
  -1  -2   4    0.84    0.50
   1   2  -4    0.62    1.03
  -1  -2   4    0.46    1.11
  -1  -2   4   -1.73    2.01
   1   2  -4    0.20    0.59
  -1  -2   3 1665.12   43.59
  -1  -2   3 1628.35   38.14
   1   2  -3 1617.19   42.74
   1   2  -3 1747.07   42.42
   1   2  -3 1684.99   36.45
  -1  -2   3 1772.11   47.43
   1   2  -2    3.09    1.17
  -1  -2   2    5.11    2.04
  -1  -2   2    5.54    1.61
  -1  -2   2    6.56    2.07
   1   2  -2    6.93    1.58
   1   2  -1  211.28    9.14
  -1  -2   1  215.75    9.19
  -1  -2   1  204.74    8.96
  -1  -2   1  201.35    8.72
   1   2  -1  205.53    8.46
  -1  -2   1  206.16   10.64
   1   2   0   10.98    2.30
  -1  -2   0    9.25    1.59
  -1  -2   0   10.80    2.07
   1   2   0   10.38    1.72
  -1  -2   0    8.99    1.19
   1   2   0   11.53    2.05
  -1  -2   0   10.31    2.15
  -1  -2   0   10.15    2.05
   1   2   0   10.28    1.30
  -1  -2  -1 4746.25   92.37
   1   2   1 5161.64   89.99
  -1  -2  -1 5219.26   90.61
   1   2   1 5251.91   87.00
  -1  -2  -1 5040.11   88.12
   1   2   1 4749.84   87.66
   1   2   1 5079.42   90.98
  -1  -2  -2   17.53    2.91
  -1  -2  -2   18.79    1.87
   1   2   2   16.76    2.82
   1   2   2   20.66    2.06
   1   2   3 1588.28   28.35
  -1  -2  -3 1489.22   38.18
  -1  -2  -4   54.61    5.93
   1   2   4   61.54    4.87
   1   2   4   51.47    6.30
   1   2   4   51.93    5.81
  -1  -2  -4   49.09    6.40
  -1  -2  -4   74.75    7.48
  -1  -2  -5  739.98   23.63
   1   2   5  773.22   27.59
  -1  -2  -5  730.19   29.84
   1   2   5  791.26   21.88
  -1  -2  -6   15.39    2.85
   1   2   6   17.18    2.93
  -1  -2  -6   20.70    5.24
   1   2   6   20.81    4.63
  -1  -2  -7  332.76   22.32
   1   2   7  301.10   18.66
   1   2   7  300.82   14.40
  -1  -2  -7  334.78   15.68
  -1  -2  -8    0.73    1.00
   1   2   8    0.97    1.59
  -1  -2  -8   -1.03    1.15
   1   2   8    0.13    1.69
   1   2   8    2.58    3.33
   1   2   9  516.86   28.20
  -1  -2  -9  426.11   28.82
   1   2   9  480.22   22.29
   1   2   9  450.80   25.46
  -1  -2 -10   -1.43    1.52
   1   2  10   -0.45    0.92
   1   2  10    0.68    1.75
   1   2  10   -1.92    2.02
   1   2  10    0.98    2.02
  -1  -2 -11  128.12   11.04
   1   2  11  125.12   11.22
   1   2  11  126.62   15.60
   1   2  11  102.82   11.38
  -1  -2 -12   -0.10    1.04
   1   2  12    2.53    2.32
  -1  -2 -13   26.22    5.54
   1   2  13   34.92    8.64
   1   2  13   33.54    6.30
   1   2  14    0.84    1.80
  -1  -2 -14    2.27    1.73
  -1  -2 -15    1.06    1.04
   1   2  15    3.57    3.49
   1   2  16   -2.85    3.90
  -1  -3  13    2.85    2.92
   1   3 -13   -2.51    1.76
  -1  -3  12    2.22    2.45
   1   3 -12   -2.84    2.00
   1   3 -11   26.81    5.31
   1   3 -11   17.18    4.26
  -1  -3  11   23.92    7.23
  -1  -3  10    3.03    3.18
   1   3 -10    1.78    1.20
   1   3 -10    2.76    1.72
  -1  -3  10    2.09    1.11
   1   3  -9  121.72   10.84
  -1  -3   9   93.33   10.42
  -1  -3   9  125.91   15.52
   1   3  -9  116.14   10.38
  -1  -3   8    8.74    4.63
   1   3  -8    5.20    2.35
   1   3  -8    2.08    1.30
   1   3  -7    0.54    0.99
   1   3  -7    1.46    1.67
  -1  -3   7   -3.02    3.12
  -1  -3   7    1.55    1.88
   1   3  -7   -0.81    2.05
  -1  -3   6    1.14    2.70
   1   3  -6   -0.64    1.04
  -1  -3   6   -0.93    2.04
   1   3  -6    1.22    1.55
   1   3  -6    0.90    1.06
  -1  -3   5  392.39   24.97
  -1  -3   5  379.36   22.30
   1   3  -5  380.81   21.46
   1   3  -5  387.95   17.01
   1   3  -5  395.96   19.28
  -1  -3   5  376.94   18.48
   1   3  -4   22.98    3.83
  -1  -3   4   22.28    5.21
   1   3  -4   21.64    4.32
  -1  -3   4   16.04    3.48
   1   3  -4   24.65    4.82
   1   3  -3  712.84   22.63
  -1  -3   3  666.77   23.32
   1   3  -3  702.56   25.31
  -1  -3   3  711.27   27.15
   1   3  -2   55.32    5.63
  -1  -3   2   57.54    5.80
   1   3  -2   56.05    5.58
  -1  -3   2   53.03    4.83
  -1  -3   2   60.61    6.27
   1   3  -1 2305.99   50.18
  -1  -3   1 2234.39   46.95
   1   3  -1 2232.47   46.83
  -1  -3   1 2302.60   44.74
   1   3  -1 2284.19   51.26
  -1  -3   1 2126.81   48.61
  -1  -3   1 2269.40   52.04
  -1  -3   0   31.44    4.19
   1   3   0   32.56    2.94
  -1  -3   0   33.81    4.52
  -1  -3   0   31.50    2.93
   1   3   0   27.53    3.95
  -1  -3   0   34.10    3.33
   1   3   0   29.02    3.06
  -1  -3   0   29.38    4.03
   1   3   0   35.51    4.41
  -1  -3  -1  664.62   22.60
  -1  -3  -1  623.99   16.07
   1   3   1  624.78   16.32
   1   3   1  695.65   22.45
  -1  -3  -1  621.46   18.81
   1   3   1  611.58   19.74
  -1  -3  -1  639.16   20.74
   1   3   2    0.73    0.78
   1   3   2   -0.01    0.91
  -1  -3  -2    0.80    0.86
  -1  -3  -2   -0.71    1.03
  -1  -3  -3   58.44    3.18
   1   3   3   68.64    7.30
  -1  -3  -3   53.82    6.24
   1   3   3   68.37    6.05
   1   3   4  217.39   14.15
  -1  -3  -4  244.59   14.86
  -1  -3  -5  328.47   18.46
   1   3   5  334.10   13.73
   1   3   6   37.40    6.79
   1   3   6   32.66    2.22
  -1  -3  -6   41.11    6.85
  -1  -3  -6   32.15    5.55
  -1  -3  -6   35.74    6.99
   1   3   6   43.62    5.06
   1   3   7 1318.98   42.75
   1   3   7 1289.75   44.39
  -1  -3  -7 1315.19   49.66
   1   3   7 1357.22   28.49
  -1  -3  -7 1238.01   38.92
  -1  -3  -8    5.25    1.77
   1   3   8    6.87    2.26
   1   3   8    3.30    2.03
  -1  -3  -8    1.33    1.64
   1   3   8    5.22    1.50
   1   3   8    5.84    3.00
   1   3   9  360.98   23.62
  -1  -3  -9  357.76   19.22
   1   3   9  330.28   21.20
  -1  -3  -9  297.60   24.89
   1   3   9  342.41   18.45
   1   3   9  347.14   14.55
  -1  -3 -10   -0.38    1.35
   1   3  10    0.13    0.75
   1   3  10    0.47    1.33
   1   3  10    2.18    2.37
   1   3  10   -0.46    1.16
   1   3  11   32.33    7.57
  -1  -3 -11   36.85    6.34
   1   3  11   27.77    4.79
  -1  -3 -12   -1.94    2.42
   1   3  12   -0.59    0.83
   1   3  13   23.11    7.33
  -1  -3 -13   12.50    3.60
   1   3  14    0.60    2.62
  -1  -3 -14   -2.43    2.68
   1   3  15   16.19    6.29
  -1  -3 -15    9.97    3.96
   1   3  16   -2.71    3.03
   1   4 -12    0.22    0.68
  -1  -4  12    5.62    4.07
  -1  -4  11   29.89    9.10
   1   4 -11   36.81    6.47
  -1  -4  10    1.87    3.12
   1   4 -10   -2.37    1.98
   1   4 -10    0.12    0.90
  -1  -4   9   29.72    8.05
   1   4  -9   25.44    5.22
   1   4  -9   26.22    5.28
  -1  -4   9   20.21    5.52
   1   4  -8   -1.59    1.99
   1   4  -8    0.36    1.49
  -1  -4   8   -0.98    1.82
  -1  -4   8    1.73    2.32
  -1  -4   8    1.63    2.98
  -1  -4   7   87.95   10.33
  -1  -4   7  113.53   15.79
   1   4  -7   95.24   12.47
  -1  -4   7   91.32   12.56
   1   4  -7   97.97   10.07
   1   4  -7  106.87   10.28
   1   4  -6    8.61    3.58
  -1  -4   6    6.26    2.75
  -1  -4   6    8.07    4.56
  -1  -4   6   10.02    3.95
   1   4  -6   14.02    4.11
   1   4  -6    7.37    2.84
  -1  -4   5  223.76   19.32
   1   4  -5  254.33   18.15
   1   4  -5  236.43   16.15
   1   4  -5  233.86   14.78
   1   4  -4   11.54    3.63
  -1  -4   4   13.39    4.37
   1   4  -4   15.82    3.60
   1   4  -4   17.37    4.35
   1   4  -3  592.06   23.00
  -1  -4   3  571.07   20.44
  -1  -4   3  576.61   25.07
   1   4  -3  592.39   24.36
  -1  -4   3  571.95   23.50
  -1  -4   2    1.53    1.24
  -1  -4   2    0.32    0.54
   1   4  -2   -0.54    1.12
  -1  -4   2   -1.21    1.51
   1   4  -2    1.16    1.09
   1   4  -2    2.49    1.59
   1   4  -1  351.51   16.64
  -1  -4   1  358.33   16.88
  -1  -4   1  357.94   15.37
   1   4  -1  362.03   15.32
  -1  -4   1  342.39   11.88
   1   4  -1  367.11   17.57
   1   4   0   43.84    6.02
  -1  -4   0   43.42    5.46
  -1  -4   0   40.26    3.27
   1   4   0   37.12    4.83
  -1  -4   0   39.76    5.43
  -1  -4   0   39.77    4.44
   1   4   1  357.28   17.38
   1   4   1  358.95   11.17
  -1  -4  -1  337.31   14.50
  -1  -4  -1  320.66   12.83
  -1  -4  -1  326.79   15.62
   1   4   1  332.87   14.79
  -1  -4  -2    8.08    1.81
   1   4   2    8.82    2.17
   1   4   2   10.74    3.11
  -1  -4  -2    6.85    2.51
  -1  -4  -3 2115.47   57.09
   1   4   3 2023.44   51.42
  -1  -4  -4   17.06    1.47
   1   4   4   15.05    4.13
  -1  -4  -4   20.70    4.57
  -1  -4  -5  529.82   25.24
   1   4   5  495.86   24.59
  -1  -4  -6    7.10    2.99
   1   4   6   12.15    2.96
  -1  -4  -6    9.24    3.10
   1   4   6    5.01    2.63
   1   4   7  114.32   12.71
   1   4   7  108.57   11.22
  -1  -4  -7  102.74   10.84
  -1  -4  -7  108.05   12.05
   1   4   7  119.13    9.64
  -1  -4  -8    0.25    1.66
   1   4   8    2.28    3.17
   1   4   8    2.30    1.36
  -1  -4  -8    5.02    3.46
   1   4   8    3.57    2.14
  -1  -4  -9   41.67    9.33
   1   4   9   49.70    8.24
   1   4   9   51.82    7.07
  -1  -4  -9   49.23    8.81
   1   4   9   40.99    8.21
   1   4  10   -0.97    2.92
   1   4  10   -0.30    0.53
  -1  -4 -10    2.64    2.06
  -1  -4 -10   -1.99    3.16
   1   4  11   33.39    8.06
   1   4  11   31.91    3.34
  -1  -4 -11   41.82    7.07
  -1  -4 -12   -3.22    3.20
   1   4  12   -0.48    1.81
   1   4  13   47.81   10.84
  -1  -4 -13   71.96   12.06
  -1  -4 -13   54.89    8.83
  -1  -4 -14    4.09    3.88
   1   4  14    0.11    2.12
   1   4  15    4.68    3.19
   1   4  16    4.65    4.09
  -1  -5  11   10.49    5.74
   1   5 -11    7.23    3.04
   1   5 -10   -0.26    0.78
  -1  -5  10    0.52    2.28
   1   5 -10   -1.73    1.65
   1   5  -9  111.46   11.59
  -1  -5   9  107.80   16.05
   1   5  -9  102.03   11.43
   1   5  -8    5.04    2.32
   1   5  -8    9.22    3.21
  -1  -5   8    5.08    3.79
  -1  -5   8    1.07    3.04
   1   5  -7  100.51   11.16
  -1  -5   7  101.16   15.98
  -1  -5   7  111.17   15.11
   1   5  -7  110.01   11.57
  -1  -5   7   89.70   11.35
  -1  -5   6    6.27    4.37
   1   5  -6   -1.74    2.50
  -1  -5   6   -0.01    1.44
   1   5  -6    0.04    1.15
  -1  -5   6    6.44    3.81
   1   5  -6    0.36    1.59
  -1  -5   5   38.37    7.90
   1   5  -5   25.67    5.50
  -1  -5   5   32.00    6.28
   1   5  -5   40.38    6.60
   1   5  -5   32.43    6.85
   1   5  -4    9.84    3.51
  -1  -5   4   11.67    3.10
  -1  -5   4    9.93    3.56
   1   5  -4    9.48    3.38
  -1  -5   4   12.37    4.34
   1   5  -3   36.98    5.99
  -1  -5   3   26.62    5.46
   1   5  -3   32.89    5.68
  -1  -5   3   31.38    5.70
  -1  -5   3   31.00    4.28
   1   5  -2   -0.97    1.22
   1   5  -2   -0.52    1.20
  -1  -5   2    0.39    0.69
  -1  -5   2    0.15    1.44
   1   5  -2   -0.58    0.97
   1   5  -1  953.22   31.06
  -1  -5   1  924.96   22.06
   1   5  -1  961.59   29.77
  -1  -5   1  971.71   30.80
   1   5  -1  970.73   34.55
   1   5   0   68.81    8.47
   1   5   0   65.45    6.87
  -1  -5   0   70.23    7.02
   1   5   1 2015.65   48.57
   1   5   1 2038.13   38.12
  -1  -5  -1 2025.75   47.79
  -1  -5  -1 2082.89   51.98
   1   5   1 2139.77   55.92
   1   5   2   16.11    4.54
  -1  -5  -2   11.73    2.67
   1   5   2   14.53    2.25
  -1  -5  -2   19.54    3.53
  -1  -5  -2   17.34    3.85
   1   5   2   21.50    3.78
   1   5   3  692.66   25.46
  -1  -5  -3  745.67   29.88
  -1  -5  -4    3.92    2.07
  -1  -5  -4    2.60    0.91
   1   5   4    4.72    1.98
  -1  -5  -5   33.15    6.36
   1   5   5   22.01    5.08
  -1  -5  -6   31.36    6.55
   1   5   6   36.88    7.14
  -1  -5  -6   37.11    7.17
   1   5   6   43.51    5.69
   1   5   7   92.64   11.72
  -1  -5  -7   87.18   11.09
  -1  -5  -7   87.92   11.61
   1   5   7   98.99    9.06
   1   5   8    4.10    3.60
  -1  -5  -8   -2.32    2.85
   1   5   8    3.66    1.95
   1   5   8    3.72    2.59
  -1  -5  -8    2.44    0.94
  -1  -5  -9  131.92   17.43
   1   5   9  146.70   16.04
  -1  -5  -9  116.72   14.54
  -1  -5 -10    4.27    2.81
   1   5  10    1.46    2.31
  -1  -5 -11   85.28   13.29
   1   5  11   75.48   12.82
   1   5  12   -3.94    2.53
  -1  -5 -12    3.95    3.03
  -1  -5 -13   13.65    6.29
   1   5  13   10.95    5.32
  -1  -5 -14    2.35    3.80
   1   5  14   -4.54    4.12
   1   5  15    7.94    5.22
   1   5  16   -4.69    4.47
  -1  -6  10   -1.66    2.20
   1   6 -10   -0.90    1.90
  -1  -6   9   11.28    5.66
   1   6  -9   21.57    5.53
  -1  -6   9   28.19    9.54
   1   6  -9   18.58    5.31
   1   6  -8    5.88    3.36
   1   6  -8    0.55    1.25
  -1  -6   8   -1.79    3.19
  -1  -6   8    2.60    3.25
   1   6  -7  103.41   12.27
  -1  -6   7   78.97   14.46
  -1  -6   7  108.66   16.28
   1   6  -7   89.66   11.38
  -1  -6   6   -1.11    3.24
   1   6  -6    0.71    1.48
  -1  -6   6   -1.30    3.01
   1   6  -6    1.17    1.57
  -1  -6   6   -0.78    1.36
   1   6  -5   78.69   11.29
  -1  -6   5   68.87   10.00
  -1  -6   5   56.15   10.07
   1   6  -5   82.08   10.38
  -1  -6   5   65.39    7.73
   1   6  -5   75.18   10.27
   1   6  -5   78.79   10.94
  -1  -6   4    1.58    1.21
   1   6  -4    4.88    2.43
   1   6  -4    1.19    1.67
  -1  -6   4    1.47    1.77
  -1  -6   4    2.33    1.60
   1   6  -4    1.73    1.51
  -1  -6   3  250.16   18.13
  -1  -6   3  251.59   18.06
   1   6  -3  239.95   17.59
   1   6  -3  251.48   17.46
  -1  -6   3  236.79   11.95
  -1  -6   2   25.89    5.68
  -1  -6   2   32.65    5.94
  -1  -6   2   24.18    2.96
   1   6  -2   37.08    6.53
   1   6  -2   31.19    5.63
  -1  -6   1   75.12    9.36
   1   6  -1   83.74    8.39
   1   6  -1   72.19    9.66
  -1  -6   1   78.41    8.59
   1   6   0    3.04    2.96
   1   6   0    2.07    1.57
  -1  -6   0    1.86    0.95
  -1  -6   0    5.07    2.51
  -1  -6  -1  565.28   24.89
   1   6   1  595.56   28.86
  -1  -6  -1  556.60   26.77
   1   6   1  539.79   21.78
  -1  -6  -1  599.48   23.87
  -1  -6  -2   15.99    3.53
   1   6   2   10.53    2.77
  -1  -6  -2    8.58    2.96
  -1  -6  -2   10.84    2.97
   1   6   2   10.02    1.69
   1   6   2    6.43    2.76
   1   6   3  236.26   17.91
  -1  -6  -3  200.87   15.05
  -1  -6  -4   14.18    2.62
  -1  -6  -4   17.72    4.55
   1   6   4   20.51    5.35
   1   6   5  278.88   15.52
  -1  -6  -5  240.56    8.25
  -1  -6  -5  248.44   18.91
  -1  -6  -5  221.40   18.61
   1   6   5  270.98   19.66
   1   6   6    1.42    1.40
  -1  -6  -6    1.04    0.99
   1   6   6    1.91    1.79
  -1  -6  -6   -0.08    1.73
   1   6   7  358.00   24.37
  -1  -6  -7  306.54   23.02
   1   6   8    0.10    2.19
  -1  -6  -8   -0.13    2.68
   1   6   9  145.48   16.61
  -1  -6  -9  128.70   15.84
  -1  -6 -10   -0.77    2.34
   1   6  10    1.52    2.43
  -1  -6 -11   11.12    4.62
   1   6  11   12.81    5.25
  -1  -6 -12   -0.85    2.07
   1   6  12   -4.31    3.72
  -1  -6 -13   10.80    4.87
   1   6  13   12.07    5.48
   1   6  14   -0.70    1.87
  -1  -6 -14    6.06    3.60
   1   6  15    3.48    4.09
  -1  -7   9   13.61    7.32
   1   7  -9   11.72    4.01
  -1  -7   9   18.92    7.98
   1   7  -9    9.06    3.93
   1   7  -8    2.48    2.33
   1   7  -8    2.79    2.33
  -1  -7   8   -0.13    3.05
  -1  -7   8    3.25    5.21
  -1  -7   8   -1.03    1.29
   1   7  -7   45.34    8.65
  -1  -7   7   32.08    9.14
   1   7  -7   51.69    9.24
  -1  -7   7   31.56    6.19
  -1  -7   7   26.21    8.67
  -1  -7   6    7.73    3.76
   1   7  -6   13.63    5.02
  -1  -7   6   10.32    3.02
   1   7  -6    9.45    4.06
  -1  -7   6   22.89    8.65
   1   7  -5  197.76   17.60
  -1  -7   5  204.92   20.16
  -1  -7   5  238.98   25.77
  -1  -7   5  196.70   13.16
   1   7  -5  201.03   18.17
  -1  -7   4    6.55    3.47
   1   7  -4    3.93    2.62
  -1  -7   4    1.98    1.23
   1   7  -4    7.24    3.59
   1   7  -4    0.61    1.05
  -1  -7   3    5.38    2.45
  -1  -7   3    7.35    1.73
   1   7  -3    6.09    2.73
   1   7  -3    6.75    3.13
   1   7  -3    6.62    3.59
  -1  -7   2    0.87    1.03
   1   7  -2    0.18    0.58
   1   7  -2    0.19    1.17
   1   7  -1  106.23   13.11
  -1  -7   1  118.11   11.69
  -1  -7   1  110.51   12.57
  -1  -7   0    6.41    3.12
  -1  -7   0    6.35    2.71
   1   7   0    9.37    3.64
  -1  -7  -1   74.43    8.85
  -1  -7  -1   79.58    9.41
  -1  -7  -1   85.01   10.76
   1   7   1   83.57   11.35
   1   7   2    9.60    3.88
  -1  -7  -2    8.45    2.68
  -1  -7  -2    2.01    1.55
  -1  -7  -2    5.04    2.74
  -1  -7  -2    4.85    2.27
   1   7   3  211.69    9.39
   1   7   3  218.37   18.35
  -1  -7  -3  244.14   19.79
  -1  -7  -3  197.60   15.92
   1   7   3  199.56   13.28
  -1  -7  -3  199.07   14.79
   1   7   4    5.16    2.18
  -1  -7  -4   11.05    2.67
  -1  -7  -4    6.58    2.99
   1   7   5  301.00   22.35
  -1  -7  -5  289.36   20.99
  -1  -7  -5  298.42   11.96
   1   7   6   35.42    8.01
  -1  -7  -6   24.68    6.23
   1   7   7  121.24   14.41
  -1  -7  -7  119.29   14.78
   1   7   8   12.43    5.69
  -1  -7  -8    6.38    3.11
   1   7   9   40.80    8.93
  -1  -7  -9   22.05    6.62
   1   7  10    7.44    4.97
  -1  -7 -10    0.18    2.10
   1   7  11   19.49    7.05
  -1  -7 -11   18.04    6.09
  -1  -7 -12   -0.05    1.14
   1   7  12    2.79    2.92
  -1  -7 -13   10.95    5.02
   1   7  13    8.14    4.66
   1   7  14    1.57    3.83
  -1  -8   9   13.87    7.91
   1   8  -8    3.76    3.15
   1   8  -8    1.18    1.82
  -1  -8   8    0.18    1.82
  -1  -8   7   27.16   10.23
   1   8  -7   18.71    5.88
   1   8  -7   23.81    6.68
  -1  -8   7   16.63    7.23
  -1  -8   6    1.39    1.92
   1   8  -6    2.94    2.52
   1   8  -6    6.11    3.66
  -1  -8   6    7.58    6.71
  -1  -8   5   38.42   10.83
  -1  -8   5   33.80    8.89
   1   8  -5   38.84    8.78
   1   8  -4    2.27    1.94
  -1  -8   4    0.95    1.82
  -1  -8   4    1.50    0.78
  -1  -8   4    4.90    2.90
   1   8  -4    7.32    3.76
   1   8  -3  138.86   14.15
  -1  -8   3  132.03   14.87
   1   8  -3  147.80   13.31
  -1  -8   3  172.19   22.43
   1   8  -3  145.81   15.93
   1   8  -2    3.59    2.10
  -1  -8   2    7.30    3.74
   1   8  -2    3.67    1.60
   1   8  -1   25.60    4.95
   1   8  -1   28.22    7.09
  -1  -8   1   34.38    6.76
  -1  -8   0   -0.35    3.62
  -1  -8   0    7.86    3.71
   1   8   0    1.80    2.23
   1   8   0    2.93    1.56
  -1  -8  -1   84.76   10.60
   1   8   1   79.89   12.04
   1   8   1   72.79    8.01
  -1  -8  -1   79.40   11.05
  -1  -8  -2   -2.67    2.99
   1   8   2   -2.36    1.63
  -1  -8  -2   -1.86    2.72
   1   8   2    2.33    2.14
  -1  -8  -2   -0.27    1.39
  -1  -8  -3  289.99   19.95
  -1  -8  -3  306.92   21.45
   1   8   3  334.99   24.99
   1   8   3  293.35   16.56
  -1  -8  -4   34.30    5.25
  -1  -8  -4   30.28    6.61
   1   8   4   32.09    3.88
  -1  -8  -4   28.86    6.57
   1   8   4   31.11    7.30
  -1  -8  -5    1.82    1.26
  -1  -8  -5   -0.97    2.05
  -1  -8  -6    0.37    0.31
  -1  -8  -6   -0.68    2.70
   1   8   6    3.50    2.22
  -1  -8  -7   25.12    6.65
   1   8   7   36.41    8.46
  -1  -8  -8    0.02    1.04
   1   8   8    4.88    3.92
   1   8   9   69.73   12.66
  -1  -8  -9   27.86    7.81
   1   8  10    2.60    2.46
  -1  -8 -10    2.59    2.92
  -1  -8 -11    9.98    4.76
   1   8  11   26.66    7.86
   1   8  12   -0.13    1.45
  -1  -8 -12    2.70    3.83
  -1  -8 -13    8.22    4.52
   1   8  13   14.52    6.58
  -1  -9   8   -6.11    4.89
   1   9  -7    1.02    1.73
  -1  -9   7    2.52    4.16
   1   9  -7    6.16    3.56
   1   9  -6    1.46    1.94
  -1  -9   6   -0.60    2.80
   1   9  -6   -4.32    3.11
  -1  -9   5   26.84   10.58
   1   9  -5   32.71    8.22
  -1  -9   5   28.90    8.50
   1   9  -4    0.80    1.71
  -1  -9   4    0.69    2.37
  -1  -9   4    0.85    1.98
  -1  -9   3   72.04   15.67
  -1  -9   3   47.26    9.50
   1   9  -3   58.01   10.80
  -1  -9   2   -1.97    4.63
  -1  -9   2   -0.81    1.44
   1   9  -2    0.67    1.36
  -1  -9   1   33.73    9.08
   1   9  -1   30.72    8.19
  -1  -9   1   43.48    8.27
   1   9  -1   28.15    5.26
  -1  -9   0    1.27    3.26
   1   9   0    6.31    4.90
  -1  -9   0    7.37    2.55
   1   9   0    5.82    2.14
   1   9   1  223.06   21.72
   1   9   1  193.47   13.62
  -1  -9  -1  219.41   18.69
  -1  -9  -1  181.78   18.82
   1   9   2    4.72    2.14
   1   9   2    4.24    2.87
  -1  -9  -2    5.33    2.40
  -1  -9  -2    2.03    1.71
  -1  -9  -2    2.58    2.02
  -1  -9  -3    8.94    4.01
  -1  -9  -3   11.48    4.58
  -1  -9  -3   20.63    5.10
   1   9   3   14.42    5.88
  -1  -9  -4    2.42    2.26
  -1  -9  -4    4.11    2.41
   1   9   4   -0.32    1.49
  -1  -9  -4    5.95    2.58
  -1  -9  -5   45.57    5.86
  -1  -9  -5   29.79    6.59
   1   9   5   47.52    9.74
  -1  -9  -5   37.86    7.86
   1   9   6   14.73    5.73
  -1  -9  -6    9.78    4.29
  -1  -9  -6    8.22    1.86
   1   9   7   23.12    7.06
  -1  -9  -7   15.43    5.31
  -1  -9  -8    1.23    2.76
   1   9   8   -2.00    2.73
   1   9   9   38.98    9.53
  -1  -9  -9   17.13    6.76
   1   9  10   -0.05    2.19
  -1  -9 -10   -0.40    2.24
  -1  -9 -11    4.00    3.65
   1   9  11   12.58    5.55
   1   9  12    0.90    2.31
  -1  -9 -12    3.39    3.17
   1  10  -6   -0.64    1.37
   1  10  -5    8.09    4.31
  -1 -10   5    3.77    3.31
  -1 -10   4   -1.98    1.94
   1  10  -4   -2.74    3.24
  -1 -10   4   -8.06    6.19
  -1 -10   3   29.19   10.76
  -1 -10   3   23.05    6.82
   1  10  -3   16.63    6.19
  -1 -10   2   -6.30    4.94
  -1 -10   2   -2.88    3.16
   1  10  -2   -2.81    2.55
  -1 -10   1   59.32   14.22
  -1 -10   1   55.02   10.13
   1  10  -1   64.55   12.23
  -1 -10   0   -3.00    3.55
  -1 -10   0    2.40    2.92
   1  10   0   -8.31    4.58
  -1 -10  -1   -0.91    2.44
  -1 -10  -1    9.25    4.24
   1  10   1    6.62    4.17
  -1 -10  -2   -2.11    2.49
  -1 -10  -2   -6.28    3.48
   1  10   2   -1.92    2.19
  -1 -10  -3  147.48   15.82
  -1 -10  -3  141.50   16.15
   1  10   3  163.22   19.75
  -1 -10  -4    0.73    1.09
   1  10   4    3.29    3.34
  -1 -10  -4    2.04    2.25
  -1 -10  -4    1.99    2.03
  -1 -10  -5   34.13    5.42
  -1 -10  -5   37.82    8.30
   1  10   5   44.22   10.34
  -1 -10  -5   30.37    7.26
  -1 -10  -6    0.76    1.45
   1  10   6    2.99    3.20
  -1 -10  -6    1.10    1.53
  -1 -10  -7   17.18    5.96
   1  10   7    6.77    4.88
   1  10   8    1.08    2.78
  -1 -10  -8   -0.95    1.67
  -1 -10  -9   14.25    6.23
   1  10   9   15.26    6.52
  -1 -10 -10    3.95    2.99
   1  10  10    0.09    2.24
  -1 -10 -11   -1.97    2.50
   1  11  -4    1.97    2.98
  -1 -11   3   12.65    8.05
   1  11  -3    2.76    2.87
  -1 -11   2    1.94    2.62
   1  11  -2    3.10    2.39
  -1 -11   1    4.35    5.16
   1  11  -1    6.93    4.19
  -1 -11   0    1.56    1.67
  -1 -11   0    1.84    2.58
   1  11   0    3.32    2.48
  -1 -11  -1   15.90    5.86
   1  11   1   30.10    9.53
  -1 -11  -1   32.57    8.11
  -1 -11  -2    0.76    1.47
  -1 -11  -2   -0.66    1.84
   1  11   2   -0.46    2.48
  -1 -11  -3   32.91    8.32
  -1 -11  -3   51.63    9.26
   1  11   3   36.33    9.97
  -1 -11  -4   -3.32    2.51
  -1 -11  -4   -1.89    2.56
   1  11   4   -2.70    1.61
  -1 -11  -5   12.86    5.16
  -1 -11  -5   20.69    6.50
   1  11   5   20.02    7.37
  -1 -11  -6    0.14    1.89
  -1 -11  -6   -3.66    2.76
   1  11   6    1.10    1.80
  -1 -11  -7   12.16    4.89
   1  11   7    9.05    5.84
  -1 -11  -7   14.51    5.36
  -1 -11  -8   -2.00    2.22
  -1 -11  -8   -6.61    3.90
  -1 -11  -9   -0.32    1.07
  -1 -11 -10    1.31    1.44
  -1 -11 -11    7.56    6.52
  -1 -12   1    3.90    3.03
  -1 -12   0   -6.96    4.66
  -1 -12  -1    4.80    3.39
   2 -11  -7   -3.74    3.41
   2 -11  -6    3.18    2.74
   2 -11  -5    2.41    3.18
  -2  11   5   -3.68    3.39
   2 -11  -4    8.98    5.09
   2 -11  -3    2.65    3.15
   2 -11  -2   17.77    7.49
   2 -11  -1    1.89    1.82
   2 -11   0    4.21    3.61
   2 -11   1    2.10    2.55
   2 -11   2    7.75    5.23
   2 -11   3    1.69    3.41
  -2  10  10    2.80    3.68
  -2  10   9    0.89    1.85
  -2  10   8    9.44    5.03
  -2  10   7   -4.37    4.43
   2 -10  -6   24.85    8.11
  -2  10   6   27.16    8.46
   2 -10  -5   -0.50    2.75
  -2  10   5   -0.34    1.53
   2 -10  -4   34.77    9.59
  -2  10   4   47.40   11.23
  -2  10   3    1.22    2.36
   2 -10  -3    1.12    1.28
   2 -10  -2   14.78    6.17
  -2  10   2    9.07    4.84
   2 -10  -1   -2.86    3.00
  -2  10   1    0.35    3.30
  -2  10   0   27.59    8.95
   2 -10   0   23.72    8.01
   2 -10   1    1.43    3.53
  -2  10  -1   -2.80    2.55
   2 -10   2   18.86    7.16
  -2  10  -2   33.42    9.76
   2 -10   3    1.58    1.74
  -2  10  -3   -0.70    3.20
   2 -10   4   16.90    6.66
  -2  10  -4   16.99    6.40
   2 -10   5   -0.41    3.10
   2  -9 -11    0.07    0.87
  -2   9  11    1.42    1.66
   2  -9 -10    6.81    3.41
  -2   9  10   10.57    5.81
  -2   9  10   12.59    5.05
   2  -9  -9    1.25    1.89
  -2   9   9    0.73    2.13
  -2   9   9    0.17    1.41
   2  -9  -8   18.38    5.66
  -2   9   8   21.92    7.06
  -2   9   8   16.54    5.28
  -2   9   7    0.50    1.00
   2  -9  -7    1.99    2.02
  -2   9   7   -2.89    4.18
  -2   9   6   33.41    6.37
   2  -9  -6   28.62    6.17
  -2   9   6   30.10    8.15
  -2   9   5   -3.67    3.02
   2  -9  -5   -1.57    1.41
  -2   9   4   23.20    7.60
   2  -9  -4   11.90    5.39
   2  -9  -4    9.22    2.82
   2  -9  -3    7.48    4.23
  -2   9   3   -0.56    1.71
   2  -9  -2   52.91   11.63
  -2   9   2   55.11   11.51
   2  -9  -1   -2.39    3.58
  -2   9   1    1.90    2.18
   2  -9   0  104.67   16.40
  -2   9   0  119.88   17.08
   2  -9   1    6.32    4.08
  -2   9  -1    4.40    2.66
   2  -9   2  122.14   17.21
  -2   9  -2  103.03   16.02
   2  -9   3    2.55    2.54
  -2   9  -3    1.93    1.75
   2  -9   4   14.01    6.04
  -2   9  -4   13.61    5.26
   2  -9   5   -2.96    3.05
  -2   9  -5   -2.04    1.74
  -2   9  -6   22.41    7.67
   2  -9   6   25.79    8.83
   2  -9   7   -1.79    1.39
  -2   9  -7   -4.35    3.50
  -2   8  12   12.21    5.53
   2  -8 -12    9.98    4.51
  -2   8  12    7.17    4.28
  -2   8  11   -2.57    3.51
   2  -8 -11   -0.41    1.12
  -2   8  11   -1.73    2.12
   2  -8 -10   11.79    4.53
  -2   8  10    9.00    4.42
  -2   8  10   11.11    4.80
  -2   8   9   -1.13    2.41
  -2   8   9    4.16    3.10
   2  -8  -9    1.79    1.76
   2  -8  -8   14.79    4.77
  -2   8   8   19.69    6.26
  -2   8   8   13.62    4.98
  -2   8   7    1.39    1.98
  -2   8   7    1.75    1.64
   2  -8  -7    3.87    2.51
   2  -8  -6    7.69    3.18
  -2   8   6    5.08    2.72
  -2   8   6    5.98    3.74
   2  -8  -5    2.00    1.87
  -2   8   5    1.64    1.94
  -2   8   5    0.10    0.70
  -2   8   4   74.23   12.15
  -2   8   4   77.81    8.29
   2  -8  -4   77.96    8.45
  -2   8   3    1.63    1.46
   2  -8  -3   -0.30    1.05
  -2   8   3    1.20    1.44
   2  -8  -3   -3.21    3.29
   2  -8  -2   88.46    7.02
  -2   8   2  112.62   14.98
   2  -8  -2  132.08   16.67
   2  -8  -1   -1.13    2.01
  -2   8   1    0.26    1.29
  -2   8   1   -2.13    2.39
   2  -8   0  145.75   17.96
  -2   8   0  124.18   16.21
  -2   8   0  111.67    9.43
   2  -8   1   -2.44    2.84
  -2   8  -1   -0.13    1.58
  -2   8  -1    0.94    1.22
   2  -8   2   61.75   11.45
  -2   8  -2   71.07   12.14
  -2   8  -2   60.97    6.50
  -2   8  -3    0.69    0.68
   2  -8   3   -2.80    2.65
   2  -8   4  114.74   16.00
  -2   8  -4  114.39   15.77
   2  -8   5   -1.48    3.80
  -2   8  -5    3.09    2.21
   2  -8   6   58.53   12.08
  -2   8  -6   53.23   10.96
   2  -8   7   -2.28    4.50
  -2   8  -7   -0.10    1.33
   2  -8   8   29.04    9.24
  -2   8  -8   20.69    7.21
  -2   8  -9    9.68    4.91
  -2   7  12   -1.33    1.94
   2  -7 -11   -0.11    1.16
  -2   7  11   -2.44    2.95
   2  -7 -10    8.31    3.44
  -2   7  10   13.09    4.83
   2  -7  -9   -1.36    1.77
  -2   7   9    2.84    2.38
  -2   7   9    3.25    2.48
   2  -7  -8   13.56    4.31
  -2   7   8   25.13    6.71
  -2   7   8   14.88    4.88
   2  -7  -7   -0.42    2.43
  -2   7   7    0.46    1.40
   2  -7  -7    1.07    1.58
  -2   7   7   -0.07    2.08
   2  -7  -7    2.80    1.66
   2  -7  -6   90.31    7.96
  -2   7   6   91.38   10.97
   2  -7  -6   93.09   10.62
  -2   7   6  101.75   12.94
   2  -7  -5    4.23    2.59
  -2   7   5    9.17    4.10
  -2   7   5    6.38    2.80
   2  -7  -5    3.30    1.53
  -2   7   4  166.82   16.91
  -2   7   4  156.75   12.48
   2  -7  -4  155.58   11.72
  -2   7   3   -0.07    0.80
  -2   7   3    0.34    2.14
   2  -7  -3   -0.42    0.99
  -2   7   3    1.50    1.32
  -2   7   2   30.43    5.01
  -2   7   2   27.02    4.11
  -2   7   2   27.69    6.81
   2  -7  -2   23.94    3.54
   2  -7  -2   23.33    6.57
  -2   7   1    1.42    1.30
   2  -7  -1    0.06    1.29
  -2   7   1    2.12    2.43
   2  -7   0    0.43    1.18
  -2   7   0    3.61    1.75
  -2   7   0    4.56    3.09
  -2   7  -1    0.34    0.79
  -2   7  -1    1.23    1.47
   2  -7   2  314.99   24.65
  -2   7  -2  328.00   24.71
  -2   7  -2  295.32   14.09
   2  -7   3    0.30    0.55
   2  -7   3    4.84    3.57
  -2   7  -3    8.32    4.17
   2  -7   4   44.95    4.96
   2  -7   4   45.94    9.39
  -2   7  -4   51.39    9.81
  -2   7  -5   -1.02    2.04
   2  -7   5   -0.13    2.16
   2  -7   5    0.30    0.91
  -2   7  -6   73.45    7.95
  -2   7  -6   59.57   11.22
   2  -7   6   85.35   13.78
   2  -7   7    0.43    1.75
  -2   7  -7   -0.68    2.37
   2  -7   8   88.44   16.05
  -2   7  -8  110.13   15.59
  -2   7  -9   -0.81    1.65
   2  -7   9   -0.13    3.00
  -2   7 -10    6.06    4.19
   2  -6 -12    6.68    3.34
  -2   6  12    6.07    3.14
   2  -6 -11    2.60    2.64
  -2   6  11   -3.36    3.10
   2  -6 -10   39.32    7.14
  -2   6  10   26.56    6.32
  -2   6   9   -2.43    2.59
   2  -6  -9   -2.07    2.20
   2  -6  -8   88.57   11.98
   2  -6  -8   78.20    7.00
   2  -6  -8   89.39   10.37
  -2   6   8   88.32   11.24
   2  -6  -7   11.83    2.89
   2  -6  -7   16.80    5.06
  -2   6   7   18.19    5.29
  -2   6   7   13.56    4.31
   2  -6  -7   19.27    4.75
   2  -6  -6  109.47   10.80
   2  -6  -6   97.16    8.17
  -2   6   6  100.16   11.99
  -2   6   6  100.57   11.44
   2  -6  -6  102.04   12.22
   2  -6  -5   -0.79    2.37
  -2   6   5    7.16    3.08
   2  -6  -5    8.85    3.22
   2  -6  -5    7.19    2.27
  -2   6   5    0.16    1.39
  -2   6   4  116.61   11.02
  -2   6   4  106.56   12.19
  -2   6   4  119.98   11.14
   2  -6  -4   93.24   11.11
   2  -6  -4   93.74    8.44
   2  -6  -4   98.69    8.80
   2  -6  -4  102.54   10.38
  -2   6   3    1.10    1.23
  -2   6   3    0.60    0.99
   2  -6  -3    2.37    1.32
  -2   6   3   -0.11    1.27
  -2   6   2   56.57    8.82
   2  -6  -2   49.65    7.67
  -2   6   2   55.84    6.10
   2  -6  -2   47.33    5.01
   2  -6  -2   49.02    8.93
  -2   6   2   52.17    6.60
  -2   6   1    4.95    1.48
  -2   6   1    3.14    2.27
   2  -6  -1    3.60    1.00
   2  -6  -1    2.82    1.47
   2  -6  -1   -1.51    2.67
  -2   6   1    7.54    2.46
  -2   6   1    3.94    2.52
   2  -6   0  290.75   22.03
   2  -6   0  274.37   18.93
  -2   6   0  272.16   20.53
   2  -6   1    8.74    4.41
  -2   6  -1    5.84    3.08
   2  -6   1    4.87    2.77
   2  -6   1    8.51    1.78
   2  -6   2   77.13    5.89
  -2   6  -2   99.70   12.33
   2  -6   2   84.46   11.93
  -2   6  -2   86.70    6.65
  -2   6  -3   -0.25    0.75
   2  -6   3   -0.70    1.84
  -2   6  -3    2.33    2.73
   2  -6   3    1.05    0.44
   2  -6   4  129.18   14.86
   2  -6   4  107.46    8.52
  -2   6  -4  126.56    7.95
  -2   6  -4  143.55   15.52
  -2   6  -5   -0.44    0.71
  -2   6  -5    0.07    0.59
  -2   6  -5   -1.27    1.74
   2  -6   5    1.82    1.71
  -2   6  -6   31.48    4.55
  -2   6  -6   36.62    8.08
   2  -6   6   40.34    9.03
   2  -6   7   -1.38    3.24
  -2   6  -7    1.19    1.16
  -2   6  -7    3.43    2.56
   2  -6   8   17.66    6.67
  -2   6  -8   18.44    5.93
   2  -6   9    5.04    5.11
  -2   6  -9   -4.32    3.07
   2  -6  10   69.38   15.16
  -2   6 -10   64.03   11.75
  -2   6 -11   -1.60    2.59
  -2   6 -12    7.90    4.88
   2  -5 -13    1.40    1.93
   2  -5 -12   18.97    5.16
  -2   5  12   16.37    5.05
   2  -5 -11    2.81    2.52
  -2   5  11    2.52    2.19
  -2   5  10   50.25    8.35
   2  -5 -10   54.85    7.91
   2  -5  -9    0.42    1.78
   2  -5  -9   -2.76    1.28
  -2   5   9   -2.28    1.47
  -2   5   8  148.11   13.63
   2  -5  -8  126.30   13.59
   2  -5  -8  120.01    9.26
   2  -5  -7   17.14    5.05
   2  -5  -7   16.92    3.58
   2  -5  -7   29.10    5.38
  -2   5   7   20.43    5.06
   2  -5  -6   43.37    6.19
   2  -5  -6   36.66    4.98
  -2   5   6   31.47    6.32
  -2   5   6   34.42    6.08
   2  -5  -6   38.56    7.08
  -2   5   5   22.06    5.21
   2  -5  -5   15.37    4.35
  -2   5   5    9.76    3.24
  -2   5   5   13.35    4.30
   2  -5  -5   11.50    3.70
   2  -5  -5   14.42    3.22
  -2   5   4  308.17   18.13
  -2   5   4  304.96   19.07
   2  -5  -4  284.87   18.10
   2  -5  -4  336.78   17.20
   2  -5  -4  313.18   15.33
  -2   5   4  329.46   19.11
  -2   5   3   17.70    3.95
   2  -5  -3   18.99    4.40
   2  -5  -3   15.48    3.45
  -2   5   3   16.15    4.30
  -2   5   3   11.42    3.38
   2  -5  -2 1143.21   38.01
  -2   5   2 1173.07   40.53
   2  -5  -2 1126.94   34.30
  -2   5   2 1154.09   33.75
   2  -5  -2 1144.82   28.78
  -2   5   1   29.74    4.24
   2  -5  -1   31.78    6.61
  -2   5   1   33.43    6.59
   2  -5  -1   32.67    5.84
   2  -5  -1   28.71    3.00
  -2   5   0  247.82   17.50
   2  -5   0  252.41   18.80
   2  -5   0  242.13   16.28
   2  -5   0  219.01   10.35
  -2   5   0  226.56   11.87
   2  -5   1   20.20    3.02
  -2   5  -1   22.49    3.35
   2  -5   1   15.19    4.67
  -2   5  -1   24.79    5.50
   2  -5   1   19.76    4.72
  -2   5  -2  778.64   21.71
   2  -5   2  787.43   33.05
   2  -5   2  763.67   34.33
   2  -5   2  745.26   23.10
  -2   5  -2  750.71   33.38
  -2   5  -3    0.50    0.72
  -2   5  -3    0.64    1.83
   2  -5   3    0.18    0.50
  -2   5  -3    0.72    1.85
   2  -5   3    0.53    1.51
   2  -5   3   -2.83    3.53
  -2   5  -4  218.41    8.19
  -2   5  -4  221.98   17.97
   2  -5   4  205.25   18.34
   2  -5   4  245.74   19.34
  -2   5  -4  226.02    7.30
  -2   5  -4  217.20   17.86
  -2   5  -4  218.77    9.49
  -2   5  -5   -2.59    2.93
   2  -5   5   -1.95    2.74
  -2   5  -6   76.13    6.12
  -2   5  -6   80.46   11.55
   2  -5   6   90.82   12.81
  -2   5  -7   -0.12    0.55
  -2   5  -7   -0.20    1.75
   2  -5   7   -1.57    2.91
  -2   5  -8  192.06    8.79
   2  -5   8  224.24   22.88
  -2   5  -8  204.31   19.00
   2  -5   9   -2.18    3.24
  -2   5  -9    0.44    1.49
   2  -5  10   25.34    9.23
  -2   5 -10   25.70    7.08
  -2   5 -11    0.91    1.77
   2  -5  11   -5.83    4.91
  -2   5 -12    4.11    3.17
  -2   5 -13    0.24    1.76
   2  -4 -13    7.28    3.11
   2  -4 -12   17.06    4.76
  -2   4  12   16.95    4.91
   2  -4 -11    1.99    2.71
  -2   4  11   -1.76    2.24
  -2   4  11    0.15    1.33
   2  -4 -10   47.82    7.13
  -2   4  10   49.61    7.84
  -2   4  10   35.19    5.27
  -2   4  10   37.22    7.03
  -2   4   9   13.26    4.01
  -2   4   9    8.89    3.31
   2  -4  -9    9.96    3.63
  -2   4   8   66.58    8.35
   2  -4  -8   67.11    8.54
   2  -4  -8   59.88    6.72
   2  -4  -8   63.37    7.49
  -2   4   7    1.15    1.72
   2  -4  -7   -0.42    1.54
   2  -4  -7    0.56    1.39
   2  -4  -7    0.87    1.09
  -2   4   6  334.09   18.62
   2  -4  -6  304.22   18.41
   2  -4  -6  321.11   15.89
  -2   4   6  343.27   21.90
   2  -4  -6  355.48   17.08
   2  -4  -5   -0.63    1.60
  -2   4   5    1.94    1.80
  -2   4   5   -0.29    1.04
   2  -4  -5   -0.17    0.58
   2  -4  -5   -0.27    0.78
  -2   4   5   -0.59    1.50
  -2   4   4 1006.41   34.51
   2  -4  -4  962.16   33.18
   2  -4  -4 1068.43   30.64
  -2   4   4  966.54   33.14
   2  -4  -4 1020.70   30.19
  -2   4   4  929.11   34.47
  -2   4   3   56.97    7.09
   2  -4  -3   60.31    7.02
  -2   4   3   66.40    7.83
   2  -4  -3   73.33    6.80
   2  -4  -3   68.58    6.86
  -2   4   2 1223.02   38.12
   2  -4  -2 1219.64   36.60
  -2   4   2 1277.89   36.28
   2  -4  -2 1299.57   33.89
  -2   4   1   11.57    2.71
  -2   4   1    9.60    2.65
   2  -4  -1    8.98    2.09
   2  -4  -1    8.91    2.63
  -2   4   1   11.01    2.51
  -2   4   0  241.18   11.86
   2  -4   0  233.90   14.64
   2  -4   0  258.04   17.18
  -2   4   0  234.03   11.78
  -2   4   0  239.42   15.47
   2  -4   0  218.37   10.80
  -2   4  -1    8.91    2.07
   2  -4   1    8.88    3.20
   2  -4   1    5.60    1.71
  -2   4  -1    6.99    2.49
   2  -4   2  863.57   25.97
  -2   4  -2  831.06   32.66
   2  -4   2  819.03   33.62
  -2   4  -2  866.79   22.04
  -2   4  -3   -0.95    2.50
  -2   4  -3   -0.05    0.38
   2  -4   3   -0.66    0.67
   2  -4   3   -4.47    3.21
  -2   4  -4 1075.96   23.94
  -2   4  -4 1135.34   40.90
  -2   4  -4 1069.10   40.43
   2  -4   4 1152.15   41.03
   2  -4   4 1121.74   41.81
   2  -4   5   -0.38    0.86
   2  -4   5   -0.95    2.87
  -2   4  -5    0.89    1.53
  -2   4  -5    0.50    0.81
  -2   4  -5   -0.27    0.70
   2  -4   6 1204.73   47.91
   2  -4   6 1161.90   44.37
  -2   4  -6 1057.85   24.79
  -2   4  -6 1119.62   42.50
  -2   4  -7    0.10    0.31
   2  -4   7    2.02    1.69
  -2   4  -7    1.27    1.04
  -2   4  -8   11.13    1.87
   2  -4   8   10.01    5.30
  -2   4  -8    6.31    3.60
  -2   4  -9    0.89    0.68
   2  -4   9    1.11    3.09
  -2   4  -9   -1.59    2.50
  -2   4 -10   69.88   11.02
   2  -4  10   62.05   13.71
  -2   4 -11   -3.24    3.19
   2  -4  11   -0.56    3.67
   2  -4  12   14.84    9.34
  -2   4 -12   18.28    5.91
  -2   4 -13    0.85    1.71
   2  -3 -13    2.81    2.12
   2  -3 -12    5.43    2.68
  -2   3  12    7.71    3.40
  -2   3  12    6.17    2.97
  -2   3  11    1.31    1.91
   2  -3 -11    1.97    1.77
  -2   3  11    0.72    0.73
   2  -3 -10    1.19    1.11
  -2   3  10    4.55    2.74
  -2   3  10    1.58    1.18
  -2   3  10    3.00    1.39
   2  -3  -9   15.81    3.97
  -2   3   9   15.43    4.06
  -2   3   9   15.18    3.84
  -2   3   9   14.53    3.94
  -2   3   8  478.01   21.85
  -2   3   8  451.95   19.89
   2  -3  -8  490.94   21.21
  -2   3   7   10.70    3.92
   2  -3  -7    7.83    2.74
   2  -3  -7    9.37    2.86
  -2   3   7    9.41    2.96
   2  -3  -7    1.46    0.89
  -2   3   7    6.56    2.38
  -2   3   6  322.25   16.17
   2  -3  -6  326.21   17.09
   2  -3  -6  336.03   15.95
  -2   3   6  330.20   15.69
   2  -3  -6  310.31   16.26
   2  -3  -5    0.29    1.21
   2  -3  -5    2.80    1.71
  -2   3   5    1.08    1.04
   2  -3  -5    0.66    1.55
   2  -3  -4  123.85    9.70
   2  -3  -4  117.19    8.78
   2  -3  -4  123.37    8.51
  -2   3   4  108.03    8.55
  -2   3   4   95.54    9.63
   2  -3  -3    1.59    1.56
  -2   3   3   -0.44    1.40
  -2   3   3    9.25    3.25
   2  -3  -3    7.75    2.98
   2  -3  -3   11.27    3.62
   2  -3  -2  108.58    8.29
  -2   3   2  109.33    8.72
   2  -3  -2  123.55    8.88
  -2   3   2  118.13    9.24
   2  -3  -2  120.57    7.65
  -2   3   2  111.99    8.69
  -2   3   1    2.21    0.67
   2  -3  -1    2.32    1.18
  -2   3   1    6.99    2.12
   2  -3  -1    3.62    1.47
   2  -3  -1    3.33    1.39
  -2   3   1    5.55    2.40
   2  -3   0 1289.19   28.96
   2  -3   0 1181.33   34.29
   2  -3   0 1220.04   38.02
  -2   3   0 1209.29   31.94
   2  -3   0 1229.54   31.70
  -2   3   0 1172.41   30.01
  -2   3   0 1229.76   36.10
  -2   3  -1    3.87    1.13
   2  -3   1    5.47    1.70
   2  -3   1    1.66    1.34
  -2   3  -1    0.85    1.46
  -2   3  -2 1439.64   30.34
   2  -3   2 1494.39   37.52
  -2   3  -2 1481.39   42.92
   2  -3   2 1481.13   44.19
  -2   3  -3   -0.35    0.55
   2  -3   3   -0.99    1.51
  -2   3  -3   -0.21    0.62
  -2   3  -3   -2.40    2.36
   2  -3   4 6051.11  125.13
  -2   3  -4 5940.40  103.32
  -2   3  -4 5971.69  122.09
  -2   3  -5   -0.26    0.55
  -2   3  -5   -1.76    2.24
   2  -3   5   -1.59    1.53
   2  -3   5   -0.42    1.90
  -2   3  -6   37.53    2.57
  -2   3  -6   33.00    6.81
   2  -3   6   50.61    8.69
  -2   3  -6   37.22    6.63
   2  -3   6   44.74    7.64
   2  -3   7   -0.03    2.14
  -2   3  -7    2.27    1.79
  -2   3  -7    1.67    0.87
   2  -3   7   -0.24    0.96
  -2   3  -8  171.30   15.42
  -2   3  -8  140.45    6.52
   2  -3   8  167.78   18.74
  -2   3  -9    0.16    0.34
   2  -3   9    1.23    1.83
  -2   3  -9   -1.49    2.32
  -2   3 -10  146.66   15.60
   2  -3  10  160.86   21.07
  -2   3 -10  118.24    6.87
   2  -3  11    4.12    4.46
  -2   3 -11    0.16    1.77
   2  -3  12   30.88   10.65
  -2   3 -12   32.60    7.74
   2  -3  13   -1.88    3.36
  -2   3 -13   -3.93    2.89
  -2   3 -14    7.39    4.68
   2  -2 -14    3.54    2.15
   2  -2 -13    0.03    0.94
   2  -2 -12    8.39    3.25
  -2   2  12    8.55    3.06
  -2   2  12    9.01    3.22
   2  -2 -11    3.37    2.14
  -2   2  11    4.05    1.95
  -2   2  11    6.27    2.67
  -2   2  10   87.36   10.25
  -2   2  10   98.52   10.27
   2  -2 -10   89.20    9.47
   2  -2  -9    5.99    2.46
  -2   2   9    8.89    3.34
  -2   2   9    1.90    2.62
   2  -2  -8   15.12    3.42
  -2   2   8   14.07    3.93
  -2   2   8   12.55    3.17
  -2   2   8   15.29    3.42
   2  -2  -7    0.47    0.95
  -2   2   7    0.20    1.88
  -2   2   7    1.26    1.69
  -2   2   7    1.41    1.33
  -2   2   7    2.67    1.53
  -2   2   6   63.88    6.28
   2  -2  -6   63.61    7.34
   2  -2  -6   60.49    6.50
  -2   2   6   59.50    6.61
   2  -2  -5   -1.14    1.36
   2  -2  -5   -1.01    1.50
   2  -2  -5   -0.33    0.88
  -2   2   5    1.26    1.34
  -2   2   5   -0.86    0.88
  -2   2   4   62.31    5.40
   2  -2  -4   63.24    5.76
   2  -2  -4   67.13    6.74
  -2   2   4   65.48    6.29
   2  -2  -4   75.13    6.56
  -2   2   3   42.98    5.18
   2  -2  -3   40.18    4.52
  -2   2   3   46.83    6.42
   2  -2  -3   50.13    6.07
  -2   2   3   27.36    3.60
   2  -2  -3   35.13    4.36
  -2   2   2 2427.11   53.95
   2  -2  -2 2555.32   51.49
   2  -2  -2 2483.23   51.17
  -2   2   2 2595.25   58.17
   2  -2  -2 2643.63   55.59
  -2   2   2 2521.65   52.31
   2  -2  -1   85.34    6.44
  -2   2   1   87.57    7.46
  -2   2   1   91.88    7.15
   2  -2  -1   81.79    6.75
  -2   2   1  101.80    6.85
   2  -2  -1  104.16    6.22
  -2   2   0 1057.75   25.25
  -2   2   0 1071.84   29.38
   2  -2   0 1110.66   29.59
   2  -2   0 1082.70   32.34
   2  -2   0 1038.54   28.59
  -2   2   0 1103.25   30.52
   2  -2   0 1035.48   23.63
   2  -2   1    3.20    0.79
  -2   2  -1    3.27    1.00
   2  -2   1    2.66    1.18
   2  -2   1    1.92    0.53
   2  -2   1    2.76    1.38
   2  -2   1    1.65    1.05
  -2   2  -1    1.96    1.09
  -2   2  -2    3.86    0.80
   2  -2   2    1.13    1.62
   2  -2   2    2.76    1.39
  -2   2  -2    3.06    0.79
  -2   2  -2    4.70    1.95
  -2   2  -3    0.50    0.45
   2  -2   3    1.39    1.78
  -2   2  -3   -0.49    1.35
   2  -2   4  297.59   17.79
  -2   2  -4  321.68   12.27
  -2   2  -4  308.40   17.01
  -2   2  -5   -3.60    3.14
   2  -2   5   -1.24    1.79
   2  -2   6 2452.96   65.46
  -2   2  -6 2400.05   42.77
  -2   2  -6 2488.70   63.71
  -2   2  -7    0.08    0.63
   2  -2   7   -0.95    2.16
  -2   2  -7    1.00    1.36
  -2   2  -7   -0.99    2.34
   2  -2   7   -0.90    2.15
   2  -2   8  226.38   20.71
   2  -2   8  276.12   20.07
  -2   2  -8  264.89   18.57
  -2   2  -9   -0.92    1.37
  -2   2  -9    0.19    0.38
   2  -2  10  113.32   17.02
  -2   2 -10   88.04    6.45
  -2   2 -10  106.76   12.82
  -2   2 -11   -0.48    0.54
   2  -2  11    0.52    3.97
  -2   2 -11    1.04    1.73
  -2   2 -12   97.74   13.03
   2  -2  12   85.39   16.99
  -2   2 -13   -0.66    1.71
  -2   2 -14    3.10    2.46
   2  -2  15    1.53    2.12
  -2   2 -15    4.70    3.29
   2  -1 -14    6.23    2.94
   2  -1 -13    1.12    2.00
  -2   1  13   -4.90    3.12
  -2   1  12   48.79    9.23
   2  -1 -12   58.35    8.12
   2  -1 -11    2.24    1.89
  -2   1  11    4.36    3.00
  -2   1  11    3.06    2.03
   2  -1 -10    0.46    1.70
  -2   1  10    2.19    1.47
  -2   1  10    3.85    2.31
   2  -1  -9   -2.29    1.69
  -2   1   9   -2.01    1.62
  -2   1   9   -0.20    1.86
  -2   1   9   -0.93    1.45
  -2   1   8  136.18   10.35
  -2   1   8  127.85   10.10
  -2   1   8  117.37   11.62
   2  -1  -8  130.53   10.70
   2  -1  -7    1.56    0.85
  -2   1   7    5.05    2.45
  -2   1   7    3.68    1.57
  -2   1   7    3.29    1.62
  -2   1   7    5.12    1.97
   2  -1  -6  745.73   25.84
  -2   1   6  734.17   22.25
  -2   1   6  682.00   30.77
  -2   1   6  679.65   21.63
  -2   1   6  749.41   28.09
   2  -1  -5    6.22    2.54
  -2   1   5    3.40    1.39
   2  -1  -5    4.48    1.67
  -2   1   5    3.68    1.30
  -2   1   5    5.04    1.88
   2  -1  -4  312.61   15.87
   2  -1  -4  333.71   14.77
  -2   1   4  309.40   10.51
   2  -1  -4  325.33   10.91
  -2   1   4  291.69   14.68
  -2   1   3  244.26    8.53
   2  -1  -3  249.79   13.28
   2  -1  -3  237.21    8.80
  -2   1   3  256.41   14.89
   2  -1  -3  289.20   12.96
  -2   1   3  246.96   12.52
   2  -1  -2  532.92   13.94
  -2   1   2  524.17   18.61
  -2   1   2  509.76   20.31
  -2   1   2  540.62   18.81
   2  -1  -2  528.20   19.01
   2  -1  -2  573.63   17.80
   2  -1  -1    3.92    1.61
   2  -1  -1    3.74    1.27
  -2   1   1    2.52    1.05
  -2   1   1    2.95    1.23
   2  -1  -1    2.39    0.83
   2  -1  -1    5.49    1.73
  -2   1   1    3.76    1.14
   2  -1   0   10.46    1.70
   2  -1   0   13.20    2.75
  -2   1   0   13.05    2.13
  -2   1   0   10.37    2.37
  -2   1   0    9.58    2.03
   2  -1   0   12.05    2.14
   2  -1   1    0.31    0.42
   2  -1   1    1.68    0.68
  -2   1  -1    1.48    0.50
   2  -1   1    0.02    0.58
   2  -1   1    1.37    1.30
  -2   1  -1    1.13    0.74
  -2   1  -1    2.72    1.47
  -2   1  -1    1.17    0.83
   2  -1   1    1.05    0.64
   2  -1   2    4.79    0.75
   2  -1   2    3.51    0.99
   2  -1   2    4.68    1.85
   2  -1   2    8.65    2.31
  -2   1  -2    2.05    1.36
   2  -1   2    5.40    1.83
  -2   1  -2    5.47    2.17
  -2   1  -3    1.62    0.41
   2  -1   3   -0.37    1.20
  -2   1  -3    1.45    1.36
  -2   1  -3   -0.15    0.79
   2  -1   4  476.34   21.23
  -2   1  -4  512.64   21.47
  -2   1  -5    2.04    1.85
   2  -1   5   -0.45    1.96
  -2   1  -5   -0.43    0.94
   2  -1   6 1202.23   39.58
  -2   1  -6 1153.42   24.30
  -2   1  -6 1265.44   38.92
   2  -1   6 1098.04   24.93
  -2   1  -7   -1.40    1.62
  -2   1  -7    0.31    0.85
   2  -1   7   -2.57    2.80
   2  -1   7    0.17    0.56
  -2   1  -7   -1.46    1.83
   2  -1   7    1.11    1.23
   2  -1   8   82.01    6.66
   2  -1   8   73.13   11.45
  -2   1  -8   72.65   10.67
   2  -1   8   82.87   10.64
  -2   1  -8   73.86    9.52
  -2   1  -8   84.35    6.12
   2  -1   9    2.49    2.84
   2  -1   9   -0.30    0.56
  -2   1  -9    0.49    0.52
  -2   1  -9    0.37    1.17
   2  -1   9    1.00    2.15
   2  -1  10  175.63   12.18
   2  -1  10  167.35   21.03
  -2   1 -10  191.46   16.54
  -2   1 -10  143.00    9.50
  -2   1 -11    0.81    0.84
  -2   1 -11    1.97    2.94
   2  -1  11    4.26    5.03
  -2   1 -12   37.62    7.89
   2  -1  12   41.57   11.87
  -2   1 -12   29.59    4.58
  -2   1 -13   -2.16    2.68
  -2   1 -14   16.25    5.65
   2  -1  14   12.80    5.34
   2  -1  15   -2.02    2.84
   2  -1  15    1.13    2.99
  -2   1 -15   -2.37    2.40
   2   0 -14    3.19    2.33
  -2   0  14    4.01    2.70
   2   0 -13    1.39    1.67
  -2   0  13    5.75    4.26
   2   0 -12    9.05    3.08
  -2   0  12   18.30    5.93
  -2   0  11    2.15    2.61
   2   0 -11    1.27    1.02
  -2   0  11    3.56    3.43
  -2   0  10  131.55   11.55
  -2   0  10  154.46   16.21
   2   0 -10  153.49   12.48
  -2   0  10  127.97   11.53
  -2   0   9    2.84    1.81
  -2   0   9    3.76    2.09
   2   0  -9    1.31    1.53
  -2   0   9    2.78    1.72
   2   0  -8  139.09   11.35
  -2   0   8  158.88   16.55
  -2   0   8  139.93   13.81
  -2   0   8  141.82   10.40
  -2   0   8  136.42   10.00
  -2   0   7    2.83    2.98
  -2   0   7    0.90    1.04
   2   0  -7    1.79    0.89
  -2   0   7   -0.11    1.24
   2   0  -7   -1.62    1.00
  -2   0   7    0.91    1.05
   2   0  -6  230.67   13.76
  -2   0   6  203.37   16.26
   2   0  -6  209.51   19.02
  -2   0   6  212.61   10.41
  -2   0   6  221.45   10.34
  -2   0   6  220.65   15.49
   2   0  -5   53.47    6.40
  -2   0   5   52.20    4.17
  -2   0   5   47.75    3.93
  -2   0   5   54.78    7.53
  -2   0   4  949.17   20.05
  -2   0   4  976.71   20.38
   2   0  -4  928.85   31.35
   2   0  -4  977.14   29.31
  -2   0   4  964.39   31.93
  -2   0   3   28.60    5.93
  -2   0   3   35.70    7.35
   2   0  -3    7.15    5.05
   2   0  -2    1.25    0.92
   2   0  -2    2.17    0.66
  -2   0   2    1.98    1.37
  -2   0   2    3.01    1.55
   2   0  -1    1.50    1.37
  -2   0   1    1.23    0.51
  -2   0   1    0.18    1.48
  -2   0   1    2.25    0.73
  -2   0   1    0.10    0.88
   2   0  -1    1.31    0.51
   2   0   0 3305.64   63.68
  -2   0   0 3230.93   64.54
  -2   0   0 3298.43   60.31
  -2   0   0 3460.09   67.73
   2   0   0 3436.26   66.25
  -2   0   0 3411.17   65.99
   2   0   0 3320.94   60.90
  -2   0  -1    5.65    1.55
  -2   0  -1    7.92    2.08
   2   0   1    8.62    1.64
   2   0   1    8.52    1.85
   2   0   1    7.83    1.82
  -2   0  -1    9.99    1.95
   2   0   1   10.05    1.93
  -2   0  -2    7.69    1.91
  -2   0  -2   24.79    3.20
   2   0   2   21.62    2.86
  -2   0  -2   10.31    2.20
   2   0   2   17.95    2.95
   2   0   2    9.08    2.14
   2   0   3    1.83    1.03
  -2   0  -3    1.35    1.07
   2   0   3    2.67    1.81
  -2   0  -3    0.65    0.77
  -2   0  -3    2.12    1.08
  -2   0  -4 1195.89   31.14
  -2   0  -4  997.16   31.78
   2   0   4 1031.31   32.03
  -2   0  -4 1084.56   32.17
   2   0   4 1136.61   21.29
  -2   0  -5   10.15    2.98
   2   0   5    7.54    2.54
  -2   0  -5    7.91    2.66
   2   0   5    7.95    1.29
  -2   0  -5   14.04    3.18
   2   0   6  592.97   17.17
  -2   0  -6  629.35   25.79
  -2   0  -7    1.50    0.99
  -2   0  -7    2.48    1.56
   2   0   7   -0.27    2.60
   2   0   7    2.71    1.20
   2   0   7    4.84    2.54
  -2   0  -7    3.78    2.06
   2   0   8   87.24    7.23
  -2   0  -8   94.67   11.91
  -2   0  -8  112.60    8.10
   2   0   8   92.45   10.94
   2   0   8   87.27   12.43
  -2   0  -8   84.02   10.04
   2   0   9   -0.75    2.79
   2   0   9    5.03    1.94
  -2   0  -9    3.93    1.67
  -2   0  -9    5.97    2.07
   2   0   9    5.91    3.11
   2   0  10    3.66    1.87
  -2   0 -10    4.17    1.57
  -2   0 -10    6.01    2.65
   2   0  10    3.64    3.85
   2   0  11   -0.08    0.84
  -2   0 -11    0.08    0.89
  -2   0 -12  103.58   13.15
  -2   0 -12   73.73    8.22
   2   0  13    4.29    3.81
  -2   0 -13   -1.32    1.74
  -2   0 -13   -0.61    1.92
   2   0  14   12.95    5.48
   2   0  15    2.66    3.40
  -2  -1  14   -2.10    2.56
   2   1 -14    1.84    2.14
  -2  -1  13   -2.81    2.50
   2   1 -13    1.64    1.72
   2   1 -12   35.42    6.42
  -2  -1  12   57.61   11.23
  -2  -1  11   15.37    5.87
   2   1 -11    5.42    2.68
  -2  -1  11    9.38    3.24
   2   1 -10   36.67    6.36
  -2  -1  10   32.79    5.42
  -2  -1  10   44.46    9.14
  -2  -1  10   27.18    4.92
  -2  -1   9    7.27    3.57
   2   1  -9   10.30    3.68
  -2  -1   9    6.13    2.42
  -2  -1   9    6.19    2.22
   2   1  -8   64.73    7.89
  -2  -1   8   54.98    8.94
  -2  -1   8   69.55    6.94
  -2  -1   8   62.90    6.32
  -2  -1   7   -0.18    1.83
   2   1  -7    0.08    0.87
  -2  -1   7    0.23    0.96
  -2  -1   7    0.14    1.03
  -2  -1   7    0.60    0.73
  -2  -1   6 1198.21   43.49
  -2  -1   6 1070.55   26.82
   2   1  -6 1155.00   45.90
  -2  -1   6 1202.81   41.63
   2   1  -6 1188.62   36.32
  -2  -1   5    0.23    1.71
   2   1  -5    3.70    2.54
  -2  -1   5    4.57    2.86
   2   1  -5    3.14    1.48
  -2  -1   5    5.08    1.33
  -2  -1   4  206.34    7.86
   2   1  -4  174.59   14.66
   2   1  -4  214.58   13.01
  -2  -1   4  192.09   13.77
  -2  -1   3    7.47    2.46
  -2  -1   3    9.68    1.15
   2   1  -3    9.40    2.52
   2   1  -2  887.02   27.28
  -2  -1   2  803.73   26.57
  -2  -1   2  844.52   27.91
  -2  -1   1   47.68    5.42
   2   1  -1   55.74    5.53
   2   1  -1   52.02    3.00
   2   1  -1   49.28    2.53
   2   1  -1   48.36    5.38
  -2  -1   1   49.88    2.93
  -2  -1   1   52.51    5.64
  -2  -1   0 1264.23   31.93
  -2  -1   0 1141.80   29.99
   2   1   0 1170.68   25.97
   2   1   0 1234.31   31.82
   2   1   0 1178.45   24.78
   2   1   1   57.08    3.81
  -2  -1  -1   61.26    4.67
  -2  -1  -1   53.69    5.39
   2   1   1   48.33    5.03
   2   1   1   57.14    4.68
   2   1   1   51.37    5.25
  -2  -1  -1   53.15    5.33
   2   1   1   53.00    5.09
   2   1   1   56.20    4.46
  -2  -1  -1   58.09    5.07
   2   1   2 3450.45   64.00
   2   1   2 3216.85   63.50
   2   1   2 3219.28   59.62
  -2  -1  -2 3337.55   65.52
   2   1   2 3143.25   63.71
  -2  -1  -2 3327.77   60.69
  -2  -1  -2 3250.93   63.48
   2   1   2 3072.47   63.20
   2   1   3   15.95    2.78
  -2  -1  -3   17.20    3.21
   2   1   3   19.58    3.15
  -2  -1  -3   13.17    2.42
  -2  -1  -3   17.66    3.08
   2   1   3   15.64    2.95
  -2  -1  -4  472.94   18.99
  -2  -1  -4  455.40   18.32
   2   1   4  467.17   19.54
  -2  -1  -4  514.50   20.44
   2   1   4  516.45   14.18
   2   1   5    0.04    0.68
   2   1   5    0.43    1.23
  -2  -1  -5    2.55    2.14
  -2  -1  -5    0.40    1.21
  -2  -1  -5   -0.89    1.36
  -2  -1  -6  408.81   19.50
  -2  -1  -6  368.28   20.46
   2   1   7   64.13    5.62
   2   1   7    4.54    3.38
  -2  -1  -7    6.96    2.82
  -2  -1  -7   47.99    8.28
  -2  -1  -8  268.63   17.73
  -2  -1  -8  266.28   19.65
   2   1   8  248.47   22.41
   2   1   8  253.65   12.66
   2   1   8  265.03   18.61
   2   1   9    2.95    1.46
   2   1   9    1.18    1.48
   2   1   9    1.99    1.96
  -2  -1  -9    3.91    2.52
   2   1   9    6.88    4.47
  -2  -1  -9    1.60    0.84
  -2  -1  -9   -0.85    1.54
  -2  -1 -10  147.51   14.28
   2   1  10  146.17   15.78
   2   1  10  130.11   10.83
  -2  -1 -10  128.28   11.03
  -2  -1 -11   -0.15    1.59
   2   1  11   -2.72    2.21
   2   1  11    1.43    1.82
  -2  -1 -11   -0.75    1.34
  -2  -1 -12   26.59    5.28
   2   1  12   42.44    7.30
   2   1  12   55.81   10.73
   2   1  13   -2.03    2.04
  -2  -1 -13   -6.11    2.68
   2   1  14    7.27    3.14
   2   1  14   11.94    5.27
  -2  -1 -14    6.33    3.75
   2   1  15   -1.24    2.54
  -2  -1 -15    2.51    2.89
   2   2 -14    0.89    1.28
   2   2 -13   -0.16    1.44
  -2  -2  13   -8.32    4.75
  -2  -2  12    3.31    2.86
   2   2 -12    4.30    1.68
   2   2 -11    4.53    2.66
  -2  -2  11    2.95    2.21
  -2  -2  11    7.13    4.41
   2   2 -10   61.26    8.35
  -2  -2  10   49.54    6.89
  -2  -2  10   65.52   12.00
  -2  -2   9   10.59    4.40
   2   2  -9   10.21    3.29
  -2  -2   9   11.02    3.00
   2   2  -8   94.90    7.59
   2   2  -8  106.98   10.43
  -2  -2   8   91.25    9.12
  -2  -2   8   91.57    8.06
  -2  -2   8   84.24   11.80
  -2  -2   7    0.58    2.35
   2   2  -7    1.55    0.90
   2   2  -7   -1.08    1.83
  -2  -2   7    3.01    1.72
   2   2  -7    2.44    1.26
  -2  -2   6   45.67    5.46
   2   2  -6   43.86    6.32
  -2  -2   6   51.62    8.23
   2   2  -6   42.43    4.02
   2   2  -6   36.23    7.21
  -2  -2   5    1.24    2.41
   2   2  -5    1.84    0.97
   2   2  -5    1.58    1.43
   2   2  -5    2.35    1.73
  -2  -2   5    0.32    0.74
   2   2  -4 1651.25   45.35
  -2  -2   4 1571.35   35.66
   2   2  -4 1579.21   32.05
   2   2  -4 1516.98   46.39
  -2  -2   4 1651.89   46.97
  -2  -2   4 1575.71   47.85
  -2  -2   3  164.18   11.66
  -2  -2   3  155.67    7.74
  -2  -2   3  194.10   13.88
   2   2  -3  167.81   12.00
   2   2  -3  169.38    6.85
   2   2  -3  169.58   12.46
   2   2  -2 2259.43   53.82
   2   2  -2 2204.96   42.95
  -2  -2   2 2116.82   42.77
   2   2  -2 2065.14   49.82
   2   2  -2 2205.01   40.84
  -2  -2   2 2144.39   51.12
  -2  -2   2 2173.08   54.19
  -2  -2   1   32.15    4.87
   2   2  -1   28.25    3.08
  -2  -2   1   30.57    3.47
  -2  -2   1   27.20    4.14
   2   2  -1   33.11    4.27
   2   2  -1   30.69    3.77
   2   2   0  554.97   16.89
  -2  -2   0  525.31   17.33
  -2  -2   0  555.02   19.27
   2   2   0  539.70   19.10
   2   2   0  540.70   13.60
  -2  -2   0  563.69   20.47
   2   2   0  535.99   19.96
   2   2   1    2.24    0.91
   2   2   1    3.91    1.55
  -2  -2  -1    6.27    1.93
   2   2   1    4.79    1.56
  -2  -2  -1    4.59    1.59
  -2  -2  -1    4.26    1.85
  -2  -2  -1    4.57    1.39
   2   2   2   25.57    2.51
   2   2   2   13.30    2.88
  -2  -2  -2   14.80    2.90
   2   2   2   12.49    2.57
  -2  -2  -2   16.26    1.77
  -2  -2  -2   16.57    3.27
   2   2   2   17.29    3.05
   2   2   2   12.12    2.37
  -2  -2  -2   14.40    2.39
  -2  -2  -3   29.71    3.34
  -2  -2  -3   29.91    4.79
   2   2   3   27.82    3.96
   2   2   3   19.66    3.70
   2   2   3   31.83    4.56
   2   2   3   29.30    3.45
  -2  -2  -3   35.28    4.75
   2   2   4  357.93   13.46
   2   2   4  360.52   17.44
   2   2   4  344.59   17.10
  -2  -2  -4  331.55   14.86
   2   2   5   44.98    4.25
   2   2   5   33.71    5.63
   2   2   5   39.85    6.72
  -2  -2  -5   39.07    5.51
  -2  -2  -5   47.94    6.82
  -2  -2  -6 2807.41   70.21
  -2  -2  -6 2946.15   74.02
   2   2   7   89.99   10.18
  -2  -2  -7  102.78   12.26
   2   2   7  106.12    7.34
  -2  -2  -8  660.49   33.93
  -2  -2  -8  670.19   32.16
   2   2   8  694.02   31.19
   2   2   8  687.37   31.09
   2   2   8  648.63   21.98
  -2  -2  -9    0.22    1.01
   2   2   9   -1.21    1.66
   2   2   9    0.28    1.38
  -2  -2  -9   -0.95    1.06
   2   2   9   -1.00    1.72
   2   2  10   44.95    6.14
   2   2  10   38.15    7.99
  -2  -2 -10   39.67    8.95
   2   2  11   -0.69    1.42
   2   2  11    3.81    2.72
  -2  -2 -11    0.11    2.62
   2   2  12   19.96    4.64
   2   2  12   23.13    6.97
  -2  -2 -12   22.04    7.51
   2   2  13   -1.48    2.66
   2   2  13    1.02    3.97
  -2  -2 -13    1.51    2.09
   2   2  14   10.58    5.33
  -2  -2 -14   12.57    5.39
   2   2  15   -5.49    4.13
  -2  -2 -15   -0.06    1.19
   2   2  16    5.03    3.48
   2   3 -13   -4.02    2.38
   2   3 -12   12.29    4.31
  -2  -3  12   10.28    4.48
   2   3 -11    1.25    1.54
  -2  -3  11    4.18    3.57
  -2  -3  10   18.24    6.24
   2   3 -10   24.07    4.45
   2   3 -10   29.00    5.92
   2   3  -9    6.20    2.71
   2   3  -9    4.95    1.99
  -2  -3   8   13.28    4.98
   2   3  -8   10.05    3.36
   2   3  -8   15.23    3.18
  -2  -3   7    7.08    3.77
  -2  -3   7    9.66    3.15
   2   3  -7    8.43    3.00
   2   3  -7    9.76    2.34
   2   3  -7   10.31    3.97
  -2  -3   6  309.18   16.75
   2   3  -6  303.78   20.88
   2   3  -6  367.18   20.27
  -2  -3   6  339.87   23.36
   2   3  -6  315.22   13.64
   2   3  -5   50.50    7.44
  -2  -3   5   54.34    8.85
   2   3  -5   37.01    4.48
  -2  -3   5   40.63    5.51
   2   3  -5   45.26    7.22
  -2  -3   5   35.55    6.59
  -2  -3   4  846.15   26.33
   2   3  -4  825.09   31.11
  -2  -3   4  838.37   31.56
   2   3  -4  922.52   33.41
  -2  -3   4  883.83   35.46
   2   3  -4  862.99   24.24
  -2  -3   3   25.92    4.53
  -2  -3   3   31.27    4.31
   2   3  -3   38.19    6.01
   2   3  -3   30.65    3.74
   2   3  -3   29.83    4.89
   2   3  -2  225.07   11.27
  -2  -3   2  202.86   10.61
  -2  -3   2  216.27   12.66
   2   3  -2  218.42   11.71
  -2  -3   2  219.43   14.86
  -2  -3   1   16.76    4.03
   2   3  -1   15.84    3.61
  -2  -3   1   11.42    2.58
   2   3  -1   17.54    3.06
   2   3  -1   13.87    2.34
  -2  -3   1   14.36    2.86
   2   3  -1   11.02    2.54
   2   3   0  367.52   15.24
   2   3   0  380.03   18.30
   2   3   0  376.09   16.91
   2   3   0  383.88   15.62
  -2  -3   0  382.28   16.81
  -2  -3   0  369.36   15.38
   2   3   0  371.72   10.02
  -2  -3   0  379.20   17.52
  -2  -3  -1    6.51    2.15
   2   3   1    5.85    1.75
  -2  -3  -1    8.56    2.54
  -2  -3  -1    8.21    2.17
   2   3   1    8.52    2.13
   2   3   1    6.55    2.19
  -2  -3  -1    8.56    2.36
   2   3   2  654.24   21.85
   2   3   2  723.83   25.21
  -2  -3  -2  679.53   25.24
  -2  -3  -2  684.13   24.98
   2   3   2  688.30   21.58
  -2  -3  -2  692.73   21.09
   2   3   3  223.57   10.66
  -2  -3  -3  231.67   10.10
   2   3   3  238.52   14.77
  -2  -3  -3  247.13   10.35
   2   3   4 1023.70   25.54
   2   3   4 1083.54   35.65
  -2  -3  -4 1015.60   29.94
   2   3   5   -0.45    1.16
   2   3   5   -1.62    3.10
  -2  -3  -5    1.24    1.36
  -2  -3  -5   -2.05    2.03
   2   3   5    0.17    0.43
   2   3   6  785.76   20.88
  -2  -3  -6  813.40   30.72
  -2  -3  -6  708.43   32.28
   2   3   6  710.22   23.01
   2   3   7   12.23    2.67
   2   3   7    5.97    2.58
  -2  -3  -7   11.09    4.11
   2   3   8  177.56   15.96
  -2  -3  -8  177.94   17.39
   2   3   8  177.89   15.32
  -2  -3  -8  155.37   14.89
   2   3   8  179.62   11.25
   2   3   9    5.24    2.02
   2   3   9    1.47    2.29
  -2  -3  -9    6.56    2.98
   2   3   9    5.11    2.60
  -2  -3  -9    7.57    4.00
  -2  -3 -10   73.51   12.39
   2   3  10   82.74   12.23
   2   3  10   67.69    7.68
   2   3  11    1.35    1.23
   2   3  11    4.47    3.88
  -2  -3 -11    0.46    2.03
   2   3  12   72.55   12.93
   2   3  12   73.21    7.77
  -2  -3 -12   70.56   13.04
   2   3  13    4.86    4.50
  -2  -3 -13   -2.17    2.73
   2   3  14   52.51   11.92
  -2  -3 -14   20.84    7.85
   2   3  15    3.47    3.17
   2   3  16   -1.39    1.97
   2   4 -12    5.55    2.81
  -2  -4  12   12.61    7.59
  -2  -4  11   -1.87    2.63
   2   4 -11    0.20    0.89
  -2  -4  10   29.63    8.38
   2   4 -10   24.64    5.92
   2   4  -9    0.27    0.84
   2   4  -9    2.51    1.54
  -2  -4   8   73.38    9.83
   2   4  -8   82.80   10.25
  -2  -4   8   79.71   13.15
   2   4  -8   74.72    7.55
  -2  -4   7    9.33    4.21
   2   4  -7    6.23    3.17
   2   4  -7    9.70    3.29
  -2  -4   7    5.35    2.68
   2   4  -7    3.77    1.67
  -2  -4   6   12.87    4.70
   2   4  -6   12.50    3.88
   2   4  -6    7.16    3.27
  -2  -4   6    9.91    3.83
   2   4  -6   14.50    3.38
  -2  -4   5    0.38    1.35
  -2  -4   5   -0.44    2.54
   2   4  -5   -1.24    2.70
   2   4  -5    1.24    1.56
  -2  -4   5    1.04    1.38
   2   4  -5    1.51    1.18
   2   4  -4   77.12    9.66
  -2  -4   4   61.00    7.26
   2   4  -4   77.74    8.94
  -2  -4   4   83.05   11.08
  -2  -4   4   74.81    8.50
  -2  -4   4   71.51   10.17
   2   4  -4   74.02    7.12
  -2  -4   3    0.60    1.27
  -2  -4   3    5.47    3.18
  -2  -4   3    2.37    1.68
   2   4  -3    1.26    0.92
  -2  -4   3    3.57    1.99
   2   4  -3    1.72    1.16
  -2  -4   2  897.50   28.89
   2   4  -2  937.11   29.95
  -2  -4   2  896.82   28.92
  -2  -4   2  924.98   31.54
   2   4  -2  921.74   28.32
  -2  -4   2  916.70   35.29
   2   4  -1  129.90    9.86
  -2  -4   1  121.70    9.49
  -2  -4   1  122.60    8.84
  -2  -4   1  128.58    9.00
   2   4  -1  121.47    7.71
  -2  -4   1  135.90   11.74
   2   4   0 2566.05   59.21
  -2  -4   0 2430.34   59.23
  -2  -4   0 2667.98   55.31
   2   4   0 2546.12   62.14
  -2  -4   0 2494.37   49.55
   2   4   0 2569.67   54.19
  -2  -4   0 2547.02   61.30
   2   4   0 2554.67   48.28
   2   4   1   91.52    8.57
  -2  -4  -1   83.16    4.19
  -2  -4  -1   92.78    9.32
   2   4   1   85.85    6.99
  -2  -4  -1   68.01    7.75
   2   4   1   67.23    7.58
  -2  -4  -1   75.74    7.71
  -2  -4  -2   79.54    4.25
   2   4   2   80.55    7.77
  -2  -4  -2   72.14    8.45
   2   4   2   75.88    6.61
  -2  -4  -2   78.23    8.39
   2   4   2   77.32    8.20
  -2  -4  -2   83.16    7.35
   2   4   3   15.42    2.79
   2   4   3   12.38    3.47
  -2  -4  -3   13.82    3.74
  -2  -4  -3   15.83    2.78
   2   4   4  203.31    9.50
   2   4   4  208.43   15.41
  -2  -4  -4  190.73   11.80
  -2  -4  -4  208.30    9.10
  -2  -4  -4  229.81   16.31
   2   4   5   -0.84    1.44
   2   4   5    1.96    1.13
  -2  -4  -5    0.65    0.97
  -2  -4  -5    0.68    1.04
   2   4   5   -1.91    2.91
   2   4   6  119.13   12.37
  -2  -4  -6  115.53   11.27
   2   4   6  119.28    5.50
  -2  -4  -6   77.55   10.64
   2   4   6   75.88    7.16
   2   4   7    8.68    4.05
   2   4   7    7.51    2.39
  -2  -4  -7    4.11    2.79
   2   4   7    5.95    2.43
  -2  -4  -7    1.17    2.28
   2   4   7    5.34    0.98
   2   4   8  196.50    6.98
   2   4   8  225.62   18.79
  -2  -4  -8  216.99   18.21
   2   4   8  223.03   17.69
  -2  -4  -8  213.01   19.99
   2   4   8  248.32   14.04
   2   4   9   24.96    4.58
  -2  -4  -9   20.38    5.85
   2   4   9   14.69    1.99
   2   4   9   14.63    4.50
  -2  -4  -9   22.99    6.32
   2   4  10  170.64   17.58
   2   4  10  166.14   12.83
  -2  -4 -10  147.88   18.33
   2   4  10  151.78    7.67
   2   4  11    2.42    1.35
  -2  -4 -11    2.84    2.47
   2   4  11    0.96    2.04
   2   4  12   59.52   11.53
  -2  -4 -12   69.74   13.30
   2   4  13    4.99    3.72
  -2  -4 -13    2.05    2.35
   2   4  14   16.98    7.02
  -2  -4 -14   13.39    5.79
   2   4  15    2.79    2.51
   2   5 -12    5.98    3.56
  -2  -5  12   -0.62    1.86
   2   5 -11   -1.87    1.81
  -2  -5  11   -2.46    4.06
  -2  -5  10    7.94    4.49
   2   5 -10   11.97    4.35
  -2  -5  10   16.10    6.80
  -2  -5   9   -0.47    2.66
   2   5  -9   -1.13    1.89
  -2  -5   9    0.89    1.56
  -2  -5   8   31.25    8.75
   2   5  -8   29.53    6.56
  -2  -5   8   26.50    7.31
  -2  -5   8   28.02    6.68
   2   5  -8   30.16    5.42
  -2  -5   7   -1.02    3.83
  -2  -5   7   -0.78    1.60
   2   5  -7    1.55    1.36
  -2  -5   7    1.52    1.86
   2   5  -7    0.45    1.12
   2   5  -6   94.31   11.88
  -2  -5   6   61.82    8.95
  -2  -5   6  102.22   14.93
   2   5  -6   85.40   11.58
   2   5  -6   86.55    9.21
  -2  -5   6   83.21   10.67
  -2  -5   5   -1.79    1.54
  -2  -5   5   -0.35    1.28
   2   5  -5    0.54    1.18
  -2  -5   5    3.68    3.20
  -2  -5   5    0.06    1.26
   2   5  -5   -0.51    0.73
   2   5  -5    0.31    1.53
  -2  -5   4   77.73    8.80
   2   5  -4   94.29   11.62
  -2  -5   4  101.09   12.41
  -2  -5   4  101.43   13.65
   2   5  -4   95.64   10.73
   2   5  -4   93.17    9.31
   2   5  -3   23.26    4.49
   2   5  -3   24.90    5.58
  -2  -5   3   28.63    6.93
  -2  -5   3   20.83    4.11
  -2  -5   3   23.31    5.50
   2   5  -3   23.19    4.73
   2   5  -2  665.64   27.47
   2   5  -2  691.83   30.18
  -2  -5   2  665.48   23.72
  -2  -5   2  690.63   27.34
  -2  -5   2  695.83   33.02
   2   5  -2  707.86   25.61
  -2  -5   1    4.63    2.35
  -2  -5   1    7.36    2.31
  -2  -5   1    5.88    1.89
   2   5  -1    4.72    2.06
   2   5  -1    8.23    2.21
   2   5   0  196.49   14.03
  -2  -5   0  192.45    9.92
  -2  -5   0  190.06   10.35
   2   5   0  193.58   10.22
  -2  -5   0  178.40   13.76
  -2  -5  -1    7.84    2.78
  -2  -5  -1    6.57    2.76
   2   5   1    9.37    2.25
  -2  -5  -1   11.25    1.97
   2   5   1   10.37    3.11
   2   5   2 1237.01   39.99
   2   5   2 1205.88   32.55
  -2  -5  -2 1266.10   41.28
  -2  -5  -2 1231.96   28.81
  -2  -5  -2 1190.65   35.46
  -2  -5  -3   24.40    5.40
   2   5   3   22.81    4.97
   2   5   3   23.40    3.84
  -2  -5  -3   26.51    4.26
   2   5   4   32.42    6.22
  -2  -5  -4   25.56    3.32
  -2  -5  -4   22.61    5.30
   2   5   4   28.99    4.98
   2   5   5   -0.11    2.32
   2   5   5   -0.13    0.69
   2   5   6  486.91   27.33
  -2  -5  -6  589.78   29.60
  -2  -5  -6  555.63   26.78
  -2  -5  -6  377.67   25.72
   2   5   6  373.61   18.10
   2   5   7    6.16    2.86
   2   5   7    5.33    2.14
  -2  -5  -7    2.68    1.52
  -2  -5  -7    8.38    4.69
   2   5   7    3.87    2.03
   2   5   8  363.33   26.65
  -2  -5  -8  327.54   23.93
  -2  -5  -8  342.04   26.40
   2   5   8  392.41   18.62
  -2  -5  -9   17.61    5.70
   2   5   9   28.00    7.78
  -2  -5  -9   20.61    6.72
  -2  -5 -10   25.39    7.52
   2   5  10   24.85    6.99
   2   5  11    4.38    4.03
  -2  -5 -11    2.94    3.72
   2   5  12   12.01    5.58
  -2  -5 -12   12.24    5.39
   2   5  13   -0.22    1.67
  -2  -5 -13   -0.41    1.37
   2   5  14   13.54    6.60
  -2  -5 -14   25.34    8.42
   2   5  15    4.70    5.22
   2   6 -11    0.70    1.20
   2   6 -10    7.27    3.01
  -2  -6  10    2.79    3.59
   2   6  -9   -1.10    1.84
  -2  -6   9    1.61    3.73
  -2  -6   9   -1.70    1.66
  -2  -6   8   30.16    9.38
   2   6  -8   32.28    7.40
   2   6  -8   31.57    6.22
  -2  -6   8   24.08    6.86
   2   6  -7    1.66    2.34
   2   6  -7    2.37    2.24
  -2  -6   7    3.97    2.91
   2   6  -6   76.65   11.47
  -2  -6   6   63.57   12.92
  -2  -6   6   67.32    9.45
   2   6  -6   66.01    9.02
  -2  -6   6   51.94    8.99
  -2  -6   6   60.47   11.72
  -2  -6   5    3.51    3.55
  -2  -6   5   -0.73    2.91
   2   6  -5   -2.64    2.16
  -2  -6   5   -0.02    1.66
   2   6  -5    1.37    0.96
  -2  -6   5    0.01    0.71
   2   6  -5    0.17    0.85
  -2  -6   4  134.02   13.45
  -2  -6   4  135.31   17.64
  -2  -6   4  119.78   10.92
  -2  -6   4  129.39   14.55
   2   6  -4  140.15   14.89
   2   6  -4  125.69   12.07
   2   6  -4  123.07   12.85
  -2  -6   3   -0.85    3.07
   2   6  -3   -1.34    1.84
  -2  -6   3   -1.07    1.11
  -2  -6   3   -3.50    2.11
  -2  -6   3   -0.82    0.74
   2   6  -3   -0.55    1.62
   2   6  -3   -0.44    1.51
   2   6  -2    7.25    3.61
  -2  -6   2    2.39    1.40
  -2  -6   2    3.58    2.53
   2   6  -2    1.59    1.32
  -2  -6   2    4.11    2.25
  -2  -6   2    5.04    1.85
   2   6  -2    3.74    1.85
   2   6  -1    6.07    2.40
  -2  -6   1    7.88    3.14
   2   6  -1    5.31    2.88
  -2  -6   1    6.84    2.44
   2   6  -1    6.11    2.14
  -2  -6   1    3.93    1.61
  -2  -6   1    3.22    2.30
   2   6   0  806.36   33.38
  -2  -6   0  749.28   31.58
  -2  -6   0  760.00   24.71
   2   6   0  751.44   30.46
  -2  -6   0  779.25   33.53
  -2  -6  -1   -0.53    1.64
  -2  -6  -1    1.70    1.77
   2   6   1   -0.37    1.60
   2   6   1   -1.23    2.03
  -2  -6  -1   -0.01    0.97
   2   6   1   -0.28    0.42
  -2  -6  -1    1.75    1.81
  -2  -6  -2  223.56   11.57
   2   6   2  226.35   16.83
  -2  -6  -2  225.31   17.86
   2   6   2  213.89   11.70
  -2  -6  -2  208.03   16.19
   2   6   2  222.86   15.05
  -2  -6  -2  199.69   13.53
  -2  -6  -3    0.44    0.91
  -2  -6  -3    5.65    2.34
  -2  -6  -3    4.10    2.56
   2   6   3    1.83    1.76
  -2  -6  -3    0.67    1.86
   2   6   3    2.53    1.16
   2   6   3    2.78    2.27
   2   6   4  306.92   17.41
   2   6   4  322.71   21.13
  -2  -6  -4  305.69   21.90
  -2  -6  -4  325.84   21.63
  -2  -6  -4  287.70   14.00
  -2  -6  -5   -1.19    1.06
   2   6   5   -1.38    2.20
   2   6   5    1.41    1.20
  -2  -6  -5    1.07    0.75
  -2  -6  -5   -1.03    1.92
  -2  -6  -6  731.85   37.93
   2   6   6  671.76   27.04
  -2  -6  -7    3.09    2.40
   2   6   7    4.48    4.60
  -2  -6  -8   45.47    8.98
  -2  -6  -8   41.80    9.78
   2   6   8   50.96    9.69
  -2  -6  -9    8.94    5.19
  -2  -6  -9    2.18    2.46
   2   6   9   11.00    4.55
  -2  -6 -10   17.88    6.87
   2   6  10   35.41    8.86
  -2  -6 -11    4.92    3.67
   2   6  11    1.83    3.03
  -2  -6 -12   33.15    9.40
   2   6  12   36.30    9.49
  -2  -6 -13    1.68    2.61
   2   6  13    2.15    3.32
   2   6  14   10.56    5.35
  -2  -6 -14   10.49    5.07
   2   6  15    1.22    2.56
   2   7 -10    3.75    2.34
   2   7  -9    0.90    2.07
  -2  -7   8   14.86    4.73
   2   7  -8   13.44    4.83
  -2  -7   7    2.93    5.05
   2   7  -7    6.81    3.67
  -2  -7   7    2.90    2.00
   2   7  -7    7.03    3.62
  -2  -7   6   37.85   11.09
   2   7  -6   61.54   10.85
  -2  -7   6   30.33    8.41
  -2  -7   6   29.61    6.17
   2   7  -6   33.31    6.93
  -2  -7   5    0.85    3.02
   2   7  -5   -2.88    3.37
  -2  -7   5    3.23    2.00
   2   7  -5    1.53    1.73
  -2  -7   5    0.32    1.28
   2   7  -5    1.37    1.49
   2   7  -4   42.49    7.93
  -2  -7   4   36.45   10.65
  -2  -7   4   48.53    6.55
  -2  -7   4   59.04   10.16
   2   7  -4   46.85    7.96
  -2  -7   3    2.70    3.57
   2   7  -3    0.54    1.35
   2   7  -3    0.43    0.89
  -2  -7   3   -0.90    2.53
  -2  -7   3    4.10    1.92
   2   7  -3    3.08    1.94
  -2  -7   3   -0.34    1.35
   2   7  -2   83.11   11.17
  -2  -7   2   66.98    9.95
  -2  -7   2   77.30    6.52
   2   7  -2   86.49   10.67
   2   7  -2   72.31    9.84
  -2  -7   2   82.22   13.93
   2   7  -2   80.77    8.75
  -2  -7   2   77.62    9.55
  -2  -7   1    1.61    1.90
   2   7  -1    7.36    2.90
   2   7  -1    1.94    1.17
  -2  -7   1    2.78    1.76
  -2  -7   1    2.16    1.57
   2   7   0   83.20   11.09
  -2  -7   0   72.81   10.02
   2   7   0   84.55    9.91
  -2  -7   0   75.67   10.88
  -2  -7   0   86.37    8.32
  -2  -7  -1    6.53    3.22
   2   7   1    3.75    2.19
  -2  -7  -1    3.18    1.22
   2   7   1    5.06    2.86
  -2  -7  -1    3.27    2.04
   2   7   2  179.78   16.24
  -2  -7  -2  185.90   17.27
   2   7   2  196.03    9.89
  -2  -7  -2  188.20   16.43
  -2  -7  -2  209.10   12.98
  -2  -7  -2  199.34   14.75
   2   7   2  191.54   14.54
  -2  -7  -3   10.34    4.28
  -2  -7  -3    6.62    2.69
   2   7   3    3.93    2.21
  -2  -7  -3   -0.29    1.66
   2   7   3    8.45    2.46
   2   7   3    3.52    1.74
  -2  -7  -3    1.60    0.96
   2   7   4  315.10   22.24
  -2  -7  -4  317.61   16.69
   2   7   4  289.30   15.27
  -2  -7  -4  315.06   22.36
  -2  -7  -4  299.73   15.47
   2   7   4  339.23   19.08
   2   7   5   18.51    4.42
   2   7   5    9.47    4.28
  -2  -7  -5   15.69    5.55
  -2  -7  -5   15.05    2.92
  -2  -7  -6    1.63    1.79
   2   7   6    1.54    2.73
  -2  -7  -7   14.60    5.84
   2   7   7   25.03    7.44
   2   7   8  232.87   21.20
  -2  -7  -8  187.17   20.54
  -2  -7  -9    3.11    2.95
   2   7   9   -2.95    3.70
  -2  -7  -9    0.72    1.90
  -2  -7 -10   51.37   11.38
   2   7  10   52.72   10.83
   2   7  11    0.22    1.58
  -2  -7 -11    0.47    2.24
   2   7  12   29.01    8.71
  -2  -7 -12    8.63    4.94
  -2  -7 -13   -3.04    3.70
   2   7  13    2.41    3.73
   2   7  14   11.61    5.81
   2   8  -9   -0.73    1.30
   2   8  -8    0.54    1.34
  -2  -8   7    7.01    4.86
  -2  -8   7   -3.50    2.55
   2   8  -7    3.72    2.72
  -2  -8   6   24.62   11.02
   2   8  -6   15.49    5.29
   2   8  -6   11.19    4.71
  -2  -8   6   18.93    7.12
   2   8  -5    4.19    2.71
  -2  -8   5    3.63    2.06
   2   8  -5    1.83    1.87
  -2  -8   4   52.09   10.02
  -2  -8   4   51.69   13.48
  -2  -8   4   46.05    5.78
   2   8  -4   44.72    8.39
  -2  -8   3    4.66    2.00
  -2  -8   3    1.20    0.78
  -2  -8   3    0.41    1.17
   2   8  -3    1.49    2.11
   2   8  -3    3.37    2.30
   2   8  -2   64.58    9.51
  -2  -8   2   65.60   13.70
  -2  -8   2   66.51    9.30
   2   8  -2   62.22   10.04
  -2  -8   1   24.05    8.00
  -2  -8   1   19.10    4.91
   2   8  -1   27.60    7.12
   2   8  -1   18.09    4.94
  -2  -8   0   48.74    9.71
  -2  -8   0   32.72    5.74
   2   8   0   34.38    6.47
   2   8   0   31.81    7.35
   2   8   1   15.80    4.19
   2   8   1   17.64    5.49
  -2  -8  -1   21.66    6.26
  -2  -8  -1   18.44    4.07
   2   8   2  212.18   19.40
  -2  -8  -2  226.20   15.10
   2   8   2  198.13   15.02
  -2  -8  -2  213.55   16.82
  -2  -8  -2  204.79   18.35
  -2  -8  -3   -0.37    1.07
  -2  -8  -3   -1.26    1.39
   2   8   3    0.37    0.62
   2   8   3    1.91    1.39
  -2  -8  -3   -0.50    1.92
  -2  -8  -4   16.48    3.92
  -2  -8  -4   12.97    4.68
  -2  -8  -4   18.23    4.35
   2   8   4   11.42    4.44
   2   8   4   15.74    3.31
   2   8   4   15.85    4.22
   2   8   5   -1.60    1.33
   2   8   5    1.76    1.44
  -2  -8  -5    0.67    1.19
   2   8   6  126.53   15.97
  -2  -8  -6   94.51   13.61
  -2  -8  -6  129.79    6.99
   2   8   7   11.79    5.51
  -2  -8  -7    6.51    3.49
  -2  -8  -8   61.50   12.13
   2   8   8   86.87   13.54
  -2  -8  -9   -2.72    3.55
   2   8   9    0.76    2.69
   2   8  10   31.96    8.45
  -2  -8 -10   22.57    7.75
   2   8  11    1.53    3.70
  -2  -8 -11   -0.80    2.24
   2   8  12   13.77    6.70
  -2  -8 -12   -2.15    2.71
  -2  -8 -13   -9.99    5.56
   2   8  13    2.94    4.39
   2   9  -7    1.12    1.09
   2   9  -6    4.14    2.60
   2   9  -6    1.42    1.13
   2   9  -5    0.52    1.37
  -2  -9   5    2.54    2.62
   2   9  -5    1.73    0.97
  -2  -9   4   35.14   12.59
  -2  -9   4   24.38    7.40
   2   9  -4   17.79    5.74
  -2  -9   3    4.99    4.39
  -2  -9   3    3.01    2.22
   2   9  -3   -2.04    2.36
  -2  -9   2   23.93    9.24
  -2  -9   2   31.16    6.72
   2   9  -2   24.86    6.96
  -2  -9   1    6.14    4.54
  -2  -9   1   12.19    4.12
   2   9  -1    6.29    3.26
  -2  -9   0   74.99   13.09
   2   9   0   85.49   13.32
  -2  -9   0   80.35    9.86
   2   9   0   64.36    9.05
   2   9   1   -0.08    0.85
   2   9   1    0.71    2.03
  -2  -9  -1    2.21    1.61
  -2  -9  -2   16.17    5.45
   2   9   2    8.33    4.12
   2   9   2   10.91    3.65
  -2  -9  -2   11.00    3.85
  -2  -9  -3    8.30    3.94
  -2  -9  -3    4.89    3.74
   2   9   3    3.94    2.03
  -2  -9  -3    4.69    2.60
   2   9   4  107.30   14.81
  -2  -9  -4   97.71   13.51
  -2  -9  -4  114.57   12.24
  -2  -9  -4   89.38    9.52
  -2  -9  -5    3.85    2.07
  -2  -9  -5    2.20    2.37
   2   9   5    4.43    3.50
  -2  -9  -5    5.34    2.15
   2   9   6    4.59    3.32
  -2  -9  -6    4.81    3.09
  -2  -9  -6    9.62    2.19
  -2  -9  -7    7.46    3.93
   2   9   7    0.93    1.53
   2   9   8   29.38    8.21
  -2  -9  -8   16.60    6.57
  -2  -9  -9   -1.56    1.38
   2   9   9    7.74    4.38
  -2  -9 -10    2.09    1.57
   2   9  10   19.98    7.65
  -2  -9 -11   -6.61    4.43
   2   9  11   -0.08    1.59
  -2  -9 -12    5.89    4.51
   2   9  12    6.54    5.00
   2  10  -6    4.30    4.25
   2  10  -5   -1.08    2.74
   2  10  -5    3.27    2.86
  -2 -10   4    8.69    6.83
   2  10  -4    1.35    0.91
  -2 -10   3    4.24    4.20
   2  10  -3   -0.25    1.32
  -2 -10   2   20.79    8.11
   2  10  -2   13.00    4.96
  -2 -10   1    1.39    1.96
   2  10  -1    0.21    1.48
  -2 -10   0   10.98    6.03
  -2 -10   0    8.94    3.94
   2  10   0   19.19    6.67
  -2 -10  -1   12.50    5.38
  -2 -10  -1   13.94    4.51
   2  10   1    5.98    3.62
   2  10   2  106.76   15.78
  -2 -10  -2   86.61   10.97
  -2 -10  -2  101.89   13.61
  -2 -10  -3    2.24    1.89
  -2 -10  -3    2.39    1.84
   2  10   3    0.12    1.84
  -2 -10  -3    1.87    2.27
  -2 -10  -4   38.23    6.65
  -2 -10  -4   38.10    8.91
   2  10   4   46.50   10.55
  -2 -10  -4   29.02    6.82
  -2 -10  -5    2.01    2.12
   2  10   5   -2.70    3.64
  -2 -10  -5    1.51    2.02
  -2 -10  -5    0.76    1.71
   2  10   6    3.21    1.70
  -2 -10  -6    8.64    3.90
  -2 -10  -6    8.13    3.59
   2  10   7   -0.82    1.78
  -2 -10  -7    0.08    1.67
  -2 -10  -8   13.39    6.38
   2  10   8   28.45    8.56
  -2 -10  -9    7.18    4.76
   2  10   9    2.86    3.38
   2  10  10    9.27    5.40
  -2 -10 -10    7.40    4.87
  -2 -10 -11   -4.63    3.91
   2  11  -3    7.04    4.42
  -2 -11   2    3.20    4.83
   2  11  -2    9.74    5.06
  -2 -11   1   -2.79    3.51
   2  11  -1    2.45    2.87
  -2 -11   0    4.57    3.88
   2  11   0    8.74    5.32
   2  11   0   17.91    6.82
  -2 -11  -1   -0.10    1.83
   2  11   1    0.83    2.21
  -2 -11  -2   12.06    5.21
   2  11   2   10.61    4.90
  -2 -11  -3    5.52    3.40
   2  11   3    0.22    1.93
  -2 -11  -4   16.22    5.84
   2  11   4   20.63    7.43
   2  11   5   -2.45    3.78
  -2 -11  -5    4.01    3.15
  -2 -11  -6   18.84    6.70
   2  11   6   22.43    7.46
  -2 -11  -7    1.50    2.13
   2  11   7    1.86    1.23
  -2 -11  -8    8.06    4.42
  -2 -11  -9    0.52    1.34
  -2 -11 -10    6.55    4.50
  -2 -12   1    2.16    2.39
  -2 -12   0    2.83    3.03
  -2 -12  -1   -0.99    1.91
  -2 -12  -8    5.87    3.86
   3 -11  -2   -0.65    2.07
  -3  10   9    7.58    4.07
  -3  10   8   -3.05    2.70
  -3  10   7    7.89    4.59
  -3  10   6    3.33    3.50
   3 -10  -6    2.82    3.66
   3 -10  -5    4.47    3.74
  -3  10   5    6.38    4.25
   3 -10  -4   -9.19    5.13
  -3  10   4   -4.91    4.48
   3 -10  -3   -1.06    1.60
  -3  10   3    8.54    4.88
   3 -10  -2    5.84    4.10
  -3  10   2   -0.42    1.96
   3 -10  -1   35.51   10.60
  -3  10   1   24.88    8.48
  -3  10   0    2.57    2.67
   3 -10   0   -4.76    4.01
   3 -10   1   32.33   10.21
  -3  10  -1   27.52    9.04
   3 -10   2   -3.39    4.16
  -3  10  -2   -1.53    4.14
   3 -10   3    2.14    3.46
  -3   9  10   -2.67    1.54
  -3   9   9    3.13    2.81
  -3   9   8    0.94    1.84
  -3   9   7    5.65    3.41
  -3   9   6   -2.75    2.74
  -3   9   5   31.98    8.36
   3  -9  -5   18.10    7.03
   3  -9  -4    2.98    3.60
  -3   9   4    4.58    4.25
   3  -9  -3   57.50   12.07
  -3   9   3   51.43   11.54
   3  -9  -2    1.22    1.73
  -3   9   2   -1.72    3.16
   3  -9  -1   68.43   14.33
  -3   9   1   56.57   12.01
   3  -9   0    0.30    2.89
  -3   9   0    1.97    2.93
   3  -9   1   48.56   11.81
  -3   9  -1   55.35   11.87
   3  -9   2    1.83    3.99
  -3   9  -2    0.89    1.84
   3  -9   3   21.62    7.98
  -3   9  -3   16.50    6.48
   3  -9   4   -0.38    1.59
  -3   9  -4   -1.90    1.76
   3  -9   5   42.43   11.05
  -3   9  -5   23.37    7.78
   3  -9   6   -4.19    3.61
   3  -8 -11    3.72    3.01
  -3   8  11    6.78    4.40
   3  -8 -10   -0.99    0.87
  -3   8  10    1.33    1.42
  -3   8  10   -1.86    1.52
   3  -8  -9   13.38    5.56
  -3   8   9   16.15    5.81
   3  -8  -9   16.47    4.95
  -3   8   9   19.74    6.60
  -3   8   8    0.21    1.17
  -3   8   8   -1.85    1.95
   3  -8  -8   -3.65    3.54
   3  -8  -8    1.08    1.63
   3  -8  -7   18.84    5.16
  -3   8   7   13.90    5.21
  -3   8   7   19.39    5.99
   3  -8  -6   -1.01    1.52
  -3   8   6   -0.12    2.07
  -3   8   6   -3.64    2.96
  -3   8   5   70.12   11.74
  -3   8   5   61.71    9.26
   3  -8  -5   53.05    7.47
  -3   8   4    0.64    2.56
   3  -8  -4    0.97    2.65
   3  -8  -4   -0.64    1.00
   3  -8  -4   -0.44    1.55
  -3   8   4    0.81    1.44
  -3   8   3   67.47    8.15
   3  -8  -3   57.92    5.89
  -3   8   3   75.89   12.78
   3  -8  -3   61.29   12.02
   3  -8  -2    2.18    1.31
  -3   8   2    5.21    3.84
   3  -8  -1   31.70    8.99
  -3   8   1   44.96    9.80
  -3   8   0   -0.44    0.70
  -3   8   0   -1.61    3.38
   3  -8   0   -3.51    4.33
  -3   8  -1  112.02   15.50
   3  -8   1  116.15   17.27
  -3   8  -1  109.38   10.09
   3  -8   2    2.21    2.70
  -3   8  -2   -0.63    0.86
  -3   8  -2   -0.66    1.43
  -3   8  -3  182.20   20.53
   3  -8   3  162.65   20.26
   3  -8   4    3.71    3.33
  -3   8  -4   -2.94    2.92
   3  -8   5   33.39    9.33
  -3   8  -5   40.43   10.33
   3  -8   6    0.69    2.85
  -3   8  -6   -2.29    3.01
   3  -8   7   54.67   12.32
  -3   8  -7   59.81   12.59
  -3   7  12   -1.01    1.97
  -3   7  11    2.36    3.39
   3  -7 -10    0.93    1.72
  -3   7  10    4.09    2.57
  -3   7  10   -0.43    0.84
   3  -7  -9   13.33    4.42
  -3   7   9   18.30    5.72
  -3   7   9   15.68    5.86
   3  -7  -8    0.55    1.59
  -3   7   8    0.38    1.61
   3  -7  -7   23.74    5.65
  -3   7   7   18.98    5.73
  -3   7   7   13.48    5.10
   3  -7  -6    6.84    2.72
  -3   7   6    4.35    2.65
  -3   7   6    0.35    1.21
   3  -7  -6    4.74    2.23
  -3   7   5   50.20    8.68
  -3   7   5   43.74    8.65
   3  -7  -5   41.51    6.32
   3  -7  -5   56.91    8.63
   3  -7  -5   52.48    6.97
  -3   7   4   13.50    4.41
   3  -7  -4   15.15    3.63
   3  -7  -4   11.44    3.52
  -3   7   4    6.88    3.22
   3  -7  -3   18.49    3.41
   3  -7  -3   21.67    6.97
  -3   7   3   34.32    6.09
  -3   7   3   31.93    7.53
   3  -7  -2    0.51    0.48
  -3   7   2    2.06    1.40
   3  -7  -2    4.64    2.76
  -3   7   2    0.31    0.83
  -3   7   2    1.29    1.70
  -3   7   1   56.31   10.10
   3  -7  -1   47.60   10.12
  -3   7   1   60.81    8.25
  -3   7   0    0.78    0.74
   3  -7   0   -0.48    1.65
  -3   7   0   -0.86    1.94
   3  -7   1  260.33   24.28
  -3   7  -1  259.70   22.33
  -3   7  -1  220.08   14.43
   3  -7   2    3.02    1.31
   3  -7   2    4.39    3.55
  -3   7  -2   -0.94    2.20
   3  -7   3   95.05    8.13
   3  -7   3  103.02   15.32
  -3   7  -3  110.65   14.85
  -3   7  -4    0.49    0.50
   3  -7   4    1.00    2.25
   3  -7   4    0.16    0.76
   3  -7   5   64.00   12.16
  -3   7  -5   77.32   12.98
   3  -7   6   -1.25    2.66
  -3   7  -6    0.11    2.01
   3  -7   7  106.56   16.66
  -3   7  -7  120.02   16.51
   3  -7   8    5.90    4.66
  -3   7  -8    3.23    3.87
   3  -7   9   30.52    9.70
  -3   7  -9   40.57   10.27
  -3   6  12    1.94    3.18
   3  -6 -11    4.34    2.29
  -3   6  11    5.70    4.04
   3  -6 -10   -1.32    1.76
  -3   6  10    0.43    1.23
  -3   6  10    3.14    2.86
   3  -6  -9   25.46    5.98
  -3   6   9   20.41    6.55
  -3   6   9   26.64    6.33
   3  -6  -8   -0.08    1.30
  -3   6   8    1.44    1.79
  -3   6   8    0.15    1.20
   3  -6  -7   18.54    5.25
   3  -6  -7   12.63    4.05
  -3   6   7   13.37    4.57
  -3   6   7   12.52    4.60
   3  -6  -6   -2.01    2.03
  -3   6   6   -0.07    1.26
  -3   6   6    1.81    2.35
   3  -6  -6   -0.60    1.36
   3  -6  -5    0.80    1.33
  -3   6   5    2.95    1.88
  -3   6   5    1.45    1.58
   3  -6  -5    2.80    1.47
   3  -6  -5    5.32    2.97
   3  -6  -4   31.18    5.66
  -3   6   4   31.78    7.23
  -3   6   4   29.52    6.54
   3  -6  -4   25.43    5.70
   3  -6  -4   27.84    5.22
  -3   6   3  255.23   18.81
  -3   6   3  244.91   19.06
   3  -6  -3  244.17   17.87
  -3   6   3  239.80   16.85
   3  -6  -3  228.92   15.61
   3  -6  -3  226.06   15.01
   3  -6  -2    2.90    1.24
  -3   6   2    0.54    1.44
   3  -6  -2    7.72    4.18
   3  -6  -2    3.61    2.16
  -3   6   2    2.87    1.74
  -3   6   2    2.51    2.48
  -3   6   1  154.52   13.05
   3  -6  -1  165.08   14.75
  -3   6   1  149.02   11.85
   3  -6  -1  169.62   17.85
   3  -6  -1  148.52    5.91
  -3   6   1  134.93   14.53
  -3   6   0    0.87    1.21
  -3   6   0   -0.59    1.48
   3  -6   0    0.55    1.91
  -3   6  -1   75.24   10.97
   3  -6   1   82.60   12.77
   3  -6   1   60.74    6.27
  -3   6  -2    2.33    1.43
   3  -6   2    4.48    2.63
   3  -6   2    1.49    0.96
  -3   6  -2    4.61    3.24
  -3   6  -3   96.06   12.86
   3  -6   3  111.87   14.99
   3  -6   3   80.87    8.14
  -3   6  -3   89.56    7.61
  -3   6  -4    0.48    0.49
   3  -6   4   -1.74    1.26
   3  -6   4    2.52    2.59
  -3   6  -4    1.80    2.31
  -3   6  -5   14.86    5.81
  -3   6  -5    7.70    1.71
   3  -6   5    8.46    4.49
  -3   6  -6    0.67    0.38
   3  -6   6   -0.03    1.49
  -3   6  -6   -0.70    1.34
  -3   6  -7   36.74    8.58
   3  -6   7   39.25    9.42
  -3   6  -8    0.13    1.83
   3  -6   8    3.02    3.86
   3  -6   9  302.60   29.73
  -3   6  -9  262.87   24.55
   3  -6  10    2.31    3.52
  -3   6 -10    3.50    3.57
  -3   6 -11    4.34    3.50
  -3   5  12   -1.98    2.54
   3  -5 -12    5.65    3.40
   3  -5 -11   17.81    4.82
  -3   5  11   11.30    5.33
   3  -5 -10    1.18    1.47
  -3   5  10   -0.85    1.02
   3  -5  -9   40.74    6.79
  -3   5   9   37.01    6.91
  -3   5   9   41.46    9.26
   3  -5  -8    4.92    2.75
   3  -5  -8   -1.22    0.95
  -3   5   8    1.55    1.26
  -3   5   8    2.09    2.21
   3  -5  -7   28.37    5.48
   3  -5  -7   11.10    3.76
  -3   5   7   18.96    5.07
  -3   5   7   22.25    6.32
   3  -5  -6   30.89    5.64
   3  -5  -6   23.92    5.55
  -3   5   6   24.19    5.41
  -3   5   6   30.56    6.86
  -3   5   5  306.44   19.71
  -3   5   5  321.11   22.07
   3  -5  -5  319.41   20.12
   3  -5  -5  369.02   18.84
   3  -5  -4    7.46    2.71
  -3   5   4   13.17    4.54
  -3   5   4    6.34    3.04
   3  -5  -4    7.44    2.97
  -3   5   4    2.85    1.63
  -3   5   3  223.52   17.43
  -3   5   3  212.60   16.41
   3  -5  -3  219.81   15.57
  -3   5   3  228.48   16.79
   3  -5  -3  238.39   14.33
   3  -5  -2    3.82    1.23
  -3   5   2    6.74    2.94
   3  -5  -2    2.80    1.79
  -3   5   2    4.01    1.46
  -3   5   2    7.01    3.32
   3  -5  -1   47.03    7.11
  -3   5   1   48.42    6.68
  -3   5   1   55.75    8.54
   3  -5  -1   45.72    8.41
   3  -5  -1   50.49    5.87
  -3   5   0    1.03    1.25
   3  -5   0    5.78    2.77
   3  -5   0    2.98    1.54
  -3   5   0    1.45    1.26
  -3   5  -1   28.82    4.56
   3  -5   1   23.99    4.28
   3  -5   1   26.21    5.56
   3  -5   1   27.58    6.97
  -3   5  -1   24.68    5.77
   3  -5   2   -2.33    1.97
   3  -5   2   -1.29    1.19
  -3   5  -2    1.21    0.84
   3  -5   2   -1.73    3.10
  -3   5  -2   -0.91    1.17
   3  -5   3  290.08   16.32
   3  -5   3  300.39   23.21
  -3   5  -3  304.93   22.21
  -3   5  -3  299.59   13.28
  -3   5  -4   -0.67    0.95
   3  -5   4   -0.46    1.26
  -3   5  -4    2.60    2.39
  -3   5  -5   12.80    1.66
   3  -5   5   25.10    6.67
  -3   5  -5   18.00    5.58
  -3   5  -6    0.64    0.66
   3  -5   6   -2.10    3.11
  -3   5  -6    4.32    3.54
   3  -5   7   40.71    9.40
  -3   5  -7   35.73    4.33
  -3   5  -7   38.04    8.31
  -3   5  -8   -0.86    1.30
   3  -5   8    1.83    3.43
  -3   5  -8    6.98    3.90
   3  -5   9    6.14    3.26
  -3   5  -9   13.33    5.15
  -3   5  -9    9.20    2.95
   3  -5  10    7.55    5.51
  -3   5 -10    5.74    4.00
   3  -5  11   44.30   12.09
  -3   5 -11   49.92   10.53
  -3   5 -12    6.00    4.12
   3  -4 -12   -3.07    1.74
  -3   4  12   -0.09    2.80
   3  -4 -11    3.83    2.21
  -3   4  11    5.40    4.05
   3  -4 -10    0.25    1.31
  -3   4  10    0.95    0.72
  -3   4  10    4.51    3.96
  -3   4   9   72.06    8.56
  -3   4   9   79.55   13.25
  -3   4   9   75.39    9.29
   3  -4  -9   61.07    8.07
   3  -4  -9   74.78    8.99
   3  -4  -8   -0.17    1.52
   3  -4  -8   -0.59    1.32
   3  -4  -8    0.93    1.45
  -3   4   8    3.33    3.04
  -3   4   8    2.97    2.18
  -3   4   7  438.72   21.72
   3  -4  -7  409.50   22.14
  -3   4   7  392.21   26.87
   3  -4  -7  466.94   21.51
   3  -4  -6   -0.08    1.35
   3  -4  -6    1.86    2.05
  -3   4   6    0.80    1.57
  -3   4   6   -0.89    1.14
   3  -4  -5    2.35    2.03
  -3   4   5    6.64    3.58
  -3   4   5    1.74    1.16
  -3   4   5    1.85    1.40
   3  -4  -5    1.89    1.53
   3  -4  -4   11.32    3.15
  -3   4   4    7.48    3.32
  -3   4   4    7.55    2.51
  -3   4   4    3.89    1.89
   3  -4  -4    6.12    2.04
  -3   4   3  208.23   16.07
  -3   4   3  195.77   14.11
   3  -4  -3  190.26   12.98
  -3   4   3  200.04   15.46
   3  -4  -3  221.94   12.49
   3  -4  -2   15.14    3.21
   3  -4  -2   10.08    3.12
  -3   4   2   13.17    3.85
  -3   4   2   10.78    3.13
   3  -4  -1  466.52   21.61
  -3   4   1  505.76   22.67
  -3   4   1  491.19   24.08
   3  -4  -1  541.55   18.58
   3  -4   0    4.88    1.38
   3  -4   0    4.66    1.11
  -3   4   0   10.26    2.89
  -3   4   0    3.53    1.71
   3  -4   0    7.80    2.80
   3  -4   0    7.14    2.37
   3  -4   0    2.23    1.37
  -3   4   0    4.77    2.34
  -3   4  -1  836.50   25.70
   3  -4   1  731.42   29.87
   3  -4   1  731.21   27.06
   3  -4   1  786.79   34.98
  -3   4  -1  724.51   31.61
  -3   4  -2   19.66    3.21
   3  -4   2   18.81    4.93
   3  -4   2   18.06    3.86
   3  -4   2   19.05    5.41
  -3   4  -2   16.41    4.86
  -3   4  -3  731.29   19.77
   3  -4   3  855.10   34.86
   3  -4   3  719.32   28.09
  -3   4  -3  804.25   34.30
   3  -4   3  770.91   35.72
  -3   4  -3  873.19   35.89
   3  -4   3  787.68   33.62
  -3   4  -4   -0.22    0.37
  -3   4  -4    0.17    0.45
   3  -4   4   -1.23    2.22
  -3   4  -4   -0.03    0.83
  -3   4  -4    0.78    1.30
   3  -4   4   -1.88    2.22
   3  -4   5  128.43   14.86
  -3   4  -5  152.71    7.75
  -3   4  -5  150.95   15.01
  -3   4  -6   -0.01    0.80
  -3   4  -6   -0.08    2.09
   3  -4   6   -0.84    2.91
   3  -4   7   57.41   10.59
  -3   4  -7   46.84    8.79
  -3   4  -7   57.47    6.10
  -3   4  -8   -0.37    0.91
   3  -4   8   -3.58    3.88
  -3   4  -8   -2.21    3.38
   3  -4   9  166.43   20.30
  -3   4  -9  125.19   15.02
  -3   4  -9  142.30   12.09
   3  -4  10    0.70    2.25
  -3   4 -10    1.77    1.69
  -3   4 -10   -1.25    2.57
  -3   4 -11   39.24    8.91
   3  -4  11   27.64    9.78
  -3   4 -11   31.81    6.71
   3  -4  12    7.38    5.82
  -3   4 -12   -1.66    3.61
  -3   4 -13    1.65    1.90
   3  -3 -12    0.87    1.93
  -3   3  12    2.88    3.21
   3  -3 -11   19.22    4.68
  -3   3  11   17.01    4.80
   3  -3 -10    4.07    2.23
  -3   3  10   -1.16    1.05
  -3   3  10    2.72    2.29
  -3   3  10    2.50    3.28
  -3   3   9  104.14    9.30
  -3   3   9   99.43   14.90
  -3   3   9  107.40   11.02
   3  -3  -9  114.48   10.98
   3  -3  -8    2.74    1.80
   3  -3  -8    7.41    3.03
  -3   3   8    4.62    2.48
  -3   3   8    7.93    3.41
  -3   3   8    6.83    3.52
   3  -3  -7   12.08    3.58
   3  -3  -7   14.06    3.70
  -3   3   7    9.70    4.31
   3  -3  -7   10.88    3.03
  -3   3   7   15.34    3.60
  -3   3   7   18.39    4.23
   3  -3  -6    2.41    1.98
   3  -3  -6    4.04    1.90
  -3   3   6    2.05    1.16
  -3   3   5  318.46   21.19
  -3   3   5  338.74   16.42
   3  -3  -5  322.12   16.49
  -3   3   5  297.87   20.39
   3  -3  -5  343.22   16.80
  -3   3   4    5.05    2.58
   3  -3  -4    3.54    1.85
  -3   3   4    7.71    2.70
  -3   3   4    5.15    2.16
   3  -3  -4    4.82    1.91
  -3   3   3  963.88   35.03
   3  -3  -3 1015.21   30.05
   3  -3  -3 1063.05   30.05
  -3   3   3 1019.81   37.52
   3  -3  -2    5.94    1.89
  -3   3   2    3.78    2.12
   3  -3  -2    1.71    1.06
  -3   3   2    4.35    2.01
   3  -3  -1  993.69   31.05
  -3   3   1 1040.99   34.51
  -3   3   1 1028.13   31.22
  -3   3   1 1061.55   34.16
   3  -3  -1 1069.77   27.78
  -3   3   0   85.98    7.11
   3  -3   0   79.78    7.95
   3  -3   0   75.62    7.83
  -3   3   0   77.80    8.25
   3  -3   0   78.73    5.81
  -3   3   0  100.80    9.71
   3  -3   0   71.95    9.42
   3  -3   0   87.23    6.06
  -3   3  -1  610.19   18.96
   3  -3   1  602.86   28.00
   3  -3   1  573.03   24.04
  -3   3  -1  592.29   23.73
   3  -3   1  623.72   24.73
   3  -3   1  583.37   15.43
  -3   3  -1  593.55   25.90
   3  -3   1  603.21   16.94
  -3   3  -2    0.33    0.34
   3  -3   2   -0.46    0.63
   3  -3   2    0.25    0.83
   3  -3   2   -2.58    3.07
  -3   3  -2    0.57    0.97
   3  -3   2   -1.45    1.51
   3  -3   3  517.29   23.49
   3  -3   3  543.30   27.66
  -3   3  -3  584.31   27.11
  -3   3  -3  554.29   14.77
  -3   3  -3  562.53   14.05
   3  -3   4   -1.84    3.02
  -3   3  -4   -0.18    0.63
  -3   3  -4   -0.37    1.50
   3  -3   5  820.75   37.02
  -3   3  -5  795.98   35.80
  -3   3  -5  891.07   36.05
  -3   3  -5  862.14   24.40
   3  -3   5  873.69   36.70
  -3   3  -6   -0.80    0.97
   3  -3   6   -1.83    2.12
  -3   3  -6    0.70    1.18
  -3   3  -6    1.37    1.40
   3  -3   6   -0.61    1.17
   3  -3   7  152.08   16.75
  -3   3  -7  155.51   15.23
  -3   3  -7  163.07   11.16
  -3   3  -8    2.12    1.94
   3  -3   8   -1.98    2.30
  -3   3  -8   -1.66    1.37
  -3   3  -9   76.97   11.24
  -3   3  -9   73.58    9.22
  -3   3 -10   -3.15    2.17
   3  -3  10   -0.76    3.01
  -3   3 -10   -2.15    3.28
   3  -3  11   54.65   13.26
  -3   3 -11   48.91    9.68
  -3   3 -11   62.48    9.78
  -3   3 -12   -0.25    1.55
   3  -3  12   -5.03    4.51
  -3   3 -12   -0.96    1.12
  -3   3 -13   10.08    4.50
  -3   3 -13   11.18    4.63
   3  -2 -13   12.50    4.29
   3  -2 -12    1.96    2.21
  -3   2  12   -2.40    2.49
   3  -2 -11    7.05    3.18
  -3   2  11    9.14    3.62
   3  -2 -10    2.82    2.33
  -3   2  10    3.48    2.08
  -3   2  10    1.47    1.05
   3  -2  -9   -2.07    1.91
  -3   2   9    0.55    0.72
  -3   2   9    0.26    1.00
  -3   2   9   -0.05    1.38
   3  -2  -8    3.14    1.69
   3  -2  -8    1.09    2.09
  -3   2   8    2.97    1.38
  -3   2   8    6.86    4.48
  -3   2   8    1.98    1.38
  -3   2   8    5.22    2.37
   3  -2  -7  530.99   23.00
  -3   2   7  466.41   18.66
  -3   2   7  481.87   30.45
  -3   2   7  475.62   17.64
  -3   2   7  508.35   23.92
   3  -2  -7  465.56   24.84
  -3   2   6   19.94    3.23
   3  -2  -6   12.71    3.98
   3  -2  -6   20.22    4.20
  -3   2   6   21.45    5.50
  -3   2   6   17.82    5.45
  -3   2   6   18.20    4.36
  -3   2   5  250.85   18.26
  -3   2   5  250.37   11.61
   3  -2  -5  252.61   14.17
   3  -2  -5  235.07   11.45
  -3   2   5  244.65   15.10
  -3   2   5  223.94   17.66
   3  -2  -4   12.35    2.53
   3  -2  -4   12.37    2.86
  -3   2   4   10.87    2.24
  -3   2   4   14.73    4.33
  -3   2   4   12.57    3.51
   3  -2  -3   50.12    5.56
   3  -2  -3   44.01    4.50
  -3   2   3   51.63    7.53
  -3   2   3   52.20    5.68
   3  -2  -2   58.36    5.83
   3  -2  -2   55.30    5.21
  -3   2   2   55.93    7.67
  -3   2   2   54.38    5.96
   3  -2  -2   54.31    6.80
   3  -2  -1 2141.15   44.97
  -3   2   1 1940.17   47.55
   3  -2  -1 2011.36   45.96
  -3   2   1 2107.15   49.28
  -3   2   1 2072.06   54.13
   3  -2  -1 1881.16   50.35
   3  -2  -1 2171.66   52.40
   3  -2   0   28.20    3.32
   3  -2   0   24.11    3.56
   3  -2   0   23.18    3.82
  -3   2   0   19.27    3.07
  -3   2   0   27.94    5.32
   3  -2   0   18.11    3.74
  -3   2   0   24.28    4.43
  -3   2  -1  241.22   10.80
  -3   2  -1  249.03   14.58
  -3   2  -1  224.73   13.81
   3  -2   1  244.96   14.84
   3  -2   1  254.27    9.70
   3  -2   1  229.44   10.26
   3  -2   1  237.65   13.82
   3  -2   1  253.32   15.91
   3  -2   2    1.15    0.65
  -3   2  -2    1.92    0.92
   3  -2   2    0.66    0.35
   3  -2   2    1.63    1.21
   3  -2   2   -1.11    1.46
  -3   2  -2    0.18    1.76
   3  -2   2    0.87    1.15
   3  -2   3 1339.11   42.32
   3  -2   3 1515.06   46.33
  -3   2  -3 1492.28   43.58
  -3   2  -3 1352.65   32.99
   3  -2   3 1495.62   26.54
   3  -2   4    4.95    2.55
  -3   2  -4    7.72    2.96
  -3   2  -4    6.87    1.89
   3  -2   5  974.24   38.54
  -3   2  -5 1028.82   37.10
  -3   2  -5  973.45   28.37
  -3   2  -6    4.19    1.74
   3  -2   6    7.98    3.41
  -3   2  -6    8.10    3.64
   3  -2   6   -0.03    1.97
  -3   2  -6    3.17    1.87
   3  -2   7  375.20   25.24
   3  -2   7  379.73   24.09
  -3   2  -7  363.89   25.04
  -3   2  -7  419.34   19.75
  -3   2  -7  382.96   23.25
  -3   2  -8   -1.06    2.25
  -3   2  -8    1.10    1.67
   3  -2   8    4.50    3.05
   3  -2   9  159.43   18.74
  -3   2  -9  131.79   13.26
  -3   2  -9  128.07   14.03
  -3   2 -10   -2.70    2.30
   3  -2  10   -3.40    3.89
  -3   2 -10   -1.10    2.05
   3  -2  11  106.96   17.96
  -3   2 -11  125.16   15.03
  -3   2 -11  145.10   16.18
   3  -2  12   -2.45    2.95
  -3   2 -12   -2.57    3.25
  -3   2 -12    0.88    1.38
  -3   2 -13    6.00    3.86
   3  -2  13    5.17    3.91
  -3   2 -13    9.33    4.43
  -3   2 -14   -0.12    1.44
  -3   2 -14    4.28    3.39
  -3   2 -15    5.47    3.72
   3  -1 -13    7.46    3.26
  -3   1  13    1.95    1.77
   3  -1 -12    0.31    0.98
  -3   1  12   -2.25    3.17
   3  -1 -11   17.29    4.65
  -3   1  11   11.74    4.39
   3  -1 -10    0.91    1.15
  -3   1  10    0.59    1.03
  -3   1  10    1.25    1.22
   3  -1  -9   67.69    8.67
  -3   1   9   64.29    5.59
  -3   1   9   66.91   10.03
  -3   1   9   66.61    6.73
  -3   1   8    6.96    4.59
   3  -1  -8    6.33    1.57
  -3   1   8    8.09    1.94
  -3   1   8    9.99    2.52
  -3   1   8   14.64    4.80
   3  -1  -7   28.89    5.81
   3  -1  -7   28.37    5.05
  -3   1   7   28.37    3.04
  -3   1   7   22.66    6.54
  -3   1   7   32.70    3.86
  -3   1   7   25.19    6.14
   3  -1  -6   15.63    4.67
  -3   1   6   19.88    2.79
   3  -1  -6   28.44    5.40
  -3   1   6   22.51    2.50
  -3   1   6   13.62    4.45
  -3   1   6   17.33    5.26
  -3   1   6   19.88    4.79
   3  -1  -5   83.88    8.37
  -3   1   5   66.17    8.05
  -3   1   5   73.58    9.96
  -3   1   5   71.17    4.95
   3  -1  -5   70.28    8.76
   3  -1  -4   24.92    4.33
  -3   1   4   23.39    5.44
  -3   1   4   21.23    2.82
  -3   1   4   19.86    4.26
   3  -1  -3  891.45   27.75
   3  -1  -3  849.33   19.85
  -3   1   3  812.33   31.76
  -3   1   3  812.94   28.62
  -3   1   3  822.22   21.82
   3  -1  -2    1.91    1.65
  -3   1   2    0.31    0.55
   3  -1  -2   -0.12    0.65
  -3   1   2    2.82    2.01
   3  -1  -2    0.45    0.35
  -3   1   2    2.26    1.66
  -3   1   2    0.69    0.76
   3  -1  -1   44.66    4.76
  -3   1   1   43.14    5.46
   3  -1  -1   44.17    4.12
  -3   1   1   42.69    6.29
  -3   1   1   39.11    4.36
   3  -1   0    5.59    1.86
   3  -1   0    8.32    2.09
  -3   1   0    7.50    2.05
  -3   1   0    7.73    2.62
  -3   1   0    6.59    1.84
   3  -1   0    6.86    1.92
   3  -1   1 1565.50   33.77
  -3   1  -1 1582.13   42.77
   3  -1   1 1574.41   43.54
   3  -1   1 1509.44   37.51
   3  -1   1 1567.61   42.44
  -3   1  -1 1600.92   40.00
  -3   1  -1 1569.60   36.91
   3  -1   1 1521.97   39.24
   3  -1   2   82.53    4.88
   3  -1   2   81.13    8.37
  -3   1  -2   81.13    7.82
   3  -1   2   89.54    8.79
  -3   1  -2   91.36    8.35
   3  -1   2   78.86    6.23
   3  -1   2   93.19    8.41
  -3   1  -2   86.32    6.86
   3  -1   3  755.23   16.22
   3  -1   3  692.74   27.97
   3  -1   3  763.22   28.56
  -3   1  -3  686.40   22.31
  -3   1  -3  754.34   27.32
  -3   1  -3  668.63   26.45
   3  -1   3  747.25   21.92
  -3   1  -4   20.81    3.59
  -3   1  -4   15.88    3.82
   3  -1   4   17.95    4.09
   3  -1   5 1274.20   42.03
  -3   1  -5 1273.82   41.07
  -3   1  -5 1279.29   35.74
  -3   1  -6    1.31    0.71
   3  -1   6   -1.30    2.08
  -3   1  -6    3.49    1.93
  -3   1  -6   -1.96    2.22
  -3   1  -7  136.36   14.36
  -3   1  -7  127.54   12.45
   3  -1   7  115.83   13.04
   3  -1   7  133.98   13.64
  -3   1  -7  141.36   11.75
  -3   1  -8    1.32    1.20
   3  -1   8    2.42    2.41
  -3   1  -8    2.52    2.85
  -3   1  -8    3.75    2.27
   3  -1   8   -0.24    1.47
   3  -1   9  147.85   17.47
  -3   1  -9  107.08   12.71
  -3   1  -9  112.21   13.09
  -3   1 -10   -1.26    2.34
   3  -1  10   -1.22    3.11
  -3   1 -10    1.04    1.90
  -3   1 -11  110.58   14.96
   3  -1  11  108.35   17.54
  -3   1 -11  123.42   14.84
  -3   1 -12    0.75    2.08
   3  -1  12    6.43    4.89
  -3   1 -12    0.38    1.55
  -3   1 -13   52.39   11.19
   3  -1  13   51.07   13.58
  -3   1 -13   43.48    9.50
  -3   1 -14    3.54    3.03
  -3   1 -14    4.52    3.17
  -3   1 -15    4.53    3.63
   3   0 -13    4.57    2.37
  -3   0  13    5.72    3.84
   3   0 -12   -1.90    1.99
  -3   0  12   -0.74    1.69
   3   0 -11   23.80    5.51
  -3   0  11   29.80    7.53
   3   0 -10    3.63    2.01
  -3   0  10   10.88    4.84
  -3   0   9    9.20    1.96
   3   0  -9   11.85    3.82
  -3   0   9    8.70    1.97
  -3   0   9    6.87    3.40
   3   0  -8    9.27    3.70
  -3   0   8    4.04    4.94
  -3   0   8    1.25    0.69
  -3   0   8    0.94    0.39
  -3   0   8    3.67    2.74
   3   0  -7  213.18   15.13
   3   0  -7  160.96   19.08
  -3   0   7  166.36    6.20
  -3   0   7  175.83    6.14
  -3   0   7  193.81   20.55
  -3   0   7  201.32   16.64
   3   0  -6    6.89    3.04
   3   0  -6    5.20    2.32
  -3   0   6    2.39    1.72
  -3   0   6   -0.32    2.82
  -3   0   6    7.21    3.05
   3   0  -5  379.15   19.04
  -3   0   5  370.04   23.11
  -3   0   5  368.48   22.92
   3   0  -5  331.00   20.47
  -3   0   5  343.67   20.43
   3   0  -4   23.90    4.56
  -3   0   4   18.26    4.94
  -3   0   4   20.32    4.43
   3   0  -3  203.18   12.74
  -3   0   3  180.14   14.05
  -3   0   3  175.97   12.65
   3   0  -2    0.71    0.79
  -3   0   2   -0.19    1.06
  -3   0   2    0.06    0.39
  -3   0   2   -1.46    1.56
   3   0  -1 1082.41   30.56
  -3   0   1 1038.52   32.42
  -3   0   1  994.04   33.67
   3   0  -1  983.82   23.35
  -3   0   1 1022.26   23.77
  -3   0   1 1027.04   31.48
   3   0   0  236.12   12.19
   3   0   0  207.25   12.73
  -3   0   0  201.80   13.32
  -3   0   0  226.60   13.08
  -3   0   0  223.33   10.09
   3   0   0  212.01    9.96
   3   0   1 2513.11   52.40
  -3   0  -1 2447.13   58.34
   3   0   1 2465.37   54.29
  -3   0  -1 2398.34   51.63
   3   0   1 2465.14   52.88
   3   0   1 2389.86   55.21
   3   0   2   36.78    4.02
   3   0   2   35.33    4.84
  -3   0  -2   28.60    4.26
  -3   0  -2   33.83    4.46
   3   0   2   30.23    4.24
  -3   0  -2   36.79    4.83
   3   0   2   31.34    4.42
  -3   0  -3  580.03   21.37
   3   0   3  613.30   23.19
  -3   0  -3  596.68   22.60
   3   0   3  595.58   22.98
   3   0   3  578.70   20.34
  -3   0  -3  636.41   22.88
   3   0   4   11.24    2.76
  -3   0  -4   11.40    2.79
   3   0   4   12.70    3.14
  -3   0  -4    9.08    2.86
  -3   0  -4    8.38    2.80
   3   0   5  175.05   13.21
  -3   0  -5  176.83   12.91
  -3   0  -5  183.54   12.43
   3   0   5  191.65    6.41
   3   0   6    2.33    0.75
   3   0   6    1.28    1.14
  -3   0  -6    2.07    1.06
  -3   0  -6    1.84    0.87
   3   0   7  176.52    7.56
   3   0   7  150.50   14.64
  -3   0  -7  178.07   15.55
  -3   0  -7  173.24   14.31
   3   0   7  201.34   16.07
  -3   0  -7  182.09   14.46
   3   0   8   -0.22    0.29
   3   0   8    0.97    1.90
  -3   0  -8    2.08    1.82
  -3   0  -8    0.61    1.04
  -3   0  -8   -1.66    2.02
   3   0   8   -1.78    2.21
   3   0   9  147.93    9.00
  -3   0  -9  198.90   16.96
   3   0   9  230.18   21.80
  -3   0  -9  181.50   17.62
   3   0  10    1.87    2.88
   3   0  10    0.49    0.39
  -3   0 -10   -1.59    2.77
  -3   0 -10    2.86    2.29
   3   0  11  124.70    9.92
   3   0  11  126.18   19.05
  -3   0 -11  123.49   14.57
  -3   0 -11  131.23   17.51
   3   0  12    3.06    5.08
  -3   0 -12   -1.41    2.29
  -3   0 -12   -0.13    2.77
   3   0  13   35.75    9.41
  -3   0 -13   33.17    8.10
  -3   0 -13   40.00   10.23
   3   0  14    1.83    2.32
  -3   0 -14   -1.51    2.31
  -3   0 -14    1.02    1.86
   3   0  15    9.33    5.59
  -3   0 -15   13.01    6.01
   3   1 -13    5.51    2.90
  -3  -1  13    1.88    2.13
   3   1 -12    4.61    2.56
  -3  -1  12   -1.57    3.04
   3   1 -11   19.68    4.87
  -3  -1  11   25.95   10.59
  -3  -1  11   19.70    6.45
   3   1 -10    6.01    3.18
  -3  -1  10    0.31    4.75
  -3  -1  10    5.17    4.44
   3   1  -9   66.34    9.03
  -3  -1   9   70.17   15.09
  -3  -1   9   52.87    5.32
  -3  -1   9   56.16   10.11
  -3  -1   8    0.19    0.52
   3   1  -8    0.82    1.45
  -3  -1   8    0.50    0.49
  -3  -1   8    2.28    2.58
  -3  -1   7   61.00    4.23
  -3  -1   7   53.52    3.66
  -3  -1   7   49.55   10.18
   3   1  -7   58.09    7.80
   3   1  -7   62.16   11.21
  -3  -1   7   67.63   10.09
  -3  -1   6   -1.19    1.28
  -3  -1   6    4.10    3.26
   3   1  -6    1.56    2.61
  -3  -1   6   -1.51    1.95
   3   1  -5  211.19   14.73
  -3  -1   5  202.60   17.17
   3   1  -5  195.84   17.80
  -3  -1   5  204.29   17.46
  -3  -1   5  209.36   16.44
   3   1  -5  222.03   16.59
   3   1  -4    4.38    1.94
   3   1  -4    3.81    1.03
  -3  -1   4    7.63    3.15
  -3  -1   4    5.86    3.38
   3   1  -3 1103.40   35.14
  -3  -1   3 1042.54   36.86
  -3  -1   3 1055.24   36.94
   3   1  -2  106.60    9.57
  -3  -1   2  109.20   10.40
  -3  -1   2   95.15    9.39
   3   1  -1  363.06   17.38
   3   1  -1  355.65   11.05
   3   1  -1  352.51   10.40
  -3  -1   1  353.46   18.27
  -3  -1   1  346.42   17.21
   3   1   0   30.26    4.53
   3   1   0   37.13    4.19
  -3  -1   0   33.39    5.29
   3   1   0   32.62    3.40
  -3  -1   0   37.65    3.81
  -3  -1  -1   22.38    4.25
   3   1   1   22.16    3.19
  -3  -1  -1   19.66    4.09
   3   1   1   19.25    3.07
  -3  -1  -1   23.80    3.43
   3   1   1   21.79    3.15
  -3  -1  -1   21.33    3.92
   3   1   1   20.34    3.81
  -3  -1  -2   36.15    4.56
  -3  -1  -2   33.90    5.05
   3   1   2   29.56    4.51
   3   1   2   33.47    4.43
   3   1   2   35.50    4.15
   3   1   2   27.42    4.30
   3   1   3  932.78   26.83
  -3  -1  -3  926.60   27.49
   3   1   3  980.53   29.61
  -3  -1  -3  964.57   29.10
   3   1   3  951.18   29.39
   3   1   3  892.78   28.16
  -3  -1  -3  967.58   30.57
  -3  -1  -4    2.57    1.47
   3   1   4    4.65    1.86
  -3  -1  -4    7.18    2.46
   3   1   4    3.70    1.58
  -3  -1  -4    7.14    2.60
   3   1   5 1746.86   48.43
  -3  -1  -5 1785.13   48.57
  -3  -1  -5 1755.65   48.74
  -3  -1  -5 1905.75   50.69
   3   1   5 1965.51   46.70
   3   1   6   56.62    8.09
  -3  -1  -6   62.29    8.51
  -3  -1  -6   65.42    8.65
   3   1   6   67.41    4.64
   3   1   7  456.23   26.24
  -3  -1  -7  433.37   23.97
  -3  -1  -7  483.27   24.18
  -3  -1  -7  490.21   25.23
   3   1   7  405.72   13.38
   3   1   8    0.35    0.62
   3   1   8   -0.81    1.88
  -3  -1  -8    1.79    1.69
  -3  -1  -8   -3.15    2.61
  -3  -1  -8    1.60    1.21
   3   1   8    1.05    2.09
   3   1   9   50.21    5.33
  -3  -1  -9   69.64   10.55
  -3  -1  -9   80.72   10.43
  -3  -1  -9   58.57   10.65
   3   1  10    6.94    4.70
  -3  -1 -10    3.39    2.59
   3   1  10    6.83    2.08
  -3  -1 -10    8.45    3.81
   3   1  10    3.26    2.83
   3   1  11   26.64    4.62
  -3  -1 -11   38.00    9.68
   3   1  11   35.18    8.03
   3   1  11   32.06    9.92
  -3  -1 -11   31.60    7.53
   3   1  12   -2.59    3.50
  -3  -1 -12    0.59    2.53
  -3  -1 -12    7.65    4.89
   3   1  13   31.39    8.72
  -3  -1 -13   21.99    8.11
   3   1  14   -1.25    3.02
  -3  -1 -14    6.23    4.61
  -3  -1 -15   10.08    6.37
   3   1  15   19.40    7.17
   3   2 -12    0.01    1.22
  -3  -2  12    3.19    3.01
  -3  -2  12    2.71    2.91
  -3  -2  11   10.93    5.17
   3   2 -11   12.72    4.10
  -3  -2  11   14.03    7.91
  -3  -2  10    3.83    3.11
   3   2 -10    6.76    3.07
  -3  -2  10    9.84    7.20
  -3  -2   9   35.80    8.78
   3   2  -9   37.52    6.84
  -3  -2   9   21.46    4.02
  -3  -2   9   22.72    9.00
  -3  -2   8   10.21    5.48
   3   2  -8    6.88    2.71
  -3  -2   8    7.16    1.98
  -3  -2   8    6.50    2.08
  -3  -2   8    2.09    1.81
   3   2  -7  180.95   14.75
  -3  -2   7  191.38   10.10
  -3  -2   7  170.16    8.58
   3   2  -7  145.23   16.20
  -3  -2   7  131.11   17.32
  -3  -2   7  183.69   17.76
  -3  -2   6    3.62    2.33
   3   2  -6    4.25    1.74
   3   2  -6    3.45    2.42
  -3  -2   6    3.63    1.23
  -3  -2   6    4.74    2.61
   3   2  -5  550.59   25.73
  -3  -2   5  517.79   14.01
   3   2  -5  489.79   27.30
  -3  -2   5  525.67   28.42
  -3  -2   5  536.95   28.27
  -3  -2   4   13.05    4.46
   3   2  -4   17.75    4.50
  -3  -2   4   17.08    4.92
   3   2  -4   12.02    3.52
   3   2  -4   14.73    4.36
  -3  -2   4   15.87    1.87
   3   2  -3  154.63   12.46
  -3  -2   3  138.95   12.56
  -3  -2   3  139.54    6.15
   3   2  -3  143.94   12.38
  -3  -2   3  161.39   13.82
  -3  -2   2    5.69    1.35
   3   2  -2    5.36    2.31
   3   2  -2    5.37    1.20
  -3  -2   2    1.86    1.47
   3   2  -2    7.55    1.05
  -3  -2   2    8.00    3.36
  -3  -2   1    7.80    1.67
   3   2  -1    6.24    1.89
  -3  -2   1    8.51    3.00
   3   2  -1    8.41    2.93
   3   2  -1    5.16    1.32
   3   2  -1    9.29    1.59
  -3  -2   1    7.09    2.72
   3   2   0   72.48    6.20
  -3  -2   0   69.15    7.63
   3   2   0   75.20    7.91
  -3  -2   0   61.19    5.33
   3   2   0   66.05    5.17
  -3  -2   0   76.93    8.06
   3   2   1  534.85   19.90
  -3  -2  -1  603.63   23.65
   3   2   1  535.65   22.19
   3   2   1  571.40   14.95
  -3  -2  -1  557.73   23.49
   3   2   1  586.50   19.17
  -3  -2  -1  536.49   21.10
   3   2   1  548.56   22.36
   3   2   2  151.29    6.92
   3   2   2  168.61   11.84
   3   2   2  172.48   11.27
  -3  -2  -2  160.49   11.94
   3   2   2  174.22   10.59
  -3  -2  -2  165.16   10.56
   3   2   2  152.70   10.64
  -3  -2  -3 1962.55   51.37
   3   2   3 1899.08   49.72
  -3  -2  -3 2011.18   42.53
   3   2   3 2010.63   49.12
   3   2   3 1963.07   47.45
   3   2   3 1973.34   42.80
  -3  -2  -4   26.08    3.93
   3   2   4   33.35    5.76
   3   2   4   27.59    4.28
   3   2   4   29.97    4.52
  -3  -2  -4   28.84    5.20
   3   2   4   25.25    4.82
  -3  -2  -4   30.29    5.39
   3   2   5  517.40   23.73
  -3  -2  -5  535.57   21.47
   3   2   5  589.88   25.04
  -3  -2  -5  549.14   23.69
   3   2   5  552.73   21.06
  -3  -2  -5  605.88   26.95
   3   2   6    5.49    1.36
   3   2   6    7.45    3.09
  -3  -2  -6   10.12    3.85
   3   2   6    5.22    3.03
  -3  -2  -6    5.73    2.64
  -3  -2  -6    5.53    2.33
   3   2   7  499.85   29.02
   3   2   7  458.63   24.92
  -3  -2  -7  490.08   24.75
   3   2   7  516.48   17.07
   3   2   8    3.58    1.55
   3   2   8    0.65    3.39
  -3  -2  -8    2.02    2.78
   3   2   8    2.99    2.15
  -3  -2  -8    0.11    0.71
  -3  -2  -8    8.31    3.95
   3   2   8    2.48    1.43
   3   2   9   81.79   11.51
  -3  -2  -9   82.32   10.72
  -3  -2  -9   68.63   10.05
  -3  -2  -9   57.24   10.41
   3   2   9   54.59    5.57
   3   2  10    0.70    0.77
   3   2  10   -1.32    2.47
  -3  -2 -10    1.34    2.52
   3   2  11   58.06    6.98
   3   2  11   74.74   12.34
  -3  -2 -11   86.17   15.37
  -3  -2 -12   -0.46    3.39
   3   2  12    3.54    3.89
  -3  -2 -13   44.08   11.77
   3   2  13   51.15   11.59
  -3  -2 -14    1.67    2.51
   3   2  14   -1.01    2.79
  -3  -2 -15    3.55    3.55
   3   2  15    8.02    5.52
  -3  -3  12    2.33    2.87
   3   3 -12    1.88    2.16
  -3  -3  11   13.69    5.80
  -3  -3  11   16.94    8.95
   3   3 -11   13.73    4.71
  -3  -3  10    5.93    3.72
   3   3 -10    2.41    2.01
  -3  -3  10   -1.17    3.59
  -3  -3   9   45.66    9.93
   3   3  -9   32.42    6.68
  -3  -3   8   11.10    4.59
   3   3  -8   12.49    3.72
  -3  -3   8    8.38    3.12
  -3  -3   8    7.14    4.16
  -3  -3   7   42.57    9.05
  -3  -3   7   35.68    5.40
   3   3  -7   34.34    6.75
   3   3  -7   27.86    6.73
  -3  -3   7   22.78    6.73
  -3  -3   6    0.04    1.27
   3   3  -6    3.04    2.51
   3   3  -6    0.57    0.92
  -3  -3   6    1.92    2.46
  -3  -3   6    1.93    1.31
   3   3  -6    0.19    0.42
   3   3  -5   92.13   10.81
  -3  -3   5   81.12    6.69
  -3  -3   5   76.13   10.59
   3   3  -5   77.75    9.76
   3   3  -5   77.05    4.22
  -3  -3   5   89.59   11.74
  -3  -3   4   12.71    4.65
   3   3  -4   12.65    3.62
   3   3  -4   11.30    3.48
  -3  -3   4    8.09    3.35
  -3  -3   4   10.26    2.25
   3   3  -4   10.21    1.63
   3   3  -3  733.03   31.13
   3   3  -3  636.96   25.37
  -3  -3   3  634.29   20.70
  -3  -3   3  664.05   28.87
  -3  -3   3  700.76   31.41
   3   3  -3  708.03   18.17
   3   3  -2   39.15    4.31
  -3  -3   2   40.19    4.79
   3   3  -2   42.39    6.74
  -3  -3   2   43.83    6.71
  -3  -3   2   50.90    8.12
   3   3  -2   46.29    5.49
  -3  -3   1  621.21   26.99
   3   3  -1  612.95   19.81
  -3  -3   1  572.99   20.48
  -3  -3   1  585.56   24.48
   3   3  -1  584.62   18.65
   3   3  -1  600.83   24.24
   3   3   0   76.14    6.80
  -3  -3   0   70.84    7.76
  -3  -3   0   66.65    6.74
   3   3   0   58.95    7.04
   3   3   0   71.07    4.08
   3   3   0   74.82    8.58
  -3  -3   0   64.09    7.98
   3   3   1  580.73   24.11
   3   3   1  588.41   22.47
  -3  -3  -1  641.25   24.91
  -3  -3  -1  613.23   23.21
   3   3   1  615.41   24.17
  -3  -3  -1  614.59   25.99
   3   3   1  627.33   21.67
  -3  -3  -1  647.65   24.62
   3   3   2    0.14    1.02
   3   3   2    1.21    0.59
  -3  -3  -2    1.14    0.87
  -3  -3  -2    1.97    1.07
   3   3   2    0.90    0.62
   3   3   2    2.20    1.49
  -3  -3  -2    1.92    1.42
   3   3   3  109.75   10.22
   3   3   3  118.27   10.40
  -3  -3  -3  126.83    6.08
  -3  -3  -3  140.32   12.06
   3   3   3  113.33    9.80
  -3  -3  -3  124.41    9.05
   3   3   3  109.48    8.83
  -3  -3  -3  102.88    9.44
   3   3   4    1.64    1.16
   3   3   4   -2.16    2.85
   3   3   4    0.63    1.28
  -3  -3  -4    0.67    0.83
  -3  -3  -4    2.76    2.01
  -3  -3  -5 1257.59   34.58
   3   3   5 1227.16   42.52
   3   3   5 1298.03   34.70
   3   3   6   16.38    2.97
  -3  -3  -6   17.95    4.06
   3   3   6   22.29    6.04
  -3  -3  -6   23.33    5.80
   3   3   6   19.08    3.46
   3   3   7  173.53   15.67
   3   3   7  198.73   11.67
  -3  -3  -7  203.25   17.94
   3   3   7  182.17   10.61
   3   3   8   16.57    3.27
   3   3   8   21.44    5.65
   3   3   8   15.86    4.83
  -3  -3  -8   15.55    4.57
  -3  -3  -8   24.01    6.69
  -3  -3  -9  157.12   15.23
  -3  -3  -9  181.24   19.75
   3   3   9  160.29   10.51
   3   3  10    1.57    1.41
   3   3  10    2.37    2.01
  -3  -3 -10   -1.48    2.51
   3   3  11  142.59   11.18
  -3  -3 -11  173.66   22.70
   3   3  12    2.95    4.27
  -3  -3 -12   -2.48    2.96
   3   3  13   24.73    8.20
  -3  -3 -13   19.33    8.27
   3   3  14   -2.76    3.54
  -3  -3 -14    0.64    3.46
   3   3  15   16.40    7.59
   3   4 -11    2.65    3.10
  -3  -4  11    4.44    4.30
  -3  -4  10    1.05    1.69
   3   4 -10   -2.08    2.21
  -3  -4  10   -2.61    3.26
  -3  -4   9   13.19    5.51
   3   4  -9   16.30    5.04
  -3  -4   9    2.72    3.39
   3   4  -8    8.82    3.80
  -3  -4   8    8.41    5.29
  -3  -4   8   -0.08    2.86
   3   4  -7   72.28   10.42
  -3  -4   7   76.25   12.84
  -3  -4   7   71.50    8.97
  -3  -4   7   51.97   10.12
   3   4  -7   62.73    5.31
  -3  -4   6    2.36    2.93
   3   4  -6   -0.41    1.72
  -3  -4   6    3.25    1.82
   3   4  -6    3.62    2.27
  -3  -4   6   -0.89    1.30
   3   4  -6    1.68    1.16
   3   4  -5  172.64   15.87
  -3  -4   5  157.89   11.74
  -3  -4   5  154.06   15.36
   3   4  -5  144.40   13.25
   3   4  -5  152.42    8.87
  -3  -4   5  158.24   16.81
  -3  -4   4   18.78    5.77
   3   4  -4   13.71    3.71
   3   4  -4   18.91    4.89
  -3  -4   4   12.83    4.14
  -3  -4   4   18.26    3.79
   3   4  -4   15.67    3.05
   3   4  -3  140.52   13.75
   3   4  -3  133.80   14.31
  -3  -4   3  111.54    9.15
  -3  -4   3  131.79   12.35
   3   4  -3  120.19   10.02
   3   4  -3  121.69    8.37
  -3  -4   3  119.64   13.38
   3   4  -2   90.51    7.92
  -3  -4   2   83.52    8.03
  -3  -4   2   81.69    9.10
   3   4  -2   89.12    7.67
   3   4  -2   87.87   11.07
  -3  -4   2   86.24   10.72
   3   4  -1 1002.29   38.20
   3   4  -1  944.58   29.83
  -3  -4   1  905.54   31.09
  -3  -4   1  899.62   31.58
   3   4  -1  976.84   24.98
  -3  -4   1  947.11   36.03
   3   4  -1  916.16   31.23
   3   4  -1  934.19   34.85
  -3  -4   0    9.45    3.43
   3   4   0    3.27    3.02
   3   4   0    4.49    2.18
  -3  -4   0    1.18    1.16
   3   4   0    6.19    2.94
   3   4   0    7.67    2.40
  -3  -4  -1   -0.02    1.27
   3   4   1    1.87    1.83
  -3  -4  -1    2.03    1.73
   3   4   1    1.65    1.04
  -3  -4  -1    2.79    1.80
   3   4   1    1.86    1.62
  -3  -4  -1    0.92    1.89
   3   4   2   29.30    5.05
  -3  -4  -2   20.83    4.84
   3   4   2   29.84    4.98
   3   4   2   22.54    4.53
  -3  -4  -2   20.77    4.22
   3   4   3  555.16   25.86
   3   4   3  537.70   23.03
  -3  -4  -3  575.28   27.35
  -3  -4  -3  541.17   20.75
   3   4   3  512.24   21.35
   3   4   4   22.29    5.25
   3   4   4   19.94    3.67
   3   4   4   22.66    4.65
  -3  -4  -4   20.42    4.65
  -3  -4  -4   20.27    2.80
  -3  -4  -4   25.59    4.16
   3   4   4   23.27    4.89
  -3  -4  -4   22.48    5.38
   3   4   5   48.04    7.92
   3   4   5   52.08    5.52
  -3  -4  -5   52.64    7.85
  -3  -4  -5   52.49    5.59
   3   4   5   42.68    6.90
  -3  -4  -5   63.20    9.36
   3   4   6    3.44    2.95
  -3  -4  -6    0.13    2.45
  -3  -4  -6    1.96    0.99
   3   4   6    1.25    1.09
   3   4   6    1.93    1.15
   3   4   7  316.55   21.87
   3   4   7  333.64   21.72
   3   4   7  295.08   12.96
  -3  -4  -7  367.31   25.89
   3   4   7  308.36   15.21
  -3  -4  -7  267.45   17.01
   3   4   8   16.11    3.34
   3   4   8   22.89    6.14
  -3  -4  -8   24.60    7.21
  -3  -4  -8   18.29    4.69
   3   4   8   14.32    2.58
  -3  -4  -9  221.40   17.93
   3   4   9  245.59   11.84
  -3  -4  -9  204.15   21.72
   3   4   9  196.40   12.57
  -3  -4 -10   20.55    7.31
   3   4  10   21.09    4.24
   3   4  10   20.57    6.63
  -3  -4 -10   12.55    4.56
   3   4  10   14.53    2.92
  -3  -4 -11    4.17    2.20
   3   4  11    8.10    2.20
   3   4  12    5.64    3.76
  -3  -4 -12    7.82    5.72
   3   4  13   51.61   11.53
  -3  -4 -13   32.72   10.53
   3   4  14    3.24    3.10
  -3  -4 -14   -1.55    1.91
   3   4  15    6.07    4.19
   3   5 -11    1.07    0.92
  -3  -5  11    0.59    1.89
  -3  -5  10   -2.24    2.82
   3   5 -10   -3.75    2.60
  -3  -5  10   -1.28    2.44
  -3  -5   9   27.39    8.58
   3   5  -9   23.63    6.26
  -3  -5   9   17.33    6.69
  -3  -5   8    0.70    1.92
   3   5  -8   -1.24    2.97
  -3  -5   8   -2.46    3.36
  -3  -5   7   16.07    6.55
   3   5  -7   28.38    6.87
  -3  -5   7   35.20    8.37
   3   5  -7   23.93    3.99
  -3  -5   6    5.87    3.98
   3   5  -6    0.43    1.35
  -3  -5   6    2.74    1.98
   3   5  -6    3.02    2.08
   3   5  -6    3.91    2.06
   3   5  -5   94.89   12.57
  -3  -5   5   81.63   12.97
  -3  -5   5   84.68   11.11
   3   5  -5   81.85   10.35
   3   5  -5   75.81    7.69
  -3  -5   4    5.80    4.21
   3   5  -4    3.53    2.28
   3   5  -4   -3.37    3.94
  -3  -5   4    1.82    2.03
   3   5  -4    0.74    0.85
   3   5  -3  175.60   11.86
  -3  -5   3  155.07   13.30
   3   5  -3  175.84   13.06
   3   5  -3  188.52   17.59
  -3  -5   3  167.19   16.79
  -3  -5   2   18.62    5.83
   3   5  -2   24.89    4.94
  -3  -5   2   23.68    4.82
   3   5  -2   21.10    5.30
   3   5  -2   22.04    3.96
   3   5  -1  139.67   11.58
  -3  -5   1  137.26   10.99
   3   5  -1  138.73   13.63
  -3  -5   1  144.89   13.77
   3   5  -1  148.72    8.42
  -3  -5   0   11.42    4.04
  -3  -5   0    7.18    2.26
   3   5   0    4.53    2.57
   3   5   0    8.58    2.86
   3   5   0    5.04    1.86
   3   5   1  704.70   28.32
   3   5   1  682.96   26.15
  -3  -5  -1  627.23   29.64
   3   5   1  663.22   29.82
  -3  -5  -1  647.05   27.93
   3   5   2   -0.64    1.63
  -3  -5  -2   -1.09    1.57
   3   5   2    2.62    1.34
  -3  -5  -2   -1.82    2.44
   3   5   2    1.25    1.05
   3   5   2    1.25    1.69
  -3  -5  -2   -1.06    1.69
   3   5   3   77.30    9.18
   3   5   3   84.62    8.69
  -3  -5  -3   93.17   11.26
  -3  -5  -3   81.27   10.48
  -3  -5  -3   77.03    7.92
   3   5   3   81.91    8.07
   3   5   3   85.51    9.60
  -3  -5  -4   47.74    8.24
   3   5   4   64.95    9.20
   3   5   4   49.06    6.86
  -3  -5  -4   60.34    9.12
  -3  -5  -4   42.29    3.94
  -3  -5  -4   49.60    5.66
   3   5   4   49.84    6.09
   3   5   4   47.70    7.03
   3   5   5  232.26   18.69
  -3  -5  -5  234.76   18.37
  -3  -5  -5  189.15   11.15
  -3  -5  -5  246.57   20.20
  -3  -5  -5  248.53   12.30
   3   5   5  213.74   11.98
   3   5   5  224.37   15.33
  -3  -5  -6   15.41    5.13
   3   5   6   11.77    2.66
  -3  -5  -6   13.04    4.50
   3   5   6   13.25    3.68
  -3  -5  -6   10.54    3.07
   3   5   6   15.67    4.73
   3   5   6   14.84    5.16
   3   5   7  452.49   28.30
  -3  -5  -7  373.64   20.66
  -3  -5  -7  485.06   31.42
   3   5   7  407.07   24.92
   3   5   7  414.56   15.04
   3   5   7  416.83   19.30
   3   5   8   10.89    4.83
   3   5   8    6.90    1.72
   3   5   8    8.15    2.36
  -3  -5  -8    3.82    2.57
   3   5   9   12.58    1.98
   3   5   9   13.38    4.83
   3   5   9   14.08    3.60
  -3  -5  -9   10.26    5.62
  -3  -5  -9   16.65    4.92
   3   5  10    1.68    0.74
   3   5  10    0.79    2.18
  -3  -5 -10    1.36    1.38
  -3  -5 -10   -0.28    3.23
   3   5  11   58.39   11.83
  -3  -5 -11   41.56   11.43
  -3  -5 -12    1.63    2.97
   3   5  12   10.24    5.61
   3   5  13   32.96    9.82
  -3  -5 -13   22.19    8.57
   3   5  14    2.18    2.41
  -3  -5 -14    0.63    3.03
   3   6 -10    0.52    1.83
  -3  -6  10    5.60    4.27
   3   6  -9    2.36    2.35
  -3  -6   9   -1.52    1.84
  -3  -6   8   13.98    7.59
   3   6  -8    9.37    4.63
  -3  -6   8    0.30    1.43
  -3  -6   7   56.76   13.16
   3   6  -7   61.25   11.13
  -3  -6   7   40.94    8.51
  -3  -6   6    6.29    5.84
   3   6  -6    0.12    1.29
  -3  -6   6    7.03    3.63
   3   6  -6    0.65    1.39
  -3  -6   5   61.72   12.66
  -3  -6   5   64.46   10.09
   3   6  -5   69.57   11.44
  -3  -6   5   48.00    8.28
   3   6  -5   42.73    7.95
   3   6  -5   61.93    8.07
  -3  -6   4    1.79    3.94
   3   6  -4   -0.57    0.87
   3   6  -4    1.12    2.20
  -3  -6   4    0.78    1.40
  -3  -6   4    0.17    1.20
   3   6  -4    1.40    1.74
  -3  -6   3   68.55   11.88
  -3  -6   3   72.74    9.55
  -3  -6   3   66.40    8.49
   3   6  -3   72.10    8.65
   3   6  -3   72.68    8.56
  -3  -6   2    1.67    3.40
   3   6  -2    0.37    1.29
   3   6  -2    1.68    2.44
  -3  -6   2    3.33    2.06
   3   6  -2    1.04    1.21
  -3  -6   2    3.15    2.22
   3   6  -1  122.48   12.03
  -3  -6   1  111.42   11.76
  -3  -6   1  106.03    9.57
   3   6  -1  105.50    7.42
   3   6  -1  108.87   12.40
  -3  -6   1  101.10   12.51
   3   6   0    0.94    1.33
   3   6   0   -1.77    1.77
   3   6   0    0.33    0.81
  -3  -6   0    3.06    1.46
  -3  -6   0    0.73    0.93
   3   6   1  467.09   24.76
  -3  -6  -1  441.75   25.21
   3   6   1  428.12   19.81
   3   6   1  447.89   24.72
  -3  -6  -1  429.79   23.42
  -3  -6  -2    7.26    3.07
  -3  -6  -2   12.41    4.02
   3   6   2   10.59    3.45
   3   6   2   10.70    3.69
   3   6   2    8.15    2.53
  -3  -6  -2    7.83    3.23
   3   6   3  113.84   12.32
  -3  -6  -3  109.85   12.66
   3   6   3  104.49    9.86
  -3  -6  -3  123.61   13.86
  -3  -6  -3  108.90   10.13
   3   6   3  111.61   11.51
   3   6   4   16.56    4.52
  -3  -6  -4   25.85    6.55
  -3  -6  -4   12.43    4.66
  -3  -6  -4   17.52    2.57
   3   6   4   17.72    4.09
  -3  -6  -4   17.20    2.84
   3   6   4   23.64    6.10
  -3  -6  -4   19.53    4.07
  -3  -6  -5  434.17   28.13
   3   6   5  413.77   22.34
   3   6   5  405.60   25.50
   3   6   5  347.30   19.97
  -3  -6  -5  411.05   27.11
  -3  -6  -5  364.30   16.90
  -3  -6  -5  422.84   16.93
  -3  -6  -6   -0.01    1.02
  -3  -6  -6    1.13    1.58
   3   6   6    2.82    4.18
  -3  -6  -7   25.74    7.53
  -3  -6  -7   16.98    4.56
   3   6   7   23.87    6.84
  -3  -6  -8   -4.05    3.14
   3   6   8   -0.77    3.17
  -3  -6  -9  176.21   16.29
  -3  -6  -9  156.25   20.01
  -3  -6 -10    9.35    4.03
  -3  -6 -10   15.70    6.57
   3   6  10   23.89    7.88
  -3  -6 -11   14.18    6.57
   3   6  11   17.52    6.50
  -3  -6 -12   -3.22    3.50
   3   6  12    2.85    3.97
  -3  -6 -13    3.81    2.66
   3   6  13    7.96    4.24
   3   6  14   -5.25    3.64
   3   7  -9   11.90    5.26
   3   7  -8   -1.06    1.72
  -3  -7   7    3.54    1.92
   3   7  -7   -1.18    2.37
  -3  -7   7    3.47    3.01
   3   7  -6   -3.42    3.11
  -3  -7   6   -0.10    1.74
   3   7  -6    0.71    1.50
   3   7  -5   89.55   14.10
  -3  -7   5   68.28    9.59
   3   7  -5   86.66   10.52
  -3  -7   4   -2.85    4.24
   3   7  -4    0.75    1.69
  -3  -7   4    1.48    0.90
  -3  -7   4    1.09    1.49
   3   7  -4    0.74    1.04
  -3  -7   3   67.97   13.15
  -3  -7   3   46.80    6.88
   3   7  -3   49.39    7.28
   3   7  -3   55.55    8.22
  -3  -7   3   48.44    8.78
  -3  -7   2   10.59    3.11
  -3  -7   2    6.63    3.78
   3   7  -2    4.54    2.10
   3   7  -2    5.90    2.04
  -3  -7   2    6.98    3.32
  -3  -7   2    0.80    1.58
   3   7  -1  125.63   13.45
  -3  -7   1  109.06   12.95
  -3  -7   1  117.34    9.67
  -3  -7   1  116.18   10.58
  -3  -7   1  131.53   15.74
  -3  -7   0    6.75    3.38
   3   7   0    7.90    3.65
  -3  -7   0    3.41    1.37
   3   7   0    7.01    3.19
  -3  -7   0    8.18    2.95
  -3  -7  -1   51.14    8.21
   3   7   1   55.00    6.23
  -3  -7  -1   49.98    4.64
   3   7   1   44.97    8.19
   3   7   1   57.74    8.94
  -3  -7  -1   49.76    8.98
  -3  -7  -2    0.75    1.61
  -3  -7  -2   -0.66    2.63
  -3  -7  -2    0.03    1.59
   3   7   2    0.58    1.44
   3   7   2    0.27    0.88
   3   7   2    1.61    1.73
  -3  -7  -2    1.11    0.66
   3   7   3  215.63   18.21
   3   7   3  214.88   14.46
  -3  -7  -3  211.70    8.74
  -3  -7  -3  209.38   19.42
  -3  -7  -3  210.31   15.16
   3   7   3  225.56   17.14
   3   7   4    6.70    2.60
   3   7   4    5.87    2.84
  -3  -7  -4    4.63    3.46
  -3  -7  -4    7.46    2.08
   3   7   4    8.59    3.64
  -3  -7  -4    7.90    2.77
   3   7   5    5.25    2.41
  -3  -7  -5    9.38    2.76
  -3  -7  -5    6.12    3.51
  -3  -7  -5    5.85    2.18
  -3  -7  -6   10.68    3.06
  -3  -7  -6   14.04    5.38
  -3  -7  -6   18.18    3.22
   3   7   6   21.53    6.36
   3   7   7  386.04   27.61
  -3  -7  -7  311.74   20.05
  -3  -7  -7  392.25   30.63
  -3  -7  -8    0.75    1.63
  -3  -7  -8   -0.36    0.87
   3   7   8   -1.11    2.76
  -3  -7  -9   54.83   12.27
  -3  -7  -9   75.32   11.10
  -3  -7 -10    0.69    1.99
  -3  -7 -10    2.28    3.08
   3   7  10    1.44    1.97
  -3  -7 -11    7.32    4.63
   3   7  11   10.11    4.99
  -3  -7 -12   -1.31    2.78
   3   7  12   -1.34    3.00
  -3  -7 -13    2.80    1.45
   3   7  13   16.89    6.79
   3   8  -8   -1.97    2.31
   3   8  -7   11.70    5.74
  -3  -8   6   14.99    8.48
   3   8  -6    3.10    1.64
  -3  -8   5    6.84    5.93
   3   8  -5    4.54    2.09
   3   8  -5    6.23    3.11
  -3  -8   4   -1.34    4.92
  -3  -8   4    4.22    2.47
   3   8  -4    0.55    1.46
  -3  -8   3   60.73   13.87
  -3  -8   3   52.26    6.81
   3   8  -3   61.25    9.67
  -3  -8   2    4.93    2.00
  -3  -8   2   -1.62    2.62
  -3  -8   2    9.88    4.05
   3   8  -2    7.09    3.42
  -3  -8   1   40.16    9.73
   3   8  -1   27.70    7.19
  -3  -8   1   23.20    5.45
  -3  -8   0   16.70    5.99
   3   8   0    9.63    4.45
  -3  -8   0    1.44    1.51
   3   8   1  101.20   13.34
  -3  -8  -1   71.72    6.46
  -3  -8  -1   94.29   12.04
  -3  -8  -2    1.92    3.00
  -3  -8  -2    1.28    0.79
   3   8   2    0.77    1.43
   3   8   2    2.11    1.27
  -3  -8  -2   -0.65    1.62
  -3  -8  -3   27.48    7.23
  -3  -8  -3   21.33    3.20
   3   8   3   23.46    4.44
   3   8   3   17.71    5.31
  -3  -8  -3   21.69    5.20
   3   8   4    7.87    3.01
  -3  -8  -4   10.63    4.67
  -3  -8  -4   12.13    2.90
   3   8   4    4.24    3.65
  -3  -8  -4    8.77    3.35
   3   8   5   83.23   12.51
   3   8   5   69.09    8.75
  -3  -8  -5   69.17    7.36
  -3  -8  -5   77.66   12.77
  -3  -8  -5   69.25    7.45
   3   8   6   -0.84    1.02
  -3  -8  -6    0.43    0.76
  -3  -8  -6    1.32    2.49
   3   8   6    0.38    1.46
  -3  -8  -6   -0.61    0.54
  -3  -8  -7   56.17   12.12
   3   8   7   62.68   11.32
   3   8   8    5.22    5.06
  -3  -8  -8    0.63    1.39
  -3  -8  -8    1.60    2.02
  -3  -8  -9   41.94   10.79
   3   8   9   60.17   11.63
  -3  -8 -10   -1.68    3.18
   3   8  10    5.18    4.25
  -3  -8 -11    7.63    5.19
   3   8  11    6.29    4.45
  -3  -8 -12   -0.18    3.64
   3   8  12    0.08    3.68
   3   9  -6    1.34    1.73
  -3  -9   5   -3.44    4.61
   3   9  -5   10.78    5.32
  -3  -9   4   -1.16    4.33
   3   9  -4    1.52    1.77
  -3  -9   3   28.12   10.82
   3   9  -3   18.88    5.79
  -3  -9   2   18.74    8.58
   3   9  -2    2.86    2.33
  -3  -9   1   28.30    9.13
   3   9  -1   25.97    7.31
  -3  -9   0   14.19    5.58
  -3  -9   0    6.79    2.83
   3   9   0   12.61    4.83
  -3  -9  -1   53.42    9.85
   3   9   1   50.08   10.08
  -3  -9  -1   41.82    5.67
  -3  -9  -2   13.96    4.55
  -3  -9  -2   15.41    3.00
   3   9   2   13.02    5.61
  -3  -9  -3   49.64   10.17
  -3  -9  -3   48.89    5.40
   3   9   3   60.76   10.94
  -3  -9  -3   39.84    7.28
  -3  -9  -4   -1.78    1.99
   3   9   4   -0.02    2.42
  -3  -9  -4   -0.38    1.13
  -3  -9  -4    1.59    1.67
   3   9   5   11.47    5.29
  -3  -9  -5   14.60    5.96
  -3  -9  -5   11.79    3.43
  -3  -9  -5   11.47    3.26
  -3  -9  -6   -0.35    2.21
  -3  -9  -6    0.57    0.91
   3   9   6    3.60    3.17
  -3  -9  -6    1.62    1.34
   3   9   7   16.22    6.17
  -3  -9  -7   11.10    5.28
  -3  -9  -8    4.28    3.67
   3   9   8    2.72    3.03
   3   9   9   30.42    8.65
  -3  -9  -9   30.15    9.39
   3   9  10    0.37    1.94
  -3  -9 -10    2.46    3.01
  -3  -9 -11    4.65    3.86
   3   9  11    8.16    4.47
  -3  -9 -12   -3.09    3.32
  -3 -10   3    2.07    2.52
   3  10  -3    2.69    2.40
  -3 -10   2    2.26    3.65
   3  10  -2   -3.78    2.90
  -3 -10   1   31.46   10.01
   3  10  -1   26.55    7.50
  -3 -10   0   17.68    6.96
   3  10   0    6.20    4.25
  -3 -10  -1   19.22    6.58
   3  10   1   19.60    6.74
  -3 -10  -2    7.12    3.44
   3  10   2   -0.65    2.09
   3  10   3   22.69    7.19
  -3 -10  -3   31.15    6.67
  -3 -10  -4   -0.22    1.71
   3  10   4    2.07    2.60
  -3 -10  -4    1.95    1.93
  -3 -10  -5    7.20    4.26
   3  10   5   17.33    6.48
  -3 -10  -5    7.66    2.75
  -3 -10  -6   -3.75    3.96
   3  10   6    4.71    3.63
  -3 -10  -7   20.04    7.88
   3  10   7   17.24    7.11
  -3 -10  -8   -0.26    2.33
   3  10   8    5.58    4.08
  -3 -10  -9   15.66    6.88
   3  10   9    9.45    4.91
  -3 -10 -10   -0.41    2.11
  -3 -10 -11   -1.09    2.12
  -3 -11   2   -8.02    6.12
   3  11  -2    2.83    2.27
  -3 -11   1   -4.24    4.14
   3  11  -1    8.58    4.71
  -3 -11   0    2.88    3.89
   3  11   0    3.56    3.55
  -3 -11  -1    6.65    4.34
   3  11   1    5.52    3.45
  -3 -11  -2   -0.74    3.16
   3  11   2    3.92    3.24
   3  11   3   19.49    7.33
  -3 -11  -3    9.03    3.82
   3  11   4   -2.65    2.66
  -3 -11  -4    5.40    3.41
  -3 -11  -5   12.83    5.33
   3  11   5    6.76    4.01
  -3 -11  -6    1.37    1.35
   3  11   6   -3.95    3.67
  -3 -11  -7   -3.15    3.56
   3  11   7    4.28    3.58
  -3 -11  -8    1.63    2.33
  -3 -11  -9   16.17    7.03
  -3 -12   0    1.08    2.14
  -3 -12  -1   -3.79    3.25
  -3 -12  -5    5.57    3.94
  -3 -12  -6    0.41    1.25
  -3 -12  -7    0.03    1.31
  -3 -12  -8   -2.43    2.83
  -4  10   4    9.29    5.41
  -4  10   3    4.17    3.28
   4 -10  -2    4.27    3.46
  -4  10   2   11.69    6.08
   4 -10  -1    6.34    4.25
  -4   9   8   17.31    7.17
  -4   9   7    0.86    3.09
  -4   9   6    7.96    4.54
   4  -9  -5   -4.43    4.03
  -4   9   5    2.72    2.32
   4  -9  -4    7.81    4.31
  -4   9   4   11.34    5.41
   4  -9  -3    3.56    1.72
  -4   9   3   -1.81    3.25
   4  -9  -2   21.49    7.80
  -4   9   2   15.57    6.74
   4  -9  -1    0.95    4.15
  -4   9   1    1.81    2.12
   4  -9   0   12.65    5.72
  -4   9   0    5.58    3.90
   4  -9   1    6.98    4.39
  -4   9  -1    1.07    1.49
   4  -9   2   30.65    9.85
  -4   9  -2   32.27    9.31
   4  -9   3    4.39    3.20
  -4   9  -3    1.54    2.35
   4  -9   4   16.96    7.37
  -4   8  10   -0.43    3.17
  -4   8   9    5.28    3.37
   4  -8  -8   -4.68    2.95
  -4   8   8    4.63    3.03
  -4   8   8    4.83    3.96
   4  -8  -7   -0.04    1.93
  -4   8   7    3.62    3.60
  -4   8   7   -5.83    4.00
   4  -8  -6   25.98    6.39
  -4   8   6   26.15    7.13
  -4   8   6   29.11    7.95
  -4   8   5   -2.22    2.63
  -4   8   5   -0.37    1.98
   4  -8  -4   35.17    9.44
  -4   8   4   41.04    7.94
  -4   8   4   35.94    8.99
   4  -8  -3    3.49    3.98
  -4   8   3   -0.01    1.59
  -4   8   3   -0.32    1.14
  -4   8   2   16.74    4.51
  -4   8   2   14.12    5.91
   4  -8  -2    4.03    3.37
   4  -8  -1    4.66    3.73
  -4   8   1   10.74    4.84
   4  -8   0  124.38   19.27
  -4   8   0  120.89   16.59
   4  -8   1    1.59    3.70
  -4   8  -1   -0.24    1.26
   4  -8   2  112.41   18.31
  -4   8  -2   91.34   14.85
   4  -8   3   -3.02    3.12
  -4   8  -3    0.33    1.62
   4  -8   4   17.01    7.01
  -4   8  -4   20.32    7.26
  -4   8  -5   -3.37    2.44
   4  -8   5   -0.36    1.83
   4  -8   6   33.95    9.50
  -4   8  -6   35.37    9.57
  -4   7  10    4.00    3.96
   4  -7  -9   -2.23    1.92
  -4   7   9   -2.36    2.64
   4  -7  -8   19.63    5.41
  -4   7   8   10.62    5.48
  -4   7   8   20.41    6.07
   4  -7  -7    1.36    2.22
  -4   7   7    4.92    3.19
  -4   7   7   -2.23    2.88
   4  -7  -6   12.78    4.15
  -4   7   6   14.31    5.37
  -4   7   6   17.04    5.63
   4  -7  -5    0.17    1.38
  -4   7   5   -3.80    2.67
  -4   7   5   -1.47    3.02
   4  -7  -4   52.07    8.11
  -4   7   4   49.64    8.86
  -4   7   4   46.85    9.66
   4  -7  -3   -3.03    2.97
   4  -7  -3   -0.14    1.61
  -4   7   3    0.01    1.75
   4  -7  -3    1.94    1.62
  -4   7   3   -2.07    2.43
   4  -7  -2  201.45   22.04
  -4   7   2  220.97   17.08
  -4   7   2  223.23   21.16
   4  -7  -2  192.77    8.75
  -4   7   1    1.36    1.59
   4  -7  -1   -1.07    2.39
  -4   7   1    3.52    2.91
  -4   7   0   54.47    8.92
   4  -7   0   55.73   12.03
  -4   7   0   49.80    9.87
  -4   7  -1    3.52    2.16
  -4   7  -1    0.58    1.56
   4  -7   2  111.01   16.92
  -4   7  -2   97.47   14.46
   4  -7   3   -3.29    1.44
  -4   7  -3    1.59    1.34
  -4   7  -4   86.30   14.14
   4  -7   4   77.89   14.21
   4  -7   5    5.08    4.03
  -4   7  -5   -0.79    1.11
   4  -7   6   84.76   15.10
  -4   7  -6   69.43   12.88
   4  -7   7  -11.27    5.60
  -4   7  -7    7.77    5.49
   4  -7   8   79.06   15.21
  -4   7  -8   91.57   15.45
  -4   6  11   -1.29    2.19
   4  -6 -10   11.89    4.16
  -4   6  10    9.72    4.98
   4  -6  -9   -0.47    1.15
  -4   6   9    3.77    3.18
   4  -6  -8    6.93    3.35
  -4   6   8    4.77    3.36
  -4   6   8    5.63    3.08
   4  -6  -7    3.67    2.42
  -4   6   7    2.37    1.72
  -4   6   7    1.56    2.17
   4  -6  -6   19.40    4.78
  -4   6   6   19.28    6.12
   4  -6  -6   17.65    4.90
   4  -6  -5    6.44    2.94
   4  -6  -5    1.36    1.26
   4  -6  -5    3.32    2.16
  -4   6   5    3.29    2.56
   4  -6  -4  177.82   15.83
  -4   6   4  209.02   18.75
   4  -6  -4  196.36   15.67
  -4   6   4  204.91   19.19
   4  -6  -4  250.56   16.70
   4  -6  -3    0.08    0.95
  -4   6   3    0.31    2.19
   4  -6  -3    2.70    1.69
   4  -6  -3    0.23    0.80
  -4   6   3    0.05    1.37
   4  -6  -2    2.42    1.92
  -4   6   2    3.90    3.11
  -4   6   2    4.03    2.57
   4  -6  -2    2.55    1.67
   4  -6  -2    6.65    2.38
  -4   6   2    6.22    3.69
   4  -6  -1   -0.38    1.86
  -4   6   1   -0.56    0.69
   4  -6  -1    0.82    0.44
  -4   6   1    3.02    1.96
   4  -6  -1    1.21    0.56
   4  -6  -1   -0.09    3.10
  -4   6   1    0.17    1.12
  -4   6   0   57.67    8.91
   4  -6   0   41.65    9.91
  -4   6   0   59.98   10.21
   4  -6   1    3.30    2.19
  -4   6  -1   -1.14    2.00
  -4   6  -2  146.11   11.65
   4  -6   2  193.85   20.79
  -4   6  -2  177.75   18.29
  -4   6  -3    0.42    0.93
   4  -6   3   -0.85    2.15
  -4   6  -3   -1.61    3.10
  -4   6  -4  109.93    6.92
   4  -6   4   98.97   10.56
   4  -6   4   93.59   14.44
  -4   6  -4  102.81   14.41
   4  -6   5   -1.40    1.36
   4  -6   5    3.72    3.48
  -4   6  -5   -1.68    2.36
   4  -6   6   65.85   12.39
  -4   6  -6   59.37   11.50
   4  -6   7    1.04    2.21
  -4   6  -7   -0.19    1.55
   4  -6   8  132.11   19.11
  -4   6  -8  134.99   17.88
   4  -6   9    0.87    3.27
  -4   6  -9   -2.06    2.90
  -4   5  11   -1.83    2.50
   4  -5 -10    4.78    3.18
  -4   5  10    1.37    2.06
   4  -5  -9    4.31    2.83
  -4   5   9   -2.72    3.01
   4  -5  -8   38.71    6.82
  -4   5   8   44.75    8.17
  -4   5   8   21.17    6.85
   4  -5  -7    0.51    1.10
   4  -5  -7    1.50    1.66
  -4   5   7    0.66    1.34
  -4   5   7    2.04    1.31
   4  -5  -6   22.75    5.30
   4  -5  -6   33.69    6.04
  -4   5   6   20.37    6.17
   4  -5  -6   25.91    5.79
   4  -5  -5   17.48    4.28
  -4   5   5    6.26    4.24
   4  -5  -5    6.80    3.05
   4  -5  -5    5.98    2.48
  -4   5   5   14.81    4.88
   4  -5  -4   20.24    4.49
  -4   5   4   15.08    5.08
   4  -5  -4   13.00    3.73
   4  -5  -4   16.92    4.59
  -4   5   4   12.09    4.25
   4  -5  -3    5.72    2.60
  -4   5   3    0.77    1.93
  -4   5   3   -0.31    1.56
   4  -5  -3    1.00    1.35
   4  -5  -3   -0.77    1.66
  -4   5   3    4.92    3.30
  -4   5   2  293.60   21.28
   4  -5  -2  245.09   17.32
  -4   5   2  250.62   18.71
   4  -5  -2  274.63   18.80
  -4   5   2  263.98   20.35
   4  -5  -2  281.57   15.57
   4  -5  -1    1.34    1.06
   4  -5  -1    0.41    0.85
  -4   5   1   -0.09    0.92
  -4   5   1   -3.45    2.81
   4  -5  -1   -1.17    1.18
   4  -5  -1   -4.00    2.84
  -4   5   1    0.75    1.06
   4  -5   0  128.13   12.89
  -4   5   0  152.80   13.59
   4  -5   0  128.40   11.34
   4  -5   0  117.62   15.02
   4  -5   0  136.66    6.19
  -4   5   0  136.59   14.32
   4  -5   0  134.43    9.59
   4  -5   1    0.34    1.57
   4  -5   1   -0.16    2.32
  -4   5  -1   -1.01    2.10
  -4   5  -2   61.81    6.60
   4  -5   2   88.62   13.25
  -4   5  -2   73.15   10.93
   4  -5   3    8.76    3.16
  -4   5  -3    8.23    2.08
   4  -5   3    7.78    3.69
  -4   5  -3    7.24    3.43
  -4   5  -4  127.43    6.52
   4  -5   4  118.61   15.57
   4  -5   4  110.44   11.41
  -4   5  -4  132.26   15.39
   4  -5   5    1.45    0.90
   4  -5   5   -1.27    2.30
  -4   5  -5    0.28    1.19
   4  -5   6    2.37    2.28
   4  -5   6    8.85    3.51
  -4   5  -6    6.87    4.39
  -4   5  -7    0.58    0.44
   4  -5   7   -1.81    1.98
  -4   5  -7    0.23    1.48
   4  -5   7    0.57    2.64
   4  -5   8   63.83   12.75
  -4   5  -8   73.14   12.55
   4  -5   9   -1.75    3.82
  -4   5  -9    2.79    3.09
   4  -5  10  130.44   19.76
  -4   5 -10  111.34   15.94
  -4   5 -11   -0.57    1.46
   4  -4 -11    3.17    1.90
  -4   4  11    6.31    4.51
   4  -4 -10   21.41    5.28
  -4   4  10   11.09    5.38
   4  -4  -9    5.15    2.72
  -4   4   9    1.18    1.80
   4  -4  -8   28.64    6.74
   4  -4  -8   30.04    5.65
  -4   4   8   37.40    6.76
  -4   4   8   24.21    7.27
   4  -4  -7    4.84    3.21
   4  -4  -7    4.31    2.12
   4  -4  -7    2.47    1.34
  -4   4   7    0.60    1.87
   4  -4  -6    1.55    1.68
   4  -4  -6    4.44    2.05
   4  -4  -6    5.31    2.23
  -4   4   6   -0.17    1.92
   4  -4  -5   10.22    3.49
  -4   4   5    7.23    3.59
  -4   4   5   12.14    4.34
   4  -4  -5    9.46    3.40
   4  -4  -5    8.76    3.48
   4  -4  -4  279.98   16.60
  -4   4   4  317.00   23.29
   4  -4  -4  322.06   20.55
  -4   4   4  335.36   20.94
   4  -4  -4  315.49   16.66
   4  -4  -3   14.41    3.48
  -4   4   3   10.15    3.66
  -4   4   3    9.94    4.01
   4  -4  -3   10.97    3.36
   4  -4  -3   13.58    4.21
  -4   4   3    4.29    2.03
  -4   4   2  179.73   15.22
   4  -4  -2  159.35   12.48
  -4   4   2  167.74   15.16
   4  -4  -2  167.61   14.35
  -4   4   2  176.86   15.12
   4  -4  -2  197.28   11.93
   4  -4  -1    4.26    1.89
  -4   4   1    3.32    1.61
  -4   4   1   -0.23    0.99
   4  -4  -1    4.05    2.69
   4  -4  -1    3.96    2.17
   4  -4  -1    2.25    1.90
   4  -4  -1   -1.32    1.99
  -4   4   1    3.62    2.54
   4  -4   0   17.97    3.05
   4  -4   0   11.09    4.21
   4  -4   0   12.35    2.52
   4  -4   0   14.14    3.76
   4  -4   0   11.59    3.52
  -4   4   0   10.10    3.41
  -4   4   0   15.23    4.20
   4  -4   1   16.08    2.79
  -4   4  -1   22.42    4.01
   4  -4   1   14.57    5.14
   4  -4   1   22.39    2.66
   4  -4   1   19.51    4.71
  -4   4  -1   18.36    4.95
  -4   4  -2  243.10   12.37
   4  -4   2  226.29   17.23
   4  -4   2  247.65   17.23
   4  -4   2  246.21   20.70
  -4   4  -2  251.07   19.52
  -4   4  -3    0.03    0.70
   4  -4   3    0.16    1.88
   4  -4   3    0.12    0.92
  -4   4  -3    0.21    2.38
   4  -4   3    1.69    2.59
   4  -4   4   64.99    8.91
   4  -4   4   66.49   11.01
  -4   4  -4   66.42   10.29
  -4   4  -5    0.78    0.48
   4  -4   5    1.97    2.04
   4  -4   5    0.13    0.68
  -4   4  -5   -1.15    2.00
   4  -4   6   45.06    9.30
  -4   4  -6   38.05    4.27
   4  -4   6   38.71    7.59
  -4   4  -6   36.43    7.91
   4  -4   7   -1.19    0.98
   4  -4   7   -0.54    2.31
  -4   4  -7   -1.97    2.69
  -4   4  -7    0.37    0.46
   4  -4   8   50.75   11.14
  -4   4  -8   34.21    5.30
  -4   4  -8   45.62    9.57
  -4   4  -9   -1.38    1.74
  -4   4  -9   -2.85    3.31
   4  -4  10   54.26   12.68
  -4   4 -10   48.58    7.24
  -4   4 -10   57.70   10.94
   4  -4  11  -11.70    6.29
  -4   4 -11   -5.92    4.32
  -4   4 -12   11.17    5.05
  -4   3  11   -2.68    3.06
  -4   3  11    2.40    2.34
   4  -3 -10   12.00    4.02
  -4   3  10    8.15    5.03
  -4   3  10    1.51    0.92
   4  -3  -9    3.80    2.50
  -4   3   9   -0.52    1.97
  -4   3   9    2.07    1.93
  -4   3   8   53.56   11.15
  -4   3   8   66.38    7.19
   4  -3  -8   53.80    8.94
  -4   3   8   61.17    8.89
   4  -3  -8   71.80    9.14
   4  -3  -7   -0.95    1.28
   4  -3  -7    2.73    2.58
  -4   3   7   -4.27    3.05
   4  -3  -6  243.97   13.64
  -4   3   6  230.75   20.79
  -4   3   6  189.74   14.84
   4  -3  -6  250.99   19.20
   4  -3  -6  236.23   15.44
   4  -3  -5   32.50    4.99
   4  -3  -5   37.21    5.78
  -4   3   5   35.33    7.97
  -4   3   5   31.03    5.77
   4  -3  -5   37.45    7.11
   4  -3  -4   23.78    4.48
  -4   3   4   22.60    5.79
  -4   3   4   21.62    5.87
   4  -3  -4   27.50    4.48
  -4   3   4   19.81    4.75
   4  -3  -4   23.75    5.78
   4  -3  -3   -0.74    0.93
  -4   3   3    2.15    2.28
  -4   3   3   -0.37    1.78
   4  -3  -3   -0.50    0.60
   4  -3  -3   -0.40    1.98
  -4   3   3    2.70    2.09
  -4   3   2  307.69   19.01
   4  -3  -2  292.79   15.43
  -4   3   2  297.52   20.58
   4  -3  -2  309.32   19.47
  -4   3   2  302.51   18.12
   4  -3  -2  327.05   15.56
   4  -3  -1    3.02    1.69
  -4   3   1   -1.52    2.44
   4  -3  -1    2.06    1.51
   4  -3  -1    1.18    1.98
   4  -3  -1    0.36    0.84
  -4   3   1   -0.52    1.45
  -4   3   0  793.95   27.62
   4  -3   0  770.63   28.93
   4  -3   0  757.30   25.61
  -4   3   0  743.90   31.93
   4  -3   0  882.23   33.58
   4  -3   0  797.13   35.55
   4  -3   0  790.42   32.04
  -4   3   0  805.30   32.03
   4  -3   0  828.86   24.09
   4  -3   1   -0.09    0.76
  -4   3  -1    0.07    0.70
   4  -3   1   -1.46    1.77
  -4   3  -1   -1.49    2.53
   4  -3   1    0.55    1.82
   4  -3   1   -0.13    0.63
  -4   3  -1    0.49    1.50
   4  -3   2    1.80    1.00
  -4   3  -2    2.97    1.04
   4  -3   2    1.50    1.50
   4  -3   2    0.94    0.76
  -4   3  -2    1.62    1.76
   4  -3   2    3.24    2.32
   4  -3   2   -1.54    1.77
   4  -3   3    0.74    0.62
  -4   3  -3   -0.51    0.62
   4  -3   3   -0.38    1.36
   4  -3   3   -0.06    2.35
  -4   3  -3   -0.08    1.79
   4  -3   3   -0.64    1.03
   4  -3   4  425.44   24.11
   4  -3   4  407.01   25.95
  -4   3  -4  389.35   24.13
  -4   3  -4  363.26   14.20
  -4   3  -4  397.92   24.10
   4  -3   4  419.97   25.03
  -4   3  -5    7.63    2.12
   4  -3   5    7.91    3.20
   4  -3   5   12.39    5.24
  -4   3  -5   10.04    4.00
   4  -3   6  130.40   14.88
   4  -3   6  122.07   14.93
  -4   3  -6  115.23    8.95
  -4   3  -6  133.74   14.68
  -4   3  -7    1.40    1.42
  -4   3  -7   -4.39    3.60
   4  -3   7   -2.41    3.31
   4  -3   8   72.62   12.61
  -4   3  -8   71.07    8.09
  -4   3  -8   56.92    9.97
   4  -3   9    1.98    1.65
  -4   3  -9    0.44    1.03
  -4   3  -9    1.24    2.00
  -4   3 -10   41.98    7.19
  -4   3 -10   45.70    9.39
   4  -3  10   63.79   13.28
  -4   3 -11   -0.30    1.46
   4  -3  11    0.16    1.46
  -4   3 -11   -1.29    2.25
  -4   3 -12   15.90    5.17
  -4   3 -12   13.09    5.77
  -4   2  12    3.40    3.11
   4  -2 -11    1.36    1.65
  -4   2  11    0.65    1.72
   4  -2 -10   12.42    4.45
  -4   2  10   23.58    8.65
  -4   2  10   16.13    5.01
   4  -2  -9   -1.68    2.10
  -4   2   9    0.25    1.39
  -4   2   9    1.02    1.05
   4  -2  -8   54.23    7.92
  -4   2   8   49.66    4.98
  -4   2   8   52.89   11.05
  -4   2   8   38.79    5.51
  -4   2   8   50.17    8.47
   4  -2  -7   46.92    8.49
   4  -2  -7   42.86    6.68
  -4   2   7   42.37    9.86
  -4   2   7   35.40    4.17
  -4   2   7   37.22    7.00
  -4   2   7   26.42    4.52
   4  -2  -6   79.52    8.76
  -4   2   6   70.95   11.50
  -4   2   6   84.00   10.22
  -4   2   6   57.52    6.43
   4  -2  -6   82.68   10.94
   4  -2  -5    9.85    3.58
   4  -2  -5    2.26    1.49
   4  -2  -5    9.24    2.10
  -4   2   5    4.83    2.76
  -4   2   5   11.54    3.73
  -4   2   5    8.85    2.85
   4  -2  -4  345.52   17.53
  -4   2   4  321.71   21.54
   4  -2  -4  323.49   13.79
  -4   2   4  308.28   22.42
  -4   2   4  367.29   16.38
   4  -2  -4  321.34   21.73
   4  -2  -3    2.71    1.75
  -4   2   3    3.37    1.87
   4  -2  -3    4.44    1.63
  -4   2   3    3.44    1.88
  -4   2   3    6.94    3.63
   4  -2  -3    7.77    3.23
   4  -2  -2  652.51   23.02
  -4   2   2  609.12   27.16
   4  -2  -2  589.98   20.28
  -4   2   2  592.82   29.64
   4  -2  -2  604.15   27.53
  -4   2   2  637.90   23.79
   4  -2  -2  612.43   28.58
   4  -2  -1    0.08    1.02
   4  -2  -1   -2.29    2.04
   4  -2  -1   -0.22    0.63
  -4   2   1   -0.55    2.15
   4  -2  -1   -1.68    1.65
  -4   2   1   -0.83    1.55
   4  -2   0  128.13    8.35
  -4   2   0  104.13    9.26
   4  -2   0  123.33    9.64
  -4   2   0  125.26   12.24
   4  -2   0  113.44    9.51
   4  -2   0  141.29   12.78
   4  -2   0  127.09   12.07
   4  -2   0  130.22   12.11
  -4   2   0  130.92   10.80
   4  -2   1   -0.15    0.73
  -4   2  -1    0.67    0.61
   4  -2   1   -1.64    1.29
   4  -2   1    1.42    1.51
  -4   2  -1   -0.72    1.46
  -4   2  -1   -0.97    1.50
   4  -2   1   -0.19    0.80
  -4   2  -2  816.42   25.19
   4  -2   2  847.32   35.18
  -4   2  -2  864.21   32.36
   4  -2   2  826.39   25.42
   4  -2   2  829.81   31.60
   4  -2   2  875.75   22.22
  -4   2  -3   44.20    5.07
   4  -2   3   45.10    7.47
   4  -2   3   39.59    7.19
  -4   2  -3   51.02    7.71
   4  -2   3   38.32    6.62
   4  -2   3   40.96    4.71
   4  -2   3   42.72    3.31
   4  -2   4  467.44   25.54
  -4   2  -4  385.39   17.02
  -4   2  -4  469.46   24.63
   4  -2   4  432.12   25.42
  -4   2  -4  414.75   23.68
   4  -2   4  431.78    9.39
   4  -2   4  451.21   24.61
   4  -2   5    0.17    0.87
   4  -2   5   -0.82    1.93
  -4   2  -5   -0.32    0.97
  -4   2  -5    0.10    1.43
  -4   2  -5   -0.77    1.99
   4  -2   5   -1.06    1.97
   4  -2   6  127.05   14.53
  -4   2  -6  146.81   11.09
  -4   2  -6  177.32   15.94
  -4   2  -6  155.06   15.51
  -4   2  -7    0.91    1.55
   4  -2   7   -2.42    3.00
  -4   2  -7   -2.66    2.19
   4  -2   8   60.22   10.60
  -4   2  -8   44.60    6.83
  -4   2  -8   52.72    9.11
   4  -2   9    2.86    3.94
  -4   2  -9   -0.40    0.96
  -4   2  -9    0.42    1.39
   4  -2  10  133.54   18.54
  -4   2 -10  142.27   16.08
  -4   2 -10  149.29   14.43
  -4   2 -11   -1.15    2.01
   4  -2  11   -1.24    3.54
  -4   2 -11    1.90    2.44
  -4   2 -12   29.26    7.50
   4  -2  12   41.19   12.06
  -4   2 -12   29.20    7.84
  -4   2 -13   -3.72    2.84
   4  -2  13   -0.04    1.94
  -4   2 -13    0.51    2.24
  -4   2 -14    7.91    4.30
  -4   1  12    3.35    3.81
  -4   1  11    3.04    3.75
   4  -1 -11    2.23    2.57
  -4   1  11   -3.25    2.98
   4  -1 -10    9.43    3.71
  -4   1  10    8.39    5.71
  -4   1  10   11.70    4.29
   4  -1  -9    0.83    1.67
  -4   1   9    2.56    3.25
  -4   1   9   -0.82    1.96
   4  -1  -8   33.47    6.20
  -4   1   8   46.39   10.99
  -4   1   8   41.10    7.95
   4  -1  -7    1.67    1.88
  -4   1   7   -1.56    2.71
  -4   1   7    2.01    1.62
   4  -1  -6  165.12   13.29
  -4   1   6  138.97   16.35
  -4   1   6  150.45   14.08
   4  -1  -6  141.81   14.56
   4  -1  -5   18.58    5.43
   4  -1  -5   19.32    4.44
  -4   1   5   13.26    4.68
  -4   1   5   17.22    1.97
  -4   1   5   15.78    1.96
  -4   1   5   13.50    4.66
   4  -1  -4   19.28    5.32
  -4   1   4   23.08    2.76
   4  -1  -4   28.25    5.24
  -4   1   4   19.91    5.68
  -4   1   4   19.24    5.03
  -4   1   4   18.88    4.44
   4  -1  -3   45.02    6.22
  -4   1   3   40.18    7.12
   4  -1  -3   42.01    3.35
  -4   1   3   37.18    7.22
  -4   1   3   38.68    4.11
  -4   1   3   44.98    6.98
   4  -1  -3   37.42    6.96
   4  -1  -2  289.14   15.39
  -4   1   2  264.15   17.55
   4  -1  -2  257.09   10.49
  -4   1   2  281.14   19.48
  -4   1   2  306.82   18.07
  -4   1   2  268.25   12.23
   4  -1  -2  298.22   19.22
   4  -1  -1    6.46    2.60
  -4   1   1    4.10    1.81
   4  -1  -1    4.65    1.52
  -4   1   1    5.10    2.79
   4  -1  -1    4.92    2.57
   4  -1   0 2217.47   49.73
   4  -1   0 2195.60   55.85
  -4   1   0 2089.08   54.16
  -4   1   0 2200.97   60.44
  -4   1   0 2188.21   51.67
   4  -1   0 2157.30   50.78
   4  -1   1  101.20    7.36
  -4   1  -1   98.83   10.55
   4  -1   1  101.93   10.11
   4  -1   1  101.55    8.97
  -4   1  -1   98.37    9.19
   4  -1   1  108.83    9.39
   4  -1   2  679.40   19.71
   4  -1   2  673.75   26.50
   4  -1   2  664.38   28.63
   4  -1   2  641.16   23.53
  -4   1  -2  678.41   26.48
  -4   1  -3    3.17    1.82
   4  -1   3    0.58    0.64
   4  -1   3    0.33    0.41
   4  -1   3   -0.95    1.85
   4  -1   3    4.53    2.74
  -4   1  -3    2.07    2.43
   4  -1   3    1.73    0.86
   4  -1   4   29.24    2.66
   4  -1   4   41.30    7.40
  -4   1  -4   31.13    5.02
   4  -1   4   28.79    5.86
  -4   1  -4   24.51    5.00
  -4   1  -4   42.73    6.78
   4  -1   4   34.49    4.69
   4  -1   4   27.76    5.62
   4  -1   5    2.77    2.09
   4  -1   5    2.47    1.60
  -4   1  -5    2.57    2.28
  -4   1  -5    2.24    1.70
  -4   1  -5    1.70    1.08
   4  -1   5    4.85    2.66
   4  -1   6   91.50   11.61
  -4   1  -6  117.91   12.98
  -4   1  -6  109.83   11.74
  -4   1  -6  106.20    9.92
   4  -1   6  113.77   12.64
  -4   1  -7    9.49    3.34
   4  -1   7   10.66    4.79
  -4   1  -7    9.41    4.22
  -4   1  -7    7.72    3.11
   4  -1   8  268.60   22.33
  -4   1  -8  260.01   20.23
  -4   1  -8  251.27   17.34
   4  -1   9    5.81    3.98
  -4   1  -9    3.92    2.69
  -4   1  -9    5.82    2.81
   4  -1  10  141.08   18.44
  -4   1 -10  124.97   14.94
  -4   1 -10  129.39   14.73
  -4   1 -11   -0.12    1.12
   4  -1  11    0.20    2.38
  -4   1 -11    0.68    2.57
  -4   1 -12   62.26   11.57
   4  -1  12   91.23   17.26
  -4   1 -12   68.60   12.13
  -4   1 -13   -2.05    1.63
  -4   1 -13   -0.43    2.04
   4  -1  13    4.46    5.16
  -4   1 -14    6.95    4.68
  -4   1 -14   10.04    5.27
  -4   1 -15   -3.25    3.33
  -4   0  12    4.34    3.50
   4   0 -11   -0.96    2.32
  -4   0  11   -2.91    4.81
  -4   0  11    3.14    2.79
   4   0 -10   16.69    4.84
  -4   0  10   16.29    8.20
  -4   0  10   24.04    6.60
   4   0  -9    3.89    2.74
  -4   0   9    2.17    3.53
  -4   0   9    2.96    2.63
   4   0  -8   15.00    4.30
  -4   0   8    7.12    3.81
  -4   0   8    6.68    3.48
   4   0  -7   -0.20    1.10
  -4   0   7    0.88    1.99
  -4   0   7   -1.46    2.47
   4   0  -6   57.68    8.25
  -4   0   6   50.57    9.87
  -4   0   6   55.83    8.83
   4   0  -5   26.83    6.56
   4   0  -5   30.61    5.84
  -4   0   5   29.66    7.37
  -4   0   5   32.97    6.59
   4   0  -4  382.52   20.11
  -4   0   4  355.67   23.52
  -4   0   4  302.55   22.04
  -4   0   4  349.16   21.49
   4   0  -4  350.87   22.79
   4   0  -3   59.03    7.52
  -4   0   3   52.05    8.42
  -4   0   3   57.87    9.08
  -4   0   3   54.58    7.83
   4   0  -3   51.40    8.22
   4   0  -2  293.90   16.69
  -4   0   2  301.96   19.38
   4   0  -2  280.65    8.11
   4   0  -2  283.56    8.77
  -4   0   2  268.87   19.20
  -4   0   2  315.35   10.92
  -4   0   2  297.13   18.02
   4   0  -2  297.77   19.78
   4   0  -1    9.94    2.75
  -4   0   1    9.16    3.36
  -4   0   1    6.98    1.64
  -4   0   1    9.50    3.33
   4   0  -1    8.44    1.93
   4   0  -1    8.23    2.92
   4   0   0  177.52   11.79
  -4   0   0  165.71   13.87
   4   0   0  154.06   12.55
  -4   0   0  158.52    9.58
   4   0   0  157.94    9.53
   4   0   1    5.23    1.99
   4   0   1    3.79    1.38
  -4   0  -1    1.45    1.37
   4   0   1    2.62    1.45
  -4   0  -1    5.10    2.00
   4   0   1    2.66    1.52
   4   0   2  527.31   19.49
  -4   0  -2  481.07   21.65
  -4   0  -2  491.58   24.38
   4   0   2  501.29   22.57
   4   0   2  474.94   21.07
  -4   0  -2  501.27   20.87
   4   0   2  559.27   22.49
  -4   0  -3    5.96    1.87
   4   0   3    8.30    2.19
   4   0   3   11.90    2.92
   4   0   3    6.12    2.21
  -4   0  -3    5.27    1.97
  -4   0  -3   15.03    3.59
   4   0   3    4.89    2.14
   4   0   3    9.77    2.78
   4   0   4  825.67   23.86
  -4   0  -4  823.83   30.28
   4   0   4  847.70   32.08
  -4   0  -4  879.37   31.62
   4   0   4  851.20   32.13
   4   0   4  847.46   28.33
   4   0   5   52.54    4.71
   4   0   5   65.43    9.67
  -4   0  -5   60.60    8.06
   4   0   5   47.17    7.05
  -4   0  -5   44.88    6.83
   4   0   5   50.68    7.63
   4   0   5   62.01    6.91
   4   0   6  361.73   21.94
  -4   0  -6  399.61   23.37
  -4   0  -6  423.14   23.13
  -4   0  -6  364.82   20.63
   4   0   6  404.45   23.49
   4   0   6  426.39   11.19
   4   0   7    6.72    1.10
  -4   0  -7   10.51    3.43
   4   0   7    2.74    2.38
  -4   0  -7   10.30    3.79
  -4   0  -7    9.81    3.55
   4   0   7    6.62    3.21
   4   0   8   11.71    1.63
   4   0   8   13.63    4.77
  -4   0  -8   18.35    5.57
  -4   0  -8   11.51    3.92
  -4   0  -8   13.28    4.00
   4   0   9    0.73    0.41
   4   0   9    1.98    2.88
  -4   0  -9    1.47    1.60
  -4   0  -9    1.34    1.49
   4   0  10  105.34    6.09
   4   0  10  126.07   17.40
  -4   0 -10  115.42   14.34
  -4   0 -10  137.09   15.71
  -4   0 -11    2.81    1.47
   4   0  11    2.18    2.96
  -4   0 -11    0.56    1.82
  -4   0 -12   57.34   12.30
  -4   0 -12   63.53   11.24
  -4   0 -13   -0.41    1.45
   4   0  13   -1.48    2.69
   4   0  13    6.40    4.86
  -4   0 -13    4.16    3.39
  -4   0 -14    4.28    3.94
   4   0  14    4.69    4.91
  -4   0 -14    8.66    4.82
  -4   0 -15    0.77    2.10
  -4  -1  12   -1.25    2.88
   4   1 -11   -1.05    1.58
  -4  -1  11   -6.13    5.59
  -4  -1  11    2.90    3.45
   4   1 -10    8.18    3.78
  -4  -1  10   20.02   10.12
  -4  -1  10    8.24    4.11
   4   1  -9    1.85    2.36
  -4  -1   9    2.75    4.81
  -4  -1   9   -2.56    2.73
   4   1  -8   54.89    8.65
  -4  -1   8   51.53   12.32
  -4  -1   8   66.01   11.00
   4   1  -7    1.30    1.33
  -4  -1   7   -0.29    2.44
  -4  -1   7   -3.17    2.46
   4   1  -6  139.07   12.98
   4   1  -6  115.09   15.49
  -4  -1   6  132.22   16.62
  -4  -1   6  140.17   14.79
   4   1  -5    4.02    3.03
   4   1  -5    6.21    2.69
  -4  -1   5    2.01    2.93
  -4  -1   5    6.05    2.89
   4   1  -4   22.47    5.49
   4   1  -4   25.70    4.82
  -4  -1   4   23.32    5.85
  -4  -1   4   19.33    5.59
   4   1  -3    0.51    1.67
   4   1  -3    2.03    1.16
  -4  -1   3   -2.90    2.67
  -4  -1   3    0.66    1.64
   4   1  -2   25.82    4.97
  -4  -1   2   27.24    6.12
  -4  -1   2   21.92    4.83
   4   1  -1    0.28    1.75
   4   1  -1   -0.42    0.72
   4   1  -1   -0.07    1.43
  -4  -1   1   -0.50    1.58
  -4  -1   1   -0.06    1.17
   4   1  -1    0.38    0.70
   4   1   0  678.47   26.52
  -4  -1   0  660.49   28.96
   4   1   0  636.23   21.22
   4   1   0  674.92   29.13
  -4  -1   0  660.93   21.24
   4   1   0  645.94   20.11
  -4  -1   0  660.25   26.95
   4   1   1   20.26    4.06
   4   1   1   24.68    3.95
   4   1   1   21.11    4.44
  -4  -1  -1   17.69    4.42
   4   1   1   18.88    3.40
  -4  -1  -1   23.25    3.97
  -4  -1  -1   25.95    5.23
   4   1   1   20.49    3.49
   4   1   2  813.54   27.65
  -4  -1  -2  887.49   33.47
   4   1   2  840.59   28.10
  -4  -1  -2  821.01   31.09
   4   1   2  855.32   27.55
   4   1   2  827.95   30.48
  -4  -1  -2  845.23   27.78
   4   1   2  852.37   27.97
   4   1   3  146.94   10.59
  -4  -1  -3  135.92   11.76
  -4  -1  -3  149.15   11.31
   4   1   3  139.33   11.01
   4   1   3  125.88   11.06
   4   1   3  145.74   11.36
   4   1   4 1391.23   39.90
  -4  -1  -4 1404.03   40.39
  -4  -1  -4 1442.93   44.27
  -4  -1  -4 1450.95   42.42
   4   1   4 1329.17   41.61
   4   1   4 1448.53   43.29
   4   1   4 1435.42   41.10
   4   1   5   -1.43    1.70
  -4  -1  -5   -0.76    1.13
  -4  -1  -5    0.32    1.00
  -4  -1  -5   -2.04    1.86
   4   1   5    1.24    1.58
   4   1   5   -0.28    0.85
  -4  -1  -6   15.11    4.04
   4   1   6   16.29    3.75
   4   1   6   15.58    4.16
  -4  -1  -6   17.01    4.30
   4   1   6   11.57    3.89
   4   1   7    0.31    0.51
  -4  -1  -7    1.24    1.79
   4   1   7   -2.27    2.30
  -4  -1  -7    1.52    1.62
  -4  -1  -7    0.16    1.22
   4   1   7    1.19    1.95
  -4  -1  -8  151.55   15.03
   4   1   8  152.16   16.04
  -4  -1  -8  163.59   15.35
  -4  -1  -8  168.80   15.66
   4   1   8  145.16    7.41
   4   1   9    0.22    0.73
  -4  -1  -9    2.86    2.43
   4   1   9    0.25    2.13
  -4  -1  -9   -0.40    2.17
  -4  -1  -9    2.48    1.59
   4   1  10   58.14    5.55
   4   1  10   64.77   11.08
   4   1  10   70.36   13.10
  -4  -1 -10   58.13   10.17
  -4  -1 -10   72.71   12.16
  -4  -1 -11   -1.51    3.27
   4   1  11   -4.22    4.01
   4   1  11    0.59    3.77
  -4  -1 -11   -1.42    3.01
  -4  -1 -12   42.91   11.46
   4   1  12   52.70   11.21
   4   1  12   84.53   16.35
  -4  -1 -12   58.76   11.08
  -4  -1 -13    1.38    2.12
   4   1  13   -0.45    2.84
  -4  -1 -13    2.11    2.84
  -4  -1 -14   26.69    9.59
   4   1  14   24.39    8.72
  -4  -1 -15    0.81    1.70
   4   2 -11    4.99    2.92
  -4  -2  11    4.17    4.70
  -4  -2  11    0.81    3.14
   4   2 -10   19.79    5.61
  -4  -2  10   13.62    8.36
  -4  -2  10   21.08    7.16
   4   2  -9    4.65    3.07
  -4  -2   9    2.37    2.66
  -4  -2   9    1.43    3.84
   4   2  -8   13.73    4.45
  -4  -2   8    2.34    2.49
  -4  -2   8   14.50    5.58
   4   2  -7   -2.03    1.96
  -4  -2   7   -4.77    4.19
  -4  -2   7    0.97    1.91
   4   2  -6   30.99    6.24
   4   2  -6   24.60    6.79
  -4  -2   6   44.06    9.65
  -4  -2   6   26.72    6.57
   4   2  -5   -3.60    3.02
   4   2  -5   -0.68    1.88
  -4  -2   5    1.45    1.42
   4   2  -4  247.50   17.72
  -4  -2   4  218.31   18.61
   4   2  -4  208.86   17.82
  -4  -2   4  260.84   19.68
   4   2  -4  227.86   18.87
   4   2  -3   18.83    5.26
   4   2  -3   19.69    5.06
  -4  -2   3   13.83    4.50
  -4  -2   3   10.27    4.15
   4   2  -2  404.92   22.18
   4   2  -2  409.06   24.88
   4   2  -2  395.17   11.03
  -4  -2   2  402.84   23.57
   4   2  -2  418.57   22.68
  -4  -2   2  400.96   22.85
   4   2  -1    0.59    1.15
  -4  -2   1   -0.92    1.91
   4   2  -1    0.51    1.38
   4   2  -1   -0.31    0.67
   4   2  -1    0.03    0.44
  -4  -2   1   -3.23    3.54
   4   2   0   16.95    3.96
  -4  -2   0   21.91    5.00
   4   2   0   22.34    4.98
   4   2   0   21.81    3.13
  -4  -2   0   18.94    4.23
   4   2   0   21.19    3.60
   4   2   1    4.56    1.89
  -4  -2  -1    3.24    1.35
   4   2   1    6.72    2.77
   4   2   1    2.58    1.30
   4   2   1    4.95    1.78
  -4  -2  -1    5.00    1.96
   4   2   1    3.07    1.27
   4   2   2  810.85   31.95
   4   2   2  823.17   30.04
   4   2   2  810.89   23.36
  -4  -2  -2  822.77   32.25
   4   2   2  830.14   31.90
   4   2   2  813.37   27.00
  -4  -2  -2  886.52   30.78
   4   2   2  849.36   31.96
   4   2   3    1.02    0.87
   4   2   3    0.58    1.97
  -4  -2  -3    0.75    1.01
   4   2   3    0.54    0.80
  -4  -2  -3    0.93    1.03
   4   2   3    3.66    1.66
   4   2   3    0.29    1.49
   4   2   4  197.73   14.52
   4   2   4  216.22   12.47
  -4  -2  -4  202.27   11.91
  -4  -2  -4  205.87   15.81
  -4  -2  -4  215.06   14.41
   4   2   4  233.48   15.11
   4   2   4  187.63   13.67
   4   2   4  207.51   14.15
   4   2   5    0.38    1.02
   4   2   5    1.94    2.31
   4   2   5   -0.01    1.02
  -4  -2  -5   -0.11    0.83
  -4  -2  -5   -1.10    2.14
  -4  -2  -5    1.78    2.09
   4   2   5    1.42    1.44
   4   2   5   -1.39    1.40
   4   2   6  858.45   35.24
   4   2   6  947.44   36.08
  -4  -2  -6  860.69   32.44
  -4  -2  -6  892.18   34.93
  -4  -2  -6  905.31   37.96
   4   2   6  970.59   37.39
   4   2   6  890.70   32.03
   4   2   6 1027.13   34.31
   4   2   7    2.50    1.03
  -4  -2  -7    0.70    1.69
   4   2   7    3.69    3.31
   4   2   7    0.41    1.93
  -4  -2  -7    7.42    3.92
   4   2   7    2.73    1.54
   4   2   8   51.39    9.61
  -4  -2  -8   51.92    8.28
   4   2   8   40.87    7.76
  -4  -2  -8   53.68    9.33
  -4  -2  -8   52.98    8.64
   4   2   8   45.88    4.66
   4   2   9    0.86    0.83
   4   2   9   -0.89    2.53
   4   2   9    3.25    2.94
  -4  -2  -9    2.29    2.66
  -4  -2  -9    0.30    1.36
  -4  -2  -9   -4.48    2.65
   4   2  10  103.73   16.16
   4   2  10  117.85   15.01
  -4  -2 -10   88.88   12.27
  -4  -2 -10  112.76   16.08
   4   2  10   90.44    7.22
   4   2  11    1.66    0.85
   4   2  11   -0.68    2.68
  -4  -2 -11    1.64    1.69
  -4  -2 -11    3.79    3.76
   4   2  12  180.92   20.88
  -4  -2 -12  113.18   18.90
  -4  -2 -13    0.72    1.94
   4   2  13    7.14    4.88
  -4  -2 -14    5.64    4.10
   4   2  14   -0.60    2.22
  -4  -2 -15   -4.97    4.69
  -4  -3  10   -1.87    3.06
  -4  -3  10    0.57    1.74
   4   3  -9    3.22    2.27
  -4  -3   9    5.57    4.23
  -4  -3   9    2.47    3.24
   4   3  -8   45.70    8.21
  -4  -3   8   17.60    7.02
  -4  -3   8   34.25    8.60
   4   3  -7    8.89    3.57
  -4  -3   7    3.80    3.75
  -4  -3   7    6.79    3.98
   4   3  -6   64.72    9.82
  -4  -3   6   87.91   13.38
   4   3  -6   68.67   10.69
  -4  -3   6   84.19   12.43
   4   3  -5   -1.65    1.63
   4   3  -5    0.72    1.21
  -4  -3   5    1.84    2.88
  -4  -3   5   -0.62    1.37
   4   3  -4   49.84    8.27
  -4  -3   4   35.68    3.05
   4   3  -4   41.52    7.06
  -4  -3   4   48.48    8.70
  -4  -3   4   46.43    8.56
   4   3  -3   32.75    6.00
   4   3  -3   33.19    6.94
   4   3  -3   20.03    5.13
  -4  -3   3   27.98    3.14
  -4  -3   3   37.35    7.53
   4   3  -3   27.13    6.87
  -4  -3   3   34.72    7.06
   4   3  -2  132.80   13.21
   4   3  -2  126.53    7.52
  -4  -3   2  114.22   12.43
  -4  -3   2  125.02    7.68
   4   3  -2  106.05    9.45
   4   3  -2  134.31   14.43
   4   3  -2  135.25    6.24
  -4  -3   2  132.17   13.71
   4   3  -2  143.60   14.02
   4   3  -1    3.87    2.39
   4   3  -1    0.72    1.93
  -4  -3   1    2.58    1.14
   4   3  -1    5.00    1.96
  -4  -3   1    5.13    2.69
   4   3  -1    4.30    2.38
   4   3  -1    3.22    1.45
   4   3  -1    3.44    1.25
  -4  -3   1    1.52    1.57
   4   3   0  528.26   20.11
  -4  -3   0  516.21   25.20
  -4  -3   0  488.85   24.88
   4   3   0  465.56   16.48
   4   3   0  527.78   25.41
  -4  -3   0  557.07   20.31
   4   3   0  528.44   18.70
   4   3   0  505.46   26.14
  -4  -3  -1   -1.81    2.01
   4   3   1    1.56    1.39
   4   3   1   -0.02    0.38
   4   3   1   -0.03    0.48
  -4  -3  -1   -1.28    1.85
   4   3   1    1.88    1.99
   4   3   2    8.60    2.96
   4   3   2    7.70    2.61
  -4  -3  -2    6.36    2.69
   4   3   2   14.10    3.79
   4   3   2    7.37    1.25
   4   3   2    7.73    2.45
  -4  -3  -2    9.09    3.28
   4   3   3    6.22    3.28
  -4  -3  -3    7.87    3.67
   4   3   3    3.89    2.00
   4   3   3    4.95    1.39
   4   3   3    7.97    2.78
  -4  -3  -3   11.63    3.66
   4   3   3    6.23    3.20
   4   3   4  666.03   30.01
   4   3   4  625.56   29.67
   4   3   4  719.92   23.43
  -4  -3  -4  658.32   20.72
  -4  -3  -4  660.19   31.34
   4   3   4  686.67   28.28
   4   3   4  683.79   27.85
   4   3   5    3.21    2.01
   4   3   5   -0.33    1.36
   4   3   5   -1.19    1.58
   4   3   5    0.12    1.58
  -4  -3  -5    0.29    0.50
  -4  -3  -5    0.57    1.63
   4   3   5   -0.46    0.90
   4   3   5   -0.53    0.72
   4   3   6  294.09   21.32
   4   3   6  352.76   20.94
  -4  -3  -6  298.42   16.65
  -4  -3  -6  362.51   23.97
   4   3   6  341.88   21.52
   4   3   6  305.13   17.43
   4   3   6  352.07   19.74
   4   3   7    0.85    0.66
  -4  -3  -7    4.53    2.19
   4   3   7   -0.29    2.69
   4   3   7    7.05    3.76
   4   3   7    1.69    1.73
   4   3   7    6.04    2.74
   4   3   8   99.80   13.24
  -4  -3  -8  106.32   11.49
   4   3   8  103.99    9.89
  -4  -3  -8  121.69   15.18
   4   3   8  124.41    8.91
   4   3   9    5.63    1.99
   4   3   9    7.89    3.75
  -4  -3  -9    1.68    1.08
  -4  -3  -9    2.14    3.12
   4   3   9    3.44    1.66
   4   3  10  193.32   20.03
  -4  -3 -10  173.86   16.96
  -4  -3 -10  197.75   22.26
   4   3  10  163.51   10.83
   4   3  11    0.98    1.00
   4   3  11    3.01    3.69
  -4  -3 -11    5.37    3.96
   4   3  12   37.70    9.99
  -4  -3 -12   42.17   12.35
   4   3  13    3.44    4.80
  -4  -3 -13    1.95    4.29
   4   3  14   26.09    9.70
  -4  -3 -14   13.92    7.79
  -4  -4  10   20.45    8.65
  -4  -4  10   10.28    5.48
  -4  -4   9   -0.10    0.87
  -4  -4   9   -1.31    2.65
  -4  -4   8   14.73    6.00
   4   4  -8   20.65    5.82
  -4  -4   8    7.73    4.78
  -4  -4   7   -3.03    3.23
   4   4  -7   -1.06    2.68
  -4  -4   7    2.79    1.68
  -4  -4   6   19.85    7.86
   4   4  -6   12.07    4.03
   4   4  -6   14.82    4.55
  -4  -4   6   11.47    5.49
  -4  -4   6   16.96    3.12
  -4  -4   5   13.07    2.80
   4   4  -5   17.40    5.53
   4   4  -5   12.02    3.94
  -4  -4   5   12.79    4.84
  -4  -4   5   21.97    6.60
   4   4  -4  130.90   14.52
  -4  -4   4  101.23    8.02
  -4  -4   4   96.10   12.53
   4   4  -4  114.17   10.87
   4   4  -4  125.58    5.66
   4   4  -4  115.05    5.19
  -4  -4   4  117.18   14.16
  -4  -4   3   23.43    3.96
   4   4  -3   25.23    6.35
   4   4  -3   28.07    4.84
  -4  -4   3   22.02    5.60
   4   4  -3   26.42    3.18
   4   4  -3   27.46    3.32
  -4  -4   3   23.00    6.07
   4   4  -2   87.34   11.31
   4   4  -2   79.93    7.21
  -4  -4   2   76.65    7.44
  -4  -4   2   73.57    9.86
   4   4  -2   83.16    7.51
   4   4  -2   80.50   11.65
   4   4  -2   88.14    6.65
  -4  -4   2   75.44   10.57
   4   4  -2   77.82   10.30
   4   4  -1   13.84    4.13
  -4  -4   1   10.12    2.83
   4   4  -1   19.51    5.58
  -4  -4   1   12.96    4.06
   4   4  -1   16.98    2.73
   4   4  -1   10.76    2.76
   4   4  -1   11.83    3.77
   4   4  -1   16.74    3.19
  -4  -4   1   11.90    4.12
   4   4   0  189.64   12.46
  -4  -4   0  167.07   13.89
  -4  -4   0  170.20   12.29
   4   4   0  184.96   14.60
   4   4   0  184.60   16.47
   4   4   0  165.14   10.86
  -4  -4   0  168.08   15.00
   4   4   0  188.50   15.60
   4   4   1   -1.83    1.79
  -4  -4  -1    0.12    1.03
  -4  -4  -1   -1.64    1.82
   4   4   1   -1.19    1.57
   4   4   1   -0.14    1.70
   4   4   1    0.11    1.41
   4   4   1    0.27    0.73
  -4  -4  -1   -1.41    2.67
   4   4   2  111.05   10.83
   4   4   2   96.19   10.29
  -4  -4  -2   86.28   10.79
   4   4   2   98.52    9.41
  -4  -4  -2   93.39    9.72
   4   4   2   92.47   10.22
  -4  -4  -3   36.60    7.38
   4   4   3   47.11    7.32
  -4  -4  -3   44.95    6.96
   4   4   3   44.01    6.69
  -4  -4  -3   49.73    6.84
   4   4   3   51.10    7.59
   4   4   3   42.71    8.00
   4   4   4  329.85   21.93
   4   4   4  332.32   20.57
  -4  -4  -4  321.37   10.42
  -4  -4  -4  346.47   23.51
   4   4   4  345.29   20.07
  -4  -4  -4  364.93   18.27
   4   4   4  313.93   18.20
   4   4   4  324.10   19.91
   4   4   5   29.85    6.84
   4   4   5   27.54    5.42
   4   4   5   23.60    5.49
  -4  -4  -5   32.16    4.16
  -4  -4  -5   40.47    7.89
   4   4   5   29.45    6.18
   4   4   5   29.65    5.16
   4   4   6  137.69   14.44
  -4  -4  -6  128.55    9.78
  -4  -4  -6  144.07   15.74
   4   4   6  145.56   14.12
   4   4   6  129.17   10.68
   4   4   6  142.57   12.58
   4   4   7    3.39    3.36
  -4  -4  -7    0.07    1.28
   4   4   7    1.23    1.07
  -4  -4  -7    1.50    2.19
   4   4   8  125.32   14.98
  -4  -4  -8  168.39   18.56
   4   4   8  133.58   10.61
   4   4   8  146.31   10.45
   4   4   9    1.25    1.08
  -4  -4  -9   -0.15    0.90
   4   4   9    0.94    0.61
   4   4  10    0.35    1.06
   4   4  10    6.51    4.66
  -4  -4 -10    1.39    3.40
  -4  -4 -10    0.70    0.95
   4   4  10    0.60    1.09
   4   4  11   -0.45    0.92
   4   4  11   -2.00    1.64
   4   4  12  206.40   22.77
  -4  -4 -12  150.94   23.43
   4   4  13    3.00    3.88
  -4  -4 -13   -3.17    4.71
   4   4  14    8.62    5.78
  -4  -4 -14   16.12    8.63
  -4  -5  10    1.05    3.17
  -4  -5   9   -1.70    2.61
   4   5  -9   -2.66    2.87
  -4  -5   9    1.50    3.03
  -4  -5   8   18.95    7.72
   4   5  -8    9.38    3.91
  -4  -5   8    8.57    5.02
  -4  -5   7   14.41    6.63
   4   5  -7   15.99    5.68
  -4  -5   7    9.89    4.61
   4   5  -6  110.16   14.66
  -4  -5   6  105.39   14.63
  -4  -5   6  117.50   17.07
  -4  -5   5    3.73    4.02
   4   5  -5   -0.12    1.76
   4   5  -5    1.42    1.56
  -4  -5   5   -1.28    2.11
   4   5  -5   -0.71    0.77
  -4  -5   5   -1.46    1.56
  -4  -5   4    0.61    1.74
   4   5  -4   -1.44    2.38
  -4  -5   4    0.73    1.17
   4   5  -4   -1.45    1.61
   4   5  -4   -0.02    0.61
  -4  -5   4    2.76    1.91
  -4  -5   3    3.86    1.50
  -4  -5   3    2.45    1.50
   4   5  -3    1.68    2.27
   4   5  -3    3.78    2.00
  -4  -5   3    0.13    1.22
   4   5  -3    3.62    1.76
   4   5  -2  109.93    9.87
  -4  -5   2  109.48   10.21
  -4  -5   2  105.93   11.61
   4   5  -2  121.18    9.09
  -4  -5   2  115.23   13.61
   4   5  -1   20.88    2.72
  -4  -5   1   22.33    5.47
   4   5  -1   23.63    4.74
  -4  -5   1   16.38    4.65
   4   5   0   77.80    8.83
  -4  -5   0   81.84    9.48
   4   5   0   90.72   10.01
  -4  -5   0   84.64   10.75
   4   5   0   90.71   11.81
   4   5   0   83.50   10.52
   4   5   1   39.04    7.11
  -4  -5  -1   27.60    5.55
   4   5   1   35.55    6.32
   4   5   1   35.59    7.18
   4   5   1   41.82    6.58
  -4  -5  -1   27.98    6.10
   4   5   2  375.21   21.70
  -4  -5  -2  366.86   21.98
   4   5   2  383.69   21.71
  -4  -5  -2  372.66   24.16
   4   5   2  409.14   24.27
  -4  -5  -2  352.79   20.71
   4   5   2  356.15   21.10
  -4  -5  -3   41.22    8.07
   4   5   3   44.51    7.75
  -4  -5  -3   42.42    7.48
   4   5   3   38.02    6.76
   4   5   3   29.71    5.72
   4   5   3   41.32    7.14
   4   5   3   54.62    8.34
  -4  -5  -3   35.91    6.08
   4   5   4    5.54    2.61
  -4  -5  -4   14.58    4.86
  -4  -5  -4    2.53    2.15
   4   5   4    4.29    2.18
   4   5   4    9.68    3.51
   4   5   4    8.70    3.06
  -4  -5  -4    9.95    2.72
   4   5   4   11.71    4.41
   4   5   5   11.50    3.09
   4   5   5   13.42    3.90
  -4  -5  -5   20.66    5.51
   4   5   5   12.23    4.00
  -4  -5  -5   14.10    5.31
  -4  -5  -5   10.47    2.00
   4   5   5   18.52    4.96
   4   5   5   12.98    4.85
   4   5   6  298.03   23.16
   4   5   6  276.15   19.17
  -4  -5  -6  264.57   13.16
  -4  -5  -6  283.45   23.71
   4   5   6  279.88   20.48
   4   5   6  263.38   15.29
   4   5   7    4.19    1.92
   4   5   7    1.15    2.59
  -4  -5  -7    1.91    1.53
  -4  -5  -7    4.26    3.94
   4   5   8    0.08    2.13
   4   5   8    1.38    1.24
   4   5   8    0.87    1.05
   4   5   9   17.41    6.09
  -4  -5  -9    9.76    5.10
  -4  -5  -9    6.87    3.03
   4   5   9   11.55    2.93
   4   5  10   53.76   10.88
  -4  -5 -10   74.77   14.41
  -4  -5 -10   49.35    8.66
   4   5  11   10.22    5.42
  -4  -5 -11    5.18    4.00
   4   5  12   52.93   11.61
  -4  -5 -12   15.88    7.37
   4   5  13    4.68    3.70
  -4  -5 -13   -1.11    2.45
   4   5  14   10.42    6.17
  -4  -5 -14   21.39    9.52
  -4  -6   9    7.48    4.53
   4   6  -8    6.60    4.00
  -4  -6   8    8.20    4.72
  -4  -6   7    0.89    4.10
   4   6  -7    1.42    3.03
  -4  -6   7    2.91    2.45
  -4  -6   6    8.94    5.94
   4   6  -6    6.72    4.22
  -4  -6   6    7.68    4.44
  -4  -6   5   -0.32    2.18
   4   6  -5   -0.23    2.33
  -4  -6   5    0.79    1.65
   4   6  -4  200.50   20.83
  -4  -6   4  135.54   13.55
  -4  -6   4  171.07   16.64
   4   6  -4  176.77   12.21
  -4  -6   4  153.14   19.15
  -4  -6   3    6.43    3.50
   4   6  -3   14.89    5.53
  -4  -6   3   12.66    4.11
   4   6  -3   11.46    3.22
   4   6  -3   12.06    3.23
  -4  -6   3   13.63    4.19
  -4  -6   2    2.25    1.84
  -4  -6   2    6.77    2.69
   4   6  -2   10.89    3.64
  -4  -6   2    5.59    2.81
   4   6  -2    6.29    1.98
  -4  -6   1    9.43    3.52
  -4  -6   1   11.73    3.74
   4   6  -1    8.46    3.33
  -4  -6   1    6.73    2.90
   4   6   0  116.48   12.06
  -4  -6   0  122.14   11.63
  -4  -6   0  107.23   11.65
   4   6   0  132.28   12.13
  -4  -6   0  128.00   13.66
  -4  -6  -1   -0.63    2.11
   4   6   1   -2.13    1.78
   4   6   1    0.03    1.30
  -4  -6  -1   -0.08    1.72
  -4  -6  -2   44.98    8.02
   4   6   2   48.84    7.68
   4   6   2   41.19    7.37
  -4  -6  -2   42.13    7.26
  -4  -6  -2   40.33    8.34
  -4  -6  -3    5.72    2.46
   4   6   3    6.46    2.68
  -4  -6  -3    4.26    3.01
   4   6   3    4.27    2.05
   4   6   3    8.41    3.76
  -4  -6  -3    7.67    3.31
   4   6   4  171.39   16.27
   4   6   4  147.69   13.78
  -4  -6  -4  165.64   16.34
  -4  -6  -4  166.19   17.92
   4   6   4  139.58   13.28
  -4  -6  -4  155.74   12.24
   4   6   4  157.35   12.76
   4   6   5   10.34    3.09
  -4  -6  -5    8.92    4.22
   4   6   5   11.44    4.20
  -4  -6  -5   12.87    3.45
   4   6   5   14.87    5.24
   4   6   6   84.58   12.91
   4   6   6   76.62   10.11
  -4  -6  -6   77.01    6.22
  -4  -6  -6   90.26   13.71
   4   6   6   80.93    8.37
   4   6   7   27.02    4.74
  -4  -6  -7   29.25    4.72
  -4  -6  -7   38.27    9.39
   4   6   7   41.75    9.30
   4   6   8  119.22   15.91
  -4  -6  -8  139.55   18.70
   4   6   8  101.19    8.30
  -4  -6  -9   -1.64    2.84
   4   6   9   -0.04    0.85
  -4  -6  -9    0.32    0.74
   4   6   9    2.89    1.81
   4   6  10    7.04    3.47
  -4  -6 -10    8.72    4.88
   4   6  11    0.92    1.97
  -4  -6 -11   -1.25    4.34
   4   6  12   15.90    6.68
  -4  -6 -12   12.77    6.21
   4   6  13   12.50    6.20
  -4  -6 -13    5.93    4.77
   4   7  -7   -0.28    1.35
  -4  -7   7    1.39    2.34
  -4  -7   6   34.91   11.38
   4   7  -6   29.33    8.78
  -4  -7   6   31.41    7.82
  -4  -7   5    4.58    5.03
   4   7  -5   11.39    5.22
  -4  -7   5    3.74    2.87
  -4  -7   4   28.38    9.66
   4   7  -4   23.50    7.33
  -4  -7   4   20.40    5.63
   4   7  -4   25.50    5.20
  -4  -7   3   -0.41    2.47
   4   7  -3   -2.59    3.92
  -4  -7   3   -1.55    1.42
   4   7  -3    0.35    1.77
  -4  -7   3    7.31    4.12
  -4  -7   2   56.59   10.86
   4   7  -2   48.38    8.06
  -4  -7   2   42.66    7.04
  -4  -7   2   45.53    8.53
  -4  -7   1    2.80    2.47
  -4  -7   1    2.95    1.83
  -4  -7   1    6.37    2.80
   4   7  -1    2.00    1.87
  -4  -7   0   44.36    8.25
   4   7   0   45.79    8.10
  -4  -7   0   45.72    8.74
  -4  -7  -1    1.46    2.15
   4   7   1   -1.48    2.89
   4   7   1    0.11    0.66
  -4  -7  -1   -0.76    1.91
   4   7   2   50.41    7.72
   4   7   2   48.83    8.57
  -4  -7  -2   64.57    9.27
  -4  -7  -3   -0.08    1.66
   4   7   3   -0.07    1.35
   4   7   3   -2.32    1.29
  -4  -7  -3   -2.14    1.51
   4   7   4   81.85   11.86
   4   7   4   86.03   10.52
  -4  -7  -4   84.74   13.29
  -4  -7  -4   88.56    9.71
  -4  -7  -5   35.39    8.87
   4   7   5   31.65    6.63
   4   7   5   40.06    8.94
  -4  -7  -5   36.76    5.81
   4   7   6  122.82   15.29
   4   7   6   85.13   10.92
  -4  -7  -6   85.51    6.04
  -4  -7  -6   94.22   15.32
   4   7   7    1.78    1.53
  -4  -7  -7    0.46    0.92
  -4  -7  -7   -1.20    2.34
  -4  -7  -8   51.62    7.41
  -4  -7  -8   71.72   13.94
   4   7   8   80.36   13.22
   4   7   9    3.25    3.77
  -4  -7  -9    4.20    3.54
  -4  -7 -10   13.18    6.21
   4   7  10    6.68    4.23
  -4  -7 -11   -4.01    3.80
   4   7  11   -2.16    1.91
  -4  -7 -12   18.49    7.99
   4   7  12   23.47    8.08
  -4  -7 -13   -3.15    3.59
   4   7  13    5.44    4.35
   4   8  -6   -6.21    4.12
  -4  -8   5    6.16    4.85
   4   8  -5  -10.34    5.32
  -4  -8   4   21.63    8.70
   4   8  -4   30.79    8.76
  -4  -8   4   19.56    5.47
  -4  -8   3    3.08    3.43
  -4  -8   3    1.94    1.52
   4   8  -3    1.98    1.83
  -4  -8   2   40.74   10.46
  -4  -8   2   49.57    7.45
   4   8  -2   66.46    9.61
  -4  -8   1    1.68    2.66
   4   8  -1    6.94    4.05
   4   8   0   14.14    4.67
  -4  -8   0    7.99    3.91
   4   8   1    8.43    3.56
  -4  -8  -1    1.36    2.12
   4   8   2   68.38   10.93
   4   8   2   81.66    9.31
  -4  -8  -2   82.83   11.13
  -4  -8  -3   -1.16    1.94
   4   8   3    0.51    1.38
   4   8   3    0.28    2.01
  -4  -8  -3    1.20    1.45
  -4  -8  -4   17.30    6.32
   4   8   4   15.44    4.53
   4   8   4   11.59    4.63
  -4  -8  -4   13.15    3.78
  -4  -8  -5    1.40    1.85
   4   8   5    0.69    0.81
   4   8   5   -0.55    1.76
  -4  -8  -5   -1.13    1.55
  -4  -8  -6   34.10    9.44
  -4  -8  -6   46.60    4.12
   4   8   6   43.80    8.01
  -4  -8  -6   51.14    6.56
   4   8   6   54.71   10.91
  -4  -8  -7   -1.12    1.56
   4   8   7    4.10    3.99
  -4  -8  -8   35.26   10.10
   4   8   8   23.80    7.15
  -4  -8  -9    2.82    2.90
   4   8   9    0.86    2.95
   4   8  10   27.90    8.74
  -4  -8 -10   27.11    9.39
   4   8  11    3.38    3.20
  -4  -8 -11    2.91    4.18
  -4  -8 -12   11.01    6.01
   4   8  12   17.49    6.96
  -4  -9   4    8.55    5.94
   4   9  -4    1.51    2.48
  -4  -9   3  -10.77    6.43
  -4  -9   2    6.38    3.57
   4   9  -2   10.12    4.30
  -4  -9   1    3.34    3.66
   4   9  -1    1.70    1.93
  -4  -9   0   60.79   11.44
   4   9   0   43.95    9.66
   4   9   1   12.29    5.24
  -4  -9  -1    6.88    3.54
   4   9   2   11.00    5.17
  -4  -9  -2   14.52    4.94
   4   9   3   -0.58    1.34
  -4  -9  -3   -0.07    1.68
  -4  -9  -4   27.87    8.27
   4   9   4   22.83    6.90
  -4  -9  -4   21.18    5.19
  -4  -9  -5   -1.95    2.77
   4   9   5    0.66    1.87
  -4  -9  -5   -0.75    0.74
  -4  -9  -6    7.17    4.67
   4   9   6   11.22    5.42
  -4  -9  -6   17.40    4.06
  -4  -9  -7    0.15    1.84
   4   9   7    4.28    2.54
  -4  -9  -8   29.61    9.84
   4   9   8   22.14    7.39
  -4  -9  -9   -2.48    3.29
   4   9   9   -2.63    2.83
  -4  -9 -10   14.70    7.53
   4   9  10    1.90    3.05
  -4  -9 -11   -1.09    2.26
  -4 -10   2   -0.43    3.96
  -4 -10   1   -0.68    1.98
   4  10  -1   -0.35    1.66
   4  10  -1    2.54    2.96
  -4 -10   0    8.53    4.44
   4  10   0    4.09    3.83
   4  10   1   -1.51    1.61
  -4 -10  -1    3.62    2.61
   4  10   2   17.30    6.76
  -4 -10  -2   11.95    4.63
   4  10   3    0.95    1.57
  -4 -10  -3   -0.92    1.81
   4  10   4    8.16    4.66
  -4 -10  -4   11.24    3.80
  -4 -10  -4   14.24    5.79
  -4 -10  -5    5.19    3.98
   4  10   5    3.16    3.19
  -4 -10  -5    5.73    2.72
  -4 -10  -6   11.88    5.09
   4  10   6   22.85    7.56
  -4 -10  -7    0.58    2.81
   4  10   7    0.59    1.82
  -4 -10  -8    9.82    5.43
   4  10   8    6.57    4.71
  -4 -10  -9    5.35    4.61
   4  10   9   -3.01    2.87
  -4 -10 -10    5.89    4.29
  -4 -11   1   -9.73    5.92
   4  11   0    1.54    2.27
  -4 -11   0    4.64    4.45
   4  11   1    7.27    4.49
  -4 -11  -1   -0.27    1.10
   4  11   2    2.61    2.43
  -4 -11  -2    7.43    4.22
   4  11   3    3.50    4.04
  -4 -11  -3    1.85    1.58
   4  11   4   17.20    7.09
  -4 -11  -5   -4.31    3.62
   4  11   5   -2.03    3.94
  -4 -11  -6    6.13    4.53
   4  11   6    1.18    2.99
  -4 -11  -7    1.11    1.54
  -4 -11  -8   10.82    6.18
  -4 -12  -6    7.88    4.95
  -5   9   7   -0.86    1.75
  -5   9   6    3.84    3.19
  -5   9   5   -0.94    1.81
  -5   9   4   -4.34    3.87
  -5   9   3    4.98    3.75
  -5   9   2    5.52    4.07
  -5   9   1   -2.01    2.84
  -5   9   0    6.88    4.83
  -5   9  -1   45.03   11.43
  -5   8   8   -1.13    1.94
   5  -8  -7   -0.04    1.19
  -5   8   7    5.04    3.67
  -5   8   7    9.05    5.18
   5  -8  -6   -3.24    2.40
  -5   8   6    3.68    2.66
  -5   8   6   -1.55    2.02
   5  -8  -5   11.36    4.31
  -5   8   5   11.27    4.91
   5  -8  -5   10.82    5.39
  -5   8   5   14.43    6.45
  -5   8   4   -4.05    2.74
   5  -8  -4   -1.17    2.49
  -5   8   4    4.35    3.30
  -5   8   3   11.81    4.51
   5  -8  -3   21.46    8.07
  -5   8   3   16.29    6.12
   5  -8  -2   -0.28    1.30
  -5   8   2    1.80    2.07
   5  -8  -1   24.06    8.73
  -5   8   1   31.54    8.77
   5  -8   0   -1.79    4.02
  -5   8   0    3.73    3.61
   5  -8   1   -1.74    2.72
  -5   8  -1    4.47    3.95
   5  -8   2   -1.98    2.92
  -5   8  -2    0.89    2.98
   5  -8   3   31.16   10.24
  -5   8  -3   25.86    8.26
   5  -8   4   -2.71    3.43
  -5   8  -4    4.25    3.52
  -5   7   9    9.51    5.15
  -5   7   8   -3.79    3.51
   5  -7  -7    5.57    3.37
  -5   7   7    5.87    4.16
  -5   7   7    8.25    4.67
   5  -7  -6   -1.73    1.79
  -5   7   6   -1.39    1.10
  -5   7   6   -1.25    1.10
   5  -7  -5   47.32    8.15
  -5   7   5   32.31    8.71
  -5   7   5   36.10    9.11
   5  -7  -4    1.05    1.78
  -5   7   4   -0.10    1.54
   5  -7  -4    1.13    1.78
  -5   7   4   -2.01    3.44
  -5   7   3   54.06    9.72
   5  -7  -3   55.46   12.22
  -5   7   3   74.88   13.23
   5  -7  -3   66.47    9.11
   5  -7  -2   -1.43    1.71
   5  -7  -2   -2.10    2.80
  -5   7   2    1.60    1.23
  -5   7   2   -4.01    3.45
   5  -7  -1    3.55    3.90
  -5   7   1   -0.34    2.44
   5  -7   0   -6.86    4.49
  -5   7   0    2.40    2.88
   5  -7   1  138.38   20.11
  -5   7  -1  129.26   17.08
   5  -7   2    2.39    1.35
  -5   7  -2    5.90    3.73
   5  -7   3   68.81   14.16
  -5   7  -3   71.25   12.99
   5  -7   4    1.16    2.63
  -5   7  -4   -0.94    2.77
   5  -7   5   13.05    6.46
  -5   7  -5   22.68    7.46
   5  -7   6   -1.55    3.47
  -5   7  -6   -0.70    2.02
  -5   6   9    0.89    2.04
   5  -6  -8    3.40    2.90
  -5   6   8   -1.06    3.08
   5  -6  -7   13.90    4.27
  -5   6   7   15.19    6.50
  -5   6   7   21.99    7.43
   5  -6  -6    2.57    1.91
  -5   6   6    2.19    2.78
  -5   6   6    1.01    2.06
   5  -6  -5   20.11    4.84
  -5   6   5   16.45    5.90
  -5   6   5   30.60    8.12
   5  -6  -4    3.09    2.37
  -5   6   4   -2.45    2.82
  -5   6   4    2.85    2.49
   5  -6  -3   46.18    7.26
  -5   6   3   43.77    8.83
   5  -6  -3   35.88    9.54
  -5   6   3   54.58   10.26
   5  -6  -2    0.94    1.70
  -5   6   2   -0.09    1.63
   5  -6  -2    2.28    2.07
  -5   6   1  164.32   17.43
  -5   6   1  186.27   17.26
   5  -6  -1  212.21   22.83
  -5   6   1  185.67   19.27
   5  -6  -1  194.47   13.86
  -5   6   0    5.26    2.80
   5  -6   0    2.34    1.50
   5  -6   0    4.42    2.41
  -5   6   0    2.29    2.12
  -5   6  -1   40.23    6.86
   5  -6   1   39.45    9.65
   5  -6   1   38.16    6.92
  -5   6  -1   48.48    9.84
   5  -6   2    0.05    3.28
   5  -6   2    2.92    2.15
  -5   6  -2    1.04    1.70
   5  -6   3   72.02    9.92
   5  -6   3   88.14   15.23
  -5   6  -3  106.99   15.09
   5  -6   4    4.49    4.09
  -5   6  -4    0.47    1.80
   5  -6   5   86.52   15.21
  -5   6  -5  102.18   15.45
   5  -6   6   -2.16    2.50
  -5   6  -6    2.55    2.46
   5  -6   7   38.29   10.49
  -5   6  -7   36.44    9.49
   5  -6   8    2.08    2.68
  -5   6  -8    6.36    4.39
  -5   5  10    1.28    3.27
   5  -5  -9    7.76    3.73
  -5   5   9    0.23    2.88
   5  -5  -8    3.13    2.27
  -5   5   8    2.14    2.21
   5  -5  -7    4.95    2.54
  -5   5   7    1.33    3.01
  -5   5   7    5.89    3.56
   5  -5  -6    0.68    0.98
  -5   5   6    2.18    2.15
   5  -5  -5   19.89    4.53
  -5   5   5   21.86    6.99
  -5   5   5   12.21    4.68
   5  -5  -4    3.16    1.99
  -5   5   4    0.59    1.41
   5  -5  -4   -0.91    1.22
  -5   5   4    2.50    1.91
   5  -5  -3  110.72   11.77
  -5   5   3  128.73   15.46
  -5   5   3  131.80   15.14
   5  -5  -3  161.04   12.31
  -5   5   2   24.33    6.46
   5  -5  -2   23.01    7.07
   5  -5  -2   21.72    5.39
  -5   5   2   25.47    6.73
   5  -5  -2   18.42    4.28
   5  -5  -2   38.07    5.90
   5  -5  -1   20.26    4.10
   5  -5  -1   15.92    3.46
  -5   5   1   13.75    4.44
  -5   5   1   16.74    5.36
   5  -5  -1   17.40    4.53
   5  -5  -1   11.56    5.30
   5  -5  -1   14.86    4.54
  -5   5   1   19.41    5.58
   5  -5   0    4.38    1.81
  -5   5   0   -0.85    1.48
  -5   5   0    2.85    1.87
   5  -5   0   -0.69    1.17
   5  -5   0    2.90    2.00
   5  -5   0    3.76    1.44
  -5   5   0    4.33    2.78
   5  -5   1   63.65    9.32
   5  -5   1   74.48   12.90
  -5   5  -1   85.81   12.48
   5  -5   1   66.34    3.32
   5  -5   1   74.26    6.96
  -5   5  -2    1.46    1.20
   5  -5   2    0.59    1.11
   5  -5   2   -1.85    3.88
  -5   5  -2    1.03    1.80
  -5   5  -3  216.08   12.09
   5  -5   3  215.69   17.86
   5  -5   3  242.01   23.64
  -5   5  -3  234.15   21.23
   5  -5   4   -0.32    1.03
   5  -5   4   -0.81    2.16
  -5   5  -4    1.73    3.30
   5  -5   5   23.83    7.00
  -5   5  -5   45.41    9.98
   5  -5   6    1.70    1.91
  -5   5  -6   -3.21    2.40
   5  -5   7  100.94   16.16
  -5   5  -7  112.98   15.81
   5  -5   8   -1.68    2.76
  -5   5  -8    4.60    3.94
   5  -5   9   67.56   14.17
  -5   5  -9   69.51   12.92
  -5   4  10   -2.60    1.82
   5  -4  -9    5.61    3.01
  -5   4   9    9.19    5.55
   5  -4  -8    0.78    1.48
  -5   4   8    1.84    2.56
   5  -4  -7   25.26    5.39
  -5   4   7   22.69    7.63
  -5   4   7   26.41    6.88
   5  -4  -6    5.64    2.69
  -5   4   6    3.16    2.63
  -5   4   6   -0.48    2.75
   5  -4  -5   19.30    4.45
  -5   4   5   10.96    5.09
  -5   4   5   12.82    4.58
   5  -4  -5   13.44    3.62
   5  -4  -4    8.43    3.16
  -5   4   4    9.10    4.63
   5  -4  -4    3.40    1.70
  -5   4   4    2.86    1.81
   5  -4  -3   31.73    5.37
  -5   4   3   30.30    7.68
   5  -4  -3   20.44    4.44
  -5   4   3   19.91    5.30
   5  -4  -2    1.76    1.67
  -5   4   2    3.93    2.47
  -5   4   2   -0.58    2.53
   5  -4  -2    0.08    0.73
  -5   4   2    0.50    1.59
  -5   4   1  137.17   13.62
   5  -4  -1  125.51   11.94
  -5   4   1  122.28   13.99
   5  -4  -1  138.34   13.97
   5  -4  -1  127.16   15.34
   5  -4  -1  127.37   10.94
  -5   4   1  141.88   14.65
   5  -4  -1  143.36   10.35
   5  -4   0    3.83    1.86
  -5   4   0    2.59    1.46
   5  -4   0    4.00    1.68
  -5   4   0   -1.51    3.00
   5  -4   0    2.27    1.67
   5  -4   0    5.45    2.83
   5  -4   0    3.31    2.75
  -5   4   0    2.20    1.32
   5  -4   1   34.52    6.82
   5  -4   1   40.43    7.70
   5  -4   1   39.13    8.78
   5  -4   1   43.25    4.98
  -5   4  -1   40.47    7.76
   5  -4   1   41.00    4.73
   5  -4   2    5.45    1.51
  -5   4  -2    5.54    2.14
   5  -4   2    3.27    1.13
   5  -4   2    2.62    2.14
   5  -4   2    3.38    2.92
  -5   4  -2    3.05    1.80
  -5   4  -3   26.36    4.07
   5  -4   3   30.38    7.82
   5  -4   3   29.05    6.41
  -5   4  -3   25.34    6.85
   5  -4   4    0.11    1.13
   5  -4   4    3.67    2.85
  -5   4  -4   -1.31    1.78
   5  -4   5  264.83   20.93
   5  -4   5  256.31   23.63
  -5   4  -5  234.65   21.59
   5  -4   6    2.45    2.15
  -5   4  -6    9.31    4.61
  -5   4  -7   56.33    5.79
   5  -4   7   69.08   12.93
  -5   4  -7   52.48   10.44
   5  -4   8   -3.12    3.72
  -5   4  -8   -1.58    2.93
   5  -4   9   65.56   13.71
  -5   4  -9   55.25   10.89
   5  -4  10    2.10    2.82
  -5   4 -10   -0.78    2.49
   5  -3 -10    2.09    2.69
  -5   3  10   -0.73    4.08
   5  -3  -9   17.55    4.91
  -5   3   9    7.58    5.39
   5  -3  -8    0.34    1.23
  -5   3   8    2.41    2.42
   5  -3  -7   26.77    5.69
  -5   3   7   19.82    6.83
  -5   3   7   23.33    4.96
   5  -3  -6    3.56    2.51
  -5   3   6    3.44    2.34
  -5   3   6    1.46    1.73
   5  -3  -5   52.10    5.99
  -5   3   5   51.65   10.55
  -5   3   5   56.38    8.02
   5  -3  -5   71.11    8.51
   5  -3  -4    7.40    2.97
  -5   3   4    5.00    3.44
   5  -3  -4    8.04    2.35
  -5   3   4    5.73    2.89
   5  -3  -3   72.87    7.43
  -5   3   3   83.63   12.53
  -5   3   3   85.88    9.85
   5  -3  -3   78.22    8.24
   5  -3  -2    0.28    0.96
  -5   3   2    4.48    3.03
  -5   3   2    2.26    1.95
   5  -3  -2    0.48    0.62
  -5   3   2    0.24    1.23
   5  -3  -1   39.45    6.05
  -5   3   1   32.35    6.38
   5  -3  -1   37.71    6.23
  -5   3   1   36.95    7.63
   5  -3  -1   30.77    7.45
   5  -3  -1   42.60    7.76
   5  -3  -1   40.89    7.71
  -5   3   1   37.92    6.58
   5  -3  -1   39.34    5.37
   5  -3   0   16.03    3.43
  -5   3   0   16.08    4.09
   5  -3   0   16.99    3.89
  -5   3   0   14.96    4.82
   5  -3   0   15.19    4.03
   5  -3   0   19.57    5.24
   5  -3   0   17.37    5.70
  -5   3   0   11.11    3.97
   5  -3   1   48.98    7.38
   5  -3   1   58.57    9.39
  -5   3  -1   48.11    8.34
   5  -3   1   44.44    8.67
   5  -3   1   39.50    5.46
  -5   3  -1   56.15    8.60
   5  -3   1   43.44    4.94
   5  -3   2    7.17    1.91
  -5   3  -2    4.91    2.13
   5  -3   2    4.07    1.72
   5  -3   2    6.90    3.40
   5  -3   2    3.45    1.76
  -5   3  -2    8.62    3.79
   5  -3   2    8.37    3.53
   5  -3   3  208.42   18.16
   5  -3   3  208.63   20.08
  -5   3  -3  235.84   19.13
   5  -3   3  226.43   18.31
   5  -3   3  220.07   11.32
   5  -3   3  202.77    8.74
   5  -3   4    3.28    2.89
   5  -3   4    4.06    3.14
  -5   3  -4    2.00    2.00
   5  -3   5   82.29   11.74
   5  -3   5   87.81   12.96
  -5   3  -5   71.49    6.85
  -5   3  -5   71.90   11.18
  -5   3  -6    0.61    1.10
   5  -3   6    0.92    1.86
  -5   3  -6   -1.25    2.10
   5  -3   7   91.02   14.29
  -5   3  -7   86.44    8.74
  -5   3  -7   85.69   12.53
   5  -3   8    0.43    2.53
  -5   3  -8   -0.67    1.00
  -5   3  -8    2.51    2.42
   5  -3   9   61.54   12.51
  -5   3  -9   50.30    7.43
  -5   3  -9   41.60    9.16
  -5   3 -10    1.26    1.25
   5  -3  10    6.86    4.72
  -5   3 -10    4.27    3.30
   5  -3  11   34.20   10.89
  -5   3 -11   26.01    7.60
  -5   2  11    2.10    2.81
   5  -2 -10    1.38    1.24
  -5   2  10    2.95    3.02
  -5   2  10    1.74    2.11
   5  -2  -9   17.50    5.21
  -5   2   9   10.87    6.19
  -5   2   9   10.21    4.37
   5  -2  -8    2.89    0.99
  -5   2   8    2.89    2.62
   5  -2  -7   58.36    8.49
  -5   2   7   52.05   11.29
  -5   2   7   44.15    8.48
   5  -2  -6    1.86    1.98
  -5   2   6    3.17    2.60
  -5   2   6    4.56    2.45
  -5   2   6    2.72    1.12
   5  -2  -5   19.60    4.47
  -5   2   5   27.01    7.51
  -5   2   5   20.27    3.46
   5  -2  -4   -1.83    2.53
  -5   2   4    4.73    2.99
  -5   2   4    2.67    1.43
   5  -2  -4    2.23    1.11
   5  -2  -3  105.59    9.82
  -5   2   3   91.09   11.83
   5  -2  -3   95.51    7.10
  -5   2   3  107.95   13.90
  -5   2   3  104.79    8.98
   5  -2  -2    1.22    1.81
  -5   2   2    0.35    1.64
  -5   2   2   -1.58    2.69
   5  -2  -2   -0.01    0.79
   5  -2  -2    0.38    0.80
  -5   2   2    1.01    0.90
   5  -2  -2    2.49    2.70
   5  -2  -1  507.96   20.51
   5  -2  -1  455.83   23.73
  -5   2   1  472.15   25.21
   5  -2  -1  458.28   20.08
  -5   2   1  476.91   28.45
   5  -2  -1  502.51   27.54
  -5   2   1  483.19   22.12
   5  -2  -1  480.34   26.76
   5  -2   0    8.48    2.47
   5  -2   0    4.06    2.21
  -5   2   0    3.89    2.48
  -5   2   0    6.40    2.56
   5  -2   0    5.29    2.10
   5  -2   0    5.92    2.92
   5  -2   0    4.77    3.14
  -5   2   0    3.22    1.81
   5  -2   0    1.35    1.34
   5  -2   1  179.44   10.45
  -5   2  -1  163.76   15.25
   5  -2   1  174.80   16.30
   5  -2   1  154.24   15.28
   5  -2   1  150.13   11.72
   5  -2   1  140.66   13.95
  -5   2  -1  155.09   13.37
   5  -2   1  156.91   12.87
   5  -2   2    0.32    0.93
   5  -2   2    0.82    0.58
   5  -2   2    0.66    1.80
   5  -2   2    1.51    2.19
   5  -2   2    1.20    1.56
  -5   2  -2    1.31    1.10
   5  -2   2    3.60    2.35
   5  -2   3    3.71    1.20
   5  -2   3    5.27    2.95
   5  -2   3    4.60    2.67
   5  -2   3    3.32    1.44
  -5   2  -3    3.40    2.08
   5  -2   3    1.25    1.27
   5  -2   4    9.14    2.42
   5  -2   4    5.83    1.28
   5  -2   4    4.90    3.26
   5  -2   4    0.17    1.50
  -5   2  -4    2.97    2.19
   5  -2   4    4.46    2.33
  -5   2  -4    1.79    1.02
   5  -2   5   84.96   12.25
   5  -2   5   85.15   12.06
  -5   2  -5   71.88    7.90
  -5   2  -5   72.43   10.40
  -5   2  -6    2.87    1.82
   5  -2   6   -0.40    1.37
  -5   2  -6    0.35    2.16
   5  -2   7  158.22   17.63
  -5   2  -7  146.06   12.44
  -5   2  -7  164.90   16.58
   5  -2   8    5.57    3.48
  -5   2  -8    6.31    3.17
  -5   2  -8    3.34    2.35
   5  -2   9  174.26   20.55
  -5   2  -9  186.72   18.86
  -5   2  -9  157.11   14.22
  -5   2 -10    0.79    1.41
   5  -2  10    1.61    3.49
  -5   2 -10    1.22    2.51
  -5   2 -11   21.70    5.93
   5  -2  11   12.68    6.09
  -5   2 -11   21.50    6.88
  -5   2 -12    2.15    1.72
   5  -2  12    1.70    2.03
  -5   2 -12   -1.94    3.09
  -5   1  11    1.83    3.20
   5  -1 -10   -2.49    2.51
  -5   1  10    0.71    1.87
   5  -1  -9    4.81    2.39
  -5   1   9    1.71    2.84
  -5   1   9    8.93    4.09
   5  -1  -8    0.43    1.43
  -5   1   8   -1.18    1.22
  -5   1   8    1.85    2.53
   5  -1  -7   16.59    4.98
  -5   1   7   24.64    8.30
  -5   1   7   20.06    5.93
   5  -1  -6   25.98    5.82
  -5   1   6   12.36    5.75
  -5   1   6   25.75    6.78
   5  -1  -5  158.95   13.78
  -5   1   5  153.87   17.88
  -5   1   5  164.66   15.87
   5  -1  -4   20.94    4.99
  -5   1   4   21.45    6.82
  -5   1   4   18.28    2.50
  -5   1   4   26.83    6.56
   5  -1  -3  212.64   14.80
  -5   1   3  202.16   18.01
   5  -1  -3  198.05    7.57
  -5   1   3  172.38   17.72
  -5   1   3  215.69   17.08
  -5   1   3  205.35   10.62
   5  -1  -2    4.04    1.67
  -5   1   2    4.04    2.43
  -5   1   2    2.42    2.72
   5  -1  -2    7.37    1.82
   5  -1  -2    6.65    3.03
  -5   1   2    3.97    1.44
   5  -1  -2    4.01    1.73
   5  -1  -1   81.21    8.32
  -5   1   1   69.68    9.49
   5  -1  -1   79.92    7.08
  -5   1   1   74.25   10.72
   5  -1  -1   86.18   10.91
   5  -1  -1   72.85    9.47
  -5   1   1   70.47    7.29
   5  -1  -1   82.49   10.86
  -5   1   0   -1.98    2.52
   5  -1   0   -0.25    0.84
   5  -1   0    0.12    0.68
   5  -1   0   -0.92    0.84
   5  -1   0   -1.70    2.01
  -5   1   0    0.18    1.03
   5  -1   0    1.59    0.98
   5  -1   0   -0.94    1.30
   5  -1   1  190.84   11.55
  -5   1  -1  191.73   16.72
   5  -1   1  210.55   17.60
   5  -1   1  182.02   15.43
   5  -1   1  181.08   13.88
  -5   1  -1  198.00   13.66
   5  -1   1  187.17   15.56
   5  -1   1  185.63   13.23
   5  -1   2    9.29    2.25
   5  -1   2    4.12    2.50
   5  -1   2    4.58    2.54
  -5   1  -2    4.38    2.17
   5  -1   2    4.72    2.78
   5  -1   2    5.69    2.35
   5  -1   2    4.26    2.20
   5  -1   3  293.96   12.62
   5  -1   3  315.61   22.47
   5  -1   3  282.61   20.04
   5  -1   3  235.71   17.35
  -5   1  -3  268.86   17.87
   5  -1   3  272.05   18.26
   5  -1   3  304.79   16.95
  -5   1  -4   -0.63    0.65
   5  -1   4   -0.84    1.34
   5  -1   4    0.38    0.83
   5  -1   4   -0.92    1.72
   5  -1   4    3.80    3.01
  -5   1  -4   -2.50    2.36
   5  -1   4    0.30    1.08
   5  -1   5   62.70    4.22
   5  -1   5   72.09   11.31
   5  -1   5   66.14    9.98
  -5   1  -5   61.74    9.23
  -5   1  -5   65.12    8.22
  -5   1  -5   60.88    8.98
   5  -1   5   61.77    9.47
   5  -1   5   68.46    7.59
  -5   1  -6    7.70    2.77
   5  -1   6    5.89    3.25
  -5   1  -6   10.13    4.10
  -5   1  -6    4.26    2.47
   5  -1   7  160.25   16.74
  -5   1  -7  140.82   13.07
  -5   1  -7  159.82   15.90
   5  -1   8    2.36    3.09
  -5   1  -8   -2.13    2.07
  -5   1  -8   -1.13    1.31
   5  -1   9   56.78   11.12
  -5   1  -9   60.03    9.01
  -5   1  -9   60.89   10.58
  -5   1 -10    2.45    2.45
   5  -1  10   -0.36    1.34
  -5   1 -10    0.66    2.51
   5  -1  11   90.60   15.92
  -5   1 -11   77.37   12.70
  -5   1 -11   65.48   10.92
   5  -1  12   -1.24    1.71
  -5   1 -12   -0.91    1.01
  -5   1 -12    3.05    1.61
   5  -1  13   13.84    7.99
  -5   1 -13   10.68    4.71
  -5   1 -13   16.23    6.20
  -5   1 -14    4.49    3.21
  -5   0  11    5.02    4.50
   5   0 -10    3.25    1.95
  -5   0  10    3.62    5.70
  -5   0  10    0.64    1.27
   5   0  -9   21.60    5.68
  -5   0   9   29.16   10.28
  -5   0   9   10.26    4.73
   5   0  -8    4.00    3.06
  -5   0   8    3.31    4.08
  -5   0   8    1.48    1.99
   5   0  -7   63.11    9.27
  -5   0   7   51.51   11.75
  -5   0   7   54.24   10.02
   5   0  -6    4.98    3.47
  -5   0   6   -0.77    1.83
  -5   0   6    4.67    2.40
   5   0  -5   13.52    3.95
  -5   0   5   14.51    5.60
  -5   0   5   15.71    5.27
   5   0  -4   24.43    5.48
  -5   0   4   17.97    6.22
  -5   0   4   29.40    6.63
   5   0  -3   57.24    7.77
  -5   0   3   56.40    9.85
  -5   0   3   65.47    9.70
   5   0  -2    0.96    0.76
   5   0  -2   -1.42    2.47
  -5   0   2   -0.82    2.16
   5   0  -2    1.03    0.52
   5   0  -2   -0.39    1.82
  -5   0   2    1.02    0.91
  -5   0   2    3.30    2.01
   5   0  -2    1.13    1.78
   5   0  -2    5.69    3.49
   5   0  -1  392.08   20.41
  -5   0   1  354.99   24.19
   5   0  -1  380.21   23.74
   5   0  -1  393.83   15.57
   5   0  -1  385.83   23.47
  -5   0   1  402.50   16.57
  -5   0   1  406.21   23.29
   5   0  -1  378.96   24.57
   5   0  -1  370.63   15.62
   5   0   0   35.55    5.61
   5   0   0   36.71    6.82
  -5   0   0   34.70    7.13
   5   0   0   33.83    7.13
   5   0   0   32.42    5.75
  -5   0   0   34.65    4.93
   5   0   0   30.90    4.63
   5   0   0   41.11    7.63
   5   0   1  492.65   21.26
  -5   0  -1  451.38   26.13
   5   0   1  496.96   27.54
   5   0   1  443.36   22.94
   5   0   1  464.88   24.23
  -5   0  -1  494.34   21.25
   5   0   1  478.94   25.95
   5   0   1  443.22   20.09
   5   0   2   43.13    5.76
   5   0   2   47.21    8.35
  -5   0  -2   43.31    7.90
   5   0   2   47.40    7.37
  -5   0  -2   48.09    6.72
   5   0   2   41.34    7.34
   5   0   2   53.01    7.02
   5   0   2   35.26    6.15
   5   0   3  136.46    9.76
   5   0   3  137.98   14.48
   5   0   3  121.42   12.07
  -5   0  -3  118.88   11.52
  -5   0  -3  122.15   11.39
   5   0   3   96.54   10.93
   5   0   3  131.58   11.97
   5   0   3  131.65   11.68
  -5   0  -4    4.51    2.76
   5   0   4    8.13    2.19
   5   0   4    5.04    3.14
   5   0   4    7.48    3.18
   5   0   4    2.67    1.29
  -5   0  -4    9.53    3.40
   5   0   4    3.96    1.91
   5   0   4    9.72    3.40
   5   0   5  171.13    9.84
   5   0   5  190.84   18.34
   5   0   5  178.12   15.35
  -5   0  -5  179.73   15.04
  -5   0  -5  180.95   15.21
   5   0   5  166.35   15.07
  -5   0  -5  170.02   14.44
   5   0   5  168.39   12.86
   5   0   6    2.75    1.95
   5   0   6   -0.14    0.39
   5   0   6   -0.84    2.09
  -5   0  -6    0.51    1.61
  -5   0  -6    0.13    0.92
  -5   0  -6    0.03    1.35
   5   0   7    2.51    0.74
   5   0   7    1.85    1.62
  -5   0  -7    5.63    2.94
  -5   0  -7    9.52    3.59
  -5   0  -7    7.93    3.76
   5   0   8    3.68    0.65
   5   0   8    1.88    0.58
   5   0   8    2.75    2.12
  -5   0  -8    4.17    2.35
  -5   0  -8    5.80    3.19
   5   0   9  169.16   18.77
  -5   0  -9  155.55   16.74
  -5   0  -9  147.66   15.18
  -5   0 -10   -0.37    1.94
   5   0  10    0.91    2.06
  -5   0 -10    5.87    4.17
  -5   0 -11   51.28    9.98
   5   0  11   37.49   10.41
  -5   0 -11   52.90   10.62
  -5   0 -12    3.67    3.54
   5   0  12    0.96    2.56
  -5   0 -12   -2.75    2.14
   5   0  13   14.54    6.61
   5   0  13    4.44    4.65
  -5   0 -13   13.25    5.59
  -5   0 -13   15.30    6.60
  -5   0 -14    0.19    3.91
  -5   0 -15    8.95    5.33
  -5  -1  11    7.77    4.91
   5   1 -10    8.93    4.11
  -5  -1  10   -2.96    4.02
  -5  -1  10    2.56    3.38
   5   1  -9   17.02    5.13
  -5  -1   9   17.94    8.71
  -5  -1   9    8.55    4.42
   5   1  -8   -0.13    1.53
  -5  -1   8   -0.07    1.13
  -5  -1   8    0.82    1.89
   5   1  -7    7.56    3.27
  -5  -1   7    1.52    2.31
  -5  -1   7    1.98    1.82
   5   1  -6   -0.92    1.59
  -5  -1   6    4.05    2.88
  -5  -1   6    4.93    3.35
   5   1  -5  109.61   12.14
  -5  -1   5   95.05   14.16
  -5  -1   5  103.47   13.13
   5   1  -4   14.73    4.06
  -5  -1   4   12.94    4.56
  -5  -1   4   15.33    5.07
   5   1  -3  201.27   15.91
  -5  -1   3  195.51   18.78
  -5  -1   3  163.98   16.05
   5   1  -2    2.82    2.07
   5   1  -2    7.71    4.12
   5   1  -2    8.36    3.54
  -5  -1   2    0.29    1.35
   5   1  -2    7.11    3.43
  -5  -1   2    3.18    2.48
   5   1  -1   86.29    9.69
   5   1  -1   79.54    6.20
  -5  -1   1   78.81   11.05
   5   1  -1   84.66   10.80
   5   1  -1   89.26   11.61
  -5  -1   1   91.94   11.10
   5   1  -1   80.12    6.04
   5   1  -1   87.39   11.68
   5   1   0   16.69    3.42
   5   1   0   25.14    5.13
   5   1   0   20.01    5.22
  -5  -1   0   13.60    4.59
   5   1   0   17.37    4.97
   5   1   0   17.59    3.88
  -5  -1   0   23.65    4.03
  -5  -1   0   17.84    4.56
   5   1   0   16.65    3.12
   5   1   0   22.82    5.71
   5   1   1  166.67   13.05
  -5  -1  -1  161.85   15.10
   5   1   1  155.67   14.99
   5   1   1  178.42   12.22
   5   1   1  149.28   11.57
   5   1   1  165.90   14.60
  -5  -1  -1  170.40   11.90
   5   1   1  155.27   10.91
   5   1   1  163.85   15.12
   5   1   2   65.39    7.76
  -5  -1  -2   52.51    8.77
   5   1   2   58.53    9.26
   5   1   2   60.90    7.77
   5   1   2   56.23    7.20
   5   1   2   55.90    8.09
  -5  -1  -2   69.46    7.98
   5   1   2   60.03    7.17
   5   1   2   59.00    8.77
   5   1   3  537.01   23.31
   5   1   3  550.52   29.65
   5   1   3  585.89   25.91
   5   1   3  545.13   24.11
  -5  -1  -3  551.57   27.27
  -5  -1  -3  561.11   25.30
   5   1   3  514.71   25.51
   5   1   3  571.22   25.24
   5   1   3  557.97   27.44
  -5  -1  -4    6.22    3.02
   5   1   4    6.41    2.18
   5   1   4    9.87    3.20
   5   1   4    5.99    2.29
  -5  -1  -4   13.75    4.07
   5   1   4   11.77    3.97
   5   1   4   14.15    4.07
   5   1   5   70.16   10.86
  -5  -1  -5   72.15    9.96
  -5  -1  -5   74.88    9.41
   5   1   5   58.27    8.41
   5   1   5   78.75   10.00
   5   1   5   75.42    8.96
   5   1   5   73.97    8.69
   5   1   6    3.13    2.00
   5   1   6    0.49    1.04
  -5  -1  -6    2.65    1.69
  -5  -1  -6   -1.48    1.88
  -5  -1  -6   -1.72    2.09
   5   1   6    1.60    1.56
   5   1   6    5.20    2.81
   5   1   7   85.88   11.20
  -5  -1  -7   93.85   11.65
  -5  -1  -7   83.17   10.91
  -5  -1  -7   84.40   10.99
   5   1   7   79.06    5.83
   5   1   8   11.39    1.97
   5   1   8   12.25    4.83
  -5  -1  -8    9.60    4.13
  -5  -1  -8   12.30    4.62
  -5  -1  -8    7.52    3.67
   5   1   9   50.60   10.07
  -5  -1  -9   53.31    9.48
  -5  -1  -9   53.39    9.60
   5   1   9   48.39    3.99
  -5  -1 -10    1.79    2.18
   5   1  10    4.49    3.19
   5   1  10    2.85    2.45
  -5  -1 -10    4.38    3.25
  -5  -1 -11   52.40   10.82
   5   1  11   44.20   10.02
   5   1  11   28.69    9.10
  -5  -1 -11   50.45   10.18
   5   1  12    2.52    3.11
  -5  -1 -12    4.07    3.64
   5   1  12    6.55    5.45
  -5  -1 -12    5.41    3.81
   5   1  13   10.57    5.05
   5   1  13   11.46    7.07
  -5  -1 -13   17.98    7.23
  -5  -1 -13   20.22    6.84
  -5  -1 -14   -2.52    1.81
  -5  -2  10    5.02    3.92
   5   2  -9   12.86    4.42
  -5  -2   9   13.20    5.96
   5   2  -8   -0.08    1.86
  -5  -2   8   -1.46    2.05
  -5  -2   8    3.93    2.50
   5   2  -7   49.35    8.75
  -5  -2   7   56.38   12.53
  -5  -2   7   42.07    9.18
   5   2  -6    2.28    2.32
  -5  -2   6    2.69    2.52
  -5  -2   6   -0.46    1.46
   5   2  -5    9.94    3.78
   5   2  -5   12.31    5.07
  -5  -2   5   20.27    6.38
  -5  -2   5    8.75    4.21
   5   2  -4   -0.11    1.21
   5   2  -4   -1.31    1.83
  -5  -2   4   -3.75    4.00
  -5  -2   4    2.78    3.71
   5   2  -3   40.25    7.31
  -5  -2   3   31.04    7.10
  -5  -2   3   55.29    9.12
   5   2  -2   25.82    6.09
  -5  -2   2   23.22    6.14
  -5  -2   2   28.56    6.39
   5   2  -1  487.98   25.20
   5   2  -1  445.92   15.79
  -5  -2   1  392.93   25.41
   5   2  -1  443.09   25.35
   5   2  -1  442.83   27.47
  -5  -2   1  485.59   26.60
   5   2  -1  406.53   14.16
   5   2  -1  423.63   26.75
   5   2   0    3.03    2.45
   5   2   0   -1.08    2.33
   5   2   0   -3.42    2.29
  -5  -2   0    0.01    1.70
   5   2   0    0.26    0.98
  -5  -2   0    0.43    2.27
   5   2   0    1.48    1.21
   5   2   0    0.06    0.76
   5   2   1  117.91   11.48
  -5  -2  -1  114.35   12.61
   5   2   1  119.47   10.23
   5   2   1  122.94   13.08
   5   2   1  113.33    8.98
   5   2   1  131.65   13.55
  -5  -2  -1  145.35   13.16
   5   2   1  125.50    9.39
   5   2   1  132.59   13.88
   5   2   2   13.84    3.38
   5   2   2   12.22    3.66
  -5  -2  -2   14.96    4.66
   5   2   2   18.22    5.06
   5   2   2   10.35    2.51
   5   2   2   11.89    3.76
   5   2   2   10.17    2.92
   5   2   2   20.06    5.41
   5   2   3  228.59   18.31
   5   2   3  196.72   15.38
   5   2   3  205.66   12.40
  -5  -2  -3  197.71   16.53
  -5  -2  -3  215.22   15.12
   5   2   3  224.93   15.07
   5   2   3  212.22   16.54
   5   2   3  220.10   17.06
  -5  -2  -4   -0.80    1.92
   5   2   4    1.56    2.67
   5   2   4   -0.70    1.59
   5   2   4    0.02    1.78
   5   2   4    1.29    0.78
  -5  -2  -4    0.35    1.41
   5   2   4    0.54    0.73
   5   2   4    2.77    1.87
   5   2   5  239.40   19.93
   5   2   5  259.08   18.70
   5   2   5  255.55   16.02
  -5  -2  -5  238.12   15.15
  -5  -2  -5  280.21   20.73
  -5  -2  -5  299.00   19.34
   5   2   5  265.29   18.66
   5   2   5  247.60   17.84
   5   2   5  268.79   17.82
   5   2   6    7.22    2.59
   5   2   6    8.16    3.36
  -5  -2  -6    4.04    2.71
  -5  -2  -6   14.71    4.94
   5   2   6   11.70    4.16
   5   2   6    5.62    2.79
   5   2   6    9.89    3.10
  -5  -2  -7  120.57   12.44
   5   2   7  125.29   14.03
   5   2   7  144.64   14.68
  -5  -2  -7  146.62   15.30
  -5  -2  -7  127.68   13.69
   5   2   7  112.48   11.88
   5   2   7  136.11   12.45
   5   2   8   15.72    2.84
   5   2   8   11.42    4.44
   5   2   8   15.73    5.43
  -5  -2  -8   20.40    5.64
  -5  -2  -8   21.22    5.99
   5   2   8   14.83    4.04
  -5  -2  -8   13.74    4.73
  -5  -2  -9   48.85    9.62
   5   2   9   50.46    9.84
   5   2   9   50.78   10.36
  -5  -2  -9   38.31    7.88
   5   2   9   44.50    7.04
  -5  -2  -9   60.41   10.19
   5   2   9   47.31    4.84
   5   2  10    3.51    1.34
  -5  -2 -10    4.94    3.98
   5   2  10    2.76    2.50
   5   2  10    7.91    4.98
  -5  -2 -10    3.65    3.07
  -5  -2 -11   80.71   14.10
   5   2  11   87.64   14.37
   5   2  11   82.87   15.55
  -5  -2 -11   87.00   13.54
   5   2  12   -5.06    4.50
  -5  -2 -12    4.04    3.11
   5   2  12    2.82    3.44
   5   2  13    8.30    5.78
  -5  -2 -13    0.86    2.02
  -5  -2 -14   -1.86    2.95
   5   3  -9    1.59    1.37
  -5  -3   9   10.64    6.45
  -5  -3   9   10.46    5.69
   5   3  -8    0.75    1.27
  -5  -3   8   -3.10    3.33
   5   3  -7    3.32    2.31
  -5  -3   7    3.32    3.36
  -5  -3   7    0.76    2.01
   5   3  -6   -1.31    1.28
  -5  -3   6   -1.51    1.39
   5   3  -5   18.35    5.43
   5   3  -5   15.16    5.00
  -5  -3   5   17.18    6.37
  -5  -3   5   22.10    6.42
   5   3  -4   24.05    6.13
   5   3  -4   33.09    6.91
  -5  -3   4   24.22    6.92
  -5  -3   4   29.46    7.48
   5   3  -3  212.88   18.18
  -5  -3   3  197.99   18.63
   5   3  -3  155.29   14.09
  -5  -3   3  194.27   18.17
   5   3  -2   -0.51    2.63
   5   3  -2   -1.10    1.60
   5   3  -2    0.11    0.36
  -5  -3   2   -1.41    2.37
   5   3  -2    0.06    0.19
  -5  -3   2   -0.86    1.64
   5   3  -1   22.15    5.48
  -5  -3   1   19.74    5.46
   5   3  -1   14.07    4.35
   5   3  -1   20.21    3.31
   5   3  -1   17.51    2.67
  -5  -3   1   16.93    5.62
   5   3   0    2.97    2.58
  -5  -3   0    7.44    3.14
   5   3   0    0.85    2.10
   5   3   0    9.19    3.81
   5   3   0    2.01    1.96
   5   3   0    1.74    0.94
   5   3   0    5.84    2.00
   5   3   0    2.31    1.38
  -5  -3   0    3.27    2.07
   5   3   1  393.03   20.52
  -5  -3  -1  392.59   24.03
   5   3   1  393.06   23.97
   5   3   1  405.50   14.59
   5   3   1  372.88   24.33
   5   3   1  410.32   18.21
  -5  -3  -1  408.07   23.50
   5   3   1  391.83   25.04
   5   3   2    7.31    3.01
   5   3   2    3.88    2.42
   5   3   2    3.97    1.18
   5   3   2    3.67    1.76
   5   3   2    8.40    2.65
  -5  -3  -2    8.62    3.78
   5   3   2   10.28    3.71
   5   3   3   90.73   10.48
   5   3   3   80.07   10.72
   5   3   3   93.06    6.80
  -5  -3  -3   83.65   11.23
   5   3   3   88.82    9.45
   5   3   3   86.28   10.88
   5   3   3   83.07   10.67
   5   3   4   25.77    6.01
  -5  -3  -4   14.98    5.02
   5   3   4   20.30    5.18
   5   3   4   24.70    6.15
   5   3   4   23.55    3.96
   5   3   4   20.47    4.82
   5   3   4   22.68    5.47
   5   3   5  416.28   26.27
   5   3   5  456.96   26.81
   5   3   5  469.64   21.80
  -5  -3  -5  428.90   18.85
  -5  -3  -5  451.63   28.38
   5   3   5  469.77   25.39
   5   3   5  429.73   24.26
   5   3   5  453.87   24.62
   5   3   6    8.62    5.74
   5   3   6    5.47    2.78
  -5  -3  -6    0.19    1.88
  -5  -3  -6    0.82    0.72
   5   3   6    0.60    1.86
   5   3   6    3.88    2.62
   5   3   7   38.13    8.14
   5   3   7   43.38    8.01
  -5  -3  -7   41.21    8.50
   5   3   7   36.10    6.66
   5   3   8   -0.46    0.78
   5   3   8   -1.74    2.87
   5   3   8    4.68    3.46
  -5  -3  -8    0.07    1.17
   5   3   8   -0.46    0.97
  -5  -3  -8   -3.54    3.46
   5   3   9   99.54   13.98
   5   3   9  100.64   14.83
  -5  -3  -9   95.13   11.97
  -5  -3  -9   91.74   13.79
   5   3   9   97.55   10.77
   5   3   9   97.31    8.03
   5   3  10    1.45    1.14
  -5  -3 -10   -3.29    3.24
   5   3  10    3.49    4.06
   5   3  10    0.50    0.90
  -5  -3 -11   54.22   12.43
   5   3  11   45.65   10.40
   5   3  12    2.45    3.29
  -5  -3 -12   -0.53    1.74
   5   3  13   38.52   10.70
  -5  -3 -13   43.55   13.12
  -5  -3 -14    0.60    3.48
  -5  -4   9   -3.67    3.83
   5   4  -8    1.25    2.07
  -5  -4   8   -0.43    1.46
  -5  -4   8    0.63    3.39
   5   4  -7   23.37    6.70
  -5  -4   7   17.53    6.91
  -5  -4   7   20.14    6.43
   5   4  -6   11.86    4.67
  -5  -4   6    4.35    3.24
  -5  -4   6    5.66    3.93
   5   4  -5   29.37    7.32
  -5  -4   5   26.06    7.30
  -5  -4   5   20.12    6.32
   5   4  -4   -4.58    3.00
   5   4  -4    2.42    1.88
  -5  -4   4   -3.00    3.13
  -5  -4   4    1.94    2.31
   5   4  -3   -0.55    2.96
   5   4  -3    4.99    2.28
  -5  -4   3    5.50    3.42
  -5  -4   3    1.79    1.88
   5   4  -2   11.51    4.66
   5   4  -2    8.14    2.21
  -5  -4   2    3.55    2.55
   5   4  -2    7.44    2.33
   5   4  -2    8.05    1.73
  -5  -4   2    5.86    3.75
   5   4  -1  442.20   27.60
   5   4  -1  385.86   17.53
  -5  -4   1  396.45   25.09
   5   4  -1  363.47   14.91
   5   4  -1  398.27   24.89
   5   4  -1  402.81   16.06
  -5  -4   1  435.18   26.79
   5   4   0   25.74    2.65
   5   4   0   23.00    2.43
  -5  -4   0   17.59    4.96
   5   4   0   36.72    7.24
   5   4   0   30.94    5.47
   5   4   0   26.98    4.41
  -5  -4   0   25.25    6.82
   5   4   1   61.63    7.83
  -5  -4  -1   63.25    9.27
   5   4   1   58.34    9.14
   5   4   1   61.33    7.21
   5   4   1   63.68    9.81
  -5  -4  -1   51.73    8.61
   5   4   2    6.65    3.45
   5   4   2   12.42    4.16
   5   4   2    7.03    3.00
  -5  -4  -2    8.75    3.89
   5   4   2    6.70    3.00
   5   4   3  279.88   19.97
   5   4   3  235.89   18.89
  -5  -4  -3  234.53   20.11
   5   4   3  266.82   17.35
  -5  -4  -3  273.05   18.14
   5   4   3  242.77   18.65
   5   4   4    0.08    1.78
   5   4   4    3.48    1.45
  -5  -4  -4    5.90    3.23
   5   4   4   -0.80    2.20
   5   4   4    1.95    1.63
   5   4   5   59.87    9.96
   5   4   5   54.00    9.28
  -5  -4  -5   47.48    9.52
   5   4   5   53.86    8.53
   5   4   5   59.29    8.71
   5   4   6   -2.27    3.10
  -5  -4  -6   -0.43    2.94
  -5  -4  -6    3.57    1.85
   5   4   6    2.39    1.23
   5   4   7  103.84   13.61
  -5  -4  -7  112.23   10.31
  -5  -4  -7  116.35   15.33
   5   4   7  110.71   11.48
   5   4   8   -0.19    1.87
  -5  -4  -8    1.22    2.39
   5   4   8   -0.57    1.38
   5   4   9   23.33    4.22
   5   4   9   22.88    6.84
  -5  -4  -9   24.50    5.77
   5   4   9   18.54    4.33
  -5  -4  -9   27.60    8.12
  -5  -4 -10   14.52    5.89
   5   4  10   12.65    3.06
   5   4  10    7.16    3.97
  -5  -4 -10    8.79    3.82
   5   4  10    7.75    2.74
   5   4  11   95.58   15.22
  -5  -4 -11   99.45   17.38
   5   4  12   -0.66    1.65
  -5  -4 -12    0.22    2.67
   5   4  13   17.19    7.41
  -5  -4 -13    7.69    5.58
  -5  -4 -14    0.94    2.55
  -5  -5   9   11.76    7.10
   5   5  -8   -1.39    2.03
  -5  -5   8    1.90    2.89
   5   5  -7    7.78    4.04
  -5  -5   7    8.70    4.65
  -5  -5   7   13.33    5.97
   5   5  -6    5.92    3.41
  -5  -5   6   -0.39    1.62
  -5  -5   6    0.47    2.15
   5   5  -5   11.65    5.19
  -5  -5   5   11.77    5.79
  -5  -5   5   -2.15    2.42
   5   5  -4   11.68    5.23
  -5  -5   4   12.82    5.03
  -5  -5   4    2.05    3.50
   5   5  -3   66.79   11.35
  -5  -5   3   55.72    6.59
  -5  -5   3   48.39    9.21
   5   5  -3   56.75    4.90
  -5  -5   3   67.47   11.68
   5   5  -2   40.20    5.93
   5   5  -2   48.26    9.84
  -5  -5   2   36.03    5.57
   5   5  -2   30.09    4.23
  -5  -5   2   31.03    7.15
   5   5  -2   36.90    4.69
  -5  -5   2   31.13    7.20
   5   5  -1   -1.57    1.75
  -5  -5   1    0.32    1.66
   5   5  -1   -0.11    1.10
   5   5  -1   -0.15    0.63
   5   5  -1    0.38    0.94
   5   5  -1   -0.39    1.29
  -5  -5   1    2.30    2.33
  -5  -5   0    1.63    1.92
   5   5   0   -0.39    1.15
   5   5   0   -0.70    1.46
   5   5   0   -1.98    1.52
  -5  -5   0    1.11    2.23
   5   5   1  170.12   13.98
  -5  -5  -1  158.18   14.95
   5   5   1  145.68   14.77
  -5  -5  -1  150.82   12.99
   5   5   1  154.02   12.36
  -5  -5  -1  158.69   15.38
   5   5   2   13.39    4.67
  -5  -5  -2   10.34    3.52
   5   5   2    8.17    3.35
   5   5   2    9.15    3.20
   5   5   2    7.38    3.40
  -5  -5  -2   10.07    3.98
   5   5   3  104.41   12.36
   5   5   3   93.87   11.89
  -5  -5  -3  111.83   11.79
  -5  -5  -3  116.48   14.72
   5   5   3   91.34   10.58
  -5  -5  -3  108.26   11.63
   5   5   3   93.98   11.53
   5   5   4   24.51    5.74
  -5  -5  -4   19.84    6.06
   5   5   4   21.58    5.77
   5   5   4   22.78    5.39
  -5  -5  -4   28.94    6.12
   5   5   4   27.27    7.07
   5   5   5   87.15   13.24
   5   5   5   59.62    9.56
  -5  -5  -5   84.38   13.26
   5   5   5   70.61   10.25
   5   5   5   66.29    9.18
   5   5   6    0.62    1.12
   5   5   6   -3.16    3.49
  -5  -5  -6   -2.80    2.88
  -5  -5  -6    0.50    0.84
   5   5   7   73.11   12.02
  -5  -5  -7   72.58    7.58
  -5  -5  -7   85.59   13.98
   5   5   7   69.06    8.77
   5   5   8   -1.74    2.79
  -5  -5  -8    0.23    0.99
  -5  -5  -8    4.74    3.58
   5   5   8    4.03    2.17
   5   5   9   15.78    5.78
  -5  -5  -9   15.35    4.56
  -5  -5  -9   19.95    7.68
   5   5   9   15.23    3.66
   5   5  10   -2.04    2.54
  -5  -5 -10    2.64    1.47
  -5  -5 -10    1.56    3.29
  -5  -5 -11   17.24    7.53
   5   5  11   28.83    8.75
   5   5  12    5.69    5.38
  -5  -5 -12   -3.98    4.02
   5   5  13   17.33    7.18
  -5  -5 -13    8.50    6.49
  -5  -6   8    0.03    2.35
   5   6  -7    7.43    4.78
  -5  -6   7    8.15    5.24
   5   6  -6    4.99    4.97
  -5  -6   6    3.68    3.56
  -5  -6   6   -1.36    2.98
   5   6  -5   46.94   11.05
  -5  -6   5   33.81    8.29
  -5  -6   5   30.30    9.38
   5   6  -4    4.33    3.23
  -5  -6   4    3.15    3.12
  -5  -6   4   10.64    5.53
   5   6  -3   -1.54    2.06
  -5  -6   3    3.11    2.43
  -5  -6   3    2.82    3.76
   5   6  -2    0.05    3.11
   5   6  -2    3.28    1.84
  -5  -6   2    0.02    1.20
  -5  -6   2    0.97    1.65
  -5  -6   1   13.76    4.15
  -5  -6   1   13.87    4.32
   5   6  -1   19.26    4.65
   5   6  -1   15.02    3.67
  -5  -6   1   13.19    5.14
  -5  -6   0   14.36    4.18
  -5  -6   0    9.55    3.74
   5   6   0   19.28    4.84
   5   6   0   14.80    4.60
   5   6   0   16.43    3.95
  -5  -6   0   14.90    5.53
   5   6   1   94.34   11.20
  -5  -6  -1   81.21   10.20
   5   6   1   78.49   10.84
   5   6   1   65.44    8.24
  -5  -6  -1   81.39   11.36
  -5  -6  -2    4.86    2.82
   5   6   2    2.87    1.81
   5   6   2    5.09    2.82
   5   6   2    4.35    2.35
  -5  -6  -2   10.65    3.96
  -5  -6  -3   20.63    6.51
   5   6   3   16.90    4.95
  -5  -6  -3   16.39    4.96
   5   6   3   16.11    4.92
   5   6   3   18.01    4.60
   5   6   3   22.64    5.94
  -5  -6  -3   18.47    4.82
   5   6   4   13.79    4.38
  -5  -6  -4   24.84    7.13
   5   6   4   24.25    6.13
   5   6   4   24.78    5.88
  -5  -6  -4   20.77    5.19
   5   6   4   19.49    5.76
   5   6   5  157.70   17.47
   5   6   5  128.23   14.59
  -5  -6  -5  164.61   19.60
  -5  -6  -5  164.53   13.53
   5   6   5  133.40   13.00
   5   6   6   14.96    4.18
  -5  -6  -6   21.34    7.37
   5   6   6   18.11    6.59
   5   6   7   20.57    4.61
  -5  -6  -7   28.66    4.11
  -5  -6  -7   20.42    7.08
   5   6   7   25.05    8.03
   5   6   8   -1.87    1.38
  -5  -6  -8   -0.30    0.77
  -5  -6  -8   -0.79    3.13
   5   6   8    1.73    2.04
   5   6   9    7.61    4.93
  -5  -6  -9   34.14    9.98
   5   6  10   -1.52    4.37
  -5  -6 -10   -2.33    3.92
   5   6  11   10.34    5.15
  -5  -6 -11    7.81    6.05
   5   6  12    7.82    5.63
  -5  -6 -12   -0.81    1.60
   5   6  13   12.37    5.62
  -5  -6 -13   21.88    9.63
  -5  -7   6   -2.04    2.22
   5   7  -5    9.15    5.08
  -5  -7   5   10.81    4.96
  -5  -7   5    6.55    4.40
   5   7  -4    0.67    2.04
  -5  -7   4   -1.57    1.64
   5   7  -3   37.96   10.06
  -5  -7   3   33.30    7.71
  -5  -7   3   34.95    9.51
   5   7  -2    9.98    4.85
   5   7  -2    3.89    2.29
  -5  -7   2   -0.88    1.75
   5   7  -2    6.56    2.75
  -5  -7   2    9.88    4.44
  -5  -7   1   20.07    5.25
  -5  -7   1   24.33    5.82
   5   7  -1   21.21    5.26
  -5  -7   1   24.73    6.91
  -5  -7   0   -0.71    1.54
   5   7   0   -0.15    1.23
  -5  -7   0    3.30    2.98
  -5  -7  -1    4.25    3.06
   5   7   1    2.12    1.42
   5   7   1    4.91    3.01
  -5  -7  -1    2.86    2.40
   5   7   2   -0.02    1.28
   5   7   2    1.98    1.97
   5   7   2    0.46    0.60
  -5  -7  -2    0.60    1.00
   5   7   3   94.04   12.39
   5   7   3   95.49   12.38
  -5  -7  -3  104.92   15.17
  -5  -7  -3   99.09   11.92
  -5  -7  -4    6.49    3.72
   5   7   4    9.78    4.12
   5   7   4   12.05    4.89
  -5  -7  -4    8.15    3.25
   5   7   5   12.27    3.77
  -5  -7  -5   12.30    5.69
   5   7   5   12.55    4.55
   5   7   5   18.42    6.07
  -5  -7  -5   20.92    5.11
   5   7   6    3.88    2.49
  -5  -7  -6   10.29    5.65
   5   7   6    3.91    3.99
  -5  -7  -7   50.66   12.06
   5   7   7   43.86   10.19
  -5  -7  -8    3.55    4.22
   5   7   8    6.02    4.33
  -5  -7  -9   19.92    8.01
   5   7   9   14.53    5.76
  -5  -7 -10    7.00    4.68
   5   7  10    9.69    5.50
  -5  -7 -11   10.99    6.27
   5   7  11    9.19    5.56
  -5  -7 -12   -0.77    2.57
   5   7  12    5.04    4.87
   5   8  -4   -0.03    1.33
  -5  -8   4    0.28    3.21
   5   8  -3   21.48    7.81
  -5  -8   3   16.55    5.12
  -5  -8   3   21.82    8.16
  -5  -8   2    0.59    1.34
  -5  -8   2   12.63    6.31
   5   8  -1    5.35    3.29
  -5  -8   1   16.83    6.60
   5   8   0    3.75    2.72
  -5  -8   0    4.04    3.27
   5   8   1   32.41    7.81
  -5  -8  -1   28.08    7.08
   5   8   2    1.05    1.47
  -5  -8  -2    0.21    2.66
   5   8   3    9.16    4.23
  -5  -8  -3   12.37    4.31
  -5  -8  -4   -0.45    2.31
   5   8   4    0.84    3.07
  -5  -8  -4   -0.54    1.48
  -5  -8  -5   22.20    7.82
   5   8   5   22.76    7.04
  -5  -8  -5   29.56    6.06
  -5  -8  -6    6.31    4.07
   5   8   6    5.22    4.12
  -5  -8  -6   -0.27    1.36
  -5  -8  -7   30.20    9.45
   5   8   7   38.39    9.66
  -5  -8  -8    8.07    6.30
   5   8   8    9.29    5.19
  -5  -8  -9   23.29    8.94
   5   8   9    8.97    4.85
  -5  -8 -10    2.26    3.02
   5   8  10    3.97    4.32
  -5  -8 -11   -4.07    4.43
   5   8  11    8.58    4.77
  -5  -9   2    7.80    5.35
   5   9  -1    8.83    4.16
  -5  -9   1   24.40    8.04
   5   9   0    7.02    4.54
  -5  -9   0   -2.01    2.32
   5   9   1   11.50    5.26
  -5  -9  -1    9.85    4.43
   5   9   2    0.57    1.81
  -5  -9  -2    1.29    1.58
   5   9   3   13.42    5.32
  -5  -9  -3   12.91    4.56
   5   9   4   -0.46    2.34
  -5  -9  -4    0.45    1.01
  -5  -9  -4    4.72    3.60
  -5  -9  -5   21.49    8.07
   5   9   5   15.50    6.11
  -5  -9  -5   12.93    4.11
  -5  -9  -6    1.99    3.40
   5   9   6    1.52    2.25
  -5  -9  -6    3.89    2.47
  -5  -9  -7    1.11    2.82
   5   9   7    3.38    3.09
  -5  -9  -8  -13.38    6.88
   5   9   8    2.51    2.39
  -5  -9  -9    2.72    3.01
   5   9   9    5.75    5.01
  -5  -9 -10    0.52    4.98
   5   9  10    4.82    4.40
  -5 -10   1   -0.35    2.22
   5  10   0    1.95    2.96
  -5 -10   0    5.04    3.74
   5  10   1    1.43    1.71
  -5 -10  -1    7.61    4.38
   5  10   2    5.03    3.44
  -5 -10  -2   -1.23    1.74
   5  10   3    6.26    4.52
  -5 -10  -3    5.45    3.22
   5  10   4    0.69    1.72
  -5 -10  -4    5.10    3.08
  -5 -10  -5   15.09    6.37
   5  10   5   14.59    6.04
  -5 -10  -6   -2.87    3.31
   5  10   6    0.41    2.34
  -5 -10  -7    4.11    3.40
   5  10   7   -1.32    3.45
  -5 -10  -8    2.87    3.38
   5  10   8   -2.82    2.13
   5  11   1   -5.34    4.26
  -5 -11  -1   -0.53    1.53
   5  11   2    3.34    2.90
  -5 -11  -2   -0.02    0.91
   5  11   3    5.99    4.25
   5  11   4   -0.41    1.99
   6  -8  -5   -2.85    2.36
  -6   8   5    3.68    3.50
   6  -8  -4    5.99    2.97
  -6   8   4    4.70    3.89
  -6   8   3    3.26    3.13
  -6   8   2   -0.80    3.32
  -6   8   1   -2.94    3.11
  -6   8   0   -0.32    1.37
  -6   8  -1   -1.14    3.04
  -6   7   7   -1.25    2.03
   6  -7  -6    6.71    3.22
  -6   7   6    8.56    5.08
   6  -7  -5    1.96    1.57
  -6   7   5    2.16    3.36
  -6   7   5    0.62    1.52
   6  -7  -4   12.45    4.20
  -6   7   4    8.08    4.24
   6  -7  -4   17.15    7.45
  -6   7   4    7.15    4.44
   6  -7  -3   -1.02    1.73
  -6   7   3   -3.54    2.79
   6  -7  -3   -2.37    3.55
  -6   7   3    0.70    2.99
   6  -7  -2   11.01    3.01
  -6   7   2   17.44    5.94
   6  -7  -2   10.86    5.82
  -6   7   2   14.46    6.22
   6  -7  -1   -1.44    2.49
  -6   7   1    4.00    3.37
   6  -7   0   27.28    9.35
  -6   7   0   21.30    7.76
   6  -7   1    3.55    3.25
  -6   7  -1    3.22    3.75
   6  -7   2    8.34    5.64
  -6   7  -2   13.35    6.06
   6  -7   3    2.33    3.01
  -6   7  -3    1.92    2.45
   6  -7   4   21.21    7.86
  -6   7  -4   16.70    6.54
  -6   6   8    8.19    4.81
   6  -6  -7    6.50    3.20
  -6   6   7    2.43    2.58
   6  -6  -6    7.28    3.22
  -6   6   6   15.36    6.28
   6  -6  -5   -0.33    1.12
  -6   6   5    1.54    2.19
   6  -6  -4   40.61    6.93
  -6   6   4   34.87    9.06
  -6   6   4   21.38    7.43
   6  -6  -3    1.49    1.57
  -6   6   3   -0.89    1.56
  -6   6   3   -3.66    3.04
   6  -6  -2   42.75    7.11
  -6   6   2   27.74    7.36
   6  -6  -2   34.67    9.81
  -6   6   2   27.58    8.05
   6  -6  -1    3.74    1.98
   6  -6  -1    2.64    2.63
  -6   6   1    2.25    2.56
   6  -6   0   14.69    3.74
   6  -6   0   20.70    7.38
  -6   6   0   21.00    7.03
   6  -6   1    1.56    1.51
  -6   6  -1    1.48    2.45
   6  -6   2   75.02   14.71
  -6   6  -2   68.72   12.64
   6  -6   3    3.52    2.47
  -6   6  -3   -2.29    3.00
   6  -6   4   35.18   10.40
  -6   6  -4   33.68    9.16
   6  -6   5   -2.16    2.93
  -6   6  -5    3.82    3.90
   6  -6   6    6.46    4.62
  -6   6  -6   10.79    5.54
  -6   5   8    0.03    1.36
   6  -5  -7   -0.01    1.13
  -6   5   7    4.08    3.43
   6  -5  -6   19.38    4.89
  -6   5   6    2.65    2.46
   6  -5  -5    3.32    2.16
  -6   5   5   -2.43    3.11
  -6   5   5    0.28    1.77
   6  -5  -4   22.15    5.03
  -6   5   4    8.80    5.12
  -6   5   4   12.11    5.11
   6  -5  -3    4.68    1.92
  -6   5   3    7.38    4.41
   6  -5  -3    0.65    1.53
  -6   5   3   -1.06    2.54
  -6   5   2   61.35   11.14
   6  -5  -2   48.43   10.78
  -6   5   2   34.15    8.30
   6  -5  -2   58.96    7.81
   6  -5  -1    2.00    1.91
  -6   5   1    0.85    2.32
   6  -5  -1    1.33    2.43
  -6   5   1    0.55    1.44
  -6   5   0   46.76    8.44
  -6   5   0   40.09    8.97
   6  -5   0   44.73   10.91
  -6   5   0   57.18   10.61
   6  -5   0   39.42    5.76
   6  -5   1   -0.84    1.18
  -6   5  -1    2.28    2.14
   6  -5   1    1.48    1.90
  -6   5  -1    2.39    2.32
   6  -5   2   60.30   12.61
  -6   5  -2   44.70    9.53
   6  -5   2   43.58    5.19
   6  -5   3   -3.46    4.17
  -6   5  -3   -2.53    3.38
   6  -5   4  104.94   16.78
  -6   5  -4   80.15   13.34
   6  -5   5    4.59    3.94
  -6   5  -5   -1.42    2.28
   6  -5   6   55.72   12.19
  -6   5  -6   67.56   12.64
   6  -5   7    3.63    4.45
  -6   5  -7   -1.69    2.50
   6  -5   8   13.20    7.25
  -6   5  -8    5.77    4.12
   6  -4  -8    7.83    3.89
  -6   4   8    7.63    4.67
   6  -4  -7    1.03    2.08
  -6   4   7   10.11    5.22
   6  -4  -6   18.88    5.03
  -6   4   6    9.48    5.13
   6  -4  -5    1.10    1.75
  -6   4   5    1.24    2.48
  -6   4   5   -0.12    1.47
   6  -4  -4   20.91    4.80
  -6   4   4   19.89    6.96
  -6   4   4   20.45    5.65
   6  -4  -3    1.78    1.96
  -6   4   3   -2.02    2.18
  -6   4   3    0.54    1.09
   6  -4  -2   12.95    4.13
   6  -4  -2   21.10    4.57
  -6   4   2   22.84    7.06
   6  -4  -2   18.75    6.37
   6  -4  -2   17.36    4.45
  -6   4   2   21.51    5.99
   6  -4  -1   17.49    4.01
   6  -4  -1   14.63    4.11
  -6   4   1   20.14    6.38
   6  -4  -1   20.01    5.29
   6  -4  -1   11.61    5.03
  -6   4   1   17.87    5.44
  -6   4   0   55.79    8.92
  -6   4   0   51.14    9.84
   6  -4   0   43.78    7.61
   6  -4   0   46.19    6.65
   6  -4   0   48.26   10.53
  -6   4   0   61.11   10.16
   6  -4   0   56.64    6.67
   6  -4   1   11.07    3.06
   6  -4   1   10.59    2.87
  -6   4  -1    8.52    3.12
   6  -4   1    8.92    5.05
  -6   4  -1    4.02    2.61
   6  -4   2  109.71   16.03
  -6   4  -2  103.43   13.57
   6  -4   2  105.36    7.82
   6  -4   3    1.05    0.73
   6  -4   3   -2.30    3.32
  -6   4  -3    2.57    2.17
   6  -4   4  112.07   16.41
  -6   4  -4  115.74   15.26
   6  -4   5   -6.07    3.97
  -6   4  -5    1.40    2.18
   6  -4   6   37.75    9.69
  -6   4  -6   45.87    9.86
   6  -4   7    1.83    1.21
  -6   4  -7   -2.10    2.64
   6  -4   8   34.62    9.94
  -6   4  -8   31.68    8.59
   6  -4   9    0.60    2.36
  -6   4  -9    2.84    3.26
   6  -3  -8    2.05    1.99
  -6   3   8    4.26    4.29
   6  -3  -7    1.97    2.32
  -6   3   7    2.85    2.61
   6  -3  -6   10.65    3.87
  -6   3   6   14.72    6.34
   6  -3  -5   -0.12    1.19
  -6   3   5   -1.54    2.33
  -6   3   5   -0.52    0.84
   6  -3  -4   13.89    3.94
  -6   3   4    9.26    4.55
  -6   3   4   13.48    3.88
   6  -3  -3    0.34    0.94
  -6   3   3    2.01    2.11
  -6   3   3    2.37    2.27
   6  -3  -2   90.87    9.13
  -6   3   2  101.94   14.70
   6  -3  -2   75.17   10.18
  -6   3   2  105.68   11.47
   6  -3  -2   82.30    8.71
   6  -3  -1    3.86    1.75
   6  -3  -1    2.01    1.65
  -6   3   1    1.80    2.08
  -6   3   1    0.56    1.47
   6  -3  -1    4.38    2.18
   6  -3  -1    4.88    3.15
  -6   3   1    3.82    2.71
   6  -3   0   38.80    6.65
  -6   3   0   39.92    7.55
  -6   3   0   44.00    9.00
   6  -3   0   38.44    6.71
   6  -3   0   46.41    9.53
  -6   3   0   38.13    7.26
   6  -3   0   46.99    5.96
   6  -3   1   11.92    3.05
  -6   3  -1   10.63    3.71
  -6   3  -1    6.16    3.26
   6  -3   1   11.90    4.17
   6  -3   1    4.15    3.75
   6  -3   1   10.25    3.46
  -6   3  -1   11.39    4.43
   6  -3   2   16.88    3.27
   6  -3   2   18.72    4.26
   6  -3   2   18.93    6.04
  -6   3  -2   18.74    5.41
   6  -3   3    0.56    0.70
   6  -3   3    0.59    0.85
   6  -3   3    0.71    1.72
  -6   3  -3   -1.57    2.30
   6  -3   4   86.86   13.53
  -6   3  -4   93.51   12.83
   6  -3   4   80.78    7.30
   6  -3   4   81.81    5.10
   6  -3   5    4.34    3.28
  -6   3  -5    6.80    4.25
   6  -3   6  135.40   17.57
  -6   3  -6  143.59   16.92
  -6   3  -7    2.89    1.97
   6  -3   7   -0.34    3.11
  -6   3  -7    1.67    1.97
   6  -3   8   60.25   12.38
  -6   3  -8   48.54    7.10
  -6   3  -8   63.97   11.63
   6  -3   9   -0.93    1.20
  -6   3  -9    3.33    2.66
   6  -3  10   21.91    8.66
  -6   3 -10   19.03    6.88
  -6   2  10    4.99    3.81
  -6   2   9   -2.07    2.35
   6  -2  -8    1.15    1.36
  -6   2   8    4.92    4.68
   6  -2  -7    3.07    1.91
  -6   2   7   -6.12    4.20
   6  -2  -6   22.41    5.38
  -6   2   6   19.43    6.79
   6  -2  -5   -0.84    2.02
  -6   2   5   -1.56    2.41
   6  -2  -4   63.41    8.52
  -6   2   4   53.53   11.19
  -6   2   4   58.49    6.47
   6  -2  -3   -3.12    2.59
  -6   2   3    3.62    3.32
   6  -2  -3    3.01    1.40
  -6   2   3    1.51    1.43
   6  -2  -2    3.51    2.38
   6  -2  -2    9.97    3.18
  -6   2   2    7.00    3.99
   6  -2  -2    6.08    1.95
  -6   2   2    4.32    1.98
   6  -2  -1    0.22    0.73
   6  -2  -1    0.87    0.89
  -6   2   1    0.55    1.14
  -6   2   1    1.81    2.09
   6  -2  -1    1.88    1.58
   6  -2  -1   -0.64    2.80
  -6   2   1   -0.28    0.94
   6  -2   0   46.63    5.96
   6  -2   0   39.71    6.38
   6  -2   0   39.99    7.18
  -6   2   0   37.53    8.32
   6  -2   0   37.68    8.07
  -6   2   0   33.17    6.08
   6  -2   1    0.29    1.06
  -6   2  -1    4.24    2.72
   6  -2   1    2.68    2.15
   6  -2   1    0.06    0.83
  -6   2  -1   -0.44    2.23
   6  -2   1    4.51    2.53
   6  -2   2  114.84    8.60
   6  -2   2  108.53   14.10
   6  -2   2  103.71   10.68
  -6   2  -2  117.94   12.44
   6  -2   2  116.70   12.48
   6  -2   3   -0.43    0.91
   6  -2   3   -1.42    1.70
   6  -2   3    1.38    2.29
  -6   2  -3   -2.16    2.78
   6  -2   4   83.21   12.49
  -6   2  -4   77.70   10.86
   6  -2   4   72.82    8.20
   6  -2   4   74.75    5.53
   6  -2   5    2.58    0.78
   6  -2   5    1.43    0.70
  -6   2  -5    2.15    2.00
   6  -2   6   79.56   12.84
  -6   2  -6   87.17    9.72
  -6   2  -6   85.44   12.14
  -6   2  -7    6.67    3.03
   6  -2   7    1.42    1.61
  -6   2  -7    5.34    3.09
   6  -2   8  118.35   16.57
  -6   2  -8  119.73   12.59
  -6   2  -8  104.66   14.66
  -6   2  -9    1.08    1.87
   6  -2   9   -1.06    2.59
  -6   2  -9    0.85    1.33
   6  -2  10   24.69    8.90
  -6   2 -10   18.78    5.36
  -6   2 -10   12.24    4.89
   6  -2  11   -1.15    2.75
  -6   2 -11   -0.15    2.38
  -6   1  10   -0.56    1.54
  -6   1   9   -0.62    2.50
   6  -1  -8    3.00    2.48
  -6   1   8    6.08    4.97
  -6   1   8    4.61    3.57
   6  -1  -7   -3.00    2.00
  -6   1   7   -2.49    2.17
  -6   1   7    2.09    2.39
   6  -1  -6   11.39    3.99
  -6   1   6   13.62    6.21
  -6   1   6   10.52    4.77
   6  -1  -5    2.73    2.15
  -6   1   5    2.16    3.25
  -6   1   5    1.01    2.30
   6  -1  -4   13.56    4.23
  -6   1   4    8.10    1.49
   6  -1  -3    2.99    2.20
  -6   1   3   -2.15    2.29
  -6   1   3    1.19    1.29
   6  -1  -2  145.06   12.66
   6  -1  -2  124.85    7.77
  -6   1   2  112.78   15.39
  -6   1   2  128.81    9.97
   6  -1  -1    0.11    0.80
   6  -1  -1   -0.17    1.76
  -6   1   1   -0.93    3.50
   6  -1  -1    1.08    0.99
  -6   1   1    0.66    1.10
   6  -1   0   99.42    9.43
  -6   1   0   89.06   12.75
   6  -1   0   74.22   10.60
   6  -1   0   86.24   10.99
  -6   1   0   88.21    9.25
   6  -1   1    0.99    1.28
  -6   1  -1    0.94    1.60
   6  -1   1    0.01    1.45
   6  -1   1   -1.88    2.22
  -6   1  -1    1.94    1.14
   6  -1   1    2.54    2.00
   6  -1   2   32.28    4.79
   6  -1   2   32.28    7.22
   6  -1   2   38.96    6.91
  -6   1  -2   37.54    6.58
   6  -1   2   32.66    6.10
   6  -1   3    0.51    0.67
   6  -1   3    2.10    2.06
   6  -1   3    1.63    2.49
  -6   1  -3    0.72    1.05
   6  -1   3    0.66    1.24
   6  -1   4   90.47    7.05
   6  -1   4   80.24   11.54
  -6   1  -4   92.11   11.23
   6  -1   4   88.35    9.82
  -6   1  -5   -0.16    0.73
   6  -1   5   -0.34    0.64
  -6   1  -5   -1.93    1.98
   6  -1   5   -0.34    0.86
   6  -1   6   71.04   11.36
  -6   1  -6   75.38    9.90
  -6   1  -6   77.22   11.18
   6  -1   6   78.01    8.73
   6  -1   6   73.86    4.14
  -6   1  -7    1.38    1.81
   6  -1   7   -2.75    3.04
  -6   1  -7   -0.12    1.59
   6  -1   8   78.03   13.03
  -6   1  -8   72.16   10.41
  -6   1  -8   93.14   13.23
   6  -1   9   -2.49    4.14
  -6   1  -9    0.45    1.20
  -6   1  -9   -2.06    2.32
   6  -1  10   76.00   14.05
  -6   1 -10   71.55   12.61
  -6   1 -10   50.27    9.36
   6  -1  11   -2.90    2.67
  -6   1 -11    3.37    3.60
  -6   1 -11   -0.45    1.59
   6  -1  12    2.08    3.21
  -6   1 -12    0.43    1.82
  -6   1 -12    1.57    1.89
  -6   0   9    2.78    2.75
   6   0  -8    6.89    3.49
  -6   0   8    0.70    1.83
  -6   0   8    8.51    4.79
   6   0  -7    0.38    1.43
  -6   0   7   -0.16    3.12
  -6   0   7    1.43    2.35
   6   0  -6   27.36    6.45
  -6   0   6   10.37    5.78
  -6   0   6   29.36    7.70
   6   0  -5    4.43    2.20
  -6   0   5    8.20    4.89
  -6   0   5    0.26    1.82
   6   0  -4  110.41   12.20
  -6   0   4   89.42   14.49
  -6   0   4  102.98   13.81
   6   0  -3    5.33    2.48
  -6   0   3    6.90    3.99
  -6   0   3   14.94    5.21
   6   0  -2   18.68    2.21
   6   0  -2   20.82    2.11
   6   0  -2   18.78    4.61
  -6   0   2   30.67    7.49
  -6   0   2   25.13    3.66
   6   0  -1   -0.06    1.45
   6   0  -1   -1.35    1.06
   6   0  -1    0.94    1.00
  -6   0   1   -0.15    1.33
  -6   0   1   -0.71    1.26
   6   0   0   25.94    5.25
   6   0   0   27.04    6.73
   6   0   0   17.40    3.66
  -6   0   0   34.63    8.24
   6   0   0   24.81    5.70
  -6   0   0   24.02    4.94
   6   0   0   25.73    4.57
   6   0   1   49.19    6.94
  -6   0  -1   44.07    9.06
   6   0   1   37.77    7.29
   6   0   1   42.84    7.51
  -6   0  -1   54.86    7.53
   6   0   1   55.07    7.31
   6   0   2  227.50   14.65
  -6   0  -2  208.56   19.17
   6   0   2  211.26   17.22
   6   0   2  213.20   17.03
  -6   0  -2  219.27   15.78
   6   0   2  201.23   14.81
   6   0   3    0.23    0.79
   6   0   3   -1.44    1.37
   6   0   3    0.09    1.68
  -6   0  -3    2.74    2.29
   6   0   3   -1.96    1.71
   6   0   4   47.22    5.84
   6   0   4   48.02    8.28
   6   0   4   50.52    7.78
  -6   0  -4   42.19    7.52
   6   0   4   39.50    7.40
  -6   0  -4   43.54    7.57
  -6   0  -5   -1.61    3.01
   6   0   5   -0.82    1.27
   6   0   5   -1.12    1.76
   6   0   5   -0.67    1.42
  -6   0  -5    1.45    2.25
   6   0   6   51.28    5.23
  -6   0  -6   50.53    8.68
   6   0   6   56.88    9.31
  -6   0  -6   57.95    9.35
  -6   0  -6   70.84   10.33
   6   0   6   69.12    8.94
   6   0   7    1.28    0.60
  -6   0  -7    5.76    3.20
   6   0   7    2.40    2.28
  -6   0  -7    3.04    2.29
   6   0   8   59.58    3.08
   6   0   8   59.09   10.71
  -6   0  -8   63.24   10.25
  -6   0  -8   77.59   11.60
   6   0   9    2.41    2.15
  -6   0  -9    2.88    2.41
  -6   0  -9   -1.38    2.52
   6   0  10   64.21   12.64
  -6   0 -10   67.11   11.87
  -6   0 -10   51.59    9.48
   6   0  11   -6.54    5.62
  -6   0 -11   -0.59    2.02
  -6   0 -11    3.94    3.72
   6   0  12   16.17    7.71
  -6   0 -12   10.51    5.56
  -6   0 -12   10.30    4.66
  -6   0 -13    2.51    2.35
   6   0  13    1.71    3.02
  -6   0 -14   15.39    6.34
  -6  -1   9   -0.05    1.83
   6   1  -8    7.00    3.34
  -6  -1   8    0.19    1.62
   6   1  -7    2.37    2.91
  -6  -1   7    7.21    4.99
  -6  -1   7    0.41    2.05
   6   1  -6   17.80    5.26
  -6  -1   6   21.06    7.62
  -6  -1   6   14.23    5.55
   6   1  -5    7.95    3.66
  -6  -1   5    9.97    5.14
  -6  -1   5    8.85    4.25
   6   1  -4   12.11    3.59
  -6  -1   4   12.22    5.76
  -6  -1   4   19.56    5.70
   6   1  -3    0.72    1.48
  -6  -1   3    2.61    2.67
  -6  -1   3    2.57    2.83
   6   1  -2  114.89   12.42
  -6  -1   2   95.04   13.70
  -6  -1   2  120.30   14.38
   6   1  -1   42.02    7.15
  -6  -1   1   20.81    6.57
   6   1  -1   32.92    4.35
  -6  -1   1   34.86    7.65
   6   1  -1   24.25    3.56
   6   1   0  172.20   14.40
  -6  -1   0  139.24   16.06
   6   1   0  153.25   11.41
   6   1   0  138.13   12.56
  -6  -1   0  172.69   12.20
   6   1   0  153.10   10.59
   6   1   1    2.18    1.61
   6   1   1    0.71    1.34
  -6  -1  -1   -0.79    2.06
   6   1   1    0.43    1.34
   6   1   1   -0.78    2.08
  -6  -1  -1    3.36    2.40
   6   1   1    0.83    0.82
   6   1   2    1.82    1.91
   6   1   2    0.43    1.87
  -6  -1  -2    2.99    2.60
   6   1   2    1.59    1.45
  -6  -1  -2    1.77    1.84
   6   1   2    8.16    3.35
   6   1   2    1.59    1.32
   6   1   3   13.75    4.45
   6   1   3   14.88    4.02
   6   1   3    7.97    3.11
   6   1   3   11.12    3.34
  -6  -1  -3   15.47    4.43
   6   1   3    8.13    2.70
   6   1   4  210.31   14.57
   6   1   4  233.71   17.71
   6   1   4  225.31   16.60
  -6  -1  -4  188.58   17.50
  -6  -1  -4  241.35   17.97
   6   1   4  213.92   16.90
   6   1   4  241.53   18.14
  -6  -1  -5    3.84    2.94
   6   1   5    6.01    2.77
   6   1   5    4.53    2.30
   6   1   5    4.73    2.44
  -6  -1  -5    7.28    3.29
   6   1   5    4.14    2.60
   6   1   5    7.03    2.99
  -6  -1  -6   21.67    6.02
   6   1   6   29.96    5.04
   6   1   6   32.07    6.39
  -6  -1  -6   27.56    6.01
  -6  -1  -6   29.62    6.52
   6   1   6   34.04    6.47
   6   1   7   11.83    3.00
  -6  -1  -7   10.83    4.59
   6   1   7   14.13    4.68
  -6  -1  -7    8.27    3.43
  -6  -1  -7   10.21    4.19
   6   1   8   58.21    6.41
   6   1   8   67.41   11.21
   6   1   8   63.32   10.63
  -6  -1  -8   63.09   10.29
  -6  -1  -8   61.74   10.35
   6   1   8   62.89    5.18
   6   1   9    3.24    1.42
   6   1   9    4.48    3.40
   6   1   9    5.23    3.52
  -6  -1  -9    1.95    2.20
  -6  -1  -9    0.26    1.41
   6   1  10   37.74    9.36
   6   1  10   28.18    8.56
  -6  -1 -10   43.04    9.52
  -6  -1 -10   21.72    6.50
   6   1  11   -2.39    1.93
   6   1  11   -5.21    4.43
  -6  -1 -11    0.23    1.76
  -6  -1 -11   -4.04    3.72
   6   1  12    5.90    4.37
   6   1  12    2.25    3.56
  -6  -1 -12   13.40    5.52
  -6  -1 -12    9.16    4.89
  -6  -1 -13   -2.29    2.61
   6   1  13   -3.97    3.18
  -6  -1 -14    1.91    3.66
   6   2  -8    7.73    4.02
  -6  -2   8    2.13    2.05
  -6  -2   8    2.73    2.37
   6   2  -7   -2.25    1.76
  -6  -2   7    1.30    2.63
  -6  -2   7    3.36    2.47
   6   2  -6   11.75    4.37
  -6  -2   6    9.64    4.98
  -6  -2   6    4.93    2.34
   6   2  -5   -1.64    2.90
  -6  -2   5    4.85    3.93
  -6  -2   5   -1.52    2.87
   6   2  -4   43.80    7.96
  -6  -2   4   40.13    9.65
  -6  -2   4   62.48   11.10
   6   2  -3    8.88    4.20
  -6  -2   3   17.00    6.16
  -6  -2   3    9.38    4.69
   6   2  -2  111.98   12.70
  -6  -2   2  106.92   14.54
  -6  -2   2  119.88   14.52
   6   2  -1    3.71    1.77
  -6  -2   1    2.08    2.42
   6   2  -1    4.45    1.65
  -6  -2   1    2.44    1.72
   6   2  -1    3.95    1.37
   6   2   0    0.80    1.07
  -6  -2   0    2.29    2.42
   6   2   0    2.00    1.61
  -6  -2   0    3.78    2.88
   6   2   0   -2.19    1.89
   6   2   0    0.22    1.14
   6   2   1   14.93    4.20
   6   2   1   13.79    4.22
  -6  -2  -1   15.74    5.31
   6   2   1    9.96    3.27
  -6  -2  -1   11.95    4.31
   6   2   1    9.89    2.84
   6   2   2  263.16   18.44
  -6  -2  -2  264.76   21.74
   6   2   2  264.20   18.55
   6   2   2  265.89   16.12
   6   2   2  258.42   15.98
   6   2   3   56.29    9.36
   6   2   3   52.16    7.86
   6   2   3   55.86    7.10
  -6  -2  -3   61.81    8.87
   6   2   3   56.09    7.94
  -6  -2  -4   10.06    3.71
   6   2   4    6.41    2.98
   6   2   4   14.55    3.84
   6   2   4   10.85    3.14
  -6  -2  -4   14.04    4.39
   6   2   4   12.44    4.01
  -6  -2  -5   -0.34    1.75
   6   2   5    5.13    3.37
   6   2   5   -0.30    1.33
  -6  -2  -5    5.64    3.38
   6   2   5    3.07    2.37
   6   2   6  109.16   13.63
   6   2   6  120.23   12.38
  -6  -2  -6  104.30   11.20
  -6  -2  -6  104.47   14.18
  -6  -2  -6  121.73   13.68
   6   2   7   11.80    5.06
  -6  -2  -7    6.52    3.28
   6   2   7    8.07    3.43
  -6  -2  -7    7.11    3.10
  -6  -2  -7    5.49    3.25
   6   2   8   23.87    7.12
   6   2   8   26.57    6.83
  -6  -2  -8   21.24    6.59
  -6  -2  -8   22.16    5.76
  -6  -2  -8   27.44    7.05
   6   2   9    5.74    3.77
   6   2   9    9.00    4.64
  -6  -2  -9    9.26    4.41
  -6  -2  -9   18.54    6.14
   6   2  10   38.93    9.35
   6   2  10   44.47   10.85
  -6  -2 -10   47.24    9.83
  -6  -2 -10   54.05   10.73
   6   2  11   -0.08    2.46
   6   2  11   -1.42    2.21
  -6  -2 -11    4.35    3.16
  -6  -2 -11    0.15    1.79
   6   2  12   17.93    7.25
   6   2  12   11.39    6.20
  -6  -2 -12    7.34    3.91
  -6  -2 -12    8.35    4.82
  -6  -2 -13    2.58    2.10
   6   2  13    1.79    1.71
  -6  -2 -14   -0.04    1.60
  -6  -3   8  -10.81    6.45
   6   3  -7    1.63    1.39
  -6  -3   7   -2.62    4.40
  -6  -3   7    7.23    4.01
   6   3  -6    8.97    4.06
  -6  -3   6    6.55    4.74
  -6  -3   6   14.73    5.73
   6   3  -5   -2.40    2.92
  -6  -3   5    1.71    1.08
  -6  -3   5   -1.04    1.82
   6   3  -4   16.60    5.33
  -6  -3   4    1.52    1.40
  -6  -3   4   13.24    5.33
   6   3  -3    2.15    2.13
   6   3  -3   -2.85    2.14
  -6  -3   3   -1.79    2.36
  -6  -3   3   -0.20    2.20
   6   3  -2   41.42    8.17
   6   3  -2   39.52    7.19
  -6  -3   2   46.82    9.46
  -6  -3   2   42.06    8.87
   6   3  -1   -0.37    1.44
  -6  -3   1    5.42    3.68
   6   3  -1    2.92    1.43
  -6  -3   1    9.85    4.57
   6   3  -1    6.03    1.73
   6   3   0  325.56   22.69
   6   3   0  344.48   17.40
  -6  -3   0  317.18   24.25
   6   3   0  331.30   15.90
  -6  -3   0  351.49   24.82
   6   3   0  291.43   14.27
   6   3   1   16.82    4.99
  -6  -3  -1   20.60    6.03
   6   3   1   16.38    3.30
  -6  -3  -1   16.04    5.45
   6   3   1   15.98    3.71
   6   3   1   19.32    4.73
   6   3   2    5.00    2.67
   6   3   2   -1.03    2.18
   6   3   2    0.31    0.63
  -6  -3  -2   -0.37    1.72
   6   3   2    1.29    1.23
   6   3   3    0.44    1.09
   6   3   3   -0.49    1.32
   6   3   4   90.65   12.22
   6   3   4   95.66    8.58
  -6  -3  -4   89.32   13.02
   6   3   4   89.40   10.78
  -6  -3  -5   -0.65    2.38
   6   3   5   -1.36    2.57
   6   3   5    1.80    1.26
   6   3   5    0.34    1.40
   6   3   6   68.45   11.36
   6   3   6   81.02    9.81
  -6  -3  -6   72.53   12.25
   6   3   7    3.42    2.31
  -6  -3  -7    4.66    3.49
   6   3   7    0.06    1.71
   6   3   8   21.54    6.59
   6   3   8   33.58    7.71
  -6  -3  -8   22.86    6.88
  -6  -3  -8   31.35    6.47
   6   3   9   10.46    5.12
   6   3   9    9.12    4.36
  -6  -3  -9    5.45    2.45
  -6  -3  -9   13.42    5.48
   6   3  10   61.30   12.05
   6   3  10   52.27   11.55
  -6  -3 -10   50.26   11.60
   6   3  11    3.16    2.10
  -6  -3 -11    2.83    2.58
   6   3  12   24.92    8.62
  -6  -3 -12   11.09    5.70
  -6  -3 -13   -3.15    3.93
  -6  -4   7   -6.04    4.24
   6   4  -6    3.27    3.06
  -6  -4   6   10.88    5.57
  -6  -4   6    1.46    2.91
   6   4  -5    4.60    3.08
  -6  -4   5    8.93    5.02
  -6  -4   5    0.57    2.25
   6   4  -4   15.43    5.75
  -6  -4   4   12.69    5.23
  -6  -4   4    6.03    2.35
   6   4  -3    6.54    3.42
  -6  -4   3    5.96    3.60
  -6  -4   3    1.42    2.75
   6   4  -2   27.80    3.49
   6   4  -2   40.52    8.29
  -6  -4   2   39.25    8.92
  -6  -4   2   33.94    8.22
   6   4  -1    0.47    1.56
  -6  -4   1    1.77    1.11
   6   4  -1    2.86    1.35
   6   4  -1    3.03    1.49
   6   4  -1    5.69    1.73
  -6  -4   1    4.15    3.81
   6   4   0   50.47    6.68
   6   4   0   38.18    8.23
   6   4   0   45.18    4.34
   6   4   0   40.55    4.10
  -6  -4   0   45.41    8.90
   6   4   0   50.57    5.99
  -6  -4   0   52.55    9.60
   6   4   1    3.64    2.73
  -6  -4  -1    1.70    1.59
   6   4   1    1.83    0.65
   6   4   1    1.53    0.53
   6   4   1    2.31    1.43
   6   4   1    7.31    3.21
  -6  -4  -1    2.15    3.09
   6   4   2  122.26   12.76
   6   4   2  112.03   10.99
  -6  -4  -2  137.97   14.78
  -6  -4  -3   17.93    5.06
   6   4   3   27.12    5.68
   6   4   3   22.78    6.37
   6   4   4   79.56   11.73
  -6  -4  -4   86.64   13.18
   6   4   4   83.41   10.68
   6   4   5   -3.28    3.22
  -6  -4  -5   -2.25    3.71
   6   4   5   -0.89    0.75
   6   4   6   15.21    5.74
  -6  -4  -6   19.50    6.42
   6   4   6   13.26    3.52
   6   4   6   16.15    5.05
   6   4   7   -0.08    1.79
  -6  -4  -7   -0.71    2.38
  -6  -4  -7   -0.20    0.79
   6   4   7   -0.38    1.49
   6   4   8   65.90   11.97
  -6  -4  -8   64.30   12.25
   6   4   8   48.79    8.56
   6   4   9    5.20    3.53
  -6  -4  -9    4.67    3.27
   6   4  10   27.53    8.01
  -6  -4 -10   23.80    7.68
   6   4  11    6.27    5.21
  -6  -4 -11   -3.53    3.18
   6   4  12   13.07    7.11
  -6  -4 -12   21.30    8.45
  -6  -4 -13    0.60    1.48
  -6  -5   7    5.25    4.49
   6   5  -6    8.57    4.10
  -6  -5   6    7.20    4.75
  -6  -5   6   15.86    6.96
   6   5  -5    2.39    3.52
  -6  -5   5   -0.49    2.72
  -6  -5   5   -1.48    3.35
   6   5  -4    5.26    4.24
  -6  -5   4    6.41    3.56
  -6  -5   4    0.26    2.98
   6   5  -3    2.54    2.04
  -6  -5   3    1.14    1.69
  -6  -5   3    4.43    3.62
   6   5  -2   13.04    5.03
  -6  -5   2    9.43    4.46
  -6  -5   2    6.31    3.16
   6   5  -1   -2.20    2.40
  -6  -5   1    1.43    1.87
   6   5  -1    1.06    1.33
  -6  -5   1    1.96    2.75
   6   5   0   51.12    7.26
   6   5   0   58.96   11.18
  -6  -5   0   46.37    9.50
   6   5   0   49.15    6.53
  -6  -5   0   57.24   10.38
  -6  -5  -1   12.74    5.31
   6   5   1   15.04    4.10
   6   5   1   11.77    3.56
  -6  -5  -1    7.80    4.04
   6   5   2  109.24   12.17
   6   5   2  106.19   11.24
  -6  -5  -2  122.70   14.40
   6   5   3    2.96    2.16
  -6  -5  -3    4.55    2.93
   6   5   3    3.19    2.88
  -6  -5  -4   10.36    4.84
   6   5   4   13.68    4.40
   6   5   4   16.13    5.31
  -6  -5  -5    9.12    4.68
   6   5   5    9.35    4.27
   6   5   6  103.66   15.07
  -6  -5  -6  100.50   15.98
   6   5   6   87.92   11.76
   6   5   7   -0.80    2.80
  -6  -5  -7    0.71    1.88
   6   5   7    0.65    0.95
   6   5   8   -0.84    2.33
  -6  -5  -8    4.11    3.45
   6   5   9   -0.73    1.44
  -6  -5  -9    3.63    3.37
   6   5  10   23.55    7.80
  -6  -5 -10   21.55    7.62
   6   5  11    5.62    4.39
  -6  -5 -11    1.23    1.35
   6   5  12   11.38    5.82
  -6  -5 -12   19.61    8.32
  -6  -6   7   -5.04    3.88
  -6  -6   6    1.74    1.10
   6   6  -5    9.25    5.73
  -6  -6   5   -3.57    2.81
   6   6  -4   12.02    5.50
  -6  -6   4   16.55    6.08
  -6  -6   4   15.34    6.28
   6   6  -3    7.48    4.83
  -6  -6   3    7.33    4.05
  -6  -6   3    5.66    3.92
   6   6  -2   10.42    5.40
  -6  -6   2    3.25    2.60
  -6  -6   2    6.68    3.19
   6   6  -1    1.35    1.60
  -6  -6   1    1.67    2.45
   6   6  -1    5.12    2.56
  -6  -6   1    0.59    1.06
  -6  -6   0   24.10    6.40
   6   6   0   24.51    5.56
  -6  -6   0   35.73    8.58
   6   6   1    3.28    1.89
  -6  -6  -1    2.78    2.95
   6   6   2   26.24    6.09
   6   6   2   20.30    5.04
  -6  -6  -2   28.89    7.07
   6   6   3   14.04    4.32
   6   6   3    9.11    3.96
  -6  -6  -3   12.45    5.15
  -6  -6  -4   69.45   12.83
   6   6   4   67.42   11.39
  -6  -6  -4   65.74   10.05
  -6  -6  -5    6.62    4.64
   6   6   5    5.74    2.56
  -6  -6  -6   10.99    5.47
   6   6   6   11.50    5.64
  -6  -6  -7   -1.80    2.96
   6   6   7   -0.80    1.62
  -6  -6  -8   24.26    8.47
   6   6   8   21.98    7.42
   6   6   9    0.05    1.75
  -6  -6  -9    3.49    4.03
   6   6  10   19.78    7.74
  -6  -6 -10   23.38    8.34
   6   6  11    0.23    1.59
  -6  -6 -11    2.21    3.70
   6   6  12   12.94    6.69
  -6  -6 -12   12.39    7.16
  -6  -7   5   -0.65    2.48
  -6  -7   4    4.33    3.04
   6   7  -3   -7.42    4.81
  -6  -7   3   -2.01    1.49
  -6  -7   3   -2.96    2.91
   6   7  -2   13.80    5.85
  -6  -7   2   12.09    4.88
  -6  -7   2    7.30    4.80
   6   7  -1    4.17    3.15
  -6  -7   1    3.48    2.60
   6   7  -1    5.10    2.95
  -6  -7   1    2.63    2.96
   6   7   0   12.00    4.31
  -6  -7   0    7.49    4.05
   6   7   1    0.57    1.83
  -6  -7  -1    1.33    1.30
   6   7   2   16.48    5.33
  -6  -7  -2   17.34    5.98
   6   7   3    2.73    2.81
  -6  -7  -3    2.90    2.34
   6   7   4   23.78    6.83
  -6  -7  -4   18.82    5.67
  -6  -7  -4   24.25    7.96
  -6  -7  -5    2.97    2.38
   6   7   5    0.17    2.03
  -6  -7  -6   13.15    7.01
   6   7   6    6.15    4.03
  -6  -7  -7    3.73    3.13
   6   7   7    4.08    3.96
  -6  -7  -8   13.65    7.10
   6   7   8    9.38    4.56
  -6  -7  -9    3.90    4.04
   6   7   9    1.46    2.57
  -6  -7 -10   11.61    6.53
   6   7  10   19.42    7.17
  -6  -7 -11    7.06    5.05
   6   7  11   -1.06    3.50
  -6  -8   2    2.05    1.16
  -6  -8   2    2.84    3.20
   6   8  -1   -1.75    3.64
  -6  -8   1    1.51    2.68
   6   8   0    4.95    2.82
  -6  -8   0    4.38    3.19
   6   8   1    3.22    2.24
  -6  -8  -1   -1.38    3.44
   6   8   2   12.43    4.85
  -6  -8  -2   13.92    5.31
   6   8   3    3.99    2.45
  -6  -8  -3    0.75    2.27
   6   8   4    9.93    4.35
  -6  -8  -4    8.82    4.12
  -6  -8  -5   -0.28    1.95
   6   8   5    1.88    2.48
  -6  -8  -5    3.45    2.63
  -6  -8  -6   19.56    8.43
   6   8   6   18.22    6.81
  -6  -8  -7    5.09    4.63
   6   8   7    1.46    1.89
  -6  -8  -8   13.09    7.15
   6   8   8    3.78    2.66
  -6  -8  -9    4.11    3.92
   6   8   9   -2.36    3.37
   6   8  10    3.83    2.91
  -6  -9   1    0.03    2.14
  -6  -9   0    5.98    3.77
   6   9   1   -3.34    3.06
  -6  -9  -1   -0.43    2.31
   6   9   2    0.98    1.24
  -6  -9  -2    4.53    3.00
   6   9   3    1.30    3.07
  -6  -9  -3    1.17    2.85
   6   9   4    5.68    3.88
  -6  -9  -4    6.44    3.49
  -6  -9  -5    0.44    1.85
  -6  -9  -5    2.11    2.73
  -6  -9  -6   13.67    7.37
   6   9   6    8.98    5.08
  -6  -9  -7   -0.39    2.69
   6   9   7    1.66    3.78
  -6  -9  -8    3.56    2.90
   6   9   8    4.83    3.69
  -6 -10  -1    3.01    3.06
   6  10   2    1.33    2.24
  -6 -10  -2    3.20    1.93
   6  10   3    7.17    4.42
  -6 -10  -3   -0.04    0.95
   6  10   4    3.41    3.35
  -6 -10  -4    2.96    2.55
   6  10   5    4.96    4.06
   6  10   6    1.97    2.65
   7  -7  -4   -1.86    2.20
  -7   7   4    3.17    3.07
   7  -7  -3    7.50    3.52
  -7   7   3    3.81    3.01
  -7   7   2    0.42    1.05
  -7   7   2    0.78    1.78
  -7   7   1    1.00    2.68
  -7   7   0    0.34    2.27
  -7   7  -1   10.99    5.45
  -7   7  -2   -0.54    1.32
   7  -6  -5   10.60    3.97
  -7   6   5    8.92    5.52
   7  -6  -4    1.04    1.50
  -7   6   4    2.28    1.16
   7  -6  -3    5.98    2.70
  -7   6   3    4.07    3.53
  -7   6   3    4.37    3.46
   7  -6  -2    0.35    1.12
  -7   6   2   -0.13    2.46
   7  -6  -2    3.85    3.03
   7  -6  -1    5.65    2.52
  -7   6   1   11.50    5.41
   7  -6  -1   -2.30    2.12
  -7   6   1   11.36    5.31
   7  -6   0   -5.53    4.25
  -7   6   0    1.16    2.28
   7  -6   1    3.61    1.19
  -7   6  -1    1.50    1.61
   7  -6   2    2.10    3.55
  -7   6  -2   -2.79    3.45
   7  -6   3   15.73    7.86
  -7   6  -3   18.66    7.38
  -7   6  -4    0.51    2.50
  -7   5   6    0.10    2.70
   7  -5  -5    1.56    1.90
  -7   5   5    0.25    1.85
   7  -5  -4    0.80    1.74
  -7   5   4    3.39    2.29
   7  -5  -4   -0.18    1.18
   7  -5  -3    9.18    3.10
  -7   5   3    8.57    5.07
   7  -5  -3    7.11    3.77
  -7   5   3   14.78    5.94
   7  -5  -2    2.48    1.89
  -7   5   2    3.22    3.09
   7  -5  -2   -3.20    2.07
  -7   5   2    3.30    3.12
   7  -5  -1   12.33    3.52
  -7   5   1   24.91    7.69
   7  -5  -1   14.93    6.45
  -7   5   1   19.49    6.58
   7  -5   0    4.33    2.53
   7  -5   0    4.05    4.26
  -7   5   0    3.05    2.99
   7  -5   1   30.41    9.28
  -7   5  -1   48.93   10.54
   7  -5   1   41.44    5.93
   7  -5   2    3.64    3.53
  -7   5  -2    4.87    3.84
   7  -5   3   24.40    8.62
  -7   5  -3   20.86    7.03
   7  -5   4   -5.19    4.39
  -7   5  -4    1.17    2.01
   7  -5   5   14.41    7.20
  -7   5  -5    7.33    3.74
   7  -5   6    6.83    4.40
  -7   5  -6    6.73    4.48
   7  -4  -6    3.00    2.42
  -7   4   6    5.56    4.11
   7  -4  -5   14.90    4.39
  -7   4   5    9.99    5.77
   7  -4  -4    5.00    2.57
  -7   4   4   -1.27    1.51
   7  -4  -3   16.38    4.36
  -7   4   3   11.50    4.75
   7  -4  -3   11.21    5.54
  -7   4   3   21.59    6.19
   7  -4  -2    8.24    3.26
  -7   4   2    3.70    1.27
   7  -4  -2    9.19    5.00
  -7   4   2    8.57    4.31
   7  -4  -1   32.08    5.47
  -7   4   1   33.23    9.11
   7  -4  -1   27.93    8.71
  -7   4   1   37.35    8.65
   7  -4   0    5.93    2.39
  -7   4   0    3.94    3.09
   7  -4   0   -1.96    1.89
  -7   4   0    8.22    3.96
   7  -4   1   11.12    3.05
   7  -4   1   18.21    6.89
  -7   4  -1   12.00    5.07
   7  -4   2    1.08    1.05
   7  -4   2    2.39    2.47
  -7   4  -2    0.73    2.31
   7  -4   3   48.88   11.43
  -7   4  -3   40.64    9.18
   7  -4   4  -10.33    5.27
  -7   4  -4    0.95    2.57
   7  -4   5   44.87   10.89
  -7   4  -5   42.73    9.87
   7  -4   6   -3.14    3.49
  -7   4  -6   -1.88    2.18
   7  -4   7   13.99    6.54
  -7   4  -7    6.17    4.00
   7  -4   8    5.24    3.44
  -7   4  -8   -0.21    1.64
   7  -3  -6   -0.50    1.46
  -7   3   6   -1.09    1.34
   7  -3  -5   11.24    4.26
  -7   3   5    1.08    2.05
   7  -3  -4   -0.23    1.10
  -7   3   4    1.12    2.52
   7  -3  -3   10.93    3.45
  -7   3   3    7.30    4.23
  -7   3   3    3.48    2.27
   7  -3  -2   -0.92    1.59
  -7   3   2    1.85    3.24
   7  -3  -2    2.43    2.95
  -7   3   2    3.68    2.21
   7  -3  -1    8.21    2.83
  -7   3   1    6.83    4.42
   7  -3  -1    0.58    2.09
  -7   3   1   13.66    4.52
   7  -3   0    5.98    2.21
  -7   3   0    4.71    3.23
   7  -3   0   11.96    5.55
  -7   3   0   13.14    4.73
   7  -3   1   85.31   14.01
  -7   3  -1   75.29   11.18
   7  -3   1   77.37    8.01
   7  -3   2    3.05    1.73
   7  -3   2    2.21    2.29
  -7   3  -2    6.99    3.69
   7  -3   3   44.38   10.63
  -7   3  -3   44.51    8.84
   7  -3   3   41.79    4.88
   7  -3   4    0.85    3.03
  -7   3  -4   -0.61    1.38
   7  -3   5   24.55    7.87
  -7   3  -5   22.19    6.63
   7  -3   6   10.72    5.24
  -7   3  -6    8.06    4.20
   7  -3   7   51.19   11.73
  -7   3  -7   39.59    9.51
   7  -3   8   -1.76    2.55
  -7   3  -8   -1.67    2.14
   7  -3   9   -0.73    2.27
  -7   3  -9    0.88    1.66
   7  -2  -6    2.49    2.48
  -7   2   6    7.81    4.95
   7  -2  -5    7.94    3.24
  -7   2   5    7.36    5.01
   7  -2  -4   -2.65    2.48
  -7   2   4    4.52    4.00
   7  -2  -3   19.86    4.94
  -7   2   3   21.87    7.72
   7  -2  -2    0.17    1.79
  -7   2   2    3.31    3.50
   7  -2  -2   -2.41    2.49
  -7   2   2    0.11    1.27
   7  -2  -1   42.52    6.47
  -7   2   1   59.81   11.77
   7  -2  -1   38.56    8.75
  -7   2   1   51.13    7.68
   7  -2   0    7.72    2.56
  -7   2   0    8.52    4.72
   7  -2   0    9.33    4.26
  -7   2   0    5.72    2.85
   7  -2   1   18.12    3.88
  -7   2  -1   23.24    7.49
   7  -2   1   21.85    5.34
   7  -2   1   12.97    5.40
   7  -2   1   15.38    4.68
  -7   2  -1   22.13    5.54
   7  -2   2   -2.48    1.88
   7  -2   2   -0.03    1.07
   7  -2   2    0.89    1.57
  -7   2  -2    0.02    1.49
   7  -2   3   45.22    5.50
   7  -2   3   28.98    6.03
   7  -2   3   35.24    9.18
  -7   2  -3   45.74    8.49
   7  -2   4    7.12    2.00
   7  -2   4    9.15    4.03
  -7   2  -4    6.68    3.32
   7  -2   5   80.61   13.47
  -7   2  -5   86.04   12.27
   7  -2   6    2.67    2.63
  -7   2  -6    1.33    2.67
   7  -2   7   18.52    6.83
  -7   2  -7   18.11    6.45
  -7   2  -8    3.40    2.41
   7  -2   8   -0.60    1.93
  -7   2  -8    0.98    1.69
   7  -2   9    9.37    5.11
  -7   2  -9   32.15    8.50
   7  -2  10   -1.08    2.23
  -7   2 -10   -3.52    2.12
   7  -1  -6   -1.60    1.84
  -7   1   6   -3.06    4.44
   7  -1  -5   19.57    5.63
  -7   1   5   14.18    6.06
   7  -1  -4    1.76    1.65
  -7   1   4   -1.20    1.54
   7  -1  -3   11.71    4.14
  -7   1   3   11.15    5.53
   7  -1  -2    4.49    2.95
  -7   1   2    1.75    2.29
  -7   1   2    2.47    1.40
   7  -1  -1    8.71    3.33
  -7   1   1    7.93    3.02
   7  -1   0    0.13    1.30
  -7   1   0    1.15    2.44
   7  -1   0   -0.60    1.85
  -7   1   0    2.84    3.01
   7  -1   1   62.25    7.79
  -7   1  -1   52.89   10.50
   7  -1   1   61.78   10.50
  -7   1  -1   59.75    8.63
   7  -1   1   56.16    8.23
   7  -1   2   10.57    3.23
   7  -1   2   13.35    5.10
  -7   1  -2    7.51    3.19
   7  -1   2    8.97    3.79
   7  -1   2    7.15    3.06
   7  -1   3  137.80   10.51
   7  -1   3  117.78   14.88
  -7   1  -3  126.21   13.51
   7  -1   3  119.11   12.96
   7  -1   4    1.14    1.10
   7  -1   4    3.47    2.54
   7  -1   4    5.01    2.50
  -7   1  -4    3.01    1.85
   7  -1   5    7.45    2.11
   7  -1   5    3.72    2.34
   7  -1   5   12.16    3.78
  -7   1  -5    5.93    3.03
   7  -1   6    4.59    3.56
  -7   1  -6    2.89    2.80
   7  -1   7   77.52   12.91
  -7   1  -7   80.73   11.24
  -7   1  -7   90.30   13.29
  -7   1  -8    6.23    2.90
   7  -1   8    4.91    4.22
  -7   1  -8    7.88    5.05
  -7   1  -9   23.82    6.38
   7  -1   9   16.25    6.54
  -7   1  -9   25.45    7.86
  -7   1 -10   -1.65    2.69
   7  -1  10   -2.28    4.13
  -7   1 -10    5.11    3.93
   7  -1  11    9.25    6.15
  -7   0   7    3.81    3.22
   7   0  -6    1.81    2.70
  -7   0   6    1.07    2.82
  -7   0   6    0.74    1.29
   7   0  -5    3.60    2.45
  -7   0   5   11.54    5.89
  -7   0   5    3.87    3.69
   7   0  -4    0.22    1.68
  -7   0   4   14.26    6.21
   7   0  -3   21.12    5.40
  -7   0   3   24.46    7.99
   7   0  -2    1.53    1.43
  -7   0   2    2.02    2.01
   7   0  -1   21.90    3.77
   7   0  -1   27.89    6.02
  -7   0   1   29.50    7.90
   7   0  -1   27.26    6.59
  -7   0   1   26.40    4.72
   7   0   0    8.09    3.08
   7   0   0    8.83    2.92
  -7   0   0   14.00    5.57
   7   0   0    8.83    3.31
  -7   0   0    7.32    3.00
   7   0   0    7.78    2.79
   7   0   1   27.48    5.53
   7   0   1   23.87    4.93
  -7   0  -1   27.92    7.72
   7   0   1   30.06    7.01
  -7   0  -1   29.54    5.90
   7   0   1   27.71    5.38
   7   0   2   -0.31    1.05
   7   0   2   -1.43    1.59
  -7   0  -2   -0.95    0.80
   7   0   2    1.71    1.45
   7   0   3   13.36    3.48
   7   0   3   13.96    4.85
  -7   0  -3   16.50    4.81
   7   0   3   11.45    3.71
   7   0   4   -1.86    1.85
   7   0   4   -1.15    1.95
  -7   0  -4    1.16    2.22
   7   0   5  186.72   12.21
   7   0   5  191.00   18.05
  -7   0  -5  181.62   17.21
  -7   0  -6    2.73    1.97
   7   0   6    5.01    1.74
   7   0   6    3.85    2.84
  -7   0  -6    2.67    2.29
  -7   0  -7   13.25    5.00
   7   0   7   13.89    4.97
  -7   0  -7   10.26    4.17
  -7   0  -8    1.30    1.22
   7   0   8   -3.08    2.70
  -7   0  -8   -3.26    3.00
  -7   0  -9   33.66    8.16
   7   0   9   42.23    9.99
  -7   0  -9   42.02    9.44
  -7   0 -10    0.53    1.86
   7   0  10   -0.87    1.83
  -7   0 -10    2.38    1.53
   7   0  11    2.55    3.41
  -7   0 -11   14.29    5.34
  -7   0 -11   15.86    6.51
   7   0  12   -4.98    5.41
  -7   0 -12   -0.12    0.71
  -7  -1   7    3.08    3.49
   7   1  -6    2.61    2.60
  -7  -1   6    0.10    2.06
  -7  -1   6   -3.49    3.35
   7   1  -5   10.85    4.03
  -7  -1   5   16.25    7.48
  -7  -1   5   16.34    6.47
   7   1  -4    1.30    1.69
  -7  -1   4    5.09    4.02
  -7  -1   4    0.61    3.47
   7   1  -3   17.58    4.97
  -7  -1   3   16.18    6.69
  -7  -1   3   13.77    6.14
   7   1  -2    0.38    2.53
  -7  -1   2    1.13    1.89
  -7  -1   2    5.63    4.06
   7   1  -1   11.36    3.54
  -7  -1   1   11.37    4.67
   7   1  -1   13.76    4.49
   7   1  -1    9.57    2.16
   7   1   0    3.24    1.84
   7   1   0    1.68    1.52
  -7  -1   0    2.31    2.30
   7   1   0    2.32    1.94
   7   1   1    3.11    1.98
   7   1   1    0.33    1.65
  -7  -1  -1    6.26    4.28
   7   1   1    1.89    1.23
  -7  -1  -1    3.76    2.32
   7   1   1    4.95    2.03
   7   1   2   19.28    5.12
   7   1   2   11.44    3.83
   7   1   2   12.39    4.22
  -7  -1  -2   19.74    5.19
   7   1   2   14.53    3.92
   7   1   3  116.32   11.75
   7   1   3  134.06   13.87
   7   1   3  124.61   13.04
  -7  -1  -3  132.84   13.85
   7   1   3   99.66   11.37
   7   1   4    9.02    3.22
   7   1   4    1.35    2.16
   7   1   4    2.29    1.88
  -7  -1  -4    7.06    3.10
   7   1   5   20.44    4.57
   7   1   5   13.20    4.27
   7   1   5   19.84    5.42
  -7  -1  -5   13.52    4.19
  -7  -1  -5   18.47    5.79
  -7  -1  -6    0.98    2.11
   7   1   6    0.76    1.32
   7   1   6   -0.88    1.68
   7   1   6   -0.28    0.93
  -7  -1  -6   -0.41    1.51
   7   1   7   52.82    6.71
  -7  -1  -7   58.27   10.97
   7   1   7   54.18   10.01
   7   1   7   59.55   10.26
  -7  -1  -7   63.63   10.84
  -7  -1  -8    6.16    3.45
   7   1   8   10.36    4.35
   7   1   8    6.21    3.92
  -7  -1  -8    7.28    4.59
  -7  -1  -9   19.55    6.43
   7   1   9   19.70    6.81
   7   1   9   28.63    8.03
  -7  -1  -9   29.78    8.07
   7   1  10   -4.80    2.90
  -7  -1 -10   -0.97    1.69
   7   1  10   -2.03    2.15
  -7  -1 -10    0.42    2.38
   7   1  11   10.25    5.33
   7   1  11   15.06    6.64
  -7  -1 -11    4.28    3.48
  -7  -1 -11    6.47    4.10
   7   1  12   -6.29    4.68
  -7  -1 -12   -0.63    1.55
   7   1  13    8.06    5.18
  -7  -1 -13    1.71    2.30
   7   2  -6   -0.79    1.52
  -7  -2   6   -1.22    2.53
   7   2  -5    2.40    1.24
  -7  -2   5   -1.04    2.97
  -7  -2   5    6.38    3.96
   7   2  -4    2.00    1.85
  -7  -2   4   -2.96    2.95
  -7  -2   4    0.50    2.17
   7   2  -3   22.07    6.01
  -7  -2   3   10.03    5.12
  -7  -2   3   27.38    7.98
   7   2  -2    6.33    2.90
  -7  -2   2    4.87    3.72
  -7  -2   2    6.44    4.00
   7   2  -1   29.24    6.76
  -7  -2   1   27.86    7.86
   7   2  -1   22.52    5.10
  -7  -2   1   40.58    9.13
   7   2   0    2.36    1.77
  -7  -2   0    6.51    3.62
   7   2   0    4.08    2.27
   7   2   0    3.09    1.92
   7   2   1   11.10    3.44
   7   2   1   15.18    4.80
  -7  -2  -1    9.81    4.46
   7   2   1   16.52    4.37
   7   2   1   11.33    3.21
   7   2   2   13.85    4.59
   7   2   2   18.56    5.25
   7   2   2    9.35    3.19
   7   2   2   11.14    3.54
   7   2   3   -1.36    1.80
   7   2   3    3.93    2.38
   7   2   3    0.54    1.40
   7   2   3    1.34    0.73
   7   2   4   -2.72    2.86
   7   2   4   -1.70    1.49
   7   2   4   -0.08    0.85
  -7  -2  -4   -1.49    2.17
  -7  -2  -5   60.92   11.18
   7   2   5   62.86    9.00
   7   2   5   71.27   11.46
   7   2   5   64.98    8.86
  -7  -2  -5   72.90   11.11
  -7  -2  -6   11.50    5.12
   7   2   6   11.45    4.36
   7   2   6   14.98    4.36
   7   2   6   13.42    4.61
  -7  -2  -6   11.36    4.55
   7   2   7   51.08    7.82
  -7  -2  -7   41.90    9.62
   7   2   7   51.46   10.03
   7   2   7   40.81    8.20
  -7  -2  -7   44.15    9.20
  -7  -2  -8    3.60    2.96
   7   2   8   10.77    4.77
   7   2   8    1.97    1.78
   7   2   8    8.13    4.26
  -7  -2  -8    5.76    2.37
   7   2   9    9.14    4.33
  -7  -2  -9   11.89    5.18
   7   2   9   14.83    5.81
  -7  -2  -9   14.08    5.49
   7   2  10   -1.00    2.11
   7   2  10   -1.64    3.29
  -7  -2 -10    0.70    2.67
  -7  -2 -10   -0.21    1.41
   7   2  11   22.73    7.56
   7   2  11   18.72    7.27
  -7  -2 -11   11.28    5.38
  -7  -2 -11   17.19    6.20
   7   2  12    0.78    2.87
  -7  -2 -12    1.61    2.35
   7   2  13    7.05    4.66
  -7  -2 -13    0.52    1.36
  -7  -3   6    1.05    2.88
   7   3  -5    3.31    3.51
  -7  -3   5    8.96    5.43
  -7  -3   5    4.52    3.86
   7   3  -4    0.77    1.58
  -7  -3   4    6.51    4.63
  -7  -3   4    4.83    3.89
   7   3  -3   18.20    5.62
  -7  -3   3   26.03    8.32
  -7  -3   3   15.01    5.15
   7   3  -2    3.23    2.82
  -7  -3   2   -2.73    2.67
  -7  -3   2    2.16    2.37
   7   3  -1   14.85    4.84
  -7  -3   1   17.86    6.19
   7   3  -1   14.27    3.74
  -7  -3   1   24.78    7.14
   7   3   0    0.02    1.94
  -7  -3   0   -3.09    3.13
   7   3   0    1.20    1.26
   7   3   0    2.31    1.56
  -7  -3   0    1.26    1.52
   7   3   1   21.75    6.15
  -7  -3  -1   21.54    6.62
   7   3   1   23.54    4.56
  -7  -3  -1   28.54    7.38
   7   3   1   29.90    5.74
   7   3   2    4.34    2.58
   7   3   2    3.73    2.52
   7   3   2    2.08    1.07
   7   3   2    0.97    0.43
   7   3   3    9.71    4.33
   7   3   3   12.44    4.08
   7   3   3   12.68    3.33
   7   3   3   10.93    3.88
   7   3   4   10.34    4.48
   7   3   4    5.10    3.09
   7   3   4    6.56    2.26
  -7  -3  -5   30.54    8.24
   7   3   5   38.41    8.78
   7   3   5   38.32    7.78
   7   3   5   32.61    5.84
  -7  -3  -6    2.52    2.10
   7   3   6   -1.01    1.92
   7   3   6    0.71    1.32
  -7  -3  -7    5.76    3.82
   7   3   7   11.88    4.88
   7   3   7    7.44    3.46
   7   3   8   17.08    6.45
  -7  -3  -8    6.95    4.05
   7   3   8   10.95    4.41
   7   3   9   43.43   10.42
  -7  -3  -9   30.81    8.81
   7   3   9   35.95    9.04
   7   3  10    1.59    3.16
   7   3  10    5.40    3.38
  -7  -3 -10    4.39    3.66
   7   3  11   -2.47    2.59
   7   3  11    3.18    3.65
  -7  -3 -12    3.53    3.37
  -7  -4   5    6.52    3.85
   7   4  -4   -0.13    2.08
  -7  -4   4    1.15    2.37
  -7  -4   4   -1.04    2.99
   7   4  -3    1.42    1.57
  -7  -4   3    4.04    3.13
  -7  -4   3    7.85    3.95
   7   4  -2    5.02    3.81
  -7  -4   2    6.64    4.07
  -7  -4   2   -0.14    1.61
   7   4  -1   37.40    8.62
  -7  -4   1   37.59    9.34
  -7  -4   1   38.01    9.14
   7   4   0    0.76    2.73
  -7  -4   0   -2.04    3.10
   7   4   0    1.31    1.12
  -7  -4   0   -3.37    3.13
   7   4   1   22.97    6.42
  -7  -4  -1   21.05    6.67
   7   4   1   23.17    5.20
  -7  -4  -1   22.96    6.69
   7   4   2    2.48    2.69
  -7  -4  -2    3.28    3.03
   7   4   2    3.60    2.72
   7   4   3   21.65    6.43
   7   4   3   17.31    4.82
   7   4   3   26.04    6.72
   7   4   4   -0.29    1.88
  -7  -4  -5   11.58    5.59
   7   4   5    6.28    3.16
  -7  -4  -6    2.57    3.10
   7   4   6    2.44    3.38
   7   4   7   32.37    8.63
  -7  -4  -7   32.43    9.34
   7   4   8    4.09    2.57
  -7  -4  -8    7.81    5.00
   7   4   9   11.32    5.55
  -7  -4  -9    4.94    3.53
   7   4  10    7.18    3.80
  -7  -4 -10    5.70    4.48
   7   4  11   14.12    6.94
  -7  -4 -11   12.13    6.39
  -7  -4 -12    2.85    2.78
  -7  -5   5    0.73    2.32
  -7  -5   4    5.53    4.17
   7   5  -3   14.54    6.16
  -7  -5   3    7.69    4.65
  -7  -5   3   19.02    6.77
   7   5  -2    0.77    3.39
  -7  -5   2    5.34    3.84
  -7  -5   2    5.97    4.36
   7   5  -1   -2.95    2.54
  -7  -5   1    1.31    1.28
   7   5   0   -0.87    2.49
  -7  -5   0    3.02    3.00
  -7  -5   0   -1.01    2.65
   7   5   1   13.57    5.02
   7   5   1   22.53    5.13
  -7  -5  -1   18.42    6.48
   7   5   2   11.35    5.03
   7   5   2    2.34    2.49
  -7  -5  -2    9.47    4.45
  -7  -5  -3   24.36    6.79
   7   5   3   14.69    5.20
   7   5   4    0.93    1.36
  -7  -5  -5   17.77    6.62
   7   5   5   23.36    7.52
   7   5   6   -1.66    2.64
  -7  -5  -6   -1.24    2.72
   7   5   7   14.52    5.67
  -7  -5  -7   14.25    6.26
   7   5   8   -0.16    3.44
  -7  -5  -8    0.57    1.96
   7   5   9   12.98    5.85
  -7  -5  -9   13.33    6.50
   7   5  10    1.04    2.92
  -7  -5 -10    0.69    2.06
   7   5  11    5.52    4.13
  -7  -5 -11    3.24    3.05
  -7  -6   5   -0.94    2.83
  -7  -6   4    5.29    3.74
  -7  -6   3   -0.41    1.36
  -7  -6   2    1.51    2.37
  -7  -6   2    1.58    2.51
   7   6  -1   14.85    6.29
  -7  -6   1    8.98    4.66
  -7  -6   1   13.00    5.76
   7   6   0    1.27    2.65
  -7  -6   0    5.05    3.31
  -7  -6   0    1.44    1.64
   7   6   1   11.90    5.87
   7   6   1   10.88    3.64
  -7  -6  -1   14.59    5.71
   7   6   2    1.91    1.97
  -7  -6  -2    4.63    3.15
   7   6   3   12.64    4.93
  -7  -6  -3   17.26    6.32
   7   6   4    1.92    1.95
   7   6   5   21.82    6.95
  -7  -6  -5   23.43    8.33
  -7  -6  -6    3.40    2.66
   7   6   6    2.52    2.29
  -7  -6  -7   13.66    6.38
   7   6   7   14.21    7.00
  -7  -6  -8    4.11    4.71
   7   6   8    1.58    1.53
   7   6   9   13.90    6.70
  -7  -6  -9   10.64    6.67
   7   6  10    2.14    1.68
  -7  -6 -10    3.48    3.96
  -7  -7   4    3.80    3.95
  -7  -7   3    2.13    2.66
  -7  -7   2    2.99    2.21
  -7  -7   1    7.26    4.37
  -7  -7   1    4.88    3.99
   7   7   0    1.69    3.48
  -7  -7   0    1.43    2.53
   7   7   1    3.74    3.17
  -7  -7  -1    4.45    3.84
   7   7   2    3.96    2.26
  -7  -7  -2   -0.66    2.22
   7   7   3   11.48    4.73
  -7  -7  -3   11.23    4.60
   7   7   4    3.88    3.09
  -7  -7  -4    3.40    2.98
   7   7   5    7.08    3.91
  -7  -7  -5   12.57    5.46
  -7  -7  -6   -0.47    1.92
   7   7   6   -0.15    1.65
  -7  -7  -7   11.34    6.15
   7   7   7   13.96    6.13
  -7  -7  -8    5.30    5.03
   7   7   8    1.67    2.21
  -7  -7  -9    2.91    3.51
   7   7   9    2.18    2.26
   7   7  10    3.69    3.46
  -7  -8   0    4.31    3.21
  -7  -8  -1    4.79    3.24
  -7  -8  -2    0.25    2.90
   7   8   3    3.84    3.20
  -7  -8  -3    6.82    4.00
   7   8   4    1.67    2.70
  -7  -8  -4    3.44    2.46
   7   8   5    4.16    3.14
  -7  -8  -6    2.51    2.42
   7   8   6    0.63    2.90
   7   8   7   13.70    6.81
   7   8   8   -0.46    2.32
   7   8   9    1.14    2.12
  -7  -9  -2   -4.49    3.29
   7   9   3    0.14    2.37
  -7  -9  -3    1.15    2.35
   7   9   4    4.50    3.31
  -7  -9  -4    0.04    1.40
   7   9   5    4.07    3.28
  -7  -9  -5    5.00    3.31
   7   9   6   -3.54    3.23
   7   9   7   -1.60    2.88
   7  10   5    8.00    5.10
  -8   6   2    4.21    3.52
  -8   6   0    8.07    4.99
  -8   6  -1   -1.19    2.08
  -8   6  -2    9.93    5.77
   8  -5  -4    2.34    1.70
   8  -5  -3   -2.26    1.79
   8  -5  -2    1.95    1.35
  -8   5   2    9.44    5.79
  -8   5   1   -1.95    2.46
  -8   5   0    7.57    4.43
  -8   5  -1   -0.39    3.00
  -8   5  -2    8.15    4.20
  -8   5  -3    0.42    1.51
  -8   5  -4   17.26    7.23
   8  -4  -4    4.46    2.58
   8  -4  -3   -2.42    1.82
  -8   4   3    6.05    4.78
   8  -4  -3    6.38    4.70
   8  -4  -2    4.71    2.56
  -8   4   2    1.59    2.74
   8  -4  -2   -2.29    2.75
   8  -4  -1    1.16    1.47
  -8   4   1   -1.12    2.10
   8  -4  -1    2.91    4.19
   8  -4   0    8.91    3.17
   8  -4   0   14.30    5.86
  -8   4   0    7.95    4.17
   8  -4   1   -5.15    4.10
  -8   4  -1    1.52    1.81
   8  -4   2   21.19    7.79
  -8   4  -2   13.41    5.69
   8  -4   3   -1.81    2.55
  -8   4  -3    2.57    1.82
   8  -4   4    5.52    4.05
  -8   4  -4    8.15    4.35
   8  -4   5    1.71    2.15
  -8   4  -5   -3.48    3.02
  -8   4  -6    4.12    3.75
   8  -3  -4    7.46    3.00
   8  -3  -4    4.37    3.35
   8  -3  -3   -0.47    1.35
  -8   3   3   -0.99    2.02
   8  -3  -3   -3.65    3.08
   8  -3  -2    4.31    1.81
  -8   3   2    8.65    5.53
   8  -3  -2    2.85    2.89
   8  -3  -1    4.41    2.29
  -8   3   1   -0.26    2.42
   8  -3  -1    1.15    1.18
   8  -3   0    8.81    3.00
  -8   3   0   15.67    6.63
   8  -3   0   11.64    5.67
  -8   3   0   10.16    4.45
   8  -3   1    1.65    0.88
   8  -3   1    3.97    3.52
  -8   3  -1    0.71    1.55
   8  -3   2   11.13    5.68
  -8   3  -2   12.49    4.68
   8  -3   3   -0.34    2.53
  -8   3  -3   -1.17    1.14
   8  -3   4    4.22    3.24
  -8   3  -4   10.41    4.62
   8  -3   5    3.11    3.63
  -8   3  -5    2.59    2.32
   8  -3   6   10.45    5.16
  -8   3  -6    2.96    3.26
   8  -3   7    1.79    2.36
  -8   3  -7    2.98    3.51
   8  -3   8    1.43    1.92
   8  -2  -4    0.22    1.30
   8  -2  -3   -6.44    3.03
  -8   2   3   -5.78    4.21
   8  -2  -3   -0.65    1.51
   8  -2  -2    5.68    2.50
  -8   2   2    6.49    4.68
   8  -2  -2    8.84    4.78
   8  -2  -1   -1.31    1.92
  -8   2   1    2.73    1.88
   8  -2  -1   -0.47    1.53
   8  -2   0   11.54    3.37
  -8   2   0   21.12    7.42
   8  -2   0   15.77    6.00
  -8   2   0   19.28    5.34
   8  -2   1    4.02    1.78
   8  -2   1    3.15    2.60
  -8   2  -1    1.52    2.05
   8  -2   2   25.84    5.00
   8  -2   2   36.83    9.58
  -8   2  -2   24.34    6.15
   8  -2   3   -0.58    2.11
  -8   2  -3    2.63    2.89
   8  -2   4    7.24    4.70
  -8   2  -4   12.42    4.77
   8  -2   5   -1.33    3.43
  -8   2  -5    0.87    1.16
   8  -2   6    1.69    2.67
  -8   2  -6    2.34    2.18
   8  -2   7    8.20    4.59
  -8   2  -7    7.22    4.14
   8  -2   8   23.22    7.79
  -8   2  -8   13.71    6.28
   8  -2   9    3.11    3.13
   8  -1  -4   10.28    4.44
   8  -1  -3    3.82    2.57
  -8   1   3    5.38    3.86
   8  -1  -3    4.81    3.59
   8  -1  -2   15.15    4.68
  -8   1   2    9.48    5.48
   8  -1  -2    2.82    3.19
   8  -1  -1    4.39    2.62
  -8   1   1    3.26    2.68
   8  -1  -1    1.84    2.24
   8  -1   0   20.83    5.03
  -8   1   0   21.76    7.87
   8  -1   0    7.06    3.96
  -8   1   0    9.56    3.68
   8  -1   1    1.92    2.09
  -8   1  -1    2.98    3.56
   8  -1   1    2.31    2.48
  -8   1  -1    2.49    2.06
   8  -1   2   32.51    5.81
   8  -1   2   27.32    7.76
  -8   1  -2   30.18    6.81
   8  -1   3   -0.73    0.93
   8  -1   3   -1.86    2.59
  -8   1  -3    2.85    2.46
   8  -1   4   13.56    5.66
  -8   1  -4   15.86    5.16
   8  -1   5    3.84    2.69
  -8   1  -5    3.97    2.84
   8  -1   6   28.30    8.04
  -8   1  -6   25.90    7.35
   8  -1   7    4.52    3.34
  -8   1  -7    3.61    2.68
   8  -1   8   -0.29    2.59
  -8   1  -8    3.19    2.73
   8  -1   9   -0.97    1.97
  -8   1  -9   -0.64    2.13
   8  -1  10   12.29    6.29
   8   0  -4    6.16    3.34
   8   0  -3    2.79    2.10
  -8   0   3   -1.09    1.68
   8   0  -2    6.41    3.34
  -8   0   2    1.49    2.40
   8   0  -2    0.48    1.12
   8   0  -1    2.54    1.97
  -8   0   1    3.65    1.89
   8   0  -1    2.28    2.13
   8   0   0   13.59    4.55
  -8   0   0    7.89    4.02
   8   0   0   19.38    6.22
   8   0   1    1.11    0.91
  -8   0  -1    8.14    4.56
   8   0   1    4.01    2.86
  -8   0  -1    3.10    2.12
   8   0   2   29.39    5.84
   8   0   2   14.23    4.45
   8   0   2   22.26    6.28
  -8   0  -2   25.71    6.16
   8   0   3    0.78    0.77
   8   0   3   -0.11    1.79
   8   0   3    2.22    2.97
  -8   0  -3    3.24    2.66
   8   0   4   44.92    6.65
   8   0   4   48.33    8.81
   8   0   4   55.18   10.32
  -8   0  -4   56.46    9.89
   8   0   5    0.28    1.64
   8   0   5    3.68    2.82
  -8   0  -5    1.84    2.09
   8   0   6    6.20    3.04
  -8   0  -6    5.59    3.11
   8   0   7    1.13    2.00
  -8   0  -7   -0.15    1.44
  -8   0  -8    6.22    3.55
   8   0   8   11.56    5.21
  -8   0  -8   13.78    5.22
  -8   0  -9    1.83    2.20
   8   0   9    0.54    2.09
   8   0   9   -3.36    3.82
  -8   0  -9    5.85    3.53
  -8   0 -10   11.52    5.04
   8   0  10    9.12    5.03
   8   0  11    2.59    3.33
   8   1  -4   11.55    4.75
   8   1  -3    2.06    2.01
  -8  -1   3   -0.72    2.59
   8   1  -2   10.01    3.76
  -8  -1   2   10.81    5.31
   8   1  -2    1.38    1.85
   8   1  -1   -0.51    1.95
  -8  -1   1    0.57    1.80
   8   1  -1    1.13    0.89
   8   1   0    5.81    2.73
  -8  -1   0   13.42    6.07
   8   1   0   13.72    5.13
   8   1   1    2.10    1.90
  -8  -1  -1   -0.05    1.10
   8   1   1   -0.36    1.61
   8   1   2   12.80    4.38
   8   1   2    9.22    3.59
   8   1   2   11.46    4.30
  -8  -1  -2   15.06    4.89
   8   1   3   -0.05    1.63
   8   1   3    3.81    1.93
   8   1   3   -1.08    2.10
  -8  -1  -3    1.72    1.93
   8   1   4   43.61    7.28
   8   1   4   32.20    7.67
   8   1   4   28.15    7.00
  -8  -1  -4   43.04    8.58
   8   1   5    0.08    1.21
   8   1   5    3.33    2.95
   8   1   5    3.59    2.40
  -8  -1  -5   -1.90    2.78
   8   1   6   31.75    7.80
   8   1   6   25.33    6.58
  -8  -1  -6   35.07    8.42
   8   1   7    0.96    1.21
   8   1   7    2.71    2.32
  -8  -1  -7    2.20    1.30
  -8  -1  -7    5.21    4.03
  -8  -1  -8   11.07    4.99
   8   1   8   11.98    5.41
   8   1   8   12.16    5.13
  -8  -1  -8   17.70    6.25
  -8  -1  -9    2.90    2.47
   8   1   9   -1.67    2.15
   8   1   9    3.36    1.96
  -8  -1  -9    1.45    1.57
  -8  -1 -10    3.53    2.83
   8   1  10    3.30    1.25
   8   1  10    9.58    5.45
  -8  -1 -10    9.20    5.19
  -8  -1 -11    3.57    3.53
   8   1  11   -4.90    3.74
  -8  -1 -12    7.32    4.93
   8   2  -3   -0.34    1.94
  -8  -2   3    0.06    1.50
  -8  -2   3    5.34    4.44
   8   2  -2    8.81    4.16
  -8  -2   2    9.67    4.95
   8   2  -1    1.34    0.93
  -8  -2   1   -1.52    2.68
   8   2   0    2.48    1.70
  -8  -2   0    9.82    4.89
   8   2   1    1.80    1.12
   8   2   1   -0.08    0.78
   8   2   2   16.05    4.80
   8   2   2   11.55    4.06
   8   2   2   13.51    4.37
   8   2   3   -1.72    2.20
   8   2   3    2.41    2.69
   8   2   3    2.33    1.66
   8   2   4   15.84    5.33
   8   2   4   10.92    4.25
   8   2   4   15.67    4.61
   8   2   5    5.93    3.70
   8   2   5    4.88    2.89
   8   2   5   -3.07    2.59
   8   2   6   31.06    8.02
   8   2   6   25.21    5.84
   8   2   6   21.44    5.77
  -8  -2  -7    2.57    2.72
   8   2   7    0.59    1.15
   8   2   7    1.36    2.06
  -8  -2  -7   -0.22    1.34
  -8  -2  -8   14.93    6.03
   8   2   8    6.06    4.29
   8   2   8    8.88    4.28
  -8  -2  -8    1.64    2.51
  -8  -2  -9   -0.83    1.31
   8   2   9    0.52    2.75
   8   2   9    3.73    3.13
  -8  -2  -9   -0.10    1.42
  -8  -2 -10   11.55    5.73
   8   2  10   16.55    6.03
  -8  -2 -10    9.12    4.48
  -8  -2 -11    3.04    1.65
  -8  -2 -12    6.80    4.53
   8   3  -3    2.24    2.31
  -8  -3   3    0.46    1.17
   8   3  -2    2.47    2.33
  -8  -3   2    2.77    2.88
  -8  -3   2   10.10    5.96
   8   3  -1   -1.61    2.14
  -8  -3   1    4.87    4.31
  -8  -3   1    2.97    3.32
   8   3   0   12.93    5.06
  -8  -3   0    6.05    3.68
   8   3   1    3.64    2.57
  -8  -3  -1    0.84    1.54
   8   3   2    4.26    2.47
   8   3   2    4.52    2.84
   8   3   3    2.77    2.20
   8   3   3   -0.32    1.15
   8   3   4   13.43    5.77
   8   3   4   24.14    6.66
   8   3   5   -1.01    2.28
   8   3   5    5.07    3.43
   8   3   6    9.70    5.51
   8   3   6   17.37    5.45
  -8  -3  -6   20.28    7.62
  -8  -3  -7    3.43    3.12
   8   3   7    4.39    2.55
   8   3   7    3.42    2.73
  -8  -3  -8   11.85    5.83
   8   3   8   17.55    6.40
  -8  -3  -9   -1.67    1.35
   8   3   9    2.41    2.33
   8   3  10    1.62    2.61
  -8  -3 -10    0.12    1.14
  -8  -3 -11    0.59    1.70
  -8  -4   3   -3.24    3.22
   8   4  -2    0.19    1.06
  -8  -4   2    6.43    4.04
   8   4  -1    1.26    1.31
  -8  -4   1   -3.24    3.27
  -8  -4   1    2.07    3.33
   8   4   0   10.65    5.06
  -8  -4   0   -0.45    2.37
  -8  -4   0    7.69    4.54
   8   4   1    0.84    2.27
   8   4   2    9.23    4.39
   8   4   3    3.61    2.91
   8   4   3    1.95    1.95
   8   4   4    9.65    4.23
   8   4   4   10.36    4.86
   8   4   5    3.75    3.77
   8   4   5   -0.39    1.23
   8   4   6   12.76    5.98
   8   4   6   12.74    5.29
  -8  -4  -6    7.04    4.49
  -8  -4  -7   -1.68    1.50
   8   4   7   -3.00    3.80
   8   4   7    1.96    2.56
  -8  -4  -8   14.81    6.46
   8   4   8   12.70    6.02
   8   4   9    2.13    3.39
  -8  -4  -9   -2.37    3.59
   8   4  10    7.66    5.04
  -8  -4 -10    0.74    1.62
  -8  -5   2    8.33    5.31
   8   5  -1   -4.68    3.53
  -8  -5   1   -0.72    3.44
  -8  -5   1    0.38    2.71
   8   5   0    2.09    2.54
  -8  -5   0    8.68    4.66
  -8  -5   0    9.06    4.90
   8   5   1    0.86    1.90
  -8  -5  -1    9.88    5.31
   8   5   2   12.99    6.58
   8   5   3   -1.77    3.51
   8   5   3   -0.56    1.29
   8   5   4    5.18    4.16
   8   5   4    9.62    4.52
   8   5   5    1.44    2.29
   8   5   5   -3.43    2.95
  -8  -5  -6    8.25    5.22
   8   5   6   15.14    6.29
   8   5   7    6.60    4.77
  -8  -5  -7    6.95    4.14
   8   5   8    9.54    5.63
  -8  -5  -8   11.32    5.76
   8   5   9    1.70    1.56
  -8  -5  -9   11.75    6.68
   8   5  10   -0.20    2.04
  -8  -6   2    7.02    4.62
  -8  -6   1    1.21    2.29
   8   6   1   -3.08    1.35
  -8  -6  -1    4.68    3.93
   8   6   2    3.78    2.37
  -8  -6  -2    4.02    3.67
   8   6   3    5.33    4.23
   8   6   4    5.63    3.93
   8   6   4    4.63    3.16
   8   6   5   -0.73    3.49
   8   6   6    6.93    4.24
  -8  -6  -7    1.26    1.48
   8   6   7    4.59    3.93
   8   6   8    1.72    2.83
   8   6   9    4.35    5.10
  -8  -7  -2   -4.47    3.45
   8   7   3    7.03    4.26
  -8  -7  -3    3.97    3.39
   8   7   5    4.99    4.11
   8   7   6    0.53    2.02
   8   7   7    0.33    3.16
   8   7   8    8.40    5.64
  -8  -8  -3    0.94    1.60
   8   8   5    5.35    3.87
   8   8   6    2.36    3.35
   8   8   7   -0.90    2.64
  -9   4  -3    1.80    2.47
   9  -3  -1    2.23    4.02
   9  -3   0   -5.34    4.03
   9  -3   1    3.96    3.11
   9  -3   2    0.78    1.80
   9  -3   3   10.17    6.09
  -9   3  -3    2.47    2.55
   9  -3   4   -3.59    3.49
  -9   3  -4    0.42    1.11
  -9   3  -5    0.85    2.22
   9  -2  -2    3.04    2.45
   9  -2  -2   -4.50    3.40
   9  -2  -1   -2.62    1.95
   9  -2  -1    0.83    2.59
   9  -2   0   -0.73    1.11
   9  -2   0    4.46    3.91
   9  -2   1    6.68    4.43
   9  -2   2   -1.26    1.37
   9  -2   3    0.82    1.13
  -9   2  -3    5.69    3.13
   9  -2   4   -2.24    2.34
  -9   2  -4    0.55    1.41
   9  -2   5    4.89    3.78
  -9   2  -5    0.79    1.05
   9  -2   6   -4.07    2.47
  -9   2  -6    3.96    2.83
   9  -2   7    1.04    2.45
   9  -1  -2   -1.01    1.49
   9  -1  -2    1.70    1.62
   9  -1  -1    5.06    2.21
   9  -1  -1    7.09    3.77
   9  -1   0    1.96    1.72
   9  -1   0   -4.12    3.50
   9  -1   1    5.97    2.97
   9  -1   1    6.21    3.32
   9  -1   2    1.99    2.33
   9  -1   3    7.64    4.45
  -9   1  -3    3.09    3.05
   9  -1   4   -3.60    2.87
   9  -1   4   -2.27    2.51
  -9   1  -4    3.56    2.34
   9  -1   5    2.81    2.83
  -9   1  -5    1.46    1.76
   9  -1   6    5.56    3.70
  -9   1  -6    0.54    2.15
   9  -1   7   -3.02    2.93
  -9   1  -7    0.62    1.88
   9  -1   8    5.78    3.53
   9   0  -2    5.82    3.25
   9   0  -1    3.84    3.02
   9   0   0    2.46    2.46
   9   0   1    8.53    3.59
   9   0   2   -0.98    1.35
   9   0   3   10.61    4.87
  -9   0  -3    5.35    3.23
   9   0   4    2.85    2.56
  -9   0  -4   -0.46    2.06
   9   0   5    3.76    2.65
   9   0   5    6.46    3.82
  -9   0  -5    0.11    1.45
   9   0   6   -5.75    3.38
   9   0   6    0.30    0.79
  -9   0  -6   -4.15    3.06
   9   0   7   -1.93    2.76
  -9   0  -7    4.43    3.40
   9   0   8   -0.02    2.25
   9   1  -1    3.65    2.86
   9   1   0   -0.86    1.71
   9   1   1    4.30    2.70
   9   1   2   -2.51    1.85
   9   1   3   13.31    4.36
  -9  -1  -4    5.53    2.07
   9   1   5   -1.86    2.16
  -9  -1  -5    0.07    1.22
   9   1   6    1.22    2.02
  -9  -1  -6    0.64    1.97
   9   1   7    6.05    3.12
  -9  -1  -7    7.32    4.69
   9   1   8   -4.14    2.76
  -9  -1  -8    4.87    3.16
  -9  -1  -9   -4.02    3.26
   9   2  -1    0.61    1.44
   9   2   0   -3.02    2.52
   9   2   1    6.18    3.12
   9   2   2    1.38    1.47
   9   2   3    3.97    1.87
   9   2   4   -1.71    2.33
   9   2   5   13.57    4.86
   9   2   6   -2.35    2.68
   9   2   7    6.26    4.03
   9   2   8   -3.09    2.95
  -9  -2  -9    2.56    2.26
   9   3   0    1.86    2.61
   9   3   1    4.75    3.28
   9   3   2   -3.31    2.66
   9   3   3    3.85    3.14
   9   3   4   -0.39    1.06
   9   3   5    3.45    3.05
   9   3   5    6.09    3.31
   9   3   6    2.57    2.20
   9   3   7    5.38    3.37
   9   3   8    2.25    1.92
  -9  -3  -8    2.04    2.70
   9   3   9    1.63    3.21
   9   4   1    2.88    2.91
   9   4   2    4.38    2.90
   9   4   3   14.34    6.08
   9   4   4    2.44    3.64
   9   4   5    8.29    3.88
   9   4   6    2.59    2.28
   9   4   6   -2.97    2.28
   9   4   7    9.47    5.93
   9   4   8    0.46    4.08
   9   5   3    3.40    3.18
   9   5   4    6.65    4.16
   9   5   5   -5.10    3.92
   9   5   6   -2.22    2.67
   9   5   7    3.08    3.17
   9   5   8    5.07    4.76
   9   6   5    1.77    4.97
   9   6   6    3.24    3.41
   9   6   7   -5.72    3.87
   9   6   7    4.99    2.28
   0   0   0    0.00    0.00


TITL exp_1343 in P-1
REM P-1 (#2 in standard setting)
CELL 0.71073   7.187663   9.226742  11.815047  76.8242  77.4659  83.8771
ZERR    2.00   0.000454   0.000589   0.000842   0.0058   0.0057   0.0052
LATT  1
SFAC C H F Fe
UNIT 32.00 20.00 12.00 2.00
TREF
HKLF 4
END
_computing_structure_solution     'SHELXT 2014/5 (Sheldrick, 2014)'
;
_shelx_hkl_checksum              5337
_olex2_date_sample_data_collection 2018-12-13
_olex2_exptl_crystal_mounting_method 'Inside 1.0 mm X-ray capillary'
_olex2_submission_special_instructions 'No special instructions were received'
_oxdiff_exptl_absorpt_empirical_details
;
Empirical correction (ABSPACK) includes:
- Absorption correction using spherical harmonics
- Frame scaling
;
_oxdiff_exptl_absorpt_empirical_full_max 1.913
_oxdiff_exptl_absorpt_empirical_full_min 0.478
loop_
_space_group_symop_operation_xyz
'x, y, z'
'-x, -y, -z'
loop_
_atom_site_label
_atom_site_type_symbol
_atom_site_fract_x
_atom_site_fract_y
_atom_site_fract_z
_atom_site_U_iso_or_equiv
_atom_site_adp_type
_atom_site_occupancy
_atom_site_site_symmetry_order
_atom_site_calc_flag
_atom_site_refinement_flags_posn
Fe1 Fe 0.24393(5) 0.49778(4) 0.25114(3) 0.0565(3) Uani 1 1 d .
C7 C 0.3135(7) 0.6754(7) 0.1209(7) 0.125(3) Uani 1 1 d .
H7 H 0.4361 0.7088 0.0934 0.151 Uiso 1 1 calc R
C8 C 0.2330(9) 0.5743(6) 0.0790(4) 0.1050(18) Uani 1 1 d .
H8 H 0.2921 0.5276 0.0175 0.126 Uiso 1 1 calc R
C9 C 0.0577(8) 0.5548(5) 0.1412(5) 0.0956(14) Uani 1 1 d .
H9 H -0.0268 0.4916 0.1309 0.115 Uiso 1 1 calc R
C10 C 0.0210(7) 0.6424(6) 0.2227(4) 0.1006(16) Uani 1 1 d .
H10 H -0.0930 0.6490 0.2769 0.121 Uiso 1 1 calc R
C11 C 0.1764(11) 0.7180(5) 0.2122(6) 0.116(2) Uani 1 1 d .
H11 H 0.1895 0.7856 0.2572 0.140 Uiso 1 1 calc R
C12 C 0.4752(7) 0.4101(7) 0.3185(6) 0.122(2) Uani 1 1 d .
H12 H 0.5952 0.4487 0.2951 0.146 Uiso 1 1 calc R
C13 C 0.4050(9) 0.3057(6) 0.2703(4) 0.1046(17) Uani 1 1 d .
H13 H 0.4712 0.2624 0.2082 0.125 Uiso 1 1 calc R
C14 C 0.2264(7) 0.2796(4) 0.3293(4) 0.0891(13) Uani 1 1 d .
H14 H 0.1478 0.2148 0.3151 0.107 Uiso 1 1 calc R
C15 C 0.1786(7) 0.3635(5) 0.4138(4) 0.0877(13) Uani 1 1 d .
H15 H 0.0623 0.3654 0.4666 0.105 Uiso 1 1 calc R
C16 C 0.3284(9) 0.4431(5) 0.4078(4) 0.0963(15) Uani 1 1 d .
H16 H 0.3324 0.5093 0.4558 0.116 Uiso 1 1 calc R
F1 F 0.3673(4) 0.9939(4) -0.1147(3) 0.1221(10) Uani 1 1 d .
F2 F 0.1233(5) 0.8153(3) -0.1521(2) 0.1144(9) Uani 1 1 d .
F3 F -0.2432(5) 0.8207(4) -0.0367(3) 0.1289(11) Uani 1 1 d .
C1 C 0.1843(5) 0.9968(5) -0.0587(3) 0.0751(11) Uani 1 1 d .
C2 C 0.0617(6) 0.9075(4) -0.0773(3) 0.0720(10) Uani 1 1 d .
C3 C -0.1220(6) 0.9101(4) -0.0189(4) 0.0763(11) Uani 1 1 d .
F4 F 0.7816(5) 0.1603(4) 0.5149(4) 0.1437(12) Uani 1 1 d .
F5 F 0.4279(6) 0.1961(3) 0.6441(3) 0.1326(11) Uani 1 1 d .
F6 F 0.1471(4) 0.0368(4) 0.6283(3) 0.1347(12) Uani 1 1 d .
C4 C 0.6415(6) 0.0810(5) 0.5076(4) 0.0803(12) Uani 1 1 d .
C5 C 0.4648(7) 0.0984(4) 0.5727(3) 0.0754(11) Uani 1 1 d .
C6 C 0.3230(6) 0.0183(5) 0.5658(3) 0.0777(11) Uani 1 1 d .
loop_
_atom_site_aniso_label
_atom_site_aniso_U_11
_atom_site_aniso_U_22
_atom_site_aniso_U_33
_atom_site_aniso_U_23
_atom_site_aniso_U_13
_atom_site_aniso_U_12
Fe1 0.0652(4) 0.0494(4) 0.0535(4) -0.0044(2) -0.0190(2) 0.0032(2)
C7 0.083(3) 0.112(4) 0.146(5) 0.074(4) -0.040(4) -0.032(3)
C8 0.132(4) 0.110(4) 0.054(2) -0.001(2) -0.018(3) 0.043(4)
C9 0.118(4) 0.081(3) 0.099(3) -0.003(3) -0.065(3) -0.004(3)
C10 0.105(4) 0.105(4) 0.076(3) -0.009(3) -0.021(2) 0.049(3)
C11 0.192(6) 0.049(2) 0.134(5) -0.013(3) -0.107(5) 0.012(3)
C12 0.068(3) 0.119(5) 0.152(5) 0.057(4) -0.050(3) -0.013(3)
C13 0.121(4) 0.090(3) 0.075(3) 0.002(3) -0.010(3) 0.054(3)
C14 0.120(4) 0.053(2) 0.096(3) 0.001(2) -0.042(3) -0.006(2)
C15 0.102(3) 0.083(3) 0.063(2) 0.003(2) -0.013(2) 0.013(2)
C16 0.142(4) 0.073(3) 0.093(3) -0.011(2) -0.074(3) 0.001(3)
F1 0.0809(16) 0.135(2) 0.124(2) -0.0060(18) 0.0076(15) 0.0051(15)
F2 0.165(2) 0.0920(18) 0.0874(17) -0.0380(15) -0.0247(17) 0.0268(16)
F3 0.134(2) 0.111(2) 0.159(3) -0.028(2) -0.054(2) -0.0365(18)
C1 0.070(2) 0.070(2) 0.071(2) 0.002(2) -0.0089(19) 0.0109(19)
C2 0.095(3) 0.057(2) 0.061(2) -0.0113(18) -0.019(2) 0.012(2)
C3 0.087(3) 0.057(2) 0.084(3) 0.003(2) -0.032(2) -0.0094(19)
F4 0.134(2) 0.126(2) 0.188(3) -0.013(2) -0.070(2) -0.0512(19)
F5 0.217(3) 0.0950(19) 0.0992(19) -0.0467(17) -0.053(2) 0.034(2)
F6 0.0887(17) 0.154(3) 0.118(2) 0.0119(19) 0.0144(16) 0.0259(17)
C4 0.086(3) 0.067(2) 0.089(3) 0.008(2) -0.039(2) -0.014(2)
C5 0.106(3) 0.056(2) 0.065(2) -0.0103(19) -0.028(2) 0.013(2)
C6 0.073(2) 0.076(3) 0.066(2) 0.007(2) -0.0062(19) 0.013(2)
loop_
_atom_type_symbol
_atom_type_description
_atom_type_scat_dispersion_real
_atom_type_scat_dispersion_imag
_atom_type_scat_source
C C 0.0033 0.0016 'International Tables Vol C Tables 4.2.6.8 and 6.1.1.4'
H H 0.0000 0.0000 'International Tables Vol C Tables 4.2.6.8 and 6.1.1.4'
F F 0.0171 0.0103 'International Tables Vol C Tables 4.2.6.8 and 6.1.1.4'
Fe Fe 0.3463 0.8444 'International Tables Vol C Tables 4.2.6.8 and 6.1.1.4'
loop_
_geom_angle_atom_site_label_1
_geom_angle_atom_site_label_2
_geom_angle_atom_site_label_3
_geom_angle
_geom_angle_site_symmetry_3
C7 Fe1 C8 40.2(2) .
C7 Fe1 C9 66.2(2) .
C7 Fe1 C10 66.5(2) .
C7 Fe1 C11 40.6(2) .
C7 Fe1 C12 109.8(2) .
C7 Fe1 C13 123.6(3) .
C7 Fe1 C14 157.2(3) .
C7 Fe1 C15 162.3(3) .
C7 Fe1 C16 127.1(3) .
C8 Fe1 C9 38.3(2) .
C8 Fe1 C12 127.0(3) .
C8 Fe1 C14 122.1(2) .
C8 Fe1 C15 155.8(3) .
C8 Fe1 C16 163.9(3) .
C9 Fe1 C14 109.21(19) .
C9 Fe1 C15 122.7(2) .
C10 Fe1 C8 65.73(19) .
C10 Fe1 C9 39.52(19) .
C10 Fe1 C11 39.2(2) .
C10 Fe1 C12 157.4(3) .
C10 Fe1 C14 125.3(2) .
C10 Fe1 C15 109.5(2) .
C10 Fe1 C16 122.7(2) .
C11 Fe1 C8 67.3(2) .
C11 Fe1 C9 66.5(2) .
C11 Fe1 C12 123.2(3) .
C11 Fe1 C14 160.5(3) .
C11 Fe1 C15 125.3(3) .
C11 Fe1 C16 109.7(2) .
C12 Fe1 C9 161.6(3) .
C12 Fe1 C14 67.0(2) .
C12 Fe1 C15 66.8(2) .
C12 Fe1 C16 40.2(2) .
C13 Fe1 C8 109.7(2) .
C13 Fe1 C9 124.7(2) .
C13 Fe1 C10 160.0(3) .
C13 Fe1 C11 159.4(3) .
C13 Fe1 C12 41.1(2) .
C13 Fe1 C14 38.86(19) .
C13 Fe1 C15 66.14(18) .
C13 Fe1 C16 67.3(2) .
C14 Fe1 C15 39.42(18) .
C16 Fe1 C9 156.6(2) .
C16 Fe1 C14 66.17(18) .
C16 Fe1 C15 39.00(19) .
Fe1 C7 H7 124.7 .
C8 C7 Fe1 70.3(3) .
C8 C7 H7 126.5 .
C8 C7 C11 106.9(4) .
C11 C7 Fe1 70.1(3) .
C11 C7 H7 126.5 .
Fe1 C8 H8 125.5 .
C7 C8 Fe1 69.4(3) .
C7 C8 H8 125.8 .
C9 C8 Fe1 70.9(3) .
C9 C8 C7 108.5(5) .
C9 C8 H8 125.8 .
Fe1 C9 H9 125.2 .
C8 C9 Fe1 70.8(3) .
C8 C9 H9 125.5 .
C8 C9 C10 108.9(5) .
C10 C9 Fe1 70.1(3) .
C10 C9 H9 125.5 .
Fe1 C10 H10 125.3 .
C9 C10 Fe1 70.4(2) .
C9 C10 H10 125.5 .
C11 C10 Fe1 70.4(3) .
C11 C10 C9 109.0(5) .
C11 C10 H10 125.5 .
Fe1 C11 H11 125.3 .
C7 C11 Fe1 69.3(3) .
C7 C11 H11 126.7 .
C10 C11 Fe1 70.4(3) .
C10 C11 C7 106.7(5) .
C10 C11 H11 126.7 .
Fe1 C12 H12 125.3 .
C13 C12 Fe1 69.3(3) .
C13 C12 H12 127.2 .
C16 C12 Fe1 69.9(2) .
C16 C12 H12 127.2 .
C16 C12 C13 105.7(4) .
Fe1 C13 H13 124.9 .
C12 C13 Fe1 69.7(3) .
C12 C13 H13 125.9 .
C14 C13 Fe1 71.1(2) .
C14 C13 C12 108.1(5) .
C14 C13 H13 125.9 .
Fe1 C14 H14 125.5 .
C13 C14 Fe1 70.0(3) .
C13 C14 H14 125.6 .
C13 C14 C15 108.9(5) .
C15 C14 Fe1 70.5(2) .
C15 C14 H14 125.6 .
Fe1 C15 H15 125.7 .
C14 C15 Fe1 70.1(2) .
C14 C15 H15 125.7 .
C16 C15 Fe1 70.0(3) .
C16 C15 C14 108.5(4) .
C16 C15 H15 125.7 .
Fe1 C16 H16 125.1 .
C12 C16 Fe1 69.9(3) .
C12 C16 H16 125.6 .
C15 C16 Fe1 71.0(2) .
C15 C16 C12 108.8(5) .
C15 C16 H16 125.6 .
F1 C1 C2 120.4(4) .
F1 C1 C3 119.6(4) 2_575
C2 C1 C3 120.0(4) 2_575
F2 C2 C1 119.9(4) .
F2 C2 C3 120.3(4) .
C3 C2 C1 119.8(4) .
F3 C3 C1 120.0(4) 2_575
F3 C3 C2 119.8(4) .
C2 C3 C1 120.3(4) 2_575
F4 C4 C5 120.1(5) .
F4 C4 C6 120.0(5) 2_656
C5 C4 C6 119.9(4) 2_656
F5 C5 C4 120.5(4) .
F5 C5 C6 119.3(4) .
C6 C5 C4 120.2(4) .
F6 C6 C4 119.5(5) 2_656
F6 C6 C5 120.6(5) .
C5 C6 C4 119.8(4) 2_656
loop_
_geom_bond_atom_site_label_1
_geom_bond_atom_site_label_2
_geom_bond_distance
_geom_bond_site_symmetry_2
Fe1 C7 1.999(4) .
Fe1 C8 2.010(4) .
Fe1 C9 2.012(4) .
Fe1 C10 2.009(4) .
Fe1 C11 2.009(4) .
Fe1 C12 2.011(4) .
Fe1 C13 2.007(4) .
Fe1 C14 2.020(4) .
Fe1 C15 2.024(4) .
Fe1 C16 2.012(4) .
C7 H7 0.9300 .
C7 C8 1.379(8) .
C7 C11 1.392(8) .
C8 H8 0.9300 .
C8 C9 1.321(7) .
C9 H9 0.9300 .
C9 C10 1.360(7) .
C10 H10 0.9300 .
C10 C11 1.348(7) .
C11 H11 0.9300 .
C12 H12 0.9300 .
C12 C13 1.409(8) .
C12 C16 1.384(7) .
C13 H13 0.9300 .
C13 C14 1.339(6) .
C14 H14 0.9300 .
C14 C15 1.364(6) .
C15 H15 0.9300 .
C15 C16 1.347(6) .
C16 H16 0.9300 .
F1 C1 1.338(4) .
F2 C2 1.339(4) .
F3 C3 1.340(5) .
C1 C2 1.351(6) .
C1 C3 1.371(6) 2_575
C2 C3 1.351(5) .
C3 C1 1.371(6) 2_575
F4 C4 1.334(5) .
F5 C5 1.340(5) .
F6 C6 1.334(4) .
C4 C5 1.349(6) .
C4 C6 1.369(6) 2_656
C5 C6 1.348(6) .
C6 C4 1.369(6) 2_656
loop_
_geom_torsion_atom_site_label_1
_geom_torsion_atom_site_label_2
_geom_torsion_atom_site_label_3
_geom_torsion_atom_site_label_4
_geom_torsion
_geom_torsion_site_symmetry_1
_geom_torsion_site_symmetry_4
Fe1 C7 C8 C9 60.4(3) . .
Fe1 C7 C11 C10 -60.8(3) . .
Fe1 C8 C9 C10 60.0(3) . .
Fe1 C9 C10 C11 60.1(3) . .
Fe1 C10 C11 C7 60.1(3) . .
Fe1 C12 C13 C14 -61.0(3) . .
Fe1 C12 C16 C15 60.6(3) . .
Fe1 C13 C14 C15 -60.0(3) . .
Fe1 C14 C15 C16 -59.7(3) . .
Fe1 C15 C16 C12 -59.9(3) . .
C7 C8 C9 Fe1 -59.5(3) . .
C7 C8 C9 C10 0.5(5) . .
C8 C7 C11 Fe1 61.0(3) . .
C8 C7 C11 C10 0.3(5) . .
C8 C9 C10 Fe1 -60.4(3) . .
C8 C9 C10 C11 -0.3(5) . .
C9 C10 C11 Fe1 -60.0(3) . .
C9 C10 C11 C7 0.0(5) . .
C11 C7 C8 Fe1 -60.9(3) . .
C11 C7 C8 C9 -0.4(5) . .
C12 C13 C14 Fe1 60.1(3) . .
C12 C13 C14 C15 0.1(5) . .
C13 C12 C16 Fe1 -60.4(3) . .
C13 C12 C16 C15 0.2(5) . .
C13 C14 C15 Fe1 59.7(3) . .
C13 C14 C15 C16 0.0(5) . .
C14 C15 C16 Fe1 59.8(3) . .
C14 C15 C16 C12 -0.1(5) . .
C16 C12 C13 Fe1 60.8(3) . .
C16 C12 C13 C14 -0.2(5) . .
F1 C1 C2 F2 0.0(5) . .
F1 C1 C2 C3 179.1(3) . .
F2 C2 C3 F3 -0.4(6) . .
F2 C2 C3 C1 179.2(3) . 2_575
C1 C2 C3 F3 -179.5(4) . .
C1 C2 C3 C1 0.1(6) . 2_575
C3 C1 C2 F2 -179.2(3) 2_575 .
C3 C1 C2 C3 -0.1(6) 2_575 .
F4 C4 C5 F5 0.6(6) . .
F4 C4 C5 C6 -179.8(4) . .
F5 C5 C6 F6 0.8(6) . .
F5 C5 C6 C4 179.4(3) . 2_656
C4 C5 C6 F6 -178.8(3) . .
C4 C5 C6 C4 -0.1(6) . 2_656
C6 C4 C5 F5 -179.4(3) 2_656 .
C6 C4 C5 C6 0.1(6) 2_656 .
