#------------------------------------------------------------------------------
#$Date: 2019-11-26 06:57:13 +0200 (Tue, 26 Nov 2019) $
#$Revision: 242885 $
#$URL: file:///home/coder/svn-repositories/cod/cif/4/13/30/4133032.cif $
#------------------------------------------------------------------------------
#
# This file is available in the Crystallography Open Database (COD),
# http://www.crystallography.net/
#
# All data on this site have been placed in the public domain by the
# contributors.
#
data_4133032
loop_
_publ_author_name
'Sahadevan, Suchithra Ashoka'
'Abherv\'e, Alexandre'
'Monni, Noemi'
'S\'aenz de Pipa\'on, Cristina'
'Gal\'an-Mascar\'os, Jos\'e Ram\'on'
'Waerenborgh, Jo\~ao C'
'Vieira, Bruno J. C.'
'Auban-Senzier, Pascale'
'Pillet, S\'ebastien'
'Bendeif, El-Eulmi'
'Alemany, Pere'
'Canadell, Enric'
'Mercuri, Maria Laura'
'Avarvari, Narcis'
_publ_section_title
;
 Conducting Anilate-Based Mixed-Valence Fe(II)Fe(III) Coordination
 Polymer: Small-Polaron Hopping Model for Oxalate-Type Fe(II)Fe(III) 2D
 Networks.
;
_journal_issue                   39
_journal_name_full               'Journal of the American Chemical Society'
_journal_page_first              12611
_journal_page_last               12621
_journal_paper_doi               10.1021/jacs.8b08032
_journal_volume                  140
_journal_year                    2018
_chemical_formula_moiety         'C21 Cl3 Fe2 N3 O12, (C1 N6 H9)'
_chemical_formula_sum            'C22 H9 Cl3 Fe2 N9 O12'
_chemical_formula_weight         809.43
_space_group_crystal_system      trigonal
_space_group_IT_number           143
_space_group_name_Hall           'P 3'
_space_group_name_H-M_alt        'P 3'
_atom_sites_solution_hydrogens   difmap
_audit_creation_method           SHELXL-2014/7
_cell_angle_alpha                90
_cell_angle_beta                 90
_cell_angle_gamma                120
_cell_formula_units_Z            1
_cell_length_a                   13.5493(16)
_cell_length_b                   13.5493(16)
_cell_length_c                   9.484(3)
_cell_measurement_reflns_used    8947
_cell_measurement_temperature    10(2)
_cell_measurement_theta_max      26.363
_cell_measurement_theta_min      2.147
_cell_volume                     1507.8(5)
_computing_cell_refinement       'CrysAlisPro 1.171.39.43b (Rigaku OD, 2018)'
_computing_data_collection       'CrysAlisPro 1.171.39.43b (Rigaku OD, 2018)'
_computing_data_reduction        'CrysAlisPro 1.171.39.43b (Rigaku OD, 2018)'
_computing_structure_refinement  'SHELXL-2014/7 (Sheldrick, 2014)'
_computing_structure_solution    'SHELXS-2014/7 (Sheldrick, 2014)'
_diffrn_ambient_temperature      10(2)
_diffrn_measured_fraction_theta_full 0.999
_diffrn_measured_fraction_theta_max 1.000
_diffrn_measurement_device_type  'SuperNova, Dual, Cu at zero, Atlas'
_diffrn_measurement_method       '\w scans'
_diffrn_radiation_source         'SuperNova (Mo) X-ray Source'
_diffrn_radiation_type           MoK\a
_diffrn_radiation_wavelength     0.71073
_diffrn_reflns_av_R_equivalents  0.0604
_diffrn_reflns_av_unetI/netI     0.1094
_diffrn_reflns_Laue_measured_fraction_full 0.999
_diffrn_reflns_Laue_measured_fraction_max 1.000
_diffrn_reflns_limit_h_max       15
_diffrn_reflns_limit_h_min       -16
_diffrn_reflns_limit_k_max       16
_diffrn_reflns_limit_k_min       -16
_diffrn_reflns_limit_l_max       11
_diffrn_reflns_limit_l_min       -11
_diffrn_reflns_number            8947
_diffrn_reflns_point_group_measured_fraction_full 0.999
_diffrn_reflns_point_group_measured_fraction_max 1.000
_diffrn_reflns_theta_full        25.242
_diffrn_reflns_theta_max         26.363
_diffrn_reflns_theta_min         2.147
_exptl_absorpt_coefficient_mu    0.653
_exptl_absorpt_correction_T_max  1.000
_exptl_absorpt_correction_T_min  0.704
_exptl_absorpt_correction_type   gaussian
_exptl_absorpt_process_details
;
CrysAlisPro 1.171.39.43b (Rigaku Oxford Diffraction, 2018)
Numerical absorption correction based on gaussian integration over
			a multifaceted crystal model
Empirical absorption correction using spherical harmonics,
 implemented in SCALE3 ABSPACK scaling algorithm.
;
_exptl_crystal_colour            black
_exptl_crystal_density_diffrn    0.891
_exptl_crystal_description       block
_exptl_crystal_F_000             403
_exptl_crystal_size_max          0.219
_exptl_crystal_size_mid          0.191
_exptl_crystal_size_min          0.061
_refine_diff_density_max         0.476
_refine_diff_density_min         -0.501
_refine_diff_density_rms         0.059
_refine_ls_abs_structure_details
;
 Refined as an inversion twin.
;
_refine_ls_abs_structure_Flack   0.57(6)
_refine_ls_extinction_method     none
_refine_ls_goodness_of_fit_ref   1.086
_refine_ls_hydrogen_treatment    noref
_refine_ls_matrix_type           full
_refine_ls_number_parameters     125
_refine_ls_number_reflns         3976
_refine_ls_number_restraints     2
_refine_ls_restrained_S_all      1.095
_refine_ls_R_factor_all          0.1520
_refine_ls_R_factor_gt           0.0715
_refine_ls_shift/su_max          0.024
_refine_ls_shift/su_mean         0.001
_refine_ls_structure_factor_coef Fsqd
_refine_ls_weighting_details
'w=1/[\s^2^(Fo^2^)+(0.0767P)^2^] where P=(Fo^2^+2Fc^2^)/3'
_refine_ls_weighting_scheme      calc
_refine_ls_wR_factor_gt          0.1912
_refine_ls_wR_factor_ref         0.2391
_reflns_Friedel_coverage         1.000
_reflns_Friedel_fraction_full    0.999
_reflns_Friedel_fraction_max     1.000
_reflns_number_gt                1612
_reflns_number_total             3976
_reflns_threshold_expression     'I > 2\s(I)'
_cod_data_source_file            ja8b08032_si_003.cif
_cod_data_source_block           shelx
_cod_original_cell_volume        1507.8(6)
_cod_database_code               4133032
_shelx_shelxl_version_number     2014/7
_shelx_space_group_comment
;
The symmetry employed for this shelxl refinement is uniquely defined
by the following loop, which should always be used as a source of
symmetry information in preference to the above space-group names.
They are only intended as comments.
;
_shelx_res_file
;

    shelx.res created by SHELXL-2014/7


TITL    1 in space group P3
CELL    0.71073  13.549288  13.549288   9.483793    90.0000    90.0000   120.000
ZERR     1        0.001619   0.001619   0.003023     0.0000     0.0000     0.000
LATT   -1
SYMM     - Y, + X - Y, + Z
SYMM     - X + Y, - X, + Z
SFAC     C    H    Cl   Fe   N    O
UNIT      22   9    3    2    9   12
SHEL 20.0 0.8
L.S. 20
FMAP     2
PLAN    10
DFIX 0.95 0.01 C7 N1

ACTA
BOND    $H
TWIN -1 0 0 0 -1 0 0 0 -1  2

DAMP 100.0
ABIN
WGHT    0.076700
BASF   0.57120
FVAR       3.88985
C1    1    0.109395    0.521711    0.634551    11.00000    0.08308    0.04555 =
         0.08803   -0.00104   -0.01584    0.03096
C2    1    0.104108    0.580282    0.509752    11.00000    0.04584    0.03578 =
         0.15141   -0.01916   -0.01108    0.02534
C3    1    0.001609    0.566228    0.435983    11.00000    0.04411    0.08524 =
         0.15099   -0.01914    0.01587    0.02283
C4    1   -0.100440    0.479524    0.503350    11.00000    0.03936    0.03725 =
         0.14836    0.01122    0.01376    0.02624
C5    1   -0.100496    0.417702    0.639133    11.00000    0.06126    0.04978 =
         0.12826    0.02427   -0.00015    0.02781
C6    1    0.002101    0.445047    0.689593    11.00000    0.05450    0.04183 =
         0.11086    0.01038   -0.01236    0.02017
N1    5   -0.001120    0.335322    0.894366    11.00000    0.04580    0.18536 =
         0.16321    0.01200   -0.00236    0.02026
C7    1   -0.000119    0.379527    0.827260    11.00000    0.01959    0.03600 =
         0.09727    0.04256    0.00106    0.00750
O1    6    0.204657    0.553415    0.670372    11.00000    0.06716    0.06269 =
         0.09068    0.01553   -0.01373    0.03587
O2    6    0.200782    0.655357    0.436338    11.00000    0.04038    0.06648 =
         0.15144   -0.00151    0.01385    0.02658
O3    6   -0.198737    0.453852    0.434644    11.00000    0.03912    0.05049 =
         0.17595    0.00688   -0.00440    0.00958
O4    6   -0.201367    0.351315    0.671831    11.00000    0.05904    0.05332 =
         0.14270    0.04040    0.01895    0.02893
CL1   3    0.000241    0.628240    0.284130    11.00000    0.09649    0.15410 =
         0.23536    0.08292    0.00751    0.04968
FE1   4    0.333333    0.666667    0.563170    10.33333    0.05656    0.05656 =
         0.14936    0.00000    0.00000    0.02828
FE2   4   -0.333333    0.333333    0.562418    10.33333    0.05863    0.05863 =
         0.14456    0.00000    0.00000    0.02932
AFIX   1
C8    1    0.333333    0.666667    0.048355    10.33333    0.38058
N2    5    0.215806    0.617906    0.064611    11.00000    0.56668
H2    2    0.181023    0.547503    0.089811    11.00000   -1.20000
N3    5    0.137406    0.670202    0.044556    11.00000    0.68507
H3A   2    0.166229    0.740253    0.019407    11.00000   -1.20000
H3B   2    0.065237    0.629066    0.058616    11.00000   -1.20000
AFIX   0
HKLF    4

REM     1 in space group P3
REM R1 =  0.0715 for    1612 Fo > 4sig(Fo)  and  0.1520 for all    3976 data
REM    125 parameters refined using      2 restraints

END

WGHT      0.1270      0.0000

REM Highest difference peak  0.476,  deepest hole -0.501,  1-sigma level  0.059
Q1    1  -0.0081  0.4461  0.6242  11.00000  0.05    0.23
Q2    1   0.1405  0.6784  0.3376  11.00000  0.05    0.22
Q3    1  -0.0110  0.6022 -0.0896  11.00000  0.05    0.19
Q4    1   0.0782  0.0960  0.9079  11.00000  0.05    0.18
Q5    1  -0.2521  0.3736  0.7287  11.00000  0.05    0.17
Q6    1   0.2628  0.5412  0.5650  11.00000  0.05    0.17
Q7    1  -0.1323  0.3221  0.7856  11.00000  0.05    0.17
Q8    1   0.0503  0.3296  0.9022  11.00000  0.05    0.17
Q9    1  -0.1225  0.3667  0.7936  11.00000  0.05    0.16
Q10   1   0.0311  0.3952  0.1925  11.00000  0.05    0.16
;
_shelx_res_checksum              1738
_shelx_hkl_file
;
   0   0 -12 0.53522 296.203   2
   0   0 -11 13.5953 61.2112   2
   0   0 -10 123.934 220.985   2
   0   0  -9 456.700 298.884   2
   0   0  -8 545.376 383.404   2
   0   0  -7 465.500 258.885   2
   0   0  -6 77.3093 50.6090   2
   0   0  -5 18122.5 1432.83   2
   0   0  -4 17963.0 1263.30   2
   0   0  -3 41833.6 1654.34   2
   0   0  -2 10935.2 692.107   2
   0   0  -1 146205. 1750.99   2
   0   0   1 146374. 1499.80   1
   0   0   2 12237.7 730.460   2
   0   0   2 12072.8 617.387   1
   0   0   3 42184.9 1433.85   1
   0   0   3 40916.2 1668.47   2
   0   0   4 18734.7 1125.76   1
   0   0   4 17312.5 1253.05   2
   0   0   5 19652.5 1302.09   1
   0   0   6-186.646 210.890   1
   0   0   7 826.600 321.619   1
   0   0   8 1154.71 428.413   1
   0   0   9 221.227 248.612   1
   0   0  10-139.393 157.581   1
   0   0  11-232.362 219.966   1
   0   0  12 201.536 245.985   1
   0   0  13-302.777 284.251   1
   0  -1 -13-0.60855 218.850   2
   1   0 -12 0.53570 301.547   2
   0  -1 -12-0.53925 311.609   2
  -1   1 -11-225.779 249.865   2
   0  -1 -11 28.0430 100.466   2
   1   0 -11-127.505 187.796   2
  -1   1 -10 33.8831 154.294   2
   0  -1 -10 54.3940 114.791   2
   1   0  -9 62.0315 169.558   2
  -1   1  -9-22.2363 125.774   2
   0  -1  -9-36.4845 148.010   2
   0  -1  -8 216.951 278.010   2
   1   0  -8 28.7616 18.3674   2
  -1   1  -8 139.504 188.020   2
   1   0  -7 425.727 277.079   2
  -1   1  -7 211.815 99.2566   2
   0  -1  -7 139.963 189.410   2
   0  -1  -6 275.274 226.813   2
  -1   1  -6 135.448 31.1289   2
   1   0  -6 296.956 237.282   2
  -1   1  -5 784.874 299.636   2
   0  -1  -5 283.197 78.3738   2
   1   0  -5 430.347 179.899   2
   1   0  -4-19.3241 59.3945   2
   0  -1  -4-39.9655 51.3804   2
  -1   1  -4-65.3128 114.954   2
  -1   1  -3 3995.64 510.893   2
   0  -1  -3 3172.14 464.066   2
   1   0  -3 3779.28 516.736   2
  -1   1  -2 31988.5 1149.50   2
   1   0  -2 31256.2 1227.50   2
   0  -1  -2 31536.7 1159.62   2
   1   0  -1 37867.9 999.705   2
   0  -1  -1 35832.8 944.471   2
   0  -1   1 37685.3 818.392   1
   1   0   1 37645.7 770.272   2
  -1   1   1 37747.5 903.995   5
   1   0   1 38107.0 806.334   1
   0  -1   2 31836.6 1012.87   1
   1   0   2 31613.5 1081.28   2
   1   0   2 31023.2 1016.74   1
   1   0   3 3234.54 403.729   1
   1   0   3 4080.01 495.388   2
   0  -1   3 3220.98 491.075   2
   0  -1   3 3519.90 417.806   1
   0  -1   4-98.4815 84.9531   1
   0  -1   4-188.327 130.837   2
  -1   1   4-45.4205 68.9967   1
  -1   1   4-70.7841 52.7803   2
   1   0   4-14.1362 65.1950   1
   1   0   4 51.3957 94.5173   2
   1   0   5 811.576 308.209   2
   1   0   5 513.832 102.320   1
   0  -1   5 680.194 210.484   1
  -1   1   5 757.365 205.460   1
   0  -1   6 157.977 45.5696   1
   1   0   6 366.842 143.238   1
  -1   1   6 377.046 221.546   1
   0  -1   7 188.890 21.0501   1
  -1   1   7 383.514 221.886   1
   1   0   7 478.136 238.548   1
   0  -1   8 135.319 208.434   1
   1   0   8 287.966 244.530   1
  -1   1   8-202.842 163.574   1
  -1   1   9-4.18830 19.0406   1
   1   0   9 142.154 222.655   1
   0  -1   9 270.505 266.292   1
   0  -1  10 76.9974 217.525   1
  -1   1  10 46.5487 83.1212   1
   1   0  10-308.149 239.276   1
  -1   1  11 15.5758 112.268   1
   1   0  11-199.722 207.050   1
   0  -1  11 248.912 229.422   1
   0  -1  12-65.4662 125.487   1
  -1   1  12 188.822 206.611   1
   1   0  12-13.3172 139.085   1
   0  -1  13 0.45927 57.8616   1
  -1   1  13-112.001 170.056   1
   1   0  13 0.46960 178.583   1
   1  -1 -13 0.60511 219.093   2
   1  -1 -12 0.53703 338.291   2
  -1   0 -12 200.571 252.138   2
   0   1 -11 143.226 263.973   2
   1  -1 -11 195.152 233.396   2
  -1   0 -11-413.135 338.440   2
   0   1 -10-0.41076 164.255   2
   1  -1 -10-614.351 386.281   2
  -1   0 -10-187.395 213.007   2
   1  -1  -9 157.253 22.9265   2
   0   1  -9-12.0990 50.3096   2
   1  -1  -8-211.078 195.114   2
   0   1  -8-4.32172 188.161   2
  -1   0  -8 166.107 258.096   2
   1  -1  -7 379.988 228.934   2
   0   1  -7 104.237 122.072   2
  -1   0  -7 243.149 144.829   2
   1  -1  -6 73.8490 70.3342   2
   0   1  -6 39.4028 153.130   2
  -1   0  -6 271.768 179.068   2
   0   1  -5 821.956 288.512   2
  -1   0  -5 777.965 269.270   2
   1  -1  -5 692.272 276.799   2
   1  -1  -4-96.5752 126.761   2
  -1   0  -4 61.6903 215.880   2
   0   1  -4 56.6036 117.821   2
   0   1  -4 32.5659 33.1031   1
   1  -1  -3 3307.61 520.280   2
   0   1  -3 3817.61 432.084   1
  -1   0  -3 3835.97 483.529   2
   0   1  -3 3697.13 527.156   2
  -1   0  -2 32153.4 1102.71   2
   1  -1  -2 32166.0 1227.71   2
   0   1  -2 32137.3 1215.50   2
  -1   0  -2 33420.5 1048.21   1
   0   1  -2 32103.8 997.584   1
  -1   0  -1 38266.3 811.690   1
  -1   0  -1 37745.5 768.843   2
   0   1  -1 37872.3 815.429   1
   1  -1  -1 37224.1 931.666   5
   1  -1  -1 38264.4 1005.09   2
   0   1   1 35863.1 955.399   2
  -1   0   2 31659.5 1002.68   1
   1  -1   2 32131.1 1059.63   1
   0   1   2 33268.9 1169.38   2
   1  -1   2 32564.6 1159.84   2
   1  -1   3 3508.42 490.896   2
  -1   0   3 3640.03 428.595   1
   1  -1   3 3662.07 439.564   1
   0   1   3 3528.38 441.043   1
   0   1   3 3445.09 473.874   2
   1  -1   4 165.221 125.950   2
   1  -1   4 181.312 118.742   1
  -1   0   4 102.344 88.1171   2
   0   1   4-50.2294 82.0494   1
  -1   0   4 109.990 96.9938   1
   0   1   4 123.396 78.5751   2
   1  -1   5 687.992 302.469   2
  -1   0   5 671.126 250.914   1
   1  -1   5 838.078 240.992   1
   0   1   5 614.819 238.525   1
   0   1   6 345.124 160.121   1
   1  -1   6 151.147 107.256   1
  -1   0   6 168.436 119.993   1
   0   1   7 365.222 180.063   1
   1  -1   7 479.745 226.864   1
   0   1   8 110.166 79.3595   1
  -1   0   8 148.516 113.927   1
   1  -1   8 156.797 232.988   1
   1  -1   9 191.137 231.797   1
   0   1   9 236.692 233.984   1
  -1   0   9 189.730 227.789   1
  -1   0  10 81.7818 188.170   1
   0   1  10 311.106 310.236   1
   1  -1  10 111.885 131.831   1
   0   1  11-303.980 249.163   1
   1  -1  11 0.36889 198.592   1
  -1   0  11-139.189 166.669   1
  -1   0  12-10.1756 48.3854   1
   0   1  12-0.39816 167.486   1
   1  -1  12 104.552 357.444   1
  -1   0  13-0.88186 59.5237   1
   0   1  13-0.45381 175.362   1
   1  -1  13 15.0975 252.442   1
  -1  -1 -13-169.535 247.877   2
   2  -1 -13-490.803 418.126   2
   2  -1 -12 0.53840 245.958   2
  -1  -1 -12 164.225 229.891   2
  -1  -1 -11 70.2985 207.093   2
   2  -1 -11-244.643 262.657   2
  -1  -1 -10 142.496 278.163   2
   2  -1 -10 3.77269 83.1931   2
  -1  -1  -9 298.176 231.944   2
   2  -1  -9-458.426 324.703   2
  -1   2  -8 162.967 277.214   2
  -1  -1  -8 241.009 186.296   2
   2  -1  -8 427.925 391.180   2
  -1  -1  -7 1443.43 492.149   2
   2  -1  -7 1354.72 567.373   2
  -1   2  -7 929.024 383.215   2
  -1  -1  -6 6176.60 925.412   2
   2  -1  -6 6193.42 970.181   2
  -1   2  -6 6794.51 976.244   2
   2  -1  -5 26.1285 190.098   2
  -1  -1  -5-17.5357 111.360   2
  -1   2  -5-119.491 200.624   2
  -1   2  -4 2337.52 440.557   2
  -1   2  -4 2698.88 424.417   1
   2  -1  -4 2181.61 487.503   2
  -1  -1  -4 2453.16 471.339   2
  -1   2  -3 1799.85 313.175   1
  -1  -1  -3 1657.43 328.277   2
   2  -1  -3 1939.22 397.194   2
  -1   2  -2 72788.2 1722.01   1
  -1  -1  -2 70541.2 1655.44   2
   2  -1  -2 70328.3 1924.28   2
  -1  -1  -1 17396.8 720.379   5
  -1  -1  -1 15959.3 605.098   2
   2  -1  -1 17064.3 716.035   2
   2  -1  -1 16650.9 570.356   5
  -1   2   0 29558.1 951.732   5
  -1   2   0 32906.0 1041.18   4
   2  -1   0 28881.1 889.844   4
  -1  -1   0 28558.1 721.976   5
  -1  -1   1 32810.0 671.579   1
  -1   2   1 34119.3 1082.42   5
   2  -1   1 33685.1 842.596   3
   2  -1   1 33249.8 716.111   2
  -1   2   1 33301.5 1032.03   3
   2  -1   2 209364. 2889.04   1
   2  -1   2 206840. 2759.48   2
  -1  -1   2 205496. 2484.87   1
   2  -1   2 206906. 2091.94   3
   2  -1   3 419.855 141.929   2
  -1   2   3 347.921 166.310   2
   2  -1   3 257.142 127.664   1
  -1  -1   3 337.554 140.540   1
  -1  -1   4 10414.2 817.837   1
   2  -1   4 9590.64 824.621   1
  -1   2   4 9309.33 910.530   2
   2  -1   4 9928.24 925.225   2
   2  -1   5 6994.34 885.054   2
  -1  -1   5 7800.84 812.492   1
  -1   2   5 8325.84 878.381   1
   2  -1   5 7788.29 823.391   1
  -1  -1   6-179.396 213.281   1
  -1   2   6 341.960 143.906   1
   2  -1   6 137.922 118.598   1
   2  -1   7-201.582 197.324   1
  -1  -1   7-522.440 242.081   1
  -1   2   7-34.1592 157.291   1
  -1  -1   8 983.464 401.983   1
   2  -1   8 937.375 411.098   1
  -1   2   8 1081.79 409.575   1
   2  -1   9 700.289 402.865   1
  -1   2   9 384.376 283.515   1
  -1  -1   9 445.881 279.477   1
   2  -1  10 132.008 217.567   1
  -1  -1  10 84.7770 230.973   1
  -1   2  10 186.337 158.671   1
  -1   2  11 24.6405 150.964   1
  -1  -1  11-37.4315 87.7379   1
   2  -1  11-6.83199 39.0439   1
   2  -1  12-354.067 299.792   1
  -1   2  12 0.38463 213.682   1
  -1  -1  12-0.39627 178.718   1
  -1   2  13 0.43675 121.203   1
  -1  -1  13 0.44921 204.633   1
   2  -1  13 31.7338 94.7091   1
   3  -1 -13-225.997 285.254   2
  -1  -2 -13 0.62830 325.664   2
   3  -1 -12 0.54550 261.533   2
  -1  -2 -12 0.55540 313.510   2
   3  -1 -11 80.9275 148.579   2
  -1  -2 -11 43.9950 354.580   2
   3  -1 -10-174.563 210.054   2
  -1  -2 -10 160.906 259.300   2
   3  -1  -9-90.2711 104.342   2
  -1  -2  -9-99.8493 141.054   2
   3  -1  -8 108.004 169.394   2
  -1  -2  -8-207.485 228.577   2
   3  -1  -7 347.186 169.577   2
  -1  -2  -7-19.5851 273.054   2
  -1  -2  -6 976.446 383.227   2
   3  -1  -6 1113.02 445.067   2
   3  -1  -5 18.7962 185.503   2
  -1  -2  -5 456.295 269.206   2
  -1  -2  -4 596.755 201.797   2
   3  -1  -4 649.166 241.778   2
  -2   3  -4 495.652 189.987   1
   3  -1  -3 126.122 43.9774   2
  -1  -2  -3 49.5113 34.6174   2
  -1  -2  -3 219.319 108.873   5
  -2   3  -3 186.093 130.735   1
  -1  -2  -2 981.824 242.161   5
  -1  -2  -2 853.182 132.981   3
   3  -1  -2 796.321 163.770   5
   3  -1  -2 939.699 231.679   2
  -1  -2  -2 1034.06 228.626   2
   3  -1  -1 6358.41 328.051   5
  -2   3  -1 6878.60 539.240   3
   3  -1  -1 6695.08 489.789   2
  -1  -2  -1 6982.41 550.211   5
  -2   3   0 52761.7 1578.26   5
  -1  -2   0 50889.2 1338.58   5
  -2   3   0 54617.9 1817.21   4
  -2   3   1 140212. 2542.24   2
  -2   3   1 140219. 2597.82   3
  -2   3   1 136716. 2571.96   5
  -2   3   2 47683.5 1632.61   5
   3  -1   2 50358.4 1244.82   2
  -1  -2   2 49705.8 1277.90   1
   3  -1   2 48171.5 1447.94   1
   3  -1   3 4225.85 328.909   3
   3  -1   3 4320.73 487.216   2
  -1  -2   3 4219.83 461.702   1
   3  -1   3 4529.20 524.879   1
   3  -1   4 8669.34 801.173   1
  -1  -2   4 7961.20 721.661   1
   3  -1   4 7656.87 473.951   3
   3  -1   4 7923.92 790.049   2
   3  -1   5 132.902 99.5612   2
   3  -1   5 16.6999 85.3229   1
  -1  -2   5 4.16401 63.6537   1
  -1  -2   6-160.075 196.615   1
   3  -1   6-95.7394 141.790   1
  -2   3   6-9.86484 21.8041   1
  -1  -2   7-308.038 207.382   1
  -2   3   7-239.824 167.789   1
   3  -1   7-132.489 145.078   1
  -1  -2   8 56.0151 110.190   1
   3  -1   8 41.9384 138.199   1
  -2   3   9-11.9661 116.232   1
   3  -1   9-224.865 196.992   1
  -1  -2   9 23.6092 61.3710   1
  -1  -2  10 108.251 182.689   1
   3  -1  10 2.71851 88.3552   1
  -2   3  10-130.249 151.416   1
   3  -1  11 85.5658 232.046   1
  -2   3  11 18.6899 61.1036   1
  -1  -2  11-397.910 289.187   1
   3  -1  12 0.44016 79.8640   1
  -1  -2  12 353.068 289.399   1
  -2   3  13 505.913 354.396   1
   3  -1  13 209.211 245.478   1
  -1  -2  13 383.236 317.223   1
   0  -2 -13-629.321 478.469   2
   0  -2 -12-17.5105 75.0526   2
   2   0 -12-128.593 202.102   2
   0  -2 -11-30.5345 104.111   2
   2   0 -11 115.425 179.902   2
   0  -2 -10-571.074 373.815   2
   2   0 -10-149.882 192.335   2
  -2   2  -9-152.158 178.326   2
   2   0  -9-227.943 299.020   2
   0  -2  -9-324.035 263.058   2
   2   0  -8 228.099 257.122   2
   0  -2  -8-121.858 194.901   2
  -2   2  -8-468.788 279.104   2
   0  -2  -7-89.9744 193.178   2
  -2   2  -7 172.572 61.6910   2
   2   0  -7 374.066 254.007   2
   0  -2  -6 1540.25 473.571   2
  -2   2  -6 1737.08 520.855   2
   2   0  -6 1652.46 515.061   2
  -2   2  -5 5232.50 734.443   2
   0  -2  -5 5231.29 820.253   2
   2   0  -5 5325.51 829.097   2
   0  -2  -4 5510.43 724.416   2
   2   0  -4 5109.64 734.008   2
  -2   2  -4 5184.43 678.703   2
   0  -2  -3 334.747 158.007   2
   2   0  -3 285.592 76.8376   2
   0  -2  -2 3355.12 432.729   2
   2   0  -2 3895.14 443.097   2
  -2   2  -1 785.227 158.358   3
   0  -2  -1 776.882 137.146   3
   0  -2  -1 666.840 165.971   2
   2   0  -1 834.784 159.787   2
   0  -2   0 11289.9 601.687   5
   2   0   0 11925.2 471.673   4
  -2   2   1 731.101 166.434   2
  -2   2   1 695.652 159.305   5
   2   0   1 759.908 128.232   1
   0  -2   2 3319.50 352.670   1
  -2   2   2 4101.35 465.578   2
   2   0   2 3585.90 338.059   2
   2   0   2 3501.14 345.922   1
   0  -2   3 163.323 117.170   2
   2   0   3 385.133 137.673   2
   0  -2   3 360.039 135.399   1
   2   0   3 275.872 70.4294   1
   0  -2   4 5878.24 629.622   1
   0  -2   4 4855.07 727.023   2
   2   0   4 5559.58 612.546   1
   2   0   4 5569.58 653.818   2
   0  -2   5 5299.34 667.947   1
   2   0   5 4519.36 692.555   2
   2   0   5 4748.68 668.658   1
   0  -2   6 1652.81 418.417   1
  -2   2   6 2009.48 467.384   1
   2   0   6 2138.56 495.531   1
  -2   2   7 270.620 71.9516   1
   2   0   7 352.845 274.859   1
   0  -2   7 312.662 136.864   1
  -2   2   8-89.3267 109.113   1
   0  -2   8-229.266 179.597   1
  -2   2   9 169.790 160.854   1
   0  -2   9 57.1484 111.137   1
   2   0   9 284.815 227.793   1
  -2   2  10 147.658 236.181   1
   0  -2  10 9.91014 101.358   1
   2   0  10 212.839 252.827   1
   0  -2  11-0.36856 240.780   1
   2   0  11 26.4719 129.671   1
  -2   2  11-301.850 243.551   1
  -2   2  12 109.480 283.419   1
   2   0  12 216.318 234.323   1
   0  -2  12-73.9731 134.057   1
   0  -2  13 0.45454 189.287   1
   2   0  13 239.087 261.345   1
  -2   2  13 107.638 297.506   1
   1  -2 -13 11.6363 140.872   2
   1  -2 -12-405.397 359.635   2
   1   1 -11-275.067 277.167   2
  -2   1 -11 2.36689 95.3397   2
   1  -2 -11 206.417 362.736   2
  -2   1 -10 119.748 227.913   2
   1  -2 -10 127.954 148.721   2
   1   1 -10 63.6370 124.740   2
   1   1  -9 201.247 289.997   2
   1  -2  -9 391.419 244.965   2
  -2   1  -9 533.626 436.189   2
   1  -2  -8 636.880 379.616   2
  -2   1  -8 509.753 413.565   2
   1   1  -8 745.935 417.873   2
   1   1  -7-52.9768 173.779   2
  -2   1  -7 19.6791 41.9375   2
   1  -2  -7-184.939 221.961   2
   1   1  -6-73.2513 153.232   2
  -2   1  -6-48.9889 73.9398   2
   1  -2  -5 7047.96 965.925   2
   1   1  -5 7192.46 944.717   2
  -2   1  -5 6850.27 860.774   2
  -2   1  -4 8658.97 793.042   1
  -2   1  -4 9579.64 857.392   2
   1   1  -4 9515.85 980.764   2
   1  -2  -4 9954.37 981.784   2
  -2   1  -3 183.547 81.5058   2
   1   1  -3 400.331 147.103   2
   1  -2  -3 174.831 116.662   2
   1  -2  -3 252.185 143.288   5
   1   1  -3 353.607 132.728   1
  -2   1  -3 198.930 92.0200   1
   1  -2  -2 211026. 3278.31   5
  -2   1  -2 209657. 2789.55   1
   1  -2  -2 207839. 3199.42   2
   1   1  -2 206785. 3318.16   2
   1   1  -2 206061. 2462.71   1
  -2   1  -2 206615. 2698.28   2
  -2   1  -1 33563.6 833.302   3
   1  -2  -1 33301.5 1063.65   2
   1   1  -1 32710.9 662.946   1
   1  -2   0 29488.2 887.354   3
   1   1   0 29589.9 716.432   5
   1  -2   0 29027.3 934.629   4
  -2   1   1 16696.9 701.745   2
   1   1   1 16354.4 632.744   2
  -2   1   1 16911.8 549.763   5
  -2   1   2 72640.8 1910.47   2
   1   1   2 73026.1 1578.82   1
   1   1   2 72526.8 1700.60   2
   1  -2   3 1881.52 370.248   2
   1  -2   3 1915.74 324.580   1
   1   1   3 2046.89 357.238   2
   1   1   3 1961.95 331.289   1
   1   1   4 2814.95 427.287   1
   1  -2   4 2225.32 465.784   2
   1  -2   4 2566.18 427.923   1
   1   1   4 2325.76 444.427   2
   1  -2   5-28.5549 109.016   1
   1   1   5-179.923 214.543   1
   1   1   5 264.737 157.995   2
  -2   1   5 249.174 112.025   1
   1   1   6 6778.72 839.922   1
  -2   1   6 6518.43 806.605   1
   1  -2   6 6281.63 835.756   1
  -2   1   7 1813.89 500.384   1
   1   1   7 1667.33 472.359   1
   1  -2   7 1498.13 481.242   1
  -2   1   8 265.573 204.328   1
   1  -2   8 336.181 240.366   1
   1   1   8 437.408 271.036   1
   1  -2   9 12.5294 132.807   1
  -2   1   9 148.940 184.274   1
   1   1   9 231.991 258.202   1
   1  -2  10-233.555 212.223   1
  -2   1  10 26.6075 143.022   1
   1   1  10 151.975 197.097   1
   1  -2  11 3.00082 156.736   1
  -2   1  11 53.7695 102.114   1
   1  -2  12 2.52222 67.6083   1
   1   1  12-255.057 249.571   1
  -2   1  12-109.872 154.839   1
   1  -2  13-0.46574 136.447   1
   1   1  13 0.46830 197.646   1
  -2   1  13 59.1476 254.399   1
   2  -2 -13 62.6868 476.794   2
   2  -2 -12-203.051 254.913   2
  -2   0 -12 0.54626 196.449   2
  -2   0 -11 0.47656 72.1594   2
   2  -2 -11 59.8986 195.798   2
   2  -2 -10 44.3875 104.532   2
  -2   0 -10-330.524 283.867   2
   2  -2  -9 159.225 88.7491   2
  -2   0  -9 203.084 198.419   2
   0   2  -8-39.5106 49.0725   2
  -2   0  -8 233.975 138.242   2
   2  -2  -8-120.985 241.976   2
   0   2  -7-61.1903 58.9775   2
   2  -2  -7-56.5132 183.119   2
   2  -2  -6 1674.05 508.471   2
  -2   0  -6 1969.78 498.388   2
   0   2  -6 1406.70 477.619   2
   2  -2  -5 4359.83 761.474   2
  -2   0  -5 4998.79 719.704   2
   0   2  -5 4995.73 789.146   2
   2  -2  -4 5497.68 777.969   2
  -2   0  -4 5241.94 640.811   2
  -2   0  -4 5120.21 597.755   1
   0   2  -4 5200.50 575.121   1
   2  -2  -3 330.036 169.058   5
  -2   0  -3 524.318 176.837   1
   0   2  -3 395.660 130.544   1
  -2   0  -3 325.701 129.398   2
   2  -2  -3 413.861 182.254   2
  -2   0  -2 3802.62 373.155   1
  -2   0  -2 4035.52 359.596   2
   0   2  -2 4298.50 385.738   1
   2  -2  -2 3559.54 418.202   5
   2  -2  -2 3724.76 450.555   2
  -2   0  -1 723.866 119.744   1
   2  -2  -1 604.179 142.185   2
   2  -2  -1 771.829 169.441   5
   2  -2   0 11310.4 617.779   3
   0   2   0 11328.7 607.784   5
  -2   0   1 603.727 130.314   2
   0   2   1 662.431 155.541   5
   2  -2   1 758.401 142.460   3
   0   2   1 778.112 135.905   3
  -2   0   2 3923.12 467.416   2
   2  -2   2 3979.82 369.360   3
   0   2   2 3515.38 432.315   2
   2  -2   2 3436.80 400.734   2
   0   2   2 3648.13 328.570   3
   0   2   3 414.639 167.940   2
  -2   0   3 370.428 159.226   2
   2  -2   3 205.497 105.595   1
   2  -2   3 243.395 162.759   2
  -2   0   3 492.579 156.752   1
   2  -2   4 5956.31 673.970   1
   0   2   4 5876.77 651.520   1
   0   2   4 4618.34 639.797   2
   2  -2   4 5185.13 705.356   2
  -2   0   4 5047.79 572.794   1
   2  -2   5 5265.67 696.048   1
   0   2   5 4762.40 701.170   1
   2  -2   5 4284.32 732.911   2
  -2   0   5 5009.54 649.714   1
  -2   0   6 1846.56 427.279   1
   0   2   6 1985.14 466.949   1
   2  -2   6 1780.87 444.618   1
   2  -2   7 183.005 131.289   1
  -2   0   7 76.2770 44.7725   1
   0   2   7 206.334 132.674   1
   0   2   8 274.090 249.655   1
  -2   0   8 26.3496 104.056   1
   0   2   9 213.116 261.985   1
   2  -2   9 30.5989 135.360   1
  -2   0   9 5.57989 182.322   1
  -2   0  10 46.3668 142.446   1
   2  -2  10 23.2415 20.0047   1
   0   2  10 30.5128 101.563   1
   2  -2  11 99.9691 150.033   1
   0   2  11 25.6395 161.352   1
  -2   0  11-102.729 140.788   1
  -2   0  12 179.865 200.309   1
   0   2  12-0.39504 196.293   1
   2  -2  12 9.39465 194.255   1
  -2   0  13 102.251 161.040   1
   0   2  13 227.520 245.967   1
   2  -2  13-0.47699 202.306   1
   3  -2 -13 29.3387 57.3968   2
  -2  -1 -13 10.0317 265.923   2
   3  -2 -12-626.861 450.549   2
  -2  -1 -12 0.55428 318.026   2
   3  -2 -11-193.264 235.178   2
  -2  -1 -11 0.48675 51.4424   2
   3  -2 -10-191.053 218.855   2
  -2  -1 -10-8.75717 175.125   2
   3  -2  -9 261.634 252.933   2
  -2  -1  -9-118.416 256.144   2
  -2  -1  -8 52.9177 212.822   2
   3  -2  -8 81.0397 200.776   2
   3  -2  -7 83.7843 160.464   2
  -2  -1  -7 300.119 176.558   2
  -2  -1  -6 756.995 326.930   2
   3  -2  -6 683.460 305.335   2
  -2  -1  -5-50.1537 171.666   2
   3  -2  -5 120.923 198.725   2
  -1   3  -4 715.167 215.966   1
  -2  -1  -4 654.496 235.976   2
   3  -2  -4 638.363 228.759   5
   3  -2  -4 681.146 254.166   2
  -2  -1  -3 448.886 176.945   2
   3  -2  -3 306.967 175.338   2
   3  -2  -3 167.926 95.9163   5
  -1   3  -3 145.512 94.8642   1
   3  -2  -2 1059.59 249.598   2
  -2  -1  -2 967.654 173.971   2
  -1   3  -2 1103.33 225.398   1
   3  -2  -2 824.827 198.145   5
  -2  -1  -1 7024.56 494.173   5
  -2  -1  -1 6184.28 395.526   2
   3  -2  -1 6622.60 470.384   5
   3  -2  -1 6419.02 496.498   2
   3  -2   0 50402.4 1060.88   2
  -2  -1   0 49796.2 1026.82   5
   3  -2   0 52673.4 1532.99   4
  -1   3   0 46293.3 1570.96   4
  -1   3   0 50023.9 1366.76   3
  -1   3   0 52140.1 1574.23   5
  -2  -1   1 139095. 1262.53   1
   3  -2   1 138620. 2324.91   3
  -1   3   1 137329. 2343.35   3
  -1   3   1 138283. 2630.91   5
  -2  -1   2 50084.3 1189.59   1
  -1   3   2 49769.0 1519.60   3
   3  -2   2 50661.8 1408.69   2
  -1   3   2 48066.6 1683.15   5
  -1   3   2 52441.5 1764.53   2
   3  -2   2 48815.3 1339.75   3
  -2  -1   2 51399.4 1782.80   2
  -1   3   3 4400.39 577.491   2
  -2  -1   3 3856.15 420.799   1
   3  -2   3 3821.94 485.520   2
   3  -2   3 4037.55 400.049   3
  -2  -1   3 4084.91 591.312   2
   3  -2   3 3991.98 493.073   1
   3  -2   4 7794.04 832.617   2
   3  -2   4 8535.25 812.788   1
  -2  -1   4 7568.90 682.060   1
  -1   3   4 7924.57 869.964   2
   3  -2   4 7494.40 573.543   3
  -2  -1   5 11.4341 164.800   1
   3  -2   5 80.0502 114.990   2
   3  -2   5-6.07431 153.071   1
  -1   3   6-128.086 229.687   1
   3  -2   6-27.5545 36.0735   1
  -2  -1   7-290.238 281.507   1
  -1   3   7-17.3125 76.1145   1
   3  -2   7 24.6230 76.0632   1
  -2  -1   8 107.697 137.732   1
   3  -2   8-149.497 239.213   1
  -1   3   8-1.42172 104.998   1
  -1   3   9 39.6942 175.896   1
  -2  -1   9 11.1794 40.8634   1
   3  -2   9-291.872 226.521   1
  -2  -1  10 240.151 257.970   1
   3  -2  10-334.885 259.904   1
  -1   3  10-275.397 222.577   1
  -1   3  11-404.886 288.110   1
   3  -2  11-481.950 330.911   1
  -2  -1  11 23.4749 239.076   1
   3  -2  12-0.43596 99.7202   1
  -2  -1  12-0.38617 169.056   1
  -1   3  12 0.38917 130.746   1
  -2  -1  13 152.287 198.503   1
   3  -2  13 181.376 228.008   1
  -2  -2 -14-253.583 324.500   2
   4  -2 -13 677.227 497.351   2
  -2  -2 -13-505.348 435.381   2
  -2  -2 -12-650.718 465.047   2
   4  -2 -12-300.493 314.698   2
   4  -2 -11 4.98424 12.0848   2
  -2  -2 -11 270.792 376.554   2
  -2  -2 -10-511.559 358.501   2
   4  -2 -10-159.816 203.380   2
  -2  -2  -9 285.470 275.920   2
   4  -2  -9 107.801 167.247   2
   4  -2  -8 115.479 14.1388   2
  -2  -2  -8 316.003 191.921   2
   4  -2  -7 992.089 488.831   2
  -2  -2  -7 841.490 386.674   2
   4  -2  -6 3420.37 757.699   2
  -2  -2  -6 4217.22 808.417   2
  -2  -2  -5 10591.2 1092.91   2
   4  -2  -5 8155.80 923.498   5
   4  -2  -5 9151.60 1144.06   2
  -2   4  -4 5742.41 689.470   1
  -2  -2  -4 6412.79 745.621   2
   4  -2  -4 5493.04 665.721   5
   4  -2  -4 5330.05 780.828   2
  -2  -2  -3 4091.49 612.872   5
   4  -2  -3 3918.02 491.408   5
   4  -2  -3 4306.89 616.727   2
  -2  -2  -3 4123.81 516.369   2
  -2   4  -3 4420.13 562.376   1
  -2  -2  -2 5672.08 522.039   2
  -2  -2  -2 5931.92 622.997   5
  -2  -2  -2 5551.62 317.506   3
   4  -2  -2 6024.50 631.246   2
   4  -2  -2 6027.19 500.046   5
   4  -2  -1 32375.7 1167.00   2
  -2  -2  -1 31904.0 1225.59   5
   4  -2  -1 32123.3 997.828   5
  -2  -2   0 779.712 177.820   5
  -2   4   0 755.231 201.157   3
  -2   4   0 849.451 232.481   5
  -2   4   0 399.365 241.255   4
   4  -2   0 207.259 54.1565   4
   4  -2   0 807.096 132.756   2
  -2   4   1 9163.28 748.191   5
  -2   4   1 10511.1 769.456   3
  -2   4   2 240596. 4090.83   5
  -2  -2   2 244213. 4158.21   2
   4  -2   2 242130. 2790.20   2
  -2   4   2 242373. 3967.50   3
  -2  -2   2 240589. 2713.49   1
   4  -2   3 47413.5 1427.18   3
  -2  -2   3 46085.0 2093.40   2
   4  -2   3 48558.2 1645.44   2
  -2   4   3 47478.2 1897.53   3
  -2  -2   3 47219.1 1509.43   1
  -2   4   3 45981.2 1919.72   5
   4  -2   4 11983.7 994.982   2
   4  -2   4 10420.7 918.587   1
  -2  -2   4 11461.4 864.252   1
   4  -2   4 10755.7 690.685   3
   4  -2   5 3921.96 619.935   1
   4  -2   5 3579.48 627.753   2
  -2  -2   5 3756.72 562.292   1
   4  -2   5 3352.46 394.472   3
   4  -2   6 1679.68 432.410   1
  -2  -2   6 1667.80 413.249   1
   4  -2   6 1868.85 310.900   3
  -2  -2   7 253.617 162.184   1
   4  -2   7 115.395 63.0380   1
  -2   4   7 0.41509 114.972   1
   4  -2   7 138.356 108.751   3
  -2   4   8-239.964 184.171   1
   4  -2   8 39.9105 49.6406   3
   4  -2   8-472.541 270.653   1
  -2  -2   8-283.530 195.538   1
  -2  -2   9 22.7635 134.959   1
   4  -2   9 64.8115 118.279   3
   4  -2   9-114.214 187.257   1
  -2   4   9-90.2628 120.111   1
   4  -2  10-324.132 256.878   1
  -2   4  10 72.6564 164.065   1
  -2  -2  10 165.834 235.864   1
   4  -2  11 0.39384 78.7446   1
  -2  -2  11-65.0636 115.983   1
  -2   4  11-336.828 260.479   1
   4  -2  12 0.44504 198.382   1
  -2  -2  12 0.39647 141.280   1
  -2   4  12-299.880 261.179   1
   4  -2  13 16.0112 308.342   1
  -2   4  13 11.5619 244.157   1
  -2  -2  13 50.8733 114.526   1
  -2  -3 -13-3.88749 99.3551   2
   5  -2 -13 74.4046 314.487   2
  -2  -3 -12 64.6729 147.511   2
   5  -2 -12-147.187 222.610   2
   5  -2 -11-5.15186 74.9475   2
  -2  -3 -11-307.627 301.996   2
  -2  -3 -10-238.041 249.994   2
   5  -2 -10-484.622 360.225   2
  -2  -3  -9-91.4763 300.688   2
   5  -2  -9-196.751 215.068   2
  -2  -3  -8-305.986 308.767   2
   5  -2  -8-32.9528 111.149   2
  -2  -3  -7-377.321 283.473   2
   5  -2  -7 273.095 303.489   2
  -2  -3  -6 1836.26 513.784   2
   5  -2  -6 1525.15 543.869   2
   5  -2  -5 3459.33 715.330   2
  -2  -3  -5 3960.38 712.436   2
   5  -2  -5 3368.35 568.721   5
  -2  -3  -4 23.8852 148.215   2
   5  -2  -4 47.0685 35.4173   5
   5  -2  -4-66.7879 219.233   2
   5  -2  -3 1100.61 249.469   5
  -2  -3  -3 1187.59 344.968   5
  -2  -3  -3 1185.03 306.778   2
   5  -2  -3 1236.70 334.816   2
  -2  -3  -3 1071.42 166.461   3
  -2  -3  -2 163.164 95.6076   3
   5  -2  -2 109.261 81.5074   5
   5  -2  -2 95.8659 85.2648   2
  -2  -3  -2 120.179 111.688   2
  -2  -3  -2 63.3977 80.3501   5
   5  -2  -1 1718.03 303.675   2
  -3   5  -1 795.672 354.713   4
  -3   5  -1 1687.59 341.438   3
  -2  -3  -1 1395.06 293.015   5
  -3   5   0 46.0838 161.510   4
  -3   5   0 117.456 30.2550   5
  -2  -3   0 191.033 110.121   5
   5  -2   0 93.6087 69.0220   4
   5  -2   0 84.0326 56.4135   2
  -3   5   1 22337.1 1278.25   3
  -3   5   1 21377.0 1280.55   5
  -3   5   2 43073.5 1877.39   3
  -3   5   2 41949.3 1873.09   5
   5  -2   2 41896.4 979.810   2
  -3   5   3 13445.5 1122.41   5
  -2  -3   3 14247.4 841.311   1
  -2  -3   3 13880.4 1187.84   2
   5  -2   3 14269.6 819.597   2
  -3   5   3 14061.3 1146.42   3
   5  -2   4 7178.99 715.958   2
  -2  -3   4 7427.11 721.636   1
   5  -2   5 265.181 135.596   2
  -2  -3   5 123.307 79.2229   1
   5  -2   5 562.674 225.421   1
   5  -2   5 541.495 161.229   3
   5  -2   6-129.132 238.965   1
   5  -2   6 218.792 119.763   3
  -2  -3   6-6.06387 89.1470   1
  -2  -3   7 36.2962 60.2375   1
   5  -2   7 249.527 130.300   3
   5  -2   7-127.869 264.517   1
   5  -2   8 37.1447 52.1883   3
  -3   5   8 2.65560 120.245   1
   5  -2   8-52.8488 243.478   1
  -2  -3   8-62.0322 150.764   1
   5  -2   9 83.8484 201.760   1
  -3   5   9 194.416 216.260   1
  -2  -3   9-65.7798 105.165   1
   5  -2   9 9.00803 83.8363   3
   5  -2  10-343.821 267.801   1
  -3   5  10-181.804 181.630   1
  -2  -3  11-149.414 177.832   1
  -3   5  11-51.4696 102.580   1
   5  -2  11 82.9064 273.399   1
  -3   5  12 655.933 383.922   1
  -2  -3  12 0.39807 254.076   1
  -2  -3  13 0.88086 243.043   1
  -3   5  13-0.42786 81.0223   1
   4  -1 -13 24.3479 268.228   2
  -1  -3 -13 445.232 408.602   2
  -1  -3 -12-0.56238 102.947   2
   4  -1 -12 64.2559 145.280   2
   4  -1 -11-307.559 299.969   2
  -1  -3 -11 251.630 270.424   2
   4  -1 -10-14.6212 136.731   2
  -1  -3 -10-728.213 432.836   2
  -1  -3  -9 129.092 166.942   2
   4  -1  -9 308.337 226.651   2
  -1  -3  -8 420.672 317.089   2
   4  -1  -8 741.936 407.659   2
  -1  -3  -7 640.370 315.955   2
   4  -1  -7 765.881 384.208   2
  -1  -3  -6 10.5479 101.455   2
   4  -1  -6 200.485 255.893   2
   4  -1  -5 2952.11 677.959   2
  -1  -3  -5 2244.42 539.929   2
   4  -1  -4 11648.6 1150.06   2
  -1  -3  -4 11782.8 1054.14   2
  -1  -3  -3 3079.94 485.477   2
   4  -1  -3 2655.23 481.363   2
  -1  -3  -3 3115.49 531.108   5
  -3   4  -3 2954.22 463.919   1
   4  -1  -2 227.131 83.3097   5
  -1  -3  -2 147.501 81.9663   5
  -1  -3  -2 157.467 57.9772   3
  -1  -3  -2 143.408 97.1535   2
   4  -1  -2 158.998 66.5970   2
   4  -1  -1 5875.34 497.603   2
  -3   4  -1 5391.33 661.925   4
  -3   4  -1 6064.19 587.292   3
  -1  -3  -1 5485.87 573.573   5
   4  -1   0 482.442 90.5107   2
  -3   4   0 234.977 186.296   4
  -3   4   0 470.178 210.454   5
   4  -1   0 276.662 107.237   4
  -1  -3   0 507.977 159.812   5
  -3   4   1 28714.1 1371.57   3
  -3   4   1 25839.7 1279.55   5
   4  -1   2 469.671 97.6535   2
  -3   4   2 620.547 223.879   5
  -3   4   2 472.148 188.786   2
  -1  -3   3 14432.6 864.242   1
  -1  -3   3 13483.5 1150.51   2
  -3   4   3 13729.9 1056.03   5
   4  -1   3 14203.0 806.937   2
   4  -1   3 14277.8 961.776   1
  -3   4   3 14443.9 1118.19   2
   4  -1   4 2781.70 475.187   2
   4  -1   4 1823.84 377.362   1
   4  -1   4 2485.97 263.450   3
  -1  -3   4 2331.08 395.647   1
   4  -1   5 853.772 277.222   2
   4  -1   5 714.767 277.305   1
  -1  -3   5 780.957 252.079   1
   4  -1   5 962.838 167.454   3
  -1  -3   6 2247.09 495.160   1
   4  -1   6 1949.79 260.770   3
   4  -1   6 2570.34 560.959   1
  -1  -3   7 761.404 316.284   1
   4  -1   7 435.181 128.072   3
   4  -1   7 308.727 146.779   1
  -1  -3   8-65.2150 97.6868   1
   4  -1   8 85.4513 68.7441   1
   4  -1   8 158.540 105.518   3
   4  -1   9-31.5131 143.076   1
  -3   4   9 1.06185 61.7359   1
   4  -1   9 88.4279 80.8992   3
  -3   4  10 24.4184 104.397   1
  -1  -3  10-152.966 171.076   1
   4  -1  10 144.830 270.230   1
   4  -1  11 7.95190 88.3532   1
  -3   4  11-75.8972 122.681   1
  -1  -3  11-54.3131 107.883   1
   4  -1  12 0.89292 221.315   1
  -1  -3  12-0.40361 71.2427   1
  -3   4  12 2.64709 141.152   1
  -3   4  13 0.41955 165.283   1
  -1  -3  13 33.5262 194.186   1
   4  -1  13-170.649 224.062   1
   0  -3 -13-150.596 235.694   2
   0  -3 -12 4.97389 154.533   2
   3   0 -12-50.6063 127.924   2
   3   0 -11-135.466 196.992   2
   0  -3 -11 605.681 416.032   2
   3   0 -10 73.3937 189.901   2
   0  -3 -10-89.2555 309.074   2
   0  -3  -9-92.1771 231.358   2
   3   0  -9-53.8616 46.8942   2
   3   0  -8 316.719 366.545   2
   0  -3  -8 543.298 335.568   2
   0  -3  -7 1304.73 474.266   2
   3   0  -7 1302.05 523.996   2
   3   0  -6 2426.05 669.783   2
   0  -3  -6 2565.48 635.764   2
   3   0  -5 2280.21 575.297   2
   0  -3  -5 1679.66 496.875   2
   0  -3  -4 23263.7 1491.61   2
   3   0  -4 21969.3 1542.18   2
   3   0  -3 26311.4 1478.81   2
   0  -3  -3 26236.9 1421.21   2
   3   0  -2 10754.1 810.658   2
   0  -3  -2 10758.2 651.815   3
   0  -3  -2 10628.8 845.498   5
   0  -3  -2 10056.3 789.103   2
  -3   3  -1 1412.93 251.277   3
   0  -3  -1 1475.97 293.805   5
   3   0  -1 1418.27 230.456   2
   0  -3  -1 1451.03 222.166   3
  -3   3   0 121401. 2367.16   5
   0  -3   0 128171. 1807.13   4
   0  -3   0 120013. 2436.13   5
  -3   3   1 1389.35 262.229   2
  -3   3   1 1664.35 280.549   5
   3   0   2 11084.5 562.359   2
   3   0   2 10829.3 667.844   1
  -3   3   2 10938.7 765.924   5
  -3   3   2 11149.5 833.267   2
   3   0   3 26710.7 1142.73   2
  -3   3   3 27933.4 1495.86   2
   3   0   3 26434.1 1204.43   1
   3   0   4 23407.9 1284.39   1
   3   0   4 22545.3 1267.38   2
   0  -3   4 22825.5 1304.73   1
   3   0   5 1913.04 444.620   1
   3   0   5 1895.17 199.899   3
   3   0   5 1972.49 443.293   2
   0  -3   5 2247.73 456.291   1
   0  -3   6 2698.27 560.277   1
   3   0   6 2779.09 562.284   1
   3   0   7 1854.96 529.434   1
  -3   3   7 1789.02 473.014   1
   0  -3   7 1690.94 484.339   1
  -3   3   8 530.322 319.630   1
   3   0   8 830.625 384.793   1
   0  -3   8 878.944 412.958   1
   3   0   9 169.890 137.133   1
   0  -3   9-134.591 151.823   1
  -3   3   9-194.044 172.025   1
  -3   3  10 8.54125 38.4560   1
   0  -3  10-135.015 162.067   1
  -3   3  11-294.211 239.249   1
   3   0  11 59.2168 184.608   1
   0  -3  11-202.113 209.719   1
   3   0  12-138.998 190.798   1
  -3   3  12-253.302 235.346   1
   0  -3  12 0.41150 120.967   1
  -3   3  13-206.207 223.594   1
   0  -3  13 171.927 214.692   1
   3   0  13 1.49358 313.850   1
   1  -3 -13-0.61900 288.299   2
   1  -3 -12-301.935 311.310   2
   1  -3 -11 48.6860 187.366   2
   1  -3 -10-580.040 381.216   2
   2   1 -10-269.754 259.551   2
   1  -3  -9 27.1395 139.505   2
   2   1  -9-64.7539 208.511   2
   2   1  -8-280.626 310.660   2
   1  -3  -8 285.583 175.885   2
  -3   2  -8-262.786 300.843   2
  -3   2  -7-252.706 252.837   2
   2   1  -7 34.8268 168.877   2
   1  -3  -7 117.363 77.3901   2
   2   1  -6-228.181 308.732   2
  -3   2  -6-59.5334 150.074   2
   1  -3  -6-126.524 174.163   2
   2   1  -5 8.13703 143.461   2
   1  -3  -5-135.040 166.612   2
  -3   2  -5 173.462 107.538   2
   2   1  -4 7323.40 904.561   2
   1  -3  -4 7811.28 887.423   2
   1  -3  -4 7523.69 902.154   5
   1  -3  -3 4017.18 580.148   2
   2   1  -3 3672.33 566.441   2
   1  -3  -3 3883.81 571.702   5
  -3   2  -3 4303.44 507.714   1
  -3   2  -2 49862.4 1305.35   3
  -3   2  -2 51884.9 1585.00   1
   1  -3  -2 48555.4 1709.33   2
  -3   2  -1 141135. 2279.27   3
   1  -3  -1 138069. 2406.03   3
   1  -3  -1 135931. 2611.30   2
   2   1   0 51028.5 976.124   5
   1  -3   0 50656.8 1396.03   3
   1  -3   0 45946.1 1278.11   4
  -3   2   1 6466.73 506.647   2
   2   1   1 6635.29 346.252   1
  -3   2   1 7174.98 464.674   5
  -3   2   2 968.006 229.873   2
   2   1   2 966.973 182.426   1
   2   1   2 969.395 202.063   2
   2   1   3 202.094 99.3357   1
  -3   2   3 118.773 111.386   2
   2   1   3 324.033 143.107   2
   1  -3   3 146.891 103.087   2
   2   1   4 548.413 183.407   1
   2   1   4 582.335 204.842   2
   1  -3   4 433.053 139.884   1
   1  -3   4 641.833 299.932   2
   2   1   5 253.579 178.181   2
   2   1   5 127.696 83.8940   1
   1  -3   5 157.479 102.899   1
   1  -3   6 796.451 235.643   1
  -3   2   6 1382.07 382.090   1
   2   1   6 1061.51 319.455   1
   1  -3   7 660.559 306.590   1
   2   1   7 230.394 144.765   1
  -3   2   7 190.719 189.083   1
   1  -3   8 3.59816 203.838   1
  -3   2   8 132.296 90.7131   1
   2   1   8 427.832 269.273   1
   1  -3   9-7.68438 122.871   1
  -3   2   9 90.0192 203.184   1
   2   1   9 167.265 255.244   1
   1  -3  10 87.2234 248.162   1
  -3   2  10-151.381 159.734   1
   2   1  11 50.2109 212.291   1
  -3   2  11-162.922 177.014   1
   1  -3  11 0.74948 96.5851   1
  -3   2  12 381.795 286.635   1
   2   1  12-96.2872 155.639   1
   1  -3  12 0.42009 215.346   1
   1  -3  13 0.46597 192.730   1
   2   1  13 0.48648 106.810   1
   2  -3 -13-235.544 292.201   2
   2  -3 -12-450.417 380.677   2
  -3   1 -11 49.2538 117.669   2
   2  -3 -11-283.311 283.281   2
  -3   1 -10-104.096 158.677   2
   2  -3 -10-107.080 173.011   2
  -3   1  -9-64.6928 235.473   2
   2  -3  -9-172.763 235.254   2
   2  -3  -8 134.916 17.8841   2
  -3   1  -8-94.5008 244.280   2
   1   2  -7-377.789 297.193   2
   2  -3  -7-156.447 173.087   2
  -3   1  -7-230.555 281.757   2
   2  -3  -6 74.6705 76.2098   2
  -3   1  -6 72.4884 90.8992   2
   1   2  -6-243.442 308.628   2
   2  -3  -5-31.7453 88.8667   2
  -3   1  -5 1.94072 31.1239   2
   2  -3  -4 7036.81 853.591   5
  -3   1  -4 7342.34 737.704   1
  -3   1  -4 7364.51 734.610   2
   1   2  -4 7477.83 688.236   1
   2  -3  -4 7466.66 883.203   2
   1   2  -3 4072.66 437.874   1
   2  -3  -3 3615.80 540.629   2
   2  -3  -3 3916.63 558.917   5
  -3   1  -3 3813.70 485.277   1
  -3   1  -3 4112.26 461.205   2
  -3   1  -2 49427.8 1104.71   3
   2  -3  -2 49389.5 1736.60   5
   2  -3  -2 49032.2 1703.09   2
  -3   1  -2 50237.2 1465.68   1
   1   2  -2 50782.5 1243.14   1
  -3   1  -2 51601.1 1218.99   2
   2  -3  -1 140885. 2635.60   5
   1   2  -1 136658. 1601.36   1
   2  -3  -1 137127. 2504.64   2
   2  -3   0 50300.4 1486.02   3
   1   2   0 53189.4 1350.58   5
  -3   1   1 6441.94 478.013   2
   1   2   1 6602.77 527.440   5
   2  -3   1 6872.76 558.310   3
   2  -3   2 1238.66 258.255   3
  -3   1   2 966.580 236.291   2
   1   2   2 1117.90 242.384   2
   1   2   3 231.811 75.8999   3
   1   2   3 191.620 110.232   1
   2  -3   3 90.1755 91.0723   2
   1   2   3 341.405 157.414   2
  -3   1   3 123.165 113.227   2
   2  -3   4 631.494 272.496   2
   1   2   4 899.930 278.344   2
  -3   1   4 525.607 225.198   2
   2  -3   4 660.607 243.250   1
   1   2   4 786.091 230.589   1
   1   2   5 395.650 189.722   1
   2  -3   5 581.417 260.560   1
  -3   1   5 131.047 126.222   1
  -3   1   6 1519.21 522.904   1
   1   2   6 1480.20 413.472   1
   2  -3   6 1112.95 373.799   1
   1   2   7 462.413 255.416   1
   2  -3   7 115.987 113.993   1
  -3   1   7 391.122 236.950   1
   1   2   8 26.2005 267.457   1
  -3   1   8 18.4857 237.930   1
   2  -3   8-41.8244 79.9206   1
   2  -3   9 39.0111 138.511   1
  -3   1   9-236.020 185.567   1
   1   2   9 303.077 330.811   1
   1   2  10-224.065 204.607   1
   2  -3  10 38.4503 135.613   1
  -3   1  10 64.1036 190.403   1
   2  -3  11-278.853 250.068   1
  -3   1  11-0.32282 88.2077   1
   1   2  11 0.36085 151.794   1
   2  -3  12 0.42848 220.872   1
  -3   1  12-0.36337 8.81026   1
   1   2  12 0.41385 125.729   1
   1   2  13 0.46765 194.416   1
  -3   1  13 165.730 200.664   1
   2  -3  13-333.840 306.594   1
   3  -3 -13-274.431 316.135   2
  -3   0 -12 0.55546 186.127   2
   3  -3 -12 80.3388 273.751   2
  -3   0 -11-2.41301 197.885   2
   3  -3 -11 183.896 275.625   2
   3  -3 -10 94.2904 197.242   2
  -3   0 -10-351.094 294.241   2
  -3   0  -9 306.828 298.062   2
   3  -3  -9-232.186 346.921   2
   3  -3  -8 482.097 380.254   2
  -3   0  -8 729.288 402.285   2
  -3   0  -7 1449.89 510.417   2
   3  -3  -7 1291.11 552.017   2
  -3   0  -6 3297.58 657.276   2
   3  -3  -6 2421.67 673.208   2
  -3   0  -5 1741.04 411.322   2
   3  -3  -5 1660.95 523.655   2
  -3   0  -4 22033.9 1275.96   1
  -3   0  -4 22862.4 1306.68   2
   0   3  -4 21662.4 1207.96   1
   3  -3  -4 22484.7 1482.34   5
   3  -3  -4 23524.9 1629.03   2
   3  -3  -3 27181.0 1543.40   2
   3  -3  -3 28104.0 1477.22   5
   0   3  -3 27322.1 1193.06   1
  -3   0  -3 26722.2 1178.09   2
  -3   0  -3 26829.3 1219.63   1
   0   3  -2 12163.5 717.203   1
  -3   0  -2 9564.91 385.887   3
   3  -3  -2 10691.9 794.543   5
  -3   0  -2 11104.2 652.346   1
   3  -3  -2 10514.7 826.320   2
  -3   0  -2 11244.7 565.420   2
   3  -3  -1 1344.90 257.510   5
   3  -3  -1 1354.73 257.629   2
  -3   0  -1 1414.06 185.607   1
   0   3   0 120440. 2457.27   5
  -3   0   0 121043. 1556.15   2
   0   3   1 1415.82 276.025   5
   3  -3   1 1524.66 272.583   3
  -3   0   1 1605.50 252.809   2
  -3   0   2 11670.1 856.382   2
   0   3   2 10274.8 811.458   5
   3  -3   2 11351.1 753.094   3
   0   3   2 10797.2 623.774   3
   0   3   2 11250.6 832.106   2
   0   3   3 28307.9 1463.68   2
  -3   0   3 26353.2 1525.82   2
   3  -3   3 27816.4 1409.03   2
   3  -3   3 27533.8 1214.87   3
   0   3   3 26813.2 1055.78   3
  -3   0   4 22854.0 1200.06   1
   3  -3   4 22846.8 1459.62   2
  -3   0   4 21779.5 1567.09   2
   0   3   4 23308.5 1102.56   3
   0   3   4 21575.2 1439.01   2
   0   3   5 2197.70 498.907   1
   3  -3   5 1497.35 451.637   2
   3  -3   5 2338.25 472.396   1
  -3   0   5 2000.20 406.079   1
  -3   0   6 2981.57 553.322   1
   0   3   6 3123.84 602.361   1
   3  -3   6 3060.33 605.598   1
   0   3   7 1620.55 484.638   1
   3  -3   7 1495.75 475.274   1
  -3   0   7 1496.26 413.696   1
  -3   0   8 726.350 303.685   1
   3  -3   8 660.632 309.762   1
   0   3   8 983.272 410.804   1
  -3   0   9-145.700 146.057   1
   0   3   9-110.999 118.738   1
   3  -3   9 5.41532 23.0671   1
   0   3  10-6.34206 56.4987   1
   3  -3  10-327.805 256.922   1
  -3   0  10 93.2979 185.007   1
   0   3  11-258.607 233.191   1
   3  -3  11 79.1842 134.420   1
  -3   0  11 87.8783 222.539   1
  -3   0  12-0.37236 181.689   1
   0   3  12-0.40059 54.9437   1
   3  -3  12-0.43892 243.377   1
   0   3  13-238.548 251.235   1
  -3   0  13 332.298 462.101   1
  -3  -1 -13-295.657 332.433   2
   4  -3 -13-232.997 292.901   2
   4  -3 -12 15.1194 170.123   2
  -3  -1 -12-0.56375 197.133   2
   4  -3 -11-206.419 245.384   2
  -3  -1 -11 0.49542 213.869   2
   4  -3 -10 159.760 278.060   2
  -3  -1 -10-345.578 294.405   2
   4  -3  -9 1.56588 18.9832   2
  -3  -1  -9 24.6727 183.693   2
   4  -3  -8-127.613 217.900   2
  -3  -1  -8 599.501 379.747   2
  -3  -1  -7 481.584 244.280   2
   4  -3  -7 845.161 413.369   2
  -3  -1  -6-143.329 272.136   2
   4  -3  -6 137.655 170.644   2
   4  -3  -5 2583.33 642.073   2
  -3  -1  -5 2801.44 552.264   2
   4  -3  -4 11752.9 1046.58   5
  -1   4  -4 11942.3 957.771   1
   4  -3  -4 11550.5 1179.37   2
  -3  -1  -4 11457.3 970.348   2
   4  -3  -3 2803.33 527.678   2
   4  -3  -3 2870.07 467.875   5
  -3  -1  -3 2972.84 420.813   1
  -3  -1  -3 2929.50 403.905   2
  -1   4  -3 2981.10 458.201   1
  -3  -1  -2 313.985 110.152   1
   4  -3  -2 361.036 154.531   5
   4  -3  -2 397.481 183.860   2
  -3  -1  -2 279.302 95.4445   2
  -3  -1  -1 5629.76 355.472   1
  -3  -1  -1 5219.94 450.198   5
   4  -3  -1 5437.55 510.333   5
   4  -3  -1 5796.06 522.789   2
  -1   4   0 344.610 89.8340   5
   4  -3   0 417.522 125.302   2
   4  -3   0 487.609 172.286   4
  -3  -1   0 440.802 100.437   5
  -1   4   1 27060.9 1149.18   3
  -3  -1   1 26705.8 1153.75   2
  -1   4   1 24856.1 1289.49   5
  -1   4   2 530.623 184.060   3
   4  -3   2 382.908 114.166   3
  -3  -1   2 410.612 87.9185   1
  -3  -1   2 246.700 97.8694   2
  -1   4   2 329.763 159.730   5
   4  -3   3 15265.3 999.165   2
   4  -3   3 15319.0 912.362   3
  -3  -1   3 14352.4 801.561   1
  -1   4   3 13931.7 1093.39   5
  -3  -1   3 14764.1 1171.69   2
  -1   4   3 15020.1 1141.47   2
  -1   4   3 15607.5 970.190   3
   4  -3   4 2630.31 489.121   2
   4  -3   4 2384.21 372.685   3
  -1   4   4 2505.31 415.337   3
  -3  -1   4 2606.11 397.397   1
   4  -3   5 1098.44 380.726   2
  -3  -1   5 716.304 210.077   1
   4  -3   5 822.545 213.987   3
   4  -3   6 2379.55 534.060   1
   4  -3   6 2530.04 425.658   3
  -3  -1   6 2144.04 442.182   1
   4  -3   7 659.433 225.220   3
  -3  -1   7 340.269 177.584   1
  -1   4   7 791.098 309.576   1
   4  -3   7 419.176 155.956   1
   4  -3   8 39.7357 17.9277   3
  -3  -1   8 32.7004 69.6584   1
   4  -3   8-389.377 368.572   1
  -1   4   8-285.207 202.253   1
  -3  -1   9 100.319 129.528   1
   4  -3   9 127.110 129.323   3
   4  -3   9-611.849 331.471   1
  -1   4   9-321.267 229.699   1
  -1   4  10 90.3494 215.754   1
   4  -3  10 70.3031 152.269   3
   4  -3  10-365.476 273.728   1
  -3  -1  10 0.28845 126.080   1
   4  -3  11 0.39711 50.9488   1
  -3  -1  11 85.5929 253.347   1
  -3  -1  12-126.897 168.352   1
  -1   4  12-345.141 283.713   1
  -1   4  13 0.44011 145.140   1
  -3  -1  13 0.85563 138.001   1
  -3  -2 -14 65.7112 228.564   2
   5  -3 -13 14.6260 377.988   2
  -3  -2 -13-0.64178 276.176   2
  -3  -2 -12 279.816 307.748   2
   5  -3 -12-674.583 477.764   2
   5  -3 -11 4.10145 97.0854   2
  -3  -2 -11-12.0410 135.458   2
  -3  -2 -10-19.2087 104.785   2
   5  -3 -10-230.819 382.304   2
   5  -3  -9 200.346 210.594   2
  -3  -2  -9-193.367 246.019   2
   5  -3  -8 542.287 233.683   2
  -3  -2  -8-229.388 326.774   2
   5  -3  -7-151.483 288.047   2
  -3  -2  -7-355.769 309.813   2
  -3  -2  -6 1874.85 539.266   2
   5  -3  -6 971.574 373.018   2
   5  -3  -5 3669.99 629.382   5
   5  -3  -5 3566.71 759.217   2
  -3  -2  -5 4836.69 733.627   2
   5  -3  -4 177.527 61.6948   2
  -3  -2  -4 139.610 127.090   2
   5  -3  -4 103.466 70.4997   5
   5  -3  -3 1267.16 359.089   2
  -3  -2  -3 1355.35 351.604   5
   5  -3  -3 1322.17 303.174   5
  -2   5  -3 1195.83 306.091   1
  -3  -2  -3 1306.77 292.683   2
  -3  -2  -2 115.781 90.5169   5
  -3  -2  -2 177.877 110.160   2
   5  -3  -2 118.313 101.258   2
   5  -3  -2 44.8960 44.8762   5
  -2   5  -1 959.289 267.441   4
   5  -3  -1 1499.39 276.203   2
  -3  -2  -1 1470.55 279.385   5
  -2   5   0 130.141 115.507   5
   5  -3   0 126.524 74.9788   2
  -2   5   0 62.4004 51.5184   3
  -3  -2   0 66.7466 45.1979   5
   5  -3   0 152.555 112.921   4
  -2   5   0 344.643 245.761   4
  -2   5   1 22777.1 1228.93   3
  -2   5   1 22511.7 1317.85   5
  -3  -2   2 41517.0 1815.65   2
  -2   5   2 41703.1 1714.66   3
  -2   5   2 41363.4 1903.11   5
  -3  -2   2 41839.5 1056.36   1
  -2   5   3 14962.7 1097.07   3
   5  -3   3 14751.5 958.755   3
   5  -3   3 14473.6 914.609   2
  -2   5   3 14066.6 1164.28   5
  -3  -2   3 14496.3 1221.25   2
  -3  -2   3 14575.0 803.990   1
  -3  -2   4 7308.56 678.820   1
  -2   5   4 8000.38 856.837   3
   5  -3   4 7469.43 680.874   3
   5  -3   4 7278.80 788.296   2
  -3  -2   5 322.359 140.722   1
  -2   5   5 514.942 198.138   3
   5  -3   5 732.874 300.565   2
   5  -3   5 204.648 99.4246   3
  -3  -2   6 4.51978 69.5736   1
   5  -3   6-7.02388 110.262   3
  -3  -2   7 237.954 175.153   1
   5  -3   7 189.327 118.431   3
   5  -3   8 81.0267 98.8425   3
   5  -3   8-193.476 249.325   1
  -2   5   8-213.614 175.797   1
  -3  -2   8 70.6882 130.414   1
   5  -3   9 2.24308 21.4607   3
  -3  -2   9-5.51804 19.1130   1
  -2   5   9-26.1300 114.804   1
   5  -3   9-61.0853 210.624   1
  -3  -2  10 95.0168 247.505   1
  -2   5  10-0.31589 51.3780   1
  -3  -2  11 12.3815 204.773   1
  -2   5  11 21.9077 211.772   1
  -2   5  12 145.058 349.202   1
  -3  -2  12 0.78346 122.373   1
  -3  -2  13-0.43303 197.265   1
  -2   5  13-299.228 277.406   1
  -3  -3 -13-127.800 220.770   2
   6  -3 -12-0.59331 43.1562   2
  -3  -3 -12 62.4701 370.790   2
   6  -3 -11-388.657 348.062   2
  -3  -3 -11-165.880 223.787   2
  -3  -3 -10 73.9108 114.255   2
   6  -3 -10 476.250 377.575   2
   6  -3  -9-53.8363 244.321   2
  -3  -3  -9 241.916 302.776   2
  -3  -3  -8 247.649 279.513   2
   6  -3  -8-310.212 259.205   2
   6  -3  -7 402.360 276.920   2
  -3  -3  -7 862.463 387.577   2
   6  -3  -6 4011.47 857.919   2
  -3  -3  -6 5322.93 915.378   2
   6  -3  -5 9472.88 1261.49   2
  -3  -3  -5 9927.46 1108.95   2
   6  -3  -5 7654.00 895.743   5
   6  -3  -4 14994.6 1138.67   5
  -3  -3  -4 16128.0 1227.09   2
   6  -3  -4 15179.1 1433.16   2
  -3  -3  -3 3266.73 511.602   2
  -3  -3  -3 3076.20 283.021   3
  -3  -3  -3 3111.22 559.384   5
   6  -3  -3 3333.74 469.234   5
   6  -3  -3 3161.17 549.043   2
  -3  -3  -2 4435.63 603.014   5
  -3  -3  -2 4634.73 544.387   2
   6  -3  -2 4674.14 494.515   5
   6  -3  -2 4332.12 586.960   2
  -3   6  -1 220.555 147.573   4
   6  -3  -1 144.326 147.659   4
   6  -3  -1 117.658 140.396   2
  -3  -3  -1 208.618 154.937   5
  -3   6   0 29405.2 1711.07   5
   6  -3   0 30367.4 1588.77   4
   6  -3   0 27710.7 1013.00   2
  -3   6   0 27183.3 1486.05   3
  -3  -3   0 29151.1 1301.33   5
  -3   6   1 66201.7 2496.87   5
  -3   6   1 69151.1 2400.56   3
   6  -3   1 62950.1 1214.56   2
   6  -3   2 67171.4 1412.26   2
  -3   6   2 67493.9 2605.66   5
  -3   6   2 66964.1 2455.25   3
  -3   6   3 72856.2 2674.31   3
  -3   6   3 77612.8 2877.74   5
   6  -3   3 74039.3 1949.81   2
  -3  -3   3 75035.9 1871.66   1
  -3   6   4 40288.7 2224.35   5
   6  -3   4 39949.0 1746.32   2
  -3  -3   4 43303.9 1710.17   1
  -3   6   4 38787.2 2080.04   3
  -3  -3   5 464.363 203.711   1
   6  -3   5 457.116 210.696   2
   6  -3   5 636.554 198.209   3
  -3  -3   6 1902.73 438.394   1
   6  -3   6 1573.56 345.760   3
  -3  -3   7 438.341 253.286   1
   6  -3   7 669.560 218.103   3
  -3  -3   8-86.1112 106.270   1
   6  -3   8 129.838 130.232   3
   6  -3   9 0.12462 83.5742   3
  -3  -3   9-164.569 165.969   1
  -3   6   9-25.9980 40.5349   1
  -3   6  10-243.438 213.542   1
  -3  -3  10-137.427 160.874   1
  -3   6  11 431.699 301.154   1
  -3  -3  11 0.35779 298.502   1
  -3  -3  12 239.947 236.136   1
  -3   6  12 1.58186 150.083   1
  -3  -3  13-0.43721 203.354   1
  -3  -4 -13 173.545 257.031   2
   7  -3 -12 132.472 218.040   2
  -3  -4 -12 80.8736 261.619   2
  -3  -4 -11 0.52920 120.365   2
   7  -3 -11 14.3551 340.770   2
  -3  -4 -10 0.47429 323.629   2
   7  -3 -10 469.637 342.093   2
  -3  -4  -9-711.504 416.569   2
   7  -3  -9 8.72037 226.492   2
   7  -3  -8-47.8961 82.1799   2
  -3  -4  -8 419.345 277.061   2
   7  -3  -7-152.591 209.916   2
  -3  -4  -7 294.047 323.380   2
   7  -3  -6-234.225 358.020   2
  -3  -4  -6-19.5343 188.066   2
   7  -3  -5 786.001 289.991   5
   7  -3  -5 1033.58 429.429   2
  -3  -4  -5 909.047 345.684   2
   7  -3  -4 3223.80 656.005   2
  -3  -4  -4 2901.45 548.559   2
   7  -3  -4 3659.07 547.969   5
   7  -3  -3 1246.04 389.169   2
   7  -3  -3 994.091 244.939   5
  -3  -4  -3 1180.82 332.647   2
  -3  -4  -3 1129.79 211.117   3
  -4   7  -2 4752.35 804.273   4
  -3  -4  -2 4107.50 634.751   5
   7  -3  -2 3946.75 599.529   2
  -3  -4  -2 3676.86 552.922   2
  -3  -4  -1 845.800 262.295   5
   7  -3  -1 215.769 173.263   4
  -4   7  -1 1095.68 407.411   4
   7  -3  -1 1195.44 262.472   2
   7  -3   0 4153.14 409.527   2
  -4   7   0 4790.39 730.147   5
  -3  -4   0 4232.48 568.120   5
  -4   7   1 1677.97 359.530   5
  -4   7   2 13599.8 1253.18   5
   7  -3   3 17586.8 777.625   2
  -4   7   3 18547.6 1505.65   5
   7  -3   4 3333.02 441.505   2
  -4   7   4 3582.43 695.145   5
   7  -3   5 7.73368 20.5432   2
   7  -3   6 84.0814 111.651   2
  -3  -4   6 67.6291 71.7661   1
  -3  -4   7-86.4928 151.805   1
  -3  -4   8 80.9893 62.7372   1
  -3  -4   9-219.069 194.994   1
  -4   7   9 87.6312 52.7000   1
  -3  -4  10-228.253 210.991   1
  -4   7  10 298.068 355.630   1
  -4   7  11-0.36197 145.010   1
  -3  -4  11 0.36927 132.798   1
  -4   7  12-213.406 224.968   1
  -2  -4 -13 1519.49 764.718   2
  -2  -4 -12 62.0067 215.099   2
   6  -2 -12 0.59061 122.350   2
   6  -2 -11 96.9593 357.732   2
  -2  -4 -11 73.7765 225.876   2
   6  -2 -10-643.780 424.043   2
  -2  -4 -10-621.142 412.339   2
  -2  -4  -9-358.240 305.605   2
   6  -2  -9-30.2528 93.3715   2
  -2  -4  -8 96.8188 193.017   2
   6  -2  -8 140.579 199.718   2
  -2  -4  -7 223.791 254.025   2
   6  -2  -7 132.162 75.9922   2
   6  -2  -6 1419.00 512.131   2
  -2  -4  -6 1502.59 531.593   2
   6  -2  -5 1310.21 339.675   5
  -2  -4  -5 1800.60 478.818   2
   6  -2  -5 1398.95 467.750   2
  -2  -4  -4 4936.06 725.516   2
   6  -2  -4 4919.76 787.875   2
   6  -2  -4 4732.84 589.315   5
  -2  -4  -3 24622.5 1505.39   2
   6  -2  -3 21493.0 1056.91   5
  -2  -4  -3 22333.7 976.045   3
   6  -2  -3 21306.8 1500.46   2
  -2  -4  -3 20645.4 1489.43   5
   6  -2  -2 6042.01 447.023   5
   6  -2  -2 6439.60 724.059   2
  -2  -4  -2 5961.06 676.123   2
  -2  -4  -2 6502.37 535.527   3
  -2  -4  -2 6924.21 797.747   5
  -4   6  -1 1796.85 521.329   4
   6  -2  -1 1818.96 322.862   2
  -2  -4  -1 2152.78 418.161   5
  -4   6  -1 2354.22 443.273   3
  -2  -4   0 5998.63 660.219   5
   6  -2   0 5837.87 419.376   2
  -4   6   0 7592.31 1010.98   4
  -4   6   0 5913.22 728.556   5
  -4   6   1 25620.1 1525.89   5
  -4   6   1 24443.5 1487.35   3
  -4   6   2 1556.79 369.547   5
  -4   6   2 1972.71 470.340   3
   6  -2   3 1411.41 214.660   2
  -4   6   3 1467.03 401.585   3
  -4   6   3 1403.88 390.415   5
  -4   6   4 2285.56 576.143   5
   6  -2   4 2902.93 414.854   2
  -2  -4   5 1.34606 108.183   1
   6  -2   5 143.235 126.755   2
  -2  -4   6 1278.10 373.035   1
   6  -2   6 882.532 297.446   2
   6  -2   7 105.564 45.6147   1
  -2  -4   7 165.929 93.7484   1
   6  -2   8-381.867 251.342   1
  -2  -4   8-352.151 231.442   1
  -4   6   9-48.7520 89.3542   1
  -2  -4   9-160.459 166.804   1
   6  -2   9-414.058 279.951   1
  -2  -4  10-174.624 184.433   1
  -4   6  10-335.461 249.118   1
   6  -2  10-0.36684 192.005   1
  -4   6  11 131.725 264.528   1
  -2  -4  11 0.36887 171.571   1
  -2  -4  12-0.41000 311.992   1
  -4   6  12-92.9838 145.831   1
  -1  -4 -13 233.110 297.473   2
   5  -1 -12-542.503 428.340   2
  -1  -4 -12 270.856 302.923   2
   5  -1 -11 146.330 210.161   2
  -1  -4 -11-0.51308 232.402   2
  -1  -4 -10-566.738 389.596   2
   5  -1 -10-21.0192 78.3404   2
  -1  -4  -9 125.935 111.502   2
   5  -1  -9-365.784 295.136   2
   5  -1  -8-35.5739 88.8028   2
  -1  -4  -8-151.855 239.408   2
   5  -1  -7 370.360 301.880   2
  -1  -4  -7 588.481 378.308   2
   5  -1  -6 2961.92 747.500   2
  -1  -4  -6 3541.29 763.248   2
  -1  -4  -5 7114.84 962.767   2
   5  -1  -5 6180.88 935.530   2
  -1  -4  -4 4498.87 682.827   2
   5  -1  -4 3988.11 675.075   2
  -1  -4  -3 17600.3 1231.64   2
  -1  -4  -3 16532.0 1302.04   5
   5  -1  -3 16436.4 1264.68   2
   5  -1  -3 17069.2 878.004   5
  -1  -4  -3 16815.7 881.283   3
  -4   5  -2 27111.7 1406.70   3
   5  -1  -2 27558.2 1414.92   2
  -1  -4  -2 28062.0 1140.03   3
   5  -1  -2 25957.2 792.068   5
  -1  -4  -2 28578.1 1448.24   2
  -1  -4  -2 27762.0 1549.23   5
  -4   5  -1 945.641 274.051   3
  -1  -4  -1 1109.58 235.534   3
  -1  -4  -1 767.241 227.052   5
  -4   5  -1 805.617 290.602   4
   5  -1  -1-46.0930 49.5525   4
   5  -1  -1 1001.12 225.669   2
  -1  -4   0 109.542 127.625   5
  -4   5   0 127.891 171.834   4
  -4   5   0-29.0212 132.593   5
  -4   5   1 40720.9 1840.93   3
  -4   5   1 40984.6 1751.91   5
  -4   5   2 35280.8 1736.16   2
  -4   5   2 35085.1 1704.97   5
  -4   5   2 33363.0 1785.83   3
  -4   5   3 15268.8 1184.78   5
   5  -1   3 14328.3 727.410   2
  -4   5   3 14554.4 1187.54   2
   5  -1   4 13661.1 913.749   2
   5  -1   4 13956.8 1088.91   1
  -1  -4   5 8572.77 905.938   1
   5  -1   5 6550.59 762.164   2
   5  -1   5 7533.64 891.873   1
   5  -1   6 663.020 276.555   1
  -1  -4   6 630.914 260.514   1
   5  -1   6 478.529 258.494   2
   5  -1   7-88.2492 217.647   1
  -1  -4   7-254.484 182.667   1
   5  -1   8-180.539 220.833   1
  -1  -4   8 6.22834 134.953   1
   5  -1   9 11.9134 189.731   1
  -4   5   9 15.5399 40.5689   1
  -1  -4   9-205.626 189.252   1
  -1  -4  10-103.309 142.266   1
   5  -1  10 3.55930 151.454   1
  -4   5  10 24.1938 7.33256   1
  -4   5  11 5.78959 222.183   1
  -1  -4  11-0.37151 247.014   1
   5  -1  12 0.91255 133.215   1
  -4   5  12-415.566 303.385   1
  -1  -4  12 35.5606 147.346   1
  -4   5  13 0.42018 44.4073   1
   5  -1  13 0.51303 185.752   1
   0  -4 -13 0.63534 182.269   2
   0  -4 -12 0.56547 159.300   2
   0  -4 -11 0.50308 143.808   2
   4   0 -11-123.407 190.771   2
   4   0 -10 59.4704 205.018   2
   0  -4 -10-148.560 197.686   2
   0  -4  -9-234.426 293.210   2
   4   0  -9-62.9534 139.658   2
   0  -4  -8 251.960 169.932   2
   4   0  -8-32.4500 241.284   2
   0  -4  -7 54.4943 145.039   2
   4   0  -7-16.5641 174.945   2
   0  -4  -6 165.083 223.620   2
   4   0  -6-151.678 190.693   2
   0  -4  -5 607.005 263.734   2
   4   0  -5 78.2425 73.8683   2
   4   0  -4 5111.91 747.117   2
   0  -4  -4 4789.13 718.549   2
   0  -4  -3 6119.57 769.854   5
   4   0  -3 6507.83 760.562   2
   0  -4  -3 6071.90 735.248   2
   0  -4  -2 2956.93 396.826   3
   0  -4  -2 3185.49 490.772   2
   4   0  -2 3088.55 466.560   2
  -4   4  -2 2941.72 434.263   3
   0  -4  -2 3114.99 524.896   5
   0  -4  -1 1891.76 302.106   3
  -4   4  -1 1944.66 331.568   3
   0  -4  -1 1950.06 378.724   5
  -4   4  -1 1767.92 416.598   4
  -4   4   0 15253.8 1022.06   3
  -4   4   0 16182.6 1007.56   5
   0  -4   0 15104.9 993.480   5
   0  -4   0 12340.3 668.033   4
  -4   4   1 1887.19 339.428   5
  -4   4   2 3214.38 479.601   2
   4   0   2 2813.36 355.299   1
  -4   4   2 2725.55 435.735   5
   4   0   3 6566.18 541.977   2
  -4   4   3 6736.46 783.356   2
  -4   4   3 6143.90 695.013   5
   4   0   3 6474.08 641.309   1
   4   0   4 5578.84 659.179   1
   4   0   4 5330.71 596.293   2
   4   0   5 192.146 32.7271   1
   0  -4   5 338.034 163.135   1
   4   0   5 179.498 122.334   2
   4   0   6 144.718 161.691   1
   0  -4   6-103.106 137.074   1
   4   0   7 50.7209 64.8275   1
   0  -4   7-72.4933 180.236   1
   0  -4   8 169.697 125.327   1
   4   0   8 266.639 188.351   1
   4   0   8 97.8305 47.8422   3
  -4   4   8 321.244 221.818   1
   4   0   9 12.6553 87.6688   1
  -4   4   9-38.3123 76.8782   1
  -4   4  10-402.177 264.223   1
   4   0  10 47.9901 99.4107   1
   0  -4  10-368.360 269.903   1
  -4   4  11-158.431 175.883   1
   0  -4  11-642.078 376.692   1
   4   0  11 10.0615 224.860   1
  -4   4  12 1.11062 123.727   1
   4   0  12-0.45474 203.305   1
   4   0  13 0.50331 105.684   1
  -4   4  13-89.6086 147.490   1
   1  -4 -13 409.998 388.125   2
   1  -4 -12 699.101 478.285   2
   1  -4 -11 52.0989 197.314   2
   1  -4 -10-498.385 360.112   2
   1  -4  -9-220.232 333.776   2
   3   1  -9-104.703 146.089   2
   1  -4  -8 71.1265 205.794   2
   3   1  -8-102.200 192.489   2
   1  -4  -7 235.000 205.365   2
   3   1  -7 289.936 147.005   2
   3   1  -6 1913.29 591.811   2
   1  -4  -6 2319.07 635.952   2
   3   1  -5 606.760 288.197   2
   1  -4  -5 215.797 72.2684   2
   3   1  -4 1868.87 416.342   2
   1  -4  -4 2314.77 486.713   2
   1  -4  -3 14245.0 1107.13   2
   3   1  -3 14909.2 1160.88   2
  -4   3  -3 14828.4 1033.92   1
  -4   3  -2 498.797 153.788   3
   1  -4  -2 118.954 55.1033   2
   1  -4  -2 471.287 157.895   3
   3   1  -1 25097.5 724.564   5
   1  -4  -1 27915.7 1202.87   3
  -4   3  -1 28414.4 1233.12   3
  -4   3   0 107.318 144.441   4
   3   1   0 406.464 88.8190   5
   1  -4   0 613.803 160.476   4
   1  -4   0 471.548 150.020   3
  -4   3   1 5369.76 495.985   5
  -4   3   1 5477.32 508.168   2
   3   1   1 5751.26 354.088   1
  -4   3   2 322.005 142.045   2
   3   1   2 363.875 109.025   1
  -4   3   2 151.633 42.3170   5
   3   1   3 2804.91 384.407   1
  -4   3   3 2992.75 504.702   2
   3   1   3 3046.14 402.321   2
   3   1   4 12147.1 957.119   2
   3   1   4 11986.5 934.088   1
   3   1   5 2365.18 483.483   2
   3   1   5 2822.56 487.106   1
   3   1   6 277.272 155.993   1
   1  -4   6-15.8474 105.057   1
  -4   3   7 871.871 352.809   1
   1  -4   7 447.350 207.515   1
   3   1   7 1037.79 417.836   1
  -4   3   8 245.481 179.538   1
   1  -4   8-141.365 228.732   1
   1  -4   9 37.0828 167.490   1
   3   1   9 164.240 214.389   1
  -4   3   9-186.311 166.851   1
   3   1  10-25.8938 71.5471   1
   1  -4  10-202.847 201.459   1
  -4   3  10-36.3044 78.7311   1
  -4   3  11 0.64555 175.346   1
   3   1  11-0.38813 207.459   1
   1  -4  11-376.488 291.298   1
  -4   3  12-0.36560 53.1860   1
   3   1  12 24.2903 257.885   1
   3   1  13-349.873 321.319   1
  -4   3  13 0.40577 250.059   1
   2  -4 -13-200.331 270.684   2
   2  -4 -12-228.563 272.362   2
   2  -4 -11 133.944 171.979   2
   2  -4 -10-733.258 436.491   2
   2  -4  -9-31.3999 184.662   2
  -4   2  -8-995.030 417.200   2
   2  -4  -8-96.5014 223.230   2
  -4   2  -7-218.795 178.728   2
   2  -4  -7 65.8436 17.3799   2
   2  -4  -6 1562.21 553.399   2
  -4   2  -6 1263.92 406.785   2
  -4   2  -5 3762.23 611.255   2
   2  -4  -5 3332.14 650.795   2
  -4   2  -4 10427.4 898.081   1
   2  -4  -4 11125.7 1087.49   2
  -4   2  -3 45149.7 1764.52   1
   2  -4  -3 48658.1 2043.22   2
   2  -4  -3 44496.9 2029.46   5
   2   2  -3 47759.5 1471.10   1
   2  -4  -2 245026. 4288.08   5
   2   2  -2 243049. 2613.99   1
  -4   2  -2 246651. 3149.73   3
   2  -4  -2 248040. 4210.72   2
  -4   2  -2 243714. 3572.78   1
   2  -4  -1 10463.8 803.858   3
   2  -4  -1 10297.8 792.598   2
  -4   2  -1 10557.5 684.782   3
   2   2  -1 10490.8 356.144   1
  -4   2   0 737.986 125.449   2
   2  -4   0 683.051 168.655   4
   2  -4   0 608.993 100.858   3
   2   2   0 585.657 159.690   5
  -4   2   0 121.861 161.303   4
   2  -4   1 31891.5 1354.64   3
  -4   2   1 32529.2 957.791   5
  -4   2   1 31777.0 1143.94   2
   2   2   1 32173.4 1197.12   5
   2   2   2 5693.15 472.888   1
   2  -4   2 6043.66 628.891   3
  -4   2   3 3767.67 568.050   2
   2   2   3 4087.26 476.671   1
   2   2   3 4395.84 529.143   2
   2   2   4 5160.78 622.702   1
   2   2   4 5814.66 697.251   2
   2  -4   4 5404.67 786.622   2
  -4   2   4 5070.59 788.732   2
   2   2   5 9008.58 979.658   2
   2   2   5 10235.7 958.573   1
   2   2   5 8568.64 388.033   3
   2  -4   6 4519.52 768.096   1
  -4   2   6 5068.03 779.105   1
   2   2   6 4325.53 723.798   1
  -4   2   7 644.344 302.906   1
   2  -4   7 1038.87 394.411   1
   2   2   7 1328.42 411.889   1
   2   2   8-27.0231 103.683   1
   2  -4   8 43.1111 85.7966   1
  -4   2   8 256.126 307.715   1
  -4   2   9-66.2318 64.0864   1
   2   2   9 189.094 233.202   1
   2  -4  10-541.660 331.134   1
  -4   2  10-141.135 153.189   1
   2   2  10 121.048 245.214   1
   2   2  11-112.013 156.801   1
   2  -4  11-351.711 283.624   1
  -4   2  11 112.521 114.560   1
   2   2  12 0.42712 89.0850   1
  -4   2  12-79.2231 129.504   1
  -4   2  13 104.197 156.980   1
   2   2  13 0.48548 416.000   1
   3  -4 -13 154.573 237.507   2
   3  -4 -12 1.65951 304.077   2
   3  -4 -11 303.379 352.990   2
   3  -4 -10-467.600 349.715   2
  -4   1 -10 175.817 178.440   2
   3  -4  -9 90.3850 302.210   2
  -4   1  -9-6.68152 102.316   2
   3  -4  -8 108.378 77.8554   2
  -4   1  -8 33.9157 186.295   2
  -4   1  -7 388.156 225.281   2
   3  -4  -7 694.979 401.699   2
   3  -4  -6 988.911 500.681   2
  -4   1  -6 2536.57 550.191   2
  -4   1  -5 854.857 296.729   2
   3  -4  -5 948.503 363.065   2
  -4   1  -4 2356.65 423.651   1
  -4   1  -4 2811.57 445.143   2
   1   3  -4 2580.03 414.611   1
   3  -4  -4 1808.50 494.323   2
   3  -4  -4 2342.97 511.315   5
   1   3  -3 15290.8 863.750   1
   3  -4  -3 14413.7 1136.05   5
   3  -4  -3 14288.2 1124.18   2
  -4   1  -3 14434.5 819.764   2
  -4   1  -3 14698.3 940.713   1
  -4   1  -2 344.879 97.5278   3
  -4   1  -2 447.922 150.688   1
   3  -4  -2 387.999 193.968   2
   3  -4  -2 493.189 181.794   5
   1   3  -2 428.014 126.644   1
   3  -4  -1 27535.7 1294.00   2
   3  -4  -1 27610.6 1357.09   5
   3  -4   0 394.448 149.026   3
  -4   1   0 348.927 73.4147   2
  -4   1   0 97.7048 105.728   4
   1   3   0 284.423 88.1685   5
   3  -4   0 466.570 162.473   4
  -4   1   1 5512.10 476.292   2
   3  -4   1 4597.41 528.525   3
   1   3   1 5004.01 525.040   5
   3  -4   2 387.065 154.709   3
  -4   1   2 334.593 145.177   2
   1   3   2 146.405 28.6249   5
   3  -4   3 3140.91 469.644   3
   1   3   3 2639.39 452.178   2
  -4   1   3 2708.93 492.109   2
   1   3   3 2959.17 286.699   3
  -4   1   4 10849.6 1099.89   2
   1   3   4 11536.8 617.465   3
   3  -4   4 11499.7 1094.77   2
   1   3   4 11835.2 1047.55   2
   1   3   4 12718.2 979.650   1
  -4   1   5 3208.87 515.543   1
   1   3   5 2363.06 484.963   1
   1   3   5 2733.53 332.263   3
   1   3   6-182.446 198.490   1
  -4   1   6 31.0686 58.0595   1
   1   3   7 537.881 289.421   1
  -4   1   7 559.458 244.774   1
   1   3   8 648.807 332.007   1
   3  -4   8 205.768 87.2691   1
  -4   1   8 534.888 283.589   1
  -4   1   9 2.68159 99.9595   1
   1   3   9-29.2386 225.035   1
  -4   1  10 0.28117 219.321   1
   1   3  10-207.785 199.143   1
   1   3  11 0.36589 147.918   1
  -4   1  11-193.099 189.876   1
   1   3  12 0.41123 35.9501   1
  -4   1  12 30.7714 80.4527   1
   1   3  13-0.47049 148.735   1
  -4   1  13 72.9534 264.787   1
   4  -4 -13 142.377 332.136   2
   4  -4 -12 0.56032 248.285   2
  -4   0 -12-33.8536 105.967   2
  -4   0 -11 49.5818 317.155   2
   4  -4 -11 4.50799 203.942   2
   4  -4 -10 29.3528 195.863   2
  -4   0 -10 13.5983 27.2599   2
  -4   0  -9-2.16400 108.167   2
   4  -4  -9 180.081 190.161   2
   4  -4  -8-286.926 244.438   2
  -4   0  -8 15.6079 117.797   2
  -4   0  -7 148.855 200.254   2
   4  -4  -7-707.647 359.960   2
   4  -4  -6-59.9423 118.930   2
  -4   0  -6 305.007 165.484   2
   4  -4  -5 343.767 207.420   2
  -4   0  -5 146.685 71.3630   2
   0   4  -4 5667.05 643.476   1
   4  -4  -4 5607.60 762.347   5
  -4   0  -4 5237.73 608.977   2
  -4   0  -4 5025.39 620.796   1
   4  -4  -4 4884.32 787.075   2
  -4   0  -3 6532.44 561.852   2
  -4   0  -3 6404.10 626.097   1
   4  -4  -3 6116.42 746.456   2
   0   4  -3 6591.69 628.480   1
   4  -4  -3 6501.88 753.044   5
   4  -4  -2 3153.58 479.535   5
   4  -4  -2 2991.97 467.241   2
  -4   0  -2 3094.98 278.423   2
  -4   0  -2 3045.60 362.602   1
   0   4  -2 2957.65 392.298   1
  -4   0  -1 1947.14 238.097   1
   4  -4  -1 1802.99 332.551   2
   4  -4  -1 2244.77 391.265   5
   0   4   0 15220.7 1014.10   5
  -4   0   0 15378.4 647.009   2
   0   4   1 2129.60 400.605   5
  -4   0   1 1890.67 304.911   2
   4  -4   1 2063.68 360.468   3
   4  -4   2 3034.84 436.953   3
  -4   0   2 3387.54 499.637   2
   0   4   2 2921.02 481.364   5
   0   4   2 3134.74 372.221   3
   0   4   3 6796.25 762.387   2
   4  -4   3 6736.78 674.001   3
  -4   0   3 6425.66 794.763   2
   0   4   3 5560.28 732.539   5
   0   4   3 6646.43 562.314   3
  -4   0   4 5141.00 565.759   1
   0   4   4 5549.59 542.245   3
   4  -4   4 5333.45 621.638   3
   4  -4   4 5305.55 732.489   2
   0   4   5 391.343 148.514   3
  -4   0   5 331.774 141.692   1
   4  -4   5 369.306 158.971   3
   0   4   6-52.5847 163.784   1
   0   4   6 31.9313 72.4428   3
   4  -4   6 74.2169 99.6189   3
  -4   0   6 10.2050 110.359   1
   4  -4   7 316.174 202.664   3
  -4   0   7-171.576 135.112   1
   0   4   7-6.74066 36.9046   1
   0   4   7 158.355 118.858   3
  -4   0   8 52.5118 161.289   1
   0   4   8-77.7865 161.977   1
   4  -4   8-17.6400 28.3207   3
   0   4   8 249.762 233.492   3
  -4   0   9-100.055 120.103   1
   4  -4   9-35.6109 59.7244   3
   0   4   9 193.426 256.494   1
   0   4  10-105.435 140.939   1
   4  -4  10 87.2607 180.098   3
  -4   0  10 39.9477 80.9963   1
  -4   0  11 345.026 253.617   1
   0   4  11 19.6938 64.9793   1
   0   4  12 0.81335 197.699   1
  -4   0  12 0.36381 187.745   1
  -4   0  13-334.046 285.640   1
   0   4  13 14.4607 263.646   1
  -4  -1 -13-0.64093 254.403   2
   5  -4 -13-6.38854 166.109   2
   5  -4 -12 0.57193 183.443   2
  -4  -1 -12 106.649 334.738   2
  -4  -1 -11-211.568 250.602   2
   5  -4 -11 75.3835 252.377   2
   5  -4 -10 592.099 338.047   2
  -4  -1 -10-46.4376 108.848   2
  -4  -1  -9-82.6273 139.705   2
   5  -4  -9-789.255 437.982   2
  -4  -1  -8 285.841 236.822   2
   5  -4  -8 10.9604 82.6243   2
  -4  -1  -7 397.909 227.421   2
   5  -4  -7 167.301 151.061   2
   5  -4  -6 3991.89 859.118   2
  -4  -1  -6 3296.93 673.257   2
  -4  -1  -5 7383.02 890.847   2
   5  -4  -5 6387.18 1026.92   2
   5  -4  -4 3989.57 641.851   5
  -4  -1  -4 4899.84 625.984   2
   5  -4  -4 4375.64 760.449   2
  -4  -1  -3 18229.3 1061.57   1
  -4  -1  -3 17836.0 976.139   2
   5  -4  -3 16813.8 1187.70   5
  -1   5  -3 17819.3 1147.93   1
   5  -4  -3 17635.9 1315.93   2
  -4  -1  -2 27930.2 1009.61   2
   5  -4  -2 28896.6 1450.51   5
   5  -4  -2 28547.5 1471.45   2
  -4  -1  -2 28623.0 1113.21   1
  -1   5  -1 937.573 222.681   4
  -4  -1  -1 917.253 191.974   5
   5  -4  -1 976.938 251.290   2
  -1   5  -1 1257.20 360.268   5
  -4  -1  -1 828.178 143.473   1
   5  -4  -1 5.18069 111.071   4
  -4  -1   0-38.5548 48.2065   5
   5  -4   0-27.9351 19.8463   4
   5  -4   0 29.4308 37.5049   2
  -1   5   0 46.1046 6.57562   5
  -4  -1   1 38919.1 1498.46   2
  -1   5   1 39284.0 1518.33   3
  -1   5   1 39355.3 1803.26   5
  -4  -1   2 33199.0 933.943   1
  -4  -1   2 34173.9 1645.70   2
   5  -4   2 34728.2 1598.36   3
  -1   5   2 33596.3 1732.23   5
  -1   5   2 34246.1 1461.51   3
   5  -4   3 15153.5 1051.69   3
  -4  -1   3 15100.5 1251.42   2
  -1   5   3 13973.7 1199.10   5
  -4  -1   3 14409.5 789.262   1
  -1   5   3 15838.7 1037.83   3
   5  -4   4 12689.2 1093.14   2
   5  -4   4 13978.3 1011.49   3
  -4  -1   4 13817.6 913.324   1
  -1   5   4 14256.1 1035.17   3
   5  -4   5 7543.58 761.539   3
   5  -4   5 7140.99 926.787   2
  -4  -1   5 7496.93 760.433   1
  -1   5   5 7694.51 818.753   3
   5  -4   6 456.793 169.312   3
  -4  -1   6 468.596 204.578   1
  -1   5   6 416.285 206.198   3
   5  -4   7-3.78230 69.8560   3
  -1   5   7-192.042 240.506   1
  -1   5   7 44.3589 35.5378   3
   5  -4   8-72.0338 87.2792   3
  -1   5   8-116.032 131.030   1
  -1   5   9-116.446 139.949   1
  -4  -1   9 164.547 211.432   1
   5  -4   9-10.1558 30.7799   3
   5  -4  10-106.562 102.856   3
  -4  -1  10 10.5609 162.744   1
  -1   5  10 71.5511 173.304   1
  -1   5  11 242.799 435.720   1
  -4  -1  11 160.566 176.052   1
  -1   5  12 54.7379 153.565   1
  -4  -1  12 0.37620 70.6536   1
  -4  -1  13-261.085 255.055   1
  -1   5  13 0.44792 231.405   1
  -4  -2 -13 428.083 400.989   2
   6  -4 -12 186.487 254.763   2
  -4  -2 -12-0.58148 64.6080   2
  -4  -2 -11 1.02401 171.567   2
   6  -4 -11-384.460 345.721   2
  -4  -2 -10 216.937 342.714   2
   6  -4 -10 40.1895 128.171   2
   6  -4  -9-22.0515 190.147   2
  -4  -2  -9-128.538 170.785   2
  -4  -2  -8-140.403 231.844   2
   6  -4  -8 50.2040 35.7151   2
  -4  -2  -7 247.551 178.905   2
   6  -4  -7-54.6896 49.8419   2
  -4  -2  -6 1181.10 415.841   2
   6  -4  -6 1527.04 526.392   2
  -4  -2  -5 1951.74 472.834   2
   6  -4  -5 1239.32 410.393   2
   6  -4  -4 4827.95 790.379   2
   6  -4  -4 4839.31 698.420   5
  -4  -2  -4 6365.96 737.484   2
  -4  -2  -3 22863.9 1533.22   5
   6  -4  -3 23072.8 1593.18   2
  -4  -2  -3 23491.5 1218.24   2
   6  -4  -3 21923.1 1358.87   5
   6  -4  -2 6762.99 691.360   5
  -4  -2  -2 6497.65 708.808   5
  -4  -2  -2 6372.24 573.205   2
   6  -4  -2 6140.64 703.787   2
  -2   6  -1 2043.84 487.465   5
   6  -4  -1 6.62577 97.4846   4
   6  -4  -1 2093.01 354.122   2
  -2   6  -1 722.946 261.885   4
  -4  -2  -1 2054.83 337.734   5
   6  -4   0 5267.66 502.981   2
  -2   6   0 5812.39 737.601   5
   6  -4   0 5881.42 747.192   4
  -4  -2   0 5704.24 509.073   5
  -2   6   1 24493.3 1527.90   5
  -2   6   1 24099.5 1359.69   3
  -2   6   2 1395.87 398.386   5
  -4  -2   2 1523.49 364.196   2
  -2   6   2 1681.94 359.094   3
  -4  -2   2 1579.00 185.585   1
   6  -4   3 1469.52 293.636   2
  -2   6   3 1252.56 393.829   5
  -4  -2   3 1699.96 423.149   2
  -4  -2   3 1348.79 209.746   1
  -2   6   3 2049.40 422.576   3
   6  -4   3 1507.85 335.786   3
   6  -4   4 3260.40 521.340   3
  -2   6   4 2391.69 529.730   5
  -2   6   4 2951.92 537.452   3
   6  -4   4 3553.98 555.945   2
  -4  -2   4 2515.71 351.438   1
  -2   6   5 102.983 103.146   3
   6  -4   5-47.5236 114.030   2
   6  -4   5 54.5324 100.679   3
  -4  -2   5 67.0763 91.1136   1
  -2   6   6 1002.67 353.547   3
   6  -4   6 1665.79 377.682   3
  -4  -2   6 1123.74 339.797   1
  -4  -2   7 157.856 208.933   1
   6  -4   7 168.865 82.7498   3
   6  -4   8-40.5638 58.6714   3
  -2   6   8-10.7845 176.421   1
  -4  -2   8 161.213 131.069   1
  -2   6   9-160.589 165.277   1
  -4  -2   9-155.711 154.776   1
   6  -4   9 32.5591 93.5308   3
  -2   6  10 61.4852 116.193   1
  -4  -2  10-97.6334 131.513   1
  -4  -2  11 1832.58 607.361   1
  -2   6  11 10.2569 46.9979   1
  -2   6  12 0.80323 118.863   1
  -4  -2  12 0.38981 124.314   1
  -4  -2  13-3.88085 91.7428   1
  -4  -3 -13 79.9069 414.737   2
   7  -4 -12 1.22285 168.376   2
  -4  -3 -12 161.828 234.906   2
  -4  -3 -11 0.51720 156.122   2
   7  -4 -11 643.733 454.945   2
  -4  -3 -10 254.413 318.446   2
   7  -4 -10 81.9237 186.932   2
  -4  -3  -9-168.821 218.251   2
   7  -4  -9 361.664 269.617   2
  -4  -3  -8-61.3796 210.717   2
   7  -4  -8 32.6841 98.7627   2
  -4  -3  -7 137.697 203.398   2
   7  -4  -7 319.445 152.464   2
   7  -4  -6-299.025 311.865   2
  -4  -3  -6 324.215 197.323   2
   7  -4  -5 709.844 372.478   2
  -4  -3  -5 1344.88 385.214   2
   7  -4  -4 3034.38 537.213   5
  -4  -3  -4 3382.71 572.947   2
   7  -4  -4 3002.72 668.348   2
   7  -4  -3 1094.39 292.110   5
   7  -4  -3 1101.62 379.903   2
  -4  -3  -3 1257.61 190.425   3
  -4  -3  -3 1194.47 390.392   5
  -4  -3  -3 1310.53 299.506   2
   7  -4  -2 4403.16 530.216   5
  -4  -3  -2 4443.06 555.571   2
  -3   7  -2 5086.11 831.233   4
  -4  -3  -2 3835.27 584.944   5
   7  -4  -2 4033.66 624.538   2
   7  -4  -1 1304.83 276.328   2
  -4  -3  -1 1336.68 326.012   5
  -3   7  -1 1594.40 506.733   4
  -3   7  -1 2219.57 533.067   5
  -3   7   0 4161.95 684.595   5
  -4  -3   0 3919.78 492.472   5
   7  -4   0 3654.19 411.695   2
   7  -4   1 1775.98 246.372   2
  -3   7   1 1732.85 368.990   5
  -3   7   2 13662.7 1265.41   5
  -3   7   2 12952.5 1134.97   3
   7  -4   3 17341.3 978.067   2
  -3   7   3 19558.5 1560.85   5
   7  -4   4 3334.07 512.883   2
  -3   7   4 3345.92 652.010   5
  -4  -3   4 3955.46 503.809   1
   7  -4   5 146.341 141.172   2
  -4  -3   5 28.6434 78.2582   1
   7  -4   6 4.98323 29.0021   3
  -4  -3   6 81.0870 82.6136   1
  -4  -3   7-72.4213 72.4283   1
   7  -4   7 151.508 112.537   3
  -4  -3   8-571.979 288.609   1
   7  -4   8 91.1842 127.090   3
  -3   7   9 13.6283 165.529   1
  -4  -3   9-53.1240 94.4444   1
  -3   7  10 91.3648 218.589   1
  -4  -3  10 0.32144 124.940   1
  -4  -3  11-89.4066 137.376   1
  -3   7  11-273.785 243.697   1
  -4  -3  12 0.39739 185.085   1
  -3   7  12-328.456 281.210   1
  -4  -3  13 24.1442 206.114   1
  -4  -4 -12 41.9819 119.136   2
   8  -4 -12-0.63478 134.174   2
  -4  -4 -11 158.437 280.070   2
   8  -4 -11-176.635 243.635   2
  -4  -4 -10 183.887 223.080   2
   8  -4 -10 398.842 428.938   2
  -4  -4  -9 315.153 277.719   2
   8  -4  -9-25.6033 85.8668   2
   8  -4  -8-34.2139 117.267   2
  -4  -4  -8 141.225 265.534   2
  -4  -4  -7 148.101 120.108   2
   8  -4  -7 250.522 127.394   2
   8  -4  -6 71.0711 77.1432   2
  -4  -4  -6 11.6353 183.474   2
  -4  -4  -5 1035.46 365.447   2
   8  -4  -5 619.371 262.893   5
   8  -4  -5 687.196 287.106   2
   8  -4  -4 1313.54 337.566   5
  -4  -4  -4 1667.09 415.611   2
   8  -4  -4 1614.96 532.404   2
   8  -4  -3 1227.74 393.017   2
  -4  -4  -3 1942.16 434.121   2
  -4  -4  -3 1850.44 287.713   3
   8  -4  -3 1675.69 350.214   5
   8  -4  -2 6173.56 785.178   2
  -4  -4  -2 6664.27 851.999   5
  -4  -4  -2 6979.70 797.459   2
  -4   8  -2 7978.52 1099.40   4
  -4  -4  -1 289.428 152.177   5
  -4   8  -1 378.573 277.395   5
   8  -4  -1 308.106 114.057   2
  -4  -4   0 845.489 261.153   5
   8  -4   0 830.266 203.760   2
  -4   8   0 807.732 250.679   5
   8  -4   1 4044.75 351.900   2
  -4   8   1 3827.41 619.936   5
   8  -4   2 8286.21 437.141   2
  -4   8   2 10058.0 1137.71   5
  -4   8   3 5694.83 946.386   5
   8  -4   3 6256.27 501.767   2
   8  -4   4 7211.06 674.800   2
  -4   8   4 9077.64 1152.45   5
   8  -4   5 7716.41 823.780   2
  -4   8   5 7818.23 1191.17   5
  -4  -4   6 6705.37 862.682   1
   8  -4   6 4616.17 729.235   2
  -4  -4   7 298.847 209.893   1
  -4  -4   8 182.530 226.840   1
  -4  -4   9-186.197 180.726   1
  -4  -4  10-504.465 315.496   1
  -4   8  10 13.5936 99.9019   1
  -4  -4  11-291.972 254.127   1
  -4   8  11-463.441 321.309   1
  -4   8  12 0.83408 170.704   1
  -4  -5 -12 168.238 237.495   2
   9  -4 -12 113.839 503.634   2
   9  -4 -11 217.689 276.648   2
  -4  -5 -11-399.620 354.273   2
   9  -4 -10 194.014 247.584   2
  -4  -5 -10-65.3725 120.309   2
   9  -4  -9 585.087 470.418   2
  -4  -5  -9 148.509 219.473   2
   9  -4  -8 202.236 377.294   2
  -4  -5  -8 128.231 141.191   2
   9  -4  -7-341.603 276.546   2
  -4  -5  -7-59.9178 158.834   2
  -4  -5  -6 196.406 411.420   2
   9  -4  -6-60.5557 253.747   2
   9  -4  -5-139.369 230.375   2
  -4  -5  -5-138.377 138.598   2
   9  -4  -5-29.5457 83.0097   5
  -4  -5  -4 688.517 267.644   2
  -4  -5  -4 826.908 189.558   3
   9  -4  -4 709.994 224.211   5
   9  -4  -4 733.067 354.564   2
   9  -4  -3 1977.77 508.620   2
  -4  -5  -3 2429.31 535.912   2
  -5   9  -3 1315.63 512.631   4
  -4  -5  -3 2046.97 343.949   3
  -4  -5  -2 372.108 164.974   2
  -5   9  -2 292.362 186.501   4
   9  -4  -2 182.118 38.1674   2
   9  -4  -1 879.345 248.065   2
  -5   9  -1 1308.25 462.949   5
  -4  -5  -1 756.332 293.113   5
  -5   9  -1 1274.32 438.121   4
   9  -4   0 130.249 52.2760   2
  -5   9   0-136.790 299.708   5
  -5   9   1 1425.63 431.849   5
   9  -4   1 1608.08 178.275   2
  -5   9   2-122.060 233.876   5
  -5   9   3 1308.82 447.660   5
  -5   9   4 4369.49 846.541   5
   9  -4   4 4207.49 384.472   2
  -5   9   5 2080.00 671.714   5
   9  -4   5 1597.23 318.837   2
   9  -4   6 209.564 115.171   2
  -5   9  10-205.900 207.293   1
  -5   9  11 0.38998 91.6748   1
  -5   9  12-504.891 356.368   1
  -3  -5 -13-30.3041 107.175   2
   8  -3 -12 29.7246 105.126   2
  -3  -5 -12 117.518 299.795   2
  -3  -5 -11-157.439 225.327   2
   8  -3 -11-656.785 471.229   2
   8  -3 -10-220.293 258.785   2
  -3  -5 -10-209.850 245.652   2
   8  -3  -9 264.273 324.679   2
  -3  -5  -9 16.1089 70.0215   2
   8  -3  -8 154.460 251.539   2
  -3  -5  -8 318.459 319.504   2
   8  -3  -7-230.585 281.545   2
  -3  -5  -7-218.395 221.514   2
  -3  -5  -6 278.210 363.863   2
   8  -3  -6 187.248 134.137   2
   8  -3  -5 596.935 230.382   5
  -3  -5  -5 148.656 126.327   2
   8  -3  -5 431.438 244.518   2
  -3  -5  -4-55.2842 197.060   2
   8  -3  -4 57.4054 101.883   2
  -3  -5  -4 85.3090 39.3713   3
   8  -3  -4 210.406 104.452   5
   8  -3  -3 179.298 106.849   5
   8  -3  -3 109.394 104.063   2
  -3  -5  -3 235.120 101.281   3
  -3  -5  -3 311.722 227.070   2
  -5   8  -2 18504.7 1756.05   4
  -3  -5  -2 15481.8 1261.27   2
   8  -3  -2 14354.8 1176.68   2
  -3  -5  -1 7161.27 883.085   5
   8  -3  -1 7298.93 710.334   2
  -5   8  -1 9284.47 1256.40   5
   8  -3  -1 6983.08 887.045   4
   8  -3   0 844.127 176.204   2
  -5   8   0 683.183 280.249   5
  -5   8   1 319.101 165.671   5
  -5   8   2-154.754 288.480   5
  -5   8   3 523.566 243.829   5
  -5   8   4 283.509 262.084   5
   8  -3   4 101.608 51.2387   2
  -5   8   5 2783.69 735.452   5
   8  -3   5 2294.65 394.702   2
   8  -3   6 1497.39 378.972   2
  -5   8  10 42.0313 263.676   1
  -5   8  11-77.1709 130.365   1
  -5   8  12-6.56948 170.697   1
  -2  -5 -13-574.644 472.640   2
   7  -2 -12-77.2119 166.779   2
  -2  -5 -12 248.431 288.065   2
  -2  -5 -11 0.54772 270.861   2
   7  -2 -11-6.60847 206.856   2
   7  -2 -10-158.407 215.040   2
  -2  -5 -10 71.7421 23.5063   2
  -2  -5  -9 240.436 277.369   2
   7  -2  -9-129.111 183.195   2
   7  -2  -8 195.185 187.874   2
  -2  -5  -8 226.118 226.001   2
   7  -2  -7 1106.22 574.133   2
  -2  -5  -7 1867.81 644.023   2
  -2  -5  -6 3261.79 814.042   2
   7  -2  -6 3377.98 846.386   2
  -2  -5  -5 2171.78 593.574   2
   7  -2  -5 2927.98 720.546   2
   7  -2  -5 2289.14 451.416   5
   7  -2  -4 3866.09 750.909   2
   7  -2  -4 3438.97 472.530   5
  -2  -5  -4 3824.25 676.788   2
  -2  -5  -3 1887.48 456.473   2
   7  -2  -3 1700.22 274.336   5
  -2  -5  -3 1921.52 327.086   3
   7  -2  -3 2213.24 484.122   2
   7  -2  -2 1837.58 416.962   2
  -2  -5  -2 2239.13 360.244   3
  -2  -5  -2 2049.68 426.880   2
  -2  -5  -2 2272.49 500.447   5
  -5   7  -2 1550.07 474.343   4
   7  -2  -1 20831.2 1137.02   2
  -5   7  -1 20355.6 1761.17   4
  -2  -5  -1 21775.4 1486.39   5
  -5   7   0 22717.0 1635.86   5
  -2  -5   0 21785.1 1413.01   5
  -5   7   1 4509.40 654.913   5
  -5   7   2 12757.9 1191.33   5
  -5   7   3 5751.28 857.040   5
   7  -2   4 82.7986 67.1487   2
  -5   7   4-131.145 197.987   5
   7  -2   5 136.990 94.5400   2
   7  -2   6 341.835 174.615   2
  -5   7  10 129.705 182.272   1
  -5   7  11 131.554 166.499   1
  -5   7  12 0.39599 191.543   1
  -1  -5 -13 168.775 256.259   2
   6  -1 -12-0.59613 139.387   2
  -1  -5 -12 0.59434 244.978   2
   6  -1 -11-212.430 258.176   2
  -1  -5 -11-759.197 490.389   2
   6  -1 -10-77.9322 147.549   2
  -1  -5 -10-187.389 231.196   2
   6  -1  -9 316.105 382.388   2
  -1  -5  -9-95.6339 143.197   2
  -1  -5  -8 357.453 357.677   2
   6  -1  -8 97.6924 262.147   2
   6  -1  -7 653.887 354.058   2
  -1  -5  -7 1168.97 549.749   2
   6  -1  -6 1313.38 498.276   2
  -1  -5  -6 975.388 432.994   2
  -1  -5  -5-105.847 253.780   2
   6  -1  -5 240.029 243.760   2
   6  -1  -4 73.2823 82.4012   2
  -1  -5  -4-43.5983 179.648   2
   6  -1  -4-7.09597 95.9257   5
   6  -1  -3-50.3229 68.3568   2
  -1  -5  -3 32.3375 106.646   2
   6  -1  -3-41.0560 20.3068   5
   6  -1  -2 416.030 157.831   2
  -1  -5  -2 403.064 132.848   3
  -5   6  -2 342.296 181.828   3
  -1  -5  -2 503.651 213.263   5
  -1  -5  -2 167.931 74.3488   2
  -1  -5  -1 102.881 45.1300   5
  -5   6  -1 123.266 143.124   3
  -1  -5  -1 259.167 154.848   3
   6  -1  -1 107.413 70.3756   2
  -5   6  -1 131.585 201.497   4
   6  -1  -1 55.0652 114.554   4
  -1  -5   0 4629.92 642.935   5
  -5   6   0 5104.19 705.306   5
  -5   6   1 6124.30 735.712   5
  -5   6   2 2253.29 472.634   5
  -5   6   3 79.4633 56.2943   5
   6  -1   3 20.3297 15.0109   2
   6  -1   4 509.128 158.204   2
  -5   6   4 402.495 232.973   5
   6  -1   5 1349.50 329.721   2
   6  -1   5 644.595 168.646   1
   6  -1   6 475.702 219.861   1
   6  -1   6 732.236 283.794   2
   6  -1   7 345.597 232.403   1
   6  -1   8 243.635 31.9945   1
  -5   6   9 30.4030 99.1716   1
   6  -1   9 45.1090 117.963   1
   6  -1  10 137.206 214.035   1
  -5   6  10 3.39799 99.0811   1
  -5   6  11-37.9195 87.6614   1
   6  -1  11 1.24355 183.953   1
  -5   6  12 35.8830 233.503   1
   0  -5 -13-170.945 256.063   2
   0  -5 -12 39.6468 116.572   2
   0  -5 -11-590.506 427.816   2
   5   0 -10 196.996 207.046   2
   0  -5 -10-516.803 375.426   2
   0  -5  -9 4.90380 51.4843   2
   5   0  -9-129.268 188.712   2
   0  -5  -8 215.453 286.831   2
   5   0  -8-19.8216 180.564   2
   5   0  -7 63.3881 119.791   2
   0  -5  -7-10.3104 128.961   2
   0  -5  -6-46.4037 165.547   2
   5   0  -6 103.668 168.153   2
   5   0  -5 6267.03 973.139   2
   0  -5  -5 6251.22 948.884   2
   5   0  -4 2541.16 550.042   2
   0  -5  -4 2697.20 564.410   2
   0  -5  -3 3782.03 501.674   3
   5   0  -3 3723.02 598.406   2
   0  -5  -3 4004.27 671.402   2
  -5   5  -2 17975.2 1198.09   3
   0  -5  -2 17562.9 1235.97   2
   0  -5  -2 18047.3 1069.95   3
   0  -5  -2 17366.5 1315.90   5
  -5   5  -1 4387.11 600.725   3
  -5   5  -1 3245.54 568.190   4
   0  -5  -1 4375.05 513.514   3
   0  -5  -1 4205.10 622.557   5
   0  -5   0 7495.75 679.070   3
  -5   5   0 7699.01 808.296   3
   0  -5   0 7211.95 766.098   5
  -5   5   0 7303.50 756.681   5
  -5   5   1 4251.14 558.193   5
  -5   5   2 17980.9 1242.90   2
  -5   5   2 17017.4 1183.94   5
   5   0   3 3309.04 358.891   2
  -5   5   3 3782.58 592.463   5
   5   0   3 4192.62 512.166   1
  -5   5   3 3972.27 634.229   2
   5   0   4 2724.81 407.332   2
   5   0   4 3058.42 513.030   1
   5   0   5 6062.97 729.505   2
   5   0   5 6373.55 814.792   1
   5   0   6 488.690 249.372   2
   5   0   6 189.369 44.7948   1
   5   0   7 5.87742 171.953   1
   5   0   8 33.8720 60.7017   1
  -5   5   9 69.5842 117.333   1
   5   0   9 178.773 220.466   1
  -5   5  10-93.1892 128.330   1
   5   0  10 21.7001 110.921   1
  -5   5  11-0.33575 199.904   1
   5   0  11-341.762 286.934   1
   5   0  12 0.45905 158.582   1
  -5   5  12-0.37365 218.186   1
   5   0  13-0.51350 351.930   1
  -5   5  13 0.41590 171.129   1
   1  -5 -13-180.599 260.755   2
   1  -5 -12 470.701 397.820   2
   1  -5 -11 0.51741 324.968   2
   1  -5 -10-314.852 290.409   2
   1  -5  -9-236.728 330.869   2
   4   1  -8-49.5222 130.916   2
   1  -5  -8-148.593 214.942   2
   4   1  -7-360.215 256.433   2
   1  -5  -7 262.354 265.086   2
   1  -5  -6 476.837 289.375   2
   4   1  -6 455.616 270.707   2
   4   1  -5 7569.66 1041.04   2
   1  -5  -5 7710.20 1077.72   2
   1  -5  -4 13936.0 1253.30   2
   4   1  -4 13918.9 1298.19   2
   1  -5  -3 15314.0 1230.45   2
  -5   4  -3 14629.0 1085.63   1
  -5   4  -3 14658.2 976.143   3
   1  -5  -2 33718.4 1543.19   3
   1  -5  -2 34063.3 1819.17   5
   1  -5  -2 33685.8 1692.56   2
  -5   4  -2 34164.3 1554.18   3
   4   1  -1 38497.6 815.793   5
   1  -5  -1 37224.6 1570.29   3
  -5   4  -1 39849.1 1857.54   4
   1  -5  -1 39916.2 1855.90   5
  -5   4  -1 37994.4 1640.62   3
  -5   4   0 102.405 89.7862   3
   1  -5   0-13.7966 67.6088   3
  -5   4   0-56.1916 157.300   4
   1  -5   0 61.4392 16.9674   4
  -5   4   1 892.956 215.219   5
  -5   4   1 1032.34 252.756   2
   1  -5   1 952.776 276.332   3
  -5   4   2 27910.8 1348.22   5
  -5   4   2 28173.1 1470.52   2
   4   1   2 28897.4 1116.00   1
  -5   4   3 16974.6 1143.58   5
   4   1   3 16553.6 910.328   2
   4   1   3 16973.9 1020.70   1
  -5   4   3 16650.6 1256.22   2
   4   1   4 4137.96 537.762   2
   4   1   4 4377.34 577.857   1
   4   1   5 5807.59 746.921   2
   4   1   5 6745.39 800.843   1
   4   1   6 3973.97 677.019   1
   4   1   7 537.624 267.529   1
   4   1   8 93.1691 154.902   1
  -5   4   8-47.0128 80.9309   1
   4   1   9 63.1027 102.488   1
  -5   4   9-94.4794 119.577   1
  -5   4  10 0.29182 113.430   1
   4   1  10-158.818 180.923   1
   4   1  11 236.147 235.521   1
  -5   4  11-119.177 151.664   1
  -5   4  12 6.54877 177.305   1
   4   1  12-0.45909 136.327   1
  -5   4  13-0.40877 29.7332   1
   4   1  13-0.51226 201.424   1
   2  -5 -13 0.63087 295.418   2
   2  -5 -12 0.56463 256.117   2
   2  -5 -11-177.283 231.084   2
   2  -5 -10-76.9830 195.487   2
   2  -5  -9 124.576 147.767   2
   2  -5  -8 198.527 91.8944   2
   2  -5  -7 2.37026 54.2358   2
   2  -5  -6 165.494 200.220   2
   2  -5  -5 194.895 198.898   2
   2  -5  -4 7101.47 982.978   2
   2  -5  -3 13871.3 1189.14   2
  -5   3  -3 14145.4 1058.88   1
  -5   3  -3 13906.8 863.291   3
   2  -5  -2 42226.4 1897.37   2
  -5   3  -2 41072.1 1532.83   3
  -5   3  -1 21330.7 1285.74   4
  -5   3  -1 22044.5 1168.10   3
   3   2  -1 21477.6 906.027   5
   2  -5  -1 22377.0 1258.80   3
   2  -5  -1 26622.1 1591.03   4
   2  -5   0 121.363 145.670   3
  -5   3   0 73.2744 126.910   4
   2  -5   0 74.6194 21.9035   4
   3   2   0 97.9817 48.7273   5
  -5   3   1 1519.17 269.010   2
  -5   3   1 1886.25 296.338   5
   2  -5   1 1601.70 343.493   3
   3   2   1 1529.06 180.523   1
   2  -5   2 217.419 218.029   3
  -5   3   2 135.281 72.1888   2
  -5   3   2 36.4699 46.7581   5
   3   2   2 64.5077 27.9397   1
  -5   3   3 1309.59 341.965   2
   3   2   3 1307.46 268.382   1
   3   2   3 1066.70 262.140   2
   3   2   4 182.459 229.951   1
   3   2   4-17.3031 79.4204   2
   3   2   5 3910.31 638.418   2
   3   2   5 3986.61 604.775   1
   3   2   6 1215.56 359.582   1
   3   2   7-138.687 216.210   1
  -5   3   7-54.0523 74.4490   1
  -5   3   8-296.379 195.507   1
   3   2   8 71.7133 64.9694   1
  -5   3   9 49.5772 146.824   1
   3   2   9-45.4868 58.7729   1
   3   2  10-135.938 163.778   1
  -5   3  10-130.057 148.158   1
  -5   3  11-467.870 296.989   1
   3   2  11-36.8456 91.6569   1
   3   2  12-0.44558 49.5079   1
  -5   3  12-0.36171 233.355   1
   3   2  13 0.50223 17.2210   1
  -5   3  13-0.40224 46.7728   1
   3  -5 -13-547.470 449.514   2
   3  -5 -12 222.888 402.525   2
   3  -5 -11 12.7816 187.178   2
   3  -5 -10 99.1902 77.2240   2
   3  -5  -9 157.730 268.010   2
   3  -5  -8 13.5209 180.551   2
   3  -5  -7 262.037 189.216   2
   3  -5  -6 66.4475 122.523   2
   3  -5  -5-39.3383 194.694   2
   2   3  -4 7454.36 693.102   1
   3  -5  -4 6773.53 957.257   2
  -5   2  -3 14225.2 786.279   3
  -5   2  -3 14343.4 997.726   1
   3  -5  -3 14577.1 1209.05   2
   3  -5  -3 14209.5 1225.99   5
   2   3  -3 14014.7 810.794   1
   2   3  -2 41466.3 1122.90   1
  -5   2  -2 41441.4 1563.07   1
   3  -5  -2 41274.1 1938.63   5
   3  -5  -2 43447.6 1912.39   2
  -5   2  -2 41003.3 1406.25   3
   2   3  -1 21884.5 1092.35   5
   3  -5  -1 22003.8 1363.61   5
   3  -5  -1 25801.8 1658.96   4
   2   3  -1 21820.7 642.993   1
  -5   2  -1 21286.3 1192.13   4
   3  -5  -1 22417.3 1331.35   2
   3  -5  -1 21493.3 1297.42   3
   3  -5   0 170.061 187.689   3
  -5   2   0 3.08396 79.3462   4
  -5   2   0 96.5549 57.3891   2
   2   3   0 60.9382 99.1147   5
   3  -5   0 76.6099 28.4956   4
   2   3   1 1438.33 281.597   5
  -5   2   1 1588.54 195.645   5
  -5   2   1 1788.89 280.322   2
   3  -5   1 1562.97 341.795   3
   3  -5   2 156.181 101.700   3
  -5   2   2 175.840 131.546   2
   2   3   3 1343.08 279.139   1
   3  -5   3 1186.23 300.087   3
  -5   2   3 1179.78 315.437   2
   2   3   4-29.0930 60.2566   2
   2   3   4 95.8343 80.9026   1
   2   3   5 4308.92 638.860   1
   2   3   6 1506.54 418.289   1
   2   3   7 51.7694 36.9009   3
   2   3   7-18.6774 140.348   1
  -5   2   7-143.708 125.081   1
   2   3   8-82.3670 178.969   1
  -5   2   8 40.7994 42.6166   1
   2   3   8-64.3272 55.2401   3
   2   3   9-535.625 302.346   1
  -5   2   9 46.7751 170.358   1
   2   3  10 0.33046 8.01233   1
  -5   2  10-184.477 174.105   1
  -5   2  11-22.5984 65.0265   1
   2   3  11 147.308 260.245   1
  -5   2  12 0.35655 121.029   1
   2   3  12 0.85876 114.992   1
   2   3  13 0.48465 177.823   1
  -5   2  13 118.104 166.441   1
   4  -5 -13-93.1706 185.691   2
   4  -5 -12 68.6117 151.233   2
   4  -5 -11 70.0345 301.215   2
  -5   1 -10 125.846 35.1160   2
   4  -5 -10-462.943 354.952   2
   4  -5  -9 179.039 176.989   2
  -5   1  -9 64.5108 163.294   2
  -5   1  -8-368.637 252.502   2
   4  -5  -8 50.7251 125.755   2
  -5   1  -7 71.5153 43.1932   2
   4  -5  -7 1.26264 106.050   2
  -5   1  -6 537.476 251.760   2
   4  -5  -6 540.971 299.880   2
  -5   1  -5 7412.24 822.265   2
   4  -5  -5 7003.70 1040.20   2
   1   4  -4 13455.2 964.681   1
  -5   1  -4 13745.3 943.169   2
   4  -5  -4 14124.0 1305.36   2
  -5   1  -3 14105.7 953.070   1
   4  -5  -3 14370.5 1191.83   2
  -5   1  -3 14074.9 679.415   3
  -5   1  -3 14795.4 759.064   2
   4  -5  -3 14821.4 1237.96   5
   1   4  -3 15013.1 889.450   1
   1   4  -2 34814.3 1231.20   1
   4  -5  -2 34643.4 1731.85   2
   4  -5  -2 35025.4 1771.23   5
  -5   1  -2 34069.0 1347.73   1
   4  -5  -1 41506.0 1848.55   5
   4  -5  -1 38268.5 1686.51   2
   1   4  -1 40135.0 1696.32   5
  -5   1   0 34.4887 4.06929   2
   1   4   0-67.0713 137.539   5
   4  -5   0-215.528 131.927   4
  -5   1   0 27.7210 64.8996   4
   4  -5   0 60.5853 77.3093   3
   4  -5   1 1058.55 305.119   3
   1   4   1 913.254 269.789   5
  -5   1   1 799.049 195.335   2
   1   4   2 27226.9 1480.19   5
  -5   1   2 28044.9 1425.91   2
   4  -5   2 26593.3 1451.11   3
  -5   1   3 17211.8 1287.80   2
   4  -5   3 17543.7 1223.87   3
   4  -5   4 3584.76 650.360   2
   1   4   4 4619.15 686.658   2
   4  -5   4 4784.75 665.647   3
   1   4   4 4084.98 380.184   3
   1   4   5 7285.37 840.468   1
   1   4   5 6773.94 528.173   3
   4  -5   5 6601.23 814.376   3
   1   4   6 3683.45 685.293   1
  -5   1   6 3550.27 596.346   1
   4  -5   6 3504.33 601.493   3
   1   4   6 2806.24 363.029   3
   1   4   7 432.481 152.518   3
   4  -5   7 725.890 312.356   3
  -5   1   7 402.572 230.444   1
   1   4   7 584.838 293.328   1
  -5   1   8 163.285 174.965   1
   1   4   8-100.353 126.733   1
   4  -5   8-324.081 188.050   3
   4  -5   9-147.952 131.871   3
   1   4   9-335.994 239.191   1
  -5   1   9-450.583 253.315   1
   4  -5  10-81.7496 101.680   3
  -5   1  10 77.1379 161.342   1
  -5   1  11 0.31452 155.540   1
   4  -5  11 5.05364 128.222   3
   1   4  11-338.837 272.640   1
  -5   1  12-0.35480 120.744   1
   1   4  12 0.41744 163.513   1
   1   4  13-1.87384 145.900   1
  -5   1  13 399.027 308.110   1
   5  -5 -12-1.15343 210.677   2
   5  -5 -11 298.379 303.792   2
  -5   0 -11-348.187 319.312   2
   5  -5 -10-833.823 481.766   2
  -5   0 -10-0.42838 304.767   2
   5  -5  -9-410.788 318.812   2
  -5   0  -9-22.9560 105.279   2
  -5   0  -8-90.1365 96.4604   2
   5  -5  -8-244.194 227.205   2
   5  -5  -7 23.3308 185.315   2
  -5   0  -7 178.956 209.125   2
   5  -5  -6 204.925 218.614   2
  -5   0  -6 389.818 222.180   2
   5  -5  -5 6697.01 1003.47   2
  -5   0  -5 6314.94 780.750   2
   0   5  -4 2743.09 465.456   1
  -5   0  -4 2218.88 435.559   1
  -5   0  -4 2775.70 426.881   2
   5  -5  -4 3187.57 625.922   2
   0   5  -3 4033.99 530.127   1
  -5   0  -3 4124.40 419.394   2
   5  -5  -3 3749.85 628.776   2
   5  -5  -3 3879.29 629.423   5
  -5   0  -3 3308.59 286.291   3
  -5   0  -3 3563.77 476.187   1
  -5   0  -2 18353.8 933.398   1
  -5   0  -2 17969.9 623.198   2
   5  -5  -2 18306.3 1270.55   5
   5  -5  -2 16944.5 1211.72   2
   0   5  -1 4347.94 490.247   4
   0   5  -1 5067.15 700.351   5
   5  -5  -1 4492.07 562.934   2
  -5   0  -1 4289.10 384.400   1
  -5   0   0 6878.92 342.750   5
   0   5   0 7268.55 768.829   5
  -5   0   0 7271.71 500.069   2
   5  -5   0 7578.78 719.625   2
  -5   0   1 4217.27 492.693   2
   0   5   1 4212.15 597.809   5
   5  -5   1 4687.45 621.753   3
   0   5   2 16258.7 1236.05   5
   5  -5   2 18399.0 1245.25   3
  -5   0   2 17589.0 1190.91   2
   5  -5   3 4043.67 588.653   3
   0   5   3 3608.95 635.317   5
   0   5   3 4059.86 473.653   3
  -5   0   3 4045.55 651.753   2
  -5   0   4 2412.31 374.861   1
   5  -5   4 2366.51 504.504   2
   5  -5   4 2976.31 510.428   3
   0   5   4 2625.64 394.651   3
  -5   0   5 5958.18 685.729   1
   5  -5   5 6540.82 786.441   3
   0   5   5 6449.90 665.636   3
  -5   0   6 388.421 217.466   1
   5  -5   6 332.537 137.301   3
   0   5   6 486.868 232.684   1
   0   5   6 202.667 102.904   3
   5  -5   7 293.883 180.583   3
   0   5   7 104.304 276.420   3
   0   5   7 193.161 34.7088   1
  -5   0   7 144.696 72.3618   1
   0   5   8-9.76413 130.683   1
   5  -5   8 251.626 183.172   3
  -5   0   8-283.962 187.178   1
   0   5   9 35.2495 134.193   1
   5  -5   9 300.446 159.378   3
   5  -5  10 22.5550 115.746   3
  -5   0  10-0.27740 48.9652   1
   0   5  10 68.7473 115.576   1
  -5   0  11-214.225 199.185   1
   0   5  11 21.2296 155.103   1
   0   5  12-0.41534 113.488   1
  -5   0  12-0.36178 92.4167   1
  -5   0  13 0.41360 211.544   1
   0   5  13 31.7454 281.100   1
   6  -5 -12 218.973 275.642   2
  -5  -1 -12 64.4018 150.159   2
  -5  -1 -11-388.217 341.436   2
   6  -5 -11 263.623 287.292   2
  -5  -1 -10 9.73977 122.858   2
   6  -5 -10-459.574 361.713   2
   6  -5  -9-713.364 427.232   2
  -5  -1  -9 88.4212 121.877   2
   6  -5  -8 182.756 247.681   2
  -5  -1  -8 157.879 237.106   2
   6  -5  -7 1286.06 617.677   2
  -5  -1  -7 728.062 371.286   2
  -5  -1  -6 551.986 259.604   2
   6  -5  -6 1180.49 491.660   2
  -5  -1  -5 50.7538 60.0660   2
   6  -5  -5 51.0976 141.778   2
   6  -5  -4 55.6955 14.7253   5
  -5  -1  -4 264.614 139.004   2
   6  -5  -4 34.8505 214.699   2
   6  -5  -3-80.1723 133.886   5
  -5  -1  -3 5.55152 55.9981   1
   6  -5  -3-94.2430 179.687   2
  -1   6  -3-11.1070 45.1498   1
  -5  -1  -3-81.1016 73.7423   2
  -5  -1  -2 467.594 171.432   5
   6  -5  -2 488.822 193.788   5
   6  -5  -2 491.158 220.750   2
  -5  -1  -2 395.348 139.916   1
  -5  -1  -2 480.247 131.332   2
  -1   6  -1 1.23163 95.4183   4
  -5  -1  -1 105.760 58.8848   1
  -5  -1  -1 88.4529 73.7992   5
  -1   6  -1-178.374 203.074   5
   6  -5  -1 60.0827 57.8671   2
   6  -5   0 4315.62 519.965   2
  -1   6   0 5060.30 717.765   5
  -5  -1   0 4678.73 379.901   5
  -5  -1   0 4997.36 251.660   1
  -5  -1   1 5934.16 625.396   2
  -1   6   1 6259.89 781.180   5
  -5  -1   2 2106.36 226.793   1
  -5  -1   2 2064.26 430.010   2
  -1   6   2 2208.73 395.624   3
  -1   6   2 1952.76 424.127   5
   6  -5   2 2014.68 391.922   3
   6  -5   3-12.7616 63.6949   3
  -5  -1   3 15.9106 61.5807   1
  -1   6   3 67.1469 71.3457   3
  -1   6   3-243.906 203.486   5
  -5  -1   3-50.2815 108.084   2
  -1   6   4 522.905 209.860   5
   6  -5   4 577.869 242.033   3
  -1   6   4 653.613 225.734   3
   6  -5   4 294.779 194.050   2
  -5  -1   4 423.409 148.253   1
   6  -5   5 1436.03 357.696   3
   6  -5   5 1053.28 514.457   2
  -1   6   5 1315.96 347.314   3
  -5  -1   5 991.095 274.962   1
   6  -5   6 657.004 225.602   3
  -5  -1   6 680.749 252.403   1
  -1   6   6 844.944 293.075   3
  -1   6   7 460.583 239.987   3
   6  -5   7 215.204 139.757   3
  -5  -1   7 220.602 148.085   1
  -5  -1   8 185.277 166.289   1
   6  -5   8 349.951 197.132   3
  -1   6   8 392.066 308.400   1
   6  -5   9 46.5083 138.323   3
  -1   6   9 51.2202 180.180   1
  -5  -1   9 155.064 220.538   1
  -5  -1  10-0.56995 161.599   1
  -1   6  10 255.352 316.773   1
  -1   6  11 1.86141 192.962   1
  -5  -1  11 0.32799 92.7410   1
  -1   6  12 475.462 340.835   1
  -5  -1  12-0.37598 81.5370   1
  -5  -1  13-2.57441 27.5244   1
  -5  -2 -12-591.556 448.655   2
   7  -5 -12 32.8694 108.452   2
  -5  -2 -11 193.093 242.088   2
   7  -5 -11-0.54980 258.146   2
  -5  -2 -10-310.953 286.812   2
   7  -5 -10 278.440 345.049   2
   7  -5  -9 21.2053 69.1861   2
  -5  -2  -9 141.787 56.6669   2
  -5  -2  -8 4.73392 143.883   2
   7  -5  -8-670.923 397.591   2
   7  -5  -7 1145.24 532.844   2
  -5  -2  -7 772.872 392.255   2
  -5  -2  -6 3617.22 746.198   2
   7  -5  -6 3304.40 865.008   2
  -5  -2  -5 2620.53 553.279   2
   7  -5  -5 2654.76 708.407   2
  -5  -2  -4 4598.32 631.714   2
   7  -5  -4 3484.13 725.526   2
   7  -5  -4 3247.14 611.027   5
   7  -5  -3 1892.42 489.382   2
  -5  -2  -3 2002.34 356.419   2
  -5  -2  -3 1757.94 452.064   5
   7  -5  -3 1650.03 396.125   5
  -5  -2  -2 1867.24 313.254   2
  -5  -2  -2 1891.79 392.502   5
   7  -5  -2 1741.65 401.892   2
  -2   7  -2 2014.39 496.009   4
   7  -5  -2 1636.10 362.933   5
   7  -5  -1 21038.4 1241.75   2
  -5  -2  -1 21497.5 1175.96   5
  -5  -2  -1 22224.7 996.903   4
  -2   7  -1 23802.3 1782.32   5
   7  -5   0 20815.7 1128.99   2
  -2   7   0 22117.7 1625.61   5
  -5  -2   0 19828.2 969.805   5
   7  -5   1 4591.31 516.785   2
  -2   7   1 4889.15 752.816   5
  -2   7   2 11558.5 1004.21   3
  -5  -2   2 11691.2 1064.70   2
  -2   7   2 12864.7 1254.83   5
  -5  -2   2 11679.0 469.214   1
  -5  -2   3 6761.62 513.898   1
  -2   7   3 6772.07 951.647   5
  -2   7   3 6659.82 807.681   3
  -2   7   4 230.153 169.145   3
  -2   7   4 63.7843 83.9217   5
   7  -5   4 52.9086 40.8127   2
  -5  -2   4-77.1103 111.684   1
   7  -5   4 108.869 44.0373   3
   7  -5   5 108.373 29.6527   3
   7  -5   5 65.3671 124.673   2
  -5  -2   5 210.987 171.802   1
  -5  -2   6 374.031 169.383   1
   7  -5   6 495.304 229.166   3
   7  -5   7 553.664 216.559   3
  -5  -2   7 260.690 182.412   1
  -2   7   8 49.4033 62.7837   1
   7  -5   8 111.404 91.3033   3
  -5  -2   8 228.743 161.741   1
   7  -5   9 113.523 174.636   3
  -5  -2   9 181.160 270.041   1
  -2   7   9 200.353 258.681   1
  -2   7  10 111.470 293.245   1
  -5  -2  10 487.976 296.066   1
  -2   7  11 239.720 335.465   1
  -5  -2  11 0.34834 165.718   1
  -5  -2  12-0.39259 120.779   1
  -2   7  12 628.876 392.131   1
  -5  -2  13 0.43435 171.759   1
   8  -5 -12-210.119 279.601   2
  -5  -3 -12-0.57130 182.717   2
   8  -5 -11-0.56932 340.651   2
  -5  -3 -11 365.916 442.230   2
  -5  -3 -10 91.2300 156.802   2
   8  -5 -10 5.63920 122.420   2
  -5  -3  -9 172.049 164.707   2
   8  -5  -9 207.542 246.856   2
  -5  -3  -8 85.4150 180.120   2
   8  -5  -8-81.6320 162.717   2
   8  -5  -7-17.7872 25.4128   2
  -5  -3  -7-179.689 103.977   2
   8  -5  -6-33.7560 115.150   2
  -5  -3  -6 103.534 83.3091   2
   8  -5  -5 291.125 310.240   2
  -5  -3  -5 261.188 139.283   2
  -5  -3  -4 87.0533 156.476   2
   8  -5  -4 106.156 75.9538   5
   8  -5  -4 236.922 215.452   2
   8  -5  -3 300.451 183.226   2
  -5  -3  -3 402.455 149.976   2
   8  -5  -3 307.518 170.125   5
  -5  -3  -2 14512.4 1198.69   5
   8  -5  -2 14605.2 1214.21   2
  -5  -3  -2 16584.7 1119.51   2
  -3   8  -1 7624.69 1098.66   5
  -3   8  -1 4266.11 847.357   4
  -5  -3  -1 6621.09 750.519   5
   8  -5  -1 7090.96 734.379   2
  -5  -3   0 702.841 216.038   5
  -3   8   0 439.658 65.7088   5
   8  -5   0 903.247 222.192   2
  -3   8   1-52.6906 172.146   5
   8  -5   1 305.798 120.428   2
  -5  -3   2 70.8610 112.447   2
  -3   8   2-48.3047 233.938   5
   8  -5   3 773.523 212.890   2
  -3   8   3 786.412 389.973   5
  -3   8   4 69.9939 39.2838   5
  -5  -3   4 186.347 84.7415   1
   8  -5   4 116.263 85.2235   2
   8  -5   5 2819.33 551.715   2
  -3   8   5 2793.88 746.171   5
  -5  -3   5 3333.55 534.174   1
  -5  -3   6 2139.52 478.153   1
  -5  -3   7 665.434 272.575   1
   8  -5   7 332.451 172.279   3
   8  -5   8 289.325 204.950   3
  -5  -3   8 143.282 182.504   1
  -3   8   9 79.1264 182.466   1
  -5  -3   9 58.4891 184.011   1
  -5  -3  10-413.499 282.331   1
  -3   8  10-149.740 174.678   1
  -5  -3  11-0.36391 93.7952   1
  -3   8  11 0.76817 141.232   1
  -5  -3  12 0.40461 213.132   1
  -3   8  12 0.42696 101.956   1
  -5  -3  13 300.380 280.950   1
   9  -5 -12 0.65625 91.4050   2
  -5  -4 -11 220.036 319.423   2
   9  -5 -11 180.956 318.754   2
   9  -5 -10 1.06567 267.898   2
  -5  -4 -10-21.5542 77.0541   2
  -5  -4  -9-29.1685 144.655   2
   9  -5  -9-238.754 259.405   2
  -5  -4  -8-52.5048 134.717   2
   9  -5  -8-103.832 156.995   2
   9  -5  -7-17.1607 96.8991   2
  -5  -4  -7-132.129 38.4359   2
   9  -5  -6 169.613 119.143   2
  -5  -4  -6 99.5441 109.700   2
  -5  -4  -5 84.0182 127.399   2
   9  -5  -5-25.0827 104.653   2
  -5  -4  -4 652.365 128.723   3
  -5  -4  -4 733.128 295.530   2
   9  -5  -4 769.504 377.633   2
   9  -5  -4 778.522 276.889   5
  -5  -4  -3 2567.50 527.803   2
   9  -5  -3 1903.07 534.355   2
  -4   9  -3 1548.43 526.323   4
  -4   9  -2 281.056 259.106   4
  -5  -4  -2 190.541 228.193   5
   9  -5  -2 484.567 224.977   2
  -4   9  -2 850.844 494.409   5
  -5  -4  -2 191.463 39.9434   2
   9  -5  -1 1013.15 287.785   2
  -4   9  -1 870.770 337.778   5
  -4   9  -1 600.041 395.387   4
  -5  -4  -1 870.954 298.941   5
   9  -5   0 113.857 40.1311   2
  -4   9   0-65.6107 68.8091   5
  -4   9   1 1529.61 500.306   5
   9  -5   1 1821.58 278.404   2
   9  -5   2 95.5191 66.4400   2
  -4   9   2 176.941 175.738   5
   9  -5   3 1654.15 280.226   2
  -4   9   3 1682.72 506.185   5
   9  -5   4 3786.91 505.931   2
  -4   9   4 4477.84 863.225   5
   9  -5   5 1744.05 390.109   2
  -4   9   5 1676.03 547.008   5
   9  -5   6 465.314 228.137   2
  -5  -4   7-283.333 191.715   1
  -5  -4   8-246.470 195.330   1
  -5  -4   9 0.30432 228.497   1
  -5  -4  10-101.468 143.726   1
  -4   9  10-96.6707 142.644   1
  -4   9  11-377.193 297.030   1
  -4   9  12 1.30444 177.666   1
  10  -5 -11-352.818 357.993   2
  -5  -5 -10-218.202 244.817   2
  10  -5 -10 17.3369 331.313   2
  10  -5  -9-170.091 223.987   2
  -5  -5  -9-137.087 184.657   2
  -5  -5  -8-18.6758 111.285   2
  10  -5  -8-92.5261 156.686   2
  -5  -5  -7 161.869 272.381   2
  10  -5  -7 214.195 256.221   2
  10  -5  -6 110.011 233.845   2
  -5  -5  -6 130.573 171.486   2
  10  -5  -5 213.949 143.538   5
  10  -5  -5-16.0582 115.762   2
  -5  -5  -4 5420.89 864.210   2
  -5  -5  -4 3783.16 410.182   3
  10  -5  -4 4250.39 861.739   2
  10  -5  -4 3408.26 560.831   5
  -5  -5  -3 8058.17 1002.20   2
  -5  -5  -3 5859.05 593.882   3
  10  -5  -3 6744.02 995.280   2
  -5  10  -3 8863.61 1394.61   4
  10  -5  -2 1782.17 462.972   2
  -5  -5  -2 1506.49 384.641   2
  -5  10  -1 5857.67 1114.04   5
  10  -5  -1 4341.55 617.108   2
  -5  10  -1 4401.99 1029.00   4
  -5  -5  -1 3722.48 686.799   5
  10  -5   0 4043.97 515.756   2
  -5  10   0 3648.41 804.552   5
  10  -5   1 54.7168 65.1573   2
  -5  10   1 39.2727 75.2011   5
  -5  10   2-2.99199 186.182   5
  -5  10   3 4975.92 950.959   5
  10  -5   4 2108.15 277.079   2
  -5  10   4 2339.91 702.736   5
  10  -5   5 1660.07 312.026   2
  -5  10   5 2163.29 659.696   5
  -5  10  10 0.37740 105.529   1
  -5  10  11 0.40894 192.261   1
  11  -5 -11 28.9799 334.164   2
  -5  -6 -10-364.277 314.438   2
  11  -5 -10 89.6653 240.722   2
  -5  -6  -9 23.8897 77.4032   2
  11  -5  -9 0.53036 196.707   2
  11  -5  -8 80.0613 308.964   2
  -5  -6  -8 196.223 196.078   2
  11  -5  -7 65.4062 155.129   2
  -5  -6  -7 101.707 136.734   2
  -5  -6  -6-66.6609 64.9393   2
  11  -5  -6 262.757 218.763   2
  -5  -6  -5 78.4182 122.307   2
  11  -5  -5 127.924 79.5558   2
  -5  -6  -4-10.7310 55.1998   3
  11  -5  -4-239.674 258.546   2
  -5  -6  -4-39.2438 182.721   2
  -6  11  -3 23.5069 87.3643   4
  -5  -6  -3 1567.57 488.241   2
  -5  -6  -3 1225.78 320.910   3
  11  -5  -3 1357.95 444.283   2
  -6  11  -2 1743.22 748.657   4
  11  -5  -2 2571.75 562.783   2
  -5  -6  -2 3243.36 657.221   2
  11  -5  -1-27.1481 124.964   2
  -6  11  -1 187.170 151.203   5
  11  -5   0 250.789 76.4924   2
  -6  11   0-139.571 392.320   5
  -6  11   1-412.566 428.800   5
  -6  11   2-106.095 263.052   5
  -6  11   3 47.0201 130.955   5
  -6  11   4 866.164 451.459   5
  -6  11   5 419.987 331.538   5
  -6  11  11 0.42662 17.9163   1
  -4  -6 -11 53.1284 74.7465   2
  10  -4 -11 33.4608 299.727   2
  10  -4 -10 5.65750 160.556   2
  -4  -6 -10 251.074 270.092   2
  -4  -6  -9 145.943 184.526   2
  10  -4  -9 169.139 287.837   2
  -4  -6  -8 249.236 166.229   2
  10  -4  -8 181.912 256.640   2
  -4  -6  -7-73.2815 35.2256   2
  10  -4  -7 17.7982 37.9849   2
  -4  -6  -6-308.923 292.905   2
  10  -4  -6-80.0481 197.201   2
  10  -4  -5 678.508 397.975   2
  -4  -6  -5 733.209 358.402   2
  10  -4  -5 134.772 36.4830   5
  -4  -6  -4 1338.01 455.006   2
  -4  -6  -4 1331.92 290.676   3
  10  -4  -4 716.674 343.212   2
  -6  10  -4 275.197 355.478   4
  10  -4  -3 364.375 167.321   2
  -4  -6  -3 587.999 204.734   3
  -4  -6  -3 969.762 376.591   2
  -6  10  -3 13.7841 83.5253   4
  -6  10  -2 2929.28 818.989   5
  10  -4  -2 1911.37 465.778   2
  -6  10  -2 1253.23 581.216   4
  -4  -6  -2 2141.95 521.157   2
  -6  10  -1 10370.4 1512.78   5
  -6  10  -1 9379.43 1535.54   4
  10  -4  -1 8206.49 795.487   2
  -6  10   0 5011.50 939.104   5
  10  -4   0 4802.57 463.272   2
  -6  10   1 36.3900 222.670   5
  -6  10   2 170.678 96.5101   5
  -6  10   3 339.102 48.5288   5
  -6  10   4 238.773 142.417   5
  10  -4   5 73.7453 40.6800   2
  -6  10   5 339.083 217.650   5
  -6  10  11 0.40556 32.6133   1
   9  -3 -12-254.079 313.557   2
  -3  -6 -12-459.547 405.238   2
   9  -3 -11 252.818 297.692   2
  -3  -6 -11-342.154 336.167   2
  -3  -6 -10 49.9899 203.977   2
   9  -3 -10 82.9778 387.188   2
  -3  -6  -9 126.469 268.314   2
   9  -3  -9-17.0485 69.8705   2
   9  -3  -8-347.894 297.852   2
  -3  -6  -8 360.903 384.359   2
  -3  -6  -7-111.347 185.148   2
   9  -3  -7 165.027 181.816   2
  -3  -6  -6 336.558 270.876   2
   9  -3  -6 687.038 389.780   2
   9  -3  -5 527.642 230.066   5
  -3  -6  -5 494.182 335.946   2
   9  -3  -5 671.489 389.860   2
  -3  -6  -4 1130.88 264.980   3
  -3  -6  -4 1087.51 467.639   2
   9  -3  -4 1034.45 387.028   2
   9  -3  -4 892.562 219.472   5
  -6   9  -3 5687.91 1076.64   4
   9  -3  -3 5449.01 830.204   2
  -3  -6  -3 6655.08 935.498   2
  -3  -6  -3 5249.85 605.275   3
   9  -3  -2 8786.75 952.732   2
  -3  -6  -2 9447.45 1050.77   2
  -3  -6  -2 8679.29 804.642   3
   9  -3  -1 5549.89 629.587   2
  -6   9  -1 7281.19 1145.51   5
  -6   9  -1 6237.53 1128.32   4
  -6   9   0 9524.18 1206.01   5
  -6   9   1 3994.43 758.405   5
  -6   9   2 193.511 150.414   5
  -6   9   3 800.499 337.045   5
  -6   9   4 2915.80 705.735   5
   9  -3   5 1973.09 299.664   2
  -6   9   5 2317.93 708.643   5
  -6   9  11-662.057 387.393   1
  -2  -6 -13-317.909 354.792   2
  -2  -6 -12-0.62771 263.171   2
   8  -2 -12-120.706 212.883   2
  -2  -6 -11 211.269 265.586   2
   8  -2 -11-456.022 393.133   2
   8  -2 -10-175.402 230.981   2
  -2  -6 -10-32.7107 99.1384   2
   8  -2  -9-4.19497 177.254   2
  -2  -6  -9 354.963 335.640   2
   8  -2  -8-494.621 347.649   2
  -2  -6  -8 448.202 320.682   2
  -2  -6  -7-125.185 141.233   2
   8  -2  -7-104.036 260.622   2
  -2  -6  -6 1591.14 572.417   2
   8  -2  -6 1776.96 613.542   2
   8  -2  -6 1202.96 364.876   5
   8  -2  -5 1153.86 425.093   2
  -2  -6  -5 636.952 355.891   2
   8  -2  -5 729.173 236.215   5
   8  -2  -4 63.0438 138.035   2
  -2  -6  -4 45.9159 123.606   2
  -2  -6  -4 3.26539 46.6157   3
   8  -2  -4 144.853 118.523   5
  -2  -6  -3 317.362 146.696   3
   8  -2  -3 396.091 213.520   2
  -2  -6  -3 588.574 278.825   2
   8  -2  -2 3367.16 546.967   2
  -2  -6  -2 3321.87 492.092   3
  -2  -6  -2 2987.75 585.193   2
  -6   8  -2 2137.20 689.017   4
   8  -2  -1 1487.02 307.866   2
  -6   8  -1 1716.01 536.425   5
   8  -2  -1 1293.45 366.317   4
  -6   8   0 5331.48 827.840   5
  -6   8   1 12213.1 1235.37   5
  -6   8   2 6976.79 951.261   5
  -6   8   3 694.884 264.182   5
  -6   8   4 62.6627 213.479   5
  -6   8   5 757.096 326.857   5
   8  -2   5 477.400 170.965   2
   8  -2   6 40.5292 82.8207   2
  -6   8  10 0.66973 70.3137   1
  -6   8  11-0.36928 166.066   1
  -6   8  12 0.40683 155.966   1
  -1  -6 -13 308.819 351.801   2
  -1  -6 -12 0.62697 401.043   2
   7  -1 -11 1.67490 144.532   2
  -1  -6 -11-336.234 333.096   2
   7  -1 -10-115.368 184.044   2
  -1  -6 -10 47.6286 262.128   2
   7  -1  -9 244.454 228.255   2
  -1  -6  -9 187.527 294.862   2
   7  -1  -8 213.711 280.253   2
  -1  -6  -8 335.139 343.920   2
  -1  -6  -7 136.111 27.9317   2
   7  -1  -7 107.440 82.0975   2
  -1  -6  -6 196.255 198.195   2
   7  -1  -6 3.44715 80.2758   5
   7  -1  -6 10.4779 51.2256   2
  -1  -6  -5 424.373 222.933   2
   7  -1  -5 372.921 154.054   5
   7  -1  -5 129.287 156.436   2
   7  -1  -4 2414.77 358.485   5
   7  -1  -4 2529.15 609.334   2
  -1  -6  -4 2434.57 604.480   2
  -1  -6  -3 808.139 247.688   3
   7  -1  -3 660.682 270.559   2
   7  -1  -3 564.172 114.444   5
  -1  -6  -3 728.539 312.922   2
   7  -1  -2 80.7934 33.5451   2
  -1  -6  -2 65.4963 69.3029   3
  -1  -6  -2 69.3404 86.0622   2
  -6   7  -2-25.3047 322.994   4
   7  -1  -2-6.32735 48.5136   4
  -1  -6  -1 20539.2 1239.58   3
  -1  -6  -1 21043.2 1561.07   5
   7  -1  -1 20121.1 1278.40   4
  -6   7   0 7797.75 1466.03   4
  -6   7   0 14920.2 1323.07   5
  -6   7   1 88.9667 175.370   5
  -6   7   2 157.574 61.6928   5
  -6   7   3 5524.53 825.236   5
  -6   7   4 193.706 170.813   5
   7  -1   4 86.2883 73.1695   2
   7  -1   5 404.540 168.988   2
   7  -1   6 206.033 131.033   2
  -6   7  10 115.122 287.855   1
  -6   7  11 146.754 175.514   1
  -6   7  12-0.39381 131.961   1
   0  -6 -13 277.997 332.073   2
   0  -6 -12-405.861 383.333   2
   0  -6 -11-396.725 357.736   2
   0  -6 -10-462.818 364.651   2
   6   0  -9 51.7404 114.996   2
   0  -6  -9 113.652 256.774   2
   6   0  -8 777.040 518.466   2
   0  -6  -8 1010.74 594.430   2
   0  -6  -7 1224.12 517.247   2
   6   0  -7 674.226 335.388   2
   0  -6  -6 527.336 327.560   2
   6   0  -6-172.945 270.094   2
   6   0  -5 1207.60 388.037   2
   0  -6  -5 1394.99 453.670   2
   0  -6  -4 3462.45 691.009   2
   6   0  -4 3429.17 663.368   2
   0  -6  -3 3564.65 644.297   2
   0  -6  -3 3779.66 557.404   3
  -6   6  -2 1508.39 386.722   3
   0  -6  -2 1175.22 278.360   3
   0  -6  -2 1175.75 319.294   2
  -6   6  -2 1370.74 447.613   4
   0  -6  -1 8751.04 808.581   3
  -6   6  -1 8163.87 891.737   3
   6   0  -1 1161.68 343.307   4
   0  -6  -1 8871.91 987.176   5
   0  -6  -1 158.574 186.734   4
  -6   6  -1 879.305 461.750   4
   0  -6   0 25615.6 1397.17   3
  -6   6   0 28264.1 1651.63   5
  -6   6   1 7965.69 818.688   5
  -6   6   2 992.677 317.759   5
  -6   6   3 3567.02 638.482   5
  -6   6   4 3426.55 653.433   5
   6   0   4 2637.34 377.250   2
   6   0   4 3108.49 523.892   1
   6   0   5 1260.58 352.258   1
   6   0   5 1201.52 308.858   2
   6   0   6 234.133 151.276   1
   6   0   6 267.329 183.015   2
   6   0   7 627.204 315.084   1
   6   0   8 510.883 313.791   1
  -6   6   9 124.360 207.556   1
   6   0   9 8.50801 54.3933   1
   6   0  10-0.36946 232.214   1
  -6   6  10-0.61391 227.818   1
   6   0  11 0.41735 158.067   1
  -6   6  11 33.2951 189.049   1
  -6   6  12 0.38345 98.8296   1
   6   0  12-410.390 336.383   1
   1  -6 -13 55.5572 527.980   2
   1  -6 -12-0.60231 167.783   2
   1  -6 -11 0.53638 195.509   2
   1  -6 -10-15.7760 253.684   2
   1  -6  -9 328.207 380.191   2
   1  -6  -8 668.771 429.736   2
   1  -6  -7 622.492 349.351   2
   1  -6  -6 723.470 380.396   2
   1  -6  -5 791.229 350.681   2
   1  -6  -4 333.989 229.227   2
  -6   5  -3 39.3998 34.1952   3
   1  -6  -3 71.0173 166.243   2
   1  -6  -2 1873.99 394.464   2
   1  -6  -2 2045.22 412.430   3
  -6   5  -2 2404.02 449.806   3
   1  -6  -1 6131.14 808.078   5
   1  -6  -1 1750.54 455.466   4
  -6   5  -1 385.182 352.556   4
  -6   5  -1 6322.70 744.370   3
   1  -6  -1 5382.31 640.088   3
  -6   5   0 5359.86 659.930   5
   1  -6   0 5036.42 626.036   3
  -6   5   0 5081.55 683.809   3
   1  -6   1-14.5716 72.8177   3
  -6   5   1 4.28473 78.9794   5
  -6   5   2 388.849 172.937   5
  -6   5   2 273.751 152.581   2
  -6   5   3 91.1697 103.501   5
   5   1   3-14.2580 56.7216   1
   5   1   4 57.2319 40.2218   1
   5   1   4 150.804 83.7165   2
   5   1   5 18.9279 27.5452   1
   5   1   5 23.4719 51.9916   2
   5   1   6 1095.79 355.652   1
   5   1   7 1014.12 381.420   1
   5   1   8 399.704 271.852   1
   5   1   9 39.4451 96.1730   1
  -6   5   9 396.621 334.572   1
   5   1  10-157.115 183.069   1
  -6   5  10-124.601 148.299   1
  -6   5  11-0.33444 168.539   1
   5   1  11 1.24502 140.152   1
   5   1  12-202.544 235.460   1
  -6   5  12 0.37378 59.4285   1
  -6   5  13 0.41368 189.778   1
   2  -6 -13 56.4429 146.721   2
   2  -6 -12-285.746 315.245   2
   2  -6 -11-0.52808 528.543   2
   2  -6 -10-638.553 420.445   2
   2  -6  -9-418.456 319.566   2
   2  -6  -8 74.9610 138.595   2
   2  -6  -7 174.062 258.245   2
   2  -6  -6 659.781 369.066   2
   2  -6  -5 137.284 220.023   2
   2  -6  -4 2693.77 622.979   2
   2  -6  -3 1283.64 400.899   2
  -6   4  -3 1793.22 363.498   3
  -6   4  -2 1443.36 320.495   3
   2  -6  -2 1340.66 300.636   2
   2  -6  -2 1674.35 398.388   3
  -6   4  -1 23140.2 1492.81   4
   4   2  -1 24447.6 939.176   5
   2  -6  -1 24348.8 1654.45   4
   2  -6  -1 24421.5 1417.64   3
  -6   4  -1 24338.9 1399.08   3
   4   2   0 5835.70 466.902   5
  -6   4   0 6382.85 623.402   5
   2  -6   0 3691.42 598.032   4
   2  -6   0 5494.26 673.195   3
   2  -6   1 2003.38 418.942   3
  -6   4   1 2018.45 334.993   5
  -6   4   1 1957.14 347.491   2
   4   2   1 2051.82 216.591   1
   4   2   2 6542.95 518.661   1
  -6   4   2 7148.50 669.112   5
  -6   4   2 6695.54 736.809   2
   2  -6   2 6796.26 809.812   3
  -6   4   3 22301.7 1492.73   2
  -6   4   3 24032.4 1327.55   5
   4   2   3 22737.7 1159.59   1
   4   2   4 5527.28 649.638   1
   4   2   4 4733.67 620.233   2
   4   2   5 1419.88 365.753   1
   4   2   5 1335.18 354.355   2
   4   2   6 1843.79 461.470   1
   4   2   7 161.045 163.683   1
  -6   4   8 123.626 165.726   1
   4   2   8 129.837 155.784   1
   4   2   9-94.8600 129.796   1
  -6   4   9 160.284 180.004   1
   4   2  10-114.150 153.524   1
  -6   4  10-211.319 190.026   1
  -6   4  11-0.32890 79.7460   1
   4   2  11-489.283 340.621   1
   4   2  12 0.45912 187.599   1
  -6   4  12-381.698 285.334   1
   4   2  13 224.683 454.813   1
  -6   4  13-0.40829 95.9786   1
   3  -6 -13-0.64136 148.343   2
   3  -6 -12 0.58426 162.138   2
   3  -6 -11 29.9959 310.449   2
   3  -6 -10-308.612 291.925   2
   3  -6  -9-30.5216 207.260   2
   3  -6  -8 502.172 426.363   2
   3  -6  -7 597.084 377.699   2
   3  -6  -6 1486.62 513.100   2
   3  -6  -5 163.275 96.8227   2
   3  -6  -4 43219.9 2339.47   2
   3  -6  -3 77615.1 3009.23   2
  -6   3  -3 69943.1 2088.20   3
  -6   3  -3 71302.2 2463.51   1
   3  -6  -2 68585.2 2595.22   2
   3  -6  -2 64722.5 2632.92   5
  -6   3  -2 65679.7 2060.39   3
  -6   3  -1 66098.9 2369.83   4
   3   3  -1 67179.4 1931.75   5
   3  -6  -1 66985.3 2568.70   5
   3  -6  -1 63941.2 2411.76   3
   3   3   0 27993.2 1230.66   5
   3  -6   0 28581.3 1561.88   3
   3   3   1 21.7769 34.6783   5
   3  -6   1-26.6625 112.552   3
  -6   3   1 25.3868 31.4789   2
   3   3   1 150.515 58.0218   1
  -6   3   2 4991.45 472.667   5
   3   3   2 4463.55 426.584   1
  -6   3   2 4939.70 605.481   2
   3  -6   2 4573.44 659.601   3
   3  -6   3 3551.55 598.552   3
  -6   3   3 2915.19 513.704   2
   3   3   3 3250.75 428.948   1
   3   3   4 15312.1 1089.56   1
   3   3   4 15821.6 1197.43   2
   3  -6   4 16822.2 1347.24   3
   3   3   5 9898.55 979.860   1
   3   3   6 4441.28 711.878   1
   3   3   7 559.663 248.016   1
   3   3   8-152.102 151.316   1
  -6   3   8 342.417 240.410   1
  -6   3   9 42.8798 142.327   1
   3   3   9 233.691 378.355   1
  -6   3  10-104.825 132.670   1
   3   3  10 54.6477 161.935   1
  -6   3  11-372.419 264.552   1
   3   3  11-20.2823 158.529   1
   3   3  12 2.66806 296.447   1
  -6   3  12 0.36128 105.114   1
  -6   3  13 0.40179 128.133   1
   3   3  13 26.0068 337.580   1
   4  -6 -12 0.58222 279.138   2
   4  -6 -11 705.787 746.139   2
   4  -6 -10 292.570 384.828   2
   4  -6  -9-416.223 370.912   2
   4  -6  -8 26.3331 239.615   2
   4  -6  -7 53.3988 61.5357   2
   4  -6  -6 502.388 244.332   2
   4  -6  -5-100.670 193.712   2
   2   4  -4 2811.47 431.304   1
   4  -6  -4 2876.38 603.469   2
  -6   2  -3 1716.87 353.218   1
  -6   2  -3 1226.02 224.291   3
   4  -6  -3 1531.48 426.127   2
   2   4  -3 1311.12 245.883   1
   2   4  -2 1530.48 228.671   1
   4  -6  -2 1533.86 402.358   5
   4  -6  -2 1455.31 399.400   2
  -6   2  -2 1635.02 327.367   1
  -6   2  -2 1118.31 233.526   3
   2   4  -1 24112.1 1317.83   5
  -6   2  -1 25223.5 1401.65   4
   4  -6  -1 25978.9 1560.61   2
   2   4  -1 22255.1 653.660   4
   4  -6  -1 24429.1 1553.02   5
   4  -6  -1 24080.4 1547.78   3
   4  -6  -1 23766.0 1734.07   4
   4  -6   0 1912.95 456.755   4
  -6   2   0 5579.22 382.127   2
   2   4   0 5885.66 656.939   5
  -6   2   0-1.03378 76.8025   4
   4  -6   0 5766.23 730.847   3
   4  -6   1 2400.95 459.035   3
  -6   2   1 1950.74 198.613   5
   2   4   1 1824.31 357.482   5
  -6   2   1 2073.69 320.746   2
   2   4   2 6745.10 760.688   5
  -6   2   2 6266.01 678.242   2
   4  -6   2 6348.81 777.847   3
  -6   2   3 21949.0 1467.47   2
   4  -6   3 23845.9 1577.42   3
   2   4   4 5570.68 655.129   1
   4  -6   4 5809.85 785.372   3
   4  -6   5 1733.26 472.449   3
   2   4   5 1381.42 346.516   1
   4  -6   6 1573.21 460.296   3
   2   4   6 1363.73 408.836   1
   4  -6   7 368.961 224.296   3
  -6   2   7 423.323 250.588   1
   2   4   7-16.5548 165.504   1
  -6   2   8 101.982 138.027   1
   2   4   8 274.487 130.739   1
   4  -6   8 349.155 236.290   3
  -6   2   9 125.546 229.602   1
   4  -6   9 22.4045 119.457   3
   4  -6  10 57.7127 130.751   3
   2   4  10-237.365 216.906   1
  -6   2  10-404.436 257.341   1
   4  -6  11-180.341 167.312   3
   2   4  11 21.6952 133.734   1
  -6   2  11 0.31740 131.954   1
   2   4  12-603.999 389.039   1
  -6   2  12-390.022 286.036   1
  -6   2  13 0.39887 110.268   1
   2   4  13 0.48693 301.461   1
   5  -6 -12-8.78001 54.9656   2
   5  -6 -11 5.91775 43.2615   2
   5  -6 -10-188.369 230.974   2
  -6   1  -9 43.6183 94.9729   2
   5  -6  -9 240.804 289.543   2
  -6   1  -8 57.9718 159.024   2
   5  -6  -8 165.139 220.624   2
   5  -6  -7 155.932 229.286   2
  -6   1  -7 466.827 221.316   2
  -6   1  -6 597.484 263.671   2
   5  -6  -6 886.129 399.326   2
   5  -6  -5 1226.29 492.079   2
  -6   1  -5 1349.03 329.833   2
   5  -6  -4 37.5594 145.329   2
   1   5  -4 464.088 178.421   1
  -6   1  -4 624.686 185.279   2
  -6   1  -3 32.5224 24.5755   3
  -6   1  -3-17.5368 39.8202   1
   5  -6  -3 41.3060 75.1889   2
   1   5  -3 21.2083 37.7164   1
   5  -6  -2 2240.54 462.665   2
   5  -6  -2 2122.53 473.494   5
   1   5  -2 2249.31 338.572   1
  -6   1  -2 2204.46 357.008   1
  -6   1  -1 6309.72 666.832   4
   5  -6  -1 6615.03 766.811   2
   1   5  -1 5814.49 718.304   5
  -6   1   0 4718.34 364.670   2
   1   5   0 5019.60 658.103   5
   5  -6   0 4512.84 684.833   3
   5  -6   0 4015.55 664.725   4
   1   5   1 56.0107 47.5797   5
  -6   1   1 115.428 80.0392   2
   5  -6   1-23.0924 101.838   3
   5  -6   2 432.298 234.824   3
   1   5   2 268.909 112.492   5
  -6   1   2 475.726 201.115   2
   1   5   3 79.8892 83.2483   5
   5  -6   3-239.251 287.331   3
  -6   1   3 63.9913 95.9671   2
   5  -6   4 4.95576 123.678   3
   5  -6   5-191.868 173.579   3
   1   5   6 736.131 177.585   3
   5  -6   6 1122.25 378.496   3
  -6   1   6 467.319 220.116   1
   1   5   6 624.115 273.405   1
   1   5   7 698.640 188.557   3
   5  -6   7 1479.78 430.402   3
  -6   1   7 789.606 306.373   1
   1   5   7 1063.53 417.510   1
   1   5   8 183.023 209.776   1
   5  -6   8 292.822 221.454   3
  -6   1   8 128.252 138.319   1
  -6   1   9 9.90654 111.618   1
   5  -6   9 107.156 193.474   3
   1   5   9 50.4448 167.084   1
   5  -6  10-48.7124 81.5026   3
  -6   1  10 72.8323 178.453   1
   1   5  10-120.647 154.602   1
  -6   1  11 0.31430 228.363   1
   1   5  11 334.752 372.029   1
   1   5  12 241.479 245.236   1
  -6   1  12 0.35495 113.849   1
  -6   1  13-0.40526 58.1319   1
   6  -6 -12-0.59705 299.136   2
   6  -6 -11-3.28189 32.4856   2
  -6   0 -11-299.598 297.798   2
   6  -6 -10-39.1303 301.198   2
  -6   0 -10-0.43146 153.034   2
  -6   0  -9 316.177 337.282   2
   6  -6  -9 20.8828 155.369   2
  -6   0  -8 452.544 300.894   2
   6  -6  -8 626.115 423.332   2
  -6   0  -7 809.682 379.118   2
   6  -6  -7 651.616 475.153   2
  -6   0  -6 235.495 144.920   2
   6  -6  -6-145.690 283.360   2
   6  -6  -5 1373.95 540.295   2
  -6   0  -5 1446.93 373.993   2
   6  -6  -4 3359.74 717.480   2
  -6   0  -4 3510.27 479.095   2
  -6   0  -3 3557.11 360.506   2
   6  -6  -3 3689.16 664.016   2
   0   6  -3 3988.59 559.065   1
  -6   0  -3 3432.78 489.736   1
  -6   0  -2 1240.55 257.895   1
   6  -6  -2 1264.11 329.588   2
   6  -6  -2 1438.02 390.984   5
   0   6  -1 8861.60 972.890   5
  -6   0  -1 8028.22 407.253   2
  -6   0  -1 7906.24 726.689   4
   6  -6  -1 8690.58 866.343   2
  -6   0  -1 8779.82 584.753   1
  -6   0   0 26970.3 730.407   5
  -6   0   0 25803.6 1044.89   2
   6  -6   0 28422.8 1551.73   2
   0   6   0 28146.2 1689.12   5
   0   6   1 8175.03 932.457   5
  -6   0   1 8698.16 756.121   2
   6  -6   1 8225.11 916.297   3
   6  -6   2 1548.37 403.337   3
   0   6   2 1323.69 358.275   5
  -6   0   2 1250.00 345.187   2
  -6   0   3 3310.11 627.909   2
   0   6   3 3413.73 676.946   5
   6  -6   3 4263.55 663.087   3
  -6   0   4 3304.15 451.126   1
   6  -6   4 4042.14 666.500   3
   0   6   4 3336.50 471.569   3
   6  -6   5 792.489 203.564   3
   0   6   5 1332.73 309.096   3
  -6   0   5 1203.07 312.671   1
   6  -6   6 65.1657 152.953   3
  -6   0   6 79.9618 14.1675   1
   0   6   6 239.294 134.710   3
   6  -6   7 1059.42 345.804   3
   0   6   7 974.924 409.507   1
   0   6   7 531.642 231.649   3
  -6   0   7 936.838 311.805   1
   6  -6   8 662.708 267.570   3
  -6   0   8 311.171 254.053   1
   0   6   8 769.955 380.482   1
  -6   0   9 5.84906 82.5152   1
   6  -6   9 213.304 179.005   3
   0   6   9 70.2412 220.374   1
  -6   0  10-4.72794 127.943   1
   6  -6  10 6.94847 19.6990   3
   0   6  10 0.34018 23.3292   1
  -6   0  11 0.31646 91.1101   1
   0   6  11-228.078 225.013   1
   0   6  12-113.487 168.397   1
  -6   0  12 98.4901 145.061   1
  -6   0  13 0.41572 14.2547   1
   7  -6 -12-1.83983 180.896   2
  -6  -1 -11-602.403 425.375   2
   7  -6 -11-428.515 375.399   2
   7  -6 -10-362.138 329.756   2
  -6  -1 -10-513.196 367.403   2
  -6  -1  -9 141.103 194.747   2
   7  -6  -9-128.040 257.408   2
  -6  -1  -8 192.687 146.602   2
   7  -6  -8-136.511 127.288   2
  -6  -1  -7-75.1153 162.461   2
   7  -6  -7 296.597 290.959   2
  -6  -1  -6 42.0794 86.0398   2
   7  -6  -6-140.999 213.187   2
  -6  -1  -5 555.096 232.182   2
   7  -6  -5 210.581 180.131   2
   7  -6  -4 2866.67 651.199   2
  -6  -1  -4 2266.98 418.701   2
  -6  -1  -3 662.931 261.882   5
   7  -6  -3 592.793 262.557   2
  -6  -1  -3 584.581 210.883   1
   7  -6  -3 659.522 239.411   5
  -6  -1  -3 618.283 173.392   2
  -6  -1  -2 206.626 105.351   5
   7  -6  -2 389.404 208.658   5
  -6  -1  -2 266.490 112.780   1
   7  -6  -2 277.267 125.876   2
  -6  -1  -2 310.202 106.213   2
  -1   7  -2-40.1560 168.676   4
   7  -6  -1 20389.2 1329.63   2
  -6  -1  -1 20390.0 812.141   1
  -6  -1  -1 19515.9 1027.57   5
  -6  -1  -1 19482.9 1088.45   4
  -1   7  -1 21309.8 1663.77   5
  -1   7   0 12920.6 1220.08   5
  -6  -1   0 13079.4 449.318   1
  -6  -1   0 12392.0 831.913   2
  -6  -1   0 13028.4 647.025   5
   7  -6   0 12346.6 987.468   2
  -6  -1   1 473.901 166.562   2
  -1   7   1 310.723 248.242   5
  -1   7   2-172.195 231.439   5
  -6  -1   2 166.221 57.3238   1
  -6  -1   2 206.957 136.460   2
  -6  -1   3 6318.04 509.998   1
  -1   7   3 5366.76 857.532   5
   7  -6   3 5615.28 779.217   3
  -1   7   3 6422.30 733.426   3
   7  -6   4 86.4874 87.2122   3
  -1   7   4 141.125 107.708   3
   7  -6   4 59.1660 84.5778   2
  -1   7   4-0.22259 92.2237   5
  -6  -1   4 29.5191 35.8965   1
  -1   7   5 574.320 244.951   3
  -6  -1   5 514.866 192.938   1
   7  -6   5 733.147 316.428   3
   7  -6   6 216.269 111.738   3
  -1   7   6-19.5528 99.4995   3
  -6  -1   6 103.808 64.5846   1
  -6  -1   7 396.199 230.762   1
   7  -6   7 626.634 302.717   3
  -6  -1   8 113.249 116.011   1
  -1   7   8-27.2328 103.141   1
   7  -6   8 230.627 197.755   3
   7  -6   9 152.219 179.699   3
  -6  -1   9 51.9107 122.227   1
  -1   7   9 10.5065 167.367   1
  -1   7  10 202.869 202.675   1
  -6  -1  10 0.28812 83.2462   1
  -1   7  11-0.38489 123.802   1
  -6  -1  11 0.33471 152.476   1
  -1   7  12-0.42333 141.481   1
  -6  -1  12 0.38037 236.391   1
  -6  -1  13-31.2584 89.3186   1
   8  -6 -12 27.7529 246.120   2
   8  -6 -11 309.931 490.505   2
  -6  -2 -11 46.5276 118.913   2
  -6  -2 -10-80.6382 146.546   2
   8  -6 -10 346.574 400.802   2
   8  -6  -9-72.1618 160.740   2
  -6  -2  -9-74.2246 155.882   2
  -6  -2  -8 207.913 186.260   2
   8  -6  -8-468.169 341.633   2
  -6  -2  -7-187.017 159.581   2
   8  -6  -7-63.2819 203.585   2
   8  -6  -6 1463.67 633.991   2
  -6  -2  -6 1752.36 503.359   2
  -6  -2  -5 1086.20 382.594   2
   8  -6  -5 1031.73 501.007   2
  -6  -2  -4-68.4009 109.814   2
   8  -6  -4 344.115 261.453   2
   8  -6  -3 259.589 89.0542   2
  -6  -2  -3 327.226 139.306   2
   8  -6  -3 597.890 271.418   5
  -6  -2  -3 465.677 233.831   5
  -6  -2  -2 3171.53 427.276   2
   8  -6  -2 2873.68 549.061   2
  -2   8  -2 4180.59 883.129   5
  -2   8  -2 3763.53 679.293   4
  -6  -2  -2 2569.07 478.250   5
  -2   8  -1 1243.78 364.681   5
   8  -6  -1 1498.98 359.137   2
  -6  -2  -1 1442.48 328.331   5
  -2   8  -1 467.776 245.164   4
   8  -6   0 5634.93 632.726   2
  -2   8   0 5608.87 878.719   5
  -6  -2   0 5391.82 511.498   5
  -6  -2   1 11118.8 966.069   2
  -2   8   1 11199.0 1236.71   5
   8  -6   1 11313.7 883.398   2
  -6  -2   2 7887.14 922.925   2
  -2   8   2 7911.39 1062.09   5
  -2   8   3 462.365 194.075   5
  -6  -2   3 924.201 182.180   1
   8  -6   4-77.8312 96.8435   2
  -6  -2   4 23.7443 36.0280   1
  -2   8   4 97.5332 109.606   5
   8  -6   5 572.591 260.589   2
  -6  -2   5 613.701 179.079   1
   8  -6   5 940.761 321.725   3
  -6  -2   6-27.2894 92.7004   1
   8  -6   6-147.715 205.514   3
   8  -6   7-331.895 200.803   3
  -6  -2   7-14.1582 25.6753   1
   8  -6   8 52.0090 174.831   3
  -6  -2   8 42.6072 112.095   1
  -2   8   9 88.5059 224.230   1
  -6  -2   9 1.64019 27.3280   1
   8  -6   9-0.20722 44.0870   3
  -2   8  10 10.9784 202.650   1
  -6  -2  10 0.31392 152.608   1
  -6  -2  11 105.298 149.407   1
  -2   8  11 0.39176 95.4601   1
  -6  -2  12-154.771 191.498   1
  -2   8  12 91.5809 296.618   1
  -6  -2  13 162.325 205.444   1
   9  -6 -12 24.7436 195.284   2
   9  -6 -11-0.59192 257.532   2
   9  -6 -10 300.120 550.069   2
  -6  -3 -10 333.843 389.983   2
  -6  -3  -9 596.897 409.417   2
   9  -6  -9-480.109 372.231   2
   9  -6  -8 146.064 308.802   2
  -6  -3  -8-45.5998 70.6757   2
   9  -6  -7-147.889 184.674   2
  -6  -3  -7-49.3628 60.9928   2
   9  -6  -6 495.279 277.738   2
  -6  -3  -6 528.752 300.301   2
   9  -6  -5 466.055 345.822   2
  -6  -3  -5 497.376 246.545   2
  -6  -3  -4 480.681 84.7204   3
   9  -6  -4 1108.38 458.109   2
  -6  -3  -4 1147.87 352.963   2
  -6  -3  -3 6337.90 740.343   2
  -3   9  -3 5906.60 1122.16   4
   9  -6  -3 5338.40 882.769   2
   9  -6  -3 5002.84 740.139   5
  -6  -3  -2 10561.7 923.521   2
   9  -6  -2 8249.75 972.047   2
  -6  -3  -2 8390.86 940.931   5
  -3   9  -2 11306.6 1602.85   5
  -3   9  -1 6560.23 1057.01   5
   9  -6  -1 5658.59 704.813   2
  -6  -3  -1 5557.33 717.049   5
   9  -6   0 8192.20 775.683   2
  -3   9   0 8902.03 1184.66   5
  -3   9   1 4853.28 868.558   5
   9  -6   1 4331.31 515.269   2
  -3   9   2 333.286 175.070   5
   9  -6   2 254.761 109.811   2
  -3   9   3 1090.79 424.958   5
   9  -6   4 2896.54 507.777   2
  -3   9   4 5754.55 1114.14   5
   9  -6   5 2133.72 481.727   2
  -3   9   5 2867.65 773.135   5
  -6  -3   5 2832.35 493.398   1
  -6  -3   6 335.954 181.499   1
  -6  -3   7 359.332 244.738   1
  -6  -3   8 373.090 265.000   1
  -3   9   9 23.2228 67.2988   1
  -6  -3   9-208.653 191.486   1
  -6  -3  10 128.273 139.618   1
  -3   9  10-0.36300 208.647   1
  -3   9  11-0.40162 294.395   1
  -6  -3  11 844.335 432.933   1
  -3   9  12 10.2093 256.273   1
  -6  -3  12 186.607 214.723   1
  10  -6 -11-0.61311 213.878   2
  10  -6 -10-152.326 223.122   2
  -6  -4 -10-451.193 345.425   2
  10  -6  -9 0.50249 282.330   2
  -6  -4  -9 90.2549 91.2914   2
  10  -6  -8-6.89510 152.816   2
  -6  -4  -8 266.170 286.835   2
  10  -6  -7 0.41261 30.0122   2
  -6  -4  -7 348.467 280.859   2
  10  -6  -6-65.6824 149.933   2
  -6  -4  -6 152.819 187.725   2
  -6  -4  -5 330.831 208.397   2
  10  -6  -5 391.378 377.395   2
  -6  -4  -4 874.721 161.317   3
  10  -6  -4 917.169 337.897   5
  -6  -4  -4 1270.46 380.177   2
  10  -6  -4 1559.97 558.658   2
  -6  -4  -3 968.620 299.078   2
  10  -6  -3 589.768 268.290   2
  -4  10  -3 120.132 124.820   4
  10  -6  -2 1901.17 481.019   2
  -4  10  -2 2344.51 803.339   5
  -6  -4  -2 2033.89 508.568   5
  -6  -4  -2 1747.34 415.634   2
  -6  -4  -1 8623.14 999.421   5
  10  -6  -1 8629.57 918.227   2
  -4  10  -1 9514.26 1408.76   5
  -4  10  -1 5674.75 1165.82   4
  10  -6   0 4491.13 574.391   2
  -4  10   0 4009.98 769.760   5
  10  -6   1 0.85174 35.2504   2
  -4  10   1 115.429 212.703   5
  10  -6   2 295.176 127.877   2
  -4  10   2 423.321 303.737   5
  10  -6   3 95.5007 66.5888   2
  10  -6   3 56.4680 46.6911   2
  -4  10   3 216.966 190.531   5
  10  -6   4-42.6814 74.6247   2
  -4  10   4-391.433 270.256   5
  10  -6   5 88.4549 152.367   2
  -4  10   5 431.771 282.846   5
  -4  10  10-0.37838 180.712   1
  -4  10  11-0.41927 94.2730   1
  11  -6 -11 47.2545 133.189   2
  11  -6 -10 97.6546 440.379   2
  11  -6  -9-1.57416 386.937   2
  -6  -5  -9-115.709 220.421   2
  11  -6  -8 120.480 183.291   2
  -6  -5  -8 17.2951 113.571   2
  -6  -5  -7 271.887 218.530   2
  11  -6  -7-427.450 382.601   2
  11  -6  -6-1.55640 186.071   2
  -6  -5  -6-142.852 176.140   2
  -6  -5  -5 107.712 108.230   2
  11  -6  -5 72.1774 146.251   2
  -6  -5  -4 17.0949 37.1678   3
  -6  -5  -4 149.300 157.716   2
  11  -6  -4 81.1507 185.187   2
  -5  11  -3 347.274 326.579   4
  -6  -5  -3 1493.43 425.218   2
  -5  11  -3 1999.68 804.302   5
  11  -6  -3 1346.22 446.531   2
  -5  11  -2 3902.72 1059.13   5
  11  -6  -2 3169.39 634.817   2
  -5  11  -2 1253.46 668.257   4
  -6  -5  -2 2779.46 592.744   2
  -6  -5  -1 21.5016 127.522   5
  -5  11  -1 282.614 144.758   5
  11  -6  -1 83.6047 145.623   2
  11  -6   0 413.032 190.153   2
  -5  11   0 146.968 124.264   5
  -5  11   1-200.804 247.162   5
  11  -6   1 173.055 108.533   2
  -5  11   2 174.217 63.1031   5
  11  -6   2 259.925 113.635   2
  11  -6   3 277.375 79.3167   2
  -5  11   3 189.419 66.0527   5
  11  -6   3 410.663 99.9009   2
  11  -6   4 625.655 145.754   2
  -5  11   4 949.750 460.182   5
  11  -6   4 680.139 155.319   2
  -5  11   5 522.956 411.807   5
  -5  11  11 0.43051 144.258   1
  12  -6 -11-411.759 401.273   2
  12  -6 -10-302.871 328.737   2
  12  -6  -9 175.649 458.603   2
  12  -6  -8-425.319 353.502   2
  -6  -6  -8 55.9917 208.706   2
  12  -6  -7 284.903 288.396   2
  -6  -6  -7 249.324 223.121   2
  -6  -6  -6 322.345 232.475   2
  12  -6  -6-168.382 293.272   2
  -6  -6  -5 1481.33 493.070   2
  -6  12  -5 739.787 488.454   4
  12  -6  -5 1182.51 546.752   2
  12  -6  -4 1938.95 641.833   2
  -6  -6  -4 1111.14 260.216   3
  -6  -6  -4 1841.49 540.419   2
  -6  12  -4 2348.96 889.591   4
  12  -6  -3 9991.69 1299.79   2
  -6  -6  -3 12144.4 1350.60   2
  -6  -6  -3 8718.13 829.267   3
  12  -6  -2 9291.84 1112.27   2
  -6  -6  -2 10967.0 1255.44   2
  -6  12  -1 456.191 222.531   5
  12  -6  -1 892.214 272.158   2
  12  -6   0 652.944 215.636   2
  -6  12   0-112.534 334.332   5
  -6  12   1 414.505 245.613   5
  12  -6   1 155.013 67.4393   2
  -6  12   2-4.43612 114.345   5
  -6  12   3 113.866 98.3077   5
  -6  12   4 1084.88 539.903   5
  -6  12   5 1110.15 504.593   5
  -6  12   6 428.470 336.056   5
  13  -6 -10 52.9056 140.801   2
  13  -6  -9-192.589 257.049   2
  13  -6  -8 0.53049 192.075   2
  -6  -7  -7-361.887 260.790   2
  13  -6  -7 7.16862 163.049   2
  -6  -7  -6-58.7858 193.360   2
  -7  13  -6 25.7863 255.175   4
  13  -6  -6-265.508 257.914   2
  -6  -7  -5 162.100 219.519   2
  -7  13  -5 19.0868 282.351   4
  13  -6  -5 105.569 259.759   2
  -6  -7  -4 124.340 80.2444   3
  -7  13  -4 190.548 455.188   4
  -7  13  -4 1007.11 711.063   5
  -6  -7  -4 717.537 370.853   2
  13  -6  -4 363.934 237.813   2
  -7  13  -3-103.882 197.891   4
  -7  13  -3 139.964 331.481   5
  13  -6  -3-176.693 194.078   2
  -6  -7  -3 37.2323 91.8197   2
  -6  -7  -3-121.761 118.849   3
  13  -6  -2-17.5054 64.9139   2
  -7  13  -2 76.3556 336.514   5
  -6  -7  -2 151.090 207.660   2
  -7  13  -1-33.1757 397.740   5
  13  -6  -1 342.248 172.276   2
  13  -6   0 59.8981 54.0571   2
  -7  13   0-162.496 209.587   5
  -7  13   1 394.940 435.523   5
  -7  13   2 45.2050 76.5079   5
  -7  13   3 136.566 141.125   5
  -7  13   4 269.218 164.899   5
  -7  13   5 11.6775 302.010   5
  -7  13   6 194.334 302.672   5
  12  -5 -11 64.5627 397.927   2
  12  -5 -10 6.76785 192.200   2
  12  -5  -9-256.508 290.928   2
  -5  -7  -9 321.092 323.231   2
  12  -5  -8 318.992 308.388   2
  -5  -7  -8-127.744 83.1699   2
  -5  -7  -7 18.7017 159.601   2
  12  -5  -7 234.970 250.801   2
  -5  -7  -6-311.807 250.312   2
  12  -5  -6-8.44276 79.7892   2
  12  -5  -5-120.332 284.414   2
  -5  -7  -5 114.786 102.300   2
  -5  -7  -4 1103.26 265.420   3
  -5  -7  -4 1350.86 482.052   2
  12  -5  -4 1254.71 499.251   2
  -7  12  -4 1111.23 631.523   4
  -5  -7  -3 3446.15 764.460   2
  12  -5  -3 2914.91 675.749   2
  -7  12  -3 1467.07 836.438   4
  -5  -7  -3 2633.01 483.565   3
  12  -5  -2 2893.30 585.600   2
  -7  12  -2 1857.31 733.078   4
  -5  -7  -2 3464.83 718.750   2
  12  -5  -1 2250.73 409.937   2
  -7  12  -1 2713.34 811.987   5
  -7  12   0 1186.61 434.314   5
  -7  12   1 2423.15 730.227   5
  -7  12   2-276.476 251.652   5
  -7  12   3 386.063 284.644   5
  -7  12   4 144.780 244.463   5
  -7  12   5-209.498 278.737   5
  -7  12   6 10.6533 88.0012   5
  11  -4 -11-268.084 319.072   2
  -4  -7 -11-133.605 204.878   2
  11  -4 -10 6.49285 218.923   2
  -4  -7 -10 388.330 434.612   2
  11  -4  -9 0.53840 203.075   2
  -4  -7  -9-363.931 313.941   2
  11  -4  -8-501.103 378.023   2
  -4  -7  -8 156.340 150.625   2
  -4  -7  -7-206.200 273.629   2
  11  -4  -7 54.4411 68.6961   2
  -4  -7  -6-77.9693 209.655   2
  11  -4  -6-88.1026 170.011   2
  -4  -7  -5 1795.58 588.376   2
  11  -4  -5 1068.05 468.419   2
  -7  11  -4 4903.36 1202.20   4
  -4  -7  -4 2940.27 764.751   2
  11  -4  -4 3014.33 747.644   2
  -4  -7  -4 2342.75 421.690   3
  11  -4  -3 4166.33 753.363   2
  -4  -7  -3 4137.09 811.094   2
  -4  -7  -3 3853.04 587.931   3
  11  -4  -2 7356.19 895.660   2
  -4  -7  -2 6907.09 810.010   3
  -4  -7  -2 3593.16 343.853   4
  -4  -7  -2 9258.20 1175.51   2
  -7  11  -2 5547.36 1318.64   4
  11  -4  -1 9762.95 861.058   2
  -7  11  -1 13944.0 1858.72   5
  -7  11  -1 11328.2 1837.21   4
  -7  11   0 1610.26 379.860   5
  -7  11   1 677.060 290.446   5
  -7  11   2 2551.54 671.452   5
  -7  11   3 620.376 277.922   5
  -7  11   4-120.763 119.559   5
  -7  11   5 570.522 379.379   5
  -7  11  11 0.42473 154.128   1
  -3  -7 -12-458.669 408.262   2
  10  -3 -11 163.949 469.850   2
  -3  -7 -11-4.03445 275.615   2
  10  -3 -10 0.56730 361.573   2
  -3  -7 -10 141.828 210.844   2
  -3  -7  -9-212.230 161.061   2
  10  -3  -9 240.482 385.201   2
  10  -3  -8 94.3303 189.935   2
  -3  -7  -8-441.029 329.687   2
  -3  -7  -7-61.3498 199.354   2
  10  -3  -7-2.05676 134.182   2
  -3  -7  -6 1.65426 225.327   2
  10  -3  -6 86.1778 156.803   2
  -3  -7  -5 1486.78 531.521   2
  10  -3  -5 1360.33 564.574   2
  10  -3  -4 2552.15 657.462   2
  -7  10  -4 1809.64 761.259   4
  -3  -7  -4 2665.65 675.383   2
  -3  -7  -4 2032.31 403.275   3
  10  -3  -3-60.0884 175.709   2
  -3  -7  -3 77.4940 16.9699   3
  -3  -7  -3 171.773 84.4138   2
  -3  -7  -2 1156.12 345.521   3
  10  -3  -2 743.239 262.252   2
  -3  -7  -2 86.0127 67.8270   4
  -3  -7  -2 928.781 325.513   2
  -7  10  -2 1516.94 681.880   5
  -7  10  -1 3378.20 915.191   5
  -7  10  -1 1591.31 767.725   4
  -7  10   0 18.1927 22.4289   5
  -7  10   1 503.457 199.209   5
  -7  10   2 1859.70 535.188   5
  -7  10   3 178.774 122.506   5
  -7  10   4 2254.24 686.352   5
  -7  10   5-7.03080 115.537   5
  -7  10  11 0.40388 96.4453   1
  -2  -7 -12-531.829 450.855   2
   9  -2 -11-0.60534 76.2644   2
  -2  -7 -11 0.59537 278.419   2
  -2  -7 -10 9.71022 213.724   2
   9  -2 -10 92.8879 311.259   2
   9  -2  -9 75.0610 118.950   2
  -2  -7  -9 137.343 195.546   2
   9  -2  -8-166.985 326.497   2
  -2  -7  -8-103.369 110.291   2
  -2  -7  -7 255.732 236.641   2
   9  -2  -7 228.416 242.289   2
  -2  -7  -6 192.276 128.460   2
   9  -2  -6-95.6984 131.915   2
  -2  -7  -5 580.162 299.170   2
   9  -2  -5 691.774 391.052   2
   9  -2  -5 434.316 155.316   5
  -2  -7  -4-90.4428 179.512   2
   9  -2  -4 53.6351 38.8117   5
  -2  -7  -4 45.6574 7.28046   3
   9  -2  -4 18.4079 71.4891   2
  -2  -7  -3 5950.70 914.239   2
   9  -2  -3 6080.22 893.449   2
  -2  -7  -3 5630.29 706.365   3
  -7   9  -3 3739.15 916.179   4
  -2  -7  -2 851.159 259.088   3
  -7   9  -2 815.143 481.650   4
   9  -2  -2 862.074 274.201   2
  -2  -7  -2 383.625 81.9577   2
  -2  -7  -1 248.309 116.540   3
  -7   9  -1 184.890 72.8670   4
  -7   9   0 2784.75 661.222   5
  -7   9   1 1874.51 529.743   5
  -7   9   2 491.950 297.297   5
  -7   9   3-9.70517 52.6175   5
  -7   9   4 1462.84 492.051   5
  -7   9   5 2137.78 664.855   5
  -7   9  11 0.38537 174.055   1
  -1  -7 -12 28.2570 57.4475   2
  -1  -7 -11-151.292 229.714   2
  -1  -7 -10-5.84403 138.137   2
   8  -1  -9-166.189 214.769   2
  -1  -7  -9 93.3887 315.462   2
   8  -1  -8 139.395 152.822   2
  -1  -7  -8 528.605 391.962   2
  -1  -7  -7 196.142 261.040   2
   8  -1  -7 763.425 452.287   2
   8  -1  -6 345.648 191.648   5
  -1  -7  -6 432.377 254.852   2
   8  -1  -6 190.895 171.822   2
  -1  -7  -5 963.920 376.235   2
   8  -1  -5 521.833 264.957   2
   8  -1  -5 245.037 131.377   5
   8  -1  -4 700.397 170.491   5
  -1  -7  -4 808.854 399.234   2
   8  -1  -4 613.657 233.413   2
  -1  -7  -3 4006.73 751.551   2
  -7   8  -3 3189.80 788.156   4
  -1  -7  -3 3760.78 605.580   3
  -1  -7  -2 13918.6 1321.56   2
  -7   8  -2 15677.3 1738.72   4
  -1  -7  -2 14028.3 1126.16   3
  -1  -7  -1 18494.6 1294.16   3
  -1  -7  -1 15637.4 1010.32   4
  -7   8  -1 12051.8 1520.79   4
   8  -1  -1 17864.5 1298.70   4
  -7   8  -1 22670.0 1933.42   5
  -7   8   0 21307.8 1712.23   5
  -7   8   1 23118.2 1717.16   5
  -7   8   2 7079.54 981.466   5
  -7   8   3 115.858 148.694   5
  -7   8   4 276.502 256.682   5
  -7   8   5-198.421 275.772   5
   8  -1   6 39.6513 96.1134   2
  -7   8  10 457.887 301.488   1
  -7   8  11 0.36860 164.793   1
  -7   8  12 93.6011 149.644   1
   0  -7 -12-514.493 442.423   2
   0  -7 -11-496.685 411.610   2
   0  -7 -10 107.997 282.384   2
   0  -7  -9 107.506 292.235   2
   0  -7  -8 259.599 278.426   2
   0  -7  -7-85.7752 153.882   2
   7   0  -7 281.924 235.918   2
   0  -7  -6-292.418 321.814   2
   7   0  -6-315.725 252.990   2
   0  -7  -5 342.850 234.020   2
   7   0  -4 685.321 170.494   5
   0  -7  -4 1147.14 435.960   2
   0  -7  -3 368.169 166.794   3
   0  -7  -3 318.870 239.346   2
   0  -7  -2 1600.32 361.970   3
  -7   7  -2 818.252 475.629   4
   0  -7  -2 1479.24 400.740   2
   0  -7  -1 2613.57 470.899   3
   7   0  -1 2520.78 425.383   4
  -7   7  -1 1107.25 443.568   4
  -7   7   0 4260.95 686.598   5
   0  -7   0 3710.72 584.764   3
  -7   7   1 2373.81 466.091   5
  -7   7   2 1937.61 447.896   5
  -7   7   3 85.8365 172.830   5
  -7   7   4 592.726 300.672   5
   7   0   5 347.394 137.532   2
   7   0   6-109.862 205.742   1
   7   0   6 139.294 188.866   2
   7   0   7 388.785 306.278   1
   7   0   8-167.204 171.315   1
   7   0   9 27.4397 73.9229   1
  -7   7  10 0.32088 276.492   1
   7   0  10-117.084 162.285   1
  -7   7  11-216.017 213.645   1
   7   0  11 0.43101 172.666   1
  -7   7  12 176.520 202.434   1
   1  -7 -12 501.971 431.655   2
   1  -7 -11-188.624 250.244   2
   1  -7 -10 190.537 295.577   2
   1  -7  -9 272.346 316.784   2
   1  -7  -8 316.560 378.279   2
   1  -7  -7 211.434 259.341   2
   1  -7  -6 157.403 167.811   2
   1  -7  -5 394.361 332.005   2
   1  -7  -4 115.678 55.1517   2
   1  -7  -3 6383.58 895.175   2
   1  -7  -3 6651.02 821.417   3
   1  -7  -2 229.162 182.391   3
  -7   6  -2-1.13252 57.0728   4
   1  -7  -2 342.061 221.154   2
   1  -7  -1 376.371 187.485   3
  -7   6  -1-81.1704 87.9082   4
   6   1  -1 282.848 110.496   4
  -7   6   0 12540.1 1090.45   5
   1  -7   0 12797.5 1099.81   3
  -7   6   1 20330.9 1339.21   5
   1  -7   1 19840.7 1404.67   3
  -7   6   2 227.512 184.827   5
  -7   6   2 246.198 182.410   2
  -7   6   3 741.307 246.546   5
  -7   6   4 2212.23 539.143   5
   6   1   4 2637.65 489.630   1
   6   1   5 574.282 231.925   1
   6   1   5 437.916 197.121   2
   6   1   6-20.0286 108.305   1
   6   1   6-47.0409 71.0081   2
   6   1   7-40.4871 102.112   1
   6   1   8 574.201 329.690   1
   6   1   9 34.5260 134.689   1
  -7   6  10 17.6088 81.3651   1
   6   1  10-47.8339 102.914   1
   6   1  11-322.152 282.220   1
  -7   6  11 0.34574 80.8405   1
  -7   6  12 0.38562 190.470   1
   6   1  12-335.876 304.983   1
   2  -7 -12-311.168 336.063   2
   2  -7 -11-277.283 299.765   2
   2  -7 -10 144.658 204.904   2
   2  -7  -9-79.7158 239.839   2
   2  -7  -8 695.173 471.559   2
   2  -7  -7 316.358 310.468   2
   2  -7  -6 621.149 413.107   2
   2  -7  -5-137.377 269.889   2
   2  -7  -4 5.61871 131.462   2
   2  -7  -3 7412.63 995.563   2
  -7   5  -3 6861.89 783.757   3
   5   2  -2 11298.0 672.729   5
   2  -7  -2 11794.6 1157.77   2
  -7   5  -2 12397.1 1063.36   3
  -7   5  -2 12707.2 1324.78   4
   2  -7  -2 12002.2 1128.44   3
   2  -7  -1 4776.98 687.242   3
   2  -7  -1 3030.18 693.264   4
   5   2  -1 4959.61 392.106   5
  -7   5  -1 4652.08 674.057   3
  -7   5   0 21763.0 1294.94   5
   2  -7   0 21470.5 1424.68   3
   2  -7   1 21313.8 1473.33   3
  -7   5   1 21373.7 1247.45   5
   2  -7   2 2296.68 520.144   3
  -7   5   2 1972.95 403.987   5
  -7   5   2 1828.11 414.896   2
   5   2   2 1996.09 299.417   1
  -7   5   3 1943.98 423.283   5
   5   2   3 2053.88 382.495   1
   5   2   4 4243.85 594.490   1
   5   2   5 2538.22 516.399   1
   5   2   5 2250.71 473.881   2
   5   2   6 3861.33 698.873   1
   5   2   7 1109.96 402.415   1
   5   2   8 126.629 124.419   1
  -7   5   9 151.623 131.605   1
   5   2   9 27.8820 113.426   1
  -7   5  10 46.3591 90.8723   1
   5   2  10-66.3420 119.233   1
  -7   5  11 1.01045 92.0316   1
   5   2  11 0.41514 196.730   1
  -7   5  12-123.375 165.170   1
   5   2  12 317.988 296.318   1
   3  -7 -12 11.5554 57.1106   2
   3  -7 -11-379.738 348.747   2
   3  -7 -10-66.6130 164.126   2
   3  -7  -9-266.606 259.607   2
   3  -7  -8-239.984 338.986   2
   3  -7  -7-582.391 412.008   2
   3  -7  -6 21.5102 226.769   2
   3  -7  -5-218.998 240.298   2
   3  -7  -4 4014.19 764.126   2
  -7   4  -4 3238.28 478.305   3
  -7   4  -3 17155.3 1161.57   3
   3  -7  -3 19648.9 1618.30   2
   3  -7  -2 12776.7 1216.87   2
   4   3  -2 13227.4 887.417   5
   3  -7  -2 13707.7 1237.92   3
  -7   4  -2 12415.0 1004.85   3
   3  -7  -1 2106.00 468.502   3
   4   3  -1 1947.74 315.926   5
   3  -7  -1 2285.17 526.635   4
  -7   4  -1 1640.03 366.448   3
  -7   4   0 4051.58 473.215   5
   4   3   0 4289.23 482.724   5
   3  -7   0 4241.82 672.078   4
   3  -7   0 3985.82 591.095   3
   4   3   1 1422.74 175.363   1
   3  -7   1 1681.40 384.301   3
  -7   4   1 1336.10 276.206   5
  -7   4   1 1183.87 274.058   2
   4   3   2 4210.03 424.557   1
  -7   4   2 4196.44 501.312   5
  -7   4   2 3812.29 566.982   2
   3  -7   2 4607.09 724.558   3
   3  -7   3 1082.43 395.543   3
   4   3   3 1206.52 264.866   1
  -7   4   3 1080.86 331.173   2
   4   3   4 3413.49 513.722   1
   3  -7   4 3553.23 712.276   3
   4   3   5 1103.41 317.505   1
   4   3   6-116.253 162.986   1
   4   3   7 189.134 136.592   1
   4   3   8 83.9198 235.899   1
  -7   4   8 471.406 308.715   1
   4   3   9 888.252 402.054   1
  -7   4   9 57.3658 174.980   1
  -7   4  10-466.783 283.473   1
   4   3  10-146.722 173.792   1
   3  -7  11 260.788 298.639   3
   4   3  11 1.60964 145.047   1
  -7   4  11 0.33103 154.384   1
   3  -7  12-0.33561 131.460   3
   4   3  12 59.8336 396.360   1
  -7   4  12-158.490 184.459   1
  -7   4  13 0.41116 185.703   1
   4  -7 -12 288.173 320.252   2
   4  -7 -11 429.623 529.729   2
   4  -7 -10-137.007 198.877   2
   4  -7  -9 170.891 179.067   2
   4  -7  -8 232.321 261.304   2
   4  -7  -7 135.022 104.363   2
   4  -7  -6-350.649 432.953   2
   4  -7  -5 5.04435 90.0838   2
   3   4  -4 3864.31 517.296   1
   4  -7  -4 2975.53 686.146   2
  -7   3  -4 3058.08 421.999   3
   4  -7  -3 18607.7 1577.79   2
   3   4  -3 17595.0 918.012   1
  -7   3  -3 16188.6 1027.06   3
   3   4  -2 13518.8 629.684   1
   4  -7  -2 13185.1 1227.87   2
  -7   3  -2 12092.9 944.823   3
   3   4  -2 13955.3 1047.64   5
   3   4  -1 1537.90 284.142   5
   3   4  -1 1847.79 169.680   1
   4  -7  -1 1726.70 356.101   2
   4  -7  -1 2032.61 460.283   3
   3   4   0 4361.05 564.872   5
   4  -7   0 3436.22 629.384   4
   4  -7   0 3999.46 635.799   3
   4  -7   1 1030.09 192.626   3
  -7   3   1 1376.70 283.617   2
   3   4   1 1281.81 294.477   5
  -7   3   1 1315.67 229.590   5
   3   4   2 3634.47 409.449   1
   4  -7   2 3740.44 613.804   3
  -7   3   2 3848.58 563.390   2
   4  -7   3 1185.02 381.583   3
  -7   3   3 1081.74 331.471   2
   3   4   3 1389.50 295.439   1
   4  -7   4 3476.06 678.992   3
   3   4   4 3185.86 497.533   1
   3   4   5 1243.19 349.269   1
   4  -7   5 989.976 410.735   3
   3   4   6-156.455 155.002   1
   4  -7   6 238.662 221.736   3
   4  -7   7 594.548 269.009   3
   3   4   7 77.0968 59.8466   1
   3   4   8-37.4562 139.284   1
   4  -7   8 242.035 258.589   3
  -7   3   8 148.192 170.347   1
   4  -7   9 49.6233 175.967   3
  -7   3   9 139.128 170.543   1
   3   4  10-78.0780 125.373   1
  -7   3  10 6.89684 85.6189   1
   4  -7  10 0.28179 131.424   3
   4  -7  11 20.9951 158.158   3
  -7   3  11-305.843 240.464   1
   3   4  11 0.38680 202.887   1
   3   4  12 2.67606 407.951   1
  -7   3  12-63.2776 116.310   1
  -7   3  13 62.3351 121.791   1
   5  -7 -12-0.60793 70.6908   2
   5  -7 -11 168.788 358.934   2
   5  -7 -10 177.408 277.125   2
   5  -7  -9-44.0883 252.074   2
   5  -7  -8 19.8622 46.2600   2
   5  -7  -7 749.615 438.750   2
   5  -7  -6 82.3911 224.147   2
   5  -7  -5-84.8209 230.326   2
  -7   2  -4 67.0646 72.2609   3
   2   5  -4 54.5589 73.8373   1
   5  -7  -4 135.941 173.659   2
  -7   2  -3 6239.12 731.781   1
   2   5  -3 5979.25 564.750   1
   5  -7  -3 7354.39 972.117   2
  -7   2  -3 6344.74 603.776   3
  -7   2  -2 13193.1 998.397   1
   2   5  -2 13491.4 1156.49   5
   5  -7  -2 12700.7 1215.57   2
   2   5  -2 11769.8 707.921   1
   2   5  -1 5413.57 701.238   5
   5  -7  -1 5102.37 729.995   2
  -7   2   0 20090.6 766.820   2
   2   5   0 21158.5 1371.58   5
   5  -7   0 22716.0 1618.62   3
  -7   2   1 20785.6 1082.88   2
   2   5   1 23542.7 1460.51   5
   5  -7   1 20646.1 1528.80   3
  -7   2   2 1989.54 394.363   2
   5  -7   2 2297.63 511.278   3
   2   5   2 1984.48 442.080   5
   5  -7   3 1746.69 381.716   3
  -7   2   3 1810.24 444.623   2
   5  -7   4 4141.08 719.366   3
   2   5   5 2423.89 511.557   1
   5  -7   5 2241.28 523.986   3
   2   5   6 3748.57 674.533   1
   5  -7   6 3371.79 695.508   3
   2   5   7 811.871 370.566   1
   5  -7   7 1182.69 421.306   3
  -7   2   7 1158.49 409.035   1
   5  -7   8 156.637 197.658   3
   2   5   8-3.44123 41.5946   1
  -7   2   8-272.761 185.943   1
  -7   2   9 9.17999 151.589   1
   2   5   9 26.6764 39.8052   1
   5  -7   9 164.770 235.404   3
   5  -7  10 160.524 192.437   3
   2   5  10-184.812 193.188   1
  -7   2  10-100.613 128.751   1
   2   5  11 0.38572 201.016   1
   5  -7  11 87.0047 120.007   3
  -7   2  11 93.9594 132.864   1
  -7   2  12-71.7448 123.003   1
   2   5  12 0.43181 122.544   1
  -7   2  13 2.41346 109.040   1
   6  -7 -12-275.764 315.893   2
   6  -7 -11-0.56200 367.660   2
   6  -7 -10 12.6604 287.698   2
   6  -7  -9 65.9170 163.496   2
   6  -7  -8 193.393 234.737   2
  -7   1  -7 234.912 197.004   2
   6  -7  -7 500.777 350.487   2
  -7   1  -6 200.411 158.233   2
   6  -7  -6-306.707 334.544   2
   6  -7  -5 194.179 198.427   2
  -7   1  -5 299.238 116.191   2
   1   6  -4 35.6919 52.7417   1
  -7   1  -4 39.1398 44.5637   3
   6  -7  -4 172.675 216.705   2
  -7   1  -3 6177.02 686.713   1
   6  -7  -3 5836.43 846.500   2
  -7   1  -3 5149.62 512.445   3
   1   6  -3 5846.88 630.968   1
   6  -7  -2 185.299 82.5178   2
   1   6  -2 248.296 196.202   5
  -7   1  -2 235.218 132.075   1
  -7   1  -1-52.4068 140.352   4
  -7   1  -1 451.084 149.209   1
   6  -7  -1 284.828 235.674   2
   1   6  -1 354.462 160.110   5
  -7   1   0 12834.6 655.718   2
   1   6   0 12408.4 1146.60   5
  -7   1   1 19365.3 1107.06   2
   1   6   1 19970.2 1472.30   5
   6  -7   1 21660.0 1610.06   3
   6  -7   2 301.591 218.899   3
   1   6   2 253.769 101.733   5
  -7   1   2 243.905 160.321   2
   1   6   3 455.318 205.301   5
   6  -7   3 337.462 204.522   3
  -7   1   3 629.949 257.166   2
   6  -7   4 2530.87 555.153   3
   6  -7   5 291.846 117.645   3
  -7   1   6 113.742 99.9295   1
   6  -7   6-70.6829 213.522   3
   1   6   6-178.697 166.189   1
  -7   1   7 177.192 131.233   1
   1   6   7 296.715 232.019   1
   6  -7   7 42.2921 110.548   3
   1   6   8 252.640 254.125   1
   6  -7   8 474.754 244.080   3
  -7   1   8 239.364 193.056   1
   6  -7   9 113.098 140.754   3
  -7   1   9-223.211 178.817   1
   1   6   9-395.745 267.362   1
   6  -7  10-48.5334 84.7041   3
  -7   1  10-70.3498 107.663   1
   1   6  10-313.346 251.576   1
  -7   1  11-96.2140 134.017   1
   1   6  11 1.16450 78.7428   1
   1   6  12 1.72472 298.088   1
  -7   1  12-408.648 293.582   1
  -7   1  13 2.45852 123.689   1
   7  -7 -12-398.724 381.843   2
   7  -7 -11-188.354 252.548   2
  -7   0 -10 286.997 301.279   2
   7  -7 -10-290.953 298.106   2
  -7   0  -9 54.5019 83.4829   2
   7  -7  -9-569.563 396.509   2
  -7   0  -8 281.923 148.805   2
   7  -7  -8 311.358 315.660   2
   7  -7  -7-140.097 259.096   2
  -7   0  -7-115.935 189.611   2
   7  -7  -6-253.779 291.541   2
  -7   0  -6 7.46988 87.0136   2
  -7   0  -5 391.774 189.315   2
   7  -7  -5 414.499 280.414   2
  -7   0  -4 407.308 92.2422   3
   7  -7  -4 600.907 304.474   2
  -7   0  -4 907.376 216.595   2
   7  -7  -3 359.422 204.460   2
   0   7  -3 349.216 189.969   1
  -7   0  -3 242.916 72.8746   2
  -7   0  -3 322.297 154.870   1
  -7   0  -2 1840.09 322.288   1
   7  -7  -2 2022.38 501.229   2
   0   7  -2 1098.94 316.912   4
   0   7  -2 1514.42 452.735   5
  -7   0  -1 2645.09 332.550   1
  -7   0  -1 2365.55 225.634   2
  -7   0  -1 2641.29 359.140   5
  -7   0  -1-119.655 126.432   4
   7  -7  -1 2677.57 505.819   2
   0   7  -1 2442.57 566.059   5
   0   7  -1 233.347 187.514   4
   0   7   0 3765.72 679.872   5
  -7   0   0 3478.32 408.907   2
   7  -7   0 3728.00 591.448   2
  -7   0   1 2704.66 449.139   2
   0   7   1 2737.45 599.842   5
  -7   0   2 2120.69 459.902   2
   0   7   2 1501.27 342.538   5
   7  -7   2 1172.01 361.915   3
   7  -7   3 383.298 189.489   3
   0   7   3 368.159 167.092   5
   7  -7   4 843.047 330.966   3
  -7   0   4 1061.62 261.375   1
   0   7   4 613.696 319.107   5
   7  -7   5 654.269 326.808   3
  -7   0   5 295.694 153.236   1
  -7   0   6-100.682 94.2987   1
   7  -7   6 187.774 175.815   3
   0   7   6 55.1808 89.1612   3
   7  -7   7 331.244 224.535   3
  -7   0   7 214.915 137.539   1
   0   7   7 2.67832 86.3612   1
   7  -7   8 44.8708 124.348   3
   0   7   8 281.247 336.671   1
  -7   0   8 175.632 140.868   1
   7  -7   9-57.2603 87.2841   3
  -7   0   9 6.93196 46.1069   1
   0   7   9 11.1911 145.764   1
  -7   0  10 183.790 248.607   1
   7  -7  10 0.46751 53.1669   3
   0   7  10 0.70285 48.9473   1
   0   7  11 113.968 161.432   1
  -7   0  11-265.229 224.026   1
   0   7  12 0.87061 135.574   1
  -7   0  12-261.362 239.516   1
  -7   0  13 10.6468 51.6285   1
   8  -7 -12-405.916 390.256   2
   8  -7 -11 293.661 318.741   2
  -7  -1 -10-236.926 249.762   2
   8  -7 -10-462.571 382.002   2
   8  -7  -9 61.8040 132.450   2
  -7  -1  -9 3.05474 170.963   2
  -7  -1  -8 165.623 183.256   2
   8  -7  -8 124.992 179.511   2
  -7  -1  -7 282.304 184.318   2
   8  -7  -7 1273.15 764.027   2
  -7  -1  -6 168.040 183.998   2
   8  -7  -6 651.391 395.717   2
  -7  -1  -5 751.749 284.516   2
   8  -7  -5 596.822 258.470   2
  -7  -1  -4 411.618 86.8097   3
   8  -7  -4 861.101 382.718   2
  -7  -1  -4 945.142 250.048   2
  -7  -1  -3 3698.32 528.535   1
  -7  -1  -3 4647.32 480.664   2
  -7  -1  -3 4109.68 732.751   5
   8  -7  -3 3967.44 750.835   2
  -7  -1  -2 14017.7 881.304   1
  -7  -1  -2 13333.2 1091.15   5
   8  -7  -2 13224.1 1249.83   2
  -7  -1  -2 15547.8 745.369   2
  -1   8  -2 16944.2 1737.07   5
  -7  -1  -1 18246.6 807.213   1
  -7  -1  -1 19089.8 1074.42   5
   8  -7  -1 17409.6 1332.66   2
  -1   8  -1 17981.4 1661.40   5
  -7  -1   0 19521.3 570.971   1
  -7  -1   0 18072.8 1072.46   2
  -1   8   0 20040.7 1665.90   5
   8  -7   0 18648.0 1301.04   2
   8  -7   1 24267.1 1498.41   2
  -7  -1   1 23394.6 1412.33   2
  -1   8   1 25565.6 1893.81   5
  -7  -1   2 7201.94 405.893   1
  -7  -1   2 7473.30 905.131   2
  -1   8   2 6473.63 970.787   5
  -7  -1   3 172.028 83.5247   1
   8  -7   3-50.1817 192.787   3
  -1   8   3 115.625 88.6049   5
  -7  -1   4 286.346 103.119   1
  -1   8   4 386.372 274.502   5
   8  -7   4-82.9550 201.366   3
   8  -7   5 2319.79 635.030   3
  -7  -1   5-24.8258 95.3140   1
   8  -7   6-21.0980 105.243   3
  -7  -1   6 132.135 86.5533   1
   8  -7   7 278.911 223.701   3
  -7  -1   7 126.396 50.9344   1
   8  -7   8 14.1810 93.1012   3
  -1   8   8 60.5316 174.726   1
  -7  -1   8 154.406 166.096   1
   8  -7   9 81.4695 64.4694   3
  -1   8   9 20.1160 125.551   1
  -7  -1  10 193.258 278.481   1
  -1   8  10 54.9306 350.126   1
  -1   8  11 180.582 205.942   1
  -7  -1  11 0.34701 53.8738   1
  -1   8  12 91.5795 153.591   1
  -7  -1  12-375.801 294.693   1
  -7  -1  13 139.894 191.414   1
   9  -7 -11 0.59839 147.960   2
   9  -7 -10 135.663 383.824   2
  -7  -2  -9-229.806 288.307   2
   9  -7  -9-554.232 402.796   2
  -7  -2  -8-74.7289 122.146   2
   9  -7  -8-128.731 284.012   2
  -7  -2  -7 11.1117 95.4713   2
   9  -7  -7 49.0570 205.435   2
   9  -7  -6 126.310 314.829   2
  -7  -2  -6 57.0322 100.491   2
  -7  -2  -5 734.177 296.388   2
   9  -7  -5 794.828 457.000   2
   9  -7  -4 282.790 211.181   2
  -7  -2  -4 129.269 151.827   2
   9  -7  -3 5527.02 912.953   2
  -2   9  -3 6513.17 1123.89   4
  -7  -2  -3 6088.89 628.008   2
  -7  -2  -2 796.425 278.490   5
   9  -7  -2 913.804 316.406   2
  -7  -2  -2 756.441 218.325   2
  -2   9  -2-3.76182 72.5475   4
  -2   9  -2 1342.33 538.712   5
   9  -7  -1 311.026 49.0130   2
  -2   9  -1 416.834 49.5107   5
  -7  -2  -1 395.319 186.885   5
  -7  -2   0 1915.49 369.977   2
   9  -7   0 2437.02 461.644   2
  -2   9   0 2179.39 523.368   5
  -7  -2   1 1745.55 407.237   2
  -2   9   1 2302.20 629.075   5
   9  -7   1 1653.70 353.927   2
  -2   9   2 170.330 95.3451   5
  -7  -2   2 616.504 264.900   2
  -7  -2   3 59.7918 38.4150   1
  -2   9   3-471.920 310.781   5
   9  -7   4 1038.62 315.697   2
  -2   9   4 2122.39 648.773   5
  -7  -2   4 1563.56 308.293   1
  -7  -2   5 2495.15 458.031   1
  -2   9   5 2229.58 671.920   5
  -7  -2   6 226.968 117.821   1
   9  -7   6 63.5303 112.599   3
   9  -7   7 296.555 225.122   3
  -7  -2   7 222.256 145.656   1
  -7  -2   8 19.0634 94.2557   1
   9  -7   8 20.2173 131.657   3
  -2   9   9 1317.26 549.612   1
  -7  -2   9 34.8964 93.8185   1
  -7  -2  10-296.543 239.933   1
  -2   9  10 0.37065 67.2508   1
  -2   9  11 0.40753 19.7621   1
  -7  -2  11 0.37573 56.8919   1
  -2   9  12-374.536 314.640   1
  10  -7 -11-240.777 295.235   2
  10  -7 -10-569.292 434.327   2
  10  -7  -9-150.197 213.479   2
  -7  -3  -8-139.529 197.416   2
  10  -7  -8-306.021 288.816   2
  -7  -3  -7-4.19470 155.131   2
  10  -7  -7 66.7566 105.616   2
  -7  -3  -6-68.1444 28.1806   2
  10  -7  -6-95.6997 120.456   2
  10  -7  -5 1147.67 474.784   2
  -7  -3  -5 1841.73 492.726   2
  -7  -3  -4 3078.20 539.220   2
  10  -7  -4 2537.26 668.633   2
  10  -7  -3-206.988 251.805   2
  -3  10  -3-346.288 578.941   5
  -7  -3  -3-4.55570 96.3738   2
  -3  10  -3-397.722 411.903   4
  10  -7  -2 550.269 173.010   2
  -7  -3  -2 431.059 114.621   4
  -7  -3  -2 1133.08 300.591   2
  -3  10  -2 623.156 217.467   5
  -7  -3  -2 821.911 320.551   5
  10  -7  -1 2734.91 513.433   2
  -7  -3  -1 2522.59 500.271   5
  -3  10  -1 2646.58 705.973   5
  10  -7   0 466.286 224.314   2
  -3  10   0 374.151 184.588   5
  10  -7   1 667.120 223.668   2
  -3  10   1 238.826 99.5405   5
  -7  -3   1 310.093 155.161   2
  -3  10   2 2752.54 712.875   5
  10  -7   2 2095.91 384.683   2
  -3  10   3 205.718 169.497   5
  10  -7   4 665.947 229.761   2
  -3  10   4 250.758 76.2570   5
  -7  -3   5 94.3422 57.4261   1
  -3  10   5-96.0408 217.022   5
  -7  -3   6 16.1908 103.566   1
  -7  -3   7-265.970 185.695   1
  -7  -3   8-161.141 110.542   1
  -7  -3   9 18.5632 197.474   1
  -7  -3  10 6.02398 92.9328   1
  -3  10  10-241.550 232.780   1
  -3  10  11-0.42252 207.938   1
  11  -7 -11 503.756 433.736   2
  11  -7 -10-400.804 369.153   2
  11  -7  -9-468.007 381.436   2
  -7  -4  -8-31.0843 154.298   2
  11  -7  -8-485.023 371.510   2
  11  -7  -7 46.9467 201.909   2
  -7  -4  -7 94.1457 94.8506   2
  11  -7  -6 36.6888 100.597   2
  -7  -4  -6 96.1742 131.322   2
  -7  -4  -5 1336.45 390.915   2
  11  -7  -5 1160.07 525.686   2
  -7  -4  -4 3116.76 581.867   2
  -4  11  -4 3071.01 863.202   4
  11  -7  -4 3182.37 792.208   2
  -7  -4  -4 2107.04 277.320   3
  11  -7  -3 3919.88 807.143   2
  -4  11  -3 5869.52 1382.51   5
  -7  -4  -3 4196.22 651.034   2
  11  -7  -2 7961.67 1049.20   2
  -4  11  -2 10479.2 1680.06   5
  -7  -4  -2 8792.78 958.300   2
  11  -7  -1 9915.54 1044.75   2
  -4  11  -1 11174.3 1613.66   5
  -7  -4  -1 9739.89 1093.03   5
  11  -7   0 1768.54 391.246   2
  -4  11   0 898.037 227.307   5
  11  -7   1 990.201 261.936   2
  -4  11   1 493.378 262.292   5
  11  -7   2 2358.56 376.631   2
  -4  11   2 2402.75 662.602   5
  -4  11   3 536.135 282.137   5
  11  -7   3 507.018 173.702   2
  -4  11   4 255.634 173.537   5
  -4  11   5 487.350 295.819   5
  -4  11  10-0.40094 13.7480   1
  -4  11  11-334.630 293.152   1
  12  -7 -10 0.59883 205.332   2
  12  -7  -9-175.529 237.541   2
  12  -7  -8 0.50067 73.8407   2
  -7  -5  -7 125.987 201.649   2
  12  -7  -7-501.421 367.231   2
  12  -7  -6-30.1250 229.695   2
  -7  -5  -6 27.0327 125.847   2
  -7  -5  -5-16.7032 112.411   2
  12  -7  -5-10.6818 223.804   2
  -5  12  -5-55.2130 300.190   4
  -7  -5  -4 681.333 175.545   3
  -7  -5  -4 1093.20 365.595   2
  12  -7  -4 1289.51 530.044   2
  -5  12  -4 1763.21 729.077   4
  -7  -5  -3 3470.73 645.210   2
  12  -7  -3 2781.12 690.011   2
  12  -7  -2 2573.24 579.114   2
  -7  -5  -2 3123.66 604.854   2
  -5  12  -2 4281.98 1141.24   5
  -5  12  -1 2562.45 721.670   5
  12  -7  -1 2105.00 478.778   2
  -5  12   0 1071.76 190.286   5
  12  -7   0 1998.62 430.781   2
  -5  12   1 1244.25 519.371   5
  12  -7   1 1600.06 321.065   2
  12  -7   2 168.518 95.2283   2
  -5  12   2-273.439 251.925   5
  12  -7   3 400.549 113.286   2
  -5  12   3 229.640 177.318   5
  -5  12   4 163.050 226.527   5
  12  -7   4 26.7587 31.5061   2
  -5  12   5-338.982 400.259   5
  13  -7 -10-0.62658 316.493   2
  13  -7  -9 9.73474 216.431   2
  13  -7  -8 316.155 389.521   2
  13  -7  -7 24.7464 83.2056   2
  13  -7  -6-141.364 190.125   2
  -7  -6  -6-38.7703 47.5033   2
  -6  13  -6 0.56659 58.2835   4
  13  -7  -5-378.081 294.791   2
  -7  -6  -5 324.369 207.024   2
  -6  13  -5 140.657 222.136   4
  13  -7  -4 668.321 368.460   2
  -6  13  -4 1217.49 810.812   5
  -7  -6  -4 708.992 303.902   2
  -6  13  -4 563.742 485.485   4
  -7  -6  -3 165.355 166.835   2
  -6  13  -3-363.083 180.869   5
  13  -7  -3-45.0241 98.6080   2
  -6  13  -3 275.874 447.154   4
  -7  -6  -2-139.480 229.980   2
  13  -7  -2 36.8822 164.334   2
  -6  13  -2-111.858 108.073   5
  13  -7  -1 348.340 180.107   2
  -6  13  -1 494.888 216.354   5
  -6  13   0-176.042 355.925   5
  13  -7   0 1.21384 59.8525   2
  -6  13   1 418.767 328.779   5
  13  -7   1 95.3236 64.7163   2
  -6  13   2 78.4863 137.060   5
  -6  13   3 841.517 551.577   5
  -6  13   4 4.17671 114.247   5
  -6  13   5 22.4484 110.536   5
  -6  13   6 131.841 258.377   5
  14  -7 -10-0.65843 220.632   2
  14  -7  -9 43.0869 345.699   2
  14  -7  -8 32.2063 337.660   2
  -7  14  -8 318.619 366.213   4
  -7  14  -7-0.67790 278.937   4
  14  -7  -7-185.000 233.824   2
  -7  14  -6-0.60437 269.405   4
  14  -7  -6-367.123 312.182   2
  -7  -7  -5 143.638 206.021   2
  14  -7  -5-97.2873 141.091   2
  -7  14  -5-151.328 316.174   5
  -7  14  -5-347.389 365.176   4
  -7  -7  -4-39.1139 65.7514   2
  14  -7  -4 167.966 205.273   2
  -7  14  -4-166.756 226.884   5
  -7  14  -4-116.882 220.621   4
  -7  -7  -3 283.870 173.542   3
  -7  -7  -3 74.7964 125.064   2
  14  -7  -3 57.7773 54.5054   2
  -7  14  -3 421.744 666.436   5
  -7  14  -3-33.5294 445.458   4
  14  -7  -2 11.6498 56.9034   2
  -7  14  -2 44.6504 341.298   5
  -7  -7  -2-181.998 228.111   2
  -7  14  -1 1565.31 679.226   5
  14  -7  -1 567.106 248.834   2
  -7  14   0 782.387 437.374   5
  -7  14   1 980.738 376.048   5
  -7  14   2 3595.71 1016.75   5
  -7  14   3 941.100 579.643   5
  -7  14   4 38.3316 144.128   5
  -7  14   5 235.676 288.133   5
  -7  14   6-5.73750 105.392   5
  15  -7  -9 0.63673 241.152   2
  -8  15  -9 0.85848 241.847   4
  15  -7  -8-407.697 374.693   2
  -8  15  -8 2.35950 473.678   4
  15  -7  -7-350.593 329.883   2
  -8  15  -7-0.72108 269.154   4
  15  -7  -6-107.887 172.110   2
  -8  15  -6-556.348 496.547   4
  -7  -8  -5-98.9783 171.655   2
  15  -7  -5-86.9500 171.329   2
  -8  15  -5 160.258 133.670   5
  -8  15  -4 0.82710 257.597   4
  -8  15  -4-68.6616 102.432   5
  -7  -8  -4 46.2665 47.0209   2
  15  -7  -4 196.368 201.185   2
  -8  15  -3-546.505 528.758   4
  -7  -8  -3 27.0304 136.763   2
  -8  15  -3 87.5077 399.630   5
  -7  -8  -2 150.392 169.653   3
  -7  -8  -2-58.8579 220.002   2
  -8  15  -1 478.449 257.120   5
  -8  15   0 320.105 327.669   5
  -8  15   1 674.012 522.522   5
  -8  15   2-58.2160 207.934   5
  -8  15   3-64.7596 63.0764   5
  -8  15   4 4.03978 154.679   5
  -8  15   5-248.309 258.365   5
  -8  15   6-1.41731 83.3917   5
  14  -6 -10 145.790 470.918   2
  14  -6  -9 0.61190 194.575   2
  -8  14  -8 5.30861 232.586   4
  14  -6  -8-16.2817 73.3067   2
  14  -6  -7-420.568 353.310   2
  -6  -8  -7 466.778 334.652   2
  -8  14  -7-0.69993 304.052   4
  -6  -8  -6 3.78900 138.227   2
  -8  14  -6-0.64291 34.8558   4
  14  -6  -6 176.264 53.9609   2
  14  -6  -5-78.6425 107.148   2
  -6  -8  -5 207.337 228.325   2
  14  -6  -4 260.686 233.263   2
  -6  -8  -4 353.282 249.892   2
  -8  14  -4-357.619 134.218   5
  -8  14  -4-167.689 268.091   4
  -6  -8  -3-9.33837 93.3875   3
  14  -6  -3 109.986 16.9498   2
  -6  -8  -3 194.338 146.987   2
  -8  14  -3 349.856 530.129   5
  -6  -8  -2-183.489 130.584   3
  14  -6  -2 5.13246 44.5945   2
  -8  14  -2 277.924 151.937   5
  -6  -8  -2-34.1584 223.342   2
  -8  14  -1 290.705 304.868   5
  -8  14   0 1919.08 749.834   5
  -8  14   1 1272.55 516.371   5
  -8  14   2 2512.17 787.037   5
  -8  14   3 710.383 426.586   5
  -8  14   4-615.399 384.109   5
  -8  14   5-136.050 258.368   5
  -8  14   6-548.998 376.343   5
  13  -5 -10-306.053 339.765   2
  13  -5  -9 0.58744 182.401   2
  13  -5  -8 0.53667 347.208   2
  -5  -8  -8 191.523 211.295   2
  -5  -8  -7 709.314 437.017   2
  13  -5  -7 70.7869 302.214   2
  -8  13  -7-273.564 327.175   4
  -5  -8  -6 442.474 348.455   2
  13  -5  -6 309.923 246.802   2
  -8  13  -6 32.7967 292.156   4
  -5  -8  -5 646.021 455.483   2
  13  -5  -5 325.398 341.939   2
  -8  13  -5 390.305 570.620   4
  13  -5  -4 899.828 451.654   2
  -5  -8  -4 901.637 289.675   3
  -8  13  -4 350.408 561.848   4
  -8  13  -3 637.403 643.372   4
  -5  -8  -3 1512.23 396.483   3
  13  -5  -3 1209.53 430.201   2
  -5  -8  -3 2103.71 619.764   2
  13  -5  -2 116.279 131.691   2
  -5  -8  -2 66.5176 114.171   3
  -8  13  -2 132.779 352.022   5
  -5  -8  -2 238.085 141.293   2
  -8  13  -1-183.745 354.621   5
  -8  13   0 3900.62 989.728   5
  -8  13   1 1167.59 538.150   5
  -8  13   2 770.173 407.857   5
  -8  13   3 2005.56 705.228   5
  -8  13   4 1323.27 551.126   5
  -8  13   5 6.20192 136.518   5
  -8  13   6-234.664 237.690   5
  12  -4 -11 0.67723 99.8804   2
  12  -4 -10 4.34271 426.778   2
  -4  -8 -10 403.252 398.981   2
  12  -4  -9-0.56478 250.638   2
  -4  -8  -9 75.5316 144.781   2
  12  -4  -8 1.02097 205.999   2
  -4  -8  -8-302.117 277.460   2
  -4  -8  -7 435.444 380.721   2
  12  -4  -7 522.850 431.932   2
  -4  -8  -6 156.968 256.198   2
  12  -4  -6 55.6059 48.8487   2
  -4  -8  -5 333.247 267.339   2
  12  -4  -5 111.783 150.097   2
  -8  12  -5-255.354 283.186   4
  12  -4  -4 769.676 382.144   2
  -4  -8  -4 764.372 269.062   3
  -4  -8  -4 1550.82 578.311   2
  -8  12  -4 280.431 309.541   4
  -4  -8  -3 50.4077 115.943   2
  -4  -8  -3-219.501 200.596   3
  12  -4  -3-121.004 203.852   2
  -8  12  -3 367.691 419.955   5
  -4  -8  -2-68.1706 150.545   3
  12  -4  -2-42.4989 110.555   2
  -8  12  -2-3.62519 133.479   5
  -8  12  -2 75.7239 101.426   4
  -4  -8  -2-38.8081 247.615   2
  -8  12  -1-355.514 369.673   5
  -8  12   0-253.821 283.684   5
  -8  12   1 520.141 395.916   5
  -8  12   2 577.420 349.903   5
  -8  12   3 1354.22 526.193   5
  -8  12   4 1986.37 642.173   5
  -8  12   5 280.455 151.751   5
  -8  12   6-68.7048 124.509   5
  -3  -8 -11 31.4446 104.725   2
  11  -3 -10 256.460 300.565   2
  -3  -8 -10-0.55372 268.177   2
  11  -3  -9 0.54230 190.995   2
  -3  -8  -9 18.9610 230.183   2
  -3  -8  -8 86.5818 97.1809   2
  11  -3  -8 0.48743 241.337   2
  -3  -8  -7 91.0434 147.822   2
  11  -3  -7 80.2406 143.038   2
  11  -3  -6 31.3575 174.696   2
  -3  -8  -6 317.681 211.795   2
  -3  -8  -5 380.093 384.480   2
  11  -3  -5 24.7843 114.719   2
  -8  11  -5 15.3080 164.164   4
  -3  -8  -4-117.277 93.9592   3
  11  -3  -4-106.621 232.001   2
  -3  -8  -4-49.0169 31.4114   2
  -8  11  -4-454.026 345.193   4
  -3  -8  -3 221.500 104.566   3
  11  -3  -3 374.825 164.054   2
  -3  -8  -3 366.505 247.547   2
  -8  11  -3 33.4275 272.537   4
  -3  -8  -2 7783.04 682.666   4
  -3  -8  -2 8015.38 1120.11   2
  -3  -8  -2 7209.01 888.468   3
  -8  11  -1 12062.4 1727.98   5
  -3  -8  -1 9485.93 1044.93   3
  -8  11  -1 9753.77 1745.44   4
  -8  11   0 143.978 375.502   5
  -8  11   1 1706.16 572.327   5
  -8  11   2 377.940 317.547   5
  -8  11   3 459.895 297.513   5
  -8  11   4 33.0716 184.057   5
  -8  11   5-327.610 285.365   5
  -8  11  11 0.42648 130.390   1
  -2  -8 -12-545.646 463.703   2
  -2  -8 -11-466.828 414.687   2
  -2  -8 -10 148.566 222.967   2
  10  -2  -9 3.65060 405.616   2
  -2  -8  -9 0.50515 342.502   2
  -2  -8  -8-322.584 291.689   2
  10  -2  -8 1.40250 19.6328   2
  -2  -8  -7-308.636 269.502   2
  10  -2  -7 250.879 279.193   2
  -2  -8  -6-32.1541 134.755   2
  10  -2  -6-72.2744 64.1448   2
  -2  -8  -5 19.1067 65.6938   2
  10  -2  -5 81.6717 49.9350   2
  -2  -8  -4 775.253 243.473   3
  10  -2  -4 676.218 283.675   2
  -2  -8  -4 1144.02 498.201   2
  -8  10  -4 374.868 435.737   4
  -8  10  -3 3684.47 1041.18   4
  -2  -8  -3 4755.97 879.606   2
  -2  -8  -3 4017.47 635.319   3
  -2  -8  -2 4422.46 779.325   2
  -2  -8  -2 4928.06 720.582   3
  -8  10  -1 11521.9 1596.68   5
  -8  10  -1 8814.51 1557.99   4
  -2  -8  -1 9386.53 1020.73   3
  -8  10   0 10166.3 1347.90   5
  -8  10   1 3430.38 750.663   5
  -8  10   2 1388.40 479.778   5
  -8  10   3 2456.49 661.216   5
  -8  10   4 998.853 435.636   5
  -8  10   5 107.623 123.002   5
  -8  10  11-0.40598 220.104   1
  -1  -8 -12-166.544 259.575   2
  -1  -8 -11-89.0735 181.878   2
  -1  -8 -10 1.12942 216.923   2
  -1  -8  -9-1.47914 154.486   2
  -1  -8  -8-377.499 310.490   2
  -1  -8  -7 381.355 323.710   2
  -1  -8  -6 195.527 273.718   2
  -1  -8  -5 51.0441 132.777   2
   9  -1  -5 29.4278 42.3348   5
  -1  -8  -4 1156.76 459.837   2
  -1  -8  -4 925.549 309.760   3
  -1  -8  -3 1978.48 449.651   3
  -1  -8  -3 1475.67 461.774   2
  -8   9  -3 1390.74 504.825   4
  -1  -8  -2 1577.87 393.709   3
  -8   9  -2 369.855 327.416   4
   9  -1  -2 59.5691 129.868   4
  -1  -8  -2-206.360 192.712   4
  -1  -8  -2 1741.67 483.140   2
  -1  -8  -1 6578.30 847.086   3
  -8   9  -1 8992.72 1333.16   5
  -8   9   0 9774.62 1227.40   5
  -1  -8   0 8886.19 984.306   3
  -8   9   1 2228.44 547.297   5
  -8   9   2 1110.81 389.375   5
  -8   9   3-359.731 192.211   5
  -8   9   4 632.500 381.145   5
  -8   9   5 11.5872 193.501   5
  -8   9  11 0.38813 122.701   1
   0  -8 -12-24.5631 147.040   2
   0  -8 -11 136.248 349.905   2
   0  -8 -10 1.09749 192.807   2
   0  -8  -9 497.779 398.034   2
   0  -8  -8 223.928 394.830   2
   0  -8  -7 312.798 298.312   2
   0  -8  -6 133.577 114.450   2
   8   0  -5 156.992 99.8424   5
   0  -8  -5 738.833 418.690   2
   8   0  -4 504.518 114.473   5
   0  -8  -4 1104.74 446.858   2
   0  -8  -3 607.882 233.973   3
   0  -8  -3 584.070 215.605   2
  -8   8  -3 475.376 182.926   4
   0  -8  -2 5607.11 863.218   2
  -8   8  -2 1124.29 553.464   4
   8   0  -2 112.609 111.557   4
   0  -8  -2 269.847 213.711   4
   0  -8  -2 5100.50 725.524   3
  -8   8  -1 11041.4 1356.86   5
   0  -8  -1 10578.7 982.145   4
   0  -8  -1 8799.58 966.099   3
   0  -8   0 212.089 75.1495   3
  -8   8   0 80.6277 157.887   5
  -8   8   1 8845.49 1051.30   5
   0  -8   1 8210.64 979.892   3
  -8   8   2 5085.12 809.888   5
  -8   8   3 587.310 275.888   5
  -8   8   4 586.795 320.456   5
  -8   8  11 0.37278 178.496   1
  -8   8  12 0.41195 96.3215   1
   1  -8 -12 0.66492 322.434   2
   1  -8 -11 935.193 760.496   2
   1  -8 -10 147.015 282.519   2
   1  -8  -9 367.411 409.613   2
   1  -8  -8-0.80425 89.8901   2
   1  -8  -7 283.161 136.263   2
   1  -8  -6-327.744 279.997   2
   1  -8  -5 33.4415 102.658   2
   1  -8  -4 358.740 264.547   2
   1  -8  -3 138.636 54.4665   3
   1  -8  -3 44.9556 122.977   2
   7   1  -3 54.4899 32.2759   5
   1  -8  -2 7415.72 981.449   2
  -8   7  -2 6442.90 1041.76   4
   1  -8  -2 7721.40 923.321   3
   1  -8  -1 8326.00 940.209   4
   1  -8  -1 23407.8 1587.74   3
  -8   7   0 18711.7 1458.99   5
   1  -8   0 20025.0 1478.70   3
  -8   7   1 18536.0 1412.68   5
   1  -8   1 18153.0 1453.44   3
  -8   7   2 13832.5 1265.23   5
   1  -8   2 14579.8 1345.73   3
  -8   7   3 4101.00 715.739   5
  -8   7   4 602.030 314.632   5
   7   1   5 706.425 274.698   1
   7   1   6 170.727 94.7479   1
   7   1   7 283.173 157.812   1
   7   1   8 49.1175 102.807   1
   7   1   9-87.5404 132.657   1
   7   1  10-485.522 331.508   1
  -8   7  10 0.32745 262.959   1
   7   1  11-653.897 406.792   1
  -8   7  11 0.36159 117.625   1
   7   1  12 0.48152 246.005   1
  -8   7  12 0.39973 76.9270   1
   2  -8 -12 37.4845 257.482   2
   2  -8 -11-555.652 436.643   2
   2  -8 -10 166.334 222.644   2
   2  -8  -9 162.607 317.715   2
   2  -8  -8-32.2203 165.013   2
   2  -8  -7-211.283 214.250   2
   2  -8  -6 287.655 276.630   2
   2  -8  -5 696.507 413.895   2
   2  -8  -4 213.655 220.444   2
   2  -8  -3 916.826 325.430   2
   2  -8  -3 572.887 207.406   3
   6   2  -2 7438.31 469.379   5
   2  -8  -2 8829.13 1048.88   2
  -8   6  -2 8060.71 1034.05   4
   2  -8  -2 1788.19 518.056   4
   2  -8  -2 8482.24 999.466   3
  -8   6  -1 820.416 491.910   4
   2  -8  -1 6197.41 862.573   4
  -8   6   0 5782.52 732.532   5
   2  -8   0 5512.98 750.034   3
   2  -8   1 1364.12 369.194   3
  -8   6   1 1529.20 351.677   5
   2  -8   2 2752.48 597.598   3
  -8   6   2 2992.79 533.651   5
  -8   6   2 2662.36 539.743   2
   6   2   3 340.554 134.947   1
   2  -8   3 649.356 342.304   3
  -8   6   3 349.097 125.644   5
   6   2   4 198.185 149.554   1
   6   2   5 1130.78 344.499   1
   6   2   6 1758.79 498.723   1
   6   2   7-248.432 191.827   1
   6   2   8 92.6763 171.007   1
   6   2   9-456.976 300.556   1
  -8   6  10 0.31515 213.954   1
   6   2  10 0.37908 140.899   1
   6   2  11-379.904 308.760   1
  -8   6  11 0.35279 231.582   1
  -8   6  12-179.373 203.219   1
   6   2  12-299.859 288.517   1
   3  -8 -12-532.449 444.902   2
   3  -8 -11 269.028 300.558   2
   3  -8 -10-33.6771 100.509   2
   3  -8  -9 13.3802 240.108   2
   3  -8  -8 51.8862 86.6926   2
   3  -8  -7 211.466 144.388   2
   3  -8  -6 2269.57 668.926   2
   3  -8  -5 3718.42 845.631   2
  -8   5  -4 120.733 143.219   3
   3  -8  -4 213.516 238.960   2
  -8   5  -3 728.483 262.409   3
   3  -8  -3 795.346 314.742   2
   3  -8  -2 28.4570 160.566   3
   5   3  -2 39.2843 65.9663   5
   3  -8  -2-125.601 227.917   2
  -8   5  -2 24.6751 153.019   4
   3  -8  -1 389.545 148.697   3
   3  -8  -1 330.781 206.926   4
   5   3  -1 248.876 93.2307   5
   3  -8   0 469.108 159.330   3
   5   3   0 753.418 191.148   5
  -8   5   0 838.347 236.636   5
  -8   5   0-45.5953 87.8703   4
  -8   5   1 7029.74 726.122   5
   3  -8   1 6883.50 925.081   3
  -8   5   2 15022.7 1211.45   2
  -8   5   2 15444.3 1111.61   5
   3  -8   2 15444.6 1394.88   3
   5   3   2 15365.3 856.335   1
   3  -8   3 555.646 319.790   3
  -8   5   3 364.753 174.578   5
   5   3   3 398.661 155.501   1
   3  -8   4 186.312 234.885   3
   5   3   4 109.655 19.5879   1
   3  -8   5 518.870 307.006   3
   5   3   5 131.772 111.487   1
   5   3   6 342.786 186.742   1
   5   3   7 32.5009 67.0807   1
   5   3   8 152.914 209.588   1
  -8   5   9 163.416 291.081   1
   5   3   9 219.634 300.004   1
  -8   5  10 146.908 262.441   1
   5   3  10-223.615 218.806   1
   3  -8  10 282.326 231.546   3
   3  -8  11 0.34738 126.618   3
  -8   5  11 112.658 150.593   1
   5   3  11-73.4010 133.770   1
   3  -8  12 519.010 337.771   3
   5   3  12-0.47293 212.984   1
  -8   5  12-324.373 269.918   1
   4  -8 -12-52.6401 139.257   2
   4  -8 -11 94.7317 177.737   2
   4  -8 -10-361.764 329.415   2
   4  -8  -9-31.8392 162.003   2
   4  -8  -8 478.963 353.129   2
   4  -8  -7 442.083 373.154   2
   4  -8  -6 5729.74 1115.98   2
   4  -8  -5 8798.61 1270.81   2
   4  -8  -4 8824.78 1190.25   2
  -8   4  -4 6694.70 722.747   3
  -8   4  -3 5866.91 700.509   3
   4  -8  -3 7296.46 1040.18   2
   4  -8  -2 10267.3 1131.28   2
   4   4  -2 8961.56 821.737   5
  -8   4  -2 9342.04 1104.30   4
  -8   4  -2 8311.94 869.862   3
   4   4  -1 5202.99 614.592   5
  -8   4  -1 4011.39 629.338   3
   4  -8  -1 3852.50 690.956   3
   4   4   0 728.345 208.067   5
   4  -8   0 696.844 277.375   3
  -8   4   0 973.742 254.003   5
   4   4   1 277.047 105.377   1
   4  -8   1 121.941 217.951   3
   4   4   1 478.578 203.669   5
  -8   4   1 168.278 89.5419   5
  -8   4   1 179.007 105.552   2
   4   4   2 6133.36 524.314   1
  -8   4   2 6631.85 632.499   5
  -8   4   2 6450.41 766.148   2
   4  -8   2 6241.78 866.425   3
   4  -8   3 1094.47 375.652   3
   4   4   3 1404.47 300.018   1
   4  -8   4 1849.31 529.402   3
   4   4   4 1536.40 342.533   1
   4   4   5 969.280 298.092   1
   4  -8   5 1055.58 429.865   3
   4  -8   6 355.316 289.296   3
   4   4   6 133.897 84.0938   1
   4   4   7 262.089 228.884   1
   4  -8   7 499.197 351.450   3
   4   4   8 250.932 243.037   1
   4  -8   8 770.870 422.319   3
  -8   4   9 130.279 277.863   1
   4  -8   9 259.717 328.796   3
   4   4   9 155.877 235.981   1
   4  -8  10 70.4500 207.033   3
   4   4  10 362.916 273.645   1
  -8   4  10 11.3119 124.596   1
   4  -8  11 671.444 364.669   3
   4   4  11 0.40297 196.385   1
  -8   4  11 427.013 290.524   1
  -8   4  12 0.37088 65.4658   1
   4   4  12 0.45696 182.054   1
   5  -8 -12-308.989 337.756   2
   5  -8 -11-128.423 207.124   2
   5  -8 -10-26.3224 89.3679   2
   5  -8  -9 324.090 340.643   2
   5  -8  -8 230.749 270.227   2
   5  -8  -7 215.964 205.681   2
   5  -8  -6 2139.12 650.608   2
   5  -8  -5 2840.60 755.946   2
  -8   3  -4 212.537 121.389   3
   3   5  -4 180.207 114.861   1
   5  -8  -4-141.120 144.719   2
  -8   3  -3 693.474 211.033   3
   3   5  -3 755.216 189.128   1
   5  -8  -3 888.693 413.297   2
   5  -8  -2 223.777 143.969   2
   3   5  -2 33.3164 88.1799   5
  -8   3  -2 171.573 34.2407   4
   3   5  -2 91.7455 37.6618   1
  -8   3  -2 87.0191 58.9155   3
   3   5  -1 214.108 68.0953   1
   3   5  -1 58.7697 107.257   5
   5  -8  -1-153.023 287.689   2
  -8   3  -1-123.988 117.385   4
   5  -8  -1 322.753 167.137   3
   5  -8   0 742.849 245.901   3
   3   5   0 724.459 256.274   5
   3   5   1 7217.21 810.945   5
  -8   3   1 6972.46 505.062   5
  -8   3   1 6581.85 658.154   2
   5  -8   1 6859.13 927.241   3
   3   5   2 14830.2 1239.28   5
  -8   3   2 14691.3 1133.49   2
   5  -8   2 14578.7 1380.56   3
   3   5   3 370.177 173.447   1
   5  -8   3 5.70732 255.969   3
  -8   3   3 445.437 228.404   2
   5  -8   4-108.764 35.1143   3
   3   5   4 14.1927 83.3899   1
   5  -8   5 382.667 306.955   3
   3   5   5 216.170 98.8521   1
   5  -8   6 591.239 345.635   3
   3   5   6 92.1578 90.4113   1
   5  -8   7 44.9731 30.5817   3
   3   5   7-355.381 219.500   1
   5  -8   8 124.425 198.117   3
   3   5   8 191.596 175.995   1
  -8   3   8 8.31513 44.2671   1
   5  -8   9 238.874 300.861   3
   3   5   9 73.1180 244.558   1
  -8   3   9 214.972 226.662   1
   3   5  10-27.0198 74.1784   1
   5  -8  10 189.521 219.795   3
  -8   3  10 8.46179 168.609   1
   5  -8  11 165.578 176.563   3
  -8   3  11 1.95972 19.3981   1
   3   5  11 0.39087 151.337   1
  -8   3  12 4.05904 224.565   1
   3   5  12 7.58053 201.399   1
  -8   3  13 69.0904 129.242   1
   6  -8 -12 0.63508 307.578   2
   6  -8 -11-24.7618 91.5567   2
   6  -8 -10 88.1757 357.454   2
   6  -8  -9 154.239 271.141   2
   6  -8  -8 39.6832 331.350   2
   6  -8  -7-165.529 298.210   2
   6  -8  -6 40.2016 197.734   2
   6  -8  -5 582.615 324.856   2
  -8   2  -4 57.9631 38.7215   3
   6  -8  -4 48.9617 74.3220   2
   2   6  -4 66.3656 64.8929   1
  -8   2  -3 835.961 239.149   3
   6  -8  -3 763.073 351.618   2
   2   6  -3 783.658 212.235   1
   2   6  -2 7740.49 930.420   5
  -8   2  -2 8740.18 1056.11   4
   6  -8  -2 8744.75 1084.84   2
   2   6  -2 8104.53 636.120   1
  -8   2  -2 8334.43 847.546   1
   2   6  -1 11624.5 1111.88   5
   6  -8  -1 12588.8 1257.08   2
   2   6   0 5482.97 768.516   5
  -8   2   0 4977.66 387.149   2
   6  -8   0 5215.04 823.231   3
   6  -8   1 1222.90 284.785   3
  -8   2   1 1422.49 292.192   2
   2   6   1 1293.09 327.522   5
   6  -8   2 2842.37 553.840   3
  -8   2   2 2491.09 463.218   2
   2   6   2 2554.57 545.763   5
  -8   2   3 456.478 220.590   2
   6  -8   3 316.400 157.016   3
   2   6   3 113.549 132.154   5
   6  -8   4-206.031 292.596   3
   6  -8   5 1123.90 382.563   3
   2   6   5 983.865 355.016   1
   2   6   6 1760.01 489.074   1
   6  -8   6 1362.01 451.840   3
   6  -8   7 53.0400 91.5177   3
   2   6   7 19.1038 121.844   1
  -8   2   7-35.0154 157.106   1
   6  -8   8-15.2287 116.601   3
  -8   2   8-121.819 125.262   1
   2   6   8-331.675 230.331   1
  -8   2   9 213.586 177.939   1
   6  -8   9-170.237 166.848   3
   2   6   9-189.928 185.091   1
   6  -8  10-67.6255 107.187   3
   2   6  10 0.34932 226.952   1
  -8   2  10 36.4876 184.165   1
   2   6  11 0.39200 210.390   1
  -8   2  11 0.32524 66.4479   1
  -8   2  12 3.65174 188.655   1
   2   6  12 0.43706 10.5971   1
  -8   2  13 1.22805 118.271   1
   7  -8 -12 37.4438 119.209   2
   7  -8 -11-11.7723 281.842   2
   7  -8 -10 310.954 431.520   2
   7  -8  -9 923.100 598.417   2
   7  -8  -8 45.4969 179.650   2
   7  -8  -7 219.266 243.681   2
   7  -8  -6 11.2213 82.7748   2
   7  -8  -5-121.202 241.977   2
  -8   1  -4 178.079 77.4010   3
   7  -8  -4 118.239 213.357   2
  -8   1  -3 52.6618 90.5664   1
   7  -8  -3 186.255 157.053   2
   1   7  -3 102.400 64.5777   1
  -8   1  -2 7383.46 724.239   1
   7  -8  -2 7627.23 1003.36   2
   1   7  -2 6155.43 921.730   5
   1   7  -2 6961.03 705.726   4
  -8   1  -2 7751.85 993.604   4
   1   7  -1 25037.8 1777.96   5
   7  -8  -1 24054.1 1699.60   2
  -8   1  -1 24840.4 1264.08   1
  -8   1   0 18947.2 846.656   2
   1   7   0 19979.6 1579.67   5
   7  -8   0 20018.2 1531.31   2
  -8   1   1 18175.6 1131.26   2
   1   7   1 19435.4 1581.06   5
   7  -8   1 19297.0 1626.19   3
   1   7   2 14455.5 1397.21   5
  -8   1   2 14138.4 1173.65   2
   7  -8   2 14851.7 1420.14   3
   1   7   3 3116.66 687.107   5
   7  -8   3 3778.20 728.722   3
   7  -8   4 841.150 415.048   3
   7  -8   5 1059.00 385.883   3
   7  -8   6-24.8403 119.082   3
  -8   1   6 422.529 196.154   1
   1   7   6 687.095 380.187   1
   7  -8   7 237.255 157.932   3
  -8   1   7 483.813 257.327   1
   1   7   7 380.155 276.390   1
   7  -8   8-351.503 227.613   3
   1   7   8 301.207 264.802   1
  -8   1   8 55.9645 185.547   1
   1   7   9 2.51475 68.1697   1
   7  -8   9 140.209 127.164   3
  -8   1   9-30.9780 67.1801   1
   7  -8  10 134.250 145.424   3
  -8   1  10 0.28678 13.9066   1
  -8   1  11 0.32487 99.9460   1
   1   7  11 371.411 293.875   1
   1   7  12 1.31908 191.302   1
  -8   1  12 1.10214 172.264   1
  -8   1  13 48.6476 109.990   1
   8  -8 -11-23.0006 90.4668   2
   8  -8 -10 170.133 318.248   2
   8  -8  -9 361.278 451.403   2
  -8   0  -8 706.498 443.132   2
   8  -8  -8 192.731 299.554   2
  -8   0  -7 36.3101 89.5331   2
   8  -8  -7 44.4824 229.995   2
  -8   0  -6 123.655 151.027   2
   8  -8  -6-52.8284 84.6784   2
   8  -8  -5 576.056 300.505   2
  -8   0  -5 202.390 133.449   2
  -8   0  -4 658.316 152.839   3
   8  -8  -4 784.365 381.099   2
  -8   0  -3 752.965 257.763   1
   8  -8  -3 495.328 237.193   2
  -8   0  -2 5095.18 566.241   1
  -8   0  -2 5668.86 740.240   5
   0   8  -2 5476.38 938.312   5
   8  -8  -2 4954.96 824.149   2
  -8   0  -2 6186.68 851.623   4
  -8   0  -1 8945.95 654.591   1
  -8   0  -1 8457.67 427.456   2
  -8   0  -1 8789.93 686.639   5
   8  -8  -1 8938.96 1037.20   2
  -8   0  -1 7953.69 387.111   2
   0   8  -1 8354.04 1101.52   5
  -8   0   0 211.240 93.3772   1
   0   8   0 78.5877 230.729   5
   8  -8   0 308.132 63.6434   2
  -8   0   0 178.944 99.2351   2
  -8   0   1 8164.08 822.550   2
   0   8   1 8311.18 1081.46   5
  -8   0   2 4989.07 753.524   2
   0   8   2 4840.09 840.949   5
   8  -8   2 4765.84 814.691   3
   0   8   3 649.630 332.685   5
   8  -8   3 537.997 287.309   3
   8  -8   4 1502.99 428.862   3
  -8   0   4 1198.40 273.786   1
   0   8   4 641.932 316.477   5
   8  -8   5 348.054 227.541   3
  -8   0   5 284.179 157.378   1
   8  -8   6-39.5854 134.274   3
  -8   0   6 267.521 172.894   1
   8  -8   7-7.30821 32.3513   3
   0   8   7 60.4817 80.9125   1
  -8   0   7 149.318 166.438   1
   8  -8   8-125.188 135.204   3
  -8   0   8 127.038 115.314   1
   0   8   8 60.6807 164.767   1
   8  -8   9 347.470 265.055   3
   0   8   9 29.5371 254.989   1
  -8   0   9 344.423 302.417   1
   0   8  10 0.36106 305.646   1
  -8   0  10 0.29303 102.466   1
   0   8  11 0.40057 67.2891   1
  -8   0  11 261.995 227.743   1
   0   8  12 0.44559 225.332   1
  -8   0  12 1.55642 138.012   1
   9  -8 -11 272.467 314.941   2
   9  -8 -10-238.737 281.112   2
   9  -8  -9 258.436 325.995   2
   9  -8  -8-245.416 257.982   2
  -8  -1  -8-168.689 153.153   2
  -8  -1  -7 201.520 169.905   2
   9  -8  -7-120.998 153.027   2
  -8  -1  -6 218.228 144.603   2
   9  -8  -6 213.797 251.638   2
  -8  -1  -5-23.9702 14.4196   2
   9  -8  -5-96.7977 264.893   2
   9  -8  -4 1148.23 457.694   2
  -8  -1  -4 1041.50 243.646   2
  -8  -1  -4 550.889 131.714   3
   9  -8  -3 1548.05 489.631   2
  -8  -1  -3 2080.11 281.644   2
  -8  -1  -3 1391.01 444.970   5
  -1   9  -3 2335.05 701.839   5
  -1   9  -3 769.408 334.485   4
  -8  -1  -2 1490.51 295.450   1
   9  -8  -2 1056.36 355.622   2
  -8  -1  -2 1774.53 229.109   2
  -8  -1  -2 1718.84 390.183   5
  -1   9  -2 1406.45 475.690   5
  -1   9  -2 263.165 256.897   4
  -8  -1  -2 1526.73 357.243   4
  -8  -1  -1 6259.96 478.202   1
  -8  -1  -1 5765.23 531.643   2
  -8  -1  -1 6420.83 650.385   5
  -1   9  -1 6995.19 1087.96   5
   9  -8  -1 6361.89 846.100   2
   9  -8   0 8537.45 941.518   2
  -8  -1   0 8056.42 753.228   2
  -1   9   0 9067.25 1217.08   5
  -8  -1   1 2770.41 503.034   2
  -1   9   1 2912.49 695.656   5
   9  -8   1 2516.21 497.931   2
  -8  -1   2 1224.56 155.644   1
  -1   9   2 1341.42 405.839   5
  -8  -1   2 1695.59 432.834   2
  -8  -1   3 29.1570 35.4518   1
  -1   9   3-89.8290 181.950   5
  -8  -1   4 675.787 213.566   1
  -1   9   4 234.714 150.498   5
   9  -8   4 383.286 159.699   3
  -8  -1   5 559.046 230.157   1
   9  -8   5 208.318 129.333   3
   9  -8   6 228.923 38.5310   3
  -8  -1   6 0.16298 95.8216   1
   9  -8   7-5.13861 27.8595   3
  -8  -1   7-193.789 149.559   1
   9  -8   8-281.365 206.917   3
  -1   9   8-31.1953 175.753   1
  -8  -1   8 19.9618 140.809   1
   9  -8   9 64.5180 99.3338   3
  -1   9   9 0.33120 85.3637   1
  -8  -1   9 132.280 145.485   1
  -1   9  10 0.36983 127.444   1
  -8  -1  10-145.850 164.881   1
  -1   9  11 0.82453 198.412   1
  -8  -1  11-1.46697 214.150   1
  10  -8 -11-171.173 251.648   2
  10  -8 -10-0.57956 87.7546   2
  10  -8  -9-0.52349 273.993   2
  10  -8  -8-577.142 400.960   2
  -8  -2  -7 158.155 525.136   2
  10  -8  -7 289.815 336.716   2
  -8  -2  -6-23.1633 139.762   2
  10  -8  -6 148.727 183.235   2
  -8  -2  -5 26.7592 98.4437   2
  10  -8  -5 33.0266 150.397   2
  10  -8  -4 861.927 365.444   2
  -8  -2  -4 1149.33 324.420   2
  10  -8  -3 3970.48 779.795   2
  -8  -2  -3 4242.40 501.385   2
  -2  10  -3 6504.47 1369.90   5
  -2  10  -3 4381.07 862.412   4
  10  -8  -2 4242.11 742.650   2
  -8  -2  -2 4249.91 674.316   5
  -8  -2  -2 4172.23 475.675   2
  -8  -2  -2 2336.79 515.766   4
  -2  10  -2 5633.09 1112.28   5
  10  -8  -1 9281.10 1038.00   2
  -8  -2  -1 9909.74 929.897   5
  -2  10  -1 11066.0 1497.69   5
  -8  -2   0 9107.54 874.545   2
  -2  10   0 9774.89 1368.95   5
  10  -8   0 9842.29 1012.36   2
  -8  -2   1 3682.65 616.135   2
  -2  10   1 4101.14 857.934   5
  10  -8   1 3707.03 571.256   2
  -2  10   2 984.588 462.439   5
  10  -8   2 1226.70 328.945   2
  -2  10   3 2236.33 634.546   5
  -2  10   4 644.871 383.627   5
  -8  -2   4 1319.52 263.468   1
  -2  10   5-26.5409 201.306   5
  -8  -2   5 429.008 189.367   1
  -8  -2   6 203.365 153.025   1
  -8  -2   7 163.802 163.032   1
  -8  -2   8 127.397 156.649   1
  -8  -2   9-126.121 151.021   1
  -2  10   9-573.745 342.467   1
  -2  10  10 6.52527 238.002   1
  -2  10  11-0.42345 248.964   1
  11  -8 -11-512.213 439.084   2
  11  -8 -10 0.59141 129.848   2
  11  -8  -9 0.54073 104.885   2
  11  -8  -8-346.473 315.048   2
  11  -8  -7-30.9045 212.747   2
  -8  -3  -6 26.2740 157.856   2
  11  -8  -6-72.1335 101.143   2
  -8  -3  -5 171.989 168.779   2
  11  -8  -5 304.961 343.922   2
  -8  -3  -4-4.02742 45.7472   2
  -3  11  -4 297.093 164.543   4
  11  -8  -4-2.98339 177.775   2
  -8  -3  -3 470.207 179.084   2
  -3  11  -3 858.825 542.007   5
  -3  11  -3 130.049 246.033   4
  11  -8  -3 666.300 381.912   2
  -8  -3  -2 7316.00 967.651   5
  -8  -3  -2 7999.58 777.234   2
  -3  11  -2 9173.08 1559.66   5
  11  -8  -2 7150.56 994.271   2
  -3  11  -1 11153.1 1558.43   5
  11  -8  -1 9539.46 1041.54   2
  -8  -3  -1 9591.45 1015.85   5
  11  -8   0 163.856 55.7407   2
  -8  -3   0 245.230 146.241   2
  11  -8   1 1691.66 391.156   2
  -3  11   1 2044.67 644.643   5
  -3  11   2 1076.97 479.343   5
  11  -8   2 504.846 198.148   2
  -3  11   3 467.368 265.988   5
  11  -8   3 517.922 228.452   2
  -3  11   4 175.481 187.968   5
  -3  11   5 493.767 266.773   5
  -8  -3   7 80.9673 139.219   1
  -3  11  10-369.390 295.279   1
  -3  11  11 0.44221 224.646   1
  12  -8 -10-20.4281 84.9435   2
  12  -8  -9 1.10964 32.9511   2
  12  -8  -8-323.840 310.858   2
  12  -8  -7 142.842 47.0955   2
  12  -8  -6 10.3499 152.231   2
  -8  -4  -6 78.8216 69.2917   2
  12  -8  -5 412.349 339.585   2
  -4  12  -5 128.600 190.290   4
  -8  -4  -5 159.181 308.041   2
  12  -8  -4 1213.98 489.495   2
  -8  -4  -4 890.747 283.438   2
  -8  -4  -4 458.143 121.956   3
  -4  12  -4 1962.77 917.393   5
  -4  12  -4-125.668 281.837   4
  12  -8  -3-172.030 113.636   2
  -8  -4  -3-78.2576 102.163   2
  -4  12  -3 150.242 312.688   4
  -8  -4  -3-109.993 110.235   4
  -4  12  -2 88.5370 176.924   5
  -8  -4  -2 127.780 128.085   2
  -4  12  -2 17.0353 80.9045   4
  12  -8  -2-180.417 287.222   2
  12  -8  -1 97.4179 166.527   2
  -4  12  -1-381.196 501.058   5
  -8  -4  -1 61.4015 105.583   5
  12  -8   0 54.0063 87.0766   2
  -4  12   0-197.649 297.057   5
  12  -8   1 166.848 107.974   2
  -4  12   1 271.671 246.715   5
  12  -8   2 899.872 257.431   2
  -4  12   2 1034.93 437.106   5
  -4  12   3 1229.62 503.423   5
  12  -8   3 790.536 229.396   2
  -4  12   4 1520.46 601.126   5
  12  -8   4 1303.63 305.903   2
  -4  12   5 523.361 433.734   5
  -4  12  10-0.42269 151.666   1
  13  -8 -10 1.24082 206.800   2
  13  -8  -9-324.813 329.577   2
  13  -8  -8-22.6481 83.7413   2
  13  -8  -7-520.947 384.525   2
  13  -8  -6 88.1517 193.372   2
  -5  13  -6 343.779 446.546   4
  -8  -5  -5 357.821 230.763   2
  -5  13  -5 384.044 369.477   4
  13  -8  -5 485.446 333.159   2
  -5  13  -4 447.402 501.905   4
  -8  -5  -4 989.349 335.381   2
  -5  13  -4 1494.66 826.139   5
  13  -8  -4 1985.07 657.950   2
  -8  -5  -3 1701.84 433.734   2
  -5  13  -3 2292.98 960.913   5
  -5  13  -3 202.606 271.074   4
  13  -8  -3 2114.86 631.765   2
  -8  -5  -2 12.7486 147.583   2
  -5  13  -2 139.196 310.063   5
  13  -8  -2 385.908 284.428   2
  -5  13  -1-344.572 504.121   5
  13  -8  -1 354.515 224.563   2
  13  -8   0 3054.48 576.819   2
  -5  13   0 3297.31 882.303   5
  -5  13   1 1641.49 545.093   5
  13  -8   1 1331.15 338.495   2
  13  -8   2 655.404 195.994   2
  -5  13   2 643.435 435.733   5
  -5  13   3 2162.76 701.850   5
  -5  13   4 420.193 279.512   5
  -5  13   5 48.0539 174.768   5
  -5  13   6-180.402 175.779   5
  14  -8 -10 0.64727 125.550   2
  14  -8  -9-82.7065 170.088   2
  14  -8  -8-46.4532 122.165   2
  -6  14  -8 6.72512 343.971   4
  14  -8  -7-335.904 314.409   2
  -6  14  -7-0.64273 222.033   4
  14  -8  -6 360.319 391.331   2
  -6  14  -6 0.58430 155.837   4
  14  -8  -5-324.678 374.384   2
  -6  14  -5-411.454 32.5409   5
  -6  14  -5 30.4882 236.586   4
  -6  14  -4 433.302 317.376   5
  14  -8  -4 49.1653 200.416   2
  -8  -6  -4 226.751 152.286   2
  -8  -6  -3 136.338 118.783   2
  14  -8  -3-67.8233 241.461   2
  -6  14  -3-197.846 289.270   4
  -6  14  -3-393.853 196.437   5
  -8  -6  -2 86.5916 104.702   2
  -6  14  -2 252.062 323.837   5
  14  -8  -2 123.402 144.462   2
  -6  14  -1 313.175 162.584   5
  14  -8  -1 279.300 212.082   2
  -6  14   0 1032.36 561.803   5
  14  -8   0 942.131 285.031   2
  -6  14   1 1200.03 564.465   5
  -6  14   2 2300.03 816.879   5
  -6  14   3 505.258 304.653   5
  -6  14   4 345.550 320.982   5
  -6  14   5 9.89767 50.0393   5
  -6  14   6 50.4591 123.445   5
  15  -8  -9-121.091 211.337   2
  -7  15  -9 249.512 344.714   4
  15  -8  -8 116.919 350.510   2
  -7  15  -8-0.74282 457.054   4
  -7  15  -7 13.6839 207.860   4
  15  -8  -7 0.52697 213.798   2
  15  -8  -6-79.7075 149.549   2
  -7  15  -6 417.092 562.210   5
  -7  15  -6 0.72155 415.477   4
  15  -8  -5 115.613 68.1104   2
  -7  15  -5-918.713 677.813   5
  -7  15  -4 5.64636 524.417   5
  -7  15  -4-0.81362 537.361   4
  15  -8  -4-69.5282 50.1908   2
  15  -8  -3-43.6631 200.024   2
  -8  -7  -3 190.592 156.309   2
  -7  15  -3 15.4125 190.547   5
  -7  15  -3-391.274 437.597   4
  -7  15  -2 609.110 489.027   5
  -8  -7  -2 34.5884 84.1725   2
  -7  15  -1-134.293 247.013   5
  -7  15   0 661.875 539.095   5
  -7  15   1 181.338 327.934   5
  -7  15   2-60.1026 240.940   5
  -7  15   3-227.614 378.990   5
  -7  15   4-678.082 425.923   5
  -7  15   5 8.33502 144.218   5
  -7  15   6 7.63902 69.4562   5
  16  -8  -8-165.153 242.797   2
  -8  16  -8 0.81153 296.454   4
  -8  16  -7 62.1814 524.898   5
  -8  16  -7-5.89737 515.146   4
  -8  16  -6 269.126 648.736   5
  -8  16  -5-199.932 325.348   5
  -8  16  -5-422.499 471.516   4
  -8  16  -4-412.643 461.987   5
  -8  16  -4 359.563 872.585   4
  -8  16  -3 118.447 235.776   5
  -8  16  -2 133.884 156.991   5
  -8  -8  -2 205.460 106.761   2
  -8  16  -1 743.753 690.894   5
  -8  16   0 2604.56 1078.46   5
  -8  16   1 34.2574 286.061   5
  -8  16   2 346.197 274.312   5
  -8  16   3 152.860 240.456   5
  -8  16   4-399.756 341.616   5
  -8  16   5 249.927 451.522   5
  -8  16   6 1.02196 161.536   5
  -9  17  -6-1.00173 184.973   4
  -9  17  -6 59.8499 33.6427   5
  -9  17  -5 0.96519 643.874   5
  -9  17  -5 1.04847 414.607   4
  -9  17  -4-1088.70 780.435   5
  -9  17  -3-62.1927 287.426   5
  -9  17  -2-243.262 347.552   5
  -9  17  -1 24.9262 410.316   5
  -8  -9  -1 12.5458 185.724   2
  -9  17   0 335.055 482.388   5
  -9  17   1-707.203 515.828   5
  -9  17   2-834.980 539.340   5
  -9  17   3-903.387 543.529   5
  -9  17   4 0.54162 330.917   5
  -9  17   5-313.095 315.485   5
  -9  17   6-84.2926 164.691   5
  -9  16  -8 0.85976 343.164   4
  -9  16  -7-1012.34 740.071   5
  -9  16  -7 0.88748 356.834   4
  -9  16  -6-1018.33 734.175   5
  -9  16  -5 423.496 470.639   5
  -9  16  -5-604.449 573.076   4
  -7  -9  -4 264.461 226.778   2
  -9  16  -4 0.97430 313.395   4
  -9  16  -4-0.86727 257.537   5
  -7  -9  -3 96.8188 153.275   2
  -9  16  -3 89.8674 210.645   5
  -7  -9  -2-107.823 54.5701   3
  -9  16  -2 13.2948 288.190   5
  -7  -9  -2-28.4820 141.103   2
  -9  16  -1-1366.57 749.571   5
  -9  16   0 373.510 469.558   5
  -9  16   1 514.868 421.604   5
  -9  16   2-131.226 202.039   5
  -9  16   3 253.932 383.070   5
  -9  16   4 90.6152 178.140   5
  -9  16   5-126.869 191.880   5
  -9  16   6-149.141 210.537   5
  15  -6  -9 81.1108 80.4634   2
  -9  15  -9 0.91617 467.012   4
  15  -6  -8-182.858 249.409   2
  -9  15  -8 0.81404 429.260   4
  15  -6  -7-149.334 212.253   2
  -9  15  -7 1.52615 52.3303   4
  -6  -9  -6 50.0400 102.268   2
  15  -6  -6 259.570 339.285   2
  -6  -9  -5 336.048 335.175   2
  -9  15  -5 68.3980 522.427   5
  15  -6  -5 69.6067 139.485   2
  -9  15  -4 828.912 638.179   5
  -9  15  -4-355.942 421.613   4
  -6  -9  -4 415.440 357.006   2
  -6  -9  -3 459.912 253.515   3
  -6  -9  -3 321.529 254.272   2
  -9  15  -3 1234.94 1014.30   5
  -9  15  -3 387.520 687.909   4
  -6  -9  -2 865.501 333.942   3
  -9  15  -2 146.411 292.952   5
  -6  -9  -2 750.064 393.982   2
  -9  15  -1 314.199 240.901   5
  -9  15   0 2501.90 965.201   5
  -9  15   1 2639.67 910.490   5
  -9  15   2 1287.41 664.090   5
  -9  15   3 134.541 219.443   5
  -9  15   4 134.551 87.4700   5
  -9  15   5 26.7099 153.278   5
  -9  15   6-665.619 428.729   5
  14  -5  -9-614.676 472.236   2
  -9  14  -9 858.501 661.554   4
  14  -5  -8 18.3943 299.164   2
  -5  -9  -8 324.006 277.921   2
  14  -5  -7-458.305 364.773   2
  -5  -9  -7-62.6280 120.047   2
  -9  14  -7-0.74026 241.471   4
  -5  -9  -6-18.2858 63.9934   2
  14  -5  -6 343.975 410.771   2
  -9  14  -6 39.9147 380.111   4
  14  -5  -5 297.150 246.141   2
  -5  -9  -5 283.986 255.656   2
  -9  14  -5 62.7492 146.701   4
  14  -5  -4 386.303 238.606   2
  -9  14  -4 1198.03 804.484   5
  -5  -9  -4 435.421 324.061   2
  -9  14  -4 717.271 562.172   4
  -5  -9  -3 1795.29 452.734   3
  -5  -9  -3 2207.37 671.577   2
  -9  14  -3 3295.25 1179.24   5
  -9  14  -3 496.083 761.945   4
  -5  -9  -2 895.165 353.642   3
  -9  14  -2 1463.98 762.530   5
  -5  -9  -2 885.231 404.057   2
  -5  -9  -1 93.0771 68.1899   3
  -9  14  -1-251.833 464.854   5
  -9  14   0-236.688 316.847   5
  -9  14   1-94.3696 198.479   5
  -9  14   2 63.9996 72.4290   5
  -9  14   3-35.0866 139.319   5
  -9  14   4 640.775 480.195   5
  -9  14   5-122.455 173.454   5
  -9  14   6-141.490 191.178   5
  13  -4  -9 0.59565 265.911   2
  -4  -9  -9 78.5218 182.820   2
  -4  -9  -8 4.58221 161.383   2
  13  -4  -8 0.53598 154.859   2
  -4  -9  -7-32.1649 90.6586   2
  13  -4  -7 46.5255 147.859   2
  13  -4  -6 92.7353 286.685   2
  -9  13  -6-188.182 267.469   4
  13  -4  -5 63.9295 90.7307   2
  -9  13  -5-321.707 336.288   4
  -4  -9  -4 458.033 230.665   3
  13  -4  -4 31.5227 191.441   2
  -4  -9  -4 312.172 269.253   2
  -9  13  -4-438.604 405.434   4
  -4  -9  -3-134.972 120.606   3
  -9  13  -3 287.217 476.021   5
  -4  -9  -3-161.747 312.378   2
  -9  13  -3-353.208 372.345   4
  -4  -9  -2 203.927 179.568   3
  -9  13  -2-178.683 355.703   5
  -9  13  -2-93.0195 325.497   4
  -4  -9  -2-363.560 260.732   2
  -4  -9  -1 214.713 170.720   3
  -9  13  -1-33.1971 89.2956   5
  -9  13   0 17.5448 244.601   5
  -9  13   1 137.120 39.5037   5
  -9  13   2-67.2763 254.900   5
  -9  13   3 627.974 393.175   5
  -9  13   4 329.272 95.2484   5
  -9  13   5-80.8038 135.845   5
  -9  13   6-268.011 255.274   5
  -3  -9 -11-17.0694 78.2136   2
  -3  -9 -10-0.57411 117.290   2
  -3  -9  -9 133.492 203.486   2
  -3  -9  -8-234.233 259.220   2
  -3  -9  -7 128.388 184.717   2
  12  -3  -7-100.641 123.511   2
  -3  -9  -6 1115.80 562.986   2
  12  -3  -6 925.326 510.231   2
  -9  12  -6 519.351 614.507   4
  -3  -9  -5 662.238 363.936   2
  -9  12  -5 335.049 439.917   4
  -3  -9  -4 249.300 178.769   3
  -3  -9  -4 212.723 242.028   2
  -9  12  -4 120.474 194.735   4
  -3  -9  -3 1647.07 443.656   3
  -3  -9  -3 1280.99 511.061   2
  -9  12  -3 2171.28 865.706   5
  -3  -9  -2 640.468 304.921   3
  -9  12  -2 712.800 400.492   5
  -9  12  -2 302.338 78.1704   4
  -3  -9  -2 556.246 311.396   2
  -3  -9  -1-23.5473 60.2033   3
  -9  12  -1-38.5218 188.730   5
  -9  12   0 1401.72 543.349   5
  -9  12   1 2485.43 759.999   5
  -9  12   2 1354.87 464.786   5
  -9  12   3 2654.75 706.803   5
  -9  12   4 2079.62 657.959   5
  -9  12   5 486.938 336.697   5
  -9  12   6 298.421 269.745   5
  -2  -9 -11 234.473 301.308   2
  -2  -9 -10 1631.63 761.905   2
  -2  -9  -9 0.54331 174.761   2
  -2  -9  -8-294.319 291.573   2
  -2  -9  -7 21.6856 195.812   2
  -2  -9  -6 486.764 370.547   2
  -2  -9  -5 224.018 173.742   2
  -9  11  -5 32.1734 99.0702   4
  -2  -9  -4 239.259 285.425   2
  -9  11  -4 62.7937 200.776   4
  -2  -9  -3 918.101 310.138   3
  -2  -9  -3 531.526 253.351   2
  -2  -9  -3 56.4812 98.3389   4
  -9  11  -3 458.764 314.412   4
  -2  -9  -2 12.4620 160.361   3
  -9  11  -2 220.802 120.670   5
  -9  11  -2-187.511 396.262   4
  -2  -9  -2 31.5169 90.7922   4
  -2  -9  -2-59.4637 209.474   2
  -2  -9  -1 634.061 286.998   3
  -9  11  -1 494.093 341.953   5
  -9  11  -1 305.156 579.747   4
  -2  -9   0 203.056 209.148   3
  -9  11   0 307.536 312.570   5
  -9  11   1 916.362 404.823   5
  -9  11   2 696.909 359.253   5
  -9  11   3 2084.66 640.680   5
  -9  11   4 1960.09 632.992   5
  -9  11   5-40.2504 183.448   5
  -1  -9 -12 135.683 216.894   2
  -1  -9 -11-0.67344 155.763   2
  -1  -9 -10 450.284 477.307   2
  -1  -9  -9 469.077 383.830   2
  -1  -9  -8 241.312 301.594   2
  -1  -9  -7-77.5591 32.4955   2
  -1  -9  -6 318.291 233.218   2
  -1  -9  -5 29.1524 53.8916   2
  -1  -9  -4 178.008 91.6118   2
  -9  10  -4-120.081 289.453   4
  -1  -9  -4-87.5367 161.828   3
  -1  -9  -3-2.18440 110.427   3
  -9  10  -3 32.4872 262.911   4
  -1  -9  -3 84.1280 155.315   2
  -1  -9  -2 196.839 138.129   4
  -1  -9  -2-109.878 210.865   2
  -9  10  -2-182.774 217.274   4
  -9  10  -1 5470.91 1084.05   5
  -1  -9  -1 4747.31 786.616   3
  -9  10   0 5554.33 998.435   5
  -1  -9   0 4845.75 798.854   3
  -9  10   1 884.524 373.897   5
  -9  10   2 236.582 142.643   5
  -9  10   3 6318.62 1063.26   5
  -9  10   4 888.989 408.925   5
  -9  10   5 469.165 716.904   5
  -9  10  11 2.47903 123.913   1
   0  -9 -12-304.066 360.597   2
   0  -9 -11 171.598 409.869   2
   0  -9 -10-375.278 359.390   2
   0  -9  -9 128.162 361.048   2
   0  -9  -8 175.924 243.861   2
   0  -9  -7-215.520 221.440   2
   0  -9  -6-195.703 282.559   2
   0  -9  -5-261.131 272.339   2
   0  -9  -4 136.073 174.373   2
   0  -9  -4-193.775 184.552   3
   0  -9  -3 327.880 178.614   3
   0  -9  -3 268.570 179.692   2
   9   0  -3 175.236 134.993   4
  -9   9  -3 138.769 139.996   4
   0  -9  -2 3817.34 639.959   3
   0  -9  -2 4547.03 817.704   2
   9   0  -2 3453.11 575.518   4
  -9   9  -1 20737.7 1937.39   5
   0  -9  -1 17883.1 1502.50   3
  -9   9   0 26205.8 2028.03   5
   0  -9   0 24434.9 1769.61   3
  -9   9   1 16813.4 1550.69   5
   0  -9   1 16718.7 1472.97   3
  -9   9   2 3624.18 724.935   5
  -9   9   3 325.618 190.917   5
  -9   9   4-158.585 219.993   5
  -9   9   5 90.8503 165.953   5
  -9   9  11 0.39536 124.249   1
   1  -9 -12 65.9707 165.864   2
   1  -9 -11 116.056 290.847   2
   1  -9 -10 595.792 535.160   2
   1  -9  -9 191.057 289.763   2
   1  -9  -8-208.076 232.926   2
   1  -9  -7 311.442 325.078   2
   1  -9  -6-133.815 194.391   2
   1  -9  -5 387.932 267.424   2
   8   1  -4 364.583 89.0353   5
   1  -9  -4 471.049 254.934   2
   1  -9  -3-46.2075 104.511   3
   1  -9  -3 138.181 181.678   2
   8   1  -3-333.679 200.637   4
  -9   8  -3-229.927 315.767   4
   1  -9  -2 1278.59 410.764   3
   8   1  -2 1082.79 301.521   4
  -9   8  -2 46.2652 128.774   4
   1  -9  -2 1101.25 365.018   2
   1  -9  -1 1711.34 353.005   3
  -9   8  -1 2243.04 541.607   5
  -9   8  -1 472.437 326.806   4
   1  -9  -1 1418.38 395.433   4
  -9   8   0 8376.33 1064.15   5
   1  -9   0 8677.19 1058.15   3
  -9   8   1 6165.61 884.943   5
   1  -9   1 7288.41 994.190   3
   1  -9   2 1626.35 474.231   3
  -9   8   2 1530.28 427.153   5
  -9   8   3 1472.98 467.439   5
  -9   8   4 1149.75 385.394   5
  -9   8  11 294.006 257.060   1
   2  -9 -12-0.68642 242.898   2
   2  -9 -11-395.111 379.569   2
   2  -9 -10-169.747 233.756   2
   2  -9  -9 142.943 253.954   2
   2  -9  -8 507.988 416.764   2
   2  -9  -7 496.679 303.988   2
   2  -9  -6-6.00316 157.007   2
   2  -9  -5 2819.57 766.155   2
   2  -9  -4 1915.70 621.357   2
   7   2  -3-23.4058 30.6806   5
   2  -9  -3 63.5241 56.7832   2
  -9   7  -3-97.9873 323.953   4
   2  -9  -3-62.4322 135.910   3
   2  -9  -2 210.031 127.794   3
   7   2  -2 210.290 113.276   4
   2  -9  -2 109.137 133.128   2
  -9   7  -2 46.6188 163.605   4
   2  -9  -1 1845.10 480.407   3
   2  -9  -1 1820.28 475.352   4
   2  -9   0 2251.54 551.571   3
  -9   7   0 2500.98 533.972   5
   2  -9   1 228.714 120.099   3
  -9   7   1 10.3681 137.670   5
   2  -9   2 1140.25 400.152   3
  -9   7   2 666.638 262.064   5
  -9   7   3 5563.36 838.697   5
   2  -9   3 6064.88 985.342   3
   2  -9   4 21.6218 64.5258   3
  -9   7   4-113.712 221.829   5
   7   2   5 869.716 348.640   1
   7   2   6 87.1497 27.6784   1
   7   2   7 116.263 92.0687   1
   7   2   8-132.276 154.128   1
   7   2   9-49.0093 179.478   1
  -9   7  10 447.554 297.775   1
   7   2  10 8.85906 244.604   1
   7   2  11-0.42999 125.972   1
  -9   7  11 0.37130 97.7927   1
   7   2  12-0.47785 101.005   1
   2  -9  12-0.42331 308.933   3
  -9   7  12 0.40951 165.846   1
   3  -9 -12-163.783 253.187   2
   3  -9 -11 42.3089 215.876   2
   3  -9 -10-56.7959 117.641   2
   3  -9  -9 276.446 276.181   2
   3  -9  -8 830.592 512.510   2
   3  -9  -7 743.403 449.090   2
   3  -9  -6 425.097 329.140   2
   3  -9  -5 1927.99 646.786   2
   3  -9  -4 3734.57 844.401   2
   3  -9  -3 881.789 391.073   2
   6   3  -3 648.623 196.026   5
  -9   6  -3 219.978 215.280   4
   3  -9  -2 283.416 240.077   3
   6   3  -2 241.335 88.2979   5
   3  -9  -2 445.523 162.026   2
   6   3  -2 47.2052 50.4820   4
  -9   6  -2 69.4410 175.699   4
   6   3  -1 4499.89 452.336   5
   3  -9  -1 5090.91 824.898   3
  -9   6   0 8987.22 897.786   5
   3  -9   0 7746.71 991.179   3
  -9   6   1 5489.89 697.542   5
   3  -9   1 6461.67 908.040   3
  -9   6   2 9354.66 974.266   5
   3  -9   2 9668.05 1156.31   3
  -9   6   3 5774.17 791.404   5
   3  -9   3 5471.40 940.692   3
   6   3   3 5676.30 664.828   1
   3  -9   4 1429.96 446.650   3
   6   3   4 1466.16 381.228   1
   3  -9   5 135.345 177.390   3
   6   3   5 743.016 303.080   1
   3  -9   6 465.021 375.205   3
   6   3   6 416.238 262.996   1
   3  -9   7-71.2149 180.834   3
   6   3   7-57.0445 133.802   1
   3  -9   8 338.328 326.003   3
   6   3   8 200.904 259.002   1
   6   3   9-87.8792 130.890   1
   3  -9   9 339.380 371.824   3
  -9   6  10 304.271 240.880   1
   3  -9  10 133.556 348.778   3
   6   3  10-333.282 273.493   1
   3  -9  11 1.54262 228.851   3
   6   3  11-0.42682 179.542   1
  -9   6  11 0.36217 84.2258   1
  -9   6  12-0.40142 129.122   1
   3  -9  12-0.41295 310.546   3
   6   3  12 7.58889 127.542   1
   4  -9 -12-13.7379 72.6863   2
   4  -9 -11-20.8583 85.4844   2
   4  -9 -10-753.432 485.289   2
   4  -9  -9 102.440 167.838   2
   4  -9  -8-14.4953 255.222   2
   4  -9  -7-199.664 208.134   2
   4  -9  -6 276.297 266.495   2
   4  -9  -5 1871.37 595.259   2
   4  -9  -4 5079.83 998.542   2
   4  -9  -3 1718.20 592.771   2
   5   4  -3 1605.07 363.593   5
   5   4  -2-61.7944 93.1601   5
   4  -9  -2-176.891 244.247   2
   5   4  -2-26.4872 1.87234   4
  -9   5  -2-117.092 266.487   4
   4  -9  -2-61.5005 278.530   3
   4  -9  -1 1331.52 405.588   3
   5   4  -1 1376.64 293.459   5
   4  -9   0 1.29125 101.314   3
   5   4   0 61.7104 29.5711   5
  -9   5   0 230.928 157.376   5
   4  -9   1 172.572 238.242   3
  -9   5   1 661.265 216.953   5
   4  -9   2 173.418 220.705   3
  -9   5   2 221.328 100.462   5
  -9   5   2 405.600 228.161   2
   5   4   2 258.977 88.6695   1
   5   4   3 1993.27 361.420   1
   4  -9   3 1893.56 530.765   3
   5   4   4 986.530 281.775   1
   4  -9   4 930.809 433.567   3
   5   4   5 62.1813 46.2387   1
   4  -9   5 166.086 124.353   3
   4  -9   6 136.585 178.019   3
   5   4   6-44.5070 115.660   1
   4  -9   7 85.3980 139.823   3
   5   4   7 140.303 134.569   1
   4  -9   8 162.075 291.194   3
   5   4   8-146.298 152.787   1
  -9   5   9 265.980 209.785   1
   4  -9   9 236.414 318.157   3
   5   4   9-174.858 180.287   1
   5   4  10 1.45647 144.527   1
  -9   5  10 428.879 282.701   1
   4  -9  10 161.322 183.370   3
   4  -9  11 0.37558 242.644   3
  -9   5  11-76.8970 125.988   1
   5   4  11 4.56047 180.659   1
   5   4  12-172.789 218.094   1
  -9   5  12-54.8039 112.302   1
   5  -9 -12 18.8432 191.659   2
   5  -9 -11-44.0004 124.017   2
   5  -9 -10-220.559 263.462   2
   5  -9  -9-339.859 307.523   2
   5  -9  -8 358.972 329.873   2
   5  -9  -7 119.557 242.644   2
   5  -9  -6-6.04073 172.418   2
   5  -9  -5 1986.37 659.756   2
   5  -9  -4 4360.90 959.752   2
  -9   4  -4 3732.35 554.189   3
   4   5  -3 1832.30 443.855   5
   5  -9  -3 2414.11 635.630   2
  -9   4  -3 1714.22 401.387   3
   5  -9  -2 127.167 111.505   2
   4   5  -2 134.152 110.319   5
  -9   4  -2 84.5966 204.436   4
   4   5  -1 1369.22 323.285   5
   5  -9  -1 1408.38 462.680   2
   5  -9  -1 1268.28 369.709   3
   5  -9   0 41.2527 146.597   3
   4   5   0 6.08207 114.023   5
  -9   4   0 132.172 100.307   5
   5  -9   1 565.812 211.779   3
   4   5   1 874.784 160.564   1
  -9   4   1 860.006 215.846   5
   4   5   1 769.854 262.735   5
  -9   4   1 878.626 251.826   2
   5  -9   2-5.14775 161.764   3
   4   5   2 102.846 86.4107   1
  -9   4   2 356.586 142.704   5
  -9   4   2 295.390 181.197   2
   4   5   3 1909.73 351.958   1
   5  -9   3 1884.46 468.688   3
   5  -9   4 1201.98 439.687   3
   4   5   4 1005.14 288.348   1
   5  -9   5 103.654 68.3457   3
   4   5   5-17.1247 87.7793   1
   5  -9   6 257.178 237.249   3
   4   5   6 42.4705 87.6894   1
   5  -9   7-56.6900 131.815   3
   4   5   7-71.3121 83.3167   1
   4   5   8 15.9171 51.9188   1
   5  -9   8 201.061 252.774   3
   4   5   9-170.221 175.506   1
   5  -9   9 183.318 187.491   3
  -9   4   9-73.7470 108.219   1
   5  -9  10 0.34416 160.292   3
   4   5  10-0.34970 59.3516   1
   5  -9  11 2.16523 200.290   3
   4   5  11-0.40167 144.452   1
  -9   4  11 0.34447 213.590   1
   4   5  12 0.45518 152.923   1
  -9   4  12 0.37982 204.893   1
   6  -9 -11 263.045 304.396   2
   6  -9 -10 4.89914 173.094   2
   6  -9  -9-41.3184 108.662   2
   6  -9  -8 381.062 407.978   2
   6  -9  -7-117.678 364.126   2
   6  -9  -6 283.117 247.766   2
   6  -9  -5 3137.45 803.122   2
   3   6  -4 3397.25 503.354   1
   6  -9  -4 3377.85 814.641   2
  -9   3  -4 2444.23 420.620   3
   6  -9  -3 981.668 378.864   2
  -9   3  -3 744.268 245.387   3
   3   6  -3 725.432 195.691   1
   3   6  -3 1267.71 403.417   5
   6  -9  -2 341.198 262.169   2
   3   6  -2 203.829 152.306   5
   3   6  -2 10.7835 8.15584   4
   3   6  -2 318.501 116.235   1
  -9   3  -2 200.392 192.281   4
  -9   3  -2 312.104 156.966   3
   3   6  -1 4227.07 672.642   5
   6  -9  -1 5231.38 847.858   2
   3   6   0 8149.54 938.952   5
  -9   3   0 7324.60 547.262   5
   6  -9   0 8884.08 1128.20   3
  -9   3   1 5519.63 616.572   2
  -9   3   1 5726.29 366.776   5
   3   6   1 5577.17 779.920   5
   6  -9   1 5495.12 908.456   3
   3   6   2 8968.32 1046.69   5
  -9   3   2 8321.06 893.020   2
   6  -9   2 8910.84 1166.17   3
   6  -9   3 5355.06 933.610   3
   6  -9   4 1118.07 382.062   3
   3   6   4 1236.45 336.948   1
   6  -9   5 131.907 167.205   3
   3   6   5 495.048 246.221   1
   6  -9   6 42.8366 167.779   3
   3   6   6 256.312 199.786   1
   6  -9   7-255.306 258.215   3
   3   6   7 52.2206 149.947   1
   6  -9   8 202.895 273.121   3
   3   6   8 72.6616 169.651   1
  -9   3   8 202.891 176.580   1
   6  -9   9 313.844 412.766   3
   3   6   9-277.547 225.066   1
  -9   3   9 122.010 203.918   1
   3   6  10 0.35088 163.202   1
   6  -9  10-270.547 229.215   3
  -9   3  10 0.29915 162.023   1
   6  -9  11 3.75429 201.683   3
  -9   3  11 0.33492 92.5868   1
  -9   3  12-0.37830 271.939   1
   3   6  12-0.44444 165.194   1
   7  -9 -11 207.369 316.235   2
   7  -9 -10-3.89884 192.883   2
   7  -9  -9 3.98665 57.9461   2
   7  -9  -8 74.9759 251.465   2
   7  -9  -7-159.688 363.346   2
   7  -9  -6 378.299 312.162   2
   7  -9  -5 2458.07 756.064   2
  -9   2  -4 994.676 234.403   3
   7  -9  -4 1854.16 619.623   2
   2   7  -4 1303.96 326.965   1
   2   7  -3 235.186 267.704   5
   2   7  -3 133.123 93.2643   1
   7  -9  -3 54.9926 60.5231   2
  -9   2  -3 49.4559 25.1655   3
  -9   2  -2 369.691 187.046   1
   2   7  -2 245.765 114.376   1
   7  -9  -2 467.658 253.594   2
   2   7  -2 479.111 241.805   5
   2   7  -2 59.1919 82.5313   4
  -9   2  -2 103.278 122.114   4
   2   7  -1 2041.92 476.507   5
   7  -9  -1 1802.83 482.688   2
  -9   2   0 1996.59 211.967   5
  -9   2   0 2272.43 254.327   2
   2   7   0 2219.22 542.394   5
   7  -9   0 2340.04 543.927   2
   2   7   1 176.520 61.8783   5
   7  -9   1-98.0225 273.145   3
   7  -9   2 745.548 287.118   3
  -9   2   2 767.497 274.958   2
   2   7   2 490.725 176.636   5
   2   7   3 4994.13 864.268   5
   7  -9   3 5908.83 965.830   3
   7  -9   4 43.4991 216.095   3
   7  -9   5 1161.71 392.315   3
   2   7   5 944.918 333.987   1
   7  -9   6-252.833 276.770   3
   2   7   6 20.3946 78.8106   1
   7  -9   7 127.815 6.81103   3
  -9   2   7 73.8759 109.927   1
   2   7   7-69.3352 99.2327   1
   2   7   8 27.1921 146.160   1
  -9   2   8 18.4882 49.8038   1
   2   7   9 85.2375 189.038   1
  -9   2   9 0.25994 124.783   1
   7  -9  10-228.723 203.586   3
  -9   2  10 149.518 160.214   1
   2   7  10 421.069 295.828   1
   2   7  11-0.39745 46.2155   1
  -9   2  11-423.240 288.525   1
   2   7  12-3.08626 200.846   1
  -9   2  12-0.37568 172.585   1
   8  -9 -11-30.4295 105.399   2
   8  -9 -10-0.56967 104.280   2
   8  -9  -9 12.8541 260.606   2
   8  -9  -8-304.580 285.944   2
   8  -9  -7-159.992 242.909   2
   8  -9  -6-186.055 251.315   2
   8  -9  -5 149.823 80.1197   2
  -9   1  -4 525.275 157.080   3
   8  -9  -4 1079.12 468.148   2
   8  -9  -3 22.4140 136.997   2
   1   8  -3 20.9868 31.4855   1
   1   8  -3 14.6288 68.4962   5
   8  -9  -2 1294.54 438.777   2
   1   8  -2 1150.62 443.660   5
   1   8  -2 246.067 189.011   4
  -9   1  -2 1404.26 412.674   4
  -9   1  -2 1200.08 304.176   1
  -9   1  -1 2909.26 397.226   5
   8  -9  -1 2895.71 641.884   2
   1   8  -1 2955.90 661.782   5
  -9   1  -1 2461.58 417.325   1
  -9   1   0 8574.99 581.245   2
   1   8   0 8966.49 1141.41   5
   8  -9   0 9188.62 1122.66   2
  -9   1   1 6599.02 711.530   2
   1   8   1 6449.87 977.135   5
   1   8   2 972.822 237.209   5
  -9   1   2 1546.27 410.500   2
   8  -9   2 1203.11 442.788   3
   8  -9   3 1529.64 477.543   3
   1   8   3 1577.96 516.312   5
   8  -9   4 1604.34 490.728   3
   1   8   4 1327.24 507.437   5
   8  -9   5 287.793 216.186   3
  -9   1   5 36.0984 55.5618   1
   8  -9   6 106.316 135.826   3
  -9   1   6 284.897 160.610   1
   8  -9   7 43.8551 152.761   3
  -9   1   7 266.511 195.869   1
   1   8   7 3.49941 22.6764   1
   8  -9   8 0.27663 49.7426   3
   1   8   8 16.2786 134.982   1
  -9   1   8-4.04759 23.1314   1
   8  -9   9 63.7373 103.025   3
   1   8   9-155.797 171.526   1
  -9   1   9 19.4400 173.710   1
   8  -9  10 353.941 245.794   3
  -9   1  10 2.38447 142.717   1
   1   8  10 174.751 386.757   1
   1   8  11 0.40167 84.9015   1
  -9   1  11-30.7887 78.2550   1
   1   8  12-0.44740 194.656   1
  -9   1  12-490.227 333.400   1
   9  -9 -11 59.2457 178.800   2
   9  -9 -10-0.58154 24.4219   2
   9  -9  -9 504.493 515.872   2
   9  -9  -8 283.259 391.867   2
   9  -9  -7-27.8556 219.235   2
   9  -9  -6 61.0495 83.6483   2
   9  -9  -5-173.207 174.712   2
  -9   0  -4 47.2714 59.0545   3
   9  -9  -4 53.1514 74.4522   2
   9  -9  -3 745.968 350.626   2
  -9   0  -3 395.936 188.612   1
  -9   0  -3 335.253 248.161   5
   0   9  -3 613.975 386.985   5
   0   9  -3 253.111 144.336   4
  -9   0  -2 3930.48 520.329   1
  -9   0  -2 4272.09 658.689   5
   9  -9  -2 3623.46 735.849   2
   0   9  -2 4633.94 918.528   5
   0   9  -2 369.291 249.105   4
  -9   0  -2 904.771 416.750   4
   9  -9  -1 18353.7 1577.20   2
  -9   0  -1 17287.1 947.573   1
  -9   0  -1 16950.6 969.785   5
   0   9  -1 18986.6 1762.45   5
   9  -9   0 24940.7 1763.05   2
  -9   0   0 24443.4 1208.90   2
   0   9   0 27072.0 2076.45   5
  -9   0   0 24989.1 1002.16   1
   9  -9   1 18556.9 1507.66   2
  -9   0   1 16432.1 1221.17   2
   0   9   1 18146.4 1720.56   5
  -9   0   2 3759.22 669.221   2
   0   9   2 3778.04 771.842   5
   0   9   3 237.800 232.343   5
   9  -9   3 289.674 24.5382   3
   0   9   4-69.5793 292.195   5
  -9   0   4-1.65713 59.2128   1
   9  -9   4-202.932 308.325   3
   9  -9   5-112.652 232.746   3
  -9   0   5-14.0625 57.5404   1
   9  -9   6 37.0937 153.906   3
  -9   0   6 88.1590 120.313   1
   9  -9   7 118.434 146.231   3
  -9   0   7 80.9894 55.7865   1
   9  -9   8 466.818 334.956   3
  -9   0   8 448.484 264.344   1
   0   9   8 48.6729 218.467   1
  -9   0   9 66.2568 183.548   1
   9  -9   9 388.163 322.332   3
   0   9   9 10.6509 175.327   1
   0   9  10-268.531 241.806   1
  -9   0  10 173.675 177.786   1
  -9   0  11-52.0220 104.748   1
   0   9  11-236.914 239.136   1
  10  -9 -11 0.65187 236.551   2
  10  -9 -10 0.59292 185.222   2
  10  -9  -9 112.392 188.950   2
  10  -9  -8 283.143 285.058   2
  10  -9  -7-54.1221 254.779   2
  10  -9  -6-79.6431 154.143   2
  10  -9  -5-113.057 288.393   2
  -9  -1  -5 140.263 117.463   2
  10  -9  -4 21.1566 98.9767   2
  -9  -1  -4 43.2077 38.5962   2
  -1  10  -4-167.334 172.842   4
  10  -9  -3-65.1975 170.161   2
  -1  10  -3 215.458 260.966   5
  -1  10  -3 201.898 232.827   4
  10  -9  -2-57.5701 77.4739   2
  -9  -1  -2-5.34622 27.4962   5
  -1  10  -2 80.7743 234.750   5
  -1  10  -2 85.0871 232.844   4
  -9  -1  -2 27.3647 228.604   4
  -9  -1  -1 4229.05 455.849   2
  -9  -1  -1 4419.98 546.451   5
  10  -9  -1 4559.12 769.434   2
  -1  10  -1 4788.19 950.365   5
  -9  -1   0 4005.89 553.600   2
  -1  10   0 5393.06 996.413   5
  10  -9   0 5276.08 790.394   2
  -1  10   1 875.210 355.073   5
  10  -9   1 644.541 289.590   2
  -9  -1   1 651.174 246.701   2
  -1  10   2 987.678 425.672   5
  -9  -1   3 4844.65 416.310   1
  -1  10   3 5119.61 968.004   5
  -9  -1   4 1184.55 274.144   1
  -1  10   4 625.800 253.702   5
  -9  -1   5-42.2976 54.7889   1
  10  -9   6-52.0834 200.262   3
  -9  -1   6 133.832 53.6463   1
  -9  -1   7 242.900 205.741   1
  10  -9   7 143.385 221.074   3
  -1  10   8 15.0647 153.140   1
  -9  -1   8-1.25720 128.315   1
  10  -9   8-189.581 180.851   3
  -9  -1   9 160.705 236.579   1
  -1  10   9-182.485 192.371   1
  -1  10  10 0.38332 45.5312   1
  -1  10  11-0.42547 144.425   1
  11  -9 -10 116.661 204.135   2
  11  -9  -9 49.5246 327.083   2
  11  -9  -8 50.1196 213.959   2
  11  -9  -7-10.7771 69.7148   2
  11  -9  -6 445.505 369.300   2
  -9  -2  -5-117.553 103.659   2
  11  -9  -5 141.678 270.333   2
  11  -9  -4-127.095 224.820   2
  -2  11  -4 70.9818 132.767   4
  -2  11  -4 142.308 304.619   5
  -9  -2  -4 405.367 172.131   2
  11  -9  -3 1114.03 411.246   2
  -2  11  -3 1687.31 774.568   5
  -9  -2  -3 812.813 314.530   4
  -9  -2  -3 875.537 199.059   2
  11  -9  -2 254.621 169.731   2
  -9  -2  -2 132.736 83.5180   2
  -9  -2  -2 136.590 148.353   5
  -2  11  -2-29.0213 200.525   5
  -9  -2  -2 175.161 224.023   4
  -9  -2  -1 514.918 215.034   5
  11  -9  -1 37.0219 150.693   2
  -9  -2  -1 276.947 147.742   2
  -2  11  -1 407.029 201.257   5
  11  -9   0 35.6703 123.697   2
  -9  -2   0-10.0646 122.511   2
  -2  11   0-163.076 236.706   5
  11  -9   1 870.643 298.976   2
  -2  11   1 434.411 315.468   5
  -9  -2   1 493.807 231.795   2
  -2  11   2 740.683 389.680   5
  11  -9   2 907.354 301.991   2
  -2  11   3 805.518 393.986   5
  -2  11   4 1776.63 663.268   5
  -9  -2   5 196.500 82.9352   1
  -2  11   5 1553.93 887.400   5
  -9  -2   6-39.6915 77.1470   1
  -2  11   9-172.954 192.409   1
  -2  11  10 4.40096 218.424   1
  -2  11  11 1.31807 194.977   1
  12  -9 -10-276.831 316.763   2
  12  -9  -9 7.91343 184.890   2
  12  -9  -8-0.51278 288.649   2
  12  -9  -7 102.048 190.398   2
  12  -9  -6 1005.70 543.326   2
  -3  12  -5 309.381 359.445   4
  12  -9  -5 179.444 258.378   2
  -3  12  -4 607.060 528.303   5
  -3  12  -4-31.6771 91.1503   4
  12  -9  -4 264.243 277.326   2
  -9  -3  -4 335.380 178.703   2
  -9  -3  -3 1369.72 293.953   2
  -3  12  -3 2454.31 915.106   5
  -3  12  -3 60.1317 175.090   4
  -9  -3  -3 1321.38 401.594   4
  12  -9  -3 1211.55 458.793   2
  12  -9  -2 592.492 293.042   2
  -9  -3  -2 641.801 199.630   2
  -3  12  -2 924.242 415.780   5
  12  -9  -1 54.5416 38.0129   2
  -3  12  -1-379.243 479.479   5
  12  -9   0 953.277 304.037   2
  -3  12   0 731.699 225.137   5
  12  -9   1 2547.33 507.670   2
  -3  12   1 2156.50 637.423   5
  12  -9   2 1294.04 344.039   2
  -3  12   2 866.541 401.875   5
  12  -9   3 2138.77 457.929   2
  -3  12   3 1990.16 659.128   5
  -3  12   4 1652.00 615.510   5
  -3  12   5 919.868 451.653   5
  -3  12  10 0.83946 237.798   1
  13  -9 -10-0.62350 271.274   2
  13  -9  -9 0.58039 62.9325   2
  13  -9  -8 0.53100 169.339   2
  13  -9  -7-138.053 197.927   2
  13  -9  -6 204.738 306.343   2
  -4  13  -6 236.629 720.178   4
  13  -9  -5 215.263 293.772   2
  -4  13  -5 202.790 329.987   4
  -4  13  -4 444.809 319.087   5
  -4  13  -4 120.888 329.053   4
  13  -9  -4 62.8952 145.512   2
  -9  -4  -3 14.4546 46.6083   2
  -4  13  -3-364.818 339.682   5
  -4  13  -3 101.822 309.513   4
  13  -9  -3-224.430 197.718   2
  -9  -4  -2-59.8525 76.9697   2
  13  -9  -2-193.677 254.414   2
  13  -9  -1 272.469 149.027   2
  -4  13  -1 15.7439 287.779   5
  13  -9   0 571.594 215.899   2
  -4  13   0 577.244 382.856   5
  13  -9   1 260.984 165.727   2
  -4  13   1-120.948 360.961   5
  13  -9   2 331.447 173.100   2
  -4  13   2 212.468 310.783   5
  13  -9   3 462.543 189.699   2
  -4  13   3 744.077 445.738   5
  -4  13   4 74.4677 237.007   5
  -4  13   5 292.215 302.451   5
  -4  13  10 0.44197 30.3095   1
  14  -9 -10 319.286 346.902   2
  14  -9  -9 2.95613 135.993   2
  14  -9  -8-436.956 375.984   2
  -5  14  -8 620.556 482.355   4
  14  -9  -7 13.7080 539.176   2
  -5  14  -7-747.000 518.753   4
  14  -9  -6 41.5455 85.2388   2
  -5  14  -6 2891.91 1028.30   4
  -5  14  -5 204.183 365.900   5
  14  -9  -5 44.9141 85.7571   2
  -5  14  -5 304.284 519.695   4
  -5  14  -4 1112.99 651.271   5
  14  -9  -4 1059.81 506.705   2
  -5  14  -4 0.66571 233.344   4
  14  -9  -3 1551.46 581.623   2
  -5  14  -3 172.311 484.771   4
  -9  -5  -2 797.258 256.106   2
  -5  14  -2 1340.45 597.460   5
  14  -9  -2 1021.29 428.978   2
  -5  14  -1-255.779 366.186   5
  14  -9  -1 33.9317 14.6030   2
  -5  14   0-116.122 343.199   5
  14  -9   0 55.7885 58.1993   2
  -5  14   1 198.992 155.992   5
  -5  14   2-48.5081 161.579   5
  -5  14   3-271.070 372.608   5
  -5  14   4 107.798 103.823   5
  -5  14   5 165.734 60.1362   5
  -5  14   6-596.856 399.678   5
  -6  15 -10 4.06343 620.612   4
  15  -9  -9 413.090 386.657   2
  -6  15  -9-1.53374 328.954   4
  15  -9  -8-5.70104 239.018   2
  -6  15  -8-174.216 268.770   4
  15  -9  -7 376.806 366.653   2
  -6  15  -7-0.65405 265.359   4
  15  -9  -6 21.9913 182.796   2
  -6  15  -6 184.499 431.669   5
  -6  15  -6 352.521 639.115   4
  -6  15  -5 0.75277 121.068   4
  15  -9  -5-145.287 257.869   2
  -6  15  -4 608.235 613.696   5
  15  -9  -4-98.1231 204.854   2
  -6  15  -4-278.368 360.768   4
  15  -9  -3 383.036 243.659   2
  -6  15  -3-53.1545 132.766   5
  -9  -6  -2 345.907 207.980   2
  -6  15  -2 957.926 705.560   5
  15  -9  -2 627.541 270.592   2
  -6  15  -1 757.277 580.998   5
  -6  15   0 1810.87 785.084   5
  -6  15   1 3610.74 1052.71   5
  -6  15   2 1550.89 659.804   5
  -6  15   3 208.312 216.677   5
  -6  15   4 805.178 511.485   5
  -6  15   5 363.465 317.173   5
  -6  15   6-2.90747 318.313   5
  -7  16  -9-179.884 289.482   4
  -7  16  -8 0.77131 365.512   4
  16  -9  -8 7.78746 123.242   2
  -7  16  -7 380.717 800.208   5
  16  -9  -7 1.10274 340.046   2
  -7  16  -7 0.80685 347.207   4
  16  -9  -6 356.570 343.924   2
  -7  16  -6 391.051 873.768   5
  -7  16  -5 267.101 380.292   5
  -7  16  -5-290.662 386.196   4
  -7  16  -4-436.523 479.606   5
  -7  16  -4 329.331 423.204   4
  -7  16  -3 817.203 616.732   5
  -7  16  -2 176.690 312.029   5
  -7  16  -1-492.424 446.195   5
  -9  -7  -1-39.4639 79.9402   2
  -7  16   0 944.696 693.831   5
  -7  16   1-389.290 360.111   5
  -7  16   2-19.6740 228.089   5
  -7  16   3 250.854 410.755   5
  -7  16   4 240.249 291.102   5
  -7  16   5-406.642 348.150   5
  -7  16   6-0.51784 197.728   5
  -8  17  -8 39.5804 432.932   4
  -8  17  -6-1.00545 758.471   5
  -8  17  -6 317.936 425.642   4
  -8  17  -5-1055.66 783.948   5
  -8  17  -5 4.08190 595.365   4
  -8  17  -4-0.96151 717.791   5
  -8  17  -3-5.48661 54.3088   5
  -8  17  -2-293.057 379.263   5
  -8  17  -1 269.841 353.196   5
  -8  17   0-543.884 470.068   5
  -8  17   1-571.598 462.997   5
  -8  17   2 938.854 609.039   5
  -8  17   3-33.1587 104.668   5
  -8  17   4 173.349 93.1052   5
  -8  17   5-330.106 326.210   5
  -8  17   6 297.874 311.665   5
  -9  18  -7-584.105 611.147   4
  -9  18  -6-62.9312 203.899   4
  -9  18  -5 528.492 573.054   5
  -9  18  -4 806.424 699.200   5
  -9  18  -3 702.510 933.346   5
  -9  18  -2 742.180 769.185   5
  -9  18  -1 766.633 619.940   5
  -9  18   0 219.257 1127.09   5
  -9  18   1-164.320 262.705   5
  -9  18   2-5.30149 478.802   5
  -9  18   3-90.4879 182.200   5
  -9  18   4-324.871 338.965   5
  -9  18   5 1.18933 169.377   5
 -10  19  -2-26.0631 123.931   5
 -10  19  -1-579.854 562.819   5
 -10  19   0-349.467 420.518   5
 -10  19   1-0.79711 317.571   5
 -10  19   2 1454.35 1044.40   5
 -10  18  -6-1.15676 663.117   4
 -10  18  -5 1.03776 90.7218   5
 -10  18  -5-1.17604 488.920   4
 -10  18  -4-711.681 651.266   5
 -10  18  -3 193.283 684.931   5
 -10  18  -2 0.91578 662.040   5
 -10  18  -1 146.287 124.452   5
 -10  18   0 520.297 652.354   5
 -10  18   1 245.815 366.876   5
 -10  18   2 1.97473 314.778   5
 -10  18   3-0.61503 246.387   5
 -10  18   4 10.0712 147.187   5
 -10  18   5-89.5162 175.468   5
 -10  17  -6 512.931 781.259   5
 -10  17  -6-41.8011 160.251   4
 -10  17  -5-223.888 353.359   5
 -10  17  -5 88.3145 745.485   4
 -10  17  -4 131.586 670.240   5
 -10  17  -3 325.569 443.596   5
 -10  17  -2 1361.10 914.084   5
  -7 -10  -2 286.450 263.817   2
  -7 -10  -1 1260.11 483.760   3
  -7 -10  -1 1042.34 530.918   2
 -10  17   0 626.578 510.334   5
 -10  17   1 203.815 369.154   5
 -10  17   2 341.207 307.638   5
 -10  17   3 2.19074 51.4302   5
 -10  17   4 284.297 298.854   5
 -10  17   5-629.949 444.074   5
 -10  17   6-65.9279 144.721   5
 -10  16  -8-155.521 293.555   4
 -10  16  -7 3.75880 328.596   4
 -10  16  -6-311.455 403.649   5
  -6 -10  -5 182.295 195.145   2
 -10  16  -5-14.0380 290.902   5
 -10  16  -5 0.95815 424.569   4
  -6 -10  -4-155.192 183.606   2
 -10  16  -4-868.464 660.287   5
 -10  16  -4-126.982 273.201   4
  -6 -10  -3-185.437 200.672   2
 -10  16  -3-68.1389 182.444   5
  -6 -10  -2 215.991 131.853   3
 -10  16  -2 872.836 465.715   5
  -6 -10  -2 481.944 398.494   2
  -6 -10  -1 320.238 223.667   3
 -10  16  -1 695.378 454.771   5
 -10  16   0 451.656 600.473   5
 -10  16   1-21.4440 84.3445   5
 -10  16   2 36.4641 81.8530   5
 -10  16   3-0.49153 225.177   5
 -10  16   4 60.2834 349.230   5
 -10  16   5 0.48770 198.571   5
 -10  16   6-3.01044 459.711   5
 -10  15  -8-0.86424 305.821   4
  -5 -10  -7 37.7452 95.4135   2
 -10  15  -7-0.81526 113.552   4
  -5 -10  -6-146.132 186.480   2
 -10  15  -6 0.83969 379.249   4
  -5 -10  -5 141.338 183.175   2
 -10  15  -5-164.850 277.809   5
  -5 -10  -4-316.172 274.837   2
 -10  15  -4-5.22493 480.083   4
 -10  15  -4 490.302 535.627   5
  -5 -10  -3-133.237 190.179   3
  -5 -10  -3 29.2764 80.8935   2
 -10  15  -3-152.587 441.177   5
 -10  15  -3-479.818 506.773   4
  -5 -10  -2-46.2019 129.592   3
 -10  15  -2-268.063 437.438   5
  -5 -10  -2-262.495 242.116   2
  -5 -10  -1 132.031 81.7612   3
 -10  15  -1-20.5958 167.142   5
 -10  15   0 639.276 473.550   5
 -10  15   1 2452.57 906.751   5
 -10  15   2 1097.19 583.324   5
 -10  15   3-238.158 248.952   5
 -10  15   4 14.9143 281.796   5
 -10  15   5-746.257 444.229   5
 -10  15   6-35.7005 99.2910   5
 -10  14  -9 225.919 349.242   4
  -4 -10  -8-301.670 292.339   2
 -10  14  -8 83.7749 746.546   4
  -4 -10  -7-130.684 189.359   2
 -10  14  -7 0.76241 274.183   4
  -4 -10  -6-178.804 215.957   2
 -10  14  -6 0.71740 521.822   4
  -4 -10  -5 992.375 519.770   2
 -10  14  -5 13.3659 333.923   4
  -4 -10  -4 541.185 409.053   2
 -10  14  -4 1330.42 817.349   5
 -10  14  -4 73.8335 347.367   4
  -4 -10  -3-14.8793 93.7247   3
  -4 -10  -3 8.91397 127.036   2
 -10  14  -3 636.244 682.986   5
 -10  14  -3 0.79216 264.746   4
  -4 -10  -2 585.036 308.956   3
 -10  14  -2 1748.59 969.116   5
  -4 -10  -2 1094.41 481.505   2
  -4 -10  -1 1059.84 401.439   3
 -10  14  -1 1733.19 811.382   5
  -4 -10   0 779.585 364.053   3
 -10  14   0 14.7092 186.077   5
 -10  14   1 602.129 417.241   5
 -10  14   2 969.620 446.644   5
 -10  14   3 920.994 526.746   5
 -10  14   4 245.123 160.719   5
 -10  14   5 365.536 402.133   5
 -10  14   6 103.368 202.383   5
  -3 -10 -10 364.166 410.456   2
  -3 -10  -9 29.5502 98.4156   2
  -3 -10  -8-53.5376 128.529   2
 -10  13  -8-213.549 318.066   4
  -3 -10  -7 148.074 120.065   2
 -10  13  -7-469.018 454.511   4
  -3 -10  -6 229.583 247.461   2
 -10  13  -6-282.876 331.525   4
  -3 -10  -5 746.564 432.080   2
 -10  13  -5-401.265 389.165   4
  -3 -10  -4 151.838 131.198   3
 -10  13  -4-202.273 280.361   4
  -3 -10  -3 10.4913 82.7904   3
  -3 -10  -3-46.8474 196.783   2
 -10  13  -3-126.561 372.675   5
 -10  13  -3 16.9119 290.643   4
  -3 -10  -2 722.450 299.219   3
 -10  13  -2 1885.05 803.054   5
 -10  13  -2 788.007 751.870   4
  -3 -10  -2 1294.31 495.972   2
  -3 -10  -1 2103.70 568.062   3
 -10  13  -1 2274.92 785.042   5
  -3 -10   0 19.2803 187.905   3
 -10  13   0-587.745 475.730   5
 -10  13   1 280.812 188.474   5
 -10  13   2 316.455 111.721   5
 -10  13   3-173.073 195.274   5
 -10  13   4-556.236 347.989   5
 -10  13   5 153.376 265.794   5
 -10  13   6 19.4109 144.330   5
  -2 -10 -11 0.68695 150.824   2
  -2 -10 -10 0.63507 159.279   2
  -2 -10  -9 23.9132 291.877   2
  -2 -10  -8-264.368 288.395   2
  -2 -10  -7 227.362 371.416   2
  -2 -10  -6 117.390 287.116   2
 -10  12  -6 128.778 400.589   4
  -2 -10  -5 346.315 351.632   2
 -10  12  -5-413.691 366.503   4
  -2 -10  -4 101.668 79.8844   3
  -2 -10  -4 428.672 291.070   2
 -10  12  -4-26.7420 434.504   4
  -2 -10  -3 263.176 138.134   3
  -2 -10  -3 157.498 43.6585   2
 -10  12  -3-166.817 335.831   5
 -10  12  -3-190.183 256.574   4
  -2 -10  -2 2.37788 128.790   3
 -10  12  -2 198.021 207.553   5
 -10  12  -2-71.7321 220.686   4
  -2 -10  -2 514.565 247.460   2
  -2 -10  -1 315.786 176.469   3
 -10  12  -1 811.086 430.617   5
  -2 -10   0-43.3624 173.941   3
 -10  12   0-442.982 356.988   5
  -2 -10   1 1068.80 434.967   3
 -10  12   1 110.193 279.283   5
 -10  12   2 40.0823 240.563   5
 -10  12   3 43.9583 101.548   5
 -10  12   4 891.345 485.248   5
 -10  12   5-0.37203 100.447   5
  -1 -10 -11 0.71412 213.470   2
  -1 -10 -10-8.39471 276.111   2
  -1 -10  -9-135.329 214.499   2
  -1 -10  -8-20.8812 80.0513   2
  -1 -10  -7 423.715 374.813   2
  -1 -10  -6 2.92842 96.7605   2
 -10  11  -6 302.524 676.908   4
  -1 -10  -5 866.830 467.539   2
 -10  11  -5 789.355 675.390   4
  -1 -10  -4 289.604 267.887   2
 -10  11  -4 411.345 369.952   4
  -1 -10  -4 140.343 126.542   3
  -1 -10  -3 171.561 124.796   3
  -1 -10  -3-257.339 292.494   2
 -10  11  -3 190.829 391.611   4
  -1 -10  -2 69.4640 73.5587   3
 -10  11  -2 112.710 195.493   5
 -10  11  -2-78.2685 153.924   4
  -1 -10  -2 37.3981 64.7685   4
  -1 -10  -2-156.299 234.103   2
  -1 -10  -1-195.592 197.820   3
 -10  11  -1 208.437 270.887   5
  -1 -10   0 31.1957 124.640   3
 -10  11   0-105.965 247.987   5
  -1 -10   1 2229.09 596.633   3
 -10  11   1 1545.93 502.882   5
 -10  11   2 4444.84 881.845   5
 -10  11   3 5769.48 1054.76   5
 -10  11   4 3125.43 814.418   5
 -10  11   5 1268.40 536.666   5
   0 -10 -11 0.70897 337.724   2
   0 -10 -10 0.63085 86.5247   2
   0 -10  -9 383.599 428.136   2
   0 -10  -8 488.158 439.295   2
   0 -10  -7 100.490 173.736   2
   0 -10  -6-61.6445 181.028   2
   0 -10  -5 196.627 206.607   2
 -10  10  -5 142.846 214.641   4
   0 -10  -4 13.4737 62.2255   2
 -10  10  -4-157.348 316.172   4
   0 -10  -4-121.772 201.941   3
   0 -10  -3 334.908 284.799   3
   0 -10  -3 97.4378 18.4928   2
 -10  10  -3 8.76177 157.906   4
   0 -10  -2 663.177 353.442   3
   0 -10  -2 568.483 274.277   4
   0 -10  -2 357.278 247.603   2
   0 -10  -1 762.156 323.392   3
 -10  10  -1 592.342 332.100   5
 -10  10  -1 149.479 337.421   4
   0 -10   0 76.7784 155.556   3
 -10  10   0 2.58632 198.179   5
   0 -10   1 701.320 342.026   3
 -10  10   1 496.306 358.424   5
   0 -10   2 448.889 260.033   3
 -10  10   2 331.163 184.251   5
 -10  10   3 198.722 203.009   5
 -10  10   4 135.775 246.803   5
 -10  10   5-175.862 207.704   5
 -10  10  11 395.136 314.157   1
   1 -10 -11-0.68597 262.449   2
   1 -10 -10 81.1518 169.976   2
   1 -10  -9-0.53233 290.336   2
   1 -10  -8 262.666 220.526   2
   1 -10  -7 194.997 94.6973   2
   1 -10  -6-56.8312 234.968   2
   1 -10  -5 99.5682 154.623   2
   1 -10  -4 985.028 419.996   2
 -10   9  -4 94.2886 83.4156   4
   1 -10  -3 4935.00 916.595   2
 -10   9  -3 2503.70 898.983   4
   1 -10  -3 5290.54 863.803   3
   1 -10  -2 311.288 236.354   3
 -10   9  -2 76.5751 104.791   4
   1 -10  -2 190.927 225.106   2
   1 -10  -1 488.416 25.9654   3
 -10   9  -1 205.964 275.735   4
 -10   9   0 5710.21 930.376   5
   1 -10   0 4974.75 835.210   3
 -10   9   1 4827.52 815.033   5
   1 -10   1 4805.22 845.640   3
   1 -10   2-65.7108 259.994   3
 -10   9   2 65.2944 118.135   5
   1 -10   3-363.186 364.071   3
 -10   9   3-174.818 192.058   5
 -10   9   4 55.2094 214.124   5
 -10   9  11-473.752 337.259   1
   2 -10 -11 83.7618 412.377   2
   2 -10 -10 0.58124 279.735   2
   2 -10  -9 59.4415 184.283   2
   2 -10  -8 286.503 325.559   2
   2 -10  -7 64.2571 179.128   2
   2 -10  -6 543.438 419.926   2
   2 -10  -5 456.425 373.808   2
   2 -10  -4 1323.22 607.627   2
   8   2  -4 693.296 141.153   5
 -10   8  -4 1276.38 555.099   4
   2 -10  -3 2447.43 627.223   2
 -10   8  -3 1640.75 629.530   4
   2 -10  -3 2386.86 600.695   3
   2 -10  -2 1494.97 456.487   3
 -10   8  -2 113.360 357.462   4
   2 -10  -2 991.661 400.644   2
   2 -10  -1 3373.51 680.050   3
 -10   8  -1 3532.20 698.729   5
 -10   8   0 9330.89 1090.09   5
   2 -10   0 8744.86 1087.54   3
 -10   8   1 10732.0 1181.47   5
   2 -10   1 9686.32 1211.15   3
   2 -10   2 4356.34 813.147   3
 -10   8   2 5535.04 830.415   5
   2 -10   3 3785.70 786.704   3
 -10   8   3 4532.03 818.265   5
   2 -10   4 456.624 219.377   3
 -10   8   4 855.175 360.106   5
   2 -10   5-238.798 238.411   3
   8   2   7-56.8895 77.5564   1
   8   2   8-0.31629 196.115   1
   8   2   9 0.35427 103.075   1
   8   2  10-356.163 288.333   1
   2 -10  10 109.428 335.885   3
 -10   8  11-19.3946 67.1778   1
   2 -10  11 161.919 202.195   3
   2 -10  12 102.589 408.145   3
   3 -10 -11 14.6778 278.084   2
   3 -10 -10 0.56338 152.720   2
   3 -10  -9-256.423 274.499   2
   3 -10  -8-110.809 170.262   2
   3 -10  -7-288.823 375.793   2
   3 -10  -6-479.088 317.800   2
   3 -10  -5-42.4937 88.9381   2
   3 -10  -4 869.787 444.663   2
   7   3  -4 575.480 167.291   5
 -10   7  -4 969.656 532.292   4
   7   3  -3 489.344 144.269   5
   3 -10  -3 386.499 212.228   2
 -10   7  -3-0.31764 242.447   4
   3 -10  -3 173.527 152.633   3
   3 -10  -2 2674.43 616.960   3
   7   3  -2 2487.93 295.391   5
   3 -10  -2 1659.64 540.285   2
   3 -10  -1 673.129 370.328   3
 -10   7  -1 5.32102 182.250   4
   3 -10   0-278.491 408.242   3
 -10   7   0 400.053 169.458   5
   3 -10   1 2946.23 641.772   3
 -10   7   1 2556.24 532.630   5
   3 -10   2 1040.79 399.966   3
 -10   7   2 1281.55 364.035   5
   3 -10   3 598.633 381.564   3
 -10   7   3 35.4338 112.891   5
   3 -10   4 2508.66 692.476   3
   7   3   4 2359.42 476.472   1
   3 -10   5 1095.45 481.246   3
   7   3   5 1269.79 397.506   1
   3 -10   6 304.650 232.477   3
   7   3   6 120.397 160.055   1
   3 -10   7 39.3064 86.6388   3
   7   3   7 31.5850 24.4906   1
   3 -10   8 71.0309 216.563   3
   7   3   8 10.1195 134.860   1
   3 -10   9 681.571 384.416   3
   7   3   9-83.2495 130.292   1
 -10   7  10-0.35013 140.009   1
   3 -10  10 115.275 267.037   3
   7   3  10-0.38625 74.3319   1
   3 -10  11 0.42410 315.934   3
 -10   7  11 3.07617 173.170   1
   7   3  11 0.42765 214.511   1
   7   3  12-0.47438 384.063   1
   3 -10  12 0.45307 133.641   3
 -10   7  12-0.42315 167.644   1
   4 -10 -11-564.456 455.942   2
   4 -10 -10-221.408 269.087   2
   4 -10  -9-269.650 279.543   2
   4 -10  -8 18.9724 197.548   2
   4 -10  -7 469.303 350.418   2
   4 -10  -6 416.111 305.619   2
   4 -10  -5 166.355 200.711   2
   4 -10  -4-22.8863 76.1035   2
   6   4  -4 214.788 114.420   5
   4 -10  -3-23.0733 191.775   2
   6   4  -3 149.074 96.2944   5
 -10   6  -3-6.56734 309.399   4
   6   4  -2 426.369 162.834   5
   4 -10  -2 78.8586 266.595   2
 -10   6  -2 106.660 548.906   4
   4 -10  -2 410.237 143.141   3
   4 -10  -1 27.0601 184.056   3
   6   4  -1 29.2456 40.8884   5
 -10   6  -1-20.4217 125.698   4
 -10   6   0 4365.25 635.138   5
   4 -10   0 5733.70 926.914   3
 -10   6   1 8982.64 923.155   5
   4 -10   1 8465.60 1113.37   3
   4 -10   2 1591.08 547.667   3
 -10   6   2 1750.86 416.638   5
   4 -10   3 544.861 305.175   3
 -10   6   3 577.645 230.199   5
   6   4   3 543.723 185.832   1
   4 -10   4 1075.10 459.175   3
   6   4   4 1422.15 360.934   1
   4 -10   5 533.482 388.777   3
   6   4   5 402.687 177.666   1
   4 -10   6 5.70081 70.7971   3
   6   4   6 50.3977 130.585   1
   4 -10   7-114.850 117.735   3
   6   4   7-193.677 169.560   1
   4 -10   8 139.200 265.207   3
   6   4   8 0.29082 110.595   1
   4 -10   9 382.101 287.971   3
   6   4   9-84.7356 128.407   1
   4 -10  10-113.727 161.923   3
   6   4  10 0.37375 143.570   1
   4 -10  11 0.41430 44.9237   3
   6   4  11-10.2377 50.6687   1
 -10   6  11 64.8122 345.770   1
 -10   6  12-0.41461 110.122   1
   6   4  12-0.47399 195.369   1
   5 -10 -11-143.372 229.214   2
   5 -10 -10-0.55801 533.614   2
   5 -10  -9-382.046 333.603   2
   5 -10  -8 474.249 375.245   2
   5 -10  -7 482.319 416.810   2
   5 -10  -6 2646.92 803.026   2
   5 -10  -5 1823.94 632.889   2
   5 -10  -4 3056.58 791.860   2
   5   5  -4 2911.43 572.481   5
   5   5  -3 4390.45 633.024   5
   5 -10  -3 5531.59 1000.86   2
 -10   5  -3 3783.76 878.586   4
   5   5  -2 88.4925 63.9678   5
   5 -10  -2-224.332 189.368   2
 -10   5  -2 14.9463 199.273   4
   5 -10  -1-88.5765 188.075   3
   5   5  -1 25.7210 28.3041   5
 -10   5  -1 86.8522 175.892   4
   5 -10  -1-204.612 237.865   2
   5 -10   0 3925.07 785.386   3
   5   5   0 3719.98 564.018   5
 -10   5   0 3067.98 472.050   5
   5   5   1 4290.71 632.306   5
 -10   5   1 4728.26 608.504   5
   5 -10   1 4084.78 823.246   3
   5   5   1 4258.98 298.842   1
   5   5   2 1509.88 272.054   1
   5 -10   2 937.079 264.304   3
 -10   5   2 2326.50 406.715   5
 -10   5   2 1805.22 438.818   2
   5   5   3 5888.30 643.194   1
   5 -10   3 6549.64 1085.90   3
   5   5   4 4138.77 613.453   1
   5 -10   4 4555.27 906.844   3
   5   5   5 31.6235 134.338   1
   5 -10   5 285.002 91.3524   3
   5   5   6 233.724 139.406   1
   5 -10   6 192.267 247.015   3
   5   5   7 179.451 162.885   1
   5 -10   7 135.270 226.855   3
   5 -10   8 158.378 203.093   3
   5   5   8 1.09287 82.7397   1
   5 -10   9 0.36589 453.333   3
   5   5   9 191.337 188.144   1
 -10   5   9 0.29167 214.032   1
 -10   5  10 351.705 260.328   1
   5 -10  10 0.76850 101.203   3
   5   5  10 0.36211 226.917   1
   5 -10  11 1.20755 262.418   3
 -10   5  11 0.36265 187.147   1
   5   5  11 0.41191 241.764   1
   5   5  12 180.877 221.788   1
 -10   5  12-0.40393 58.7617   1
   6 -10 -11-82.1414 174.008   2
   6 -10 -10 0.56555 164.549   2
   6 -10  -9 62.3646 207.662   2
   6 -10  -8-22.4995 162.929   2
   6 -10  -7 642.037 316.094   2
   6 -10  -6 295.413 290.770   2
   6 -10  -5-114.028 149.938   2
 -10   4  -4-89.7655 83.6122   3
   6 -10  -4 248.328 209.442   2
   4   6  -3 206.797 150.600   5
 -10   4  -3 252.756 147.744   4
   6 -10  -3 284.563 287.032   2
   4   6  -2 304.394 83.9154   5
   6 -10  -2 450.957 211.687   2
 -10   4  -2-87.3586 98.8079   4
   4   6  -1-29.4019 116.982   5
 -10   4  -1-63.9223 246.965   4
   6 -10  -1-178.967 285.392   2
   6 -10  -1-246.337 389.402   3
   6 -10   0 4654.16 810.782   3
   4   6   0 5140.82 734.221   5
 -10   4   0 4235.40 497.876   5
 -10   4   1 7474.09 752.146   2
   4   6   1 7683.39 525.120   1
   4   6   1 8138.63 954.840   5
 -10   4   1 8583.03 659.563   5
   6 -10   1 8072.15 1134.26   3
   6 -10   2 2216.08 573.482   3
   4   6   2 1638.57 288.402   1
   4   6   2 1548.80 440.156   5
 -10   4   2 1961.13 454.544   2
   6 -10   3 485.848 303.203   3
   4   6   3 448.242 163.912   1
   4   6   4 1125.09 301.128   1
   6 -10   4 1204.19 427.979   3
   6 -10   5 640.008 338.895   3
   4   6   5 586.148 249.592   1
   6 -10   6 54.4105 86.5746   3
   4   6   6-53.8471 41.0649   1
   6 -10   7-95.9053 149.097   3
   4   6   7-267.251 192.762   1
   6 -10   8-136.921 166.826   3
   4   6   8 35.1977 214.164   1
 -10   4   8 0.25174 144.698   1
   4   6   9 33.8100 78.5189   1
   6 -10   9-351.258 272.054   3
 -10   4   9-0.28107 178.495   1
   6 -10  10-0.37107 179.939   3
 -10   4  10-153.158 168.447   1
   4   6  10-193.985 200.189   1
   6 -10  11-10.7656 49.3290   3
   4   6  11 0.79747 94.7239   1
 -10   4  11 1.06204 201.299   1
 -10   4  12-104.256 154.989   1
   4   6  12 0.45545 167.839   1
   7 -10 -11 205.234 354.003   2
   7 -10 -10 14.4443 355.224   2
   7 -10  -9-150.655 214.131   2
   7 -10  -8-418.783 337.153   2
   7 -10  -7-156.232 179.936   2
   7 -10  -6-320.482 266.055   2
   7 -10  -5 171.236 168.148   2
 -10   3  -5 54.9978 67.2241   3
 -10   3  -4 278.681 145.834   3
   3   7  -4 798.581 248.242   1
   7 -10  -4 1227.59 492.947   2
   3   7  -4 1121.50 411.218   5
 -10   3  -3 355.724 180.497   3
   3   7  -3 523.075 174.755   1
   7 -10  -3 425.231 235.788   2
   3   7  -3 412.147 237.718   5
 -10   3  -3 496.966 258.580   4
   3   7  -2 2402.27 326.151   1
   7 -10  -2 2421.81 669.270   2
   3   7  -2 2488.83 557.209   5
   3   7  -1 572.557 253.169   5
   7 -10  -1 776.613 330.680   2
 -10   3  -1 174.550 230.098   4
   3   7   0 615.030 284.396   5
 -10   3   0 138.637 73.1242   5
   7 -10   1 2532.69 647.524   3
 -10   3   1 2323.16 409.974   2
   3   7   1 2771.91 596.730   5
   7 -10   2 1218.69 424.835   3
 -10   3   2 1092.46 335.117   2
   3   7   2 873.870 261.583   5
   7 -10   3 41.2145 40.7716   3
   7 -10   4 2737.51 701.927   3
   3   7   4 2238.60 473.552   1
   7 -10   5 1461.14 549.296   3
   3   7   5 1364.46 390.179   1
   7 -10   6-268.280 221.040   3
   3   7   6 94.3965 77.4458   1
   7 -10   7-437.697 287.348   3
   3   7   7 99.3860 128.051   1
 -10   3   8-147.355 144.421   1
   3   7   8-0.27424 167.290   1
   7 -10   9 0.34047 131.563   3
   3   7   9-263.235 220.346   1
 -10   3   9 0.27252 153.687   1
   7 -10  10-314.258 254.693   3
   3   7  10 24.0863 262.608   1
 -10   3  10 0.31038 87.7610   1
   3   7  11-0.39556 71.7701   1
 -10   3  11-209.124 205.972   1
 -10   3  12-543.968 353.632   1
   3   7  12-126.098 180.787   1
   8 -10 -11 0.64592 325.508   2
   8 -10 -10 58.1278 296.130   2
   8 -10  -9 64.9779 226.633   2
   8 -10  -8-318.840 297.994   2
   8 -10  -7 218.895 319.019   2
   8 -10  -6-22.9036 237.595   2
   8 -10  -5 218.305 225.195   2
 -10   2  -4 1000.42 260.658   3
   8 -10  -4 1984.40 668.940   2
   2   8  -4 1152.80 455.222   5
   2   8  -3 2240.31 402.404   1
   8 -10  -3 3261.86 795.833   2
   2   8  -3 2453.80 641.490   5
   2   8  -3 2944.95 541.668   4
 -10   2  -3 3192.66 793.806   4
 -10   2  -3 1654.52 393.313   3
   8 -10  -2 1340.66 471.415   2
   2   8  -2 1495.08 423.351   5
 -10   2  -2 66.7537 85.3996   4
   2   8  -2 1270.07 286.754   1
   2   8  -1 3472.99 678.331   5
   8 -10  -1 3759.30 782.249   2
 -10   2  -1 3708.53 594.639   1
   2   8   0 9195.76 1137.86   5
   8 -10   0 10328.6 1284.36   2
   2   8   1 9000.44 1163.83   5
 -10   2   1 9613.22 840.829   2
   8 -10   1 9073.22 1264.67   3
   8 -10   2 4232.55 858.209   3
   2   8   2 4668.95 849.208   5
 -10   2   2 4578.86 692.689   2
   2   8   3 4287.30 847.272   5
   8 -10   3 5051.85 972.565   3
   8 -10   4 717.670 357.015   3
   8 -10   5-31.7574 81.5391   3
   8 -10   6-22.7401 160.558   3
   2   8   6 67.3508 57.5735   1
 -10   2   6 132.679 144.886   1
 -10   2   7-156.140 136.697   1
   8 -10   7 370.199 281.864   3
   2   8   7 155.184 218.126   1
   2   8   8 9.03316 85.2114   1
 -10   2   8-85.1317 108.487   1
   8 -10   9 140.880 183.603   3
   2   8   9 0.31946 47.7471   1
 -10   2   9 89.0763 142.037   1
 -10   2  10 88.6965 126.503   1
   2   8  10-283.870 244.413   1
 -10   2  11 2.09386 133.249   1
   2   8  11 0.40150 353.950   1
   9 -10 -11-504.635 442.084   2
   9 -10 -10-473.966 410.947   2
   9 -10  -9-395.770 357.369   2
   9 -10  -8 160.064 240.457   2
   9 -10  -7 391.301 379.630   2
   9 -10  -6 98.5602 65.4400   2
   9 -10  -5-221.214 397.518   2
 -10   1  -4 702.598 217.102   3
   9 -10  -4 1198.29 495.274   2
   1   9  -4 1294.99 463.123   5
   9 -10  -3 4779.19 929.414   2
   1   9  -3 6113.30 1100.74   5
 -10   1  -3 4631.66 940.756   4
 -10   1  -2 364.846 170.934   1
 -10   1  -2 1001.98 337.137   5
   9 -10  -2 720.250 360.282   2
   1   9  -2 966.201 329.161   5
 -10   1  -2 1.38008 171.236   4
 -10   1  -1 604.018 156.149   5
   9 -10  -1 989.360 386.567   2
   1   9  -1 470.520 183.766   5
 -10   1  -1 498.996 185.064   1
 -10   1   0 5133.05 433.880   2
   1   9   0 4776.42 840.451   5
   9 -10   0 5709.27 925.086   2
 -10   1   0 4878.45 569.447   1
 -10   1   1 4222.53 587.036   2
   1   9   1 4668.31 905.504   5
 -10   1   2-105.139 158.805   2
   1   9   2 8.12085 157.923   5
   1   9   3 73.7964 111.598   5
   9 -10   3-240.008 306.237   3
   9 -10   4 46.0324 208.669   3
   1   9   4-122.288 253.885   5
   9 -10   5 99.1446 55.1937   3
 -10   1   5 116.667 96.9678   1
   9 -10   6 228.639 177.975   3
 -10   1   6 236.690 166.271   1
   1   9   7 0.25844 126.569   1
   9 -10   7 108.805 84.8807   3
 -10   1   7 7.33355 48.1410   1
   9 -10   8 0.31089 226.638   3
   1   9   8 0.29355 181.460   1
 -10   1   8-156.513 147.490   1
   9 -10   9 172.042 223.147   3
   1   9   9-0.32860 121.616   1
 -10   1   9 173.362 167.865   1
 -10   1  10 62.6741 107.722   1
   1   9  10-0.36769 8.91502   1
   1   9  11 2.83848 202.925   1
  10 -10 -10-306.207 333.027   2
  10 -10  -9 0.56305 207.488   2
  10 -10  -8 641.427 514.562   2
  10 -10  -7 17.8448 41.8928   2
  10 -10  -6-253.329 242.793   2
  10 -10  -5-71.8583 140.766   2
   0  10  -4-139.182 251.743   5
   0  10  -4 10.0583 126.769   4
  10 -10  -3 28.8244 86.9779   2
   0  10  -3 443.653 287.287   5
 -10   0  -3-155.629 390.217   4
 -10   0  -2 524.058 198.048   1
  10 -10  -2 961.333 423.091   2
 -10   0  -2 333.264 142.318   5
   0  10  -2 744.518 382.653   5
  10 -10  -1 694.897 296.420   2
 -10   0  -1 599.167 171.382   1
 -10   0  -1 737.703 178.941   5
   0  10  -1 592.043 262.245   5
   0  10   0 460.719 341.870   5
  10 -10   0 596.702 339.329   2
 -10   0   0 88.6968 57.7238   1
 -10   0   0 149.777 112.288   2
 -10   0   1 708.929 146.879   1
   0  10   1 670.572 361.834   5
  10 -10   1 968.108 352.622   2
 -10   0   1 925.028 307.077   2
   0  10   2 662.725 325.645   5
 -10   0   2 254.970 192.494   2
   0  10   3 69.1972 233.563   5
 -10   0   3 185.402 85.3390   1
 -10   0   4 30.9112 61.2895   1
   0  10   4-95.8606 298.956   5
  10 -10   4-74.7058 15.5478   3
 -10   0   5 245.162 150.309   1
  10 -10   5 130.074 121.433   3
 -10   0   6-88.5362 112.756   1
  10 -10   6 81.7847 81.0258   3
  10 -10   7-0.31501 147.114   3
 -10   0   7 36.0763 72.4016   1
  10 -10   8 15.4287 145.655   3
 -10   0   8 202.634 202.628   1
   0  10   8 0.30524 233.805   1
  10 -10   9 2817.47 725.937   3
   0  10   9-1.02843 195.637   1
   0  10  10-0.37989 138.164   1
   0  10  11 5.05256 263.457   1
  11 -10 -10 0.62469 310.405   2
  11 -10  -9 17.1800 181.569   2
  11 -10  -8 283.740 454.204   2
  11 -10  -7 436.127 501.798   2
  11 -10  -6 297.274 266.406   2
  11 -10  -5 803.269 441.721   2
  -1  11  -5 571.125 474.194   4
  11 -10  -4 232.432 202.272   2
  -1  11  -4 638.346 615.518   5
  -1  11  -4 219.303 227.688   4
  11 -10  -3-211.550 193.087   2
  -1  11  -3-190.577 178.005   5
  -1  11  -3-169.943 260.188   4
 -10  -1  -3-353.242 251.145   4
  11 -10  -2-60.9026 27.8641   2
 -10  -1  -2 53.4489 64.3417   5
  -1  11  -2 76.5881 64.3271   5
 -10  -1  -2-10.3626 14.5061   4
  11 -10  -1 258.739 216.206   2
  -1  11  -1 25.2374 224.295   5
 -10  -1  -1 46.2273 19.5332   5
 -10  -1  -1 66.2981 42.3274   2
 -10  -1  -1 167.171 93.3240   2
  11 -10   0 195.457 77.2686   2
  -1  11   0-71.4483 107.402   5
 -10  -1   0 179.405 93.9811   2
  -1  11   1 1785.50 600.623   5
  11 -10   1 1901.91 494.994   2
 -10  -1   1 1846.31 455.107   2
  -1  11   2 5211.39 1023.43   5
  11 -10   2 5299.03 825.876   2
  -1  11   3 5782.48 1118.00   5
  -1  11   4 3062.04 878.524   5
 -10  -1   4 2341.78 368.594   1
  -1  11   5 1433.52 592.947   5
 -10  -1   5 1073.72 298.144   1
  -1  11   8 0.32619 58.1182   1
  -1  11   9-272.145 239.036   1
  -1  11  10-0.39526 181.077   1
  -1  11  11 0.43697 156.791   1
  12 -10 -10 3.81516 143.801   2
  12 -10  -9 29.5517 100.332   2
  12 -10  -8 516.276 400.681   2
  12 -10  -7 262.668 460.776   2
  12 -10  -6 161.953 310.840   2
  -2  12  -5 346.253 684.579   5
  -2  12  -5-54.9828 114.314   4
  12 -10  -5-159.181 200.426   2
  12 -10  -4-61.2555 302.271   2
  -2  12  -4 613.137 661.658   5
  -2  12  -4 160.190 172.955   4
  12 -10  -3 224.149 161.004   2
  -2  12  -3 362.040 285.299   5
  -2  12  -3-258.787 256.587   4
 -10  -2  -3 95.8495 161.119   4
  12 -10  -2 21.7525 57.8870   2
 -10  -2  -2 195.875 79.0135   2
  -2  12  -2 309.036 410.711   5
  12 -10  -1 132.473 113.423   2
  -2  12  -1 236.937 322.425   5
 -10  -2  -1 752.755 206.838   2
  12 -10   0 187.418 207.582   2
  -2  12   0 94.0949 96.7745   5
  12 -10   1 975.480 332.466   2
  -2  12   1 642.718 303.829   5
  -2  12   2 205.580 147.628   5
  12 -10   2 257.290 172.768   2
  -2  12   3 790.535 436.831   5
  12 -10   3 108.657 146.000   2
  -2  12   4 914.217 521.832   5
  -2  12   5 316.094 321.357   5
  -2  12   9-83.9242 136.569   1
  -2  12  10 1.24178 170.318   1
  13 -10 -10-215.283 285.614   2
  13 -10  -9-5.31968 42.9938   2
  13 -10  -8 0.53856 283.694   2
  13 -10  -7 2931.80 928.250   2
  13 -10  -6 0.44273 118.567   2
  -3  13  -6 15.6879 203.465   4
  -3  13  -5 420.524 533.400   5
  -3  13  -5-655.603 435.216   4
  13 -10  -5 114.594 127.661   2
  -3  13  -4 198.271 409.933   5
  -3  13  -4 0.54090 92.7347   4
  13 -10  -4 238.494 68.7969   2
  -3  13  -3-270.025 413.232   5
  -3  13  -3 74.8897 152.377   4
  13 -10  -3 163.581 234.465   2
  13 -10  -2 907.062 392.042   2
  -3  13  -2 976.616 567.313   5
  13 -10  -1 1945.76 538.503   2
  -3  13  -1 2153.28 721.567   5
 -10  -3  -1 1445.89 307.778   2
  13 -10   0 98.9141 166.129   2
  -3  13   0 465.692 397.192   5
  13 -10   1 181.431 175.767   2
  -3  13   1 16.8046 121.167   5
  13 -10   2 601.549 216.835   2
  -3  13   2 1058.08 443.818   5
  -3  13   3-50.7572 155.328   5
  13 -10   3 42.7886 84.9088   2
  -3  13   4 494.601 231.303   5
  13 -10   4 76.4836 125.451   2
  -3  13   5 293.740 296.078   5
  -3  13  10-0.86931 503.323   1
  14 -10  -9-326.402 340.563   2
  14 -10  -8-0.55577 136.093   2
  -4  14  -8-293.381 325.017   4
  14 -10  -7 0.50800 95.4071   2
  -4  14  -7 289.561 456.569   4
  -4  14  -6 1033.97 934.498   5
  14 -10  -6 255.425 372.090   2
  -4  14  -6 148.273 425.569   4
  -4  14  -5 0.61448 161.155   4
  14 -10  -5 602.621 396.240   2
  -4  14  -4 428.634 512.020   5
  -4  14  -4-141.712 231.653   4
  14 -10  -4 172.812 235.421   2
  -4  14  -3-662.321 507.061   5
  14 -10  -3 50.7837 204.941   2
  -4  14  -2 1046.38 615.819   5
  14 -10  -2 350.948 182.042   2
  14 -10  -1 922.331 373.442   2
  -4  14  -1 568.489 279.268   5
 -10  -4  -1 689.724 231.201   2
  14 -10   0 436.217 214.938   2
  -4  14   0 112.663 109.762   5
  14 -10   1 371.675 192.779   2
  -4  14   1 219.086 161.229   5
  -4  14   2 1010.81 541.800   5
  -4  14   3 511.378 346.800   5
  -4  14   4 76.4340 244.715   5
  -4  14   5 187.451 336.715   5
  15 -10  -9-447.393 401.760   2
  -5  15  -9-49.2243 145.809   4
  15 -10  -8-197.045 257.964   2
  -5  15  -8 0.65875 313.394   4
  15 -10  -7-34.6543 104.218   2
  -5  15  -7-339.801 356.864   4
  -5  15  -6-0.92705 400.829   5
  15 -10  -6-572.240 405.108   2
  -5  15  -6-311.372 355.889   4
  -5  15  -5-948.265 697.359   5
  15 -10  -5 629.379 372.822   2
  -5  15  -4-580.781 531.100   5
  -5  15  -4 0.77291 361.446   4
  15 -10  -4 79.2299 134.715   2
  -5  15  -3 51.3323 183.950   5
  15 -10  -3-31.9223 163.839   2
  -5  15  -2-392.002 522.230   5
  15 -10  -2-15.8689 138.513   2
  -5  15  -1 71.3985 378.525   5
  15 -10  -1 115.705 127.866   2
  -5  15   0 635.828 530.603   5
  -5  15   1 1670.44 626.048   5
  -5  15   2 726.180 421.766   5
  -5  15   3-125.396 376.430   5
  -5  15   4 215.070 224.271   5
  -5  15   5-321.929 301.328   5
  -5  15   6-276.648 283.703   5
  16 -10  -8 55.7739 318.776   2
  -6  16  -8-114.568 226.809   4
  16 -10  -7-340.604 331.929   2
  -6  16  -7 105.259 384.657   5
  -6  16  -7 194.862 300.623   4
  16 -10  -6 20.0757 77.9434   2
  -6  16  -6 122.981 614.224   5
  -6  16  -6 1.65613 312.975   4
  16 -10  -5 30.1294 91.3151   2
  -6  16  -5 123.139 250.549   4
  -6  16  -4 168.436 407.987   5
  -6  16  -3 182.111 587.208   5
  -6  16  -2 155.376 409.871   5
  -6  16  -1 469.177 601.525   5
  -6  16   0 202.375 379.686   5
  -6  16   1 818.697 497.912   5
  -6  16   2-99.3209 272.875   5
  -6  16   3-933.598 530.598   5
  -6  16   4 359.557 327.869   5
  -6  16   5 251.098 367.557   5
  -6  16   6 53.6742 128.857   5
  -7  17  -7 661.557 601.977   4
  -7  17  -6 1.04459 173.635   5
  -7  17  -6 44.6363 130.259   4
  -7  17  -5-1.02207 333.398   5
  -7  17  -5 755.362 666.536   4
  -7  17  -4 0.97305 1045.03   5
  -7  17  -3 0.91105 328.383   5
  -7  17  -2 287.619 503.526   5
  -7  17  -1 1258.08 895.176   5
  -7  17   0 603.794 650.209   5
  -7  17   1-468.518 416.748   5
  -7  17   2 548.718 587.028   5
  -7  17   3 398.576 364.223   5
  -7  17   4-38.2612 236.336   5
  -7  17   5-0.55494 250.642   5
  -7  17   6 11.2484 60.9843   5
  -8  18  -6 1149.72 861.924   4
  -8  18  -5 137.059 128.189   5
  -8  18  -4 601.804 963.285   5
  -8  18  -3-701.083 635.265   5
  -8  18  -2 287.628 731.878   5
  -8  18  -1 51.9515 549.296   5
  -8  18   0 969.252 367.387   5
  -8  18   1-486.507 451.028   5
  -8  18   2 0.66242 157.367   5
  -8  18   3-378.495 373.717   5
  -8  18   4 1.21570 309.497   5
  -8  18   5-154.570 233.776   5
  -9  19  -2 47.1401 298.829   5
  -9  19  -1-198.853 328.818   5
  -9  19   0 384.945 686.920   5
  -9  19   1 298.047 372.677   5
  -9  19   2 6.62666 53.5569   5
 -11  19  -2-0.99306 290.933   5
 -11  19  -1 272.076 740.312   5
 -11  19   0 75.9472 105.500   5
 -11  19   1-130.593 245.758   5
 -11  19   2-32.6181 117.895   5
 -11  19   3 307.970 350.062   5
 -11  18  -6 119.544 291.307   4
 -11  18  -5-449.120 566.880   4
 -11  18  -4 117.960 263.290   5
 -11  18  -3-27.1288 124.307   5
 -11  18  -2 251.589 304.045   5
 -11  18  -1 533.089 674.726   5
  -7 -11  -1-66.9090 128.655   2
  -7 -11   0-137.744 164.939   3
 -11  18   0 364.704 487.725   5
 -11  18   1 0.69976 211.229   5
 -11  18   2 18.0500 82.7064   5
 -11  18   3 127.505 347.849   5
 -11  18   4-385.366 362.330   5
 -11  18   5-40.1369 116.315   5
 -11  17  -6-711.278 636.118   5
 -11  17  -6 2.19228 486.441   4
 -11  17  -5-79.6267 209.407   5
 -11  17  -5 1.11587 60.4980   4
  -6 -11  -4 3.91299 30.0021   2
 -11  17  -4-0.92768 360.585   5
  -6 -11  -3 198.912 226.046   2
 -11  17  -3-1.78191 566.209   5
 -11  17  -2-122.302 244.577   5
  -6 -11  -2-234.148 238.840   2
  -6 -11  -1 58.4648 115.432   3
 -11  17  -1 92.3175 466.152   5
  -6 -11  -1-220.574 239.412   2
  -6 -11   0 0.31725 208.822   3
 -11  17   0 151.576 313.664   5
 -11  17   1-0.62062 245.417   5
 -11  17   2 182.852 337.380   5
 -11  17   3-0.53510 305.101   5
 -11  17   4 68.0555 201.494   5
 -11  17   5-0.52385 139.714   5
 -11  17   6 0.53432 107.614   5
 -11  16  -7 0.99703 371.370   4
  -5 -11  -6 59.9402 287.311   2
 -11  16  -6 0.88938 190.447   5
  -5 -11  -5 1.28873 82.0124   2
 -11  16  -5 6.15825 310.577   5
  -5 -11  -4 102.687 233.564   2
 -11  16  -4 2.52895 204.390   5
  -5 -11  -3 55.1258 187.256   2
 -11  16  -3-357.417 414.076   5
  -5 -11  -2 137.071 63.6531   3
 -11  16  -2 85.6857 284.825   5
  -5 -11  -2-268.942 257.959   2
  -5 -11  -1 870.020 423.198   3
 -11  16  -1 1092.46 722.060   5
  -5 -11   0 2209.53 661.158   3
 -11  16   0 2488.42 1047.17   5
 -11  16   1 1338.66 708.139   5
 -11  16   2 62.9597 268.588   5
 -11  16   3 19.2312 131.885   5
 -11  16   4 0.47432 256.127   5
 -11  16   5 107.141 205.362   5
 -11  16   6-637.925 433.168   5
  -4 -11  -8 221.758 384.578   2
 -11  15  -8-840.856 666.030   4
  -4 -11  -7-0.49017 227.368   2
 -11  15  -7-201.179 324.467   4
  -4 -11  -6-154.715 207.762   2
 -11  15  -6 6.18588 333.313   4
  -4 -11  -5-21.2371 75.9204   2
 -11  15  -5 260.436 657.665   5
 -11  15  -5 0.89562 275.536   4
  -4 -11  -4 538.302 409.671   2
 -11  15  -4 566.281 679.557   5
 -11  15  -4 126.946 259.209   4
  -4 -11  -3 246.105 228.707   3
  -4 -11  -3-189.747 302.862   2
 -11  15  -3-240.570 322.559   5
 -11  15  -3-200.153 328.681   4
  -4 -11  -2 64.9442 114.599   3
 -11  15  -2 176.588 166.136   5
  -4 -11  -2 2.01149 96.0672   2
  -4 -11  -1 463.735 315.676   3
 -11  15  -1 472.890 534.110   5
  -4 -11   0 182.508 306.579   3
 -11  15   0 352.452 341.007   5
  -4 -11   1 36.6109 221.649   3
 -11  15   1 544.373 497.237   5
 -11  15   2 193.649 158.594   5
 -11  15   3 296.993 337.371   5
 -11  15   4-306.863 279.621   5
 -11  15   5 3.59440 85.0830   5
 -11  15   6-483.459 366.850   5
 -11  14  -9 138.600 282.007   4
  -3 -11  -9 416.405 377.576   2
  -3 -11  -8 134.988 210.392   2
 -11  14  -8-0.88773 426.699   4
  -3 -11  -7-875.449 520.820   2
 -11  14  -7-588.646 521.849   4
  -3 -11  -6 302.183 344.964   2
 -11  14  -6-0.77696 280.051   4
  -3 -11  -5 791.469 559.569   2
 -11  14  -5 19.4727 172.055   4
  -3 -11  -4 3.20780 122.347   3
  -3 -11  -4 410.282 393.756   2
 -11  14  -4 239.597 175.194   5
  -3 -11  -3 37.1112 111.025   3
  -3 -11  -3-306.179 264.122   2
 -11  14  -3-169.051 434.958   5
 -11  14  -3 124.510 146.103   4
  -3 -11  -2 80.1100 96.9921   3
 -11  14  -2-23.8615 184.689   5
  -3 -11  -2 35.4331 80.8859   2
  -3 -11  -1-9.20277 44.8511   3
 -11  14  -1-375.291 439.380   5
  -3 -11   0-58.0785 134.607   3
 -11  14   0-370.005 412.945   5
  -3 -11   1 125.600 115.458   3
 -11  14   1-294.687 341.460   5
 -11  14   2 466.743 329.551   5
 -11  14   3 295.956 207.255   5
 -11  14   4-332.228 279.601   5
 -11  14   5-598.809 385.969   5
 -11  14   6 0.45259 135.290   5
  -2 -11 -10-8.66550 58.2725   2
  -2 -11  -9 0.62296 298.285   2
  -2 -11  -8 15.5959 279.402   2
 -11  13  -8-675.573 579.483   4
  -2 -11  -7 96.3079 379.305   2
 -11  13  -7 123.862 444.918   4
  -2 -11  -6-307.581 295.482   2
 -11  13  -6 23.0380 396.001   4
  -2 -11  -5 220.954 284.858   2
 -11  13  -5 34.4209 391.449   4
  -2 -11  -4-178.066 157.230   3
  -2 -11  -4 357.297 274.593   2
  -2 -11  -3 129.232 84.6340   3
  -2 -11  -3-35.7755 125.100   2
 -11  13  -3 194.525 363.173   5
 -11  13  -3 48.6364 154.026   4
  -2 -11  -2-281.425 308.315   3
 -11  13  -2-318.872 290.072   5
 -11  13  -2-402.601 407.437   4
  -2 -11  -2-66.1252 115.405   2
  -2 -11  -1-99.1353 72.9380   3
 -11  13  -1 141.825 338.988   5
  -2 -11   0 287.155 233.737   3
 -11  13   0 556.934 388.014   5
  -2 -11   1 1090.86 461.639   3
 -11  13   1 975.137 377.868   5
  -2 -11   2 1641.01 602.222   3
 -11  13   2 1000.75 415.384   5
 -11  13   3 2423.82 757.659   5
 -11  13   4 2010.34 676.567   5
 -11  13   5 96.5887 283.316   5
  -1 -11 -10 0.68945 281.213   2
  -1 -11  -9-0.62652 220.132   2
  -1 -11  -8 1.13199 76.4073   2
  -1 -11  -7 282.808 404.355   2
 -11  12  -7 0.72683 236.433   4
  -1 -11  -6 284.066 325.306   2
 -11  12  -6 1.96747 334.303   4
  -1 -11  -5-36.6879 152.298   2
 -11  12  -5 149.134 312.981   4
  -1 -11  -4-61.4651 170.177   2
 -11  12  -4-348.004 348.559   4
  -1 -11  -4 120.864 169.560   3
  -1 -11  -3 448.503 268.407   3
  -1 -11  -3 191.370 76.5269   2
  -1 -11  -2 58.5279 112.001   3
 -11  12  -2 313.482 260.049   5
 -11  12  -2 76.3740 155.372   4
  -1 -11  -2-86.8189 265.432   2
  -1 -11  -1 751.636 355.774   3
 -11  12  -1 549.122 358.251   5
  -1 -11   0 1659.16 525.469   3
 -11  12   0 1908.89 622.751   5
  -1 -11   1 697.639 350.949   3
 -11  12   1 507.960 236.731   5
  -1 -11   2 1737.72 577.228   3
 -11  12   2 1461.58 506.460   5
 -11  12   3 990.808 487.862   5
 -11  12   4-25.7614 147.209   5
 -11  12   5-396.341 299.573   5
   0 -11 -11-0.75570 328.279   2
   0 -11 -10 0.67610 152.901   2
   0 -11  -9 316.413 335.785   2
   0 -11  -8 1712.91 809.684   2
   0 -11  -7-48.1627 116.776   2
   0 -11  -6 32.5162 87.3182   2
 -11  11  -6-142.983 228.592   4
   0 -11  -5 822.231 464.245   2
 -11  11  -5 534.874 529.003   4
 -11  11  -4 6.16490 334.931   4
   0 -11  -4 603.567 415.740   2
   0 -11  -4 836.587 357.324   3
   0 -11  -3 923.030 384.804   3
   0 -11  -3 896.559 394.631   2
   0 -11  -2 1284.06 448.571   3
 -11  11  -2 1950.91 709.696   5
 -11  11  -2 101.732 319.216   4
   0 -11  -2 1092.79 357.267   2
   0 -11  -1-150.646 208.148   3
 -11  11  -1-45.2823 46.8519   5
   0 -11   0 2279.15 615.495   3
 -11  11   0 1893.53 614.962   5
   0 -11   1 63.8366 66.1448   3
 -11  11   1-432.293 401.138   5
   0 -11   2 1332.16 506.463   3
 -11  11   2 1530.41 488.049   5
   0 -11   3 1373.28 535.764   3
 -11  11   3 1152.82 484.808   5
 -11  11   4 662.113 377.904   5
 -11  11   5 570.098 327.650   5
   1 -11 -11 217.690 593.950   2
   1 -11 -10-280.931 327.339   2
   1 -11  -9 0.57738 202.384   2
   1 -11  -8 78.9660 154.284   2
   1 -11  -7-116.759 270.117   2
   1 -11  -6 471.415 390.681   2
   1 -11  -5 817.373 486.925   2
 -11  10  -5 598.961 369.014   4
   1 -11  -4 2521.62 731.021   2
 -11  10  -4 1716.77 814.503   4
   1 -11  -3 4986.72 970.685   2
   1 -11  -3 6001.12 1175.69   3
 -11  10  -2 6101.10 1197.18   5
   1 -11  -2 4741.65 919.071   2
   1 -11  -2 5249.84 929.256   3
   1 -11  -1 1777.76 483.406   3
 -11  10  -1 1992.86 582.045   5
   1 -11   0-138.260 249.823   3
 -11  10   0-201.462 278.957   5
   1 -11   1 101.065 233.965   3
 -11  10   1 167.122 171.962   5
   1 -11   2 208.717 204.073   3
 -11  10   2 244.412 212.783   5
   1 -11   3 258.424 298.189   3
 -11  10   3-40.9961 125.999   5
   1 -11   4-33.7431 76.2644   3
 -11  10   4 243.253 148.688   5
   1 -11   5 654.624 409.747   3
 -11  10   5 989.932 483.265   5
   1 -11  11 293.175 286.870   3
   2 -11 -11-0.70243 389.488   2
   2 -11 -10 4253.67 1244.94   2
   2 -11  -9 139.423 212.527   2
   2 -11  -8-139.679 200.963   2
   2 -11  -7 39.0935 223.654   2
   2 -11  -6-222.103 244.791   2
   2 -11  -5 462.282 331.545   2
 -11   9  -5-400.747 336.658   4
   2 -11  -4 1827.66 611.991   2
 -11   9  -4 1783.51 745.574   4
   2 -11  -3 1345.45 529.208   2
 -11   9  -3 79.3343 70.1445   4
   9   2  -3 715.967 244.643   4
   2 -11  -3 1423.74 465.302   3
   2 -11  -2 760.363 355.740   3
   2 -11  -2 1221.52 448.612   2
   2 -11  -1 351.351 196.949   3
 -11   9  -1 1100.37 462.996   5
 -11   9  -1 218.310 331.844   4
   2 -11   0-218.604 268.555   3
 -11   9   0-150.692 214.714   5
   2 -11   1 383.673 248.341   3
 -11   9   1 310.909 171.352   5
   2 -11   2 129.609 153.298   3
 -11   9   2 128.588 65.6576   5
   2 -11   3 942.277 452.798   3
 -11   9   3 992.187 415.132   5
   2 -11   4-85.3320 143.604   3
 -11   9   4 515.183 507.228   5
   2 -11   5 266.021 301.383   3
   2 -11   6 1223.15 561.855   3
   2 -11   7-39.9838 149.584   3
   2 -11   8-25.2955 74.9285   3
   2 -11   9 33.2779 312.092   3
   2 -11  10 0.87434 251.727   3
 -11   9  11-32.7760 90.5634   1
   2 -11  11 577.597 514.625   3
   3 -11 -11 47.2920 137.050   2
   3 -11 -10 76.0672 48.1650   2
   3 -11  -9 137.494 375.164   2
   3 -11  -8 418.671 404.327   2
   3 -11  -7-644.619 403.417   2
   3 -11  -6 803.831 497.830   2
   3 -11  -5-81.9739 243.461   2
   8   3  -5 166.701 86.8742   5
   3 -11  -4 594.252 333.488   2
   8   3  -4 219.285 94.0474   5
 -11   8  -4 7.73410 337.158   4
   8   3  -3 243.949 66.4658   5
   3 -11  -3 474.746 377.103   2
   8   3  -3 160.351 112.649   4
 -11   8  -3 1.90304 219.741   4
   3 -11  -3 312.630 79.1294   3
   3 -11  -2 630.344 337.863   3
   3 -11  -2 557.788 202.903   2
 -11   8  -2-20.5029 186.223   4
   3 -11  -1 1528.71 476.533   3
 -11   8  -1 1847.42 502.938   5
   3 -11   0 142.716 109.124   3
 -11   8   0 26.4756 131.831   5
 -11   8   1 10244.5 1143.09   5
   3 -11   1 10686.9 1354.50   3
 -11   8   2 8298.92 1060.08   5
   3 -11   2 8113.37 1205.93   3
   3 -11   3 247.918 91.9857   3
 -11   8   3 522.701 246.463   5
   3 -11   4-369.019 338.417   3
 -11   8   4-60.3799 163.046   5
   3 -11   5 336.193 336.600   3
   8   3   6-348.291 253.920   1
   3 -11   6 232.445 324.561   3
   8   3   7-241.109 198.539   1
   3 -11   7 592.816 490.529   3
   8   3   8-270.805 223.508   1
   3 -11   8-164.835 192.064   3
   8   3   9-353.926 270.286   1
   3 -11   9 168.148 200.370   3
   8   3  10-240.736 235.176   1
   3 -11  10-0.43452 181.563   3
 -11   8  11 0.41296 171.680   1
   8   3  11-499.932 357.130   1
   3 -11  11 0.46440 166.250   3
   4 -11 -11-0.65889 266.365   2
   4 -11 -10-335.775 339.808   2
   4 -11  -9 0.52251 207.786   2
   4 -11  -8-113.599 322.444   2
   4 -11  -7 40.0560 269.820   2
   4 -11  -6 299.671 353.039   2
   4 -11  -5 1030.77 469.259   2
   7   4  -5 393.465 192.670   5
   4 -11  -4-104.826 144.822   2
   7   4  -4 156.577 76.6069   5
 -11   7  -4 93.8554 39.9262   4
   7   4  -3 251.298 122.447   5
   7   4  -3 50.1352 10.4194   4
 -11   7  -3 0.35375 136.694   4
   7   4  -2 2288.72 345.177   5
   4 -11  -2 1966.84 544.539   2
   4 -11  -2 2166.80 614.214   3
   4 -11  -1 759.420 339.700   3
 -11   7  -1 892.686 282.067   5
 -11   7  -1 321.423 252.786   4
   4 -11   0 2225.82 655.786   3
 -11   7   0 1698.12 401.377   5
 -11   7   1 10208.6 1067.97   5
   4 -11   1 9683.32 1252.59   3
 -11   7   2 8562.57 1015.03   5
   4 -11   2 8570.51 1245.65   3
   4 -11   3 3939.73 848.065   3
 -11   7   3 3974.15 688.114   5
   4 -11   4 2880.11 758.942   3
   7   4   4 2733.88 521.232   1
   4 -11   5 1192.35 524.679   3
   7   4   5 1370.49 427.279   1
   4 -11   6-11.1998 215.183   3
   7   4   6 104.854 121.451   1
   4 -11   7-118.090 113.174   3
   7   4   7 38.5453 78.1529   1
   4 -11   8 25.7118 88.7607   3
   7   4   8 137.966 157.516   1
   4 -11   9-0.40550 121.612   3
   7   4   9 0.34390 66.1825   1
   4 -11  10 31.8207 89.6882   3
   7   4  10 0.76983 120.605   1
 -11   7  11 0.40077 190.912   1
   4 -11  11-0.45530 172.793   3
   7   4  11-0.42377 134.359   1
   4 -11  12 0.48198 193.087   3
   7   4  12 117.017 179.440   1
   5 -11 -11 0.65283 241.611   2
   5 -11 -10 0.58327 191.308   2
   5 -11  -9 55.8225 248.842   2
   5 -11  -8 159.078 333.091   2
   5 -11  -7-44.7388 264.689   2
   5 -11  -6 349.843 282.265   2
   5 -11  -5 557.558 305.190   2
   5 -11  -4 563.128 378.537   2
   6   5  -4 799.037 291.891   5
 -11   6  -4 842.649 489.949   4
   5 -11  -3 474.576 304.397   2
   6   5  -3 494.598 190.244   5
   6   5  -3-28.4678 10.9864   4
 -11   6  -3 159.322 154.969   4
   6   5  -2 279.750 83.6228   5
   5 -11  -2-8.46285 184.521   2
   5 -11  -2-197.747 313.113   3
   5 -11  -1 202.375 15.3884   3
   6   5  -1-39.7704 82.8876   5
 -11   6  -1-9.97897 203.469   4
   5 -11  -1 195.200 94.2767   2
   5 -11   0 147.171 29.5703   3
   6   5   0 145.814 58.9705   5
 -11   6   0 255.328 143.003   5
   5 -11   1 209.357 354.530   3
 -11   6   1 22.2250 35.7886   5
   5 -11   2 2951.68 689.713   3
 -11   6   2 3394.62 581.354   5
   6   5   2 2575.42 334.297   1
   5 -11   3 1230.94 443.221   3
   6   5   3 1522.48 337.542   1
   5 -11   4-98.6161 196.375   3
   6   5   4 18.7886 110.946   1
   5 -11   5 318.562 323.091   3
   6   5   5 116.060 108.198   1
   5 -11   6 495.442 289.830   3
   6   5   6 31.7740 104.238   1
   5 -11   7 167.618 240.137   3
   6   5   7 11.2792 113.857   1
   5 -11   8 138.791 253.969   3
   6   5   8 1.72919 139.404   1
   5 -11   9-0.40536 93.7568   3
   6   5   9 0.32794 185.626   1
   5 -11  10 1.70143 300.327   3
   6   5  10 118.410 160.997   1
 -11   6  10 0.35045 80.6090   1
   5 -11  11 2.67458 242.880   3
 -11   6  11-0.38846 218.055   1
   5 -11  12 5.12747 269.593   3
   6   5  12 220.412 246.244   1
 -11   6  12-0.43053 61.7562   1
   6 -11 -11-338.064 360.841   2
   6 -11 -10-429.187 385.412   2
   6 -11  -9-508.236 397.508   2
   6 -11  -8-400.007 335.233   2
   6 -11  -7-7.36829 91.6149   2
   6 -11  -6 750.110 488.862   2
   6 -11  -5 737.620 422.006   2
   6 -11  -4 1061.57 560.102   2
   5   6  -4 1467.24 411.555   5
 -11   5  -4 945.701 482.581   4
   6 -11  -3 783.502 359.513   2
   5   6  -3 129.618 60.2513   5
 -11   5  -3 658.987 285.825   4
   6 -11  -2 284.185 124.591   2
   5   6  -2 362.388 184.335   5
   5   6  -1 255.418 354.170   5
 -11   5  -1-2.84212 178.831   4
   6 -11  -1-322.413 312.146   2
   6 -11  -1-344.072 337.642   3
   6 -11   0 196.090 203.404   3
   5   6   0 65.7863 46.5774   5
 -11   5   0 159.980 28.8102   5
   5   6   1-14.9190 80.2277   5
 -11   5   1-25.5187 37.5714   5
   5   6   1 25.1664 34.6673   1
   5   6   2 2189.37 317.096   1
   6 -11   2 2522.58 621.508   3
 -11   5   2 2659.36 546.947   2
   6 -11   3 1277.83 465.020   3
   5   6   3 1378.47 290.570   1
   6 -11   4 132.385 159.479   3
   5   6   4-18.8565 72.4554   1
   6 -11   5 365.667 314.241   3
   5   6   5 22.8847 88.5436   1
   5   6   6 24.7202 88.6479   1
   6 -11   6-15.5140 171.421   3
   5   6   7 16.9316 80.7417   1
   6 -11   7 642.169 441.758   3
   6 -11   8-578.381 361.964   3
   5   6   8 5.47646 115.376   1
   6 -11   9 0.39904 190.825   3
 -11   5   9 35.9534 172.938   1
   5   6   9 0.31129 61.3176   1
   6 -11  10 0.82872 251.566   3
   5   6  10 0.35811 125.226   1
 -11   5  10-15.0021 54.8361   1
 -11   5  11-0.75426 159.430   1
   6 -11  11-0.42897 61.5326   3
   5   6  11 0.40704 169.796   1
 -11   5  12 0.41750 162.909   1
   7 -11 -11-0.66438 183.666   2
   7 -11 -10-357.067 355.520   2
   7 -11  -9-0.53887 304.175   2
   7 -11  -8-865.797 498.123   2
   7 -11  -7 18.6398 146.754   2
   7 -11  -6 1205.27 547.643   2
   7 -11  -5 755.187 396.206   2
   7 -11  -4 297.561 292.188   2
   4   7  -4 96.4970 34.4605   5
 -11   4  -4-202.801 238.554   4
   7 -11  -3 650.441 388.009   2
   4   7  -3 779.171 299.574   5
   4   7  -3 19.6626 30.0833   4
 -11   4  -3 714.475 405.585   4
   4   7  -2 2418.25 255.425   1
   4   7  -2 2558.80 557.125   5
   4   7  -1 673.397 117.046   1
   4   7  -1 737.114 298.728   5
 -11   4  -1 158.298 160.325   4
   7 -11  -1 494.419 284.379   2
 -11   4   0 2210.56 352.218   5
   4   7   0 2159.75 504.167   5
   7 -11   0 1899.69 598.092   3
   4   7   1 10651.0 1185.55   5
 -11   4   1 8872.33 803.276   2
   7 -11   1 10452.7 1388.28   3
   4   7   2 6821.83 614.750   1
   4   7   2 6668.54 980.108   5
 -11   4   2 7373.94 899.332   2
   7 -11   2 7880.33 1181.23   3
   7 -11   3 4214.97 947.394   3
   4   7   3 3469.18 502.356   1
   7 -11   4 4026.67 938.822   3
   4   7   4 2583.54 492.380   1
   7 -11   5 1212.50 487.256   3
   4   7   5 1109.17 363.565   1
   7 -11   6 27.7116 75.5944   3
   4   7   6 126.656 42.6632   1
   7 -11   7-18.5260 176.590   3
   4   7   7-86.1769 109.971   1
   7 -11   8-729.610 400.502   3
   4   7   8-298.422 219.562   1
 -11   4   8-221.716 184.713   1
 -11   4   9 0.29521 161.644   1
   4   7   9-166.904 174.794   1
   7 -11   9-504.624 337.658   3
   7 -11  10-80.7346 137.052   3
 -11   4  10 115.268 149.175   1
   4   7  10 0.35180 207.888   1
   7 -11  11-0.40463 196.947   3
 -11   4  11 0.36809 135.055   1
   4   7  11-276.041 254.243   1
 -11   4  12-0.40935 241.486   1
   8 -11 -10 109.636 323.761   2
   8 -11  -9-370.038 347.397   2
   8 -11  -8 776.908 550.262   2
   8 -11  -7 101.067 237.213   2
   8 -11  -6-162.926 213.325   2
   8 -11  -5 283.472 288.978   2
   8 -11  -4 239.548 276.576   2
   3   8  -4 332.975 191.791   5
 -11   3  -4 151.039 90.4086   4
   3   8  -3 394.334 156.006   1
   3   8  -3 790.362 350.461   5
   3   8  -3 25.5817 58.7632   4
   8 -11  -3 902.093 438.898   2
 -11   3  -3 783.177 320.263   4
   8 -11  -2 748.891 367.962   2
   3   8  -2 456.235 212.508   5
   3   8  -2 532.176 159.290   1
 -11   3  -2 403.365 266.779   4
   3   8  -1 1384.45 422.224   5
   8 -11  -1 2139.07 640.559   2
 -11   3  -1 469.780 481.840   4
   3   8   0 385.765 97.9642   5
   8 -11   0 257.165 208.411   2
   3   8   1 10360.5 1265.49   5
 -11   3   1 8822.58 769.641   2
   8 -11   1 9797.65 1334.06   3
   3   8   2 7650.10 1110.69   5
 -11   3   2 6863.55 876.226   2
   8 -11   2 6647.86 1102.69   3
   8 -11   3 477.008 194.496   3
   3   8   3 472.400 295.774   5
   8 -11   4 169.208 151.950   3
   3   8   4-43.7572 73.8450   1
   3   8   5-24.5591 82.4012   1
   8 -11   5 176.045 296.415   3
   8 -11   6 152.176 224.174   3
   3   8   6 147.396 194.995   1
   8 -11   7-31.3158 45.4320   3
   3   8   7 54.4449 88.5978   1
   8 -11   8 19.0448 287.706   3
   3   8   8-132.282 147.162   1
 -11   3   8-111.358 128.864   1
   8 -11   9 175.097 232.106   3
 -11   3   9-205.546 185.731   1
   3   8   9-42.2808 263.465   1
   8 -11  10 319.199 262.994   3
   3   8  10-127.826 163.574   1
 -11   3  10 52.7087 100.099   1
   3   8  11 0.39658 191.348   1
 -11   3  11 0.36316 15.2511   1
   9 -11 -10-1.89915 75.1945   2
   9 -11  -9 193.409 323.595   2
   9 -11  -8-546.663 405.579   2
   9 -11  -7-106.947 170.241   2
   9 -11  -6-47.5662 94.9022   2
   9 -11  -5-121.519 211.970   2
   2   9  -5 254.374 218.956   5
   9 -11  -4 2333.01 725.630   2
   2   9  -4 2352.63 679.910   5
   2   9  -4 1427.24 484.457   4
 -11   2  -4 2419.68 775.889   4
   9 -11  -3 2008.99 684.102   2
   2   9  -3 1519.22 526.960   5
   2   9  -3-65.4100 78.2286   4
 -11   2  -3 2365.72 717.262   4
   2   9  -2 815.116 249.221   1
   2   9  -2 931.930 404.135   5
   9 -11  -2 1690.45 584.312   2
 -11   2  -1 640.125 252.579   1
 -11   2  -1 608.463 159.418   5
   2   9  -1 765.631 329.969   5
   9 -11  -1 685.835 315.108   2
   2   9   0 52.5243 75.5996   5
   9 -11   0-284.236 241.816   2
 -11   2   1 284.961 134.595   2
   2   9   1-28.1058 203.193   5
 -11   2   2 212.227 266.074   2
   2   9   2 265.776 254.203   5
   9 -11   2-163.640 283.854   3
   9 -11   3 713.783 279.592   3
   2   9   3 1531.70 555.148   5
   9 -11   4 390.072 366.335   3
   9 -11   5 174.900 230.571   3
   9 -11   6 436.153 341.170   3
 -11   2   6 659.871 284.610   1
   2   9   6 181.296 202.607   1
   9 -11   7-288.451 241.742   3
 -11   2   7-13.0028 40.7008   1
   2   9   7 34.5970 155.060   1
 -11   2   8-241.146 188.022   1
   9 -11   8-277.118 237.851   3
   2   9   8 50.8590 180.198   1
   9 -11   9 30.3220 266.660   3
 -11   2   9-55.4131 96.4613   1
   2   9   9-88.0724 129.478   1
   9 -11  10 6.84744 201.545   3
 -11   2  10-247.965 218.228   1
   2   9  10 0.35934 174.686   1
   2   9  11-222.914 230.252   1
  10 -11 -10 25.2153 381.097   2
  10 -11  -9 470.050 666.461   2
  10 -11  -8-363.478 334.775   2
  10 -11  -7 8.93431 98.0765   2
  10 -11  -6 328.401 270.311   2
  10 -11  -5 880.497 444.182   2
   1  10  -5 973.942 520.114   5
  10 -11  -4 2414.73 746.856   2
   1  10  -4 3084.91 899.079   5
   1  10  -4 2606.72 687.304   4
 -11   1  -4 3341.07 882.900   4
  10 -11  -3 5429.71 1044.32   2
   1  10  -3 4721.38 1019.94   5
 -11   1  -3 3216.79 870.661   4
 -11   1  -2 4514.47 666.351   5
   1  10  -2 4418.25 938.057   5
  10 -11  -2 5692.79 1031.60   2
 -11   1  -1 1845.38 372.030   1
  10 -11  -1 2630.96 673.420   2
   1  10  -1 2658.89 730.058   5
 -11   1  -1 1419.97 226.559   5
 -11   1   0 92.8853 36.6983   2
 -11   1   0 180.178 109.162   1
   1  10   0 49.8746 147.690   5
  10 -11   0 275.263 222.523   2
 -11   1   1 79.9322 32.1892   2
   1  10   1 32.9998 189.895   5
  10 -11   1 65.4039 173.481   2
   1  10   2-9.72577 148.285   5
   1  10   3-116.175 253.410   5
   1  10   4 415.206 220.442   5
  10 -11   4-62.0720 253.192   3
 -11   1   5 686.615 262.181   1
  10 -11   5 440.624 272.370   3
  10 -11   6 79.7573 183.378   3
 -11   1   6 160.792 159.520   1
  10 -11   7 170.942 140.502   3
   1  10   7 186.591 249.847   1
 -11   1   7 104.602 43.9369   1
  10 -11   8 0.34606 105.801   3
 -11   1   8 182.570 155.837   1
   1  10   8 127.412 150.027   1
  10 -11   9 2.44070 22.3670   3
   1  10   9 0.33449 146.207   1
   1  10  10 0.37342 151.230   1
   1  10  11 0.41025 89.5227   1
  11 -11 -10 57.5318 422.968   2
  11 -11  -9 300.816 535.134   2
  11 -11  -8-90.9346 169.601   2
  11 -11  -7 7.15666 44.8029   2
  11 -11  -6 102.079 143.493   2
  11 -11  -5 424.935 286.995   2
   0  11  -5 1412.68 675.546   5
   0  11  -5 575.763 417.448   4
  11 -11  -4 685.469 396.333   2
   0  11  -4 551.796 407.701   5
   0  11  -4 202.208 211.789   4
 -11   0  -4 567.938 333.169   4
  11 -11  -3 1570.74 570.772   2
   0  11  -3 1651.38 637.326   5
   0  11  -3 777.541 366.844   4
 -11   0  -3 467.926 334.556   4
  11 -11  -2 1358.50 493.130   2
   0  11  -2 1176.80 425.339   5
 -11   0  -2 694.299 573.050   4
  11 -11  -1 56.7766 74.3525   2
   0  11  -1-298.170 265.237   5
  11 -11   0 2427.47 611.573   2
   0  11   0 2005.24 675.632   5
   0  11   1-235.056 214.338   5
  11 -11   1-248.837 238.446   2
   0  11   2 1075.29 407.439   5
  11 -11   2 1123.47 406.250   2
   0  11   3 1225.61 568.329   5
 -11   0   3 920.570 214.297   1
   0  11   4 700.440 394.149   5
 -11   0   4 544.796 208.921   1
  11 -11   6-242.903 225.354   3
  11 -11   7-378.224 331.029   3
   0  11   8 72.7819 164.375   1
  11 -11   8-236.906 220.599   3
   0  11   9-382.967 281.119   1
   0  11  10 0.38753 256.291   1
  12 -11 -10 1.97340 283.966   2
  12 -11  -9-0.60534 296.825   2
  12 -11  -8 11.5150 226.405   2
  12 -11  -7 524.038 487.543   2
  -1  12  -6 135.928 206.830   4
  12 -11  -6-146.971 193.827   2
  12 -11  -5 0.77761 206.105   2
  -1  12  -5 580.798 567.993   5
  -1  12  -5 145.710 114.772   4
  12 -11  -4-600.384 351.204   2
  -1  12  -4-105.675 237.112   5
  -1  12  -4 410.903 401.377   4
 -11  -1  -4-464.741 352.097   4
  12 -11  -3 382.713 95.7626   2
  -1  12  -3 502.683 281.491   5
 -11  -1  -3 83.3749 222.884   4
  12 -11  -2 555.679 311.407   2
  -1  12  -2 590.796 264.192   5
  12 -11  -1 480.820 331.429   2
  -1  12  -1 163.493 109.570   5
  12 -11   0 1634.36 498.644   2
  -1  12   0 2119.21 663.894   5
  -1  12   1 84.4675 50.1527   5
  12 -11   1 547.417 282.344   2
  -1  12   2 1316.84 593.346   5
  12 -11   2 1523.44 461.826   2
  -1  12   3 1293.93 601.962   5
  12 -11   3 1109.58 441.756   2
  -1  12   4-20.0961 164.650   5
  -1  12   5-685.264 406.333   5
  -1  12   8-0.33589 93.2126   1
  -1  12   9 0.36666 123.186   1
  -1  12  10 0.40446 172.662   1
  13 -11  -9-144.269 227.217   2
  13 -11  -8-11.1755 308.051   2
  13 -11  -7 243.716 268.876   2
  -2  13  -7-131.408 196.465   4
  -2  13  -6 124.096 691.162   5
  -2  13  -6 208.766 330.761   4
  13 -11  -6 203.353 354.642   2
  -2  13  -5 907.451 593.428   5
  -2  13  -5 251.587 490.957   4
  13 -11  -5 105.067 131.032   2
  13 -11  -4-319.184 258.685   2
  -2  13  -4 536.850 514.384   5
  -2  13  -4 289.693 412.197   4
  13 -11  -3-265.707 223.483   2
  -2  13  -3 178.091 288.037   5
  13 -11  -2-159.866 248.718   2
  -2  13  -2-519.986 447.370   5
  13 -11  -1-48.8124 150.156   2
  -2  13  -1-188.353 197.838   5
  13 -11   0 700.121 310.920   2
  -2  13   0 444.537 137.289   5
  13 -11   1 711.225 277.488   2
  -2  13   1 1332.52 607.347   5
  -2  13   2 968.717 475.882   5
  13 -11   2 1158.60 400.061   2
  -2  13   3 1078.43 522.467   5
  13 -11   3 1926.29 483.856   2
  -2  13   4 1837.61 722.733   5
  13 -11   4 1426.13 461.263   2
  -2  13   5 1091.22 516.949   5
  -2  13   9 0.38827 147.654   1
  -2  13  10 0.42401 67.4136   1
  14 -11  -9-1.85325 327.809   2
  14 -11  -8-1.13131 134.378   2
  -3  14  -7 397.346 666.800   5
  14 -11  -7 68.1185 277.655   2
  -3  14  -7 435.639 374.144   4
  -3  14  -6 363.463 797.568   5
  14 -11  -6 708.023 752.656   2
  -3  14  -6 83.3637 165.587   4
  -3  14  -5 530.490 741.188   5
  14 -11  -5 29.9912 275.770   2
  -3  14  -4-103.160 142.177   5
  14 -11  -4-80.0381 108.061   2
  -3  14  -3-302.656 493.813   5
  14 -11  -3 57.5881 52.9253   2
  14 -11  -2 5.35546 123.481   2
  -3  14  -2-407.881 362.568   5
  14 -11  -1-150.986 80.7572   2
  -3  14  -1-618.195 426.342   5
  14 -11   0-42.9615 64.7522   2
  -3  14   0 124.798 281.806   5
  14 -11   1 55.4724 92.0823   2
  -3  14   1-246.791 300.879   5
  -3  14   2 374.044 390.520   5
  14 -11   2 615.178 255.606   2
  -3  14   3 243.607 316.175   5
  -3  14   4-124.277 180.722   5
  -3  14   5 373.045 348.422   5
  15 -11  -9 10.0644 225.184   2
  15 -11  -8-0.58156 232.554   2
  -4  15  -8 538.943 745.799   5
  -4  15  -7 881.938 1154.99   5
  15 -11  -7-437.363 370.772   2
  -4  15  -7-0.64469 168.352   4
  -4  15  -6 219.126 502.850   5
  15 -11  -6-243.414 265.536   2
  -4  15  -6-487.396 445.071   4
  -4  15  -5 107.880 235.846   5
  -4  15  -5-111.932 218.694   4
  15 -11  -5 53.0124 166.270   2
  -4  15  -4 432.454 496.277   5
  -4  15  -4 185.969 537.335   4
  15 -11  -4 512.153 384.435   2
  -4  15  -3 600.350 334.067   5
  15 -11  -3 98.8994 250.455   2
  -4  15  -2 268.861 250.148   5
  15 -11  -2 282.591 302.159   2
  -4  15  -1 397.304 331.122   5
  15 -11  -1 202.850 244.612   2
  -4  15   0 280.124 322.249   5
  -4  15   1 303.001 376.134   5
  -4  15   2 72.1151 245.092   5
  -4  15   3-432.860 347.149   5
  -4  15   4-491.287 372.425   5
  -4  15   5 104.314 224.357   5
  16 -11  -8-321.043 336.220   2
  16 -11  -7 0.55919 110.148   2
  -5  16  -7 394.076 1065.37   5
  -5  16  -6-1402.88 912.991   5
  16 -11  -6-166.795 224.674   2
  -5  16  -5 0.97101 411.166   5
  16 -11  -5-263.717 271.171   2
  -5  16  -5 588.954 546.804   4
  -5  16  -4 34.7499 71.6518   5
  16 -11  -4 497.553 395.776   2
  -5  16  -3 278.692 382.806   5
  -5  16  -2 219.098 442.345   5
  -5  16  -1 934.148 610.535   5
  -5  16   0 1813.71 890.931   5
  -5  16   1 321.205 42.5350   5
  -5  16   2 26.3687 135.925   5
  -5  16   3-417.849 355.974   5
  -5  16   4 173.194 315.378   5
  -5  16   5 1.04618 225.456   5
  -5  16   6 722.709 477.798   5
  -6  17  -6 30.3409 240.797   5
  -6  17  -5 727.076 901.115   5
  -6  17  -4 489.813 746.604   5
  -6  17  -3 732.445 618.287   5
  -6  17  -2 2.43589 39.3740   5
  -6  17  -1 318.070 503.720   5
  -6  17   0 300.129 328.966   5
  -6  17   1-281.811 321.389   5
  -6  17   2-591.674 451.626   5
  -6  17   3-44.7476 122.067   5
  -6  17   4 0.56083 254.029   5
  -6  17   5-78.0607 160.534   5
  -6  17   6 336.384 336.348   5
  -7  18  -4 1.05385 119.849   5
  -7  18  -3-1038.70 769.192   5
  -7  18  -2 2.71059 290.630   5
  -7  18  -1 135.160 255.123   5
  -7  18   0 477.532 459.833   5
  -7  18   1-729.021 547.056   5
  -7  18   2-183.440 265.802   5
  -7  18   3-418.870 392.652   5
  -7  18   4 275.707 416.474   5
  -8  19  -2 784.399 832.912   5
  -8  19  -1 665.752 891.938   5
  -8  19   0 15258.6 2818.45   5
  -8  19   1-0.78200 402.210   5
  -8  19   2 216.335 465.256   5
 -12  19  -2-178.145 319.294   5
 -12  19  -1-489.182 508.994   5
 -12  19   0-0.83067 368.082   5
  -7 -12   1-0.39932 252.843   3
 -12  19   1 0.76364 598.819   5
 -12  19   2 23.1794 415.421   5
 -12  19   3-307.568 344.348   5
 -12  18  -5-308.968 478.599   4
 -12  18  -4 0.98664 497.212   5
 -12  18  -3-412.405 479.977   5
 -12  18  -2 0.88258 208.573   5
  -6 -12  -2 37.5626 99.3706   2
 -12  18  -1 414.165 446.858   5
  -6 -12  -1 157.854 176.551   2
  -6 -12   0 25.4101 73.1170   3
 -12  18   0 112.725 540.949   5
  -6 -12   1 0.37577 222.613   3
 -12  18   1 0.67610 310.165   5
 -12  18   2 165.734 458.959   5
 -12  18   3 20.9743 107.582   5
 -12  18   4 1.12721 221.191   5
 -12  18   5-70.6322 152.567   5
 -12  17  -6 812.266 684.424   5
 -12  17  -6 1.15200 340.949   4
  -5 -12  -5-108.053 169.465   2
 -12  17  -5-147.391 284.306   5
 -12  17  -5-41.8601 169.157   4
  -5 -12  -4 64.1681 71.3036   2
 -12  17  -4-744.439 634.203   5
  -5 -12  -3 162.154 434.656   2
 -12  17  -3 3.48241 227.348   5
 -12  17  -2-0.80656 423.509   5
  -5 -12  -2 153.916 182.494   2
  -5 -12  -1 49.9563 161.551   3
 -12  17  -1 484.841 391.633   5
  -5 -12  -1 326.552 278.486   2
  -5 -12   0 101.865 190.263   3
 -12  17   0 187.220 320.140   5
  -5 -12   1-220.135 214.877   3
 -12  17   1-201.943 266.325   5
  -5 -12   2-0.37479 25.7025   3
 -12  17   2-518.703 410.201   5
 -12  17   3-505.466 392.896   5
 -12  17   4 5.61221 180.540   5
 -12  17   5 1.54838 92.8069   5
 -12  17   6 374.607 341.834   5
  -4 -12  -7 37.2363 215.991   2
 -12  16  -7 857.013 732.826   4
  -4 -12  -6 8.02180 151.830   2
 -12  16  -6 807.651 884.091   5
 -12  16  -6 1.05810 572.512   4
  -4 -12  -5-518.186 387.733   2
 -12  16  -5-1.03125 43.3078   4
  -4 -12  -4 97.8757 215.639   2
 -12  16  -4-0.83098 601.071   5
 -12  16  -4-1.04376 549.813   4
  -4 -12  -3-107.673 169.580   2
 -12  16  -3 1069.83 962.470   5
  -4 -12  -2-263.015 217.456   3
 -12  16  -2-65.0167 167.098   5
  -4 -12  -2 4.49009 114.699   2
  -4 -12  -1 245.685 131.113   3
 -12  16  -1-0.64922 804.026   5
  -4 -12   0 186.966 253.820   3
 -12  16   0 860.273 661.307   5
  -4 -12   1 177.923 322.729   3
 -12  16   1 62.2676 268.074   5
  -4 -12   2-179.783 193.783   3
 -12  16   2 0.49098 273.020   5
 -12  16   3 87.2008 236.893   5
 -12  16   4 102.381 257.478   5
 -12  16   5-314.824 298.255   5
 -12  16   6-108.124 178.790   5
  -3 -12  -8-245.856 290.524   2
 -12  15  -8 0.96068 330.231   4
  -3 -12  -7 162.459 402.911   2
 -12  15  -7-415.685 486.606   4
  -3 -12  -6 24.3169 125.582   2
 -12  15  -6 216.301 835.715   4
  -3 -12  -5 964.023 620.223   2
 -12  15  -5 337.739 489.344   5
  -3 -12  -4 460.262 385.182   2
 -12  15  -4 74.0361 551.778   5
 -12  15  -4 54.2012 483.403   4
  -3 -12  -3 480.744 267.861   3
  -3 -12  -3 0.85943 137.829   2
 -12  15  -3 159.787 494.665   5
 -12  15  -3 0.92042 373.428   4
  -3 -12  -2-162.484 170.165   3
 -12  15  -2 43.7785 354.607   5
  -3 -12  -2 6.26278 179.669   2
  -3 -12  -1-310.065 239.539   3
 -12  15  -1-3.45529 337.429   5
  -3 -12   0 44.6780 109.972   3
 -12  15   0 422.657 312.551   5
  -3 -12   1 250.806 287.692   3
 -12  15   1 614.579 478.000   5
  -3 -12   2 116.858 235.136   3
 -12  15   2 306.150 327.905   5
 -12  15   3 337.904 238.289   5
 -12  15   4 73.4499 272.772   5
 -12  15   5-408.675 330.109   5
 -12  15   6-214.837 246.928   5
  -2 -12  -9-956.803 608.599   2
  -2 -12  -8-0.61568 140.037   2
 -12  14  -8-0.90841 184.278   4
  -2 -12  -7-142.078 217.870   2
 -12  14  -7 7.53959 424.121   4
  -2 -12  -6-352.994 329.670   2
 -12  14  -6 0.83954 284.250   4
  -2 -12  -5-51.0757 120.283   2
 -12  14  -5 31.0509 366.391   4
  -2 -12  -4-391.250 244.935   3
  -2 -12  -4-209.783 231.680   2
 -12  14  -4 2.06441 261.156   5
  -2 -12  -3 46.7002 147.662   3
  -2 -12  -3 25.9317 118.863   2
 -12  14  -3 338.257 449.556   5
 -12  14  -3-606.646 536.732   4
  -2 -12  -2-112.425 148.490   3
 -12  14  -2 201.099 296.455   5
  -2 -12  -1-425.868 278.563   3
 -12  14  -1 237.096 406.259   5
  -2 -12   0 136.696 148.769   3
 -12  14   0-180.956 427.779   5
  -2 -12   1 452.083 199.181   3
 -12  14   1 497.132 440.434   5
  -2 -12   2 55.5872 78.1386   3
 -12  14   2 232.262 107.622   5
  -2 -12   3 208.934 239.151   3
 -12  14   3 414.736 304.369   5
 -12  14   4 376.091 356.891   5
 -12  14   5 0.86649 226.518   5
  -1 -12 -10 5.10229 426.354   2
  -1 -12  -9-137.724 233.225   2
 -12  13  -9 0.95450 308.764   4
  -1 -12  -8 130.901 396.852   2
 -12  13  -8 1000.64 794.799   4
  -1 -12  -7 14.8868 69.4645   2
 -12  13  -7 0.78466 117.278   4
  -1 -12  -6 0.49928 105.535   2
 -12  13  -6 2.17168 295.784   4
  -1 -12  -5 260.360 334.122   2
 -12  13  -5 6.51590 510.575   4
  -1 -12  -4 325.788 219.287   2
 -12  13  -4 22.9339 247.582   4
  -1 -12  -4 267.564 251.747   3
  -1 -12  -3 381.182 266.155   3
  -1 -12  -3 471.272 253.636   2
 -12  13  -3 1236.58 572.411   5
 -12  13  -3 110.484 361.547   4
  -1 -12  -2 434.673 239.179   3
 -12  13  -2 115.554 279.964   5
 -12  13  -2-200.678 287.211   4
  -1 -12  -2 64.3013 146.989   2
  -1 -12  -1 443.776 247.657   3
 -12  13  -1 687.234 425.707   5
  -1 -12   0 429.764 308.462   3
 -12  13   0-322.324 363.222   5
  -1 -12   1-495.591 301.347   3
 -12  13   1-298.139 343.114   5
  -1 -12   2 316.431 349.026   3
 -12  13   2-244.474 294.096   5
  -1 -12   3 440.190 393.987   3
 -12  13   3 512.089 352.918   5
  -1 -12   4 358.329 300.961   3
 -12  13   4 723.263 435.162   5
 -12  13   5 224.094 221.857   5
   0 -12 -10 0.72456 194.041   2
   0 -12  -9 113.160 385.552   2
   0 -12  -8 28.7832 189.484   2
 -12  12  -8-855.869 642.550   4
   0 -12  -7 0.52304 188.528   2
 -12  12  -7-1026.61 680.743   4
   0 -12  -6-509.049 375.395   2
 -12  12  -6 74.0811 395.710   4
   0 -12  -5 434.081 315.738   2
 -12  12  -5 197.076 309.584   4
   0 -12  -4 487.207 351.213   2
 -12  12  -4 49.6816 265.419   4
   0 -12  -4 674.445 260.188   3
   0 -12  -3 1290.95 458.740   3
   0 -12  -3 1169.56 512.112   2
 -12  12  -3 164.813 501.546   4
 -12  12  -2 1071.41 533.703   5
 -12  12  -2 330.251 444.204   4
   0 -12  -2 470.673 292.889   2
   0 -12  -1 1720.88 493.657   3
 -12  12  -1 655.411 455.834   5
   0 -12   0 1174.56 409.118   3
 -12  12   0 1264.90 487.159   5
   0 -12   1 843.502 389.771   3
 -12  12   1 799.444 406.152   5
   0 -12   2 1393.22 493.951   3
 -12  12   2 1092.84 401.879   5
   0 -12   3 1688.34 616.073   3
 -12  12   3 1246.43 518.637   5
   0 -12   4 917.046 480.397   3
 -12  12   4 787.991 487.589   5
   0 -12   5 592.085 393.936   3
 -12  12   5 643.618 433.563   5
   1 -12 -10-370.750 389.732   2
   1 -12  -9-0.62308 251.888   2
   1 -12  -8 588.259 438.705   2
   1 -12  -7-319.254 304.788   2
 -12  11  -7-916.580 615.659   4
   1 -12  -6 100.931 191.877   2
 -12  11  -6 333.393 588.523   4
   1 -12  -5-569.428 369.124   2
 -12  11  -5 0.55989 272.517   4
   1 -12  -4 150.941 254.357   2
 -12  11  -4-546.363 424.685   4
   1 -12  -3 1296.50 455.220   3
   1 -12  -3 1036.48 501.962   2
   1 -12  -2 1474.45 528.471   3
 -12  11  -2 1750.11 634.781   5
 -12  11  -2-226.395 272.424   4
   1 -12  -2 1669.56 539.260   2
   1 -12  -1 175.649 102.732   3
 -12  11  -1 23.3774 97.9193   5
   1 -12   0 1303.47 436.439   3
 -12  11   0 1541.47 504.375   5
   1 -12   1 250.357 160.609   3
 -12  11   1 482.584 309.476   5
   1 -12   2 342.160 49.9090   3
 -12  11   2 398.401 270.260   5
   1 -12   3-64.9374 95.7718   3
 -12  11   3-18.2798 234.434   5
   1 -12   4-8.09757 218.898   3
 -12  11   4-94.4299 247.227   5
   1 -12   5 257.200 240.714   3
 -12  11   5-106.496 154.561   5
   1 -12   6-64.8479 173.056   3
   1 -12   7 654.772 489.914   3
   1 -12   8 242.460 370.022   3
   1 -12   9 100.274 278.996   3
   1 -12  10 232.028 257.317   3
   2 -12 -10 32.5377 494.673   2
   2 -12  -9-471.799 405.454   2
   2 -12  -8 0.53013 426.111   2
   2 -12  -7-188.286 228.832   2
   2 -12  -6-183.054 215.038   2
 -12  10  -6-521.215 429.934   4
   2 -12  -5 674.691 456.156   2
 -12  10  -5 389.959 446.661   4
   2 -12  -4 1396.00 558.572   2
 -12  10  -4 417.105 499.362   4
   2 -12  -3 158.697 194.167   3
   2 -12  -3-22.8491 214.391   2
   2 -12  -2 263.785 94.7411   3
 -12  10  -2 517.688 371.368   5
   2 -12  -2 197.588 149.152   2
   2 -12  -1 561.337 281.576   3
 -12  10  -1 616.258 291.511   5
   2 -12   0-313.124 253.482   3
 -12  10   0-130.207 171.406   5
   2 -12   1 170.545 55.7546   3
 -12  10   1 592.343 307.093   5
   2 -12   2-84.5569 182.840   3
 -12  10   2 564.753 283.021   5
   2 -12   3 295.801 291.395   3
 -12  10   3 42.8554 140.430   5
   2 -12   4 195.848 208.809   3
 -12  10   4 180.917 103.326   5
   2 -12   5 196.462 216.157   3
   2 -12   6 202.841 330.712   3
   2 -12   7 401.604 444.901   3
   2 -12   8 146.818 233.914   3
   2 -12   9 249.228 354.901   3
   2 -12  10 0.47867 305.305   3
   3 -12 -10 110.748 203.565   2
   3 -12  -9 25.6378 241.641   2
   3 -12  -8 16.8560 360.220   2
   3 -12  -7 93.3220 216.134   2
   3 -12  -6 109.929 62.7113   2
 -12   9  -6-100.894 181.331   4
   3 -12  -5 929.979 499.430   2
 -12   9  -5 50.0557 256.858   4
   3 -12  -4 2824.92 837.709   2
 -12   9  -4 2083.91 852.248   4
   3 -12  -3 1764.51 572.881   2
 -12   9  -3 293.616 376.745   4
   3 -12  -3 2019.50 624.015   3
   3 -12  -2 1106.34 399.210   3
 -12   9  -2 126.291 186.351   4
   3 -12  -2 698.467 357.772   2
   3 -12  -1 2230.16 624.004   3
 -12   9  -1 2182.95 589.549   5
   3 -12   0 842.835 336.401   3
 -12   9   0 1312.91 450.280   5
   3 -12   1-171.014 248.684   3
 -12   9   1-18.2786 45.3199   5
   3 -12   2 343.254 248.546   3
 -12   9   2 438.667 276.994   5
   3 -12   3 1864.08 633.372   3
 -12   9   3 1773.16 556.813   5
   3 -12   4 265.381 165.880   3
 -12   9   4 296.849 297.645   5
   3 -12   5 422.490 367.402   3
   3 -12   6 703.533 460.221   3
   3 -12   7-143.878 182.846   3
   3 -12   8 283.106 281.351   3
   3 -12   9-140.448 191.564   3
   3 -12  10 0.47443 307.802   3
   3 -12  11 174.227 395.242   3
   4 -12 -10 4.96091 127.579   2
   4 -12  -9-674.703 470.091   2
   4 -12  -8-178.614 229.849   2
   4 -12  -7 93.8026 198.729   2
   4 -12  -6-52.9213 167.851   2
   4 -12  -5 215.414 119.995   2
 -12   8  -5 519.110 529.419   4
   4 -12  -4 1704.28 645.675   2
   8   4  -4 1053.76 229.860   5
 -12   8  -4 875.885 600.170   4
   8   4  -3 683.429 163.047   5
   4 -12  -3 1083.01 449.574   2
   4 -12  -2 571.853 274.574   3
   4 -12  -2 645.775 333.445   2
 -12   8  -2-51.2942 125.815   4
   4 -12  -1-2.44176 108.259   3
 -12   8  -1 69.1960 22.5199   4
   4 -12   0 326.681 303.606   3
 -12   8   0 110.020 164.715   5
   4 -12   1 148.438 254.260   3
 -12   8   1 33.8687 9.11751   5
   4 -12   2-256.209 263.764   3
 -12   8   2 96.3770 104.793   5
   4 -12   3 6.12974 105.739   3
 -12   8   3 147.591 109.895   5
   4 -12   4 606.483 370.349   3
   4 -12   5 342.470 323.890   3
   8   4   6 4.75620 134.731   1
   4 -12   6 218.043 246.143   3
   4 -12   7 284.560 167.140   3
   8   4   7 184.472 164.837   1
   4 -12   8 83.2329 143.418   3
   8   4   8-162.564 171.696   1
   4 -12   9-183.196 218.566   3
   8   4   9 0.34568 156.130   1
   8   4  10 347.627 280.176   1
   4 -12  10-317.509 296.310   3
   8   4  11 37.5011 96.9269   1
   4 -12  11 0.49827 408.439   3
 -12   8  11-0.43476 275.487   1
   5 -12 -10-459.301 407.182   2
   5 -12  -9 207.456 362.160   2
   5 -12  -8-260.166 277.426   2
   5 -12  -7 102.961 154.935   2
   5 -12  -6 111.583 78.1242   2
   7   5  -5 206.812 119.554   5
 -12   7  -5 11.4909 191.734   4
   5 -12  -4-43.6787 184.617   2
   7   5  -4 54.4691 97.4457   5
 -12   7  -4 74.2889 192.744   4
   7   5  -3 315.721 161.352   5
   5 -12  -3 311.984 266.783   2
   7   5  -2-35.6205 89.2117   5
   5 -12  -2-92.9331 267.884   2
 -12   7  -2 104.178 292.050   4
   5 -12  -2-263.984 390.152   3
   5 -12  -1 1073.27 465.130   3
   7   5  -1 1736.91 357.828   5
 -12   7  -1 1393.68 384.086   5
 -12   7  -1 42.0665 257.789   4
   5 -12  -1 1133.24 461.409   2
   5 -12   0 2092.62 583.550   3
 -12   7   0 1546.52 404.501   5
   5 -12   1 2365.17 702.145   3
 -12   7   1 3125.84 593.527   5
   5 -12   2 2817.27 723.120   3
 -12   7   2 4117.16 717.140   5
   5 -12   3 2953.72 815.758   3
 -12   7   3 3298.93 630.944   5
   5 -12   4 872.093 431.526   3
   7   5   4 1381.85 356.946   1
   5 -12   5-187.633 254.603   3
   7   5   5-52.0490 35.3175   1
   7   5   6-31.1665 14.7007   1
   5 -12   6-238.524 293.439   3
   5 -12   7-179.152 207.789   3
   7   5   7-66.9229 146.374   1
   5 -12   8-63.9844 126.669   3
   7   5   8-56.9197 124.145   1
   5 -12   9 93.1670 156.254   3
   7   5   9 3.74096 27.3482   1
   5 -12  10-0.46746 186.237   3
   7   5  10-0.38014 156.416   1
 -12   7  10-484.060 330.640   1
 -12   7  11 0.42373 273.755   1
   5 -12  11-0.49031 26.5827   3
   7   5  11 2.51653 218.818   1
   6 -12 -10 242.316 484.967   2
   6 -12  -9 47.4002 376.647   2
   6 -12  -8 63.5818 208.932   2
   6 -12  -7-85.0156 307.261   2
   6 -12  -6 1262.96 594.134   2
   6 -12  -5 1628.72 644.635   2
   6   6  -5 1164.44 420.623   5
 -12   6  -5 1024.95 707.507   4
   6 -12  -4 2359.31 761.063   2
   6   6  -4 911.998 310.632   5
 -12   6  -4 1430.21 644.267   4
   6 -12  -3 20.2366 122.646   2
   6   6  -3 185.819 163.956   5
 -12   6  -3-123.961 197.869   4
   6   6  -2 126.143 118.174   5
   6 -12  -2 217.936 190.808   2
 -12   6  -2 110.004 368.635   4
   6   6  -1 295.579 166.991   5
 -12   6  -1 140.299 100.687   5
 -12   6  -1-158.068 269.031   4
   6 -12  -1-139.569 198.899   2
   6 -12  -1 96.0511 385.200   3
   6 -12   0 875.871 396.256   3
   6   6   0 839.442 271.759   5
 -12   6   0 684.955 226.837   5
   6 -12   1 1022.84 468.498   3
 -12   6   1 1338.37 350.288   5
 -12   6   2 10186.3 925.527   5
   6 -12   2 10931.3 1508.85   3
   6   6   2 8658.33 585.385   1
   6 -12   3 11374.2 1610.56   3
   6   6   3 9274.39 810.753   1
   6 -12   4 1485.37 560.197   3
   6   6   4 1551.40 383.376   1
   6 -12   5 618.174 325.111   3
   6   6   5 873.900 338.429   1
   6 -12   6 208.213 210.515   3
   6   6   6 246.160 184.733   1
   6 -12   7-302.394 270.994   3
   6   6   7 76.7742 29.9273   1
   6 -12   8-431.914 329.029   3
   6   6   8-177.469 172.118   1
   6 -12   9-69.2950 134.089   3
   6   6   9 344.208 256.700   1
   6 -12  10 2.29250 161.098   3
 -12   6  10 152.452 181.447   1
   6   6  10-68.2781 121.385   1
   6 -12  11 0.47425 274.285   3
   6   6  11 0.41421 17.3949   1
 -12   6  11 0.40586 72.3135   1
   7 -12 -10 143.936 461.992   2
   7 -12  -9 0.56786 183.692   2
   7 -12  -8-155.321 217.426   2
   7 -12  -7-0.94829 127.499   2
   7 -12  -6-88.1483 117.239   2
   7 -12  -5-452.618 328.064   2
   5   7  -5 268.158 203.786   5
   7 -12  -4 36.3221 253.197   2
   5   7  -4-36.9909 157.408   5
 -12   5  -4-214.619 280.536   4
   7 -12  -3 362.369 369.954   2
   5   7  -3-7.04275 127.718   5
 -12   5  -3 224.487 235.497   4
   5   7  -2-170.006 117.417   5
   7 -12  -2-17.1408 173.823   2
 -12   5  -2 300.193 349.948   4
   5   7  -1 1550.34 417.426   5
   7 -12  -1 1782.76 540.537   2
   5   7   0 1620.82 429.684   5
 -12   5   0 1930.50 387.219   5
   7 -12   0 1155.51 450.196   3
   7 -12   1 1883.42 539.852   3
   5   7   1 3320.62 723.810   5
 -12   5   1 2645.30 365.660   5
   5   7   1 2328.32 238.478   1
   5   7   2 3016.79 395.734   1
   7 -12   2 3203.22 825.894   3
   5   7   3 2703.60 447.533   1
   7 -12   3 3096.76 811.328   3
   7 -12   4 1525.39 663.637   3
   5   7   4 1030.19 296.186   1
   7 -12   5-352.801 385.959   3
   5   7   5 110.120 70.2475   1
   7 -12   6-64.4076 89.8319   3
   5   7   6-57.2523 171.854   1
   5   7   7-103.061 120.225   1
   7 -12   7 23.1803 124.723   3
   7 -12   8-458.149 335.692   3
   5   7   8 37.1995 77.3409   1
   7 -12   9-262.917 257.683   3
   5   7   9-70.7514 113.608   1
 -12   5   9-261.451 221.508   1
   7 -12  10-400.717 322.253   3
 -12   5  10-0.35430 196.830   1
   5   7  10 1.78119 108.913   1
 -12   5  11-0.39418 178.545   1
   7 -12  11-356.800 306.820   3
   5   7  11-0.80780 77.7298   1
   8 -12 -10 601.776 477.423   2
   8 -12  -9 0.58167 183.341   2
   8 -12  -8-275.520 292.668   2
   8 -12  -7-613.750 417.572   2
   8 -12  -6-6.65796 175.522   2
   8 -12  -5 351.583 127.086   2
   4   8  -5 564.536 365.976   5
   8 -12  -4 2185.79 774.731   2
   4   8  -4 1699.23 521.236   5
 -12   4  -4 1637.99 643.536   4
   8 -12  -3 1753.50 660.122   2
   4   8  -3 871.464 364.606   5
 -12   4  -3 846.774 494.210   4
   8 -12  -2 851.502 425.650   2
   4   8  -2 1232.01 437.682   5
   4   8  -2 765.347 145.757   1
 -12   4  -2 109.858 110.304   4
   4   8  -1 319.830 200.189   5
   4   8  -1 235.526 79.4307   1
   8 -12  -1-149.042 32.5320   2
   4   8   0-237.762 297.006   5
 -12   4   0 126.020 89.2591   5
   8 -12   0-443.896 447.250   2
   8 -12   0-514.986 538.236   3
   4   8   1 61.6626 94.1743   5
   8 -12   1-331.068 417.202   3
   8 -12   2 102.978 286.034   3
   4   8   2-21.5687 65.8007   1
   4   8   2-55.5012 219.128   5
   8 -12   3 162.277 182.738   3
   4   8   3-37.8409 83.9208   1
   8 -12   4 745.122 453.978   3
   4   8   4 998.048 301.313   1
   8 -12   5 627.788 466.981   3
   4   8   5 120.081 112.814   1
   8 -12   6 407.648 338.581   3
   4   8   6-88.2740 135.166   1
   8 -12   7 198.589 218.805   3
   4   8   7 101.319 180.634   1
   8 -12   8-143.226 183.026   3
 -12   4   8 15.8872 50.5797   1
   4   8   8-52.9778 92.7012   1
   8 -12   9 91.7197 190.551   3
   4   8   9-218.140 200.193   1
 -12   4   9-163.935 172.491   1
 -12   4  10 43.1501 93.5770   1
   8 -12  10 257.847 250.673   3
   4   8  10 0.35124 262.626   1
   4   8  11 45.4600 102.339   1
   9 -12 -10 345.570 551.254   2
   9 -12  -9-25.7408 95.1764   2
   9 -12  -8-281.683 299.215   2
   9 -12  -7 122.561 200.145   2
   9 -12  -6 389.929 320.519   2
   9 -12  -5 653.441 433.537   2
   3   9  -5 1001.64 513.885   5
   9 -12  -4 2005.35 735.297   2
   3   9  -4 2487.91 665.034   5
   3   9  -4 327.881 204.246   4
 -12   3  -4 1212.02 485.803   4
   9 -12  -3 2662.67 774.780   2
   3   9  -3 1833.63 560.387   5
 -12   3  -3 280.571 338.232   4
   9 -12  -2 1648.31 551.683   2
   3   9  -2 739.942 312.302   5
   3   9  -1 2531.31 647.229   5
   9 -12  -1 2397.44 656.584   2
   3   9   0 853.899 335.597   5
   9 -12   0 934.115 406.732   2
   3   9   1 76.1687 58.7591   5
   3   9   2 462.337 352.451   5
   9 -12   2 126.125 285.694   3
   9 -12   3 1336.21 564.947   3
   3   9   3 1681.13 561.629   5
   9 -12   4 357.590 317.917   3
   3   9   4 116.148 131.285   1
   9 -12   5 651.132 474.933   3
   3   9   5 582.173 285.078   1
   9 -12   6 738.869 505.452   3
   3   9   6 673.146 318.380   1
   3   9   7 20.1386 97.2013   1
   9 -12   7 205.539 216.063   3
 -12   3   7 12.9246 87.7146   1
   9 -12   8 0.39115 88.9676   3
 -12   3   8 48.7077 278.114   1
   3   9   8 8.99544 122.494   1
   9 -12   9-27.9708 80.4854   3
   3   9   9 0.31726 87.0283   1
 -12   3   9 37.6477 81.9728   1
   9 -12  10-3.22476 96.7526   3
   3   9  10-31.0511 80.7160   1
   3   9  11-0.39616 82.6286   1
  10 -12 -10-294.003 342.176   2
  10 -12  -9-318.109 339.213   2
  10 -12  -8-0.55142 148.879   2
  10 -12  -7-764.398 474.133   2
  10 -12  -6-121.424 180.173   2
   2  10  -6-107.771 173.432   5
  10 -12  -5 472.423 345.034   2
   2  10  -5 700.368 441.167   5
   2  10  -5 483.815 370.266   4
  10 -12  -4 1181.83 523.542   2
   2  10  -4 1165.89 487.411   5
   2  10  -4-9.86177 77.3664   4
 -12   2  -4 623.170 394.604   4
  10 -12  -3-63.5638 37.7406   2
   2  10  -3 233.781 44.4833   5
 -12   2  -3 202.517 193.418   4
  10 -12  -2 451.544 327.562   2
   2  10  -2 194.380 150.467   5
 -12   2  -2-343.801 338.900   4
  10 -12  -1 617.552 391.106   2
   2  10  -1 1001.22 442.933   5
   2  10   0-267.093 276.956   5
  10 -12   0 135.635 237.858   2
   2  10   1 135.531 97.2841   5
  10 -12   1 563.846 291.371   2
   2  10   2 143.168 165.096   5
   2  10   3 8.00322 180.249   5
  10 -12   3-47.8669 276.731   3
  10 -12   4 190.388 277.336   3
  10 -12   5-326.915 270.289   3
  10 -12   6-38.9446 93.4950   3
 -12   2   6 153.528 162.303   1
   2  10   6 17.0036 168.084   1
  10 -12   7 184.877 203.962   3
 -12   2   7 232.823 215.187   1
   2  10   7 201.707 230.453   1
  10 -12   8-197.543 211.262   3
   2  10   8 0.29154 65.1702   1
  10 -12   9 288.770 256.345   3
   2  10   9 0.32716 117.388   1
   2  10  10 0.36165 66.7799   1
   2  10  11 0.40562 173.160   1
  11 -12  -9 76.3654 167.633   2
  11 -12  -8-464.108 392.010   2
  11 -12  -7 2.53577 180.721   2
  11 -12  -6 21.0901 124.781   2
   1  11  -6-178.748 242.275   5
   1  11  -5-100.253 168.541   5
   1  11  -5 220.315 175.030   4
 -12   1  -5 0.33684 94.1860   4
   1  11  -4 39.3175 110.876   5
 -12   1  -4 141.703 60.0266   4
  11 -12  -3 974.156 466.567   2
   1  11  -3 1225.00 515.112   5
  11 -12  -2 1402.82 563.867   2
   1  11  -2 529.702 253.749   5
  11 -12  -1 472.791 295.093   2
   1  11  -1 399.235 300.432   5
   1  11   0 981.928 381.725   5
  11 -12   0 1297.28 504.914   2
   1  11   1 540.508 323.726   5
  11 -12   1 374.587 210.536   2
   1  11   2 277.261 78.3188   5
  11 -12   2 496.967 258.134   2
   1  11   3 191.411 69.8987   5
   1  11   4-232.937 163.764   5
  11 -12   5 22.8162 141.890   3
  11 -12   6-373.182 289.626   3
   1  11   7 98.8552 221.546   1
  11 -12   7 39.5719 94.0831   3
   1  11   8 30.5924 197.644   1
  11 -12   8-0.38095 161.839   3
   1  11   9-187.937 193.597   1
  11 -12   9-60.9820 116.892   3
   1  11  10-0.37721 96.3585   1
  12 -12  -9-149.298 236.136   2
  12 -12  -8-222.149 273.799   2
  12 -12  -7-0.51303 64.6352   2
   0  12  -6 591.701 588.220   5
  12 -12  -6-89.2330 155.334   2
  12 -12  -5 0.41710 207.503   2
   0  12  -5 443.735 538.727   5
   0  12  -5 56.5483 114.256   4
 -12   0  -5 572.520 320.236   4
  12 -12  -4 566.700 368.700   2
   0  12  -4 91.9043 141.214   4
 -12   0  -4 160.080 253.659   4
  12 -12  -3 1086.48 477.518   2
   0  12  -3 1546.63 675.298   5
 -12   0  -3 163.145 453.069   4
  12 -12  -2 842.744 442.022   2
   0  12  -2 1328.47 485.771   5
  12 -12  -1 1228.59 513.702   2
   0  12  -1 1235.24 531.225   5
  12 -12   0 1301.01 486.401   2
   0  12   0 1030.08 501.362   5
   0  12   1 1154.23 523.273   5
  12 -12   1 1040.83 383.823   2
   0  12   2 1273.22 571.216   5
  12 -12   2 1526.02 496.580   2
   0  12   3 1750.73 634.263   5
   0  12   4 545.525 512.400   5
   0  12   8 0.31978 40.2882   1
   0  12   9-0.35675 32.3649   1
   0  12  10 0.39246 142.418   1
  13 -12  -9 0.63894 212.414   2
  13 -12  -8 143.021 514.854   2
  -1  13  -7 0.82335 212.210   5
  13 -12  -7 418.386 359.101   2
  -1  13  -6 274.227 568.111   5
  13 -12  -6-402.233 332.367   2
  -1  13  -5 181.705 489.399   5
  13 -12  -5-49.9465 111.013   2
  13 -12  -4 804.711 410.066   2
  -1  13  -4 768.997 510.860   5
  -1  13  -4 110.539 290.348   4
  13 -12  -3 186.924 205.203   2
  -1  13  -3 49.5050 78.2616   5
  13 -12  -2 219.452 227.205   2
  -1  13  -2 113.645 41.2399   5
  13 -12  -1 1953.19 609.315   2
  -1  13  -1 587.866 387.315   5
  13 -12   0-74.0288 79.5124   2
  -1  13   0 299.623 340.034   5
  13 -12   1 153.868 207.056   2
  -1  13   1 104.408 347.495   5
  -1  13   2-72.5889 78.0421   5
  13 -12   2-38.0663 122.500   2
  -1  13   3 120.202 192.272   5
  13 -12   3 163.086 156.785   2
  -1  13   4 495.360 346.140   5
  -1  13   5 148.137 215.873   5
  -1  13   8-189.661 195.374   1
  -1  13   9 0.37272 136.754   1
  -1  13  10-97.5708 153.346   1
  14 -12  -9 0.63874 376.178   2
  -2  14  -8 55.7429 294.250   5
  14 -12  -8 861.748 546.074   2
  -2  14  -7 128.849 473.896   5
  14 -12  -7 125.757 212.409   2
  -2  14  -6 433.107 715.478   5
  14 -12  -6 71.9980 130.115   2
  -2  14  -5-1192.55 728.581   5
  14 -12  -5 37.0027 117.101   2
  -2  14  -4-907.577 598.241   5
  14 -12  -4-220.262 223.688   2
  14 -12  -3-155.531 321.127   2
  -2  14  -3 346.111 373.522   5
  14 -12  -2-322.376 245.100   2
  -2  14  -2 649.203 433.460   5
  14 -12  -1-21.1903 56.4052   2
  -2  14  -1-316.874 298.606   5
  14 -12   0 327.360 219.269   2
  -2  14   0 134.871 267.215   5
  14 -12   1 503.943 274.552   2
  -2  14   1 516.165 442.294   5
  14 -12   2 275.536 205.650   2
  -2  14   2-449.828 340.167   5
  -2  14   3 34.7963 200.613   5
  -2  14   4 328.683 286.928   5
  -2  14   5 29.0993 90.3357   5
  -2  14   9 0.39573 73.0723   1
  -3  15  -8 1.06005 767.624   5
  15 -12  -8 0.59386 303.401   2
  -3  15  -7 546.724 711.421   5
  15 -12  -7 1232.50 630.415   2
  -3  15  -6 437.933 692.284   5
  15 -12  -6 411.140 429.446   2
  -3  15  -5 520.020 558.575   5
  15 -12  -5 377.122 409.345   2
  -3  15  -4 156.604 64.4772   5
  15 -12  -4 212.474 196.744   2
  -3  15  -3 159.678 51.8770   5
  15 -12  -3 149.570 91.8971   2
  15 -12  -2 63.4022 152.009   2
  -3  15  -2-813.790 537.813   5
  15 -12  -1-15.8083 171.089   2
  -3  15  -1 98.1168 80.3921   5
  15 -12   0 184.767 193.206   2
  -3  15   0-24.9971 187.177   5
  -3  15   1 224.691 251.768   5
  -3  15   2 296.560 195.187   5
  -3  15   3 25.9482 162.694   5
  -3  15   4 0.98213 105.155   5
  -3  15   5 45.4247 122.985   5
  16 -12  -8-526.364 433.930   2
  -4  16  -7-594.878 615.578   5
  16 -12  -7-53.8895 133.355   2
  -4  16  -6-8.21254 70.4002   5
  16 -12  -6 4.68228 37.8423   2
  -4  16  -5 69.8139 260.283   5
  16 -12  -5-105.967 109.059   2
  -4  16  -4-152.738 279.147   5
  16 -12  -4 108.586 164.501   2
  -4  16  -3-842.329 616.062   5
  16 -12  -3 179.197 229.729   2
  -4  16  -2 146.403 319.890   5
  -4  16  -1 399.493 389.607   5
  -4  16   0 1842.56 773.676   5
  -4  16   1 188.401 265.802   5
  -4  16   2-6.30235 73.1509   5
  -4  16   3 15.6311 63.1653   5
  -4  16   4 0.52413 97.6121   5
  -4  16   5 0.53375 171.687   5
  -5  17  -6-1.11422 443.087   5
  -5  17  -5-926.184 753.585   5
  -5  17  -4-716.798 636.738   5
  -5  17  -3 3.43286 226.993   5
  -5  17  -2 6.26728 250.556   5
  -5  17  -1 0.70269 311.372   5
  -5  17   0 3.25331 335.774   5
  -5  17   1 272.345 443.667   5
  -5  17   2-123.675 205.463   5
  -5  17   3-413.300 371.655   5
  -5  17   4-0.56512 76.2899   5
  -5  17   5 116.843 191.987   5
  -6  18  -4-768.351 687.160   5
  -6  18  -3-774.026 661.454   5
  -6  18  -2 0.88043 517.637   5
  -6  18  -1 516.717 656.865   5
  -6  18   0 38.2440 128.589   5
  -6  18   1 426.502 414.304   5
  -6  18   2 0.64236 339.801   5
  -6  18   3-827.143 551.369   5
  -6  18   4 253.634 302.604   5
  -7  19  -2 466.419 784.235   5
  -7  19  -1-621.863 572.756   5
  -7  19   0-51.3046 157.980   5
  -7  19   1 31.5424 397.448   5
  -7 -13   2 171.487 218.534   3
 -13  19  -2-0.94188 273.090   5
 -13  19  -1-0.86534 184.108   5
  -6 -13  -1 350.342 330.145   2
  -6 -13   0 47.2134 105.382   3
 -13  19   0-420.215 442.981   5
  -6 -13   1 2.52575 219.382   3
 -13  19   1 0.72918 82.9252   5
  -6 -13   2-375.398 313.673   3
 -13  19   2 0.67152 268.032   5
  -6 -13   3 21.7682 245.817   3
  -5 -13  -4 143.011 203.266   2
 -13  18  -4-1053.36 775.721   5
  -5 -13  -3 54.6843 125.847   2
 -13  18  -3 1.84786 268.820   5
 -13  18  -2-0.84859 106.910   5
  -5 -13  -2-316.072 307.279   2
  -5 -13  -1 92.3525 152.704   3
 -13  18  -1 0.78261 395.302   5
  -5 -13  -1 43.3928 276.178   2
  -5 -13   0 85.7083 228.000   3
 -13  18   0-80.6036 182.242   5
  -5 -13   1-60.7813 119.534   3
 -13  18   1 164.183 249.287   5
  -5 -13   2 17.6993 187.013   3
 -13  18   2 5.36310 343.431   5
  -5 -13   3 0.44584 197.557   3
 -13  18   3-0.56094 326.698   5
 -13  18   4-1.64114 194.484   5
 -13  18   5-283.396 302.197   5
  -4 -13  -6 179.316 375.399   2
  -4 -13  -5-0.52341 189.087   2
 -13  17  -5-797.164 660.622   5
 -13  17  -5 1.20216 504.009   4
  -4 -13  -4 118.941 375.580   2
 -13  17  -4-0.89970 470.398   5
  -4 -13  -3 120.104 262.209   2
 -13  17  -3 0.84264 484.343   5
 -13  17  -2 458.533 721.012   5
  -4 -13  -2 170.289 403.126   2
  -4 -13  -1-220.008 214.753   3
 -13  17  -1 558.272 656.178   5
  -4 -13  -1-148.657 212.759   2
  -4 -13   0 125.095 164.733   3
 -13  17   0 0.62246 229.382   5
  -4 -13   1 20.6113 178.974   3
 -13  17   1-175.111 241.925   5
  -4 -13   2 0.40065 167.694   3
 -13  17   2-88.3939 165.846   5
  -4 -13   3-411.574 319.422   3
 -13  17   3-320.048 307.943   5
  -4 -13   4 186.930 302.576   3
 -13  17   4 148.560 315.560   5
 -13  17   5-11.2442 58.1244   5
 -13  17   6 0.53167 371.382   5
  -3 -13  -7 15.8225 85.2522   2
  -3 -13  -6 16.2829 179.576   2
 -13  16  -6 9.10021 126.751   5
  -3 -13  -5 511.839 402.002   2
 -13  16  -5 184.324 545.076   5
 -13  16  -5-1.07932 279.412   4
  -3 -13  -4 344.514 321.274   2
 -13  16  -4 0.81572 710.084   5
 -13  16  -4-586.271 604.474   4
  -3 -13  -3-317.873 298.871   2
 -13  16  -3-0.76545 78.7401   5
  -3 -13  -2-288.944 236.838   3
 -13  16  -2 341.479 431.016   5
  -3 -13  -2 215.612 244.011   2
  -3 -13  -1-255.899 229.327   3
 -13  16  -1 45.9586 346.853   5
  -3 -13  -1-276.574 277.966   2
  -3 -13   0 410.843 323.888   3
 -13  16   0 212.038 262.355   5
  -3 -13   1-483.876 323.529   3
 -13  16   1-0.50242 166.584   5
  -3 -13   2-164.701 192.801   3
 -13  16   2 360.018 410.759   5
  -3 -13   3-239.576 237.937   3
 -13  16   3 227.309 246.970   5
  -3 -13   4 47.1132 108.423   3
 -13  16   4-210.698 239.495   5
 -13  16   5-187.588 230.904   5
 -13  16   6-619.920 432.458   5
  -2 -13  -8 313.207 508.826   2
  -2 -13  -7 1087.39 621.944   2
 -13  15  -7-1.03021 258.380   4
  -2 -13  -6 0.56221 180.840   2
 -13  15  -6 89.1894 821.874   4
  -2 -13  -5-0.52170 152.317   2
 -13  15  -5 0.79550 247.003   5
 -13  15  -5-485.230 523.533   4
  -2 -13  -4 723.002 434.730   2
 -13  15  -4 389.128 413.745   5
 -13  15  -4 0.94228 370.508   4
  -2 -13  -3 213.964 172.374   3
  -2 -13  -3 10.6257 157.035   2
 -13  15  -3 330.885 424.777   5
 -13  15  -3 0.91780 284.107   4
  -2 -13  -2 462.736 349.798   3
 -13  15  -2 698.359 585.931   5
  -2 -13  -2 488.629 384.935   2
  -2 -13  -1 0.34401 156.489   3
 -13  15  -1-259.527 287.512   5
  -2 -13   0 90.6471 86.3699   3
 -13  15   0 28.7599 167.145   5
  -2 -13   1 420.524 431.439   3
 -13  15   1 204.603 230.793   5
  -2 -13   2 171.685 284.123   3
 -13  15   2-100.006 158.174   5
  -2 -13   3 194.948 338.899   3
 -13  15   3-133.150 181.038   5
  -2 -13   4 2.83371 279.690   3
 -13  15   4-301.589 277.773   5
  -2 -13   5-37.7137 97.4764   3
 -13  15   5 0.46455 145.991   5
  -1 -13  -9 56.9937 527.052   2
  -1 -13  -8 155.218 244.460   2
 -13  14  -8 0.93068 355.359   4
  -1 -13  -7 26.6503 62.5906   2
 -13  14  -7-660.033 595.578   4
  -1 -13  -6 2.15450 315.058   2
 -13  14  -6 3.55167 605.867   4
  -1 -13  -5 81.2036 70.5939   2
  -1 -13  -4 192.008 304.747   2
 -13  14  -4-0.67417 198.183   5
 -13  14  -4-462.073 473.857   4
  -1 -13  -4 218.949 174.219   3
  -1 -13  -3 202.371 65.2124   3
 -13  14  -3-37.1492 115.326   5
 -13  14  -3 407.351 608.773   4
  -1 -13  -2 1464.28 530.362   3
 -13  14  -2 960.600 642.704   5
  -1 -13  -2 1355.34 631.240   2
  -1 -13  -1 982.112 444.257   3
 -13  14  -1 780.396 459.666   5
  -1 -13   0 156.357 69.6254   3
 -13  14   0 882.696 496.019   5
  -1 -13   1 826.124 420.500   3
 -13  14   1 915.459 482.294   5
  -1 -13   2 372.157 295.492   3
 -13  14   2 219.597 252.065   5
  -1 -13   3 401.978 332.504   3
 -13  14   3 474.242 355.536   5
  -1 -13   4 566.187 482.297   3
 -13  14   4 65.2753 204.616   5
  -1 -13   5 28.3377 152.648   3
 -13  14   5 401.523 324.856   5
  -1 -13   6 0.43495 161.663   3
  -1 -13   7 0.92505 258.905   3
  -1 -13   8-405.417 342.853   3
   0 -13  -9-4.89765 169.641   2
   0 -13  -8 236.453 377.045   2
 -13  13  -8 30.8216 595.073   4
   0 -13  -7-0.56287 138.505   2
 -13  13  -7 238.199 335.122   4
   0 -13  -6-123.989 192.455   2
 -13  13  -6-557.136 506.248   4
   0 -13  -5-0.46301 323.809   2
 -13  13  -5 28.2843 112.742   4
   0 -13  -4-411.870 318.512   2
   0 -13  -4 112.416 170.959   3
   0 -13  -3 120.696 211.192   3
   0 -13  -3 15.0365 42.8383   2
 -13  13  -3-381.088 352.268   5
 -13  13  -3 0.72427 189.135   4
   0 -13  -2 926.085 456.731   3
 -13  13  -2 710.425 487.871   5
   0 -13  -2 636.964 361.838   2
   0 -13  -1 720.529 333.950   3
 -13  13  -1 388.189 336.370   5
   0 -13   0 81.5743 122.467   3
 -13  13   0 366.509 209.064   5
   0 -13   1 696.185 401.346   3
 -13  13   1 512.326 386.607   5
   0 -13   2 1217.84 565.760   3
 -13  13   2 676.659 408.346   5
   0 -13   3 127.527 138.393   3
 -13  13   3-208.287 212.461   5
   0 -13   4-48.3459 99.8367   3
 -13  13   4 196.140 331.545   5
   0 -13   5 191.339 285.180   3
 -13  13   5 24.3582 87.8943   5
   0 -13   6-165.438 202.340   3
   0 -13   7-260.398 261.260   3
   0 -13   8 39.9370 218.721   3
   1 -13  -9-0.66800 344.340   2
 -13  12  -9-968.438 721.208   4
   1 -13  -8-179.789 251.677   2
 -13  12  -8-685.409 587.920   4
   1 -13  -7 0.53227 267.302   2
 -13  12  -7-392.570 418.210   4
   1 -13  -6 100.083 168.257   2
 -13  12  -6-254.243 321.779   4
   1 -13  -5 21.1183 145.484   2
 -13  12  -5 31.1714 112.666   4
   1 -13  -4 364.167 312.265   2
   1 -13  -3 238.412 248.230   3
   1 -13  -3-3.32134 113.181   2
 -13  12  -3 64.5410 192.257   5
 -13  12  -3 397.388 549.446   4
   1 -13  -2-92.6279 219.168   3
 -13  12  -2-68.6533 214.940   5
 -13  12  -2-254.719 309.183   4
   1 -13  -2-863.746 426.687   2
   1 -13  -1 19.3965 120.095   3
 -13  12  -1-421.584 303.409   5
   1 -13   0 107.339 220.602   3
 -13  12   0-41.1141 269.162   5
   1 -13   1 363.415 257.859   3
 -13  12   1 133.559 102.240   5
   1 -13   2 293.528 197.825   3
 -13  12   2 162.358 164.192   5
   1 -13   3 943.809 465.256   3
 -13  12   3 452.029 334.404   5
   1 -13   4 657.239 491.892   3
 -13  12   4 961.160 433.477   5
   1 -13   5 202.729 256.140   3
 -13  12   5 642.546 339.139   5
   1 -13   6-2.47623 91.7108   3
   1 -13   7 109.152 219.772   3
   1 -13   8 6.04022 166.333   3
   1 -13   9 112.336 181.179   3
   2 -13  -9-558.997 456.629   2
   2 -13  -8 52.9850 383.316   2
 -13  11  -8 0.78061 105.380   4
   2 -13  -7 621.817 667.764   2
 -13  11  -7 587.984 577.685   4
   2 -13  -6 139.956 260.730   2
 -13  11  -6 30.4291 106.490   4
   2 -13  -5 280.065 325.848   2
 -13  11  -5 253.439 459.853   4
   2 -13  -4 1216.87 557.193   2
 -13  11  -4 379.854 484.150   4
   2 -13  -3 1514.79 608.027   2
 -13  11  -3 57.2801 312.048   4
   2 -13  -3 2122.57 665.661   3
   2 -13  -2 1304.53 518.550   3
 -13  11  -2 1371.43 652.686   5
 -13  11  -2 33.4626 294.475   4
   2 -13  -2 709.041 401.409   2
   2 -13  -1 874.473 435.419   3
 -13  11  -1 809.800 397.284   5
   2 -13   0 446.797 53.1891   3
 -13  11   0 702.686 276.478   5
   2 -13   1-101.040 264.845   3
 -13  11   1-76.6016 89.6059   5
   2 -13   2-460.058 427.546   3
 -13  11   2-86.8956 195.142   5
   2 -13   3 116.072 63.4190   3
 -13  11   3-350.066 265.891   5
   2 -13   4 134.649 297.886   3
 -13  11   4 374.728 284.454   5
   2 -13   5 23.8166 142.628   3
   2 -13   6 214.801 315.713   3
   2 -13   7 30.2625 164.071   3
   2 -13   8 269.969 254.636   3
   2 -13   9 138.380 348.889   3
   3 -13 -10-211.109 289.782   2
   3 -13  -9-440.207 396.670   2
   3 -13  -8-1137.13 604.969   2
   3 -13  -7 62.5515 134.579   2
 -13  10  -7-288.343 337.146   4
   3 -13  -6 35.1804 100.228   2
 -13  10  -6-640.375 482.388   4
   3 -13  -5 400.036 260.846   2
 -13  10  -5 154.678 383.748   4
   3 -13  -4 238.381 182.477   2
 -13  10  -4-363.367 346.098   4
   3 -13  -3-8.26079 181.209   2
   3 -13  -3-589.919 346.395   3
   3 -13  -2 640.601 349.150   3
 -13  10  -2 727.415 360.245   5
   3 -13  -2 559.413 314.066   2
   3 -13  -1 380.234 302.655   3
 -13  10  -1 218.999 227.323   5
   3 -13   0-135.798 215.027   3
 -13  10   0-88.7378 47.2079   5
   3 -13   1 1533.04 545.796   3
 -13  10   1 1534.45 512.428   5
   3 -13   2 836.778 377.276   3
 -13  10   2 917.569 391.528   5
   3 -13   3-191.670 190.948   3
 -13  10   3 139.809 116.133   5
   3 -13   4 356.580 234.404   3
 -13  10   4 1135.69 451.025   5
   3 -13   5 373.854 320.109   3
   3 -13   6 269.366 227.943   3
   3 -13   7 97.5733 232.899   3
   3 -13   8 27.7807 86.2424   3
   3 -13   9 131.465 258.876   3
   3 -13  10 505.587 390.986   3
   4 -13 -10 343.775 508.298   2
   4 -13  -9-39.0637 116.585   2
   4 -13  -8 0.53604 196.247   2
   4 -13  -7 218.897 287.295   2
 -13   9  -7 5.54275 291.465   4
   4 -13  -6-514.438 367.652   2
 -13   9  -6-578.395 448.432   4
   4 -13  -5-191.780 55.4871   2
 -13   9  -5-280.440 292.067   4
   4 -13  -4 326.126 104.975   2
 -13   9  -4-110.830 185.877   4
   4 -13  -3 815.625 436.141   2
 -13   9  -3-494.639 393.904   4
   4 -13  -2 7.25371 118.736   3
 -13   9  -2 260.234 312.979   5
   4 -13  -2-25.1304 304.264   2
 -13   9  -2-359.475 334.731   4
   4 -13  -1 149.757 138.372   3
 -13   9  -1 276.887 255.374   5
   4 -13  -1-139.771 249.657   2
   4 -13   0 530.649 319.438   3
 -13   9   0 324.217 216.697   5
   4 -13   1 272.540 206.178   3
 -13   9   1 464.080 254.852   5
   4 -13   2-70.7181 228.132   3
 -13   9   2 19.6311 143.600   5
   4 -13   3 153.017 80.9360   3
 -13   9   3-165.893 81.7917   5
   4 -13   4 86.2905 110.905   3
   4 -13   5 222.058 316.995   3
   4 -13   6-69.9309 120.423   3
   4 -13   7 200.713 272.950   3
   4 -13   8 0.92032 256.614   3
   4 -13   9 3.39402 31.1034   3
   4 -13  10 530.061 399.675   3
   5 -13 -10 1.93575 41.3922   2
   5 -13  -9 23.9951 242.477   2
   5 -13  -8 118.653 160.613   2
   5 -13  -7 85.2659 129.949   2
   5 -13  -6 162.728 298.288   2
 -13   8  -6-155.647 222.762   4
   5 -13  -5-53.6687 295.365   2
 -13   8  -5 10.5762 81.9142   4
   5 -13  -4 1417.30 642.306   2
 -13   8  -4 177.497 450.669   4
   8   5  -3 1508.06 298.180   5
   5 -13  -3 1732.60 656.543   2
   5 -13  -2 299.292 179.169   2
 -13   8  -2 311.875 416.062   4
   5 -13  -2 570.350 334.845   3
   5 -13  -1 1050.75 391.416   3
 -13   8  -1 1281.92 394.820   5
   5 -13  -1 1483.91 555.422   2
   5 -13   0 2750.84 797.438   3
 -13   8   0 2352.89 556.362   5
   5 -13   1 753.688 415.416   3
 -13   8   1 228.331 146.857   5
   5 -13   2-24.9264 216.018   3
 -13   8   2 118.973 187.059   5
   5 -13   3 1517.53 628.582   3
 -13   8   3 2274.18 524.140   5
   5 -13   4 1582.69 617.143   3
   5 -13   5 668.519 425.190   3
   5 -13   6 43.4331 212.191   3
   8   5   6 169.518 147.623   1
   5 -13   7-522.333 371.045   3
   8   5   7-188.629 171.883   1
   5 -13   8 0.46648 374.095   3
   8   5   8-32.2477 159.259   1
   5 -13   9-154.955 210.686   3
   8   5   9-361.887 267.990   1
   5 -13  10-222.629 258.512   3
 -13   8  10 140.665 188.032   1
 -13   8  11 119.214 178.915   1
   6 -13 -10 255.168 300.874   2
   6 -13  -9-206.440 267.166   2
   6 -13  -8 1301.28 641.631   2
   6 -13  -7 424.096 440.198   2
   6 -13  -6 119.680 229.665   2
 -13   7  -6 501.383 532.476   4
   6 -13  -5 218.114 266.344   2
   7   6  -5 283.464 195.419   5
 -13   7  -5 52.5449 327.171   4
   6 -13  -4 365.046 271.319   2
   7   6  -4 83.8888 114.737   5
 -13   7  -4 59.6950 192.134   4
   7   6  -3 334.738 198.744   5
   6 -13  -3 152.844 158.291   2
   7   6  -2 5.48667 115.334   5
   6 -13  -2-184.196 198.933   2
   7   6  -1-47.8842 93.3283   5
 -13   7  -1 211.882 93.9976   5
   6 -13  -1 129.650 220.752   2
   6 -13  -1-235.701 353.566   3
   6 -13   0 176.610 261.872   3
 -13   7   0-237.010 144.875   5
   6 -13   1 270.526 387.991   3
 -13   7   1 484.083 227.715   5
   6 -13   2 302.445 248.955   3
 -13   7   2-18.4922 54.5328   5
   6 -13   3 364.695 355.055   3
   6 -13   4-93.3596 324.256   3
   7   6   4 355.816 144.093   1
   6 -13   5 175.080 150.361   3
   7   6   5 313.646 181.226   1
   6 -13   6-267.057 262.599   3
   7   6   6 73.1960 67.1171   1
   6 -13   7-319.972 291.772   3
   7   6   7-131.712 73.7035   1
   6 -13   8 3.27123 76.8482   3
   7   6   8 128.549 173.682   1
   6 -13   9-136.904 197.317   3
   7   6   9-239.993 217.311   1
   6 -13  10-482.698 377.533   3
   7   6  10-59.0427 113.888   1
 -13   7  10 0.40422 285.233   1
   6 -13  11 1134.40 842.069   3
 -13   7  11-327.855 292.416   1
   7 -13 -10 7.20513 259.505   2
   7 -13  -9 752.898 514.885   2
   7 -13  -8-195.911 251.753   2
   7 -13  -7-356.573 326.536   2
   7 -13  -6 212.274 278.152   2
   6   7  -6 10.0777 108.840   5
 -13   6  -6 66.3043 251.118   4
   7 -13  -5 286.953 230.143   2
   6   7  -5 132.635 32.6851   5
 -13   6  -5 35.7392 100.059   4
   6   7  -4 20.6476 93.2855   5
 -13   6  -4 257.652 92.5489   4
   7 -13  -3 328.315 288.088   2
   6   7  -3 326.128 202.436   5
   6   7  -2 292.593 177.314   5
   7 -13  -2 254.639 261.784   2
 -13   6  -2-93.6513 143.464   4
   6   7  -1-119.300 160.389   5
 -13   6  -1 6.98525 72.2481   5
   7 -13  -1 58.5296 395.666   2
   7 -13  -1-446.862 414.217   3
   6   7   0-38.3374 115.046   5
 -13   6   0 141.081 59.7271   5
   7 -13   1 194.820 75.8620   3
 -13   6   1 171.011 135.873   5
   7 -13   2 366.587 306.716   3
   6   7   2 22.3614 14.2056   1
   7 -13   3 274.438 278.959   3
   6   7   3 29.2137 62.4688   1
   7 -13   4 562.939 425.796   3
   6   7   4 239.323 131.241   1
   7 -13   5 101.635 178.709   3
   6   7   5 143.708 144.910   1
   7 -13   6-613.858 395.948   3
   6   7   6 25.3092 24.3219   1
   7 -13   7 0.89981 103.487   3
   6   7   7 46.1870 91.4089   1
   7 -13   8-629.744 413.427   3
   6   7   8-106.529 132.675   1
   7 -13   9-319.899 298.540   3
 -13   6   9 167.799 328.885   1
   6   7   9-204.135 195.798   1
 -13   6  10-43.6092 99.4673   1
   7 -13  10 0.48731 206.687   3
   6   7  10 0.36251 95.8808   1
   7 -13  11-308.392 299.813   3
 -13   6  11 0.42411 140.995   1
   6   7  11 8.97774 145.079   1
   8 -13  -9-416.885 387.618   2
   8 -13  -8 98.9855 313.341   2
   8 -13  -7 226.293 381.603   2
   8 -13  -6 172.408 267.836   2
   5   8  -6-90.9280 125.014   5
   8 -13  -5-537.383 374.880   2
   5   8  -5 285.111 235.272   5
 -13   5  -5-534.905 383.615   4
   8 -13  -4 1151.59 542.705   2
   5   8  -4 685.665 329.017   5
 -13   5  -4 968.012 455.724   4
   8 -13  -3 2801.33 867.565   2
   5   8  -3 1701.40 478.424   5
   5   8  -2 1010.01 356.904   5
   8 -13  -2 721.844 416.576   2
 -13   5  -2-201.039 440.730   4
   5   8  -1 1033.50 373.311   5
 -13   5  -1 1081.36 288.609   5
   8 -13  -1 1348.00 483.949   2
 -13   5   0 2976.52 440.877   5
   5   8   0 2843.29 628.562   5
   8 -13   0 3103.08 804.928   2
   8 -13   0 3259.31 841.636   3
   8 -13   1 374.767 248.753   3
   5   8   1 456.522 306.798   5
   5   8   1 300.155 84.7501   1
   8 -13   2-12.7996 233.028   3
   5   8   2 201.581 101.519   1
   8 -13   3 1561.32 613.402   3
   5   8   3 1229.13 294.125   1
   8 -13   4 1746.10 718.704   3
   5   8   4 1361.39 342.114   1
   8 -13   5 216.957 163.748   3
   5   8   5 577.786 257.013   1
   8 -13   6 204.031 283.500   3
   5   8   6 140.266 130.033   1
   5   8   7 214.279 154.035   1
   8 -13   7 480.508 464.992   3
   8 -13   8-0.44486 134.287   3
   5   8   8 36.7885 135.085   1
   8 -13   9 19.9484 321.613   3
 -13   5   9-156.638 175.368   1
   5   8   9-47.5095 92.8244   1
   8 -13  10 5.55071 261.342   3
 -13   5  10 510.540 333.462   1
   5   8  10 0.35327 163.194   1
   5   8  11-0.39930 104.273   1
   9 -13  -9 0.62877 217.212   2
   9 -13  -8-186.172 250.775   2
   9 -13  -7-194.777 246.182   2
   4   9  -7 148.995 300.211   5
   9 -13  -6-437.927 354.131   2
   4   9  -6 160.984 301.134   5
   9 -13  -5-143.021 270.208   2
   4   9  -5 89.5601 55.9534   5
 -13   4  -5-149.902 198.576   4
   9 -13  -4 157.972 293.620   2
   4   9  -4 195.443 198.440   5
 -13   4  -4-394.866 333.727   4
   9 -13  -3 980.738 499.018   2
   4   9  -3 533.846 329.743   5
   9 -13  -2 81.8405 224.258   2
   4   9  -2 360.935 249.664   5
 -13   4  -2-50.6021 473.456   4
   4   9  -1 254.616 215.349   5
 -13   4  -1 413.931 151.354   5
   9 -13  -1 206.466 228.888   2
   4   9   0 632.183 292.266   5
   9 -13   0 397.559 312.744   2
   4   9   1 362.623 233.224   5
   9 -13   1-432.774 465.754   3
   4   9   2 0.98424 29.9966   1
   4   9   2 208.406 225.503   5
   9 -13   2-266.672 352.868   3
   9 -13   3-73.4475 274.076   3
   4   9   3 6.27355 75.9937   1
   9 -13   4 336.550 235.698   3
   4   9   4 108.121 84.1212   1
   9 -13   5 299.027 375.050   3
   4   9   5 329.765 150.845   1
   9 -13   6 179.024 208.423   3
   4   9   6 22.9065 109.402   1
   9 -13   7-33.0010 91.7829   3
   4   9   7 81.4663 144.731   1
   9 -13   8-233.490 244.755   3
   4   9   8 153.222 157.836   1
 -13   4   8 16.7807 95.9280   1
   9 -13   9-302.372 280.321   3
   4   9   9-140.807 160.759   1
   9 -13  10-80.7207 145.878   3
   4   9  10 3.84619 187.087   1
  10 -13  -9 182.082 372.121   2
  10 -13  -8 0.58566 199.307   2
  10 -13  -7-9.67170 55.2724   2
   3  10  -7 384.110 308.317   5
  10 -13  -6 36.4613 105.509   2
   3  10  -6 299.076 316.635   5
  10 -13  -5 213.474 268.264   2
   3  10  -5 402.115 283.822   5
 -13   3  -5 0.41558 66.0745   4
  10 -13  -4 309.450 238.969   2
   3  10  -4 162.108 233.319   5
 -13   3  -4 93.4584 215.142   4
  10 -13  -3-134.953 217.968   2
   3  10  -3-182.058 250.195   5
  10 -13  -2 842.878 495.378   2
   3  10  -2 940.916 447.532   5
 -13   3  -2 706.713 142.554   4
   3  10  -1 347.441 244.299   5
  10 -13  -1 442.422 238.266   2
   3  10   0 192.036 148.534   5
  10 -13   0 56.2541 255.472   2
   3  10   1 1220.42 431.068   5
  10 -13   1 1778.99 617.675   2
   3  10   2 470.865 255.898   5
  10 -13   2 515.738 247.486   3
   3  10   3 109.815 171.593   5
  10 -13   3-20.7417 256.630   3
  10 -13   4 75.2575 197.140   3
   3  10   4 134.786 134.090   1
   3  10   5 276.460 168.843   1
  10 -13   5 288.100 240.724   3
  10 -13   6 64.7704 214.742   3
   3  10   6 123.249 66.7441   1
  10 -13   7 0.42705 148.251   3
   3  10   7 231.966 230.192   1
  10 -13   8-234.622 243.229   3
   3  10   8 252.079 204.873   1
  10 -13   9 6.04779 132.899   3
   3  10   9-75.4617 118.849   1
   3  10  10 0.35656 66.4052   1
  11 -13  -9 7.26511 527.967   2
  11 -13  -8-517.787 425.876   2
  11 -13  -7-0.54093 376.029   2
   2  11  -7 0.57231 119.368   5
  11 -13  -6-123.272 189.412   2
   2  11  -6 221.417 195.005   5
 -13   2  -6 137.751 164.546   4
  11 -13  -5 168.925 324.812   2
   2  11  -5 334.871 363.264   5
 -13   2  -5 148.831 182.962   4
  11 -13  -4 1882.43 768.688   2
   2  11  -4 1795.60 641.065   5
 -13   2  -4-262.562 384.772   4
   2  11  -3 1636.87 556.271   5
 -13   2  -3 183.016 462.165   4
  11 -13  -2 1075.09 512.071   2
   2  11  -2 1324.71 518.766   5
  11 -13  -1 883.751 428.526   2
   2  11  -1 1114.43 456.794   5
   2  11   0 293.441 260.958   5
  11 -13   0 434.664 270.414   2
   2  11   1-78.0661 45.6219   5
  11 -13   1 1.57991 41.9629   2
   2  11   2-20.8103 113.133   5
   2  11   3-473.146 319.902   5
  11 -13   4-0.42556 61.9093   3
  11 -13   5 75.9969 163.469   3
   2  11   6 80.4454 156.179   1
  11 -13   6 189.687 379.550   3
   2  11   7 235.726 226.336   1
  11 -13   7 71.6402 441.018   3
  11 -13   8 0.41990 189.376   3
   2  11   8-0.29466 58.4792   1
  11 -13   9 192.533 218.129   3
   2  11   9 0.32926 172.520   1
   2  11  10-156.770 183.303   1
  12 -13  -9 110.164 342.257   2
   1  12  -8-577.156 504.629   5
  12 -13  -8 0.60309 375.945   2
   1  12  -7 854.418 691.862   5
  12 -13  -7 0.54508 380.292   2
  12 -13  -6 0.49492 71.9995   2
   1  12  -6-127.479 208.861   5
 -13   1  -6-143.012 160.801   4
  12 -13  -5-0.44966 181.126   2
   1  12  -5-101.272 174.944   5
 -13   1  -5 66.5591 157.991   4
  12 -13  -4 643.853 441.219   2
   1  12  -4 347.944 267.429   5
 -13   1  -4 150.704 263.682   4
  12 -13  -3 138.243 181.617   2
   1  12  -3 179.721 177.239   5
 -13   1  -3-0.61190 256.969   4
  12 -13  -2-1.78176 135.791   2
   1  12  -2-157.868 186.771   5
  12 -13  -1 286.677 291.519   2
   1  12  -1 217.288 80.7450   5
   1  12   0-118.469 160.546   5
  12 -13   0-302.485 237.824   2
   1  12   1 669.887 333.390   5
  12 -13   1 324.880 229.718   2
   1  12   2 79.4335 162.502   5
  12 -13   2-182.560 145.019   2
   1  12   3 432.483 257.520   5
   1  12   4 585.997 401.965   5
   1  12   7 0.27562 106.923   1
   1  12   8 0.30956 162.716   1
  12 -13   8-112.852 166.521   3
   1  12   9-0.34252 41.5233   1
   1  12  10 3.40743 102.632   1
  13 -13  -9 441.394 418.165   2
   0  13  -8 1052.69 726.579   5
  13 -13  -8-0.61086 281.408   2
   0  13  -7-0.78014 237.009   5
  13 -13  -7-372.314 346.431   2
   0  13  -6-0.67817 183.838   5
  13 -13  -6 0.99090 145.647   2
  13 -13  -5 139.734 315.243   2
   0  13  -5-53.6405 137.860   5
  13 -13  -4-336.171 284.813   2
   0  13  -4 91.9951 146.721   5
  13 -13  -3-109.546 155.435   2
   0  13  -3-319.262 294.904   5
  13 -13  -2 667.707 348.969   2
   0  13  -2 449.018 296.355   5
  13 -13  -1 1211.17 532.305   2
   0  13  -1 1633.86 706.928   5
  13 -13   0 291.626 254.905   2
   0  13   0 536.275 439.158   5
   0  13   1 540.470 324.396   5
  13 -13   1 940.078 476.445   2
   0  13   2 829.839 494.864   5
  13 -13   2 904.074 360.259   2
   0  13   3-81.3409 134.233   5
  13 -13   3-190.069 210.453   2
   0  13   4 47.3542 150.990   5
   0  13   7-203.028 188.084   1
   0  13   8-0.32443 177.992   1
   0  13   9-1.07555 83.3766   1
  -1  14  -9-293.404 419.920   5
  -1  14  -8-32.5884 135.508   5
  14 -13  -8 0.61647 331.203   2
  -1  14  -7 244.259 599.740   5
  14 -13  -7 1135.57 610.194   2
  -1  14  -6-590.971 522.516   5
  14 -13  -6-310.784 302.138   2
  -1  14  -5 325.033 575.455   5
  14 -13  -5 137.236 291.240   2
  14 -13  -4 362.302 324.171   2
  -1  14  -4 2.46686 233.093   5
  14 -13  -3 382.323 314.735   2
  -1  14  -3 5.93158 58.4702   5
  14 -13  -2 1655.54 619.829   2
  -1  14  -2 1046.81 597.708   5
  14 -13  -1 1215.98 509.012   2
  -1  14  -1 879.650 534.200   5
  14 -13   0 786.104 386.666   2
  -1  14   0 355.339 258.410   5
  14 -13   1 1265.25 459.469   2
  -1  14   1 865.779 446.566   5
  -1  14   2 332.528 179.225   5
  14 -13   2 706.280 325.574   2
  -1  14   3 230.606 372.845   5
  14 -13   3-10.0530 88.8731   2
  -1  14   4 125.327 291.917   5
  -1  14   5 414.750 345.735   5
  -1  14   8 0.34527 138.067   1
  -1  14   9 3.39851 219.735   1
  -2  15  -8 680.690 650.857   5
  15 -13  -8-160.497 241.801   2
  -2  15  -7 0.97507 811.769   5
  15 -13  -7 0.56813 120.874   2
  -2  15  -6-0.90578 271.650   5
  15 -13  -6 496.127 387.433   2
  -2  15  -5-359.312 412.521   5
  15 -13  -5-285.685 278.409   2
  -2  15  -4 53.6893 367.373   5
  15 -13  -4-285.862 265.209   2
  15 -13  -3 723.525 440.926   2
  -2  15  -3 3.13725 145.920   5
  15 -13  -2 501.084 329.436   2
  -2  15  -2 1000.60 650.164   5
  15 -13  -1 332.752 252.369   2
  -2  15  -1 479.996 518.853   5
  15 -13   0 96.4360 183.257   2
  -2  15   0 156.161 295.568   5
  -2  15   1 187.981 296.310   5
  -2  15   2 287.390 203.847   5
  -2  15   3 10.2528 136.518   5
  -2  15   4 51.1670 273.053   5
  -2  15   5-109.811 182.861   5
  16 -13  -8 222.243 545.892   2
  -3  16  -7 2.16197 445.564   5
  16 -13  -7-23.1362 88.6958   2
  -3  16  -6 223.172 555.099   5
  16 -13  -6 206.003 369.808   2
  -3  16  -5-0.91484 82.9951   5
  16 -13  -5 80.3856 344.919   2
  -3  16  -4-169.642 391.522   5
  16 -13  -4 138.788 224.936   2
  -3  16  -3-538.473 478.009   5
  16 -13  -3-125.917 170.935   2
  -3  16  -2-575.909 470.979   5
  -3  16  -1 0.59522 114.549   5
  -3  16   0 429.481 544.452   5
  -3  16   1-220.833 264.432   5
  -3  16   2 5.24698 117.290   5
  -3  16   3 34.6674 103.465   5
  -3  16   4 291.717 302.974   5
  -3  16   5-20.8398 251.239   5
  -4  17  -6 117.046 634.124   5
  -4  17  -5 807.072 695.771   5
  -4  17  -4 1.83315 305.520   5
  -4  17  -3-277.051 367.011   5
  -4  17  -2 333.356 607.574   5
  -4  17  -1-728.215 538.514   5
  -4  17   0 158.140 276.494   5
  -4  17   1-264.673 305.585   5
  -4  17   2 53.6210 128.885   5
  -4  17   3-245.463 286.675   5
  -4  17   4 35.0234 108.727   5
  -4  17   5 172.291 369.097   5
  -5  18  -4 18.2503 406.182   5
  -5  18  -3-1122.96 785.657   5
  -5  18  -2 600.459 844.320   5
  -5  18  -1-168.447 276.616   5
  -5  18   0 144.384 246.313   5
  -5  18   1 275.102 472.071   5
  -5  18   2 7.02129 153.987   5
  -5  18   3-245.301 299.635   5
  -6  19  -1 443.963 476.654   5
  -6  19   0 228.899 396.607   5
  -5 -14  -2-218.095 266.403   2
 -14  19  -1 482.979 482.108   5
  -5 -14  -1 39.2788 117.227   2
  -5 -14   0-4.67937 34.2084   3
 -14  19   0-418.417 429.087   5
  -5 -14   1-0.44516 87.6862   3
 -14  19   1-8.25348 364.596   5
  -5 -14   2-341.865 306.576   3
 -14  19   2 1.26589 141.487   5
  -5 -14   3 656.689 438.242   3
  -4 -14  -4 225.038 272.135   2
 -14  18  -4 4138.92 1522.24   5
  -4 -14  -3-201.002 254.395   2
 -14  18  -3 0.88965 479.432   5
 -14  18  -2-303.610 379.129   5
  -4 -14  -2-483.244 396.552   2
  -4 -14  -1-88.6276 142.941   3
 -14  18  -1 494.210 659.052   5
  -4 -14  -1 0.58654 291.797   2
  -4 -14   0 0.41301 167.566   3
 -14  18   0-0.66096 214.409   5
  -4 -14   1 383.062 309.936   3
 -14  18   1-564.913 449.141   5
  -4 -14   2 62.8336 128.299   3
 -14  18   2 2.26610 117.361   5
  -4 -14   3-10.8674 54.9419   3
 -14  18   3 64.4140 297.837   5
  -4 -14   4 0.50104 267.811   3
 -14  18   4-519.222 403.588   5
 -14  18   5-38.3510 110.354   5
  -3 -14  -6-391.932 369.337   2
  -3 -14  -5-0.57461 218.959   2
 -14  17  -5-430.951 485.600   5
 -14  17  -5-957.834 835.841   4
  -3 -14  -4-19.1825 79.7640   2
 -14  17  -4-543.517 530.103   5
  -3 -14  -3 243.063 359.600   2
 -14  17  -3 742.642 594.616   5
  -3 -14  -2 144.020 277.156   3
 -14  17  -2 230.289 578.899   5
  -3 -14  -2 243.033 276.208   2
  -3 -14  -1 568.697 406.898   3
 -14  17  -1 1147.83 902.182   5
  -3 -14  -1 635.664 564.463   2
  -3 -14   0 152.938 298.398   3
 -14  17   0 210.522 235.981   5
  -3 -14   1 46.9530 106.624   3
 -14  17   1 0.53903 109.346   5
  -3 -14   2 0.85410 224.476   3
 -14  17   2 200.618 244.745   5
  -3 -14   3 0.45043 153.674   3
 -14  17   3-353.867 319.753   5
  -3 -14   4 32.8268 221.882   3
 -14  17   4 135.294 198.536   5
  -3 -14   5 16.1137 355.956   3
 -14  17   5-427.157 358.845   5
  -2 -14  -7 418.813 396.469   2
  -2 -14  -6-154.202 233.220   2
 -14  16  -6 301.996 404.920   5
 -14  16  -6-692.854 686.962   4
  -2 -14  -5 30.9811 248.103   2
 -14  16  -5-789.515 634.225   5
 -14  16  -5 81.8796 678.795   4
  -2 -14  -4-0.52935 326.972   2
 -14  16  -4-191.767 299.507   5
 -14  16  -4 64.8544 743.580   4
  -2 -14  -3-86.4361 158.423   2
 -14  16  -3 198.127 291.810   5
  -2 -14  -2 349.632 361.548   3
 -14  16  -2 319.088 411.893   5
  -2 -14  -2-0.48387 153.414   2
  -2 -14  -1 233.114 269.672   3
 -14  16  -1 555.381 546.629   5
  -2 -14  -1 448.241 544.027   2
  -2 -14   0 0.78161 128.532   3
 -14  16   0 813.104 590.316   5
  -2 -14   1 159.896 194.086   3
 -14  16   1-397.882 334.855   5
  -2 -14   2 0.41262 185.824   3
 -14  16   2 127.474 185.371   5
  -2 -14   3 0.43157 90.6198   3
 -14  16   3-410.614 330.577   5
  -2 -14   4 0.90818 164.414   3
 -14  16   4-467.229 358.417   5
  -2 -14   5 329.754 408.323   3
 -14  16   5-136.684 199.482   5
  -2 -14   6 166.937 538.373   3
  -1 -14  -8 76.1290 263.723   2
  -1 -14  -7 0.63076 335.411   2
  -1 -14  -6 76.9148 161.706   2
 -14  15  -6 657.286 640.030   4
  -1 -14  -5 75.2718 153.697   2
 -14  15  -5 285.392 364.697   5
 -14  15  -5 0.99788 322.797   4
  -1 -14  -4-363.414 324.131   2
 -14  15  -4-766.912 570.591   5
 -14  15  -4 786.168 668.928   4
  -1 -14  -3-419.885 294.379   3
  -1 -14  -3-237.195 251.717   2
 -14  15  -3-888.891 587.010   5
  -1 -14  -2 140.090 267.049   3
 -14  15  -2 0.58216 143.252   5
  -1 -14  -2-493.648 359.413   2
  -1 -14  -1 121.275 82.1741   3
 -14  15  -1 461.292 432.025   5
  -1 -14  -1 59.1307 124.787   2
  -1 -14   0 143.614 300.106   3
 -14  15   0 290.855 348.257   5
  -1 -14   1 2.35732 169.337   3
 -14  15   1 0.42922 122.697   5
  -1 -14   2-41.8522 99.5048   3
 -14  15   2 174.861 313.116   5
  -1 -14   3 343.598 343.512   3
 -14  15   3-750.651 432.362   5
  -1 -14   4-0.43659 124.804   3
 -14  15   4-531.712 374.822   5
  -1 -14   5-16.5511 226.537   3
 -14  15   5 350.269 316.283   5
  -1 -14   6 0.48585 120.709   3
   0 -14  -8-401.580 398.498   2
   0 -14  -7 471.741 408.496   2
 -14  14  -7-327.552 435.866   4
   0 -14  -6 181.886 241.667   2
 -14  14  -6 1150.10 800.328   4
   0 -14  -5-195.377 239.874   2
   0 -14  -4 51.6563 118.347   2
 -14  14  -4 442.283 580.872   5
 -14  14  -4-245.263 352.870   4
   0 -14  -4-427.033 289.626   3
   0 -14  -3-41.8550 179.023   3
   0 -14  -3 403.878 419.021   2
 -14  14  -3 498.982 413.031   5
 -14  14  -3 323.471 398.163   4
   0 -14  -2 158.762 255.528   3
 -14  14  -2 100.750 373.899   5
   0 -14  -2-90.2539 148.552   2
   0 -14  -1-143.982 176.548   3
 -14  14  -1-92.5260 156.686   5
   0 -14   0-356.640 281.888   3
 -14  14   0-118.437 168.919   5
   0 -14   1-159.582 190.393   3
 -14  14   1 20.1757 114.831   5
   0 -14   2 627.645 417.234   3
 -14  14   2 2.32208 115.688   5
   0 -14   3 239.674 237.818   3
 -14  14   3 64.9847 104.032   5
   0 -14   4 52.4325 91.6992   3
 -14  14   4-11.4371 54.3841   5
   0 -14   5 2.22213 129.307   3
 -14  14   5-97.3388 166.467   5
   0 -14   6-11.7198 56.8318   3
   0 -14   7 271.976 281.440   3
   1 -14  -8-179.501 259.630   2
 -14  13  -8 0.89476 337.488   4
   1 -14  -7-0.56795 106.666   2
 -14  13  -7-426.107 462.498   4
   1 -14  -6 0.51636 128.899   2
 -14  13  -6 0.85359 626.039   4
   1 -14  -5 484.124 367.535   2
   1 -14  -4 412.950 380.370   2
 -14  13  -4 1025.70 746.324   5
 -14  13  -4 585.498 516.989   4
   1 -14  -3 505.299 261.844   3
   1 -14  -3 74.1414 259.525   2
 -14  13  -3 921.730 617.988   5
 -14  13  -3 15.8449 560.290   4
   1 -14  -2 1845.45 672.309   3
 -14  13  -2 1595.58 681.403   5
   1 -14  -2 696.646 341.938   2
   1 -14  -1 972.059 463.244   3
 -14  13  -1 941.499 532.702   5
   1 -14   0 567.600 295.471   3
 -14  13   0-421.731 301.267   5
   1 -14   1 626.595 347.374   3
 -14  13   1 533.745 357.340   5
   1 -14   2 1496.60 612.337   3
 -14  13   2 1373.07 546.141   5
   1 -14   3 319.767 239.970   3
 -14  13   3 532.567 344.276   5
   1 -14   4 207.386 281.789   3
 -14  13   4 270.951 262.780   5
   1 -14   5-607.994 393.701   3
 -14  13   5-199.624 237.021   5
   1 -14   6-894.675 489.981   3
   1 -14   7 0.48158 134.153   3
   1 -14   8 223.870 457.018   3
   2 -14  -9 0.67329 401.536   2
   2 -14  -8 268.772 309.616   2
 -14  12  -8 0.86255 159.272   4
   2 -14  -7-300.828 309.331   2
 -14  12  -7 0.77946 156.985   4
   2 -14  -6-170.072 222.329   2
 -14  12  -6 0.75749 82.1365   4
   2 -14  -5-0.45695 312.778   2
 -14  12  -5-278.889 348.722   4
   2 -14  -4 361.985 363.935   2
   2 -14  -3 7.86406 16.5127   2
 -14  12  -3 114.394 133.882   5
   2 -14  -2 113.679 225.395   3
 -14  12  -2 187.417 179.684   5
   2 -14  -2 191.696 193.535   2
   2 -14  -1 896.049 430.598   3
 -14  12  -1 818.036 448.682   5
   2 -14   0-424.499 302.458   3
 -14  12   0 449.240 240.275   5
   2 -14   1-564.107 354.689   3
 -14  12   1-42.0441 143.554   5
   2 -14   2 94.0945 157.186   3
 -14  12   2-349.940 267.774   5
   2 -14   3 157.024 107.550   3
 -14  12   3 53.4337 247.478   5
   2 -14   4 193.233 315.861   3
 -14  12   4-324.993 285.643   5
   2 -14   5 179.400 217.307   3
   2 -14   6 119.596 407.306   3
   2 -14   7 124.356 185.922   3
   2 -14   8 0.49981 246.873   3
   3 -14  -9-5.79583 338.504   2
 -14  11  -9 0.85581 430.784   4
   3 -14  -8-580.811 446.218   2
 -14  11  -8-570.044 521.281   4
   3 -14  -7-3.14621 47.5710   2
 -14  11  -7-0.72426 295.414   4
   3 -14  -6 224.461 288.444   2
 -14  11  -6 0.68054 265.549   4
   3 -14  -5 331.142 373.873   2
 -14  11  -5 163.820 538.011   4
   3 -14  -4-177.480 208.736   2
 -14  11  -4-741.098 541.286   4
   3 -14  -3 240.917 234.970   2
 -14  11  -3 397.711 303.423   5
 -14  11  -3 65.3086 201.388   4
   3 -14  -3 103.250 138.972   3
   3 -14  -2 580.467 399.306   3
 -14  11  -2 611.885 433.571   5
 -14  11  -2 215.365 484.993   4
   3 -14  -2 150.720 245.746   2
   3 -14  -1-294.276 253.214   3
 -14  11  -1-21.8224 159.750   5
   3 -14  -1-482.483 328.522   2
   3 -14   0-679.130 381.802   3
 -14  11   0-163.136 258.033   5
   3 -14   1 324.170 309.549   3
 -14  11   1 160.945 123.507   5
   3 -14   2 27.2398 258.219   3
 -14  11   2 520.528 373.880   5
   3 -14   3 264.057 156.699   3
 -14  11   3 70.7249 204.093   5
   3 -14   4-73.7017 288.074   3
 -14  11   4-270.808 196.232   5
   3 -14   5-239.733 153.403   3
   3 -14   6 655.909 575.905   3
   3 -14   7 320.937 429.126   3
   3 -14   8 192.624 237.102   3
   3 -14   9 19.9629 202.201   3
   4 -14  -9-400.722 384.057   2
   4 -14  -8 0.56984 58.6177   2
 -14  10  -8 0.72683 368.396   4
   4 -14  -7 0.51628 149.692   2
 -14  10  -7-0.68352 193.977   4
   4 -14  -6-0.47751 199.861   2
 -14  10  -6 863.164 561.140   4
   4 -14  -5 9.39527 34.3030   2
 -14  10  -5 1975.98 862.716   4
   4 -14  -4 302.769 351.510   2
   4 -14  -3 612.777 435.478   2
 -14  10  -3 1.23072 280.323   4
   4 -14  -2 1392.87 638.204   3
 -14  10  -2 1469.06 540.265   5
   4 -14  -2 1132.70 513.117   2
 -14  10  -2 380.115 664.285   4
   4 -14  -1 559.073 351.752   3
 -14  10  -1 234.738 90.4943   5
   4 -14  -1 111.464 207.129   2
   4 -14   0 292.906 143.290   3
 -14  10   0 168.305 25.6568   5
   4 -14   1 1196.76 511.115   3
 -14  10   1 1327.40 480.339   5
   4 -14   2 459.654 319.228   3
 -14  10   2 933.900 412.137   5
   4 -14   3 8.15909 184.520   3
 -14  10   3 207.150 239.676   5
   4 -14   4 427.375 228.938   3
   4 -14   5 354.558 306.408   3
   4 -14   6 140.724 133.804   3
   4 -14   7 5.73361 317.263   3
   4 -14   8 168.552 296.548   3
   4 -14   9 225.699 388.795   3
   5 -14  -9-842.862 553.339   2
   5 -14  -8-108.475 189.812   2
 -14   9  -8-0.65589 149.181   4
   5 -14  -7-244.149 272.187   2
 -14   9  -7-1028.14 621.270   4
   5 -14  -6 126.127 271.700   2
 -14   9  -6-341.028 344.226   4
   5 -14  -5 327.215 304.471   2
 -14   9  -5 15.4028 282.933   4
   5 -14  -4 865.113 480.868   2
 -14   9  -4 107.368 128.096   4
   5 -14  -3 13.6858 326.766   2
 -14   9  -3 86.1926 389.935   4
 -14   9  -2-7.83932 146.067   5
   5 -14  -2 151.140 250.241   2
 -14   9  -2 103.953 107.936   4
   5 -14  -2-2.31230 79.2869   3
   5 -14  -1-267.914 307.231   3
 -14   9  -1-149.352 220.591   5
   5 -14  -1 165.558 136.862   2
   5 -14   0-46.9572 64.4049   3
 -14   9   0-438.512 284.570   5
   5 -14   1-267.861 243.909   3
 -14   9   1 88.8857 87.8418   5
   5 -14   2 970.280 417.487   3
 -14   9   2 993.526 443.397   5
   5 -14   3 1534.29 631.506   3
 -14   9   3 1677.49 526.830   5
   5 -14   4 260.970 237.763   3
   5 -14   5-370.309 313.163   3
   5 -14   6-433.319 345.445   3
   5 -14   7-158.978 213.160   3
   5 -14   8 144.213 207.486   3
   5 -14   9 120.875 364.932   3
   6 -14  -9-328.367 345.830   2
   6 -14  -8 6.24834 41.3176   2
   6 -14  -7-277.376 292.404   2
 -14   8  -7-517.403 418.632   4
   6 -14  -6-86.2589 157.202   2
 -14   8  -6-0.56519 188.892   4
   6 -14  -5 12.8906 153.862   2
 -14   8  -5-281.325 302.040   4
   6 -14  -4-493.920 358.321   2
 -14   8  -4 40.6639 358.102   4
   6 -14  -3 829.051 480.426   2
 -14   8  -3 17.8031 321.316   4
   6 -14  -2 2304.04 742.710   2
 -14   8  -2 2883.28 665.991   5
 -14   8  -1 1339.89 421.917   5
   6 -14  -1 1300.61 473.093   2
   6 -14  -1 1563.98 637.576   3
   6 -14   0 525.306 261.687   3
 -14   8   0 883.823 317.237   5
   6 -14   1 82.0294 79.9825   3
 -14   8   1 222.181 168.253   5
   6 -14   2 47.0376 155.244   3
 -14   8   2-62.4106 158.670   5
   6 -14   3 96.1575 316.355   3
   6 -14   4-380.363 373.299   3
   6 -14   5-330.793 298.697   3
   6 -14   6-260.565 270.620   3
   6 -14   7-0.49277 335.818   3
   6 -14   8 0.50732 72.7712   3
   6 -14   9 1.05047 189.318   3
   6 -14  10-207.880 258.561   3
 -14   8  10 593.120 396.120   1
   7 -14  -9-147.872 233.880   2
   7 -14  -8 0.58008 164.623   2
   7 -14  -7 564.001 539.268   2
 -14   7  -7 423.901 359.800   4
   7 -14  -6 271.655 301.894   2
 -14   7  -6 1093.94 581.434   4
   7 -14  -5-19.7951 126.737   2
 -14   7  -5 48.0170 293.976   4
   7 -14  -4 169.114 116.945   2
 -14   7  -4 188.639 562.539   4
   7   7  -3 971.830 290.869   5
   7 -14  -3 1705.86 677.275   2
 -14   7  -3-0.63474 181.446   4
   7   7  -2 2536.59 506.477   5
   7 -14  -2 3698.56 978.888   2
   7   7  -1 1764.08 452.374   5
 -14   7  -1 635.034 290.271   5
   7 -14  -1 735.447 278.978   2
   7 -14  -1 1013.14 457.302   3
   7 -14   0 645.160 195.009   3
 -14   7   0 690.115 270.087   5
   7 -14   1 759.010 498.999   3
 -14   7   1 978.445 293.846   5
   7 -14   2-108.619 139.474   3
   7 -14   3 215.462 268.431   3
   7 -14   4 18.1582 245.104   3
   7 -14   5 55.1166 63.9735   3
   7 -14   6-500.174 374.256   3
   7 -14   7 0.97832 317.579   3
   7 -14   8 51.2160 236.697   3
   7 -14   9-0.51549 112.488   3
   7 -14  10 103.354 439.944   3
 -14   7  10 58.4673 120.675   1
   8 -14  -9-0.64318 73.1452   2
   8 -14  -8 0.59655 340.748   2
   8 -14  -7-0.55426 246.333   2
 -14   6  -7-643.820 422.513   4
   8 -14  -6 3.06898 85.9221   2
 -14   6  -6-766.460 474.945   4
   8 -14  -5-317.422 299.576   2
   6   8  -5 57.7977 88.2779   5
 -14   6  -5-436.328 361.169   4
   8 -14  -4 28.7482 143.406   2
   6   8  -4-65.6277 164.942   5
 -14   6  -4 205.925 379.561   4
   8 -14  -3 912.918 517.540   2
   6   8  -3 679.094 301.229   5
 -14   6  -3 23.3423 16.1703   4
   6   8  -2 2554.45 562.278   5
   8 -14  -2 2810.14 861.643   2
 -14   6  -2 588.975 671.439   4
   6   8  -1 1290.36 384.208   5
 -14   6  -1 1959.17 456.168   5
   8 -14  -1 1770.44 624.609   2
   6   8   0 825.677 316.464   5
   8 -14   0 993.173 491.145   2
   8 -14   0 1069.85 456.934   3
   8 -14   1 157.954 104.125   3
   8 -14   2 39.9106 239.443   3
   8 -14   3-352.121 287.818   3
   8 -14   4-1.36520 229.858   3
   8 -14   5-342.970 306.312   3
   8 -14   6 273.736 389.375   3
   8 -14   7 454.964 360.563   3
   8 -14   8 114.670 323.942   3
   8 -14   9 178.487 392.404   3
 -14   6   9 0.36964 204.960   1
   8 -14  10 220.840 380.419   3
   9 -14  -9 0.66236 206.289   2
   9 -14  -8 0.61102 229.989   2
   9 -14  -7 87.8496 170.537   2
 -14   5  -7-0.42563 66.0790   4
   9 -14  -6 22.9655 83.9445   2
   5   9  -6-138.949 158.815   5
 -14   5  -6-35.6796 98.5863   4
   9 -14  -5 95.2996 350.909   2
   5   9  -5-5.74005 138.224   5
 -14   5  -5-488.131 374.451   4
   9 -14  -4 300.752 335.284   2
   5   9  -4 175.064 70.9611   5
 -14   5  -4 318.306 422.080   4
   9 -14  -3-500.876 359.683   2
   5   9  -3 91.7897 174.622   5
 -14   5  -3-845.529 592.300   4
   5   9  -2-16.4620 194.047   5
   9 -14  -2 0.41020 46.6493   2
 -14   5  -2-33.3092 212.474   4
   5   9  -1-43.9425 119.396   5
   9 -14  -1 165.327 183.720   2
   5   9   0-43.8898 135.491   5
   9 -14   0 81.8755 201.963   2
   5   9   1-123.961 197.143   5
   9 -14   1-56.8851 228.307   3
   9 -14   2 1426.11 568.501   3
   9 -14   3 2064.18 772.716   3
   9 -14   4 483.119 420.910   3
   9 -14   5 145.305 172.718   3
   9 -14   6 172.777 327.689   3
   9 -14   7-349.526 315.612   3
   9 -14   8 13.6401 78.3477   3
   9 -14   9 11.3377 159.906   3
   9 -14  10-0.49934 288.036   3
  10 -14  -9 120.127 649.518   2
  10 -14  -8 1.24529 194.508   2
  10 -14  -7 87.4376 171.956   2
   4  10  -7-88.2516 237.911   5
 -14   4  -7-283.054 252.629   4
  10 -14  -6 181.944 318.172   2
   4  10  -6 0.36884 92.0735   5
 -14   4  -6 0.42693 931.046   4
  10 -14  -5 60.7633 162.473   2
   4  10  -5 237.796 257.905   5
 -14   4  -5-22.6023 79.0996   4
  10 -14  -4 75.4248 31.5397   2
   4  10  -4 42.2272 134.345   5
 -14   4  -4-0.61740 252.713   4
   4  10  -3 543.682 301.221   5
 -14   4  -3-322.933 377.151   4
  10 -14  -2 1487.19 616.952   2
   4  10  -2 1223.30 464.321   5
   4  10  -1 426.887 240.275   5
  10 -14  -1 99.0331 95.4499   2
   4  10   0 512.087 250.082   5
  10 -14   0-127.100 197.862   2
   4  10   1 785.953 382.007   5
  10 -14   1 866.923 400.112   2
   4  10   2 547.500 363.179   5
  10 -14   2 772.049 334.242   3
  10 -14   3-208.290 351.273   3
  10 -14   4 102.486 132.085   3
  10 -14   5 533.048 411.385   3
   4  10   5 591.665 263.418   1
  10 -14   6 342.841 309.575   3
   4  10   6 174.352 178.969   1
  10 -14   7 0.47737 280.183   3
   4  10   7-315.745 212.328   1
  10 -14   8-148.604 204.641   3
  10 -14   9-98.8506 167.396   3
  10 -14  10 8.26426 48.5983   3
   3  11  -8 136.723 470.281   5
  11 -14  -8-680.517 503.710   2
  11 -14  -7 22.6628 261.318   2
   3  11  -7 84.9551 266.291   5
 -14   3  -7-159.439 180.047   4
  11 -14  -6 59.1239 220.685   2
   3  11  -6 304.890 289.514   5
 -14   3  -6-0.38276 34.7242   4
  11 -14  -5 49.0823 242.140   2
   3  11  -5 625.894 374.961   5
 -14   3  -5 1.84062 216.053   4
  11 -14  -4-244.658 255.747   2
   3  11  -4 0.34189 150.586   5
  11 -14  -3 116.232 266.581   2
   3  11  -3 291.515 270.614   5
 -14   3  -3 0.76402 235.049   4
  11 -14  -2 598.320 481.598   2
   3  11  -2 455.927 275.909   5
   3  11  -1 5.41728 242.366   5
  11 -14  -1-111.557 150.101   2
   3  11   0-13.5838 50.8206   5
  11 -14   0 165.620 225.135   2
   3  11   1 55.2447 76.1813   5
  11 -14   1 10.8955 136.614   2
   3  11   2-231.620 219.431   5
   3  11   3 197.443 253.880   5
   3  11   4 36.5843 42.8688   1
  11 -14   4-646.537 421.526   3
   3  11   5 301.537 203.354   1
  11 -14   5 0.46717 265.399   3
   3  11   6 198.840 217.765   1
  11 -14   6 0.46936 295.886   3
  11 -14   7 18.1792 189.791   3
   3  11   7 295.215 256.133   1
  11 -14   8 0.46457 231.394   3
  11 -14   9-156.145 206.538   3
   2  12  -8 76.1906 436.530   5
  12 -14  -8 1.27774 112.770   2
   2  12  -7 109.115 193.986   5
 -14   2  -7-168.360 176.484   4
  12 -14  -7 22.7181 88.2025   2
  12 -14  -6-0.53365 171.167   2
   2  12  -6 11.9434 141.888   5
 -14   2  -6-248.962 223.722   4
  12 -14  -5-337.720 312.634   2
   2  12  -5-208.863 235.604   5
 -14   2  -5 74.5522 139.459   4
  12 -14  -4 472.922 468.437   2
   2  12  -4 160.310 296.495   5
  12 -14  -3 50.0075 226.690   2
   2  12  -3 153.890 237.202   5
 -14   2  -3 108.730 475.832   4
  12 -14  -2 214.553 283.098   2
   2  12  -2 204.342 180.524   5
  12 -14  -1 653.677 449.826   2
   2  12  -1 831.233 436.311   5
   2  12   0 81.5007 166.540   5
  12 -14   0-409.460 291.868   2
   2  12   1 141.318 139.094   5
  12 -14   1 66.5467 119.862   2
   2  12   2-122.338 166.337   5
  12 -14   2-312.694 250.230   2
   2  12   3 191.193 260.409   5
   2  12   5-18.9064 130.455   1
   2  12   6 178.493 191.229   1
  12 -14   6-79.2118 147.302   3
   2  12   7 3.71165 61.6559   1
  12 -14   7 21.1306 112.485   3
   2  12   8-135.685 154.061   1
  12 -14   8 0.45458 164.959   3
  12 -14   9 20.3455 280.556   3
   1  13  -9 576.248 544.263   5
   1  13  -8 0.78520 272.582   5
  13 -14  -8 462.101 417.844   2
   1  13  -7 153.602 340.219   5
  13 -14  -7-603.917 454.924   2
  13 -14  -6-0.53113 83.4573   2
   1  13  -6-656.769 485.455   5
  13 -14  -5 16.0318 169.061   2
   1  13  -5 124.476 292.807   5
  13 -14  -4 232.834 247.326   2
   1  13  -4 646.990 501.983   5
  13 -14  -3 424.380 381.211   2
   1  13  -3-111.175 168.144   5
  13 -14  -2 619.333 445.218   2
   1  13  -2 471.927 353.930   5
  13 -14  -1 659.194 395.587   2
   1  13  -1 832.092 526.701   5
  13 -14   0 415.718 288.970   2
   1  13   0 375.690 253.239   5
   1  13   1 893.648 481.366   5
  13 -14   1 978.597 411.679   2
   1  13   2 835.379 479.105   5
  13 -14   2 1776.38 630.752   2
   1  13   3 471.025 435.060   5
  13 -14   3 455.166 331.947   2
   1  13   4 145.009 243.688   5
   1  13   6 24.5455 64.9308   1
   1  13   7-249.742 202.405   1
   1  13   8-105.851 138.982   1
   0  14  -9 1666.20 985.046   5
   0  14  -8 397.337 455.666   5
  14 -14  -8-1.94247 266.422   2
   0  14  -7 0.80072 271.108   5
  14 -14  -7 0.58379 131.265   2
   0  14  -6 5491.68 1519.88   5
  14 -14  -6-355.324 333.333   2
  14 -14  -5 74.1261 352.406   2
   0  14  -5 22.0654 205.648   5
  14 -14  -4 0.44187 188.631   2
   0  14  -4-226.359 271.049   5
  14 -14  -3 89.6973 292.584   2
   0  14  -3 107.070 266.188   5
  14 -14  -2 82.9462 151.594   2
   0  14  -2 203.253 209.413   5
  14 -14  -1-24.9573 178.839   2
   0  14  -1 45.7811 287.561   5
  14 -14   0-182.823 217.237   2
   0  14   0 0.43639 209.488   5
  14 -14   1-382.039 271.619   2
   0  14   1-156.405 199.867   5
   0  14   2-221.210 241.071   5
  14 -14   2 270.549 232.983   2
   0  14   3 131.170 255.773   5
  14 -14   3 92.6650 51.4394   2
   0  14   4-36.5990 101.790   5
   0  14   7 52.1406 95.5650   1
   0  14   8 34.7141 222.189   1
  -1  15  -8-497.292 540.305   5
  -1  15  -7-0.92664 166.622   5
  15 -14  -7-487.843 412.308   2
  -1  15  -6 41.4367 523.976   5
  15 -14  -6-623.939 442.842   2
  -1  15  -5-384.150 407.279   5
  15 -14  -5-526.861 387.814   2
  15 -14  -4-268.286 264.680   2
  -1  15  -4-778.938 543.615   5
  15 -14  -3-249.948 244.175   2
  -1  15  -3-615.120 459.608   5
  15 -14  -2-242.875 231.333   2
  -1  15  -2-216.475 260.167   5
  15 -14  -1 316.988 312.493   2
  -1  15  -1 236.720 342.291   5
  15 -14   0 278.396 258.236   2
  -1  15   0 236.527 306.576   5
  15 -14   1 31.8202 125.750   2
  -1  15   1-0.47758 156.214   5
  -1  15   2 100.427 193.777   5
  -1  15   3-571.772 407.390   5
  -1  15   4 308.776 375.330   5
  -2  16  -7 307.008 433.391   5
  16 -14  -7 72.0751 440.751   2
  -2  16  -6-37.7891 144.870   5
  16 -14  -6-0.54834 143.808   2
  -2  16  -5 57.7620 169.836   5
  16 -14  -5-303.380 298.071   2
  -2  16  -4 181.211 324.954   5
  16 -14  -4 89.9781 104.579   2
  16 -14  -3-278.636 259.840   2
  -2  16  -3-365.788 381.658   5
  16 -14  -2 282.430 276.101   2
  -2  16  -2 0.61168 120.486   5
  -2  16  -1 925.530 675.364   5
  -2  16   0 1047.67 768.255   5
  -2  16   1 273.077 415.391   5
  -2  16   2 163.219 224.405   5
  -2  16   3-400.298 353.694   5
  -2  16   4 2.71054 364.968   5
  -2  16   5 0.55890 224.313   5
  -3  17  -5 364.306 453.721   5
  -3  17  -4-716.619 601.654   5
  -3  17  -3 10.1356 154.734   5
  -3  17  -2 584.171 491.044   5
  -3  17  -1 578.622 586.428   5
  -3  17   0 91.2698 273.049   5
  -3  17   1-704.814 493.111   5
  -3  17   2-589.019 445.642   5
  -3  17   3-499.230 410.141   5
  -3  17   4-497.062 411.682   5
  -3  17   5-113.041 198.317   5
  -4  18  -4 1200.65 830.725   5
  -4  18  -3 820.273 654.990   5
  -4  18  -2-239.160 335.347   5
  -4  18  -1-0.74014 300.287   5
  -4  18   0-168.028 261.348   5
  -4  18   1 50.4221 139.321   5
  -4  18   2 1.26319 396.977   5
  -4  18   3 680.983 524.386   5
  -4 -15  -3 291.806 321.266   2
  -4 -15  -2-105.618 194.697   2
  -4 -15  -1-444.974 411.621   2
  -4 -15   0-5.85323 39.3610   3
 -15  19   0-462.644 435.973   5
  -4 -15   0-0.68691 392.714   2
  -4 -15   1 177.685 255.179   3
 -15  19   1-249.353 306.930   5
  -4 -15   2 558.572 403.064   3
 -15  19   2 424.066 386.692   5
  -3 -15  -5-152.660 234.568   2
  -3 -15  -4 84.7060 174.200   2
  -3 -15  -3 1.17305 397.933   2
 -15  18  -3 1030.71 717.247   5
 -15  18  -2 449.857 447.531   5
  -3 -15  -2-0.58702 146.537   2
  -3 -15  -1 203.470 223.094   3
 -15  18  -1-0.68748 512.949   5
  -3 -15  -1 10.4297 189.331   2
  -3 -15   0 93.2536 309.665   3
 -15  18   0 277.451 318.537   5
  -3 -15   1 425.152 338.751   3
 -15  18   1 10.3285 263.605   5
  -3 -15   2 0.47525 242.804   3
 -15  18   2-0.53945 195.318   5
  -3 -15   3 357.798 323.530   3
 -15  18   3-430.511 364.296   5
 -15  18   4-76.0573 153.674   5
 -15  18   5-118.236 194.162   5
  -2 -15  -6 229.766 293.206   2
  -2 -15  -5-427.480 390.635   2
 -15  17  -5-293.562 399.143   5
  -2 -15  -4 71.9583 259.000   2
 -15  17  -4-575.361 537.344   5
  -2 -15  -3 3.30546 194.945   2
 -15  17  -3-242.648 331.485   5
  -2 -15  -2 177.411 203.455   3
 -15  17  -2-89.9973 189.211   5
  -2 -15  -2-45.8669 121.339   2
  -2 -15  -1 45.9545 105.284   3
 -15  17  -1 0.61222 229.003   5
  -2 -15  -1-313.828 320.971   2
  -2 -15   0 138.414 179.010   3
 -15  17   0 0.54866 124.081   5
  -2 -15   1 658.694 489.378   3
 -15  17   1 0.51394 41.3287   5
  -2 -15   2 0.45962 210.562   3
 -15  17   2 0.49233 198.674   5
  -2 -15   3-0.47831 226.072   3
 -15  17   3-727.761 455.906   5
  -2 -15   4-437.174 359.573   3
 -15  17   4 140.880 203.769   5
 -15  17   5 81.1773 158.605   5
  -1 -15  -6 71.2159 161.016   2
 -15  16  -6 0.93546 171.239   5
  -1 -15  -5-0.57815 380.293   2
 -15  16  -5-598.851 547.236   5
 -15  16  -5-827.996 752.896   4
  -1 -15  -4 0.54292 340.986   2
 -15  16  -4-0.77254 79.4690   5
 -15  16  -4 1.09309 59.2626   4
  -1 -15  -3-37.5188 105.749   2
 -15  16  -3-120.325 221.168   5
  -1 -15  -2-228.281 231.832   3
 -15  16  -2 0.61005 263.353   5
  -1 -15  -2-50.0108 121.257   2
  -1 -15  -1-296.627 266.372   3
 -15  16  -1 208.519 258.338   5
  -1 -15  -1 0.51126 113.611   2
  -1 -15   0-708.381 420.040   3
 -15  16   0 176.644 389.889   5
  -1 -15   1-275.988 265.340   3
 -15  16   1-432.776 343.346   5
  -1 -15   2 0.44797 100.725   3
 -15  16   2 17.6738 68.6182   5
  -1 -15   3 89.0110 271.405   3
 -15  16   3 6.89668 163.459   5
  -1 -15   4 0.48346 139.190   3
 -15  16   4-203.790 241.102   5
  -1 -15   5 101.779 304.494   3
 -15  16   5 0.52184 145.368   5
   0 -15  -7 213.237 522.144   2
   0 -15  -6 536.879 430.101   2
 -15  15  -6 2394.09 1102.71   5
   0 -15  -5-174.327 235.914   2
 -15  15  -5-19.6769 345.617   5
 -15  15  -5 10.4957 305.375   4
   0 -15  -4 1.00667 134.797   2
 -15  15  -4 151.835 379.117   5
 -15  15  -4-304.351 421.848   4
   0 -15  -3 30.6490 106.838   3
   0 -15  -3 99.3286 411.101   2
 -15  15  -3 401.624 555.164   5
   0 -15  -2-58.9864 118.363   3
 -15  15  -2-0.54619 192.821   5
   0 -15  -2-23.5610 79.9926   2
   0 -15  -1 203.834 347.654   3
 -15  15  -1 86.7581 38.5451   5
   0 -15  -1 128.245 376.382   2
   0 -15   0 310.587 397.315   3
 -15  15   0 786.132 537.970   5
   0 -15   1 95.7665 227.973   3
 -15  15   1 10.1231 129.361   5
   0 -15   2 75.2833 188.246   3
 -15  15   2 90.9084 205.807   5
   0 -15   3 290.740 277.998   3
 -15  15   3 0.43980 99.4617   5
   0 -15   4 73.3983 313.456   3
 -15  15   4-54.3560 123.435   5
   0 -15   5-0.49092 132.008   3
 -15  15   5 37.3439 359.573   5
   0 -15   6 85.2376 160.891   3
   1 -15  -7 543.010 439.351   2
   1 -15  -6 363.471 343.818   2
   1 -15  -5-367.668 332.687   2
 -15  14  -5-86.7150 191.136   5
 -15  14  -5-356.822 446.170   4
   1 -15  -4 6.18782 247.791   2
 -15  14  -4 460.729 508.915   5
 -15  14  -4 0.90921 490.960   4
   1 -15  -3 67.3010 85.2755   3
   1 -15  -3-0.44766 131.149   2
 -15  14  -3 108.732 188.309   5
   1 -15  -2 251.006 284.990   3
 -15  14  -2 45.7266 306.205   5
   1 -15  -2-543.961 373.787   2
   1 -15  -1 230.056 353.136   3
 -15  14  -1 0.42631 216.569   5
   1 -15  -1 46.7888 135.797   2
   1 -15   0 336.354 319.716   3
 -15  14   0 654.118 343.755   5
   1 -15   1 19.8269 163.970   3
 -15  14   1 257.199 246.919   5
   1 -15   2-572.625 380.990   3
 -15  14   2-170.378 238.254   5
   1 -15   3 14.6868 184.709   3
 -15  14   3-280.802 363.793   5
   1 -15   4-25.7741 83.5086   3
 -15  14   4 73.2783 217.250   5
   1 -15   5 203.732 239.894   3
 -15  14   5-158.754 221.862   5
   1 -15   6 22.6003 317.539   3
   2 -15  -7 24.1512 224.379   2
 -15  13  -7 0.94519 455.469   4
   2 -15  -6 245.568 414.714   2
 -15  13  -6 1.82879 461.337   4
   2 -15  -5 0.49099 174.959   2
   2 -15  -4 443.008 345.414   2
 -15  13  -4 21.7947 282.950   5
 -15  13  -4-0.83129 397.528   4
   2 -15  -3 107.971 236.016   2
 -15  13  -3-227.472 256.874   5
 -15  13  -3 13.5130 79.4637   4
   2 -15  -3 2.03754 22.0934   3
 -15  13  -2 40.8853 214.317   5
   2 -15  -2 10.9653 64.6725   2
   2 -15  -1 366.642 359.086   3
 -15  13  -1 177.052 206.181   5
   2 -15  -1 301.137 367.226   2
   2 -15   0 365.416 334.868   3
 -15  13   0 91.4215 21.6318   5
   2 -15   1 0.41267 161.646   3
 -15  13   1-404.613 294.456   5
   2 -15   2 576.779 442.221   3
 -15  13   2 540.136 358.159   5
   2 -15   3 112.871 206.185   3
 -15  13   3 319.991 343.206   5
   2 -15   4-319.051 292.802   3
 -15  13   4 432.722 492.541   5
   2 -15   5 1.89447 89.6879   3
   2 -15   6 465.781 517.874   3
   2 -15   7 57.6655 304.919   3
   3 -15  -8-469.531 411.063   2
   3 -15  -7-352.945 339.329   2
 -15  12  -7 1690.72 914.359   4
   3 -15  -6 594.478 423.385   2
 -15  12  -6 0.83059 289.044   4
   3 -15  -5 0.48034 122.702   2
   3 -15  -4 117.296 224.106   2
 -15  12  -4-111.078 224.434   4
   3 -15  -3 492.659 417.397   2
 -15  12  -3 492.621 419.217   5
 -15  12  -3 5.23355 315.024   4
   3 -15  -3 500.400 418.773   3
   3 -15  -2 293.294 332.791   3
 -15  12  -2 166.867 158.091   5
   3 -15  -2 144.426 225.679   2
   3 -15  -1 575.895 398.345   3
 -15  12  -1 401.326 298.856   5
   3 -15  -1 108.269 202.963   2
   3 -15   0 510.502 404.005   3
 -15  12   0 331.660 248.328   5
   3 -15   1-401.890 310.952   3
 -15  12   1-244.499 231.553   5
   3 -15   2-591.610 384.604   3
 -15  12   2 90.0067 118.781   5
   3 -15   3 657.448 427.169   3
 -15  12   3 261.650 219.322   5
   3 -15   4 79.0290 496.817   3
 -15  12   4 1904.95 817.017   5
   3 -15   5 842.808 526.647   3
   3 -15   6 232.278 238.545   3
   3 -15   7 109.887 332.833   3
   4 -15  -8-0.60100 173.644   2
 -15  11  -8-424.792 441.589   4
   4 -15  -7 19.6634 79.4601   2
 -15  11  -7 0.74138 231.600   4
   4 -15  -6 284.082 358.387   2
 -15  11  -6-314.899 376.153   4
   4 -15  -5 0.95540 111.094   2
 -15  11  -5 61.8451 165.592   4
   4 -15  -4 13.5756 60.0950   2
 -15  11  -4-552.881 489.163   4
   4 -15  -3 27.1587 119.103   2
 -15  11  -3 6.80479 40.0158   5
 -15  11  -3 107.457 573.315   4
 -15  11  -2 229.998 208.781   5
   4 -15  -2-53.8313 244.717   2
   4 -15  -2-525.044 359.779   3
   4 -15  -1 100.318 102.567   3
 -15  11  -1 154.318 58.6324   5
   4 -15   0 255.939 110.563   3
 -15  11   0 274.742 233.678   5
   4 -15   1 548.970 335.336   3
 -15  11   1 518.717 331.173   5
   4 -15   2 396.204 385.110   3
 -15  11   2-5.20079 148.548   5
   4 -15   3-24.8040 278.187   3
 -15  11   3 136.143 90.0263   5
   4 -15   4 393.680 305.991   3
   4 -15   5-535.335 388.192   3
   4 -15   6-0.49812 238.203   3
   4 -15   7-293.507 299.921   3
   4 -15   8 93.7239 470.133   3
   5 -15  -8-162.248 238.526   2
 -15  10  -8-521.889 471.578   4
   5 -15  -7-0.54590 170.534   2
 -15  10  -7 1.34020 299.144   4
   5 -15  -6-0.50997 147.862   2
 -15  10  -6-105.017 206.528   4
   5 -15  -5 104.119 171.768   2
 -15  10  -5-2.13500 244.025   4
   5 -15  -4 183.900 265.887   2
   5 -15  -3-91.4396 152.628   2
 -15  10  -3 256.772 238.585   5
 -15  10  -3-330.623 371.349   4
 -15  10  -2 918.137 451.314   5
   5 -15  -2 655.410 362.685   2
   5 -15  -2 322.409 345.620   3
   5 -15  -1 1820.30 693.901   3
 -15  10  -1 2150.76 621.814   5
   5 -15  -1 1657.18 677.490   2
   5 -15   0 217.637 333.843   3
 -15  10   0 738.982 314.887   5
   5 -15   1-336.277 287.191   3
 -15  10   1-183.598 139.757   5
   5 -15   2 61.9158 124.669   3
 -15  10   2-264.658 341.484   5
   5 -15   3 39.9943 248.982   3
   5 -15   4 52.7815 223.941   3
   5 -15   5-443.505 356.272   3
   5 -15   6 0.50429 270.384   3
   5 -15   7-272.201 289.420   3
   5 -15   8-0.54440 301.287   3
 -15   9  -9-508.157 453.536   4
   6 -15  -8 0.59969 187.336   2
 -15   9  -8-0.66840 168.419   4
   6 -15  -7 0.55277 177.805   2
 -15   9  -7 2.49615 248.158   4
   6 -15  -6-339.662 321.542   2
 -15   9  -6-432.109 398.274   4
   6 -15  -5 67.8643 245.230   2
 -15   9  -5-0.68310 170.523   4
   6 -15  -4 524.222 412.331   2
   6 -15  -3 183.715 224.662   2
 -15   9  -3 71.9556 731.502   4
   6 -15  -2 1073.60 558.743   2
 -15   9  -2 964.797 372.599   5
 -15   9  -1 2638.19 651.572   5
   6 -15  -1 3028.33 925.343   2
   6 -15  -1 2514.59 811.829   3
   6 -15   0 1634.24 644.377   3
 -15   9   0 1525.36 528.201   5
   6 -15   1 846.253 406.299   3
   6 -15   2 674.359 482.122   3
   6 -15   3 78.2131 59.0302   3
   6 -15   4-252.047 264.209   3
   6 -15   5-312.878 300.571   3
   6 -15   6 199.608 303.223   3
   6 -15   7-416.176 360.841   3
   6 -15   8 0.55017 276.611   3
   6 -15   9 722.382 490.902   3
 -15   8  -9 0.60857 362.638   4
   7 -15  -8 0.60949 171.701   2
 -15   8  -8-355.711 352.098   4
   7 -15  -7-92.6663 175.983   2
 -15   8  -7-0.56541 177.688   4
   7 -15  -6-211.506 256.731   2
 -15   8  -6-0.58123 231.991   4
   7 -15  -5 252.412 353.337   2
 -15   8  -5 3.27216 306.039   4
   7 -15  -4 74.8811 237.756   2
 -15   8  -4 63.5764 472.427   4
   7 -15  -3-110.880 172.817   2
 -15   8  -3 23.1382 100.761   4
   7 -15  -2-460.711 344.727   2
 -15   8  -2-223.183 263.521   5
 -15   8  -1 182.294 77.9648   5
   7 -15  -1 243.966 353.654   2
   7 -15  -1-207.132 228.279   3
   7 -15   0 194.979 101.801   3
   7 -15   0-17.6455 98.4433   2
   7 -15   1 198.744 74.8876   3
   7 -15   2-19.3577 350.135   3
   7 -15   3-252.921 316.015   3
   7 -15   4 249.839 319.405   3
   7 -15   5 638.758 392.760   3
   7 -15   6-663.680 448.376   3
   7 -15   7-658.237 453.224   3
   7 -15   8-248.032 281.931   3
   7 -15   9-0.55826 180.080   3
 -15   7  -9-249.710 282.292   4
   8 -15  -8 139.002 361.848   2
 -15   7  -8-389.149 348.265   4
   8 -15  -7-130.959 212.155   2
 -15   7  -7 0.52510 130.461   4
   8 -15  -6-0.54460 220.951   2
 -15   7  -6 0.53600 207.119   4
   8 -15  -5 54.6660 200.066   2
 -15   7  -5 0.63266 55.3078   4
   8 -15  -4 269.184 334.088   2
 -15   7  -4-348.634 385.024   4
   8 -15  -3 304.108 289.880   2
 -15   7  -3-425.022 443.462   4
   7   8  -2 8.68379 111.609   5
   8 -15  -2 413.756 406.423   2
   7   8  -1 124.256 158.256   5
   8 -15  -1 269.403 198.062   2
   8 -15   0-517.995 361.954   2
   8 -15   0 79.3593 303.487   3
   8 -15   1 250.602 138.279   3
   8 -15   2-150.481 318.126   3
   8 -15   3 72.8158 250.221   3
   8 -15   4-42.2637 111.148   3
   8 -15   5 108.785 299.116   3
   8 -15   6 0.52130 140.178   3
   8 -15   7 8.50378 304.677   3
   8 -15   8 392.891 548.876   3
   8 -15   9-1.10420 270.058   3
   9 -15  -8 14.2169 73.4912   2
 -15   6  -8-0.46931 193.778   4
   9 -15  -7-48.1121 130.422   2
 -15   6  -7-276.114 277.982   4
   9 -15  -6 132.059 129.585   2
 -15   6  -6-243.177 266.631   4
   9 -15  -5 49.2097 289.445   2
 -15   6  -5-0.60969 72.4198   4
   9 -15  -4 157.140 267.981   2
 -15   6  -4 485.994 678.638   4
   9 -15  -3 28.2102 132.688   2
   6   9  -3 88.2429 98.5260   5
 -15   6  -3 169.447 416.245   4
   6   9  -2 1352.73 436.093   5
   9 -15  -2 985.289 578.558   2
   6   9  -1 2473.72 607.664   5
   9 -15  -1 2412.91 900.060   2
   6   9   0 696.216 292.824   5
   9 -15   0 1265.00 591.150   2
   9 -15   1 283.777 121.452   3
   9 -15   2 489.399 432.325   3
   9 -15   3 200.499 266.428   3
   9 -15   4-21.3520 163.061   3
   9 -15   5-159.202 220.664   3
   9 -15   6 914.050 499.366   3
   9 -15   7 66.9989 145.296   3
   9 -15   8 1.07725 234.346   3
   9 -15   9-258.745 287.851   3
  10 -15  -8-361.641 374.909   2
 -15   5  -8-0.41933 132.565   4
  10 -15  -7 59.8698 146.635   2
 -15   5  -7-0.42965 199.295   4
  10 -15  -6 0.56879 250.146   2
 -15   5  -6 37.2033 206.547   4
  10 -15  -5-162.156 224.391   2
 -15   5  -5 0.58390 157.011   4
  10 -15  -4 468.144 541.269   2
   5  10  -4 111.014 144.644   5
  10 -15  -3 194.639 387.518   2
   5  10  -3 497.020 430.418   5
 -15   5  -3 270.064 688.830   4
  10 -15  -2 479.943 256.173   2
   5  10  -2 373.342 253.172   5
   5  10  -1 2087.97 579.263   5
  10 -15  -1 2700.78 876.956   2
   5  10   0 315.633 137.645   5
  10 -15   0 29.2868 70.4313   2
   5  10   1-150.343 88.5152   5
  10 -15   1-481.955 337.332   2
  10 -15   2-924.114 513.223   3
  10 -15   3 3.49940 179.783   3
  10 -15   4 6.13398 17.5274   3
  10 -15   5-14.1001 65.7933   3
  10 -15   6 2784.43 1017.19   3
  10 -15   7 0.53134 40.7397   3
  10 -15   8-0.53350 259.672   3
  10 -15   9 0.53601 370.792   3
 -15   4  -8-178.804 199.972   4
  11 -15  -8 0.67191 100.426   2
  11 -15  -7-47.3132 131.588   2
 -15   4  -7 0.38773 171.034   4
  11 -15  -6 0.57701 195.863   2
   4  11  -6 161.986 274.217   5
 -15   4  -6 0.42582 140.807   4
  11 -15  -5 59.4158 320.274   2
   4  11  -5-96.9957 80.0043   5
 -15   4  -5 0.55805 252.046   4
  11 -15  -4-149.527 208.621   2
   4  11  -4 13.6890 100.639   5
  11 -15  -3 64.5429 133.214   2
   4  11  -3-249.520 222.967   5
 -15   4  -3 2.67328 189.588   4
  11 -15  -2 20.1278 134.144   2
   4  11  -2 727.576 681.085   5
   4  11  -1 98.5058 101.791   5
  11 -15  -1 286.901 278.958   2
   4  11   0 365.996 225.966   5
  11 -15   0-18.9115 155.507   2
   4  11   1 875.849 425.814   5
  11 -15   1 19.8864 84.0315   2
   4  11   2 107.569 148.853   5
  11 -15   3 457.911 411.544   3
  11 -15   4 185.873 207.946   3
  11 -15   5 47.7871 78.6497   3
  11 -15   6-352.064 328.314   3
  11 -15   7-712.368 465.795   3
  11 -15   8 627.314 436.533   3
  11 -15   9 38.1986 107.665   3
  12 -15  -8-0.67945 224.675   2
  12 -15  -7-470.025 415.303   2
 -15   3  -7-175.764 187.971   4
  12 -15  -6 45.3945 123.831   2
   3  12  -6 220.394 242.146   5
 -15   3  -6-0.40225 250.749   4
  12 -15  -5 73.1035 150.883   2
   3  12  -5 100.258 186.782   5
 -15   3  -5-0.52577 293.475   4
  12 -15  -4 396.850 446.456   2
   3  12  -4 96.6132 205.055   5
 -15   3  -4 0.69466 505.843   4
  12 -15  -3 277.993 336.635   2
   3  12  -3 176.617 281.556   5
  12 -15  -2 89.3354 168.063   2
   3  12  -2 144.413 126.082   5
  12 -15  -1 422.533 323.111   2
   3  12  -1 362.133 351.425   5
   3  12   0-124.841 160.201   5
  12 -15   0 187.759 262.934   2
   3  12   1-184.571 198.747   5
  12 -15   1-199.247 210.439   2
   3  12   2-204.088 214.136   5
  12 -15   2-426.018 308.233   2
   3  12   3-0.40160 163.517   5
  12 -15   6 176.649 355.501   3
  12 -15   7 1.01436 157.960   3
  12 -15   8 0.50185 375.432   3
  12 -15   9 0.49865 82.8870   3
   2  13  -7-185.191 257.952   5
  13 -15  -7 113.186 203.423   2
  13 -15  -6 2.86210 259.652   2
   2  13  -6-0.53391 111.360   5
  13 -15  -5-381.393 343.673   2
   2  13  -5-37.2491 101.612   5
  13 -15  -4 325.805 304.729   2
   2  13  -4-441.990 333.107   5
  13 -15  -3 0.45038 204.293   2
   2  13  -3 122.727 269.996   5
  13 -15  -2 893.563 591.454   2
   2  13  -2 21.1817 100.570   5
  13 -15  -1 71.8789 219.948   2
   2  13  -1 252.758 293.627   5
   2  13   0-98.4441 149.180   5
  13 -15   0 395.108 293.278   2
   2  13   1 4.76706 241.374   5
  13 -15   1 202.071 237.316   2
   2  13   2 0.82889 105.391   5
  13 -15   2 474.834 374.476   2
   2  13   3 646.164 397.329   5
  13 -15   3 101.393 183.669   2
   1  14  -8 609.405 536.324   5
   1  14  -7-240.844 318.100   5
  14 -15  -7 0.62091 228.315   2
  14 -15  -6 22.1368 340.462   2
   1  14  -6-11.3497 64.8621   5
  14 -15  -5-287.043 296.761   2
   1  14  -5 97.6658 312.947   5
  14 -15  -4 0.48308 224.689   2
   1  14  -4-503.070 384.185   5
  14 -15  -3 23.0741 173.813   2
   1  14  -3 35.0937 301.458   5
  14 -15  -2 48.6538 144.361   2
   1  14  -2-26.2747 82.2441   5
  14 -15  -1 27.2566 79.5589   2
   1  14  -1-415.591 323.703   5
  14 -15   0 167.458 92.0242   2
   1  14   0 9.35181 163.612   5
   1  14   1 0.43190 197.307   5
  14 -15   1 19.3123 126.187   2
   1  14   2-298.249 280.000   5
  14 -15   2 197.044 229.806   2
   1  14   3-657.476 423.633   5
  14 -15   3-368.493 278.389   2
   1  14   4 46.6831 136.484   5
  14 -15   4 40.9931 114.320   2
   0  15  -7-154.709 274.306   5
  15 -15  -7 159.198 241.246   2
   0  15  -6 160.357 263.937   5
  15 -15  -6-179.277 244.525   2
  15 -15  -5-358.664 330.819   2
   0  15  -5 38.9246 338.824   5
  15 -15  -4-77.4443 147.528   2
   0  15  -4-403.516 372.189   5
  15 -15  -3-5.76718 38.7823   2
   0  15  -3 272.927 451.347   5
  15 -15  -2 6.13877 177.504   2
   0  15  -2-103.101 174.170   5
  15 -15  -1 194.856 283.204   2
   0  15  -1 0.96152 327.007   5
  15 -15   0 512.992 357.571   2
   0  15   0 810.613 474.457   5
  15 -15   1 202.561 201.640   2
   0  15   1-42.0365 136.945   5
   0  15   2 286.901 323.871   5
   0  15   3 0.49861 141.502   5
   0  15   4-91.0969 166.490   5
  -1  16  -6-0.85615 196.931   5
  16 -15  -6-53.6866 134.259   2
  -1  16  -5-53.8004 154.810   5
  16 -15  -5-455.515 373.798   2
  16 -15  -4 42.0686 181.796   2
  -1  16  -4-811.184 571.833   5
  16 -15  -3-271.992 265.494   2
  -1  16  -3 86.6133 409.152   5
  16 -15  -2-239.930 240.313   2
  -1  16  -2-239.563 284.441   5
  -1  16  -1 209.410 436.003   5
  -1  16   0 34.2431 102.981   5
  -1  16   1-335.808 319.357   5
  -1  16   2-174.333 230.940   5
  -1  16   3 10.1464 203.904   5
  -1  16   4 62.6596 336.088   5
  -2  17  -5-882.360 672.841   5
  -2  17  -4-268.991 354.749   5
  -2  17  -3-296.666 353.516   5
  -2  17  -2-0.66061 118.786   5
  -2  17  -1 25.9680 93.6190   5
  -2  17   0-39.5566 117.172   5
  -2  17   1-137.283 214.413   5
  -2  17   2-319.756 326.743   5
  -2  17   3-183.203 248.312   5
  -2  17   4 170.205 328.418   5
  -3  18  -3-0.82477 310.443   5
  -3  18  -2 6.82618 48.6548   5
  -3  18  -1 33.1083 408.845   5
  -3  18   0 542.693 707.124   5
  -3  18   1 266.549 314.977   5
  -3  18   2 0.62255 361.639   5
  -3 -16   0-165.338 215.204   3
  -3 -16   1-229.570 259.525   3
  -2 -16  -3-8.57669 317.187   2
 -16  18  -3 865.907 638.558   5
 -16  18  -2 0.71464 380.807   5
  -2 -16  -2 0.60802 138.293   2
  -2 -16  -1 164.205 179.084   3
 -16  18  -1 391.543 384.061   5
  -2 -16  -1 397.082 383.577   2
  -2 -16   0 0.46376 160.602   3
  -2 -16   0 96.6422 193.264   2
  -2 -16   1-489.466 373.610   3
 -16  18   1 0.54711 141.634   5
  -2 -16   2-282.964 290.962   3
 -16  18   2-0.52173 53.6691   5
 -16  18   3 0.52000 129.807   5
 -16  18   4-236.368 272.595   5
  -1 -16  -4-149.320 230.830   2
 -16  17  -4 43.5740 339.463   5
  -1 -16  -3 242.928 472.629   2
 -16  17  -3 2.18514 261.350   5
  -1 -16  -2 6.53543 40.9138   3
 -16  17  -2 0.63830 239.258   5
  -1 -16  -2-154.549 225.556   2
  -1 -16  -1 265.449 263.412   3
 -16  17  -1-0.57690 90.6494   5
  -1 -16  -1-200.599 261.099   2
  -1 -16   0 0.45735 186.874   3
 -16  17   0 187.116 240.115   5
  -1 -16   1 503.158 375.062   3
 -16  17   1 226.429 257.944   5
  -1 -16   2-0.98426 134.470   3
 -16  17   2 33.0950 198.162   5
  -1 -16   3-432.162 361.104   3
 -16  17   3 154.172 211.627   5
 -16  17   4 62.1199 138.070   5
   0 -16  -5-448.027 393.780   2
 -16  16  -5-139.983 261.856   5
   0 -16  -4 445.510 381.427   2
 -16  16  -4 218.183 310.645   5
   0 -16  -3 24.7518 484.880   2
 -16  16  -3 0.65697 203.369   5
   0 -16  -2 320.293 288.416   3
 -16  16  -2 498.437 409.725   5
   0 -16  -2 75.2022 449.366   2
   0 -16  -1-458.248 346.197   3
 -16  16  -1 0.51727 133.909   5
   0 -16  -1 10.6301 266.917   2
   0 -16   0 356.643 391.115   3
 -16  16   0 2.83582 177.161   5
   0 -16   1-318.698 296.107   3
 -16  16   1 0.45841 106.607   5
   0 -16   2 0.96166 208.549   3
 -16  16   2 1421.25 622.700   5
   0 -16   3-0.50153 219.557   3
 -16  16   3-424.781 346.011   5
   0 -16   4 4.67169 99.8950   3
 -16  16   4-541.313 406.980   5
   1 -16  -6 137.537 416.842   2
 -16  15  -6-622.883 562.837   5
   1 -16  -5 46.5503 393.346   2
 -16  15  -5-671.409 555.111   5
 -16  15  -5-1.10686 75.9063   4
   1 -16  -4 12.0254 369.375   2
 -16  15  -4 0.67405 142.476   5
 -16  15  -4 472.037 534.209   4
   1 -16  -3-162.040 217.265   2
 -16  15  -3-487.140 412.215   5
   1 -16  -3-137.320 186.415   3
   1 -16  -2 351.633 355.234   3
 -16  15  -2 164.813 224.442   5
   1 -16  -2 0.48348 26.2125   2
   1 -16  -1 11.7062 133.699   3
 -16  15  -1-411.537 335.792   5
   1 -16  -1 0.49779 360.876   2
   1 -16   0 374.846 361.773   3
 -16  15   0-448.581 337.749   5
   1 -16   1 5.93391 287.323   3
 -16  15   1-591.595 385.705   5
   1 -16   2-611.961 412.636   3
 -16  15   2-195.304 224.983   5
   1 -16   3-0.48828 199.513   3
 -16  15   3 378.188 324.803   5
   1 -16   4-125.118 193.812   3
   1 -16   5 341.464 325.740   3
   2 -16  -6-209.237 263.387   2
   2 -16  -5 435.780 368.083   2
 -16  14  -5-463.337 438.284   5
 -16  14  -5-724.648 656.618   4
   2 -16  -4 15.0106 239.581   2
 -16  14  -4 0.61096 46.8442   5
 -16  14  -4 73.5918 787.538   4
   2 -16  -3 135.736 281.258   2
 -16  14  -3 55.8576 132.803   5
   2 -16  -3 2.20686 178.109   3
   2 -16  -2-475.410 354.882   3
   2 -16  -2 0.46331 146.034   2
   2 -16  -1 271.827 356.188   3
 -16  14  -1 755.407 470.313   5
   2 -16  -1-168.665 216.135   2
   2 -16   0 1434.47 783.995   3
 -16  14   0 343.667 383.789   5
   2 -16   1 669.742 558.816   3
 -16  14   1 0.40630 209.904   5
   2 -16   2 0.93387 90.5712   3
 -16  14   2 450.489 368.542   5
   2 -16   3 30.3237 92.6304   3
   2 -16   4-141.914 204.178   3
   2 -16   5 77.4114 290.303   3
   3 -16  -6 507.470 514.112   2
 -16  13  -6-0.98508 408.835   4
   3 -16  -5-412.901 353.289   2
 -16  13  -5 2.79975 415.388   4
   3 -16  -4 0.48822 193.061   2
 -16  13  -4 2.25406 54.6522   5
 -16  13  -4 0.89968 498.383   4
   3 -16  -3 111.895 260.625   2
 -16  13  -3-677.328 436.733   5
   3 -16  -3-382.865 318.779   3
   3 -16  -2-337.729 300.007   3
 -16  13  -2-539.240 365.871   5
   3 -16  -2-162.516 208.840   2
   3 -16  -1 371.593 450.497   3
 -16  13  -1 172.925 235.033   5
   3 -16  -1-582.802 398.879   2
   3 -16   0 441.446 345.346   3
 -16  13   0-191.830 205.553   5
   3 -16   1 273.366 421.210   3
 -16  13   1-452.346 323.559   5
   3 -16   2 0.46100 163.895   3
 -16  13   2 302.707 408.969   5
   3 -16   3-210.112 243.698   3
   3 -16   4 0.49604 126.712   3
   3 -16   5-104.158 177.689   3
   3 -16   6 160.873 310.021   3
   4 -16  -7 125.008 443.017   2
 -16  12  -7 0.90495 586.292   4
   4 -16  -6 126.970 200.395   2
   4 -16  -5-0.50945 114.550   2
 -16  12  -5 1139.76 767.337   4
   4 -16  -4 9.70283 264.336   2
 -16  12  -4 231.605 256.919   5
 -16  12  -4 0.85646 387.937   4
   4 -16  -3 0.46188 218.304   2
 -16  12  -3 366.760 325.901   5
 -16  12  -3 1.63399 347.646   4
 -16  12  -2 62.0811 118.261   5
   4 -16  -2 0.45387 72.9959   2
   4 -16  -2 0.45832 91.6362   3
   4 -16  -1 118.243 161.682   3
 -16  12  -1 273.392 242.211   5
   4 -16  -1 64.5027 177.334   2
   4 -16   0 174.702 367.281   3
 -16  12   0 396.323 309.844   5
   4 -16   1 104.791 137.224   3
 -16  12   1 179.218 263.823   5
   4 -16   2 308.792 378.970   3
   4 -16   3-103.269 103.204   3
   4 -16   4-552.626 402.899   3
   4 -16   5 104.136 178.092   3
   4 -16   6 192.700 324.842   3
   4 -16   7-0.55916 151.578   3
   5 -16  -7 202.862 318.349   2
 -16  11  -7-0.81863 382.823   4
   5 -16  -6 301.643 424.558   2
 -16  11  -6 1214.44 770.098   4
   5 -16  -5 123.608 193.054   2
   5 -16  -4 221.667 409.066   2
 -16  11  -4-298.612 381.590   4
   5 -16  -3 101.484 271.494   2
 -16  11  -3 344.924 226.697   5
 -16  11  -3-390.486 432.142   4
 -16  11  -2 160.695 195.719   5
   5 -16  -2 346.905 310.912   2
   5 -16  -2 1.84962 135.004   3
   5 -16  -1 1098.99 595.528   3
 -16  11  -1 926.233 414.027   5
   5 -16  -1 754.333 443.452   2
   5 -16   0 1778.46 799.976   3
   5 -16   1 803.620 455.309   3
   5 -16   2 102.728 167.547   3
   5 -16   3-201.046 238.139   3
   5 -16   4-237.929 264.138   3
   5 -16   5-701.219 464.108   3
   5 -16   6 0.54428 140.283   3
   5 -16   7 363.110 346.658   3
 -16  10  -8 0.70094 216.979   4
   6 -16  -7 59.3189 142.408   2
 -16  10  -7 0.72314 160.695   4
   6 -16  -6-29.5658 97.5515   2
 -16  10  -6-464.766 457.762   4
   6 -16  -5-196.099 245.529   2
 -16  10  -5 0.80620 232.110   4
   6 -16  -4-0.50726 155.086   2
 -16  10  -4 0.82183 133.669   4
   6 -16  -3 5.78097 271.430   2
 -16  10  -3 34.1224 136.592   5
 -16  10  -2 140.375 194.297   5
   6 -16  -2-60.3177 128.763   2
   6 -16  -1-123.200 184.193   2
   6 -16  -1-0.46055 359.763   3
   6 -16   0 39.9906 131.398   3
   6 -16   0 543.129 449.388   2
   6 -16   1 223.041 223.030   3
   6 -16   2 330.910 304.117   3
   6 -16   3 169.836 390.171   3
   6 -16   4 0.50663 128.245   3
   6 -16   5-619.541 438.220   3
   6 -16   6 211.648 311.862   3
   6 -16   7-259.899 294.451   3
 -16   9  -8 0.61956 91.3749   4
   7 -16  -7-122.930 207.666   2
 -16   9  -7 55.2405 143.595   4
   7 -16  -6-23.5562 88.1297   2
 -16   9  -6 2.12371 278.352   4
   7 -16  -5-576.363 425.824   2
   7 -16  -4 70.3435 321.691   2
 -16   9  -4-281.860 367.930   4
   7 -16  -3 795.771 583.932   2
 -16   9  -3-0.85851 273.785   4
   7 -16  -2-203.251 237.929   2
   7 -16  -1 579.071 427.256   2
   7 -16  -1-482.141 363.543   3
   7 -16   0 158.352 283.143   3
   7 -16   0 167.958 342.971   2
   7 -16   1 180.900 270.718   3
   7 -16   2-214.246 248.777   3
   7 -16   3 183.000 68.4333   3
   7 -16   4 96.0807 332.330   3
   7 -16   5-2.69348 29.2059   3
   7 -16   6 27.1343 199.148   3
   7 -16   7-209.433 264.706   3
   7 -16   8-75.4114 160.984   3
 -16   8  -8-274.740 300.013   4
   8 -16  -7 14.7753 267.852   2
 -16   8  -7 4.57511 236.944   4
   8 -16  -6 38.0624 317.628   2
 -16   8  -6-663.467 506.425   4
   8 -16  -5 0.54954 189.372   2
   8 -16  -4 241.505 429.967   2
 -16   8  -4 0.82829 301.912   4
   8 -16  -3 207.122 360.969   2
 -16   8  -3-0.90555 472.949   4
   8 -16  -2 234.067 327.438   2
   8 -16  -1 434.972 452.079   2
   8 -16   0 691.990 512.199   2
   8 -16   0 1298.35 642.764   3
   8 -16   1 50.0219 228.328   3
   8 -16   2 266.559 245.247   3
   8 -16   3 154.325 348.060   3
   8 -16   4 146.632 236.869   3
   8 -16   5 69.3884 336.749   3
   8 -16   6 5.66832 83.5982   3
   8 -16   7 2.88524 420.666   3
   8 -16   8 533.841 555.276   3
 -16   7  -8-0.50285 230.364   4
   9 -16  -7 0.63819 286.157   2
 -16   7  -7-1.03733 348.958   4
   9 -16  -6 125.182 230.604   2
 -16   7  -6-0.60966 105.564   4
   9 -16  -5 0.56111 386.000   2
   9 -16  -4 177.445 383.986   2
 -16   7  -4 801.024 846.029   4
   9 -16  -3 387.730 383.482   2
 -16   7  -3-24.9219 118.505   4
   9 -16  -2-130.926 192.834   2
   9 -16  -1 508.852 518.678   2
   9 -16   0 328.127 366.871   2
   9 -16   1 67.1776 92.7038   2
   9 -16   1 57.6201 289.549   3
   9 -16   2 21.6503 296.031   3
   9 -16   3 1133.26 709.860   3
   9 -16   4 149.146 337.153   3
   9 -16   5-327.907 331.846   3
   9 -16   6 130.348 407.587   3
   9 -16   7 161.727 313.529   3
   9 -16   8 219.455 276.621   3
 -16   6  -8-409.343 328.469   4
  10 -16  -7 93.7109 460.833   2
 -16   6  -7 0.46890 142.452   4
  10 -16  -6 3.02690 189.114   2
 -16   6  -6 121.627 313.418   4
  10 -16  -5-869.111 538.028   2
 -16   6  -5-0.69485 468.711   4
  10 -16  -4 0.53668 257.304   2
 -16   6  -4 1006.17 709.587   4
  10 -16  -3-185.280 236.438   2
  10 -16  -2-164.072 215.743   2
   6  10  -1 154.015 259.917   5
  10 -16  -1 245.535 350.671   2
   6  10   0 282.083 248.792   5
  10 -16   0 433.358 373.143   2
  10 -16   1 555.804 382.539   2
  10 -16   2 269.226 191.991   3
  10 -16   3 221.413 495.805   3
  10 -16   4 163.071 231.777   3
  10 -16   5 25.8572 19.7027   3
  10 -16   6-192.938 257.125   3
  10 -16   7 375.421 359.807   3
  10 -16   8-0.58897 96.8531   3
 -16   5  -8-0.40087 185.183   4
  11 -16  -7 17.1645 81.6181   2
 -16   5  -7-0.42308 158.253   4
  11 -16  -6-197.789 267.248   2
 -16   5  -6 71.9099 147.885   4
  11 -16  -5 29.0583 216.235   2
 -16   5  -5 137.258 237.252   4
  11 -16  -4 171.069 421.324   2
 -16   5  -4 0.83745 421.050   4
  11 -16  -3 25.3768 155.170   2
   5  11  -3 201.124 171.331   5
  11 -16  -2-133.550 195.977   2
   5  11  -2 455.286 257.595   5
   5  11  -1 833.955 406.204   5
  11 -16  -1 820.520 565.389   2
   5  11   0 974.214 456.344   5
  11 -16   0 1563.73 662.064   2
   5  11   1 636.113 343.087   5
  11 -16   1 1010.39 556.867   2
  11 -16   2 36.8237 53.9453   2
  11 -16   3 952.437 1069.45   3
  11 -16   4-0.56693 332.181   3
  11 -16   5 13.7596 77.3957   3
  11 -16   6-645.841 467.697   3
  11 -16   7-176.951 244.467   3
  11 -16   8 47.5478 126.541   3
  12 -16  -7-148.574 241.231   2
 -16   4  -7 321.132 272.739   4
  12 -16  -6 0.61671 124.207   2
 -16   4  -6 0.47662 95.9927   4
  12 -16  -5 0.56956 151.905   2
  12 -16  -4 76.2705 289.446   2
   4  12  -4-30.5782 78.1505   5
 -16   4  -4 25.2971 384.305   4
  12 -16  -3 37.4263 257.517   2
   4  12  -3 138.894 200.458   5
  12 -16  -2-394.156 331.919   2
   4  12  -2 82.5337 122.507   5
   4  12  -1 102.794 141.102   5
  12 -16  -1-0.44940 285.598   2
   4  12   0 118.430 182.955   5
  12 -16   0 40.7647 87.3617   2
   4  12   1 11.4674 47.5901   5
  12 -16   1 30.9046 70.1542   2
   4  12   2-32.4257 84.7777   5
  12 -16   2-423.384 323.010   2
  12 -16   5-428.440 379.316   3
  12 -16   6 41.4390 117.595   3
  12 -16   7-315.094 322.266   3
  12 -16   8 115.994 361.294   3
  13 -16  -7-0.66540 329.848   2
  13 -16  -6 68.2291 157.018   2
  13 -16  -5 1.70013 213.310   2
   3  13  -5 129.217 144.434   5
  13 -16  -4 281.691 294.732   2
   3  13  -4-0.78190 43.4380   5
  13 -16  -3 0.49162 122.142   2
   3  13  -3-48.3005 103.109   5
  13 -16  -2 211.622 341.861   2
   3  13  -2 94.8233 133.591   5
  13 -16  -1-94.7383 157.761   2
   3  13  -1 164.774 195.581   5
   3  13   0 35.6921 65.0542   5
  13 -16   0-118.049 171.358   2
   3  13   1 115.732 240.386   5
  13 -16   1-177.351 205.465   2
   3  13   2 226.954 201.375   5
  13 -16   2 37.4540 45.8004   2
  13 -16   3-328.183 281.857   2
  14 -16  -6 9.13645 122.674   2
   2  14  -6 303.706 472.642   5
  14 -16  -5 34.7112 289.869   2
   2  14  -5-153.869 211.211   5
  14 -16  -4 75.8417 191.427   2
   2  14  -4 275.196 271.048   5
  14 -16  -3 244.312 291.731   2
   2  14  -3-441.404 332.185   5
  14 -16  -2 45.6255 129.954   2
   2  14  -2 41.7802 146.723   5
  14 -16  -1 264.060 284.982   2
   2  14  -1-30.3614 85.5753   5
  14 -16   0 515.917 446.496   2
   2  14   0 478.690 409.641   5
   2  14   1 266.665 334.033   5
  14 -16   1 312.557 290.359   2
   2  14   2 2194.16 925.469   5
  14 -16   2 81.1920 194.667   2
   2  14   3 57.9178 125.603   5
  14 -16   3 34.2532 242.774   2
  14 -16   4-0.41300 185.725   2
   1  15  -6 279.830 324.932   5
  15 -16  -6 0.60256 115.961   2
  15 -16  -5 0.55779 44.8548   2
   1  15  -5-388.110 363.005   5
  15 -16  -4-136.185 202.837   2
   1  15  -4 21.1264 80.9912   5
  15 -16  -3 107.838 290.846   2
   1  15  -3-346.157 315.427   5
  15 -16  -2 27.6953 153.933   2
   1  15  -2 0.46903 158.396   5
  15 -16  -1 144.366 224.325   2
   1  15  -1 0.45784 177.613   5
  15 -16   0 99.1399 234.634   2
   1  15   0 105.811 167.712   5
  15 -16   1 20.1639 63.3681   2
   1  15   1 1.38556 233.287   5
   1  15   2 31.9023 243.265   5
   1  15   3 0.49445 318.091   5
   0  16  -6-168.107 272.335   5
  16 -16  -6 0.60231 215.620   2
   0  16  -5-0.67633 381.769   5
  16 -16  -5 23.7814 87.9318   2
  16 -16  -4-0.51221 172.977   2
   0  16  -4 200.192 598.334   5
  16 -16  -3 100.503 279.906   2
   0  16  -3 170.100 237.718   5
  16 -16  -2 150.630 303.251   2
   0  16  -2 515.436 402.720   5
  16 -16  -1 95.1704 286.072   2
   0  16  -1 77.7074 321.280   5
   0  16   0 72.4850 227.021   5
   0  16   1-0.50517 139.116   5
   0  16   2 28.4000 103.241   5
   0  16   3-155.874 220.415   5
   0  16   4-624.730 449.611   5
  -1  17  -5-42.0462 140.033   5
  -1  17  -4 904.666 617.938   5
  -1  17  -3 865.707 577.294   5
  -1  17  -2 435.096 396.191   5
  -1  17  -1 127.431 418.762   5
  -1  17   0 0.56138 124.749   5
  -1  17   1-42.8457 118.387   5
  -1  17   2 360.591 344.519   5
  -1  17   3 222.505 273.180   5
  -2  18  -2 444.697 429.572   5
  -2  18  -1 0.66495 106.945   5
  -2  18   0-0.63450 266.016   5
  -2  18   1 0.61600 274.182   5
 -17  18  -2 139.577 235.788   5
  -1 -17  -1-0.48475 226.995   3
 -17  18  -1 97.6220 186.542   5
  -1 -17   0-444.495 359.043   3
 -17  18   0-179.170 243.227   5
  -1 -17   1-138.235 203.975   3
 -17  18   1-306.117 309.794   5
 -17  18   2 0.51966 151.721   5
 -17  17  -4-830.236 620.045   5
 -17  17  -3 106.770 208.609   5
 -17  17  -2 21.9366 306.724   5
   0 -17  -2-307.698 322.846   2
   0 -17  -1-91.6227 162.019   3
 -17  17  -1 284.105 418.590   5
   0 -17  -1 14.2678 316.125   2
   0 -17   0 10.3125 54.5627   3
 -17  17   0 1.53963 253.795   5
   0 -17   0 5.49401 255.932   2
   0 -17   1-214.663 252.171   3
 -17  17   1-0.49757 209.652   5
   0 -17   2 0.52627 208.110   3
 -17  16  -5 506.598 1017.44   5
 -17  16  -4 90.0366 268.291   5
   1 -17  -3-0.54859 231.149   2
 -17  16  -3-2.51144 30.4464   5
   1 -17  -2 151.529 207.336   3
 -17  16  -2 18.5822 534.180   5
   1 -17  -2 160.938 372.341   2
   1 -17  -1-0.49134 116.114   3
 -17  16  -1 169.578 284.826   5
   1 -17  -1 41.2732 255.264   2
   1 -17   0 392.092 336.533   3
 -17  16   0 0.47463 155.675   5
   1 -17   0-3.39582 68.6128   2
   1 -17   1 90.7627 84.1775   3
 -17  16   1-69.1128 138.211   5
   1 -17   2-4.62966 239.910   3
   1 -17   3 159.094 223.454   3
 -17  15  -6 248.242 353.443   5
 -17  15  -5-341.270 387.487   5
   2 -17  -4-0.55381 182.143   2
 -17  15  -4 276.249 327.217   5
   2 -17  -3-76.2425 152.990   2
 -17  15  -3-0.56957 247.037   5
   2 -17  -3 267.852 272.979   3
   2 -17  -2-165.626 217.787   3
 -17  15  -2 57.4062 169.878   5
   2 -17  -2 6.14426 119.076   2
   2 -17  -1 365.200 478.726   3
 -17  15  -1 251.147 360.983   5
   2 -17  -1 0.52220 165.082   2
   2 -17   0 0.49203 430.134   3
 -17  15   0 68.5298 133.461   5
   2 -17   0-250.314 280.546   2
   2 -17   1-454.927 363.457   3
   2 -17   2 27.2583 336.518   3
   2 -17   3 2.63007 224.915   3
   2 -17   4-265.029 290.888   3
 -17  14  -6-126.937 242.558   5
   3 -17  -5 281.588 579.160   2
 -17  14  -5 166.062 87.9058   5
   3 -17  -4-311.486 313.593   2
 -17  14  -4 84.7558 171.847   5
 -17  14  -4 200.605 345.661   4
   3 -17  -3 21.8049 204.629   2
 -17  14  -3-768.278 484.369   5
 -17  14  -2 520.770 472.247   5
   3 -17  -2 0.49699 297.370   2
   3 -17  -2-497.710 380.848   3
   3 -17  -1 120.636 187.636   3
 -17  14  -1 473.269 345.355   5
   3 -17  -1-368.655 331.054   2
   3 -17   0 241.512 400.141   3
   3 -17   0 331.696 317.159   2
   3 -17   1 953.441 618.401   3
   3 -17   2 348.822 391.882   3
   3 -17   3 105.657 115.887   3
   3 -17   4 90.7001 274.578   3
   4 -17  -5 74.9733 154.742   2
 -17  13  -5 328.421 530.993   5
 -17  13  -5 7.11572 477.922   4
   4 -17  -4 4.24720 257.767   2
 -17  13  -4 325.912 407.298   5
 -17  13  -4 0.97747 227.321   4
   4 -17  -3 85.7910 288.630   2
 -17  13  -3-390.548 330.078   5
   4 -17  -2-166.044 218.980   2
   4 -17  -2 340.177 347.367   3
   4 -17  -1 3.96052 33.9507   3
   4 -17  -1 39.8868 108.125   2
   4 -17   0-658.379 438.872   3
   4 -17   0-546.554 403.426   2
   4 -17   1-0.49552 158.936   3
   4 -17   2 492.387 494.021   3
   4 -17   3-297.069 299.596   3
   4 -17   4 1.06527 123.870   3
   4 -17   5 391.948 399.524   3
   5 -17  -6 86.6475 233.333   2
   5 -17  -5-440.443 375.687   2
 -17  12  -5 214.677 945.245   4
   5 -17  -4 344.035 463.953   2
 -17  12  -4 219.606 250.003   5
 -17  12  -4-245.894 370.459   4
   5 -17  -3 1.51126 219.173   2
   5 -17  -2 342.593 365.078   2
   5 -17  -2 0.50393 68.0283   3
   5 -17  -1 0.49937 163.791   3
   5 -17  -1 0.50085 45.4378   2
   5 -17   0-909.052 516.365   3
   5 -17   0-208.578 386.672   2
   5 -17   1-151.323 211.126   3
   5 -17   2 577.004 413.988   3
   5 -17   3 0.51927 370.077   3
   5 -17   4-556.282 418.436   3
   5 -17   5-492.883 401.032   3
   6 -17  -6-543.912 429.680   2
 -17  11  -6-150.645 281.801   4
   6 -17  -5-153.679 223.880   2
 -17  11  -5 0.91396 448.706   4
   6 -17  -4 139.607 327.996   2
 -17  11  -4-19.7745 357.363   4
   6 -17  -3 186.761 411.275   2
   6 -17  -2 53.1851 134.371   2
   6 -17  -1 494.612 426.457   2
   6 -17  -1-302.693 298.624   3
   6 -17   0 18.4928 84.8285   3
   6 -17   0-404.817 347.674   2
   6 -17   1 8.64773 333.467   3
   6 -17   2-517.222 397.365   3
   6 -17   3-126.359 198.175   3
   6 -17   4 159.217 398.155   3
   6 -17   5 245.373 525.652   3
   6 -17   6-25.6022 93.5820   3
 -17  10  -7-0.77107 293.225   4
   7 -17  -6-354.841 351.237   2
   7 -17  -5-215.183 267.997   2
 -17  10  -5-0.88205 354.007   4
   7 -17  -4 2.75979 123.383   2
 -17  10  -4-777.597 657.198   4
   7 -17  -3 0.52855 193.507   2
   7 -17  -2 269.395 431.984   2
   7 -17  -1 108.607 199.728   2
   7 -17  -1-99.5599 172.424   3
   7 -17   0 572.889 590.250   2
   7 -17   0 216.733 345.093   3
   7 -17   1 1299.34 731.037   3
   7 -17   2 232.738 421.629   3
   7 -17   3 381.767 350.610   3
   7 -17   4 493.444 404.460   3
   7 -17   5 95.7987 275.619   3
   7 -17   6 176.372 402.641   3
 -17   9  -7 0.68810 240.615   4
   8 -17  -6-345.850 351.848   2
   8 -17  -5 374.235 358.391   2
 -17   9  -5 0.85214 58.4386   4
   8 -17  -4 173.056 306.530   2
 -17   9  -4 1094.17 784.355   4
   8 -17  -3-71.9698 151.882   2
   8 -17  -2-76.2233 152.951   2
   8 -17  -1-0.51099 112.193   2
   8 -17   0 29.2519 231.451   2
   8 -17   0-589.532 422.606   3
   8 -17   1 271.249 252.517   3
   8 -17   2-231.379 271.807   3
   8 -17   3-659.480 467.666   3
   8 -17   4 0.58322 259.590   3
   8 -17   5-324.869 338.338   3
   8 -17   6-5.51288 202.006   3
 -17   8  -7 482.932 419.526   4
   9 -17  -6 13.7888 402.923   2
   9 -17  -5-54.9651 138.942   2
 -17   8  -5-90.1803 208.477   4
   9 -17  -4-122.558 203.131   2
 -17   8  -4-492.776 529.062   4
   9 -17  -3 0.55871 179.716   2
   9 -17  -2 0.52310 21.9677   2
   9 -17  -1 101.837 290.059   2
   9 -17   0 95.2332 359.316   2
   9 -17   1-213.058 250.579   2
   9 -17   1-2.68494 65.0994   3
   9 -17   2-358.685 342.965   3
   9 -17   3 0.57585 122.517   3
   9 -17   4-73.8013 161.344   3
   9 -17   5-342.046 352.348   3
   9 -17   6-354.753 361.862   3
 -17   7  -8-2.54850 24.7164   4
 -17   7  -7 22.9596 153.012   4
  10 -17  -6-71.7772 164.444   2
  10 -17  -5 2.42092 168.597   2
 -17   7  -5-727.344 577.972   4
  10 -17  -4 153.282 412.580   2
 -17   7  -4 1234.39 836.217   4
  10 -17  -3-0.55443 135.098   2
  10 -17  -2-253.622 279.516   2
  10 -17  -1 0.50297 201.125   2
  10 -17   0 340.601 313.479   2
  10 -17   1 456.285 454.466   2
  10 -17   2 982.555 669.616   3
  10 -17   3 278.163 456.943   3
  10 -17   4 0.60972 73.9163   3
  10 -17   5 0.62638 242.996   3
  10 -17   6 5.08987 43.6318   3
  10 -17   7 571.533 463.981   3
 -17   6  -8 134.238 189.499   4
 -17   6  -7 79.7487 242.299   4
  11 -17  -6-0.65257 239.436   2
 -17   6  -6 123.500 488.400   4
  11 -17  -5 46.2550 354.466   2
 -17   6  -5 40.3471 412.556   4
  11 -17  -4 1.15351 72.6634   2
 -17   6  -4 1.87441 376.827   4
  11 -17  -3 243.695 280.412   2
  11 -17  -2-163.287 225.956   2
  11 -17  -1 0.49501 202.262   2
  11 -17   0 1.42422 181.999   2
  11 -17   1-67.7467 137.361   2
  11 -17   2-556.621 393.380   2
  11 -17   3-322.913 338.810   3
  11 -17   4 3.09762 329.094   3
  11 -17   5-27.6795 101.175   3
  11 -17   6 190.340 310.347   3
  12 -17  -6 23.0956 189.982   2
  12 -17  -5 608.820 466.800   2
 -17   5  -5 468.946 435.066   4
  12 -17  -4 1.71187 251.713   2
  12 -17  -3 58.2845 271.335   2
  12 -17  -2-243.710 271.984   2
   5  12  -1 154.181 170.451   5
  12 -17  -1 88.3579 259.668   2
   5  12   0 72.0335 136.504   5
  12 -17   0 27.9256 87.4116   2
   5  12   1-68.4711 118.583   5
  12 -17   1-217.773 242.269   2
  12 -17   2 115.955 202.670   2
  12 -17   5-374.771 372.207   3
  12 -17   6 0.62621 331.604   3
  13 -17  -6 666.594 505.813   2
  13 -17  -5 2.42798 427.054   2
  13 -17  -4 719.749 488.537   2
  13 -17  -3 73.3877 388.962   2
  13 -17  -2 46.9475 118.036   2
   4  13  -2 4.57876 155.602   5
  13 -17  -1 0.97729 142.172   2
   4  13  -1-100.251 144.746   5
   4  13   0 19.7398 211.235   5
  13 -17   0-75.4433 142.837   2
   4  13   1 308.322 262.991   5
  13 -17   1-0.44531 89.0350   2
   4  13   2 32.4588 251.305   5
  13 -17   2 368.292 400.627   2
  13 -17   3-188.711 224.063   2
  14 -17  -5 1.20595 254.065   2
  14 -17  -4 0.55824 199.845   2
  14 -17  -3 20.3382 328.261   2
   3  14  -3-69.2340 127.626   5
  14 -17  -2-173.888 225.039   2
   3  14  -2 0.39242 84.0303   5
  14 -17  -1-164.933 214.676   2
   3  14  -1 0.38975 50.0042   5
   3  14   0 135.980 302.168   5
  14 -17   0 96.7140 179.038   2
   3  14   1 185.654 348.842   5
  14 -17   1 467.798 453.521   2
   3  14   2 274.918 292.145   5
  14 -17   2 132.347 222.935   2
  14 -17   3 164.787 206.599   2
  14 -17   4-154.957 203.758   2
  15 -17  -5 119.962 483.418   2
  15 -17  -4-638.608 457.188   2
   2  15  -4 2341.92 839.129   5
  15 -17  -3 160.774 445.427   2
   2  15  -3-0.45437 219.230   5
  15 -17  -2 3.88779 242.912   2
   2  15  -2-334.816 294.276   5
  15 -17  -1 0.46483 257.250   2
   2  15  -1 12.1350 236.841   5
  15 -17   0 53.2105 118.768   2
   2  15   0 7.90491 210.011   5
   2  15   1-190.913 225.065   5
  15 -17   1 256.602 257.231   2
   2  15   2 56.6590 367.366   5
  15 -17   2 94.1319 96.7644   2
   2  15   3 0.48898 63.8462   5
  16 -17  -5-216.790 274.378   2
   1  16  -5 649.751 480.044   5
  16 -17  -4-208.380 259.182   2
   1  16  -4 46.7726 290.778   5
  16 -17  -3-58.2601 132.884   2
   1  16  -3 4.16236 239.355   5
  16 -17  -2 78.6736 148.953   2
   1  16  -2 79.3405 320.559   5
  16 -17  -1-155.239 203.829   2
   1  16  -1-35.0083 100.034   5
   1  16   0-179.512 226.274   5
   1  16   1 369.109 326.353   5
   1  16   2 228.291 260.640   5
   1  16   3 394.895 475.766   5
   0  17  -4-24.9308 96.7934   5
   0  17  -3 24.5833 93.0871   5
   0  17  -2-506.216 412.345   5
   0  17  -1-3.84741 174.265   5
   0  17   0-0.53693 205.428   5
   0  17   1-0.53721 288.032   5
   0  17   2-51.0002 128.225   5
   1 -18  -1-285.087 298.563   3
   1 -18   0-238.060 274.237   3
   2 -18  -2 145.956 212.629   3
   2 -18  -1-656.132 454.532   3
   2 -18   0 217.850 262.465   3
   2 -18   1 29.6043 400.127   3
   3 -18  -2-2.72166 127.959   2
   3 -18  -2 408.999 357.603   3
   3 -18  -1 3.23098 185.107   3
   3 -18  -1-42.1093 117.115   2
   3 -18   0 16.1503 317.854   3
   3 -18   0 756.065 501.156   2
   3 -18   1 377.265 345.732   3
   3 -18   2 635.646 604.706   3
   4 -18  -3 185.524 405.842   2
   4 -18  -2-223.426 264.965   2
   4 -18  -2-327.295 322.362   3
   4 -18  -1 1.61883 231.099   3
   4 -18  -1 339.110 328.884   2
   4 -18   0-274.013 295.351   3
   4 -18   0 193.254 359.047   2
   4 -18   1 10.8610 371.015   3
   4 -18   2 148.710 218.223   3
   4 -18   3 12.2511 119.245   3
   5 -18  -4-691.532 480.825   2
   5 -18  -3 93.2514 361.136   2
   5 -18  -2-242.349 276.384   2
   5 -18  -2-169.119 233.646   3
   5 -18  -1 126.708 200.407   2
   5 -18  -1 0.54299 153.534   3
   5 -18   0-619.031 444.531   3
   5 -18   0 120.666 165.784   2
   5 -18   1 91.5236 171.718   3
   5 -18   2 6566.49 1461.52   3
   5 -18   3 0.56213 400.851   3
 -18  12  -5 1.04861 496.268   4
   6 -18  -4-0.57557 108.098   2
   6 -18  -3-34.4721 106.148   2
   6 -18  -2 15.6559 178.517   2
   6 -18  -1 5.43910 41.7032   2
   6 -18  -1 78.4220 282.277   3
   6 -18   0 119.275 442.130   3
   6 -18   0 96.6123 234.726   2
   6 -18   1 201.041 255.491   3
   6 -18   2 167.825 395.598   3
   6 -18   3 74.7915 333.034   3
   6 -18   4 210.639 417.918   3
 -18  11  -5-2.02131 516.342   4
   7 -18  -4 276.666 309.092   2
   7 -18  -3 598.959 626.066   2
   7 -18  -2 0.55114 218.351   2
   7 -18  -1-6.60167 59.6526   2
   7 -18  -1-641.488 456.669   3
   7 -18   0 0.55438 123.194   2
   7 -18   0-266.326 293.820   3
   7 -18   1-239.315 279.820   3
   7 -18   2-0.57275 50.0705   3
   7 -18   3 0.58841 283.902   3
   7 -18   4 5613.15 1392.91   3
 -18  10  -6 0.86279 625.136   4
 -18  10  -5 0.97356 301.368   4
   8 -18  -4-138.944 221.655   2
   8 -18  -3 0.58363 124.977   2
   8 -18  -2-467.900 392.601   2
   8 -18  -1-0.55113 244.579   2
   8 -18   0-6.10028 44.5959   2
   8 -18   0 0.55678 351.511   3
   8 -18   1 0.54874 103.058   2
   8 -18   1 67.4845 280.780   3
   8 -18   2 181.710 362.776   3
   8 -18   3-549.329 442.253   3
   8 -18   4 13.7805 351.286   3
   8 -18   5 492.359 430.767   3
 -18   9  -6 0.79446 297.167   4
   9 -18  -5-162.283 245.921   2
 -18   9  -5 0.93226 193.126   4
   9 -18  -4 0.61145 368.850   2
   9 -18  -3-238.715 290.121   2
   9 -18  -2 5.69752 222.320   2
   9 -18  -1 61.5521 400.858   2
   9 -18   0 108.699 387.481   2
   9 -18   1 461.317 542.540   2
   9 -18   1 162.339 401.806   3
   9 -18   2 526.938 637.755   3
   9 -18   3 284.871 369.021   3
   9 -18   4-158.331 244.760   3
   9 -18   5-0.66110 199.562   3
 -18   8  -6-429.501 428.726   4
  10 -18  -5 396.332 387.178   2
 -18   8  -5-0.88234 181.528   4
  10 -18  -4-374.033 368.396   2
  10 -18  -3-183.783 253.905   2
  10 -18  -2 0.57234 74.7298   2
  10 -18  -1-0.54529 77.0923   2
  10 -18   0-260.302 286.581   2
  10 -18   1-358.468 336.031   2
  10 -18   2 426.045 492.490   2
  10 -18   2-536.775 439.726   3
  10 -18   3 273.206 528.264   3
  10 -18   4 109.194 205.489   3
  10 -18   5 99.5029 198.311   3
 -18   7  -7-1.15596 205.481   4
 -18   7  -6-289.013 335.595   4
  11 -18  -5 0.64815 327.389   2
 -18   7  -5-127.249 247.817   4
  11 -18  -4 393.238 377.770   2
  11 -18  -3-0.59148 192.407   2
  11 -18  -2 0.56448 142.890   2
  11 -18  -1-83.4146 162.449   2
  11 -18   0 462.218 504.150   2
  11 -18   1 53.3576 217.188   2
  11 -18   2 0.52010 100.091   2
  11 -18   3 0.65391 357.346   3
  11 -18   4-191.544 275.099   3
  11 -18   5-812.091 571.506   3
  12 -18  -4-191.808 262.867   2
  12 -18  -3 63.4528 356.514   2
  12 -18  -2-524.621 415.323   2
  12 -18  -1-5.28658 40.5337   2
  12 -18   0 0.50771 286.853   2
  12 -18   1 0.50047 335.180   2
  12 -18   2 0.50297 310.434   2
  12 -18   3 182.286 409.180   2
  13 -18  -4 0.60353 406.321   2
  13 -18  -3 1.71733 243.980   2
  13 -18  -2-377.394 348.095   2
  13 -18  -1 0.53117 317.823   2
  13 -18   0 12.0462 87.7568   2
  13 -18   1 156.254 211.456   2
  13 -18   2-0.97488 215.018   2
  13 -18   3 50.8446 145.536   2
  14 -18  -4 499.069 418.504   2
  14 -18  -3 24.7059 204.212   2
  14 -18  -2 137.847 208.079   2
  14 -18  -1 0.51539 41.4450   2
   4  14   0-98.6951 149.854   5
  14 -18   0 0.99560 209.053   2
   4  14   1-0.40206 108.990   5
  14 -18   1 33.6992 97.6589   2
  14 -18   2-230.735 254.030   2
  14 -18   3-0.48250 229.845   2
  14 -18   4 34.1686 129.509   2
  15 -18  -4 24.8483 240.031   2
  15 -18  -3 7.75427 276.201   2
  15 -18  -2 126.967 311.584   2
  15 -18  -1 97.5990 281.472   2
   3  15  -1 214.986 361.704   5
  15 -18   0 46.7767 297.265   2
   3  15   0 430.044 402.083   5
   3  15   1 77.5536 133.536   5
  15 -18   1 40.6032 161.734   2
   3  15   2 105.444 168.213   5
  15 -18   2 54.7649 258.506   2
  16 -18  -4 55.0807 137.745   2
  16 -18  -3 536.766 783.800   2
  16 -18  -2 597.214 426.810   2
   2  16  -2-140.707 196.640   5
  16 -18  -1-349.242 319.595   2
   2  16  -1 48.2436 114.153   5
   2  16   0-49.0509 115.514   5
   2  16   1 10.4661 160.658   5
   2  16   2 513.146 384.512   5
   1  17  -2 0.52700 241.428   5
   1  17  -1-227.202 261.434   5
   1  17   0-502.276 388.425   5
   1  17   1 0.51707 206.384   5
   3 -19  -2 215.350 453.528   3
   3 -19  -1-184.291 250.179   3
   4 -19  -2-83.6792 169.075   3
   4 -19  -1-34.5592 109.089   3
   4 -19   0 38.6514 176.207   3
   5 -19  -1 0.58715 322.753   3
   5 -19   0-0.58637 264.070   3
   5 -19   1-333.413 340.699   3
   6 -19  -1-0.59067 150.205   3
   6 -19   0 1.18539 411.009   3
   6 -19   1 339.851 468.659   3
   7 -19  -1 140.611 424.121   2
   7 -19   0 38.6771 311.106   2
   7 -19   0-387.677 368.402   3
   7 -19   1-913.361 568.206   3
   7 -19   1-557.884 442.128   2
   7 -19   2-397.779 379.168   3
   8 -19  -2 61.0155 381.114   2
   8 -19  -1 266.324 436.237   2
   8 -19   0 256.076 387.617   2
   8 -19   0 151.927 387.848   3
   8 -19   1-0.59676 218.478   2
   8 -19   1 7.91489 200.784   3
   8 -19   2 109.391 306.512   3
 -19  10  -5 1030.27 783.690   4
   9 -19  -2 26.2610 285.982   2
   9 -19  -1 0.59294 178.987   2
   9 -19   0 53.0331 74.2384   2
   9 -19   1-484.511 410.742   2
   9 -19   1-596.032 466.905   3
   9 -19   2 380.896 379.246   3
 -19   9  -5-0.95152 485.033   4
  10 -19  -3 12.7938 330.476   2
  10 -19  -2 41.8818 386.541   2
  10 -19  -1-321.553 335.193   2
  10 -19   0 66.7866 362.842   2
  10 -19   1 58.6047 391.402   2
  10 -19   2-171.703 241.164   2
  10 -19   2 351.877 491.260   3
  11 -19  -3 308.129 339.237   2
  11 -19  -2 0.62168 158.808   2
  11 -19  -1 0.58858 58.8397   2
  11 -19   0-365.273 348.452   2
  11 -19   1 10.0845 275.387   2
  11 -19   2 217.276 269.187   2
  12 -19  -3-141.977 228.479   2
  12 -19  -2-0.60392 152.170   2
  12 -19  -1 1.15747 182.418   2
  12 -19   0 0.55732 159.886   2
  12 -19   1 1.09052 136.112   2
  12 -19   2-214.211 262.660   2
  12 -19   3-0.54962 250.732   2
  13 -19  -2-65.9750 151.151   2
  13 -19  -1 115.073 409.579   2
  13 -19   0 0.54519 41.8013   2
  13 -19   1 0.52912 292.266   2
  13 -19   2 4.23247 210.388   2
  13 -19   3 602.751 437.665   2
  13 -19   4 24.2328 209.865   2
  14 -19  -2 194.378 256.349   2
  14 -19  -1 231.885 275.656   2
  14 -19   0-0.54049 238.421   2
  14 -19   1-22.0018 82.3142   2
  14 -19   2 9.31759 206.994   2
  14 -19   3 23.7184 54.2190   2
  15 -19  -2 386.795 358.850   2
  15 -19  -1-168.279 232.486   2
  15 -19   0 171.100 350.269   2
  15 -19   1-0.52084 121.783   2
  15 -19   2 9.80122 54.5187   2
   0   0   0    0.00    0.00   0
;
_shelx_hkl_checksum              88813
_shelx_fab_file
;
    0    0   12      1.49     -1.92
    0    0   11      0.70     -0.41
    0    0   10      1.81     -0.12
    0    0    9      1.19     -0.51
    0    0    8      3.39      2.79
    0    0    7     -1.98      4.07
    0    0    6     -3.89      5.11
    0    0    5     -3.55      5.82
    0    0    4     -5.41    -17.34
    0    0    3    -19.65    -24.26
    0    0    2    -18.86    -12.37
    0    0    1     39.97     18.36
    0    0   13      0.01     -0.14
    0    1   13      0.21      0.40
    0    1   12     -0.06     -0.71
    0    1   11     -0.55      0.58
    0    1   10     -0.04      1.44
    0    1    9      0.22      1.78
    0    1    8     -0.12      0.32
    0    1    7     -1.72     -0.82
    0    1    6     -0.32     -1.30
    0    1    5     -1.84     -0.53
    0    1    4     -1.70     -6.64
    0    1    3     -7.10     -5.24
    0    1    2    -10.10      6.37
    0    1    1    -23.42     18.13
   -1    1    1     -5.33    -38.76
   -1    1    2     -0.97    -15.05
   -1    1    3     -7.48     -6.02
   -1    1    4     -3.63     -5.47
   -1    1    5     -1.91      0.56
   -1    1    6      2.66      0.89
   -1    1    7     -0.18      1.01
   -1    1    8      0.73      0.72
   -1    1    9     -0.44      0.94
   -1    1   10     -0.49     -0.76
   -1    1   11     -0.56     -1.19
   -1    1   12     -0.34     -1.06
   -1    1   13     -0.14      0.13
    1    1   13     -0.50      0.11
    1    1   12      0.28     -0.69
    1    1   11      1.38     -0.90
    1    1   10      0.00      0.70
    1    1    9     -0.04      0.66
    1    1    8     -0.89     -1.99
    1    1    7      0.86     -0.89
    1    1    6      0.89      3.59
    1    1    5     -4.49      6.65
    1    1    4      1.19      5.21
    1    1    3      1.34      4.98
    1    1    2      7.80      1.96
    1    1    1    -37.29    -19.05
   -1    2    0     -1.66     -5.26
   -1    2    1     89.51     28.48
   -1    2    2     28.66     26.17
   -1    2    3      0.58      0.36
   -1    2    4     -4.14     -4.29
   -1    2    5     -1.59     -3.84
   -1    2    6     -0.80     -1.02
   -1    2    7     -2.19      0.32
   -1    2    8     -1.28      2.43
   -1    2    9      0.16      2.84
   -1    2   10      0.10     -1.26
   -1    2   11      0.92     -0.44
   -1    2   12      0.10      0.45
   -1    2   13      0.75     -0.39
    1    2   13      0.00      0.92
    1    2   12      0.31      0.16
    1    2   11      0.35     -0.01
    1    2   10     -0.47      0.66
    1    2    9     -0.29     -0.95
    1    2    8      0.43     -0.78
    1    2    7      0.81     -2.18
    1    2    6     -2.20     -0.83
    1    2    5     -1.45     -0.22
    1    2    4     -1.05     -3.52
    1    2    3     -1.58     -3.94
    1    2    2     -0.01     -0.75
    1    2    1     -9.72     -4.30
   -2    3    0    -10.99      2.77
   -2    3    1     32.29     -3.85
   -2    3    2      8.04    -18.62
   -2    3    3     10.01    -10.94
   -2    3    4      3.71     -4.86
   -2    3    5      0.60     -3.51
   -2    3    6     -0.15     -1.75
   -2    3    7      0.35     -0.58
   -2    3    8     -0.74      0.67
   -2    3    9      0.57      0.07
   -2    3   10     -1.45     -0.19
   -2    3   11     -0.79     -0.78
   -2    3   12      1.39      0.73
   -2    3   13      3.15      0.10
    0    2   13      0.08      1.22
    0    2   12     -0.87     -0.65
    0    2   11     -0.66     -0.66
    0    2   10     -1.53     -0.19
    0    2    9      0.33      0.98
    0    2    8     -0.73     -1.38
    0    2    7      0.89     -0.60
    0    2    6      3.04      1.34
    0    2    5      6.23      1.22
    0    2    4      2.78     -3.83
    0    2    3     -0.03     -5.90
    0    2    2      2.88      2.47
    0    2    1      6.11     -1.41
    0    2    0    -22.91    -13.47
   -2    2    1      7.42     13.00
   -2    2    2     -3.36      5.72
   -2    2    3     -6.19      0.14
   -2    2    4     -5.40     -4.21
   -2    2    5     -6.64     -6.15
   -2    2    6      0.48     -2.45
   -2    2    7      0.42      0.16
   -2    2    8     -2.20      0.18
   -2    2    9     -0.81      1.67
   -2    2   10     -0.36      0.94
   -2    2   11      0.30      0.98
   -2    2   12      0.26      0.88
   -2    2   13      2.12     -1.04
   -3    2   13      0.21      0.98
   -3    2   12      0.35      0.89
   -3    2   11     -0.42     -0.03
   -3    2   10     -0.62      0.27
   -3    2    9     -0.70     -0.39
   -3    2    8      0.92     -0.69
   -3    2    7      4.04     -0.19
   -3    2    6      1.56      1.99
   -3    2    5      0.41      0.18
   -3    2    4      1.66      0.74
   -3    2    3     -0.46      0.38
   -3    2    2     -4.60      0.34
   -3    2    1    -15.99      1.53
   -1    3    0    -17.32      5.70
   -1    3    1     15.29     21.54
   -1    3    2    -19.62      3.70
   -1    3    3     -6.85     -6.89
   -1    3    4     -4.30     -5.73
   -1    3    5      0.79     -3.39
   -1    3    6      0.24     -0.49
   -1    3    7     -0.32      0.40
   -1    3    8     -1.37     -0.85
   -1    3    9      0.80     -0.36
   -1    3   10     -0.88     -0.44
   -1    3   11     -0.60      0.76
   -1    3   12     -0.19     -0.31
   -1    3   13      1.01     -1.53
    2    2   14     -0.17     -0.27
    2    2   13     -1.42      0.80
    2    2   12      0.01      0.37
    2    2   11     -0.84      0.38
    2    2   10     -0.21      0.15
    2    2    9     -0.71      0.60
    2    2    8      1.16      1.39
    2    2    7      0.08     -1.16
    2    2    6     -2.42      0.83
    2    2    5     -0.36      1.46
    2    2    4      0.75      2.19
    2    2    3     -1.88     -3.73
    2    2    2     -7.42     -4.52
    2    2    1     -2.68      0.77
   -2    4    0    -11.34      4.05
   -2    4    1      6.06     -1.74
   -2    4    2     15.94     19.05
   -2    4    3      6.60     13.91
   -2    4    4     -1.04      3.94
   -2    4    5     -2.66     -2.36
   -2    4    6     -0.21     -0.65
   -2    4    7      0.10     -0.08
   -2    4    8      0.26      0.44
   -2    4    9      0.29      0.52
   -2    4   10     -0.65      0.00
   -2    4   11      0.29      0.41
   -2    4   12      0.44      0.09
   -2    4   13      1.08     -0.04
    2    3   13      0.83     -0.35
    2    3   12     -0.51      0.28
    2    3   11     -1.13      0.14
    2    3   10      0.11     -0.33
    2    3    9     -0.52     -0.33
    2    3    8     -1.10     -0.47
    2    3    7     -0.45     -0.96
    2    3    6     -0.09      0.04
    2    3    5      2.69     -0.10
    2    3    4      2.35      1.34
    2    3    3     -0.69      0.55
    2    3    2     -2.11     -1.01
    2    3    1     -4.94     -1.71
   -3    5    0     -4.71     -1.53
   -3    5    1     -4.99      3.14
   -3    5    2      7.70      5.66
   -3    5    3      0.64     -7.17
   -3    5    4      7.82     -2.85
   -3    5    5      5.97     -4.38
   -3    5    6     -0.34     -1.06
   -3    5    7     -1.78     -0.15
   -3    5    8      0.84      0.50
   -3    5    9      0.31      1.54
   -3    5   10      0.83     -0.39
   -3    5   11     -0.35     -1.04
   -3    5   12     -0.15     -2.83
   -3    5   13      0.47     -0.01
    1    3   13      0.48      1.69
    1    3   12      0.60      0.68
    1    3   11     -0.75      0.03
    1    3   10     -0.35     -0.07
    1    3    9      0.14     -0.22
    1    3    8      1.70      1.25
    1    3    7     -0.40     -0.98
    1    3    6     -2.76      0.32
    1    3    5      3.71      2.51
    1    3    4      5.04      0.05
    1    3    3      4.55     -2.68
    1    3    2     -5.36     -3.11
    1    3    1     -0.72      4.65
   -3    4    0      1.94     -1.20
   -3    4    1    -12.01     -4.75
   -3    4    2     -1.20     -1.39
   -3    4    3     -0.48      5.03
   -3    4    4     -3.31      0.43
   -3    4    5     -2.01     -2.39
   -3    4    6     -3.37     -4.20
   -3    4    7     -0.44     -2.04
   -3    4    8     -1.40      0.04
   -3    4    9     -0.61     -0.82
   -3    4   10     -0.30      1.10
   -3    4   11     -1.03      0.60
   -3    4   12     -0.40     -0.60
   -3    4   13      1.17      0.10
    0    3   13     -1.31     -0.06
    0    3   12     -0.34      0.06
    0    3   11      1.02      1.25
    0    3   10      0.44     -0.59
    0    3    9     -0.01     -1.53
    0    3    8     -2.03      0.00
    0    3    7     -0.10      3.67
    0    3    6     -2.77      1.93
    0    3    5     -0.79      2.30
    0    3    4     -3.36      0.86
    0    3    3      2.47      2.82
    0    3    2     -9.92     -4.78
    0    3    1      7.59      7.04
    0    3    0     24.65     -0.43
   -3    3    1      5.98      1.47
   -3    3    2     -5.75    -12.72
   -3    3    3      2.19      0.60
   -3    3    4     -0.61      3.14
   -3    3    5     -2.22      2.52
   -3    3    6     -3.85      1.16
   -3    3    7      1.39      1.82
   -3    3    8     -1.27      1.45
   -3    3    9     -0.72      0.42
   -3    3   10     -0.12     -0.09
   -3    3   11      0.59     -0.33
   -3    3   12      0.34      1.12
   -3    3   13      0.78      0.42
   -4    3   13      0.00     -0.05
   -4    3   12      0.75     -0.58
   -4    3   11     -0.13      0.39
   -4    3   10      0.34     -0.67
   -4    3    9     -0.91     -0.15
   -4    3    8     -0.96     -0.95
   -4    3    7     -0.75      0.39
   -4    3    6     -2.59      0.54
   -4    3    5     -0.46     -1.54
   -4    3    4     -1.11     -0.49
   -4    3    3      1.47     -2.08
   -4    3    2     -1.36     -5.62
   -4    3    1      2.15      1.53
   -1    4    0      7.29     -6.30
   -1    4    1      1.47    -18.11
   -1    4    2      0.05     -5.33
   -1    4    3      5.42      0.56
   -1    4    4      1.06     -1.34
   -1    4    5      1.48     -0.91
   -1    4    6      1.93      1.76
   -1    4    7      1.98      2.12
   -1    4    8     -1.02     -0.87
   -1    4    9      0.58     -0.32
   -1    4   10     -1.03      0.48
   -1    4   11      1.31      0.09
   -1    4   12      1.70     -0.80
   -1    4   13     -0.36     -1.16
   -5    3   14      0.63      0.67
   -5    3   13     -0.17      0.10
   -5    3   12      0.90     -0.03
   -5    3   11     -0.25      0.38
   -5    3   10      0.55     -0.37
   -5    3    9      0.96     -0.54
   -5    3    8     -0.37     -2.05
   -5    3    7      0.30     -0.16
   -5    3    6      1.85      0.59
   -5    3    5      2.50     -1.22
   -5    3    4     -0.31      0.70
   -5    3    3     -2.83      4.05
   -5    3    2     -1.03      0.75
   -5    3    1     -4.10      0.00
   -2    5    0     -4.02     -5.73
   -2    5    1      0.65     -4.62
   -2    5    2      2.69     13.91
   -2    5    3     -8.57     -2.94
   -2    5    4     -1.85     -3.89
   -2    5    5     -0.69     -6.95
   -2    5    6      0.03     -1.08
   -2    5    7     -0.86      0.61
   -2    5    8     -0.14     -0.32
   -2    5    9      0.17      0.21
   -2    5   10      0.37      0.60
   -2    5   11      0.20     -0.74
   -2    5   12      0.07     -1.22
   -2    5   13     -0.11      0.01
    3    3   13      0.17     -0.70
    3    3   12      0.14      1.05
    3    3   11      0.06     -0.54
    3    3   10      0.26      1.18
    3    3    9     -0.11      0.71
    3    3    8     -0.85     -0.54
    3    3    7      1.33     -0.19
    3    3    6     -0.86      0.46
    3    3    5     -0.87     -0.31
    3    3    4     -0.03      3.40
    3    3    3      2.64      3.79
    3    3    2      1.49     -1.42
    3    3    1    -13.24     -1.69
   -3    6    0     -3.17     -3.45
   -3    6    1     -2.68     -0.44
   -3    6    2      2.81      3.61
   -3    6    3     -2.46      0.31
   -3    6    4      4.07      9.13
   -3    6    5      0.66      0.43
   -3    6    6     -4.15     -2.12
   -3    6    7     -0.99     -0.68
   -3    6    8      0.23     -0.20
   -3    6    9     -0.31      0.57
   -3    6   10      0.65     -0.40
   -3    6   11      0.85     -2.08
   -3    6   12      1.06     -1.35
   -3    6   13      0.16     -0.10
    3    4   13      0.76     -2.20
    3    4   12      0.07     -1.08
    3    4   11      0.16     -0.29
    3    4   10     -0.17      1.35
    3    4    9      0.22      1.84
    3    4    8      0.14     -0.19
    3    4    7      0.29     -1.78
    3    4    6     -1.22      0.83
    3    4    5     -2.96     -1.22
    3    4    4     -3.15     -1.56
    3    4    3      2.58     -2.99
    3    4    2      2.91     -0.31
    3    4    1      0.75      0.85
   -4    7    0      1.27      3.49
   -4    7    1     -2.39     -0.13
   -4    7    2     -2.65      0.32
   -4    7    3     -2.07      1.36
   -4    7    4     -0.24     -0.15
   -4    7    5      2.75     -1.61
   -4    7    6     -0.77     -0.12
   -4    7    7      1.23      1.30
   -4    7    8     -1.06      1.27
   -4    7    9     -1.97     -0.05
   -4    7   10     -1.12      0.32
   -4    7   11      0.74     -0.83
   -4    7   12      1.03     -0.86
    2    4   13      2.29     -0.91
    2    4   12      0.59      0.09
    2    4   11      0.76     -0.33
    2    4   10      0.82      0.17
    2    4    9     -0.38      0.47
    2    4    8     -1.42      0.68
    2    4    7      0.31     -0.49
    2    4    6     -1.68      0.51
    2    4    5     -2.04     -0.76
    2    4    4     -3.50      0.27
    2    4    3      2.36     -0.07
    2    4    2      4.40     -2.89
    2    4    1     -2.10     -4.66
   -4    6    0      8.25      0.41
   -4    6    1      3.50      7.99
   -4    6    2     -1.32     -0.37
   -4    6    3     -8.07     -5.08
   -4    6    4     -2.35      2.94
   -4    6    5      0.44     -1.61
   -4    6    6     -0.27     -0.05
   -4    6    7      0.14     -0.10
   -4    6    8      0.69      0.66
   -4    6    9     -0.06     -0.64
   -4    6   10      0.08      0.57
   -4    6   11     -1.86      0.36
   -4    6   12     -0.37     -1.10
    1    4   13      1.91      1.46
    1    4   12     -0.03      1.04
    1    4   11     -0.31      0.38
    1    4   10      0.55     -0.13
    1    4    9      0.86     -0.19
    1    4    8      0.35     -1.13
    1    4    7     -2.71     -1.10
    1    4    6     -0.61      1.24
    1    4    5      2.62     -0.73
    1    4    4     -2.24     -3.33
    1    4    3     -1.66      0.20
    1    4    2      3.86      2.33
    1    4    1      0.66      0.50
   -4    5    0      5.43     -4.93
   -4    5    1      3.93      1.59
   -4    5    2      2.98      0.64
   -4    5    3     -3.62     -3.61
   -4    5    4      0.86     -0.26
   -4    5    5      4.74      2.74
   -4    5    6     -0.40      1.44
   -4    5    7     -0.64     -1.26
   -4    5    8     -0.06      1.25
   -4    5    9     -1.79      0.29
   -4    5   10      0.75      1.03
   -4    5   11     -0.49      0.70
   -4    5   12      0.62     -0.93
   -4    5   13      0.20      0.34
    0    4   13     -0.33      0.17
    0    4   12      0.12     -0.43
    0    4   11     -0.66      1.56
    0    4   10     -0.09      1.19
    0    4    9      0.44     -0.56
    0    4    8      0.28     -0.74
    0    4    7      0.09     -0.81
    0    4    6     -0.49     -0.57
    0    4    5      3.86     -1.22
    0    4    4      0.55     -2.75
    0    4    3      3.38      2.28
    0    4    2     -2.57     -0.89
    0    4    1     -5.61      2.28
    0    4    0      5.39     11.66
   -4    4    1     -6.11     -9.75
   -4    4    2     -4.10      0.39
   -4    4    3     -4.97      1.46
   -4    4    4     -3.30     -3.38
   -4    4    5      2.75     -1.02
   -4    4    6     -0.59     -1.19
   -4    4    7      0.03     -0.64
   -4    4    8      0.94     -0.72
   -4    4    9      0.06      1.02
   -4    4   10     -0.10      0.74
   -4    4   11     -0.04     -0.34
   -4    4   12      0.47     -0.22
   -4    4   13      0.76      0.69
   -5    4   13     -0.44      0.17
   -5    4   12     -0.55      0.65
   -5    4   11      0.88      0.84
   -5    4   10      0.19     -0.77
   -5    4    9      0.49      0.77
   -5    4    8      0.56     -0.69
   -5    4    7     -0.97      2.09
   -5    4    6      0.81      1.98
   -5    4    5      0.63      0.14
   -5    4    4     -1.54     -2.94
   -5    4    3     -0.91     -0.56
   -5    4    2      3.41      1.29
   -5    4    1      0.50     -6.69
   -1    5    0      3.33     -0.08
   -1    5    1      5.19      1.13
   -1    5    2     -0.77      6.17
   -1    5    3     -4.14     -3.07
   -1    5    4     -0.82     -0.32
   -1    5    5      1.01      0.48
   -1    5    6      0.06      1.13
   -1    5    7      0.38     -1.75
   -1    5    8      0.10      1.00
   -1    5    9     -2.07     -0.79
   -1    5   10      0.12      0.27
   -1    5   11      1.69      0.12
   -1    5   12      1.98      0.03
   -1    5   13     -0.05     -0.15
   -6    4   13     -1.08     -1.52
   -6    4   12     -1.01      0.17
   -6    4   11      0.31     -0.20
   -6    4   10     -0.37     -0.44
   -6    4    9     -0.19     -0.93
   -6    4    8      0.02      0.37
   -6    4    7      0.83     -0.01
   -6    4    6     -0.23      0.68
   -6    4    5     -0.60     -0.95
   -6    4    4     -4.09      0.85
   -6    4    3     -2.12      2.71
   -6    4    2      2.22     -2.59
   -6    4    1     -3.69     -4.32
   -2    6    0      5.52      1.24
   -2    6    1      6.04      1.62
   -2    6    2      2.03      2.55
   -2    6    3     -1.33     -1.98
   -2    6    4      1.46      3.00
   -2    6    5      0.94     -0.76
   -2    6    6     -0.65      1.65
   -2    6    7     -0.69     -1.71
   -2    6    8      1.62      1.81
   -2    6    9     -1.07     -0.41
   -2    6   10     -0.65     -0.52
   -2    6   11     -1.91     -2.38
   -2    6   12     -0.01     -1.06
   -2    6   13      0.18     -0.57
   -7    4   13      0.64     -1.04
   -7    4   12      0.32      0.54
   -7    4   11      1.74     -0.64
   -7    4   10     -0.61     -0.35
   -7    4    9     -1.56     -1.37
   -7    4    8     -0.35     -0.28
   -7    4    7      0.30     -0.37
   -7    4    6      0.35      1.85
   -7    4    5      1.28     -1.85
   -7    4    4      1.63     -2.19
   -7    4    3      2.44     -2.35
   -7    4    2      3.62     -0.17
   -7    4    1      1.67      1.56
   -3    7    0      0.96      2.49
   -3    7    1     -0.19     -5.86
   -3    7    2     -1.28     -3.48
   -3    7    3     -0.48      1.93
   -3    7    4     -2.65     -0.35
   -3    7    5      1.44     -2.57
   -3    7    6      1.39      0.54
   -3    7    7      1.55     -1.25
   -3    7    8     -0.25      0.14
   -3    7    9      0.63     -1.15
   -3    7   10     -0.04      0.52
   -3    7   11     -0.07     -0.02
   -3    7   12     -0.14      0.42
   -3    7   13     -0.76     -1.08
    4    4   12     -0.20     -0.21
    4    4   11      2.08      0.15
    4    4   10      0.35     -2.06
    4    4    9      1.10      0.08
    4    4    8      0.63     -0.51
    4    4    7     -0.36     -0.23
    4    4    6      0.41      1.50
    4    4    5     -3.09      0.76
    4    4    4     -1.41     -1.45
    4    4    3     -0.01     -1.69
    4    4    2      5.09     -0.04
    4    4    1      9.18      3.13
   -4    8    0     -2.28      0.63
   -4    8    1     -1.32     -3.03
   -4    8    2     -2.69      0.79
   -4    8    3     -2.37      0.51
   -4    8    4     -2.44     -0.86
   -4    8    5      1.70      3.13
   -4    8    6     -3.35      2.29
   -4    8    7     -0.96     -2.36
   -4    8    8     -1.56     -1.15
   -4    8    9     -1.03     -0.28
   -4    8   10     -0.34      1.25
   -4    8   11      0.93      0.56
   -4    8   12      0.49     -0.41
    4    5   12     -0.20     -1.16
    4    5   11      0.62     -0.11
    4    5   10      0.17     -1.21
    4    5    9      0.75     -0.59
    4    5    8      1.64      0.68
    4    5    7      1.72     -0.93
    4    5    6      0.44     -0.93
    4    5    5     -1.68      1.35
    4    5    4      0.60      0.10
    4    5    3     -3.51     -1.00
    4    5    2     -1.49     -3.44
    4    5    1     -1.15      4.26
   -5    9    0      3.38      0.29
   -5    9    1      0.89      2.22
   -5    9    2      0.52      2.46
   -5    9    3     -3.12     -1.01
   -5    9    4     -0.95     -0.28
   -5    9    5      3.81      0.22
   -5    9    6     -0.76      0.78
   -5    9   10      0.21      0.08
   -5    9   11     -0.44     -0.53
   -5    9   12     -0.94     -0.80
    3    5   13      1.08      0.21
    3    5   12      1.08     -1.11
    3    5   11      0.39     -0.91
    3    5   10     -1.10     -0.86
    3    5    9      0.10     -0.51
    3    5    8      0.56      0.88
    3    5    7      1.18      0.36
    3    5    6      2.05      1.79
    3    5    5      1.77      0.68
    3    5    4     -1.74     -1.42
    3    5    3     -0.81     -1.72
    3    5    2      0.20     -1.42
    3    5    1      0.45      2.99
   -5    8    0      0.09      1.00
   -5    8    1      3.17     -0.86
   -5    8    2      0.44      2.72
   -5    8    3     -2.02      1.54
   -5    8    4     -2.82     -3.22
   -5    8    5      0.32      1.33
   -5    8    6     -0.97      0.22
   -5    8   10     -0.67     -0.44
   -5    8   11     -0.14      0.28
   -5    8   12     -0.38     -0.29
    2    5   13      0.32      0.56
    2    5   12     -0.19      0.59
    2    5   11     -0.48      1.28
    2    5   10     -0.10      1.44
    2    5    9      0.19     -0.95
    2    5    8      0.75      0.04
    2    5    7      0.42     -2.71
    2    5    6     -2.68      1.06
    2    5    5      0.68      2.01
    2    5    4     -2.42      0.37
    2    5    3     -0.93     -2.18
    2    5    2     -3.62     -2.25
    2    5    1      1.53      0.76
   -5    7    0      7.18      1.32
   -5    7    1      3.68      0.16
   -5    7    2      1.36     -3.28
   -5    7    3      1.12      0.72
   -5    7    4     -1.95     -1.30
   -5    7    5     -1.20     -0.74
   -5    7    6      1.47      0.07
   -5    7   10     -1.72      1.02
   -5    7   11     -0.78      1.20
   -5    7   12      0.31      0.23
    1    5   13      0.72      0.99
    1    5   12     -0.86     -0.45
    1    5   11     -0.26     -1.20
    1    5   10     -0.37      0.09
    1    5    9     -0.18      0.42
    1    5    8     -0.09      0.98
    1    5    7     -0.05      1.65
    1    5    6      0.59     -0.42
    1    5    5      1.09      0.78
    1    5    4     -0.64     -2.10
    1    5    3     -1.63     -2.89
    1    5    2      0.39     -3.63
    1    5    1      0.97     -0.75
   -5    6    0      0.01     -1.49
   -5    6    1      2.44     -1.76
   -5    6    2     -1.16     -6.32
   -5    6    3     -1.48     -3.20
   -5    6    4     -2.94      0.54
   -5    6    5     -2.41     -0.42
   -5    6    6     -0.03     -0.29
   -5    6    7     -0.60     -0.84
   -5    6    8      0.43      0.46
   -5    6    9     -0.13     -1.08
   -5    6   10     -0.65      0.08
   -5    6   11     -0.78     -0.06
   -5    6   12      0.51     -0.69
    0    5   13      0.57     -0.02
    0    5   12     -0.42     -1.25
    0    5   11      0.33     -0.93
    0    5   10      0.98     -0.27
    0    5    9     -0.05      0.45
    0    5    8      0.07     -0.50
    0    5    7     -2.78      0.51
    0    5    6      1.07      2.16
    0    5    5      2.36      3.52
    0    5    4     -1.00      0.60
    0    5    3     -3.70      1.13
    0    5    2      1.26      4.03
    0    5    1     -0.15      0.21
    0    5    0     -6.43     -6.82
   -5    5    1      1.19      2.06
   -5    5    2      2.34      6.95
   -5    5    3     -0.43      1.12
   -5    5    4     -1.61     -1.01
   -5    5    5     -0.95      1.92
   -5    5    6     -0.15     -0.08
   -5    5    7     -0.55      1.19
   -5    5    8      0.52     -0.36
   -5    5    9     -1.06      0.18
   -5    5   10     -0.04      0.24
   -5    5   11      0.01      0.54
   -5    5   12     -0.54     -0.18
   -5    5   13      0.22      0.32
   -6    5   12     -0.76     -0.06
   -6    5   11      0.34      0.34
   -6    5   10     -0.13     -0.79
   -6    5    9      0.02     -0.42
   -6    5    8      0.23     -0.45
   -6    5    7      0.66      1.22
   -6    5    6      0.09     -0.18
   -6    5    5     -0.16      0.84
   -6    5    4     -1.25     -1.57
   -6    5    3     -0.65     -1.47
   -6    5    2     -1.42      0.87
   -6    5    1      0.43     -0.18
   -1    6    0     -1.82     -3.45
   -1    6    1     -2.13      4.37
   -1    6    2     -3.79     -1.21
   -1    6    3     -0.01     -3.09
   -1    6    4      2.37      0.97
   -1    6    5      1.26      1.58
   -1    6    6      2.67      3.60
   -1    6    7     -0.28      0.75
   -1    6    8      0.79      0.48
   -1    6    9     -0.37     -0.03
   -1    6   10      1.07     -1.27
   -1    6   11     -0.31      0.30
   -1    6   12     -0.44      2.00
   -1    6   13     -0.27      0.49
   -7    5   12     -1.28      0.29
   -7    5   11     -0.20      0.99
   -7    5   10      0.49     -0.74
   -7    5    9      0.56     -2.76
   -7    5    8      0.95      0.13
   -7    5    7      0.56      0.39
   -7    5    6     -1.56      2.06
   -7    5    5      0.87      1.65
   -7    5    4      0.45      1.88
   -7    5    3     -0.85     -2.08
   -7    5    2     -4.16     -3.74
   -7    5    1      1.23     -0.75
   -2    7    0      6.60      3.64
   -2    7    1      1.81      4.38
   -2    7    2     -6.02      4.05
   -2    7    3     -3.70      1.84
   -2    7    4     -3.23     -3.79
   -2    7    5     -0.69     -1.86
   -2    7    6      3.37      3.76
   -2    7    7     -1.42     -0.83
   -2    7    8     -0.73      0.81
   -2    7    9      0.48     -1.69
   -2    7   10      0.21     -3.40
   -2    7   11      0.90     -0.71
   -2    7   12      1.02      2.16
   -2    7   13     -0.41     -0.23
   -8    5   12     -0.85     -0.03
   -8    5   11      0.21      1.04
   -8    5   10     -1.00      0.94
   -8    5    9      0.26     -1.51
   -8    5    8     -0.46     -1.35
   -8    5    7      0.70     -0.37
   -8    5    6     -0.44     -0.58
   -8    5    5     -1.42     -1.09
   -8    5    4      0.24     -1.56
   -8    5    3      0.52     -1.26
   -8    5    2     -0.62      0.22
   -8    5    1      1.16      0.45
   -3    8    0     -0.66     -2.79
   -3    8    1      4.71     -2.50
   -3    8    2      2.13      2.83
   -3    8    3      0.76      2.05
   -3    8    4     -3.03     -1.14
   -3    8    5      1.63      2.06
   -3    8    6      3.47      4.47
   -3    8    7     -0.77      0.70
   -3    8    8     -2.27      1.33
   -3    8    9      1.80     -0.88
   -3    8   10      0.85      0.07
   -3    8   11      1.48     -0.76
   -3    8   12     -0.23     -0.31
   -3    8   13     -1.83     -2.50
   -9    5   12     -0.55     -0.73
   -9    5   11     -0.26      0.08
   -9    5   10      0.55     -0.51
   -9    5    9      1.52     -0.17
   -9    5    8      0.49     -0.35
   -9    5    7      0.85      0.09
   -9    5    6      0.21      0.90
   -9    5    5     -1.91      2.09
   -9    5    4      1.31     -1.02
   -9    5    3     -0.46     -3.10
   -9    5    2     -3.17     -3.30
   -9    5    1      0.86     -2.36
   -4    9    0      2.60     -0.24
   -4    9    1      1.68      1.58
   -4    9    2      3.29      1.24
   -4    9    3      0.16     -2.29
   -4    9    4     -0.65     -0.12
   -4    9    5      0.94     -1.29
   -4    9    6     -0.48     -1.09
   -4    9    7      1.46     -0.68
   -4    9    8     -1.13     -0.63
   -4    9    9      0.20     -0.86
   -4    9   10      0.24     -0.21
   -4    9   11      0.16      0.19
   -4    9   12     -0.73      0.72
    5    5   11     -0.34      0.12
    5    5   10      0.26     -0.83
    5    5    9     -0.91     -0.32
    5    5    8      0.33      0.19
    5    5    7      0.62     -1.40
    5    5    6     -0.29      1.22
    5    5    5     -0.16      1.17
    5    5    4      4.92      0.59
    5    5    3     -3.10      1.30
    5    5    2     -3.54      1.15
    5    5    1     -0.46     -1.22
   -5   10    0      3.70      4.64
   -5   10    1     -1.98     -1.37
   -5   10    2      2.62     -2.85
   -5   10    3      0.71     -0.99
   -5   10    4     -0.39     -1.89
   -5   10    5      1.64      0.10
   -5   10   10      0.11     -0.04
   -5   10   11      0.45      0.35
    5    6   11     -0.14     -0.13
    5    6   10     -0.20     -0.22
    5    6    9      0.53      0.05
    5    6    8      0.10      0.23
    5    6    7      1.31     -0.82
    5    6    6     -0.06      1.43
    5    6    5     -0.71     -0.47
    5    6    4      1.62      2.48
    5    6    3     -2.35      0.41
    5    6    2      0.68     -0.64
    5    6    1     -1.56     -0.99
   -6   11    0     -1.64     -0.81
   -6   11    1      1.29     -0.44
   -6   11    2     -0.31     -0.45
   -6   11    3     -0.42     -0.04
   -6   11    4     -1.78     -2.33
   -6   11    5      1.25     -1.32
   -6   11   11     -0.57     -0.45
    4    6   11      0.02     -0.89
    4    6   10     -0.42     -0.03
    4    6    9     -0.49     -0.39
    4    6    8     -0.03      0.40
    4    6    7      0.80     -0.37
    4    6    6     -0.32     -0.25
    4    6    5      0.66      1.34
    4    6    4      1.98      0.78
    4    6    3     -2.58     -0.03
    4    6    2      0.92     -1.90
    4    6    1     -1.04      0.34
   -6   10    0      2.01      0.47
   -6   10    1     -0.54      1.04
   -6   10    2      2.35     -0.07
   -6   10    3      0.93      0.77
   -6   10    4     -1.89     -1.23
   -6   10    5      1.07     -1.61
   -6   10   11     -0.32      0.31
    3    6   12      0.23      0.12
    3    6   11      0.88     -0.75
    3    6   10     -0.11     -0.06
    3    6    9      0.11     -0.54
    3    6    8     -0.66     -0.15
    3    6    7      0.02     -0.40
    3    6    6     -1.46     -1.87
    3    6    5     -0.71      1.70
    3    6    4     -0.50      0.01
    3    6    3     -1.05     -0.01
    3    6    2     -0.64      1.40
    3    6    1     -4.33      3.51
   -6    9    0      2.10      0.91
   -6    9    1      1.60      3.80
   -6    9    2     -1.71      1.28
   -6    9    3     -0.92     -0.92
   -6    9    4     -0.66      0.10
   -6    9    5      1.58     -0.34
   -6    9   11     -0.97      1.24
    2    6   13     -0.10     -0.16
    2    6   12     -0.09      0.06
    2    6   11     -0.11      0.26
    2    6   10      0.14      0.39
    2    6    9     -0.08     -1.30
    2    6    8      0.29     -0.09
    2    6    7      1.51     -0.12
    2    6    6      0.55     -0.76
    2    6    5      0.81     -2.13
    2    6    4     -1.65      0.24
    2    6    3      0.20     -0.31
    2    6    2     -0.89      0.56
    2    6    1     -1.53     -1.82
   -6    8    0      0.83      3.91
   -6    8    1     -0.76      0.89
   -6    8    2     -1.40     -2.02
   -6    8    3     -0.14      0.82
   -6    8    4     -0.74     -1.78
   -6    8    5     -3.13      1.15
   -6    8    6     -0.09     -0.49
   -6    8   10      0.02     -0.72
   -6    8   11      0.37      0.59
   -6    8   12      0.60      0.58
    1    6   13      0.46      1.55
    1    6   12      0.36      0.57
    1    6   11      0.00      0.56
    1    6   10      0.35      0.69
    1    6    9     -0.46     -1.27
    1    6    8     -0.58     -2.23
    1    6    7     -0.42      0.18
    1    6    6     -2.01     -1.41
    1    6    5      0.93      0.51
    1    6    4      2.38      4.41
    1    6    3      2.22      1.87
    1    6    2      0.70     -1.05
    1    6    1      3.87      1.14
   -6    7    0      2.55     -0.10
   -6    7    1     -0.38      2.09
   -6    7    2      0.08      0.53
   -6    7    3      0.59      4.91
   -6    7    4     -0.30      0.56
   -6    7    5     -1.14      0.54
   -6    7    6      0.54      1.18
   -6    7   10     -2.99     -0.35
   -6    7   11     -0.29     -0.71
   -6    7   12      0.56      0.32
    0    6   13      0.30      1.48
    0    6   12      0.37      0.79
    0    6   11      0.51     -0.44
    0    6   10      0.71     -0.08
    0    6    9     -0.44      1.04
    0    6    8     -1.58     -1.83
    0    6    7      1.78      3.18
    0    6    6      2.33     -3.68
    0    6    5     -0.23     -2.13
    0    6    4     -0.33     -0.22
    0    6    3     -3.66      3.25
    0    6    2     -1.15      2.47
    0    6    1      2.78      6.05
    0    6    0     -1.10     -1.18
   -6    6    1      1.29      0.86
   -6    6    2     -0.52     -0.96
   -6    6    3      4.32      0.28
   -6    6    4      1.39     -0.02
   -6    6    5      0.10     -1.11
   -6    6    6      1.29     -2.03
   -6    6    7      1.77      1.82
   -6    6    8     -0.35     -2.20
   -6    6    9      0.87     -1.29
   -6    6   10     -0.57     -0.02
   -6    6   11      0.12      0.41
   -6    6   12     -0.29      0.15
   -6    5   13      0.23     -0.59
   -7    6   12      0.11      0.07
   -7    6   11      0.19      0.02
   -7    6   10      0.61      0.37
   -7    6    9      0.65      1.41
   -7    6    8      0.73     -1.03
   -7    6    7      1.17      0.00
   -7    6    6     -1.11     -0.93
   -7    6    5     -0.62      0.60
   -7    6    4     -0.91      3.60
   -7    6    3      3.69      1.02
   -7    6    2      1.09     -2.02
   -7    6    1      1.84     -0.11
   -1    7    0      1.56     -2.33
   -1    7    1      1.10     -0.69
   -1    7    2      2.66      2.75
   -1    7    3      1.68      6.22
   -1    7    4      0.33     -0.53
   -1    7    5     -1.14      0.06
   -1    7    6      0.08      0.52
   -1    7    7      0.56      1.82
   -1    7    8     -2.22     -1.06
   -1    7    9     -0.72      1.13
   -1    7   10     -0.29     -1.84
   -1    7   11      0.05      0.29
   -1    7   12      1.53      0.84
   -1    7   13     -0.16      0.60
   -8    6   12      0.17      0.16
   -8    6   11     -0.34      0.44
   -8    6   10     -1.41      0.10
   -8    6    9     -0.08     -0.47
   -8    6    8      1.67     -0.06
   -8    6    7      1.73     -0.14
   -8    6    6      0.60     -1.12
   -8    6    5      1.32     -1.28
   -8    6    4     -0.85     -0.31
   -8    6    3      0.10      0.30
   -8    6    2     -2.89      1.72
   -8    6    1     -3.67     -2.17
   -2    8    0     -1.68      0.94
   -2    8    1     -4.25     -1.41
   -2    8    2     -3.16     -0.32
   -2    8    3      0.81     -0.59
   -2    8    4      1.49     -2.29
   -2    8    5      2.93      1.13
   -2    8    6      2.13      0.83
   -2    8    7     -1.01     -0.17
   -2    8    8     -1.52      1.14
   -2    8    9      1.38     -1.44
   -2    8   10      0.07     -1.47
   -2    8   11      0.65     -0.25
   -2    8   12     -0.72      0.95
   -2    8   13     -2.75      0.36
   -9    6   12      0.67     -0.14
   -9    6   11     -0.17     -0.05
   -9    6   10     -0.64      2.51
   -9    6    9      0.74      0.63
   -9    6    8     -0.63     -0.56
   -9    6    7     -0.75     -1.00
   -9    6    6     -2.05     -0.30
   -9    6    5     -0.93      1.82
   -9    6    4     -0.12      0.03
   -9    6    3      6.19     -1.35
   -9    6    2      1.28      2.19
   -9    6    1     -0.43     -4.65
   -3    9    0      1.00      0.71
   -3    9    1      0.10      2.55
   -3    9    2      0.54      0.07
   -3    9    3     -1.00     -1.27
   -3    9    4     -2.80      0.89
   -3    9    5     -0.75     -1.75
   -3    9    6     -0.46     -1.90
   -3    9    7      0.92      1.62
   -3    9    8     -1.81      2.34
   -3    9    9     -0.28      0.30
   -3    9   10     -0.70      1.12
   -3    9   11      2.00     -1.23
   -3    9   12      1.49      0.61
  -10    6   11     -0.32      0.28
  -10    6   10      0.15      0.26
  -10    6    9     -1.00      0.14
  -10    6    8     -0.54     -0.54
  -10    6    7     -0.01     -1.11
  -10    6    6      0.67      0.68
  -10    6    5     -0.11      0.67
  -10    6    4     -0.60      0.52
  -10    6    3     -0.57     -0.24
  -10    6    2     -4.51      3.66
  -10    6    1      1.28     -3.76
   -4   10    0      1.67      3.18
   -4   10    1     -1.19      0.78
   -4   10    2      1.47      0.41
   -4   10    3      0.63     -0.39
   -4   10    4      1.08      0.21
   -4   10    5      0.06     -1.01
   -4   10   10     -0.50     -0.01
   -4   10   11      0.25     -0.43
  -11    6   11     -0.49      0.39
  -11    6   10      0.83     -0.54
  -11    6    9      0.25     -0.56
  -11    6    8     -0.02      0.34
  -11    6    7      0.21     -0.70
  -11    6    6     -0.38      1.71
  -11    6    5     -1.16     -1.24
  -11    6    4      1.63      1.18
  -11    6    3      0.04     -0.36
  -11    6    2     -1.64     -0.52
  -11    6    1     -3.28     -4.08
   -5   11    0     -2.06      3.08
   -5   11    1      1.98     -0.34
   -5   11    2      1.21      1.25
   -5   11    3      0.92      0.06
   -5   11    4     -1.23     -0.85
   -5   11    5     -1.28     -1.24
   -5   11   11     -0.47      0.53
    6    6   11      0.28     -0.50
    6    6   10      0.67     -1.12
    6    6    9      1.33     -0.99
    6    6    8     -0.30      0.28
    6    6    7      1.66     -0.37
    6    6    6     -0.65      0.54
    6    6    5     -1.02     -1.59
    6    6    4      0.26      0.15
    6    6    3      2.35     -5.17
    6    6    2      4.54     -1.02
    6    6    1     -0.48      2.73
   -6   12    0      3.00     -1.64
   -6   12    1      5.71      0.26
   -6   12    2     -0.80      0.03
   -6   12    3      0.21     -1.24
   -6   12    4     -1.43      0.98
   -6   12    5      0.50     -1.54
   -6   12    6      0.25      3.02
    6    7   10      0.52     -0.47
    6    7    9      0.21     -0.53
    6    7    8     -0.53      0.21
    6    7    7      1.01      0.62
    6    7    6      0.21     -0.25
    6    7    5      0.18     -0.86
    6    7    4     -1.43     -1.50
    6    7    3      1.48     -2.20
    6    7    2      4.60      1.59
    6    7    1      0.32      3.68
   -7   13    0      0.02      1.63
   -7   13    1      1.24     -2.65
   -7   13    2      0.04     -0.29
   -7   13    3      0.97     -1.07
   -7   13    4      0.25      0.81
   -7   13    5     -0.29      0.00
   -7   13    6      1.38      0.84
    5    7   11      0.83      0.09
    5    7   10     -0.07     -0.08
    5    7    9     -0.58     -0.35
    5    7    8     -1.42      0.30
    5    7    7     -0.78     -0.57
    5    7    6     -0.38      0.15
    5    7    5      1.36     -2.42
    5    7    4     -1.78      0.01
    5    7    3     -1.73     -1.50
    5    7    2      2.53     -0.84
    5    7    1      1.85     -0.63
   -7   12    0      1.07      0.66
   -7   12    1      2.30      1.09
   -7   12    2      0.58     -0.08
   -7   12    3      0.76     -0.17
   -7   12    4      1.16      0.99
   -7   12    5     -0.17      0.18
   -7   12    6      0.03      0.78
    4    7   11     -0.26      0.09
    4    7   10      0.29      1.00
    4    7    9      0.07     -0.40
    4    7    8      0.42     -0.66
    4    7    7     -0.18     -0.25
    4    7    6     -0.08      0.78
    4    7    5      2.51      0.25
    4    7    4     -1.17      1.84
    4    7    3     -2.20     -1.73
    4    7    2     -1.26     -3.75
    4    7    1      0.64     -2.32
   -7   11    0     -0.62     -5.60
   -7   11    1      3.75     -1.76
   -7   11    2      4.45     -1.06
   -7   11    3      0.39     -0.62
   -7   11    4      0.32     -3.19
   -7   11    5      0.69     -0.37
   -7   11   11      0.69     -0.15
    3    7   12     -0.05     -0.08
    3    7   11     -0.13     -0.60
    3    7   10      0.25      0.08
    3    7    9      0.42      0.13
    3    7    8     -0.14      0.00
    3    7    7     -0.63      0.89
    3    7    6      0.63     -0.59
    3    7    5      2.24      0.43
    3    7    4     -1.13     -2.33
    3    7    3     -0.08     -2.75
    3    7    2      0.01      1.41
    3    7    1      2.62     -0.21
   -7   10    0      3.44     -2.39
   -7   10    1     -0.14      1.05
   -7   10    2     -2.87     -1.78
   -7   10    3     -0.54     -3.56
   -7   10    4      0.33     -1.62
   -7   10    5      0.59     -0.38
   -7   10   11     -0.74      0.47
    2    7   12      0.31      0.49
    2    7   11      0.04      0.79
    2    7   10      0.05      0.99
    2    7    9      0.23      1.08
    2    7    8     -1.30      0.07
    2    7    7     -0.91      0.59
    2    7    6      1.37     -1.09
    2    7    5     -0.16     -0.56
    2    7    4     -0.85     -0.38
    2    7    3      0.72      2.62
    2    7    2      2.15     10.30
    2    7    1      1.95      1.62
   -7    9    0      3.03      0.59
   -7    9    1     -1.05      0.63
   -7    9    2     -3.45     -1.50
   -7    9    3     -0.14      0.37
   -7    9    4      1.77      3.00
   -7    9    5     -0.82      2.12
   -7    9   11     -1.21      0.13
    1    7   12     -0.92      0.42
    1    7   11     -0.85      1.12
    1    7   10      0.39     -0.95
    1    7    9     -0.31     -0.82
    1    7    8     -0.13     -2.93
    1    7    7     -0.94     -0.51
    1    7    6      0.99      0.56
    1    7    5      0.04     -1.07
    1    7    4     -0.11     -0.15
    1    7    3     -2.15     -1.76
    1    7    2     -2.27      6.64
    1    7    1     -3.37      4.16
   -7    8    0     -0.40     -4.11
   -7    8    1     -2.27     -3.27
   -7    8    2      2.55     -3.03
   -7    8    3      0.15      1.05
   -7    8    4      2.11      1.20
   -7    8    5     -2.53     -0.17
   -7    8    6      1.20     -1.67
   -7    8   10     -0.73     -1.91
   -7    8   11      0.45     -0.36
   -7    8   12      0.31      1.23
    0    7   12      0.22     -0.28
    0    7   11     -0.45      1.21
    0    7   10      0.35     -1.43
    0    7    9     -1.21      0.37
    0    7    8     -1.00     -2.76
    0    7    7      1.80      2.37
    0    7    6      0.84     -0.08
    0    7    5      2.97      0.80
    0    7    4      3.29     -0.46
    0    7    3      1.05     -0.66
    0    7    2      0.69      0.41
    0    7    1     -2.58      2.42
    0    7    0     -3.00      0.57
   -7    7    1     -5.87      4.18
   -7    7    2     -1.18      0.71
   -7    7    3     -1.05     -0.03
   -7    7    4     -1.00      0.49
   -7    7    5     -1.36     -0.87
   -7    7    6     -1.26     -0.54
   -7    7    7      1.70      0.54
   -7    7    8     -1.05     -1.13
   -7    7    9     -0.20      0.80
   -7    7   10     -1.27      0.28
   -7    7   11      0.40      0.01
   -7    7   12     -0.44      1.02
   -5    7    9     -0.51     -0.36
   -5    7    8      0.88     -0.30
   -5    7    7     -0.22     -1.65
   -6    7    9      2.54      0.71
   -6    7    8      1.34      0.30
   -6    7    7     -0.01      0.75
    0    7   13     -0.66      0.74
   -8    7   12     -0.10     -0.21
   -8    7   11      0.33     -1.01
   -8    7   10      1.38     -0.56
   -8    7    9      0.40      1.50
   -8    7    8      0.31     -0.32
   -8    7    7      0.97      0.01
   -8    7    6     -0.85     -0.38
   -8    7    5      0.61      0.08
   -8    7    4     -0.65     -0.89
   -8    7    3      1.61     -3.02
   -8    7    2      3.49     -1.44
   -8    7    1     -2.05     -1.55
   -1    8    0      1.01      4.99
   -1    8    1     -4.06      6.16
   -1    8    2     -2.17      4.29
   -1    8    3      0.44      1.46
   -1    8    4      1.40      0.35
   -1    8    5      1.81      2.16
   -1    8    6     -0.80     -2.22
   -1    8    7      0.72     -2.00
   -1    8    8     -0.51     -1.51
   -1    8    9     -0.55     -1.77
   -1    8   10     -1.30     -1.26
   -1    8   11     -1.11      2.52
   -1    8   12      0.21      0.77
   -1    8   13     -0.46      2.35
   -9    7   11     -0.05      0.60
   -9    7   10      0.83      1.32
   -9    7    9      0.64     -0.02
   -9    7    8      0.13      0.28
   -9    7    7     -0.62     -2.06
   -9    7    6     -0.91     -2.77
   -9    7    5      0.58     -0.80
   -9    7    4     -2.26     -1.28
   -9    7    3      1.97      1.99
   -9    7    2      3.63      8.25
   -9    7    1      2.02      3.81
   -2    9    0      4.24      0.16
   -2    9    1     -1.18      0.21
   -2    9    2     -1.92     -2.30
   -2    9    3      0.35      0.88
   -2    9    4      2.10      3.42
   -2    9    5      3.37      2.74
   -2    9    6     -1.48     -0.14
   -2    9    7     -1.65     -1.16
   -2    9    8     -0.19     -0.71
   -2    9    9      2.10     -2.15
   -2    9   10      0.32      0.59
   -2    9   11      0.83     -0.21
   -2    9   12     -0.37     -0.69
  -10    7   11     -0.28     -0.12
  -10    7   10      1.20      1.35
  -10    7    9      0.69     -1.07
  -10    7    8     -0.77      0.65
  -10    7    7     -0.92      0.02
  -10    7    6      0.44      1.31
  -10    7    5      0.96      0.56
  -10    7    4     -2.57     -2.12
  -10    7    3     -1.73     -3.05
  -10    7    2     -1.79      4.24
  -10    7    1      1.72      1.42
   -3   10    0      0.72     -1.07
   -3   10    1     -0.50      0.36
   -3   10    2     -2.87     -2.15
   -3   10    3     -2.82     -3.07
   -3   10    4      1.25     -1.47
   -3   10    5      1.06     -1.39
   -3   10    6     -0.80     -1.19
   -3   10    7      0.22      0.81
   -3   10    8      0.26     -1.16
   -3   10    9     -0.86     -0.83
   -3   10   10     -0.06      0.04
   -3   10   11      1.41     -0.20
  -11    7   11      0.68     -0.38
  -11    7   10     -0.32      0.44
  -11    7    9      0.16      0.01
  -11    7    8      0.47      0.50
  -11    7    7     -0.22     -1.07
  -11    7    6      0.04      0.93
  -11    7    5     -0.38     -0.55
  -11    7    4     -4.14      0.78
  -11    7    3     -4.17     -0.26
  -11    7    2      0.46     -2.64
  -11    7    1      4.64     -7.83
   -4   11    0     -0.55      3.62
   -4   11    1      1.66     -1.11
   -4   11    2      1.09      1.40
   -4   11    3     -0.81     -0.03
   -4   11    4     -0.46      1.52
   -4   11    5     -3.03      1.18
   -4   11   10     -0.26      0.00
   -4   11   11      0.53      0.31
  -12    7   10     -0.09      0.28
  -12    7    9      0.49     -0.18
  -12    7    8      0.32      0.22
  -12    7    7     -0.67     -0.09
  -12    7    6     -0.68      0.93
  -12    7    5      0.10     -1.59
  -12    7    4     -0.48      0.31
  -12    7    3      1.42     -2.56
  -12    7    2      1.51     -1.41
  -12    7    1      0.58      1.53
   -5   12    0      1.22     -1.85
   -5   12    1      0.74     -1.52
   -5   12    2     -0.43     -0.35
   -5   12    3      0.45     -0.76
   -5   12    4      0.08      0.64
   -5   12    5     -0.17     -0.49
  -13    7   10     -0.21     -0.23
  -13    7    9      0.96     -0.81
  -13    7    8      0.06     -1.59
  -13    7    7      0.12      0.63
  -13    7    6      0.11      0.45
  -13    7    5      0.78     -0.91
  -13    7    4     -2.48     -1.15
  -13    7    3      0.62     -2.03
  -13    7    2      3.14      1.61
  -13    7    1      1.11      1.86
   -6   13    0     -1.41      2.82
   -6   13    1     -0.05     -1.39
   -6   13    2      0.71     -0.79
   -6   13    3      0.35      0.36
   -6   13    4     -0.98      0.51
   -6   13    5     -0.92     -1.23
   -6   13    6      0.75      1.16
    7    7   10      1.45     -0.32
    7    7    9     -0.32     -0.04
    7    7    8     -0.83     -1.54
    7    7    7     -0.26      0.12
    7    7    6      0.59      0.21
    7    7    5     -0.40      0.92
    7    7    4     -0.97     -0.69
    7    7    3      0.33     -1.64
    7    7    2     -0.69      0.53
    7    7    1      1.41      1.58
   -7   14    0     -1.37      2.71
   -7   14    1      0.49     -1.78
   -7   14    2      1.27      0.52
   -7   14    3      0.74      0.48
   -7   14    4      1.21      1.16
   -7   14    5     -0.15      0.46
   -7   14    6      0.03      0.51
    7    8    9      0.17      0.64
    7    8    8      0.40     -0.25
    7    8    7     -0.42     -0.75
    7    8    6     -0.53     -0.31
    7    8    5     -1.68     -0.37
    7    8    4      0.50     -0.38
    7    8    3      0.10     -0.12
    7    8    2      0.56     -1.33
    7    8    1      2.03      0.44
   -8   15    0      1.07     -0.61
   -8   15    1      0.28     -0.01
   -8   15    2      1.51     -0.28
   -8   15    3     -1.17     -0.52
   -8   15    4      0.09     -0.62
   -8   15    5      0.48     -0.46
   -8   15    6     -1.74      0.30
    6    8   10      2.08     -0.35
    6    8    9      0.81      0.38
    6    8    8     -1.16      0.34
    6    8    7     -0.23      1.68
    6    8    6      0.19      0.06
    6    8    5     -0.77     -0.06
    6    8    4     -1.08     -0.96
    6    8    3     -0.51      1.09
    6    8    2      1.09      0.00
    6    8    1     -0.06      1.06
   -8   14    0     -0.55      0.96
   -8   14    1      1.05     -2.30
   -8   14    2     -0.29      1.00
   -8   14    3     -2.96      0.01
   -8   14    4     -0.99      1.14
   -8   14    5      0.20      0.70
   -8   14    6     -0.32     -0.01
    5    8   10      0.59      1.35
    5    8    9      0.39      0.64
    5    8    8      0.05     -0.19
    5    8    7     -0.37     -1.05
    5    8    6     -0.73      0.09
    5    8    5      0.97     -0.43
    5    8    4     -1.35     -1.81
    5    8    3     -0.84      0.30
    5    8    2      0.59      0.35
    5    8    1      1.13      1.54
   -8   13    0      2.61      2.00
   -8   13    1     -1.99     -0.93
   -8   13    2     -0.11     -0.61
   -8   13    3      0.73     -1.11
   -8   13    4      2.58      0.70
   -8   13    5     -0.40      0.73
   -8   13    6      0.22     -0.74
    4    8   11     -0.59      0.59
    4    8   10      0.00      2.39
    4    8    9     -0.14     -0.23
    4    8    8     -0.01     -0.27
    4    8    7     -1.56      0.00
    4    8    6     -1.28      2.41
    4    8    5      2.52      1.15
    4    8    4     -0.31     -0.01
    4    8    3     -1.13     -3.16
    4    8    2     -3.02     -3.71
    4    8    1      2.32     -2.02
   -8   12    0      2.47     -0.12
   -8   12    1      1.03      1.26
   -8   12    2      0.67     -0.53
   -8   12    3     -3.42     -0.87
   -8   12    4      1.61     -3.39
   -8   12    5     -1.46     -0.93
   -8   12    6     -0.94      0.88
    3    8   11     -0.17     -0.92
    3    8   10      0.29      1.16
    3    8    9      0.16     -0.04
    3    8    8      0.56      0.40
    3    8    7     -1.76      0.34
    3    8    6     -1.85      1.29
    3    8    5      1.92     -0.01
    3    8    4     -1.75     -0.78
    3    8    3     -1.96     -2.32
    3    8    2     -4.15      3.11
    3    8    1      5.51      2.76
   -8   11    0      4.62     -2.69
   -8   11    1      1.13      2.32
   -8   11    2     -0.15      0.26
   -8   11    3     -1.25     -0.88
   -8   11    4      0.33     -2.27
   -8   11    5     -1.51      0.29
   -8   11   11     -0.38      0.60
    2    8   12     -0.40      0.31
    2    8   11     -0.18     -0.42
    2    8   10     -0.52      0.45
    2    8    9     -0.17     -0.77
    2    8    8     -0.40     -0.34
    2    8    7     -1.01     -0.63
    2    8    6      0.43     -1.09
    2    8    5      0.02     -0.37
    2    8    4     -1.55     -1.58
    2    8    3     -1.41     -2.93
    2    8    2     -3.22      2.56
    2    8    1      1.01     -2.01
   -8   10    0     -0.14     -1.03
   -8   10    1     -2.19     -0.93
   -8   10    2     -0.66     -1.81
   -8   10    3      5.64     -1.93
   -8   10    4      3.04     -0.62
   -8   10    5      0.42      0.39
   -8   10   11     -0.59     -0.05
    1    8   12      0.27      0.31
    1    8   11      0.32      0.31
    1    8   10      1.39      0.14
    1    8    9      0.43     -0.93
    1    8    8     -0.32     -0.38
    1    8    7     -0.36     -1.10
    1    8    6      1.02     -0.12
    1    8    5      0.12      0.40
    1    8    4      3.09     -0.98
    1    8    3      3.66     -2.93
    1    8    2      4.80      0.80
    1    8    1      1.56     -4.15
   -8    9    0      2.00      1.81
   -8    9    1     -1.46     -0.48
   -8    9    2     -1.67      0.20
   -8    9    3     -0.04     -1.19
   -8    9    4      2.03     -2.13
   -8    9    5     -1.22      0.47
   -8    9   11     -0.28      0.07
    0    8   12      0.23      0.15
    0    8   11     -0.01      2.00
    0    8   10      0.34     -1.28
    0    8    9     -1.28     -1.10
    0    8    8     -1.99     -0.40
    0    8    7     -1.34      0.82
    0    8    6      0.66      1.73
    0    8    5      1.06      2.33
    0    8    4      2.91     -1.08
    0    8    3      2.37     -2.46
    0    8    2      3.92      5.90
    0    8    1      4.35      6.37
    0    8    0      9.74      0.18
   -8    8    1      0.97      4.83
   -8    8    2      1.81      2.02
   -8    8    3     -1.89     -2.42
   -8    8    4      1.60     -1.61
   -8    8   11     -0.50     -0.11
   -8    8   12      0.20      0.59
   -5    8    9     -2.04     -0.47
   -5    8    8      1.67     -0.30
   -5    8    7      0.95     -0.72
   -6    8    9     -0.11      0.89
   -6    8    8     -0.74      0.68
   -6    8    7     -1.28     -0.27
   -7    8    9      2.17     -0.30
   -7    8    8      0.24      0.14
   -7    8    7      1.43     -0.73
    1    7   13     -1.17      0.55
   -8    8   10      0.29      1.16
   -8    8    9      1.68      2.62
   -8    8    8      1.64      0.29
   -8    8    7      1.78      0.05
   -8    8    6     -0.32      1.48
   -8    8    5     -0.27      1.22
   -9    8   11     -2.59     -0.28
   -9    8   10      0.40      0.52
   -9    8    9      1.27      1.45
   -9    8    8      0.65      0.02
   -9    8    7      1.04     -0.41
   -9    8    6      1.01     -0.37
   -9    8    5      1.33      0.75
   -9    8    4     -0.08      0.09
   -9    8    3     -1.02      0.22
   -9    8    2     -0.70      1.15
   -9    8    1     -4.58      3.45
   -1    9    0      1.39     -5.01
   -1    9    1     -0.91     -3.64
   -1    9    2      0.02     -1.78
   -1    9    3      0.15     -0.99
   -1    9    4      1.04     -1.92
   -1    9    5      1.28      0.26
   -1    9    6      0.47      0.50
   -1    9    7     -0.25      0.04
   -1    9    8      0.64      0.12
   -1    9    9      2.07     -2.60
   -1    9   10     -1.31     -1.96
   -1    9   11     -0.90     -0.02
  -10    8   11     -1.35      0.72
  -10    8   10      0.40      0.89
  -10    8    9     -0.12     -0.46
  -10    8    8     -0.92      0.10
  -10    8    7     -1.64     -0.01
  -10    8    6      0.72     -0.18
  -10    8    5     -0.67      0.19
  -10    8    4      0.13     -0.58
  -10    8    3     -4.01     -1.84
  -10    8    2     -1.15     -0.08
  -10    8    1     -0.23      0.03
   -2   10    0     -1.10      1.30
   -2   10    1     -2.25     -1.41
   -2   10    2     -2.63     -0.30
   -2   10    3     -4.07      3.04
   -2   10    4     -2.26      0.51
   -2   10    5     -0.52      1.04
   -2   10    6     -0.03      0.37
   -2   10    7     -0.10     -0.47
   -2   10    8      1.59     -1.69
   -2   10    9      0.57     -0.98
   -2   10   10      0.58     -1.16
   -2   10   11      0.24     -0.63
  -11    8   11      0.35      0.51
  -11    8   10     -0.72     -0.68
  -11    8    9     -0.76     -0.61
  -11    8    8      0.26      0.45
  -11    8    7      0.95     -0.57
  -11    8    6     -0.34     -0.64
  -11    8    5     -2.84     -0.66
  -11    8    4     -1.30     -0.77
  -11    8    3     -3.39     -2.57
  -11    8    2      3.69     -4.37
  -11    8    1      7.71     -1.39
   -3   11    0      4.63      0.21
   -3   11    1      4.18     -0.35
   -3   11    2      0.78     -0.86
   -3   11    3      0.17     -1.54
   -3   11    4      0.13     -0.65
   -3   11    5     -1.05      0.66
   -3   11    7     -0.49     -0.05
   -3   11   10      1.52     -0.24
   -3   11   11      0.26      0.39
  -12    8   10     -1.06     -0.31
  -12    8    9     -0.30      0.54
  -12    8    8      0.40     -1.18
  -12    8    7     -0.70     -1.68
  -12    8    6      0.18      1.20
  -12    8    5      1.70      1.36
  -12    8    4      0.78      0.05
  -12    8    3     -2.48     -2.48
  -12    8    2     -3.91     -4.36
  -12    8    1      1.62      0.82
   -4   12    0      2.60     -1.64
   -4   12    1      1.17     -1.76
   -4   12    2      0.75     -0.23
   -4   12    3     -2.60     -1.39
   -4   12    4     -2.95     -1.09
   -4   12    5     -2.11      1.13
   -4   12   10      0.15      0.22
  -13    8   10      1.87     -1.35
  -13    8    9      0.33     -0.13
  -13    8    8     -0.05      0.27
  -13    8    7     -1.10      0.88
  -13    8    6      0.99      0.25
  -13    8    5      1.64      0.28
  -13    8    4      1.38     -0.98
  -13    8    3      0.32     -1.95
  -13    8    2     -2.18      0.13
  -13    8    1      1.96      2.64
   -5   13    0      2.54      1.15
   -5   13    1     -2.19     -0.01
   -5   13    2      0.87     -2.26
   -5   13    3     -1.41      1.18
   -5   13    4     -0.51      0.51
   -5   13    5      0.11      1.34
   -5   13    6      0.85      1.18
  -14    8   10      1.71     -0.19
  -14    8    9      0.30      0.05
  -14    8    8     -0.34     -0.02
  -14    8    7     -0.08     -0.22
  -14    8    6      0.15      0.02
  -14    8    5     -0.35      0.70
  -14    8    4     -1.36      0.13
  -14    8    3      0.29      0.67
  -14    8    2     -0.63      0.89
  -14    8    1     -0.07     -0.76
   -6   14    0      0.00     -0.13
   -6   14    1     -0.75     -0.20
   -6   14    2      1.11     -1.57
   -6   14    3     -0.28     -0.20
   -6   14    4      1.05      0.45
   -6   14    5     -0.42     -0.58
   -6   14    6      0.47      0.02
  -15    8    9     -0.88      0.76
  -15    8    8     -0.26      0.77
  -15    8    7      1.08     -0.19
  -15    8    6      0.75      0.26
  -15    8    5     -1.13      0.57
  -15    8    4      0.51      0.55
  -15    8    3      0.26      0.95
  -15    8    2     -1.86      1.40
  -15    8    1      0.17      0.81
   -7   15    0      1.16     -1.23
   -7   15    1     -4.16      1.03
   -7   15    2      0.87      1.07
   -7   15    3      0.36      0.70
   -7   15    4      0.99      1.55
   -7   15    5      0.08      0.14
   -7   15    6     -0.34      0.55
    8    8    8     -0.26      0.99
    8    8    7     -1.24     -0.17
    8    8    6     -2.57      0.10
    8    8    5     -1.79     -0.22
    8    8    4      0.59      0.48
    8    8    3      0.44     -0.93
    8    8    2      0.19     -3.05
    8    8    1     -1.39      1.64
   -8   16    0      1.63     -1.26
   -8   16    1      0.19      0.19
   -8   16    2      2.38      0.11
   -8   16    3      0.30      0.86
   -8   16    4      0.45     -0.40
   -8   16    5      0.62     -1.01
   -8   16    6      0.46     -0.73
    8    9    6     -0.17     -1.01
    8    9    5      1.52     -0.02
    8    9    4      0.93      0.91
    8    9    3     -0.46     -1.20
    8    9    2      1.06      0.52
    8    9    1     -2.03     -0.11
   -9   17    0     -1.42      0.21
   -9   17    1      2.06     -0.83
   -9   17    2     -0.35     -0.46
   -9   17    3      0.09      0.46
   -9   17    4     -0.11     -0.70
   -9   17    5     -0.08      0.41
   -9   17    6     -0.05      0.19
    7    9    8      1.37      1.12
    7    9    7     -0.76      0.66
    7    9    6      0.37      1.50
    7    9    5      0.96      0.89
    7    9    4      0.08      0.94
    7    9    3     -2.74      1.21
    7    9    2     -0.14      0.37
    7    9    1      0.09     -0.89
   -9   16    0      0.53      0.35
   -9   16    1      0.37      2.04
   -9   16    2      2.15      0.57
   -9   16    3     -0.23      0.25
   -9   16    4     -1.44     -2.33
   -9   16    5     -0.02      0.89
   -9   16    6      0.28      0.09
    6    9    9      0.44      1.33
    6    9    8     -1.00      0.84
    6    9    7     -0.62      1.00
    6    9    6     -1.81      0.28
    6    9    5     -1.53      0.96
    6    9    4     -1.56     -0.56
    6    9    3     -3.60      1.13
    6    9    2      0.10     -0.77
    6    9    1      0.70     -2.54
   -9   15    0      0.76      0.49
   -9   15    1      0.80      1.88
   -9   15    2      1.08      0.14
   -9   15    3      0.03     -0.38
   -9   15    4      0.92      0.55
   -9   15    5      0.77      1.00
   -9   15    6     -0.21      0.33
    5    9    9      0.80      1.83
    5    9    8     -0.42      0.36
    5    9    7      1.11      0.24
    5    9    6     -2.45     -1.20
    5    9    5     -0.75     -0.06
    5    9    4      0.52     -1.00
    5    9    3      0.54      1.19
    5    9    2     -0.79     -1.00
    5    9    1     -2.49     -0.44
   -9   14    0      1.53      0.19
   -9   14    1      0.82     -0.03
   -9   14    2      0.65      0.46
   -9   14    3     -1.27     -0.83
   -9   14    4     -0.71     -1.06
   -9   14    5      0.67     -1.05
   -9   14    6      0.05     -0.27
    4    9    9      0.48      0.08
    4    9    8     -0.51     -0.73
    4    9    7      0.29     -0.20
    4    9    6      0.03      0.50
    4    9    5      0.17      0.31
    4    9    4      0.71      0.16
    4    9    3      1.66      0.38
    4    9    2     -1.55     -0.54
    4    9    1      0.51      1.00
   -9   13    0      4.79     -1.68
   -9   13    1      1.37     -1.15
   -9   13    2      1.44      0.29
   -9   13    3     -0.64      0.66
   -9   13    4      1.69     -0.07
   -9   13    5     -0.18      0.71
   -9   13    6     -0.92      0.42
    3    9   11      0.29      0.07
    3    9   10      0.04      0.59
    3    9    9      0.40     -0.73
    3    9    8     -0.20     -0.65
    3    9    7     -0.33     -0.80
    3    9    6     -0.53      1.46
    3    9    5      2.20     -0.30
    3    9    4      0.13     -0.73
    3    9    3     -1.57     -3.51
    3    9    2     -6.67     -1.34
    3    9    1      0.31      2.41
   -9   12    0      2.35     -2.07
   -9   12    1      0.59     -0.01
   -9   12    2     -1.18     -1.13
   -9   12    3     -0.80     -2.13
   -9   12    4      4.52     -1.33
   -9   12    5      1.82      0.70
   -9   12    6     -2.04      1.52
    2    9   11      0.40     -1.05
    2    9   10     -0.80      1.22
    2    9    9      0.42      0.11
    2    9    8      1.16      0.76
    2    9    7      0.08     -0.13
    2    9    6     -1.62     -0.85
    2    9    5     -0.79     -1.76
    2    9    4      0.22      0.55
    2    9    3      2.38     -0.90
    2    9    2      0.89     -0.92
    2    9    1      4.57     -1.48
   -9   11    0     -0.01      1.22
   -9   11    1     -1.68      2.07
   -9   11    2     -1.86      0.41
   -9   11    3      2.11     -3.10
   -9   11    4      0.29     -2.85
   -9   11    5      2.48     -2.51
    1    9   12     -0.31      1.12
    1    9   11      0.14     -0.04
    1    9   10      0.21      1.69
    1    9    9     -1.29     -1.66
    1    9    8     -1.16     -0.08
    1    9    7     -0.81      0.05
    1    9    6     -0.54      0.41
    1    9    5      0.58      0.16
    1    9    4      1.12      1.90
    1    9    3     -0.34      1.82
    1    9    2     -0.48      0.66
    1    9    1     -1.03      2.38
   -9   10    0      1.83     -4.87
   -9   10    1      3.64     -1.61
   -9   10    2      0.45      5.25
   -9   10    3      3.45      2.48
   -9   10    4     -2.22     -0.86
   -9   10    5      1.53     -2.62
   -9   10   11      0.53      0.41
    0    9   12     -0.18      0.56
    0    9   11     -0.58      0.39
    0    9   10     -0.57      0.20
    0    9    9     -0.96     -2.55
    0    9    8     -1.19     -0.69
    0    9    7     -0.75     -0.53
    0    9    6     -0.24      0.83
    0    9    5      0.32     -0.59
    0    9    4      1.34      0.36
    0    9    3      0.90      0.21
    0    9    2     -0.05     -1.46
    0    9    1     -4.06      1.17
    0    9    0      1.26      2.50
   -9    9    1     -2.34     -3.65
   -9    9    2     -2.36      0.17
   -9    9    3      2.24      0.96
   -9    9    4      1.23      0.34
   -9    9    5      0.79     -0.26
   -9    9   11     -0.44      0.66
   -1    9   12     -1.16      0.26
   -9    7   12      0.13      0.09
   -5    9    9      0.20      0.30
   -5    9    8      1.18      0.29
   -5    9    7     -0.71      0.94
   -6    9   10      0.60     -0.14
   -6    9    9     -1.55     -0.83
   -6    9    8     -0.17     -0.71
   -6    9    7     -1.25      0.34
   -6    9    6     -0.12     -0.66
   -7    9   10      0.18     -0.27
   -7    9    9      0.74      1.84
   -7    9    8     -0.10      0.46
   -7    9    7      0.60     -0.93
   -7    9    6      1.48     -0.48
   -8    9   10     -0.99     -0.54
   -8    9    9      0.57      0.50
   -8    9    8      0.36      0.62
   -8    9    7     -0.96     -0.50
   -8    9    6      0.50     -0.37
   -9    9   10      0.13      0.15
   -9    9    9      1.06      0.51
   -9    9    8      1.41      0.88
   -9    9    7     -0.23     -0.31
   -9    9    6      0.67      0.08
  -10    9   11      0.34      1.12
  -10    9   10     -0.16     -0.70
  -10    9    9      0.32     -1.26
  -10    9    8      0.59     -0.83
  -10    9    7     -0.02     -1.26
  -10    9    6      1.92     -1.56
  -10    9    5     -0.82     -1.70
  -10    9    4      0.19      2.69
  -10    9    3     -0.24      2.85
  -10    9    2     -0.19     -0.39
  -10    9    1      0.32     -5.29
   -1   10    0      1.33      1.79
   -1   10    1      0.28      1.13
   -1   10    2      2.71      3.38
   -1   10    3      2.62      3.43
   -1   10    4      3.02      1.49
   -1   10    5      1.36     -0.40
   -1   10    6     -1.29     -0.13
   -1   10    7     -1.54     -0.92
   -1   10    8      0.69     -0.18
   -1   10    9      0.53     -0.11
   -1   10   10     -0.01     -0.41
   -1   10   11     -0.10     -0.06
  -11    9   10      0.10      0.76
  -11    9    9     -0.49      1.40
  -11    9    8      0.82      0.81
  -11    9    7     -0.17      0.65
  -11    9    6      0.39     -2.21
  -11    9    5     -1.59     -2.89
  -11    9    4      0.78      0.69
  -11    9    3     -2.80      3.30
  -11    9    2      1.36      0.71
  -11    9    1      2.40      0.27
   -2   11    0      0.34     -0.29
   -2   11    1      0.02     -1.97
   -2   11    2     -0.04     -2.28
   -2   11    3      2.04     -3.54
   -2   11    4     -0.93     -1.97
   -2   11    5     -0.70     -1.07
   -2   11    6     -1.19     -0.31
   -2   11    9      0.46      0.03
   -2   11   10      4.42     -0.35
   -2   11   11      0.25      0.21
  -12    9   10      0.25      0.26
  -12    9    9     -0.68     -0.28
  -12    9    8     -0.62     -1.84
  -12    9    7     -0.65      1.57
  -12    9    6     -1.48      2.28
  -12    9    5      0.53      0.49
  -12    9    4     -0.41     -0.56
  -12    9    3      0.57     -2.75
  -12    9    2     -0.24     -7.30
  -12    9    1      1.72     -0.79
   -3   12    0      2.17     -0.58
   -3   12    1     -0.13      0.05
   -3   12    2     -2.09     -0.90
   -3   12    3      1.21     -2.22
   -3   12    4     -2.45      1.71
   -3   12    5     -1.35      1.04
   -3   12   10      1.75     -1.05
  -13    9   10      2.49      0.76
  -13    9    9      0.55      1.23
  -13    9    8     -0.67      0.42
  -13    9    7      0.03      1.22
  -13    9    6      0.56     -0.54
  -13    9    5     -0.04      0.04
  -13    9    4     -0.74     -0.34
  -13    9    3      0.14     -0.15
  -13    9    2     -2.37     -0.37
  -13    9    1      1.20      1.63
   -4   13    0      2.19     -0.91
   -4   13    1     -0.96     -0.15
   -4   13    2      0.66      0.18
   -4   13    3     -0.17     -0.98
   -4   13    4     -0.35     -0.67
   -4   13    5      0.66      0.53
   -4   13   10     -0.78     -1.14
  -14    9   10      1.33     -1.11
  -14    9    9     -0.22      0.59
  -14    9    8     -1.68      1.91
  -14    9    7      0.62     -0.17
  -14    9    6      1.51     -2.16
  -14    9    5     -0.44     -1.20
  -14    9    4      0.45     -0.40
  -14    9    3      1.03      0.17
  -14    9    2      0.50     -1.09
  -14    9    1     -1.38     -1.80
   -5   14    0      1.01     -3.20
   -5   14    1     -0.14      0.07
   -5   14    2      0.41     -2.54
   -5   14    3     -1.38      0.50
   -5   14    4     -0.16     -0.82
   -5   14    5      0.22      0.52
   -5   14    6     -1.30      0.93
  -15    9   10      0.65     -0.98
  -15    9    9      1.02     -1.80
  -15    9    8     -1.33     -0.48
  -15    9    7     -0.33      0.56
  -15    9    6      1.82      1.46
  -15    9    5     -0.32     -0.15
  -15    9    4      0.28      0.16
  -15    9    3      0.02      1.27
  -15    9    2     -0.74      1.52
  -15    9    1     -1.53     -3.01
   -6   15    0      2.11     -3.21
   -6   15    1     -1.08      2.85
   -6   15    2      1.43     -0.02
   -6   15    3      2.47     -0.26
   -6   15    4      2.06      1.40
   -6   15    5     -0.39      0.21
   -6   15    6      0.37     -0.58
  -16    9    9      0.81     -0.58
  -16    9    8      0.81      0.17
  -16    9    7      0.33     -1.37
  -16    9    6      1.33     -1.73
  -16    9    5     -0.32      0.45
  -16    9    4      2.01      1.05
  -16    9    3      1.93      1.89
  -16    9    2     -0.13      0.74
  -16    9    1     -1.29     -0.22
   -7   16    0     -0.12     -0.77
   -7   16    1     -2.39     -0.96
   -7   16    2      1.90      0.09
   -7   16    3      0.74     -1.67
   -7   16    4      1.53      0.13
   -7   16    5     -0.01      0.11
   -7   16    6      0.11     -0.56
  -17    9    8     -0.07      1.42
  -17    9    6      1.45      1.30
  -17    9    5      0.45      1.33
  -17    9    4     -1.70      0.91
  -17    9    3     -0.96     -0.91
  -17    9    2      0.70      0.37
  -17    9    1     -0.18      2.83
   -8   17    0      1.98      1.63
   -8   17    1      0.42     -0.27
   -8   17    2     -2.12     -0.85
   -8   17    3      0.33     -0.47
   -8   17    4      2.95      1.88
   -8   17    5     -0.37      0.86
   -8   17    6      0.53     -1.05
    9    9    7     -0.58      0.15
    9    9    6      1.38     -1.09
    9    9    5      0.17     -2.05
    9    9    4     -2.36     -0.68
    9    9    3     -2.15     -0.55
    9    9    2      0.57      2.32
    9    9    1     -2.32      0.77
   -9   18    0      1.30     -1.13
   -9   18    1      2.67     -0.15
   -9   18    2      0.81     -0.02
   -9   18    3     -0.82     -0.61
   -9   18    4      0.18     -0.23
   -9   18    5      0.80      0.89
    9   10    2     -0.36     -0.91
    9   10    1     -0.82     -0.75
  -10   19    0     -0.86      0.49
  -10   19    1     -0.12     -0.14
  -10   19    2      3.36     -0.58
    8   10    6     -0.96     -0.17
    8   10    5      0.10      0.24
    8   10    4     -0.36      1.27
    8   10    3     -1.23      1.09
    8   10    2      0.24      3.22
    8   10    1     -0.06     -1.02
  -10   18    0     -1.18      1.41
  -10   18    1      0.12      1.53
  -10   18    2      0.66      0.10
  -10   18    3      0.71     -0.38
  -10   18    4     -0.40     -0.73
  -10   18    5      0.43     -1.54
    7   10    6     -1.04      0.72
    7   10    5      0.20      0.02
    7   10    4     -0.51      0.20
    7   10    3     -2.80     -0.71
    7   10    2     -1.84      2.54
    7   10    1     -0.56      0.79
  -10   17    0      0.54     -2.10
  -10   17    1      0.70      0.44
  -10   17    2     -0.05      0.77
  -10   17    3      0.26      0.43
  -10   17    4     -1.54     -3.74
  -10   17    5      0.43     -0.27
  -10   17    6     -0.29     -0.35
    6   10    8      0.32     -0.17
    6   10    7     -2.25     -0.27
    6   10    6     -1.29     -0.79
    6   10    5     -0.33     -0.57
    6   10    4      0.33     -1.11
    6   10    3     -1.03     -0.51
    6   10    2     -0.08      0.77
    6   10    1     -0.18     -0.76
  -10   16    0      0.12     -2.72
  -10   16    1     -2.02      1.56
  -10   16    2     -0.70      0.72
  -10   16    3      0.34     -0.30
  -10   16    4     -1.68     -3.03
  -10   16    5     -0.18     -0.60
  -10   16    6      0.43     -0.58
    5   10    8     -0.63      0.65
    5   10    7      1.03     -0.07
    5   10    6     -1.52     -2.46
    5   10    5     -0.06     -0.28
    5   10    4      0.60      0.04
    5   10    3      0.42      1.62
    5   10    2     -0.01      0.23
    5   10    1     -2.07     -1.52
  -10   15    0     -0.02     -1.11
  -10   15    1      1.48      1.41
  -10   15    2     -1.40      2.11
  -10   15    3     -0.58      2.03
  -10   15    4     -1.58     -0.22
  -10   15    5      0.03     -1.11
  -10   15    6     -0.09      0.61
    4   10    9      1.43      0.29
    4   10    8      0.20     -0.78
    4   10    7      0.34      0.44
    4   10    6     -0.19     -0.13
    4   10    5     -0.20     -0.13
    4   10    4      0.41     -0.28
    4   10    3      0.45      1.80
    4   10    2     -0.41      1.62
    4   10    1     -1.90      0.52
  -10   14    0     -0.22     -0.16
  -10   14    1      0.56     -0.60
  -10   14    2     -1.07      1.31
  -10   14    3      0.11     -0.16
  -10   14    4      0.73     -1.23
  -10   14    5      1.71     -0.68
  -10   14    6      1.16      0.19
    3   10   10     -0.65     -1.53
    3   10    9      0.17     -0.63
    3   10    8     -0.30     -0.09
    3   10    7      1.03      0.83
    3   10    6      0.69      1.82
    3   10    5     -0.56      0.38
    3   10    4     -1.35     -1.00
    3   10    3     -0.08     -1.88
    3   10    2      0.27     -0.23
    3   10    1      1.98      0.28
  -10   13    0      1.24      1.19
  -10   13    1     -0.01      0.79
  -10   13    2     -1.92      2.87
  -10   13    3     -1.44     -1.05
  -10   13    4      1.07     -0.36
  -10   13    5      1.11     -0.79
  -10   13    6      0.90     -0.78
    2   10   11      0.11      0.20
    2   10   10      0.20     -0.04
    2   10    9      0.19     -0.46
    2   10    8     -1.25     -0.69
    2   10    7     -2.03     -0.56
    2   10    6     -2.18      0.36
    2   10    5      0.30     -1.98
    2   10    4     -0.62     -1.48
    2   10    3      0.58     -0.63
    2   10    2      0.25     -0.94
    2   10    1      2.66      1.03
  -10   12    0      0.21      0.62
  -10   12    1      1.37     -1.23
  -10   12    2      1.27      0.59
  -10   12    3     -0.70     -0.48
  -10   12    4     -1.67      2.24
  -10   12    5      0.17      0.02
    1   10   11      0.13     -0.51
    1   10   10     -0.22      1.36
    1   10    9     -0.93     -0.30
    1   10    8     -0.29     -0.88
    1   10    7     -1.01     -1.61
    1   10    6     -2.20     -1.31
    1   10    5     -0.78     -1.78
    1   10    4      1.41     -1.89
    1   10    3      0.16      0.30
    1   10    2      0.85     -3.35
    1   10    1     -1.26     -1.25
  -10   11    0     -2.33     -0.51
  -10   11    1     -0.30     -1.34
  -10   11    2      0.01      0.38
  -10   11    3      1.95     -1.70
  -10   11    4     -1.02      1.69
  -10   11    5      2.30     -0.41
    0   10   11      1.01      0.34
    0   10   10     -0.21     -0.19
    0   10    9     -2.93     -1.64
    0   10    8      0.06      0.35
    0   10    7     -0.09      0.39
    0   10    6      0.14      1.41
    0   10    5      2.42     -1.22
    0   10    4      2.25      0.66
    0   10    3     -0.16      1.57
    0   10    2      1.77      0.85
    0   10    1      0.40      1.10
    0   10    0      2.30     -2.54
  -10   10    1     -0.02      1.41
  -10   10    2     -3.90      4.34
  -10   10    3      1.13      0.41
  -10   10    4     -1.10      0.46
  -10   10    5      0.70     -2.53
  -10   10   11      3.43      1.04
  -10    8   12     -0.51     -1.76
  -10    7   12     -0.72     -0.86
   -4   10    9      0.44      0.60
   -4   10    8     -0.49     -0.58
   -4   10    7      2.43      1.14
   -4   10    6     -0.90     -0.41
  -10    6   12      0.18     -0.09
   -5   10    9      0.03     -0.01
   -5   10    8     -1.87     -1.60
   -5   10    7     -0.95      1.48
   -5   10    6     -1.64      2.21
    5    5   12      0.27     -1.23
   -6   10   10     -0.35     -0.50
   -6   10    9     -0.66     -1.66
   -6   10    8     -0.28     -0.34
   -6   10    7     -1.40      0.92
   -6   10    6     -1.01     -1.64
    4    6   12      0.13     -0.17
   -7   10   10      0.45     -0.15
   -7   10    9     -0.61     -0.16
   -7   10    8     -0.19     -0.49
   -7   10    7      0.34     -0.14
   -7   10    6      0.16      0.21
   -8   10   10      0.90      1.73
   -8   10    9      1.30      0.86
   -8   10    8     -0.37      0.55
   -8   10    7      0.78      0.23
   -8   10    6      0.79     -0.27
   -9   10   10     -0.66      0.56
   -9   10    9      0.27     -0.24
   -9   10    8     -0.56      1.92
   -9   10    7     -2.17      1.28
   -9   10    6      0.37     -0.98
  -10   10   10      0.96     -0.66
  -10   10    9      2.06      0.33
  -10   10    8      1.68      2.76
  -10   10    7     -0.48      0.15
  -10   10    6      0.07     -0.11
  -11   10   10     -0.87      1.45
  -11   10    9      0.03     -0.19
  -11   10    8     -0.74     -0.70
  -11   10    7     -2.68     -1.38
  -11   10    6     -2.02     -0.89
  -11   10    5     -0.99     -1.27
  -11   10    4      0.49     -0.08
  -11   10    3     -0.41      1.57
  -11   10    2     -1.03     -0.46
  -11   10    1     -1.56     -2.79
   -1   11    0     -2.29     -0.33
   -1   11    1     -1.90      1.93
   -1   11    2     -3.17      4.12
   -1   11    3     -2.96     -1.73
   -1   11    4     -0.16      0.88
   -1   11    5      1.48      0.05
   -1   11    8     -0.57      0.05
   -1   11    9     -0.85     -0.14
   -1   11   10      0.57     -0.69
   -1   11   11      0.71     -0.40
  -12   10   10      1.07     -0.24
  -12   10    9      1.47     -0.65
  -12   10    8      2.14     -1.05
  -12   10    7      0.14      1.32
  -12   10    6     -2.43     -1.61
  -12   10    5      1.80     -2.29
  -12   10    4      0.54     -2.20
  -12   10    3      1.37     -0.12
  -12   10    2      1.55     -0.83
  -12   10    1      2.70      1.19
   -2   12    0      1.12      0.17
   -2   12    1      0.12     -0.60
   -2   12    2     -1.04      0.82
   -2   12    3      0.90     -1.11
   -2   12    4     -1.33      1.81
   -2   12    5      1.82      0.07
   -2   12    9      0.50      0.38
   -2   12   10      1.12      0.61
  -13   10   10      2.24      1.14
  -13   10    9     -0.49     -0.09
  -13   10    8     -0.65      1.09
  -13   10    7      1.13      6.00
  -13   10    6      0.54      1.49
  -13   10    5      3.04     -1.72
  -13   10    4     -1.95     -2.59
  -13   10    3     -0.41     -1.10
  -13   10    2     -0.45     -0.40
  -13   10    1      2.06      0.13
   -3   13    0      1.42     -0.25
   -3   13    1     -0.66     -1.19
   -3   13    2     -2.30      0.68
   -3   13    3     -0.28     -1.24
   -3   13    4     -1.36      1.57
   -3   13    5      2.67      0.21
   -3   13   10      0.19     -0.18
  -14   10    9      1.06      1.17
  -14   10    8     -0.26     -0.49
  -14   10    7      0.40     -0.03
  -14   10    6     -1.30      1.00
  -14   10    5      0.72      1.90
  -14   10    4      0.94     -0.33
  -14   10    3     -0.36      1.70
  -14   10    2      0.66      0.89
  -14   10    1     -0.13     -0.28
   -4   14    0     -0.65     -1.99
   -4   14    1      0.59     -0.96
   -4   14    2     -1.64      2.69
   -4   14    3     -0.86      0.92
   -4   14    4      2.26     -0.40
   -4   14    5      5.43      1.61
  -15   10    9      0.71      0.61
  -15   10    8     -1.03      0.08
  -15   10    7      0.66     -1.08
  -15   10    6     -0.40     -0.09
  -15   10    5     -1.42     -0.80
  -15   10    4     -0.28     -0.33
  -15   10    3      0.16     -0.19
  -15   10    2      0.13     -1.14
  -15   10    1     -1.62     -1.43
   -5   15    0      1.69     -2.77
   -5   15    1      2.08     -0.04
   -5   15    2      0.54     -1.39
   -5   15    3      1.54     -0.17
   -5   15    4      2.02     -1.77
   -5   15    5      1.09     -0.46
   -5   15    6      0.28     -0.14
  -16   10    8      0.52      0.65
  -16   10    7      0.32      0.30
  -16   10    6      1.16     -0.95
  -16   10    5     -1.17      0.60
  -16   10    4     -1.57     -0.48
  -16   10    3      1.16      1.97
  -16   10    2     -0.43      0.00
  -16   10    1     -1.87     -3.30
   -6   16    0      0.35     -0.13
   -6   16    1      0.28     -0.09
   -6   16    2      0.44      0.89
   -6   16    3     -0.59     -1.30
   -6   16    4      0.29     -1.02
   -6   16    5     -0.49      1.00
   -6   16    6      0.91      0.77
  -17   10    7     -4.06     -1.89
  -17   10    6      0.43     -0.75
  -17   10    5      2.85      0.64
  -17   10    4     -0.56     -4.33
  -17   10    3      2.32     -0.87
  -17   10    2     -1.21      1.30
  -17   10    1     -1.96      2.99
   -7   17    0      1.18      1.04
   -7   17    1      0.05     -0.89
   -7   17    2      0.19      2.31
   -7   17    3     -0.29     -0.21
   -7   17    4      1.32     -0.58
   -7   17    5      0.53      0.43
   -7   17    6      0.05      0.20
  -18   10    6      5.31      0.26
  -18   10    5      3.17      0.04
  -18   10    4     -2.53      0.01
  -18   10    3     -0.05     -1.05
  -18   10    2     -0.22      0.15
  -18   10    1     -3.95      0.73
   -8   18    0      3.55     -0.14
   -8   18    1     -1.06     -0.27
   -8   18    2      0.07      0.40
   -8   18    3      0.48      0.58
   -8   18    4      0.28      0.12
   -8   18    5     -0.15      0.29
  -19   10    2      2.27     -0.87
  -19   10    1     -0.22     -0.88
   -9   19    0      4.36     -0.06
   -9   19    1     -0.61      1.25
   -9   19    2      0.20     -0.52
    8   11    2     -1.64     -0.19
    8   11    1     -0.19     -0.21
  -11   19    0     -0.10     -0.20
  -11   19    1      0.19      1.01
  -11   19    2      0.55      0.19
  -11   19    3     -1.41     -0.76
    7   11    6     -2.43      0.09
    7   11    5      0.32      0.14
    7   11    4      0.71     -0.18
    7   11    3     -0.06     -0.27
    7   11    2     -0.92      0.61
    7   11    1     -0.40     -0.96
  -11   18    0     -1.45     -1.00
  -11   18    1     -0.78      0.05
  -11   18    2     -0.75      0.02
  -11   18    3      0.65      1.19
  -11   18    4      1.45      0.01
  -11   18    5      0.41     -0.42
    6   11    6      0.25     -0.42
    6   11    5      0.20     -0.87
    6   11    4      0.21      0.56
    6   11    3     -0.04      0.49
    6   11    2     -0.81      1.21
    6   11    1     -0.18     -0.83
  -11   17    0      0.11     -0.76
  -11   17    1     -0.57      0.32
  -11   17    2      0.20      0.78
  -11   17    3      0.59      0.27
  -11   17    4      0.27     -1.08
  -11   17    5      0.58      0.45
  -11   17    6      0.63     -0.81
    5   11    7     -0.56      0.18
    5   11    6      0.10     -0.06
    5   11    5     -0.20      0.22
    5   11    4     -0.20     -0.22
    5   11    3     -0.09     -0.95
    5   11    2      0.02     -0.32
    5   11    1      0.50     -1.14
  -11   16    0      1.57     -1.76
  -11   16    1      0.26     -2.27
  -11   16    2      0.63     -0.89
  -11   16    3      1.21      0.20
  -11   16    4     -0.30      0.46
  -11   16    5      1.00     -0.41
  -11   16    6      0.83     -0.63
    4   11    8      1.24     -0.04
    4   11    7     -1.29     -0.91
    4   11    6     -0.61     -0.54
    4   11    5      0.08      0.00
    4   11    4      0.55     -0.51
    4   11    3      0.34     -1.40
    4   11    2     -1.20      0.03
    4   11    1      0.05      1.86
  -11   15    0      0.72     -0.72
  -11   15    1      1.27     -2.30
  -11   15    2     -2.29      0.59
  -11   15    3     -1.14      0.28
  -11   15    4      0.01     -0.85
  -11   15    5      0.26     -0.50
  -11   15    6      0.21     -0.15
    3   11    9      1.64     -0.94
    3   11    8      0.96     -0.37
    3   11    7     -0.29      0.02
    3   11    6     -0.36     -0.08
    3   11    5     -1.62      0.02
    3   11    4     -0.05     -0.15
    3   11    3      1.20     -0.86
    3   11    2      0.58     -0.12
    3   11    1     -0.45      1.57
  -11   14    0     -2.00      0.29
  -11   14    1     -0.52     -1.72
  -11   14    2     -0.40      0.88
  -11   14    3      0.63     -1.12
  -11   14    4     -0.25      0.15
  -11   14    5     -0.90      0.64
  -11   14    6      0.75      0.08
    2   11   10     -0.28     -0.10
    2   11    9      0.36      0.67
    2   11    8      0.77     -0.10
    2   11    7      0.87     -0.46
    2   11    6      0.66     -0.04
    2   11    5      0.57     -0.37
    2   11    4     -1.13     -1.15
    2   11    3     -0.28     -0.92
    2   11    2      1.40      0.11
    2   11    1      1.88      1.44
  -11   13    0     -0.67      0.85
  -11   13    1     -1.27     -1.19
  -11   13    2     -0.50      0.67
  -11   13    3     -0.54     -0.84
  -11   13    4     -0.99      1.26
  -11   13    5      0.22      0.72
    1   11   10      0.45      0.27
    1   11    9     -0.55      0.05
    1   11    8     -1.10     -0.02
    1   11    7      0.10      0.00
    1   11    6     -0.11     -0.31
    1   11    5      0.29      0.55
    1   11    4      2.39     -0.10
    1   11    3      1.62      0.03
    1   11    2      0.08     -2.43
    1   11    1     -0.71      1.76
  -11   12    0      0.36      0.63
  -11   12    1     -0.78     -0.12
  -11   12    2      0.03      0.36
  -11   12    3     -1.56     -0.90
  -11   12    4     -0.87      0.08
  -11   12    5     -0.86      0.18
    0   11   11      0.12     -0.03
    0   11   10      0.06     -0.12
    0   11    9     -1.30     -0.34
    0   11    8     -1.54      0.77
    0   11    7     -0.94      0.58
    0   11    6     -1.43      1.32
    0   11    5     -1.47      0.49
    0   11    4      0.09     -0.14
    0   11    3     -1.83      0.94
    0   11    2      0.29      0.78
    0   11    1      0.03      1.29
    0   11    0      2.33     -1.28
  -11   11    1      0.82      0.44
  -11   11    2      1.22     -0.33
  -11   11    3      0.85     -0.32
  -11   11    4     -0.62      0.15
  -11   11    5     -1.10      0.00
   -1   11    7     -0.89     -0.69
   -1   11    6     -0.45      0.28
  -11   10   11      1.31      3.21
   -2   11    8      0.21     -0.68
   -2   11    7     -1.02      0.55
  -11    9   11      1.12      2.89
   -3   11    9     -1.06      0.39
   -3   11    8      2.26     -1.53
   -3   11    6      0.48     -0.93
   -4   11    9     -1.06      0.05
   -4   11    8      0.58      0.11
   -4   11    7      0.59     -0.48
   -4   11    6     -0.81     -1.24
  -11    7   12      0.29     -1.21
   -5   11   10      0.26      0.19
   -5   11    9     -0.67     -0.37
   -5   11    8     -0.66     -1.57
   -5   11    7      1.16     -0.98
   -5   11    6     -1.51      0.63
  -11    6   12     -0.76     -1.60
   -6   11   10     -0.38      0.24
   -6   11    9      0.41     -0.28
   -6   11    8     -0.32     -0.94
   -6   11    7      0.51     -0.25
   -6   11    6      0.35     -0.41
    5    6   12     -0.10     -0.53
   -7   11   10     -0.71     -0.48
   -7   11    9      0.10      0.50
   -7   11    8     -1.20      0.91
   -7   11    7     -0.47      1.65
   -7   11    6      1.46      1.23
    4    7   12     -0.25      0.22
   -8   11   10      0.34      1.75
   -8   11    9      0.05     -0.27
   -8   11    8     -2.84     -1.26
   -8   11    7     -0.49      1.23
   -8   11    6     -1.41      3.14
   -9   11   10      0.80     -0.12
   -9   11    9      1.32     -1.96
   -9   11    8     -0.63     -0.53
   -9   11    7      0.55     -0.07
   -9   11    6     -1.37     -0.44
  -10   11   10     -0.03      0.59
  -10   11    9      2.64      1.86
  -10   11    8      0.56      1.48
  -10   11    7     -0.31      0.20
  -10   11    6     -0.70      0.42
  -11   11   10     -0.70     -1.14
  -11   11    9      2.61     -0.20
  -11   11    8      1.59     -0.58
  -11   11    7      0.63     -0.32
  -11   11    6     -0.39      1.93
  -12   11   10      2.18      0.23
  -12   11    9      1.65      0.14
  -12   11    8      0.18      1.62
  -12   11    7     -1.00      2.89
  -12   11    6     -0.49      1.52
  -12   11    5      1.54      0.13
  -12   11    4      0.04     -0.49
  -12   11    3      0.72      0.83
  -12   11    2      1.14     -1.38
  -12   11    1     -0.50      0.42
   -1   12    0     -0.71     -1.23
   -1   12    1     -0.91     -3.69
   -1   12    2      0.13     -1.42
   -1   12    3     -1.70     -0.19
   -1   12    4     -2.04      1.11
   -1   12    5      0.26     -0.17
   -1   12    8     -1.43      0.35
   -1   12    9      0.59      0.21
   -1   12   10     -0.34     -0.16
  -13   11    9     -1.07      0.21
  -13   11    8      1.10      2.06
  -13   11    7     -0.58      3.08
  -13   11    6     -3.02     -1.94
  -13   11    5     -0.27     -1.03
  -13   11    4     -1.63      0.50
  -13   11    3      1.02     -0.72
  -13   11    2      2.12     -0.40
  -13   11    1      1.36      1.49
   -2   13    0      0.14     -0.48
   -2   13    1     -0.39     -2.49
   -2   13    2      0.54     -0.92
   -2   13    3     -1.45      2.03
   -2   13    4     -2.98      1.43
   -2   13    5      2.16     -0.98
   -2   13    9     -0.47     -0.38
   -2   13   10     -0.57      0.13
  -14   11    9     -0.74      0.50
  -14   11    8      0.65      0.44
  -14   11    7     -0.23      1.53
  -14   11    6     -2.40     -1.55
  -14   11    5     -1.30     -1.63
  -14   11    4     -0.36     -0.32
  -14   11    3     -1.47      0.48
  -14   11    2      0.15     -1.44
  -14   11    1     -0.86     -1.01
   -3   14    0     -2.52      0.88
   -3   14    1     -0.19      0.50
   -3   14    2      0.19      0.09
   -3   14    3      0.88     -0.56
   -3   14    4     -0.34     -0.19
   -3   14    5      3.28      0.26
  -15   11    9      0.53      0.02
  -15   11    8      0.00     -2.18
  -15   11    7      2.02     -1.68
  -15   11    6      0.40      0.92
  -15   11    5      0.81     -0.80
  -15   11    4      1.85     -0.65
  -15   11    3     -1.08      0.44
  -15   11    2      1.77     -0.48
  -15   11    1      0.09      1.02
   -4   15    0     -1.29      0.64
   -4   15    1      1.25     -1.40
   -4   15    2     -0.13     -0.41
   -4   15    3      0.10     -0.26
   -4   15    4     -0.13      0.17
   -4   15    5      1.26      1.47
  -16   11    8      0.74      1.11
  -16   11    7      2.37      0.25
  -16   11    6     -0.56      0.07
  -16   11    5     -1.87      1.60
  -16   11    4     -0.53     -0.40
  -16   11    3      0.31     -0.99
  -16   11    2      2.13     -0.55
  -16   11    1     -1.65      0.28
   -5   16    0      1.27     -0.07
   -5   16    1      0.58     -1.92
   -5   16    2      0.73     -0.39
   -5   16    3     -0.40      1.35
   -5   16    4     -0.78      0.40
   -5   16    5      0.14     -0.09
   -5   16    6      5.21      2.34
  -17   11    6     -0.14     -0.75
  -17   11    5      1.25      3.85
  -17   11    4     -2.33     -1.23
  -17   11    3      1.50      3.65
  -17   11    2     -0.64     -0.11
  -17   11    1     -5.64     -3.05
   -6   17    0     -0.58      0.71
   -6   17    1      0.49     -1.38
   -6   17    2      1.15      0.42
   -6   17    3      0.22      0.28
   -6   17    4     -0.22     -0.97
   -6   17    5      0.02      0.95
   -6   17    6      2.09      0.23
  -18   11    4     -6.09     -3.89
  -18   11    3     -0.73     -0.41
  -18   11    2      0.52      1.21
  -18   11    1     -0.38     -1.95
   -7   18    0      4.19      1.19
   -7   18    1     -1.12      0.02
   -7   18    2      0.36      0.72
   -7   18    3      0.23      0.38
   -7   18    4     -1.24     -1.85
  -19   11    2      1.89      1.58
  -19   11    1     -0.98      1.05
   -8   19    0      6.50     -3.17
   -8   19    1     -0.58      0.48
   -8   19    2     -0.57      1.73
    7   12    2     -0.40     -0.30
    7   12    1      0.15     -0.99
  -12   19    0     -0.31     -0.17
  -12   19    1      0.00     -0.06
  -12   19    2      0.52     -0.25
  -12   19    3     -0.79     -0.65
    6   12    5      0.50      0.03
    6   12    4     -0.33      0.17
    6   12    3      0.03      0.41
    6   12    2     -0.62     -0.41
    6   12    1     -0.22     -1.56
  -12   18    0      0.14      1.14
  -12   18    1      1.13     -0.02
  -12   18    2     -0.60      1.11
  -12   18    3     -1.31      0.12
  -12   18    4      0.23     -0.52
  -12   18    5     -0.28      1.21
    5   12    6     -1.32     -0.11
    5   12    5     -0.86      0.93
    5   12    4      0.44      0.64
    5   12    3      0.91     -1.17
    5   12    2      0.40     -0.57
    5   12    1     -0.60      0.37
  -12   17    0      0.62      0.77
  -12   17    1     -0.61     -0.78
  -12   17    2      0.21      0.08
  -12   17    3     -0.95      0.08
  -12   17    4      0.23      1.02
  -12   17    5      1.60      1.66
  -12   17    6      1.39     -0.09
    4   12    7     -0.07     -1.53
    4   12    6     -0.41     -0.99
    4   12    5     -0.05     -0.32
    4   12    4     -0.08      1.14
    4   12    3      1.85      0.73
    4   12    2      0.66     -0.16
    4   12    1     -0.81      0.75
  -12   16    0      0.23      1.07
  -12   16    1     -0.80      0.09
  -12   16    2     -0.34      0.68
  -12   16    3     -1.14      0.38
  -12   16    4      0.33     -0.19
  -12   16    5      0.79      0.33
  -12   16    6      0.38     -0.07
    3   12    8      0.13      0.27
    3   12    7     -0.09      0.26
    3   12    6      0.53     -0.09
    3   12    5      0.33     -1.82
    3   12    4     -0.55      0.61
    3   12    3      0.34      0.77
    3   12    2     -1.15      0.06
    3   12    1     -0.04     -0.54
  -12   15    0      0.23      2.72
  -12   15    1      0.06      0.60
  -12   15    2     -0.15     -0.14
  -12   15    3      0.50     -0.52
  -12   15    4      0.25      0.36
  -12   15    5     -1.06      0.37
  -12   15    6     -0.27     -0.18
    2   12    9      0.20     -0.21
    2   12    8     -0.33     -0.93
    2   12    7      0.52      0.48
    2   12    6     -0.38      0.89
    2   12    5     -0.74     -0.52
    2   12    4     -0.40     -0.68
    2   12    3      0.88      0.51
    2   12    2      0.98     -0.24
    2   12    1      0.13     -0.46
  -12   14    0      1.19     -0.17
  -12   14    1      0.16     -0.17
  -12   14    2      0.94     -1.09
  -12   14    3      1.67     -1.44
  -12   14    4     -0.18     -0.42
  -12   14    5      0.50     -0.46
    1   12   10      0.15     -0.40
    1   12    9      0.74     -0.51
    1   12    8      0.66     -1.71
    1   12    7     -0.20      0.23
    1   12    6      0.53     -0.09
    1   12    5     -0.29     -0.85
    1   12    4     -0.38     -0.33
    1   12    3      0.93      0.77
    1   12    2      1.42      1.02
    1   12    1      1.13      1.34
  -12   13    0      2.12     -0.99
  -12   13    1     -0.09     -0.42
  -12   13    2     -1.07     -0.08
  -12   13    3     -1.14     -0.62
  -12   13    4     -1.45     -0.27
  -12   13    5     -0.41      0.69
    0   12   10      0.25     -0.24
    0   12    9      0.64      0.28
    0   12    8     -0.32     -0.27
    0   12    7      0.24     -0.54
    0   12    6     -0.12     -0.34
    0   12    5      0.89     -0.88
    0   12    4      2.73     -0.13
    0   12    3      1.40     -0.22
    0   12    2     -0.73     -0.06
    0   12    1     -1.49      2.04
    0   12    0      1.21      2.77
  -12   12    1      0.33     -2.20
  -12   12    2      1.22     -0.95
  -12   12    3     -0.55      1.02
  -12   12    4     -0.94     -0.46
  -12   12    5      0.55     -0.61
   -1   12    7      1.38      0.97
   -1   12    6      1.67      1.47
   -2   12    8     -0.91     -0.24
   -2   12    7      0.42     -0.24
   -2   12    6      0.12      0.20
   -3   12    9      0.43      0.58
   -3   12    8      0.84      0.07
   -3   12    7      0.62      0.88
   -3   12    6     -0.19     -0.24
  -12    9   11     -1.50      1.41
   -4   12    9      0.84     -0.17
   -4   12    8     -0.14     -0.52
   -4   12    7     -1.33      0.55
   -4   12    6      0.68      0.01
  -12    8   11      0.49     -0.69
   -5   12   10      0.14     -0.37
   -5   12    9     -2.11     -0.74
   -5   12    8      0.98      0.40
   -5   12    7      0.32     -0.57
   -5   12    6      0.84      1.05
  -12    7   11      0.14     -0.74
   -6   12   10      2.36     -0.51
   -6   12    9     -1.19     -2.53
   -6   12    8      0.29     -1.40
   -6   12    7     -0.59      0.42
   -7   12   10     -1.18      1.08
   -7   12    9      0.08      0.16
   -7   12    8     -0.41     -0.05
   -7   12    7     -0.51     -0.72
   -8   12   10     -3.17     -1.22
   -8   12    9     -0.57     -0.26
   -8   12    8     -0.67     -0.97
   -8   12    7      0.61     -0.02
   -9   12   10      1.83     -0.76
   -9   12    9      0.37     -0.24
   -9   12    8      0.02      0.42
   -9   12    7      1.64      0.76
  -10   12   10      0.12      0.32
  -10   12    9      0.15      1.04
  -10   12    8     -0.73      0.12
  -10   12    7     -0.02     -0.20
  -10   12    6     -0.92     -0.07
  -11   12    9      1.98      1.44
  -11   12    8      0.19     -1.01
  -11   12    7     -0.38      0.28
  -11   12    6     -0.53      1.07
  -12   12    9     -0.73     -0.06
  -12   12    8     -0.82     -1.11
  -12   12    7      0.30      0.47
  -12   12    6      1.38      0.98
  -13   12    9     -0.85      0.66
  -13   12    8      1.89      2.13
  -13   12    7      1.66      0.84
  -13   12    6      0.89      0.15
  -13   12    5      2.31     -0.18
  -13   12    4     -1.51     -0.82
  -13   12    3     -0.44      0.14
  -13   12    2      2.70      0.37
  -13   12    1      1.89     -0.21
   -1   13    0      0.84      0.85
   -1   13    1      0.10     -1.68
   -1   13    2      0.37     -0.59
   -1   13    3     -0.60     -0.65
   -1   13    4     -0.44     -0.55
   -1   13    5      1.78     -2.80
   -1   13    8     -0.43     -0.74
   -1   13    9     -0.05      0.01
   -1   13   10     -0.18      0.19
  -14   12    9     -0.96      0.53
  -14   12    8      0.89      1.26
  -14   12    7     -0.17      1.20
  -14   12    6     -0.68     -1.33
  -14   12    5      0.07     -0.76
  -14   12    4      0.72      0.45
  -14   12    3      0.32      0.41
  -14   12    2      2.79      0.31
  -14   12    1      1.92      0.56
   -2   14    0     -0.01      0.08
   -2   14    1     -0.97      1.79
   -2   14    2      0.65     -1.18
   -2   14    3     -0.28     -0.62
   -2   14    4     -1.01     -0.35
   -2   14    5      1.08     -0.76
   -2   14    9     -0.25      0.30
  -15   12    8      0.30      0.08
  -15   12    7      1.88      2.59
  -15   12    6      1.59      1.64
  -15   12    5     -1.30     -2.46
  -15   12    4     -0.55      2.66
  -15   12    3     -2.90      3.22
  -15   12    2     -0.18     -0.06
  -15   12    1     -0.62     -0.40
   -3   15    0     -3.05     -1.15
   -3   15    1      1.06      1.88
   -3   15    2      1.26      0.03
   -3   15    3      1.36     -1.49
   -3   15    4     -0.11     -1.11
   -3   15    5     -0.33     -0.19
  -16   12    8     -0.02     -0.58
  -16   12    7      1.28      0.95
  -16   12    6      0.36      2.02
  -16   12    5     -1.20     -2.73
  -16   12    4     -0.18      0.05
  -16   12    3     -3.02     -1.38
  -16   12    2     -0.10      2.73
  -16   12    1      0.66      2.62
   -4   16    0     -1.20      0.27
   -4   16    1      0.40     -0.32
   -4   16    2     -0.36      0.68
   -4   16    3      0.34     -0.69
   -4   16    4     -0.33      0.06
   -4   16    5     -1.53     -1.25
  -17   12    6      0.16      0.12
  -17   12    5     -0.55      1.73
  -17   12    4     -0.76     -0.16
  -17   12    3     -1.52     -2.17
  -17   12    2     -2.15     -1.87
  -17   12    1     -1.39     -1.69
   -5   17    0      0.97      0.46
   -5   17    1      0.00     -0.73
   -5   17    2     -0.72     -0.22
   -5   17    3     -0.12     -0.18
   -5   17    4     -0.23      0.04
   -5   17    5     -1.01      0.31
  -18   12    4     -1.41     -1.80
  -18   12    3      0.25      1.15
  -18   12    2     -1.80      0.76
  -18   12    1      1.48     -2.42
   -6   18    0      0.83     -0.99
   -6   18    1     -0.05     -0.81
   -6   18    2     -0.04     -0.75
   -6   18    3     -0.36      0.76
   -6   18    4     -1.44     -0.21
  -19   12    2     -0.23      2.72
  -19   12    1      1.60     -0.96
   -7   19    0      0.94     -0.94
   -7   19    1     -1.37     -0.40
  -13   20    2      1.68     -0.54
    6   13    2      0.80     -0.15
    6   13    1      0.18     -0.71
  -13   19    0      0.62     -0.16
  -13   19    1     -0.20      0.09
  -13   19    2      0.43      0.59
  -13   19    3      1.50     -0.77
    5   13    4     -0.58     -0.36
    5   13    3      0.08      1.01
    5   13    2      0.52      0.60
    5   13    1     -0.72     -0.09
  -13   18    0     -0.72      0.14
  -13   18    1      0.68     -0.29
  -13   18    2      0.16      0.57
  -13   18    3      2.21     -0.57
  -13   18    4     -0.27     -0.04
  -13   18    5      0.04     -0.50
    4   13    6     -0.85      0.83
    4   13    5      0.22      1.47
    4   13    4     -0.96     -1.21
    4   13    3     -0.26      0.91
    4   13    2      0.46      0.81
    4   13    1     -0.21      1.26
  -13   17    0     -1.37      1.01
  -13   17    1     -0.65     -0.39
  -13   17    2      0.26     -0.70
  -13   17    3     -0.59      0.69
  -13   17    4     -1.23      1.49
  -13   17    5     -0.49      0.72
  -13   17    6     -0.48      0.68
    3   13    7      0.30     -0.74
    3   13    6     -0.70     -0.04
    3   13    5      0.77     -0.92
    3   13    4     -0.13     -0.58
    3   13    3      1.09      0.77
    3   13    2      0.19      1.63
    3   13    1      0.32      0.54
  -13   16    0     -0.04      0.28
  -13   16    1     -0.26      0.77
  -13   16    2     -1.18     -0.15
  -13   16    3      0.02      0.21
  -13   16    4      0.33      1.56
  -13   16    5      0.09     -0.28
  -13   16    6     -0.14      1.21
    2   13    8     -0.36     -1.67
    2   13    7      2.46     -1.31
    2   13    6     -1.55      0.05
    2   13    5      0.27     -0.65
    2   13    4      1.21     -0.71
    2   13    3      0.30      0.00
    2   13    2     -0.70      2.02
    2   13    1     -1.47     -0.29
  -13   15    0      1.01     -1.36
  -13   15    1     -0.20     -0.12
  -13   15    2     -0.26     -0.71
  -13   15    3      0.14     -0.89
  -13   15    4     -0.47      0.55
  -13   15    5      0.27     -1.19
    1   13    9      0.95      0.53
    1   13    8      0.99     -1.19
    1   13    7      0.51      0.51
    1   13    6     -0.97      0.11
    1   13    5     -1.12     -0.24
    1   13    4      0.23     -0.41
    1   13    3      2.00      0.60
    1   13    2      0.63      1.08
    1   13    1     -2.09     -0.74
  -13   14    0      0.26     -1.59
  -13   14    1     -0.46      0.03
  -13   14    2      0.67     -0.13
  -13   14    3     -0.02      0.78
  -13   14    4     -0.42      1.32
  -13   14    5      1.18     -0.14
  -13   14    6      0.42     -0.52
  -13   14    7      0.24     -0.90
  -13   14    8     -2.26     -1.16
    0   13    9      0.43      0.07
    0   13    8      0.00     -0.54
    0   13    7     -2.29     -0.51
    0   13    6     -0.55     -0.30
    0   13    5      0.95     -0.32
    0   13    4      0.34      1.55
    0   13    3      0.19     -0.31
    0   13    2     -1.43      2.26
    0   13    1     -0.92     -1.19
    0   13    0     -0.14     -0.57
  -13   13    1      0.34      0.48
  -13   13    2      0.60     -0.16
  -13   13    3      0.45     -0.24
  -13   13    4     -0.78      0.63
  -13   13    5      0.14      0.95
  -13   13    6      0.09      0.73
  -13   13    7     -0.63      1.10
  -13   13    8     -2.75      2.14
   -1   13    7      0.71     -1.11
   -1   13    6      0.80     -0.01
   -2   13    8     -0.49     -0.05
   -2   13    7      2.95      0.97
   -2   13    6      2.78      0.88
   -3   13    9      0.12      0.20
   -3   13    8     -0.31      0.08
   -3   13    7     -0.61      0.45
   -3   13    6     -0.49      0.61
   -4   13    9      0.67      0.08
   -4   13    8     -1.10     -0.52
   -4   13    7     -0.96      0.06
   -4   13    6     -0.74     -0.42
   -5   13   10      0.60     -0.55
   -5   13    9      0.51     -1.13
   -5   13    8      0.53     -1.51
   -5   13    7     -1.08     -0.57
  -13    8   11      1.31     -2.14
   -6   13   10      1.84      0.82
   -6   13    9     -0.18     -0.11
   -6   13    8      3.42     -1.95
   -6   13    7     -1.05     -1.30
  -13    7   11     -1.53     -2.79
   -7   13   10      0.52      0.01
   -7   13    9     -2.88     -1.73
   -7   13    8      0.01     -0.09
   -7   13    7      1.05     -0.12
    6    7   11     -0.96      0.02
   -8   13    9      0.46     -1.23
   -8   13    8      0.51     -1.06
   -8   13    7      0.73     -0.76
    5    8   11      0.01      0.42
   -9   13    9     -0.71      0.68
   -9   13    8     -0.46     -0.07
   -9   13    7     -0.27      0.91
    4    9   10     -0.49     -0.35
  -10   13    9     -2.08      1.16
  -10   13    8      0.79     -0.15
  -10   13    7      0.03     -1.52
  -11   13    9     -0.72     -0.67
  -11   13    8      0.53      0.26
  -11   13    7      0.16      0.77
  -11   13    6      1.96      0.86
  -12   13    9      1.33     -0.63
  -12   13    8      0.02      0.41
  -12   13    7      0.38      2.75
  -12   13    6     -0.23      1.39
  -13   13    9     -1.61      2.38
  -14   13    9      0.29      0.44
  -14   13    8     -1.07     -1.31
  -14   13    7     -0.63     -2.96
  -14   13    6      1.33     -0.33
  -14   13    5      0.68      0.83
  -14   13    4     -0.39     -0.29
  -14   13    3     -0.90      0.95
  -14   13    2     -0.21      2.52
  -14   13    1     -0.26      1.32
   -1   14    0     -1.49     -0.20
   -1   14    1     -1.49     -0.28
   -1   14    2      0.99      2.28
   -1   14    3     -0.35      0.64
   -1   14    4      0.12      1.44
   -1   14    5      3.28     -1.59
   -1   14    8     -0.17      0.88
   -1   14    9      0.00     -0.18
  -15   13    8     -0.81     -1.77
  -15   13    7      0.60     -0.73
  -15   13    6      1.94      0.35
  -15   13    5      0.42     -0.54
  -15   13    4      0.45     -0.01
  -15   13    3     -2.00     -0.23
  -15   13    2     -1.78     -0.68
  -15   13    1     -0.20     -2.04
   -2   15    0     -0.24     -0.70
   -2   15    1     -0.54      1.38
   -2   15    2      2.95     -0.57
   -2   15    3      0.42     -0.46
   -2   15    4     -0.09     -0.16
   -2   15    5     -0.12     -0.65
  -16   13    8      1.57     -1.49
  -16   13    7      1.52     -0.01
  -16   13    6      1.14      2.08
  -16   13    5      0.55     -3.51
  -16   13    4      0.68      1.55
  -16   13    3      0.75      0.76
  -16   13    2     -2.21      0.59
  -16   13    1      0.22     -0.48
   -3   16    0     -0.49     -1.65
   -3   16    1      1.65      0.86
   -3   16    2      0.63      0.85
   -3   16    3      0.02     -0.38
   -3   16    4      0.13     -1.12
   -3   16    5     -0.81     -0.70
  -17   13    6      0.58      1.82
  -17   13    5      0.23     -3.00
  -17   13    4     -0.88     -1.06
  -17   13    3      1.29      0.82
  -17   13    2     -1.83      3.34
  -17   13    1      3.06      2.00
   -4   17    0     -0.88      1.07
   -4   17    1     -0.30     -0.83
   -4   17    2     -0.75      1.00
   -4   17    3      0.75      0.87
   -4   17    4      0.48      0.09
   -4   17    5     -0.38     -0.95
  -18   13    4     -0.57     -0.65
  -18   13    3     -0.32     -1.00
  -18   13    2     -7.95     -3.04
  -18   13    1      0.44      1.05
   -5   18    0      0.31     -0.63
   -5   18    1      0.28     -0.89
   -5   18    2     -0.36      0.12
   -5   18    3      0.47      1.07
  -19   13    1      3.24     -1.22
   -6   19    0     -0.97     -0.02
    5   14    2      0.49     -0.05
    5   14    1      0.23     -1.21
  -14   19    0     -0.07      0.22
  -14   19    1     -1.49      0.31
  -14   19    2     -0.24     -1.21
  -14   19    3      2.97     -2.95
    4   14    4     -0.34     -3.92
    4   14    3     -0.29     -0.48
    4   14    2      0.20      0.38
    4   14    1      1.25      0.37
  -14   18    0      0.57      0.47
  -14   18    1      0.10      1.38
  -14   18    2     -0.77      0.77
  -14   18    3      0.10     -1.03
  -14   18    4      0.42      0.19
  -14   18    5      0.44      0.40
    3   14    6      0.30     -0.84
    3   14    5     -0.02      1.29
    3   14    4      0.41     -0.37
    3   14    3      1.95      0.91
    3   14    2     -0.16      0.32
    3   14    1      0.79      0.69
  -14   17    0     -0.27     -0.26
  -14   17    1      0.38     -0.25
  -14   17    2     -0.42     -0.11
  -14   17    3     -0.37     -0.73
  -14   17    4      0.70     -0.24
  -14   17    5     -0.15      0.10
    2   14    7      1.39     -1.31
    2   14    6     -1.10     -0.37
    2   14    5      0.00      0.19
    2   14    4     -0.33      0.08
    2   14    3     -0.62      0.23
    2   14    2      0.91      2.22
    2   14    1      0.75     -0.86
  -14   16    0      1.11      0.26
  -14   16    1     -0.82     -0.30
  -14   16    2     -0.92     -1.35
  -14   16    3      0.09     -1.11
  -14   16    4     -1.42      0.25
  -14   16    5     -0.96     -0.22
  -14   16    6     -0.31      1.39
    1   14    8     -0.54     -1.43
    1   14    7      0.02     -0.66
    1   14    6     -3.65     -1.25
    1   14    5     -0.06     -0.90
    1   14    4      0.39     -1.34
    1   14    3     -0.28      0.35
    1   14    2      0.72      1.20
    1   14    1     -1.17     -0.15
  -14   15    0      0.78     -0.33
  -14   15    1     -0.79     -1.08
  -14   15    2      0.28     -0.98
  -14   15    3     -0.36     -0.90
  -14   15    4     -0.28      0.47
  -14   15    5     -1.01     -0.52
  -14   15    6      0.63      1.16
    0   14    8      0.08     -0.26
    0   14    7     -1.40     -0.35
    0   14    6     -1.11     -3.61
    0   14    5      0.11     -1.04
    0   14    4      0.61      0.29
    0   14    3      1.61     -0.38
    0   14    2      0.65      0.43
    0   14    1     -0.97     -0.51
    0   14    0     -0.65     -0.05
  -14   14    1     -0.75      0.13
  -14   14    2     -0.53      0.19
  -14   14    3     -0.83      0.47
  -14   14    4      0.05      0.41
  -14   14    5      0.35     -0.21
  -14   14    6      3.80      1.21
  -14   14    7      1.14     -1.41
   -1   14    7     -1.90     -0.02
   -1   14    6      1.52     -1.03
   -2   14    8      0.49      0.02
   -2   14    7      1.57      0.33
   -2   14    6     -0.68     -0.01
   -3   14    9     -0.17     -0.06
   -3   14    8      0.41     -0.06
   -3   14    7      1.48      0.14
   -3   14    6     -0.60     -0.09
   -4   14    9     -0.02     -0.16
   -4   14    8     -0.19     -0.31
   -4   14    7     -0.96     -0.55
   -4   14    6     -0.85      1.05
   -5   14    9      0.02      0.08
   -5   14    8      0.29      0.20
   -5   14    7      0.11      0.23
   -6   14    9      0.02      0.01
   -6   14    8      0.59     -0.86
   -6   14    7     -0.36     -0.27
   -7   14    9     -0.71     -0.52
   -7   14    8      0.54     -0.62
   -7   14    7      1.40     -0.21
   -8   14    9     -0.26      0.09
   -8   14    8      0.63     -0.09
   -8   14    7      1.38     -0.52
   -9   14    9      0.34      0.12
   -9   14    8     -0.92     -0.24
   -9   14    7     -1.24      0.33
    5    9   10      0.02     -0.06
  -10   14    9     -1.72      0.43
  -10   14    8     -0.19      0.21
  -10   14    7     -0.12     -0.82
    4   10   10      0.22      0.09
  -11   14    8      1.35     -0.16
  -11   14    7     -0.48     -0.95
  -12   14    8     -0.73      1.60
  -12   14    7     -0.41      0.80
  -12   14    6     -0.69     -0.45
  -13   14    9      0.66     -3.16
  -14   14    9      4.43      3.76
  -14   14    8      1.19      1.91
  -15   14    8     -1.38      1.11
  -15   14    7     -0.60     -1.39
  -15   14    6      1.12      0.90
  -15   14    5     -0.15      0.92
  -15   14    4      1.02      0.27
  -15   14    3      0.18      0.42
  -15   14    2     -0.22      0.73
  -15   14    1     -0.75     -0.14
   -1   15    0      0.26     -0.29
   -1   15    1     -1.74      0.77
   -1   15    2      0.10     -0.36
   -1   15    3     -0.66     -1.34
   -1   15    4      1.24     -0.22
  -16   14    7      0.16     -1.23
  -16   14    6     -0.50     -0.24
  -16   14    5      0.87     -0.75
  -16   14    4     -0.73      0.91
  -16   14    3     -0.84      0.57
  -16   14    2     -1.16      0.35
  -16   14    1      0.06      0.47
   -2   16    0      2.95     -1.97
   -2   16    1     -1.47      1.78
   -2   16    2     -0.04     -0.64
   -2   16    3     -0.71     -0.35
   -2   16    4     -0.51      0.70
   -2   16    5     -2.01      1.32
  -17   14    5      0.47     -2.63
  -17   14    4     -1.04     -1.85
  -17   14    3      0.74      1.41
  -17   14    2     -3.16      2.47
  -17   14    1     -1.06      1.13
   -3   17    0     -0.37     -0.04
   -3   17    1     -0.91      1.72
   -3   17    2     -0.52     -0.21
   -3   17    3      0.90     -0.12
   -3   17    4      0.64      0.07
   -3   17    5     -0.71      1.44
  -18   14    4     -0.65     -4.97
  -18   14    3      2.29     -1.29
  -18   14    2     -1.55     -1.89
  -18   14    1      0.51     -0.23
   -4   18    0     -0.18      0.59
   -4   18    1     -0.49     -0.51
   -4   18    2     -0.05      0.15
   -4   18    3      1.14      1.04
    4   15    3      0.45      1.47
    4   15    2      0.78     -0.20
    4   15    1     -0.32     -0.64
  -15   19    0      0.90     -0.59
  -15   19    1      0.33     -0.45
  -15   19    2      3.32     -0.61
    3   15    5     -0.09     -0.04
    3   15    4     -1.24     -1.88
    3   15    3     -1.73      0.40
    3   15    2     -1.11      0.51
    3   15    1      0.60      0.71
  -15   18    0      0.30     -0.07
  -15   18    1     -1.25      0.19
  -15   18    2      0.15     -0.27
  -15   18    3     -0.13     -0.58
  -15   18    4      0.83     -1.64
  -15   18    5      0.14      0.41
    2   15    6      0.27     -0.80
    2   15    5     -0.52      0.39
    2   15    4      0.19     -0.12
    2   15    3     -0.71     -0.96
    2   15    2     -0.85     -0.27
    2   15    1     -0.69      0.55
  -15   17    0      0.19      0.08
  -15   17    1     -0.58      0.67
  -15   17    2      0.09      0.18
  -15   17    3     -0.11      1.16
  -15   17    4     -0.71     -1.63
  -15   17    5     -0.29      0.59
    1   15    6     -1.79      0.54
    1   15    5      0.40     -0.61
    1   15    4     -0.94      0.29
    1   15    3     -1.26      0.27
    1   15    2      1.48     -0.16
    1   15    1     -0.28     -1.43
  -15   16    0      0.72      1.13
  -15   16    1     -0.43     -0.16
  -15   16    2      0.22     -0.66
  -15   16    3     -0.26      0.05
  -15   16    4     -0.27     -0.57
  -15   16    5     -0.41      0.30
    0   15    7     -2.04      1.10
    0   15    6     -5.29     -0.53
    0   15    5     -0.14      0.02
    0   15    4      1.03     -0.75
    0   15    3     -0.95      0.16
    0   15    2     -0.69      1.14
    0   15    1      0.84      2.28
    0   15    0      1.67      0.19
  -15   15    1      0.22     -0.08
  -15   15    2     -0.41      0.63
  -15   15    3     -0.27     -1.06
  -15   15    4      0.89     -1.00
  -15   15    5     -1.19     -1.45
  -15   15    6     -0.06      0.43
   -1   15    7     -2.72     -1.15
   -1   15    6     -1.97     -2.82
   -1   15    5     -0.38      0.42
   -2   15    7      0.18      0.22
   -2   15    6      0.69     -2.20
   -3   15    8      0.66      0.12
   -3   15    7      3.39      1.55
   -3   15    6     -1.26     -0.41
   -4   15    8     -0.47      0.11
   -4   15    7      1.11      0.49
   -4   15    6      0.36      1.81
   -5   15    8     -0.19      0.00
   -5   15    7      0.00     -0.54
   -6   15    9      0.02     -0.32
   -6   15    8     -0.22     -0.15
   -6   15    7      1.30      0.45
   -7   15    9      0.77     -0.32
   -7   15    8     -0.69     -0.24
   -7   15    7      0.87      0.62
   -8   15    9      0.59      0.21
   -8   15    8      0.71     -0.09
   -8   15    7      1.40     -0.63
   -9   15    8     -0.65     -0.34
   -9   15    7      0.54      0.10
  -10   15    8     -0.14      0.45
  -10   15    7      0.49      0.36
    5   10    9     -0.12      0.37
  -11   15    8      0.18     -0.03
  -11   15    7      0.09      0.15
    4   11    9     -0.37     -1.10
  -12   15    8     -0.48     -0.89
  -12   15    7     -0.14      0.55
    3   12    9     -0.07     -0.35
  -13   15    7      1.13      0.26
  -13   15    6     -0.84      0.37
  -14   15    8     -2.90      2.99
  -14   15    7     -0.05     -0.01
  -15   15    7     -0.78     -1.85
  -16   15    6     -0.46      0.20
  -16   15    5      1.62     -0.79
  -16   15    4     -1.33     -0.39
  -16   15    3     -0.56     -2.14
  -16   15    2      0.10     -0.16
  -16   15    1     -1.74      1.18
   -1   16    0      0.42     -2.07
   -1   16    1      0.01      0.32
   -1   16    2      0.13      1.16
   -1   16    3      0.25      0.57
   -1   16    4      1.06      1.02
  -17   15    5      0.48      0.52
  -17   15    4     -0.89      0.99
  -17   15    3      0.21     -1.91
  -17   15    2      0.00     -1.00
  -17   15    1     -0.03     -0.93
   -2   17    0      0.90     -0.59
   -2   17    1     -1.15      1.62
   -2   17    2     -0.62     -0.04
   -2   17    3     -0.66     -0.37
   -2   17    4      0.15     -0.30
  -18   15    3      1.67      1.37
  -18   15    2      0.06      1.80
  -18   15    1     -0.20     -0.03
   -3   18    0      0.39     -1.34
   -3   18    1      0.21      1.05
   -3   18    2      0.22     -0.40
  -16   19    0      0.70      0.14
  -16   19    1     -0.72      0.29
    2   16    3     -1.35      1.26
    2   16    2     -0.21      0.65
    2   16    1      1.08      0.52
  -16   18    0     -0.27      0.78
  -16   18    1     -0.91      0.30
  -16   18    2      0.74     -0.52
  -16   18    3      1.86      1.19
  -16   18    4     -0.19      0.33
    1   16    4     -1.06      1.15
    1   16    3     -1.28     -0.27
    1   16    2     -0.94     -0.37
    1   16    1     -0.04      0.63
  -16   17    0      0.53     -0.06
  -16   17    1      0.05     -0.32
  -16   17    2      0.38     -1.00
  -16   17    3     -0.51      0.65
  -16   17    4      0.24     -0.44
    0   16    5     -0.19     -1.91
    0   16    4     -1.16      1.25
    0   16    3      0.59     -1.05
    0   16    2     -0.83     -0.78
    0   16    1     -0.68      0.41
    0   16    0     -0.31      2.03
  -16   16    1     -0.87     -0.91
  -16   16    2     -0.60     -0.78
  -16   16    3     -0.81     -1.27
  -16   16    4     -1.48      1.00
   -1   16    6     -1.45      1.03
   -1   16    5      0.79      0.08
   -2   16    6      1.12     -0.13
   -3   16    6      0.26      0.31
   -4   16    7      0.81      0.24
   -4   16    6      0.55      1.91
   -5   16    7      0.34      0.22
   -6   16    8      0.02     -0.03
   -6   16    7     -0.27      0.35
   -7   16    8     -0.47      0.03
   -7   16    7     -0.01      0.50
   -8   16    8      0.70     -0.17
   -8   16    7     -1.00     -0.68
   -9   16    8      0.09      0.47
   -9   16    7     -0.27      0.05
  -10   16    8     -1.05      0.00
  -10   16    7     -0.09      0.83
  -11   16    8      0.78      0.15
  -11   16    7      0.14      0.44
    5   11    8      0.43      0.20
  -12   16    7      0.66      0.72
    4   12    8      2.40      0.30
  -13   16    7      0.41      1.29
  -15   16    6      0.09      1.15
  -16   16    6     -0.88      0.63
  -16   16    5      0.77     -0.13
  -17   16    5     -0.50      0.28
  -17   16    4     -4.49      1.84
  -17   16    3      0.56     -2.50
  -17   16    2      0.78     -0.70
  -17   16    1      0.14      1.33
   -1   17    0      0.47     -0.33
   -1   17    1      0.44      0.16
   -1   17    2     -0.22      1.79
   -1   17    3      0.24      1.01
  -18   16    2     -1.44      0.27
  -18   16    1     -0.30     -0.23
   -2   18    0     -0.91     -0.53
   -2   18    1     -0.46     -0.46
    1   17    2     -0.50     -2.02
    1   17    1      0.41     -0.51
  -17   18    0      0.34      0.58
  -17   18    1      0.28     -0.44
  -17   18    2      0.36      0.01
    0   17    4     -0.16      0.05
    0   17    3      1.91     -0.87
    0   17    2      0.30     -0.06
    0   17    1      1.08      0.37
    0   17    0      0.70      0.55
  -17   17    1     -0.78      0.48
  -17   17    2     -0.16     -0.12
   -1   17    5      2.23     -1.98
   -1   17    4     -0.85      1.28
   -2   17    6      0.77      2.40
   -2   17    5      1.60     -0.05
   -3   17    6      0.12      1.36
   -5   17    6      1.68      1.29
   -7   17    7      0.03     -0.03
   -8   17    7     -0.33      0.00
   -9   17    7     -2.93     -0.52
  -10   17    8      0.11      0.50
  -10   17    7     -0.27     -0.36
    7   10    7     -2.58      2.15
  -11   17    8     -1.11      1.58
  -11   17    7     -0.67      1.69
  -16   17    5      1.74     -0.19
  -17   17    4     -0.58      1.17
  -17   17    3      0.55     -1.15
   -1   18    1      0.27     -0.36
   -1   18    0      0.19      0.11
   -2   18    2      0.01     -1.87
   -5   18    4      0.27      0.45
   -6   18    5     -0.61      1.44
   -7   18    5      0.08     -1.01
   -8   18    6     -0.50     -0.60
   -9   18    6      0.92     -0.55
  -10   18    6      0.15      0.61
  -11   18    7     -0.11     -0.38
  -11   18    6     -0.79     -0.06
   -3   19    2     -0.61     -0.77
   -3   19    1     -0.68      0.15
   -4   19    2      0.05      0.14
   -4   19    1     -0.63     -0.60
   -4   19    0      0.50     -0.62
   -5   19    1     -0.82     -0.39
   -5   19    0      0.14     -0.10
  -19   14    1      1.09      1.38
   -6   19    1     -1.00     -0.63
   -9   19    5      2.04      4.34
  -10   19    5      0.72      0.81
  -10   19    3     -0.73     -0.63
    7   12    3     -0.48      0.44
    6   13    3      1.10      2.17
    6   13    4     -0.29      0.59
    5   14    3      0.25      1.16
    0    1    0     59.35     38.23
    0    0    0      0.00      0.00
# SQUEEZE RESULTS
# Note: Data are Listed for all Voids in the P1 Unit Cell
# i.e. Centre of Gravity, Solvent Accessible Volume,
# Recovered number of Electrons in the Void and
# Details about the Squeezed Material
loop_
  _platon_squeeze_void_nr
  _platon_squeeze_void_average_x
  _platon_squeeze_void_average_y
  _platon_squeeze_void_average_z
  _platon_squeeze_void_volume
  _platon_squeeze_void_count_electrons
  _platon_squeeze_void_content
   1 -0.002 -0.001 -0.014       887       277 ' '
# Missing Reflections Below sin(th)/lambda= 0.25
loop_
  _platon_missing_refln_index_h
  _platon_missing_refln_index_k
  _platon_missing_refln_index_l
  _platon_missing_refln_theta
    0    1    0     1.735
_platon_squeeze_void_probe_radius                  1.20
_platon_squeeze_details
)
TITL 1 in space group P3
CELL   13.5493   13.5493    9.4840     90.00     90.00    120.00
SPGR P3
# Solvent Accessible Volume =     897.2
# Electrons Found in S.A.V. =     271.2
# Note: Atoms in Void as Cxxx and Qxxx all others
C101 0.628 0.266 0.056 !       3.50 eA-3
C102 0.660 0.315 0.097 !       2.75 eA-3
C103 0.999 1.002 0.188 !       2.59 eA-3
C104 0.326 0.996 0.316 !       2.27 eA-3
C105 0.729 0.095 0.879 !       2.23 eA-3
C106 0.744 0.998 0.876 !       2.23 eA-3
C107 0.497 0.331 0.985 !       2.21 eA-3
Q108 0.658 0.886 0.884 !       2.21 eA-3
C109 0.834 0.503 0.964 !       2.21 eA-3
C110 0.895 0.289 0.182 !       2.20 eA-3
C111 0.597 0.613 0.177 !       2.07 eA-3
C112 0.898 0.264 0.236 !       2.05 eA-3
C113 0.767 0.764 0.215 !       2.00 eA-3
C114 0.750 0.056 0.777 !       1.95 eA-3
C115 0.892 0.609 0.914 !       1.91 eA-3
C116 0.190 0.049 0.182 !       1.87 eA-3
C117 0.871 0.060 0.900 !       1.87 eA-3
C118 0.585 0.587 0.225 !       1.80 eA-3
C119 0.254 0.321 0.710 !       1.80 eA-3
C120 0.292 0.968 0.414 !       1.77 eA-3
C121 0.505 0.164 0.181 !       1.75 eA-3
C122 0.999 1.003 0.907 !       1.74 eA-3
C123 0.628 0.715 0.290 !       1.74 eA-3
C124 0.266 0.300 0.819 !       1.72 eA-3
C125 0.147 0.198 0.898 !       1.71 eA-3
C126 0.223 0.215 0.649 !       1.71 eA-3
C127 0.783 0.997 0.661 !       1.70 eA-3
C128 0.759 0.732 0.405 !       1.70 eA-3
C129 0.871 0.095 0.526 !       1.66 eA-3
C130 0.046 0.787 0.631 !       1.64 eA-3
C131 0.044 0.194 0.223 !       1.62 eA-3
C132 0.652 0.535 0.177 !       1.57 eA-3
C133 1.001 0.996 0.594 !       1.56 eA-3
C134 0.102 0.874 0.523 !       1.56 eA-3
C135 0.175 0.232 0.863 !       1.55 eA-3
C136 0.250 0.930 0.412 !       1.55 eA-3
C137 0.700 0.771 0.360 !       1.51 eA-3
C138 0.028 0.112 0.225 !       1.51 eA-3
C139 0.691 0.021 0.746 !       1.48 eA-3
C140 0.860 0.786 0.624 !       1.48 eA-3
C141 0.925 0.026 0.938 !       1.45 eA-3
C142 0.327 0.245 0.845 !       1.45 eA-3
C143 0.208 0.298 0.809 !       1.44 eA-3
C144 0.262 0.150 0.604 !       1.40 eA-3
C145 1.004 0.728 0.718 !       1.39 eA-3
C146 0.107 0.842 0.714 !       1.39 eA-3
C147 1.005 0.120 0.285 !       1.39 eA-3
C148 0.328 0.056 0.400 !       1.39 eA-3
C149 0.218 0.208 0.826 !       1.38 eA-3
Q150 0.664 0.335 0.499 !       1.36 eA-3
C151 0.066 0.104 0.901 !       1.35 eA-3
C152 0.970 0.050 0.153 !       1.32 eA-3
C153 0.402 0.075 0.283 !       1.29 eA-3
C154 0.985 0.951 0.941 !       1.29 eA-3
C155 0.141 0.130 0.470 !       1.29 eA-3
C156 0.097 0.270 0.403 !       1.28 eA-3
C157 0.843 0.860 0.328 !       1.27 eA-3
Q158 0.639 0.253 0.914 !       1.27 eA-3
C159 0.190 0.280 0.750 !       1.24 eA-3
C160 0.848 0.949 0.711 !       1.24 eA-3
Q161 0.906 0.502 0.004 !       1.24 eA-3
Q162 0.693 0.313 0.901 !       1.24 eA-3
C163 0.764 0.463 0.060 !       1.23 eA-3
C164 0.933 0.709 0.696 !       1.22 eA-3
C165 0.223 0.953 0.496 !       1.22 eA-3
C166 0.985 0.784 0.722 !       1.22 eA-3
C167 0.129 0.017 0.181 !       1.21 eA-3
C168 0.627 0.539 0.239 !       1.20 eA-3
C169 0.096 0.286 0.280 !       1.20 eA-3
C170 0.158 0.892 0.459 !       1.19 eA-3
Q171 0.337 0.673 0.514 !       1.19 eA-3
Q172 0.671 0.338 0.606 !       1.17 eA-3
C173 0.341 0.025 0.446 !       1.17 eA-3
C174 0.605 0.286 0.185 !       1.16 eA-3
C175 0.530 0.215 0.083 !       1.15 eA-3
C176 0.703 0.789 0.283 !       1.15 eA-3
C177 0.903 0.844 0.665 !       1.15 eA-3
C178 0.826 0.878 0.157 !       1.13 eA-3
Q179 0.654 0.883 0.966 !       1.13 eA-3
C180 0.983 0.169 0.372 !       1.11 eA-3
C181 0.209 0.991 0.414 !       1.11 eA-3
Q182 0.451 0.985 0.130 !       1.10 eA-3
C183 0.257 0.894 0.395 !       1.09 eA-3
C184 0.204 0.017 0.461 !       1.08 eA-3
Q185 0.124 0.445 0.185 !       1.08 eA-3
Q186 0.732 0.518 0.218 !       1.08 eA-3
Q187 0.717 0.265 0.910 !       1.07 eA-3
C188 0.800 0.860 0.458 !       1.07 eA-3
Q189 0.669 0.010 0.911 !       1.06 eA-3
Q190 0.807 0.426 0.913 !       1.06 eA-3
Q191 0.334 0.666 0.610 !       1.06 eA-3
C192 0.740 0.263 0.090 !       1.05 eA-3
Q193 0.636 0.423 0.880 !       1.04 eA-3
C194 0.942 0.811 0.586 !       1.03 eA-3
C195 0.891 0.280 0.378 !       1.02 eA-3
C196 0.150 0.212 0.803 !       1.01 eA-3
C197 0.873 0.727 0.481 !       1.01 eA-3
C198 0.549 0.379 0.022 !       1.00 eA-3
C199 0.999 0.998 0.408 !       0.99 eA-3
)
;
_shelx_fab_checksum              48957
loop_
_space_group_symop_operation_xyz
'x, y, z'
'-y, x-y, z'
'-x+y, -x, z'
loop_
_atom_site_label
_atom_site_type_symbol
_atom_site_fract_x
_atom_site_fract_y
_atom_site_fract_z
_atom_site_U_iso_or_equiv
_atom_site_adp_type
_atom_site_occupancy
_atom_site_site_symmetry_order
_atom_site_calc_flag
_atom_site_refinement_flags_posn
_atom_site_refinement_flags_adp
_atom_site_refinement_flags_occupancy
C1 C 0.1094(9) 0.5217(7) 0.6346(11) 0.073(3) Uani 1 1 d . . .
C2 C 0.1041(7) 0.5803(7) 0.5098(13) 0.075(4) Uani 1 1 d . . .
C3 C 0.0016(8) 0.5662(10) 0.4360(14) 0.098(4) Uani 1 1 d . . .
C4 C -0.1004(7) 0.4795(7) 0.5034(13) 0.072(3) Uani 1 1 d . . .
C5 C -0.1005(9) 0.4177(8) 0.6391(12) 0.080(3) Uani 1 1 d . . .
C6 C 0.0021(8) 0.4450(8) 0.6896(11) 0.071(3) Uani 1 1 d . . .
N1 N -0.0011(8) 0.3353(11) 0.8944(14) 0.148(6) Uani 1 1 d D . .
C7 C -0.0001(7) 0.3795(7) 0.8273(11) 0.054(3) Uani 1 1 d D . .
O1 O 0.2047(6) 0.5534(5) 0.6704(7) 0.072(2) Uani 1 1 d . . .
O2 O 0.2008(5) 0.6554(6) 0.4363(9) 0.086(2) Uani 1 1 d . . .
O3 O -0.1987(5) 0.4539(6) 0.4346(9) 0.094(3) Uani 1 1 d . . .
O4 O -0.2014(6) 0.3513(5) 0.6718(8) 0.085(2) Uani 1 1 d . . .
Cl1 Cl 0.0002(3) 0.6282(4) 0.2841(6) 0.168(2) Uani 1 1 d . . .
Fe1 Fe 0.3333 0.6667 0.5632(3) 0.0875(10) Uani 1 3 d S T P
Fe2 Fe -0.3333 0.3333 0.5624(3) 0.0873(11) Uani 1 3 d S T P
C8 C 0.3333 0.6667 0.0484 0.381 Uiso 1 3 d S . P
N2 N 0.2158 0.6179 0.0646 0.567 Uiso 1 1 d . . .
H2 H 0.1810 0.5475 0.0898 0.680 Uiso 1 1 d . U .
N3 N 0.1374 0.6702 0.0446 0.685 Uiso 1 1 d . . .
H3A H 0.1662 0.7403 0.0194 0.822 Uiso 1 1 d . U .
H3B H 0.0652 0.6291 0.0586 0.822 Uiso 1 1 d . U .
loop_
_atom_site_aniso_label
_atom_site_aniso_U_11
_atom_site_aniso_U_22
_atom_site_aniso_U_33
_atom_site_aniso_U_23
_atom_site_aniso_U_13
_atom_site_aniso_U_12
C1 0.083(7) 0.046(5) 0.088(8) -0.001(5) -0.016(6) 0.031(5)
C2 0.046(5) 0.036(4) 0.151(11) -0.019(6) -0.011(6) 0.025(4)
C3 0.044(6) 0.085(8) 0.151(12) -0.019(8) 0.016(7) 0.023(5)
C4 0.039(4) 0.037(4) 0.148(10) 0.011(5) 0.014(6) 0.026(3)
C5 0.061(6) 0.050(5) 0.128(10) 0.024(6) 0.000(7) 0.028(4)
C6 0.054(5) 0.042(5) 0.111(9) 0.010(5) -0.012(6) 0.020(4)
N1 0.046(6) 0.185(14) 0.163(14) 0.012(9) -0.002(7) 0.020(7)
C7 0.020(3) 0.036(4) 0.097(8) 0.043(4) 0.001(4) 0.007(3)
O1 0.067(4) 0.063(4) 0.091(5) 0.016(4) -0.014(4) 0.036(3)
O2 0.040(3) 0.066(4) 0.151(7) -0.002(4) 0.014(4) 0.027(3)
O3 0.039(4) 0.050(4) 0.176(8) 0.007(4) -0.004(5) 0.010(3)
O4 0.059(4) 0.053(4) 0.143(7) 0.040(4) 0.019(4) 0.029(3)
Cl1 0.096(3) 0.154(3) 0.235(6) 0.083(4) 0.008(3) 0.050(2)
Fe1 0.0566(11) 0.0566(11) 0.149(3) 0.000 0.000 0.0283(5)
Fe2 0.0586(11) 0.0586(11) 0.145(3) 0.000 0.000 0.0293(5)
loop_
_atom_type_symbol
_atom_type_description
_atom_type_scat_dispersion_real
_atom_type_scat_dispersion_imag
_atom_type_scat_source
C C 0.0033 0.0016 'International Tables Vol C Tables 4.2.6.8 and 6.1.1.4'
H H 0.0000 0.0000 'International Tables Vol C Tables 4.2.6.8 and 6.1.1.4'
Cl Cl 0.1484 0.1585 'International Tables Vol C Tables 4.2.6.8 and 6.1.1.4'
Fe Fe 0.3463 0.8444 'International Tables Vol C Tables 4.2.6.8 and 6.1.1.4'
N N 0.0061 0.0033 'International Tables Vol C Tables 4.2.6.8 and 6.1.1.4'
O O 0.0106 0.0060 'International Tables Vol C Tables 4.2.6.8 and 6.1.1.4'
loop_
_geom_angle_atom_site_label_1
_geom_angle_atom_site_label_2
_geom_angle_atom_site_label_3
_geom_angle
_geom_angle_site_symmetry_1
_geom_angle_site_symmetry_3
O1 C1 C6 134.4(10) . .
O1 C1 C2 112.2(9) . .
C6 C1 C2 113.2(9) . .
O2 C2 C1 121.9(9) . .
O2 C2 C3 109.9(10) . .
C1 C2 C3 128.1(9) . .
C4 C3 C2 110.6(11) . .
C4 C3 Cl1 123.0(9) . .
C2 C3 Cl1 126.0(8) . .
O3 C4 C3 114.4(10) . .
O3 C4 C5 121.9(8) . .
C3 C4 C5 123.7(9) . .
O4 C5 C6 136.6(11) . .
O4 C5 C4 107.7(9) . .
C6 C5 C4 115.6(9) . .
C5 C6 C1 128.6(10) . .
C5 C6 C7 114.7(8) . .
C1 C6 C7 116.7(8) . .
N1 C7 C6 170.8(18) . .
C1 O1 Fe1 121.4(7) . .
C2 O2 Fe1 103.1(7) . .
C4 O3 Fe2 106.2(7) . .
C5 O4 Fe2 124.0(7) . .
O1 Fe1 O1 95.0(3) . 3_565
O1 Fe1 O1 95.0(3) . 2_665
O1 Fe1 O1 95.0(3) 3_565 2_665
O1 Fe1 O2 81.1(3) . .
O1 Fe1 O2 94.0(3) 3_565 .
O1 Fe1 O2 170.5(3) 2_665 .
O1 Fe1 O2 170.5(3) . 3_565
O1 Fe1 O2 81.1(3) 3_565 3_565
O1 Fe1 O2 94.0(3) 2_665 3_565
O2 Fe1 O2 90.5(3) . 3_565
O1 Fe1 O2 94.0(3) . 2_665
O1 Fe1 O2 170.5(3) 3_565 2_665
O1 Fe1 O2 81.1(3) 2_665 2_665
O2 Fe1 O2 90.5(3) . 2_665
O2 Fe1 O2 90.5(3) 3_565 2_665
O4 Fe2 O4 94.9(3) . 3_455
O4 Fe2 O4 94.9(3) . 2_565
O4 Fe2 O4 94.9(3) 3_455 2_565
O4 Fe2 O3 95.3(3) . 3_455
O4 Fe2 O3 80.1(3) 3_455 3_455
O4 Fe2 O3 168.9(3) 2_565 3_455
O4 Fe2 O3 168.9(3) . 2_565
O4 Fe2 O3 95.3(3) 3_455 2_565
O4 Fe2 O3 80.1(3) 2_565 2_565
O3 Fe2 O3 90.5(3) 3_455 2_565
O4 Fe2 O3 80.1(3) . .
O4 Fe2 O3 168.9(3) 3_455 .
O4 Fe2 O3 95.3(3) 2_565 .
O3 Fe2 O3 90.5(3) 3_455 .
O3 Fe2 O3 90.5(3) 2_565 .
N2 C8 N2 118.8 . 3_565
N2 C8 N2 118.8 . 2_665
N2 C8 N2 118.8 3_565 2_665
C8 N2 N3 130.5 . .
C8 N2 H2 114.8 . .
N3 N2 H2 114.8 . .
N2 N3 H3A 120.0 . .
N2 N3 H3B 120.0 . .
H3A N3 H3B 120.0 . .
loop_
_geom_bond_atom_site_label_1
_geom_bond_atom_site_label_2
_geom_bond_distance
_geom_bond_site_symmetry_2
C1 O1 1.188(11) .
C1 C6 1.398(13) .
C1 C2 1.447(15) .
C2 O2 1.379(12) .
C2 C3 1.480(14) .
C3 C4 1.441(13) .
C3 Cl1 1.672(13) .
C4 O3 1.362(11) .
C4 C5 1.536(15) .
C5 O4 1.243(11) .
C5 C6 1.336(13) .
C6 C7 1.571(12) .
N1 C7 0.869(10) .
O1 Fe1 1.937(7) .
O2 Fe1 2.103(7) .
O3 Fe2 2.117(7) .
O4 Fe2 1.974(7) .
Fe1 O1 1.937(7) 3_565
Fe1 O1 1.937(7) 2_665
Fe1 O2 2.103(7) 3_565
Fe1 O2 2.103(7) 2_665
Fe2 O4 1.974(7) 3_455
Fe2 O4 1.974(7) 2_565
Fe2 O3 2.117(7) 3_455
Fe2 O3 2.117(7) 2_565
C8 N2 1.3943 .
C8 N2 1.3943 3_565
C8 N2 1.3943 2_665
N2 N3 1.5554 .
N2 H2 0.8600 .
N3 H3A 0.8600 .
N3 H3B 0.8600 .
