#------------------------------------------------------------------------------
#$Date: 2019-11-26 06:50:56 +0200 (Tue, 26 Nov 2019) $
#$Revision: 242871 $
#$URL: file:///home/coder/svn-repositories/cod/cif/4/13/30/4133018.cif $
#------------------------------------------------------------------------------
#
# This file is available in the Crystallography Open Database (COD),
# http://www.crystallography.net/
#
# All data on this site have been placed in the public domain by the
# contributors.
#
data_4133018
loop_
_publ_author_name
'Huang, Xing'
'Li, Haisheng'
'Tu, Zeyi'
'Liu, Liyao'
'Wu, Xiaoyu'
'Chen, Jie'
'Liang, Yingying'
'Zou, Ye'
'Yi, Yuanping'
'Sun, Junliang'
'Xu, Wei'
'Zhu, Daoben'
_publ_section_title
;
 Highly Conducting Neutral Coordination Polymer with Infinite
 Two-Dimensional Silver-Sulfur Networks.
;
_journal_issue                   45
_journal_name_full               'Journal of the American Chemical Society'
_journal_page_first              15153
_journal_page_last               15156
_journal_paper_doi               10.1021/jacs.8b07921
_journal_volume                  140
_journal_year                    2018
_chemical_formula_sum            'C6 Ag5 S6'
_chemical_formula_weight         803.8
_space_group_IT_number           12
_space_group_name_Hall           '-I 2y'
_space_group_name_H-M_alt        'I 1 2/m 1'
_symmetry_cell_setting           monoclinic
_symmetry_Int_Tables_number      12
_symmetry_space_group_name_Hall  '-I 2y'
_symmetry_space_group_name_H-M   'I 1 2/m 1'
_cell_angle_alpha                90
_cell_angle_beta                 110.435(3)
_cell_angle_gamma                90
_cell_formula_units_Z            2
_cell_length_a                   15.1318(15)
_cell_length_b                   9.1148(10)
_cell_length_c                   4.2826(5)
_cell_measurement_temperature    293
_cell_volume                     553.50(10)
_diffrn_ambient_temperature      293
_diffrn_measurement_device_type  'PNAalytical Empyrean'
_diffrn_radiation_probe          x-ray
_diffrn_radiation_type           CuK\a
_diffrn_radiation_wavelength     1.54051
_exptl_absorpt_coefficient_mu    81.29
_exptl_crystal_density_diffrn    4.8228
_exptl_crystal_F_000             734
_pd_instr_location               ' ?'
_pd_meas_2theta_range_inc        0.013
_pd_meas_2theta_range_max        99.985
_pd_meas_2theta_range_min        5.007
_pd_meas_number_of_points        7307
_pd_proc_2theta_range_inc        0.013
_pd_proc_2theta_range_max        99.985
_pd_proc_2theta_range_min        10.012
_pd_proc_ls_background_function  '10 Legendre polynoms'
_pd_proc_ls_pref_orient_corr     none
_pd_proc_ls_profile_function     Pseudo-Voigt
_pd_proc_ls_prof_R_factor        0.0597
_pd_proc_ls_prof_wR_expected     0.0144
_pd_proc_ls_prof_wR_factor       0.0821
_refine_ls_goodness_of_fit_all   5.71
_refine_ls_number_constraints    -1683
_refine_ls_number_parameters     45
_refine_ls_number_restraints     0
_refine_ls_R_factor_all          0.0597
_refine_ls_R_factor_gt           0.0597
_refine_ls_shift/su_max          0.0482
_refine_ls_shift/su_mean         0.0120
_refine_ls_weighting_scheme      sigma
_refine_ls_wR_factor_all         0.0813
_refine_ls_wR_factor_gt          0.0813
_cod_data_source_file            ja8b07921_si_002.cif
_cod_data_source_block           I
_cod_depositor_comments
;
The following automatic conversions were performed:

data item '_diffrn_radiation_probe' value 'X-ray' was changed to
'x-ray' in accordance with the
/home/saulius/struct/COD-crude-data/automatic-downloads/DataCite-retrospective/ACS/depositions/lib/dictionaries/cif_core.dic
dictionary named 'cif_core.dic' version 2.4.2 last updated on
2011-04-26.

Automatic conversion script
Id: cif_fix_values 6909 2019-04-08 15:41:33Z antanas 
;
_cod_original_cell_volume        553.49(10)
_cod_database_code               4133018
loop_
_space_group_symop_id
_space_group_symop_operation_xyz
1 x,y,z
2 -x,y,-z
3 -x,-y,-z
4 x,-y,z
5 x+1/2,y+1/2,z+1/2
6 -x+1/2,y+1/2,-z+1/2
7 -x+1/2,-y+1/2,-z+1/2
8 x+1/2,-y+1/2,z+1/2
loop_
_atom_site_label
_atom_site_type_symbol
_atom_site_fract_x
_atom_site_fract_y
_atom_site_fract_z
_atom_site_adp_type
_atom_site_U_iso_or_equiv
_atom_site_site_symmetry_multiplicity
_atom_site_occupancy
_atom_site_calc_flag
Ag2 Ag 0.30150(12) 0.66642(18) 0.0405(4) Uani 0.0714(12) 8 1 d
S1 S 0.4032(3) 0.7096(4) -0.2995(10) Uiso 0.0108(13) 8 1 d
C1 C 2.9616(2) 0.3945(3) 1.3721(2) Uiso 0.02 8 1 d
Ag1 Ag 0.5 0.5 0 Uani 0.025(2) 2 1 d
S2 S 0.1779(4) 0.5 0.1256(14) Uiso 0.0108(13) 4 1 d
C2 C 2.925771 0.5 1.275461 Uiso 0.02 4 1 d
loop_
_atom_site_aniso_label
_atom_site_aniso_type_symbol
_atom_site_aniso_U_11
_atom_site_aniso_U_22
_atom_site_aniso_U_33
_atom_site_aniso_U_12
_atom_site_aniso_U_13
_atom_site_aniso_U_23
Ag2 Ag 0.0571(18) 0.0995(18) 0.0545(18) -0.0184(17) 0.0154(12) 0.025(2)
Ag1 Ag 0.021(3) 0.018(3) 0.038(3) 0 0.011(2) 0
loop_
_atom_type_symbol
_atom_type_scat_dispersion_real
_atom_type_scat_dispersion_imag
_atom_type_scat_source
C 0.0191 0.0095 'International Tables Vol C tables 4.2.6.8 and 6.1.1.1'
Ag 0.1273 4.3223 'International Tables Vol C tables 4.2.6.8 and 6.1.1.1'
S 0.3357 0.5642 'International Tables Vol C tables 4.2.6.8 and 6.1.1.1'
loop_
_geom_angle_atom_site_label_1
_geom_angle_atom_site_label_2
_geom_angle_atom_site_label_3
_geom_angle_site_symmetry_1
_geom_angle_site_symmetry_3
_geom_angle
Ag2 Ag2 S1 7_564 . 70.65(11)
Ag2 Ag2 S2 7_564 . 103.78(14)
S1 Ag2 S2 . . 144.78(15)
Ag2 S1 Ag1 . . 87.00(16)
S1 Ag1 S1 . 2_655 78.98(13)
S1 Ag1 S1 . 3_665 180.0(5)
S1 Ag1 S1 . 4_565 101.02(13)
S1 Ag1 S1 2_655 3_665 101.02(13)
S1 Ag1 S1 2_655 4_565 180.0(5)
S1 Ag1 S1 3_665 4_565 78.98(13)
Ag2 S2 Ag2 . 4_565 73.6(3)
C1 C2 C1 . 4_565 119.98(17)
loop_
_geom_bond_atom_site_label_1
_geom_bond_atom_site_label_2
_geom_bond_site_symmetry_2
_geom_bond_distance
Ag2 Ag2 7_564 2.869(2)
Ag2 S1 . 2.492(5)
Ag2 S2 . 2.536(8)
S1 Ag1 . 2.476(4)
loop_
_pd_proc_point_id
_pd_proc_2theta_corrected
_pd_proc_intensity_net
_pd_calc_intensity_net
_pd_proc_ls_weight
1 9.9640 2529.32 2430.35 25.15
2 9.9770 2520.56 2427.48 25.10
3 9.9900 2500.33 2424.63 25.00
4 10.0030 2514.56 2421.81 25.07
5 10.0160 2536.50 2419.00 25.18
6 10.0290 2465.83 2416.21 24.83
7 10.0420 2491.03 2413.45 24.96
8 10.0550 2457.11 2410.71 24.78
9 10.0680 2475.60 2408.00 24.88
10 10.0810 2439.19 2405.31 24.69
11 10.0940 2468.92 2402.65 24.84
12 10.1070 2449.28 2400.01 24.75
13 10.1200 2501.92 2397.40 25.01
14 10.1330 2450.11 2394.82 24.75
15 10.1460 2446.70 2392.26 24.73
16 10.1590 2434.56 2389.74 24.67
17 10.1720 2465.75 2387.24 24.83
18 10.1850 2415.47 2384.78 24.57
19 10.1980 2433.04 2382.35 24.66
20 10.2110 2453.34 2379.95 24.77
21 10.2240 2436.59 2377.58 24.68
22 10.2370 2417.08 2375.25 24.58
23 10.2500 2430.70 2372.95 24.65
24 10.2630 2425.08 2370.69 24.62
25 10.2760 2413.70 2368.47 24.56
26 10.2890 2410.45 2366.29 24.55
27 10.3020 2412.11 2364.15 24.56
28 10.3150 2389.29 2362.06 24.44
29 10.3280 2443.20 2360.00 24.71
30 10.3410 2451.28 2358.00 24.76
31 10.3540 2381.60 2356.04 24.40
32 10.3670 2371.18 2354.12 24.35
33 10.3800 2421.47 2352.26 24.60
34 10.3930 2415.88 2350.46 24.58
35 10.4060 2398.98 2348.70 24.49
36 10.4190 2432.49 2347.01 24.66
37 10.4320 2435.86 2345.37 24.68
38 10.4450 2384.45 2343.79 24.42
39 10.4580 2376.63 2342.28 24.38
40 10.4710 2372.96 2340.84 24.36
41 10.4840 2375.29 2339.46 24.37
42 10.4970 2364.48 2338.16 24.31
43 10.5100 2405.66 2336.94 24.52
44 10.5230 2374.13 2335.79 24.36
45 10.5360 2388.07 2334.73 24.43
46 10.5490 2394.35 2333.75 24.47
47 10.5620 2401.34 2332.87 24.50
48 10.5750 2381.51 2332.08 24.40
49 10.5880 2374.45 2331.39 24.36
50 10.6010 2360.70 2330.80 24.29
51 10.6140 2343.16 2330.33 24.20
52 10.6270 2354.19 2329.97 24.26
53 10.6400 2368.82 2329.73 24.34
54 10.6530 2338.26 2329.62 24.18
55 10.6660 2308.51 2329.64 24.02
56 10.6790 2307.72 2329.80 24.02
57 10.6920 2364.86 2330.11 24.31
58 10.7050 2363.92 2330.57 24.31
59 10.7180 2370.31 2331.19 24.34
60 10.7310 2344.03 2331.97 24.21
61 10.7440 2350.70 2332.93 24.24
62 10.7570 2383.38 2334.07 24.41
63 10.7700 2384.03 2335.40 24.41
64 10.7830 2349.70 2336.92 24.24
65 10.7960 2338.66 2338.64 24.18
66 10.8090 2334.08 2340.56 24.16
67 10.8220 2369.24 2342.68 24.34
68 10.8350 2379.85 2345.02 24.39
69 10.8480 2347.13 2347.56 24.22
70 10.8610 2349.24 2350.31 24.23
71 10.8740 2349.60 2353.27 24.24
72 10.8870 2352.94 2356.43 24.25
73 10.9000 2373.28 2359.80 24.36
74 10.9130 2387.38 2363.36 24.43
75 10.9260 2373.87 2367.11 24.36
76 10.9390 2375.00 2371.06 24.37
77 10.9520 2411.03 2375.21 24.55
78 10.9650 2428.60 2379.56 24.64
79 10.9780 2430.54 2384.14 24.65
80 10.9910 2456.09 2388.99 24.78
81 11.0040 2477.57 2394.15 24.89
82 11.0170 2487.05 2399.70 24.94
83 11.0300 2538.65 2405.75 25.19
84 11.0430 2570.40 2412.46 25.35
85 11.0560 2565.03 2420.03 25.32
86 11.0690 2573.72 2428.71 25.37
87 11.0820 2590.42 2438.86 25.45
88 11.0950 2628.69 2450.89 25.64
89 11.1080 2675.57 2465.35 25.86
90 11.1210 2683.91 2482.88 25.90
91 11.1340 2711.55 2504.29 26.04
92 11.1470 2772.25 2530.56 26.33
93 11.1600 2791.93 2562.85 26.42
94 11.1730 2870.08 2602.57 26.79
95 11.1860 2885.43 2651.40 26.86
96 11.1990 2911.48 2711.32 26.98
97 11.2120 2974.45 2784.72 27.27
98 11.2250 3002.86 2874.36 27.40
99 11.2380 3030.84 2983.54 27.53
100 11.2510 3122.42 3116.02 27.94
101 11.2640 3226.21 3276.09 28.40
102 11.2770 3329.72 3468.49 28.85
103 11.2900 3439.95 3698.28 29.33
104 11.3030 3615.28 3970.57 30.06
105 11.3160 3772.39 4290.20 30.71
106 11.3290 3998.73 4661.10 31.62
107 11.3420 4265.69 5085.79 32.66
108 11.3550 4608.54 5564.39 33.94
109 11.3680 4991.25 6093.96 35.32
110 11.3810 5575.26 6667.60 37.33
111 11.3940 6260.19 7273.45 39.56
112 11.4070 7008.39 7894.18 41.86
113 11.4200 7825.26 8506.96 44.23
114 11.4330 8806.42 9082.83 46.92
115 11.4460 9842.06 9587.76 49.60
116 11.4590 10645.00 9983.83 51.59
117 11.4720 11346.60 10232.20 53.26
118 11.4850 11498.20 10297.70 53.61
119 11.4980 11069.00 10155.30 52.60
120 11.5110 10270.50 9797.08 50.67
121 11.5240 9317.47 9238.66 48.26
122 11.5370 8241.10 8519.84 45.39
123 11.5500 7242.15 7699.74 42.55
124 11.5630 6343.70 6845.49 39.82
125 11.5760 5686.51 6020.13 37.70
126 11.5890 5161.64 5272.39 35.92
127 11.6020 4719.10 4632.65 34.35
128 11.6150 4374.84 4113.08 33.07
129 11.6280 4020.88 3711.64 31.71
130 11.6410 3792.28 3416.60 30.79
131 11.6540 3678.00 3211.04 30.32
132 11.6670 3415.49 3076.27 29.22
133 11.6800 3366.92 2994.27 29.01
134 11.6930 3223.26 2949.08 28.39
135 11.7060 3122.47 2927.60 27.94
136 11.7190 3052.67 2919.71 27.63
137 11.7320 2980.36 2918.12 27.30
138 11.7450 2942.95 2917.97 27.12
139 11.7580 2872.26 2916.31 26.80
140 11.7710 2877.23 2911.57 26.82
141 11.7840 2804.63 2903.17 26.48
142 11.7970 2791.24 2891.10 26.42
143 11.8100 2739.88 2875.69 26.17
144 11.8230 2679.69 2857.39 25.88
145 11.8360 2672.53 2836.70 25.85
146 11.8490 2624.00 2814.11 25.61
147 11.8620 2641.74 2790.09 25.70
148 11.8750 2630.24 2765.05 25.64
149 11.8880 2585.55 2739.40 25.42
150 11.9010 2586.51 2713.50 25.43
151 11.9140 2566.82 2687.73 25.33
152 11.9270 2583.14 2662.41 25.41
153 11.9400 2605.00 2637.89 25.52
154 11.9530 2572.54 2614.45 25.36
155 11.9660 2557.19 2592.41 25.28
156 11.9790 2581.81 2572.03 25.41
157 11.9920 2587.41 2553.60 25.43
158 12.0050 2570.20 2537.40 25.35
159 12.0180 2582.62 2523.73 25.41
160 12.0310 2612.64 2512.93 25.56
161 12.0440 2604.28 2505.38 25.52
162 12.0570 2604.21 2501.55 25.52
163 12.0700 2635.06 2502.00 25.67
164 12.0830 2675.66 2507.41 25.86
165 12.0960 2725.83 2518.59 26.10
166 12.1090 2740.59 2536.56 26.18
167 12.1220 2748.40 2562.52 26.21
168 12.1350 2785.26 2597.95 26.39
169 12.1480 2828.73 2644.62 26.59
170 12.1610 2886.15 2704.62 26.86
171 12.1740 2925.47 2780.48 27.04
172 12.1870 2976.50 2875.12 27.28
173 12.2000 3077.31 2991.95 27.74
174 12.2130 3181.46 3134.78 28.20
175 12.2260 3287.49 3307.83 28.67
176 12.2390 3412.00 3515.50 29.21
177 12.2520 3561.00 3762.23 29.84
178 12.2650 3736.79 4051.95 30.56
179 12.2780 3960.12 4387.82 31.46
180 12.2910 4216.58 4771.38 32.47
181 12.3040 4541.81 5202.06 33.70
182 12.3170 4964.25 5676.25 35.23
183 12.3300 5410.66 6186.75 36.78
184 12.3430 5925.52 6721.89 38.49
185 12.3560 6522.10 7265.27 40.38
186 12.3690 7173.71 7795.23 42.35
187 12.3820 7759.40 8285.22 44.04
188 12.3950 8256.24 8704.14 45.43
189 12.4080 8701.11 9018.24 46.64
190 12.4210 8835.21 9193.81 47.00
191 12.4340 8613.35 9202.02 46.40
192 12.4470 8148.71 9025.03 45.14
193 12.4600 7409.73 8662.28 43.04
194 12.4730 6597.37 8134.46 40.61
195 12.4860 5908.57 7482.61 38.43
196 12.4990 5249.98 6761.53 36.23
197 12.5120 4674.88 6028.59 34.19
198 12.5250 4235.15 5334.16 32.54
199 12.5380 3937.82 4714.28 31.38
200 12.5510 3648.32 4189.05 30.20
201 12.5640 3409.53 3764.10 29.20
202 12.5770 3236.01 3434.56 28.44
203 12.5900 3044.99 3188.86 27.59
204 12.6030 2968.72 3012.34 27.24
205 12.6160 2845.46 2889.72 26.67
206 12.6290 2714.12 2806.79 26.05
207 12.6420 2670.99 2751.38 25.84
208 12.6550 2533.68 2713.70 25.17
209 12.6680 2534.83 2686.42 25.17
210 12.6810 2472.98 2664.33 24.86
211 12.6940 2398.52 2644.03 24.49
212 12.7070 2394.31 2623.48 24.47
213 12.7200 2345.91 2601.62 24.22
214 12.7330 2294.35 2578.01 23.95
215 12.7460 2223.87 2552.61 23.58
216 12.7590 2200.14 2525.57 23.45
217 12.7720 2193.43 2497.14 23.42
218 12.7850 2216.52 2467.58 23.54
219 12.7980 2179.14 2437.17 23.34
220 12.8110 2113.53 2406.18 22.99
221 12.8240 2101.90 2374.86 22.92
222 12.8370 2105.22 2343.46 22.94
223 12.8500 2080.10 2312.24 22.80
224 12.8630 2087.98 2281.42 22.85
225 12.8760 2077.26 2251.21 22.79
226 12.8890 2047.40 2221.82 22.62
227 12.9020 2024.91 2193.42 22.50
228 12.9150 2016.09 2166.13 22.45
229 12.9280 1954.03 2140.07 22.10
230 12.9410 2020.00 2115.31 22.47
231 12.9540 1991.88 2091.89 22.32
232 12.9670 1960.27 2069.82 22.14
233 12.9800 1948.20 2049.09 22.07
234 12.9930 1948.10 2029.67 22.07
235 13.0060 1946.76 2011.50 22.06
236 13.0190 1936.12 1994.52 22.00
237 13.0320 1922.11 1978.67 21.92
238 13.0450 1917.90 1963.86 21.90
239 13.0580 1923.86 1950.02 21.93
240 13.0710 1878.57 1937.07 21.67
241 13.0840 1845.22 1924.92 21.48
242 13.0970 1891.22 1913.52 21.74
243 13.1100 1839.99 1902.79 21.45
244 13.1230 1834.01 1892.66 21.41
245 13.1360 1878.55 1883.08 21.67
246 13.1490 1823.73 1873.99 21.35
247 13.1620 1836.30 1865.36 21.43
248 13.1750 1852.23 1857.12 21.52
249 13.1880 1826.90 1849.25 21.37
250 13.2010 1809.07 1841.72 21.27
251 13.2140 1819.17 1834.49 21.33
252 13.2270 1848.11 1827.53 21.49
253 13.2400 1853.93 1820.83 21.53
254 13.2530 1830.51 1814.36 21.39
255 13.2660 1808.30 1808.10 21.26
256 13.2790 1794.79 1802.04 21.18
257 13.2920 1815.08 1796.17 21.30
258 13.3050 1816.64 1790.46 21.31
259 13.3180 1779.60 1784.92 21.09
260 13.3310 1776.67 1779.53 21.08
261 13.3440 1779.76 1774.28 21.09
262 13.3570 1779.56 1769.16 21.09
263 13.3700 1774.49 1764.16 21.06
264 13.3830 1789.04 1759.28 21.15
265 13.3960 1793.30 1754.52 21.17
266 13.4090 1786.30 1749.86 21.13
267 13.4220 1767.90 1745.30 21.02
268 13.4350 1734.16 1740.83 20.82
269 13.4480 1737.62 1736.46 20.84
270 13.4610 1761.15 1732.17 20.98
271 13.4740 1760.50 1727.97 20.98
272 13.4870 1748.60 1723.84 20.91
273 13.5000 1716.10 1719.79 20.71
274 13.5130 1711.35 1715.81 20.68
275 13.5260 1739.40 1711.90 20.85
276 13.5390 1733.51 1708.06 20.82
277 13.5520 1734.46 1704.28 20.82
278 13.5650 1748.61 1700.56 20.91
279 13.5780 1739.26 1696.89 20.85
280 13.5910 1724.47 1693.29 20.76
281 13.6040 1724.93 1689.73 20.77
282 13.6170 1712.42 1686.23 20.69
283 13.6300 1702.53 1682.77 20.63
284 13.6430 1684.25 1679.37 20.52
285 13.6560 1674.96 1676.00 20.46
286 13.6690 1700.85 1672.69 20.62
287 13.6820 1729.14 1669.41 20.79
288 13.6950 1694.93 1666.18 20.58
289 13.7080 1699.13 1662.98 20.61
290 13.7210 1707.73 1659.83 20.66
291 13.7340 1694.92 1656.71 20.58
292 13.7470 1675.47 1653.62 20.47
293 13.7600 1696.62 1650.57 20.59
294 13.7730 1670.72 1647.55 20.44
295 13.7860 1672.49 1644.57 20.45
296 13.7990 1680.94 1641.61 20.50
297 13.8120 1657.06 1638.69 20.35
298 13.8250 1686.33 1635.80 20.53
299 13.8380 1675.79 1632.93 20.47
300 13.8510 1680.87 1630.09 20.50
301 13.8640 1617.64 1627.28 20.11
302 13.8770 1627.31 1624.49 20.17
303 13.8900 1645.40 1621.73 20.28
304 13.9030 1677.78 1618.99 20.48
305 13.9160 1659.41 1616.28 20.37
306 13.9290 1635.54 1613.59 20.22
307 13.9420 1655.44 1610.92 20.34
308 13.9550 1657.78 1608.28 20.36
309 13.9680 1650.35 1605.65 20.31
310 13.9810 1611.65 1603.05 20.07
311 13.9940 1635.21 1600.46 20.22
312 14.0070 1628.12 1597.90 20.17
313 14.0200 1628.18 1595.36 20.18
314 14.0330 1630.20 1592.83 20.19
315 14.0460 1631.87 1590.32 20.20
316 14.0590 1621.49 1587.83 20.13
317 14.0720 1604.70 1585.36 20.03
318 14.0850 1624.15 1582.90 20.15
319 14.0980 1607.91 1580.46 20.05
320 14.1110 1643.04 1578.04 20.27
321 14.1240 1611.56 1575.64 20.07
322 14.1370 1570.97 1573.24 19.82
323 14.1500 1598.96 1570.87 19.99
324 14.1630 1590.74 1568.51 19.94
325 14.1760 1631.29 1566.16 20.19
326 14.1890 1594.32 1563.83 19.96
327 14.2020 1570.30 1561.51 19.81
328 14.2150 1580.94 1559.21 19.88
329 14.2280 1603.97 1556.92 20.02
330 14.2410 1601.18 1554.64 20.01
331 14.2540 1583.33 1552.38 19.90
332 14.2670 1589.80 1550.12 19.94
333 14.2800 1597.95 1547.89 19.99
334 14.2930 1568.80 1545.66 19.80
335 14.3060 1573.39 1543.44 19.83
336 14.3190 1569.63 1541.24 19.81
337 14.3320 1587.37 1539.05 19.92
338 14.3450 1559.83 1536.87 19.75
339 14.3580 1556.45 1534.70 19.73
340 14.3710 1591.29 1532.54 19.95
341 14.3840 1561.72 1530.40 19.76
342 14.3970 1569.69 1528.26 19.81
343 14.4100 1559.94 1526.14 19.75
344 14.4230 1564.22 1524.02 19.78
345 14.4360 1558.46 1521.92 19.74
346 14.4490 1556.58 1519.82 19.73
347 14.4620 1564.60 1517.74 19.78
348 14.4750 1583.47 1515.66 19.90
349 14.4880 1547.64 1513.60 19.67
350 14.5010 1546.53 1511.54 19.66
351 14.5140 1554.74 1509.49 19.72
352 14.5270 1542.69 1507.46 19.64
353 14.5400 1507.86 1505.43 19.42
354 14.5530 1522.53 1503.41 19.51
355 14.5660 1515.07 1501.40 19.46
356 14.5790 1509.36 1491.02 19.43
357 14.5920 1530.86 1489.09 19.56
358 14.6050 1541.90 1487.18 19.63
359 14.6180 1538.49 1485.27 19.61
360 14.6310 1529.31 1483.37 19.55
361 14.6440 1517.72 1481.48 19.48
362 14.6570 1522.13 1479.60 19.51
363 14.6700 1515.80 1477.72 19.47
364 14.6830 1502.20 1475.85 19.38
365 14.6960 1513.43 1473.98 19.45
366 14.7090 1509.27 1472.13 19.42
367 14.7220 1520.45 1470.28 19.50
368 14.7350 1528.86 1468.44 19.55
369 14.7480 1496.92 1466.60 19.34
370 14.7610 1477.93 1464.77 19.22
371 14.7740 1502.79 1462.95 19.38
372 14.7870 1516.04 1461.13 19.47
373 14.8000 1505.66 1459.33 19.40
374 14.8130 1505.38 1457.52 19.40
375 14.8260 1503.87 1455.73 19.39
376 14.8390 1486.52 1453.94 19.28
377 14.8520 1472.19 1452.15 19.18
378 14.8650 1490.74 1450.37 19.31
379 14.8780 1502.25 1448.60 19.38
380 14.8910 1498.56 1446.84 19.36
381 14.9040 1506.87 1445.08 19.41
382 14.9170 1499.87 1443.33 19.36
383 14.9300 1490.09 1441.58 19.30
384 14.9430 1491.63 1439.84 19.31
385 14.9560 1483.01 1438.10 19.25
386 14.9690 1485.22 1436.37 19.27
387 14.9820 1479.23 1434.65 19.23
388 14.9950 1482.47 1432.93 19.25
389 15.0080 1466.21 1431.22 19.15
390 15.0210 1461.63 1429.51 19.12
391 15.0340 1501.29 1427.81 19.37
392 15.0470 1502.74 1426.11 19.38
393 15.0600 1501.35 1424.42 19.37
394 15.0730 1463.26 1422.74 19.13
395 15.0860 1444.98 1421.06 19.01
396 15.0990 1454.25 1419.39 19.07
397 15.1120 1467.75 1417.72 19.16
398 15.1250 1451.78 1416.06 19.05
399 15.1380 1435.61 1414.40 18.94
400 15.1510 1444.45 1412.75 19.00
401 15.1640 1455.80 1411.10 19.08
402 15.1770 1434.49 1409.46 18.94
403 15.1900 1461.00 1407.82 19.11
404 15.2030 1486.90 1406.19 19.28
405 15.2160 1449.27 1404.56 19.03
406 15.2290 1420.43 1402.94 18.84
407 15.2420 1450.50 1401.33 19.04
408 15.2550 1440.29 1399.71 18.98
409 15.2680 1449.11 1398.11 19.03
410 15.2810 1462.15 1396.51 19.12
411 15.2940 1434.16 1394.91 18.94
412 15.3070 1443.16 1393.32 18.99
413 15.3200 1407.81 1391.73 18.76
414 15.3330 1416.40 1390.15 18.82
415 15.3460 1423.28 1388.58 18.86
416 15.3590 1407.34 1387.00 18.76
417 15.3720 1451.84 1385.44 19.05
418 15.3850 1417.29 1383.88 18.82
419 15.3980 1424.28 1382.32 18.87
420 15.4110 1446.60 1380.77 19.02
421 15.4240 1418.22 1379.22 18.83
422 15.4370 1434.75 1377.67 18.94
423 15.4500 1430.54 1376.14 18.91
424 15.4630 1395.62 1374.60 18.68
425 15.4760 1461.06 1373.07 19.11
426 15.4890 1429.79 1371.55 18.91
427 15.5020 1407.31 1362.29 18.76
428 15.5150 1398.95 1360.84 18.70
429 15.5280 1442.37 1359.39 18.99
430 15.5410 1384.81 1357.95 18.61
431 15.5540 1406.02 1356.51 18.75
432 15.5670 1411.45 1355.08 18.78
433 15.5800 1377.81 1353.65 18.56
434 15.5930 1406.01 1352.22 18.75
435 15.6060 1382.86 1350.80 18.59
436 15.6190 1407.30 1349.38 18.76
437 15.6320 1395.54 1347.96 18.68
438 15.6450 1373.14 1346.55 18.53
439 15.6580 1360.55 1345.14 18.44
440 15.6710 1367.62 1343.73 18.49
441 15.6840 1374.60 1342.33 18.54
442 15.6970 1356.86 1340.93 18.42
443 15.7100 1402.30 1339.54 18.72
444 15.7230 1385.26 1338.15 18.61
445 15.7360 1394.14 1336.76 18.67
446 15.7490 1384.93 1335.38 18.61
447 15.7620 1398.05 1334.00 18.70
448 15.7750 1382.35 1332.62 18.59
449 15.7880 1372.81 1331.25 18.53
450 15.8010 1363.67 1329.88 18.46
451 15.8140 1356.40 1328.51 18.41
452 15.8270 1392.83 1327.15 18.66
453 15.8400 1404.24 1325.79 18.74
454 15.8530 1374.34 1324.44 18.54
455 15.8660 1364.28 1323.09 18.47
456 15.8790 1344.14 1321.74 18.33
457 15.8920 1357.34 1320.40 18.42
458 15.9050 1354.36 1319.05 18.40
459 15.9180 1357.52 1317.72 18.42
460 15.9310 1364.89 1316.38 18.47
461 15.9440 1358.18 1315.05 18.43
462 15.9570 1347.00 1313.73 18.35
463 15.9700 1356.02 1312.41 18.41
464 15.9830 1360.62 1311.09 18.44
465 15.9960 1337.35 1309.77 18.28
466 16.0090 1347.98 1308.46 18.36
467 16.0220 1348.05 1307.15 18.36
468 16.0350 1338.65 1305.84 18.29
469 16.0480 1348.99 1304.54 18.36
470 16.0610 1342.98 1303.24 18.32
471 16.0740 1352.62 1301.95 18.39
472 16.0870 1361.39 1300.66 18.45
473 16.1000 1359.21 1299.37 18.43
474 16.1130 1362.24 1298.08 18.45
475 16.1260 1342.41 1296.80 18.32
476 16.1390 1332.71 1295.53 18.25
477 16.1520 1327.92 1294.25 18.22
478 16.1650 1316.01 1292.98 18.14
479 16.1780 1302.57 1291.71 18.05
480 16.1910 1292.95 1290.45 17.98
481 16.2040 1331.01 1289.19 18.24
482 16.2170 1347.04 1287.93 18.35
483 16.2300 1320.15 1286.68 18.17
484 16.2430 1303.46 1285.43 18.05
485 16.2560 1308.23 1284.18 18.08
486 16.2690 1313.00 1282.94 18.12
487 16.2820 1324.96 1281.70 18.20
488 16.2950 1327.74 1280.46 18.22
489 16.3080 1324.70 1279.23 18.20
490 16.3210 1328.99 1278.00 18.23
491 16.3340 1317.57 1276.77 18.15
492 16.3470 1291.53 1275.55 17.97
493 16.3600 1300.29 1274.33 18.03
494 16.3730 1311.23 1273.11 18.11
495 16.3860 1323.51 1271.90 18.19
496 16.3990 1320.29 1270.69 18.17
497 16.4120 1308.34 1269.49 18.09
498 16.4250 1296.21 1268.28 18.00
499 16.4380 1293.27 1267.08 17.98
500 16.4510 1309.30 1265.89 18.09
501 16.4640 1299.33 1264.69 18.02
502 16.4770 1309.55 1263.50 18.09
503 16.4900 1305.85 1262.32 18.07
504 16.5030 1276.05 1261.14 17.86
505 16.5160 1284.00 1259.96 17.92
506 16.5290 1297.18 1258.78 18.01
507 16.5420 1288.55 1257.61 17.95
508 16.5550 1315.58 1256.44 18.14
509 16.5680 1308.41 1255.27 18.09
510 16.5810 1298.82 1255.45 18.02
511 16.5940 1305.84 1254.30 18.07
512 16.6070 1273.84 1253.15 17.85
513 16.6200 1319.12 1252.01 18.16
514 16.6330 1283.02 1250.88 17.91
515 16.6460 1292.72 1249.74 17.98
516 16.6590 1257.99 1248.61 17.73
517 16.6720 1262.56 1247.48 17.77
518 16.6850 1287.00 1246.36 17.94
519 16.6980 1289.53 1245.24 17.95
520 16.7110 1244.16 1244.12 17.64
521 16.7240 1310.61 1243.01 18.10
522 16.7370 1278.51 1241.90 17.88
523 16.7500 1230.27 1240.79 17.54
524 16.7630 1258.98 1239.69 17.74
525 16.7760 1248.23 1238.59 17.67
526 16.7890 1297.27 1237.49 18.01
527 16.8020 1288.91 1236.40 17.95
528 16.8150 1275.44 1235.31 17.86
529 16.8280 1255.94 1234.22 17.72
530 16.8410 1225.20 1233.14 17.50
531 16.8540 1244.88 1232.06 17.64
532 16.8670 1247.67 1230.98 17.66
533 16.8800 1247.08 1229.91 17.66
534 16.8930 1234.98 1228.84 17.57
535 16.9060 1230.42 1227.77 17.54
536 16.9190 1248.53 1226.71 17.67
537 16.9320 1261.60 1225.65 17.76
538 16.9450 1237.92 1224.60 17.59
539 16.9580 1227.41 1223.54 17.52
540 16.9710 1249.97 1222.49 17.68
541 16.9840 1254.96 1221.45 17.71
542 16.9970 1220.73 1220.41 17.47
543 17.0100 1226.24 1219.37 17.51
544 17.0230 1245.35 1218.33 17.64
545 17.0360 1256.55 1217.30 17.72
546 17.0490 1253.68 1216.27 17.70
547 17.0620 1232.63 1215.24 17.55
548 17.0750 1205.44 1214.22 17.36
549 17.0880 1218.74 1213.20 17.46
550 17.1010 1239.13 1212.19 17.60
551 17.1140 1218.72 1211.18 17.46
552 17.1270 1222.55 1210.17 17.48
553 17.1400 1242.94 1209.16 17.63
554 17.1530 1221.37 1208.16 17.47
555 17.1660 1222.16 1207.17 17.48
556 17.1790 1216.98 1206.17 17.44
557 17.1920 1192.28 1205.18 17.26
558 17.2050 1190.51 1204.19 17.25
559 17.2180 1205.70 1203.21 17.36
560 17.2310 1214.77 1202.23 17.43
561 17.2440 1210.27 1201.25 17.39
562 17.2570 1210.63 1200.28 17.40
563 17.2700 1201.14 1199.31 17.33
564 17.2830 1203.10 1198.34 17.34
565 17.2960 1233.21 1197.38 17.56
566 17.3090 1227.96 1196.42 17.52
567 17.3220 1202.17 1195.46 17.34
568 17.3350 1211.65 1194.51 17.40
569 17.3480 1215.60 1193.56 17.43
570 17.3610 1201.90 1192.61 17.33
571 17.3740 1207.23 1191.67 17.37
572 17.3870 1212.65 1190.73 17.41
573 17.4000 1213.80 1189.79 17.42
574 17.4130 1207.63 1188.86 17.38
575 17.4260 1194.93 1187.93 17.28
576 17.4390 1200.85 1187.01 17.33
577 17.4520 1201.59 1186.09 17.33
578 17.4650 1208.68 1185.17 17.38
579 17.4780 1206.18 1184.26 17.37
580 17.4910 1187.63 1183.35 17.23
581 17.5040 1196.17 1182.44 17.29
582 17.5170 1194.81 1181.54 17.28
583 17.5300 1193.61 1180.64 17.27
584 17.5430 1189.39 1179.74 17.24
585 17.5560 1199.77 1178.85 17.32
586 17.5690 1188.77 1177.96 17.24
587 17.5820 1166.59 1177.08 17.08
588 17.5950 1178.33 1176.20 17.16
589 17.6080 1158.43 1175.32 17.02
590 17.6210 1182.64 1174.45 17.19
591 17.6340 1190.05 1173.58 17.25
592 17.6470 1176.26 1172.71 17.15
593 17.6600 1162.26 1171.85 17.05
594 17.6730 1159.39 1170.99 17.02
595 17.6860 1192.22 1170.14 17.26
596 17.6990 1183.63 1169.29 17.20
597 17.7120 1170.72 1168.44 17.11
598 17.7250 1171.86 1167.60 17.12
599 17.7380 1145.42 1166.76 16.92
600 17.7510 1158.72 1165.93 17.02
601 17.7640 1151.98 1165.10 16.97
602 17.7770 1183.37 1164.27 17.20
603 17.7900 1186.65 1163.45 17.22
604 17.8030 1169.33 1162.63 17.10
605 17.8160 1150.00 1161.82 16.96
606 17.8290 1146.19 1161.01 16.93
607 17.8420 1156.14 1160.21 17.00
608 17.8550 1172.33 1159.41 17.12
609 17.8680 1199.06 1158.61 17.31
610 17.8810 1183.87 1157.82 17.20
611 17.8940 1199.79 1157.04 17.32
612 17.9070 1164.98 1156.25 17.07
613 17.9200 1168.87 1155.48 17.09
614 17.9330 1141.64 1157.45 16.89
615 17.9460 1150.26 1156.71 16.96
616 17.9590 1155.59 1155.97 17.00
617 17.9720 1156.22 1155.24 17.00
618 17.9850 1152.16 1154.51 16.97
619 17.9980 1150.24 1153.79 16.96
620 18.0110 1144.24 1153.07 16.91
621 18.0240 1126.82 1152.36 16.78
622 18.0370 1196.62 1151.66 17.30
623 18.0500 1130.84 1150.96 16.81
624 18.0630 1140.49 1150.26 16.89
625 18.0760 1136.55 1149.58 16.86
626 18.0890 1170.75 1148.89 17.11
627 18.1020 1139.31 1148.22 16.88
628 18.1150 1133.47 1147.55 16.83
629 18.1280 1143.46 1146.89 16.91
630 18.1410 1155.04 1146.23 16.99
631 18.1540 1127.43 1145.58 16.79
632 18.1670 1160.87 1144.94 17.04
633 18.1800 1133.78 1144.31 16.84
634 18.1930 1128.51 1143.68 16.80
635 18.2060 1124.92 1143.06 16.77
636 18.2190 1149.35 1142.45 16.95
637 18.2320 1139.72 1141.84 16.88
638 18.2450 1139.05 1141.24 16.87
639 18.2580 1131.82 1140.65 16.82
640 18.2710 1124.42 1140.07 16.77
641 18.2840 1122.43 1139.50 16.75
642 18.2970 1120.21 1138.94 16.73
643 18.3100 1095.10 1138.38 16.55
644 18.3230 1102.10 1138.12 16.60
645 18.3360 1123.62 1137.59 16.76
646 18.3490 1107.25 1137.07 16.64
647 18.3620 1119.74 1136.55 16.73
648 18.3750 1126.97 1136.05 16.79
649 18.3880 1111.19 1135.56 16.67
650 18.4010 1117.97 1135.08 16.72
651 18.4140 1116.23 1134.62 16.70
652 18.4270 1117.25 1134.16 16.71
653 18.4400 1131.48 1133.72 16.82
654 18.4530 1144.29 1133.29 16.91
655 18.4660 1126.44 1132.88 16.78
656 18.4790 1112.58 1132.48 16.68
657 18.4920 1102.29 1132.09 16.60
658 18.5050 1094.95 1131.72 16.55
659 18.5180 1098.63 1131.37 16.57
660 18.5310 1105.03 1131.03 16.62
661 18.5440 1128.63 1130.71 16.80
662 18.5570 1104.60 1130.41 16.62
663 18.5700 1094.94 1130.13 16.54
664 18.5830 1089.58 1129.87 16.50
665 18.5960 1086.42 1129.63 16.48
666 18.6090 1099.23 1129.41 16.58
667 18.6220 1117.94 1129.22 16.72
668 18.6350 1118.69 1129.05 16.72
669 18.6480 1096.14 1128.90 16.55
670 18.6610 1104.12 1128.79 16.61
671 18.6740 1124.02 1128.70 16.76
672 18.6870 1112.70 1128.64 16.68
673 18.7000 1107.29 1128.61 16.64
674 18.7130 1111.25 1128.62 16.67
675 18.7260 1114.30 1128.66 16.69
676 18.7390 1098.54 1128.74 16.57
677 18.7520 1083.19 1128.86 16.46
678 18.7650 1104.48 1129.01 16.62
679 18.7780 1107.83 1129.21 16.64
680 18.7910 1100.65 1129.45 16.59
681 18.8040 1116.26 1129.74 16.71
682 18.8170 1117.30 1130.07 16.71
683 18.8300 1102.45 1130.46 16.60
684 18.8430 1119.76 1130.89 16.73
685 18.8560 1134.78 1131.38 16.84
686 18.8690 1093.31 1131.92 16.53
687 18.8820 1083.95 1132.51 16.46
688 18.8950 1098.54 1133.17 16.57
689 18.9080 1084.73 1133.89 16.47
690 18.9210 1083.24 1134.68 16.46
691 18.9340 1096.60 1135.54 16.56
692 18.9470 1115.65 1136.48 16.70
693 18.9600 1117.82 1137.51 16.72
694 18.9730 1115.77 1138.65 16.70
695 18.9860 1110.10 1139.90 16.66
696 18.9990 1109.59 1141.29 16.66
697 19.0120 1103.39 1142.84 16.61
698 19.0250 1105.77 1144.60 16.63
699 19.0380 1120.73 1146.61 16.74
700 19.0510 1109.22 1148.91 16.65
701 19.0640 1093.68 1151.59 16.54
702 19.0770 1108.86 1154.72 16.65
703 19.0900 1115.13 1158.40 16.70
704 19.1030 1111.57 1162.77 16.67
705 19.1160 1125.60 1167.97 16.77
706 19.1290 1134.81 1174.18 16.84
707 19.1420 1167.90 1181.63 17.09
708 19.1550 1161.88 1190.57 17.04
709 19.1680 1164.49 1201.31 17.06
710 19.1810 1165.17 1214.22 17.07
711 19.1940 1151.89 1229.70 16.97
712 19.2070 1198.01 1248.23 17.31
713 19.2200 1238.01 1270.35 17.59
714 19.2330 1263.90 1296.63 17.78
715 19.2460 1272.30 1327.66 17.83
716 19.2590 1283.80 1364.01 17.92
717 19.2720 1331.24 1406.20 18.24
718 19.2850 1387.69 1454.63 18.63
719 19.2980 1457.15 1509.46 19.09
720 19.3110 1510.51 1570.60 19.43
721 19.3240 1608.32 1637.54 20.05
722 19.3370 1722.86 1709.30 20.75
723 19.3500 1935.52 1784.30 22.00
724 19.3630 2105.39 1860.21 22.94
725 19.3760 2340.53 1933.99 24.19
726 19.3890 2560.95 2001.72 25.30
727 19.4020 2795.88 2058.79 26.44
728 19.4150 2958.07 2100.14 27.19
729 19.4280 2938.42 2121.02 27.10
730 19.4410 2955.49 2117.88 27.18
731 19.4540 2815.56 2089.51 26.53
732 19.4670 2598.44 2037.77 25.49
733 19.4800 2386.97 1967.45 24.43
734 19.4930 2199.00 1885.35 23.45
735 19.5060 2013.79 1798.63 22.44
736 19.5190 1891.40 1713.58 21.75
737 19.5320 1779.15 1634.61 21.09
738 19.5450 1673.99 1564.30 20.46
739 19.5580 1573.43 1503.57 19.83
740 19.5710 1524.69 1452.24 19.52
741 19.5840 1473.92 1409.39 19.20
742 19.5970 1448.30 1373.84 19.03
743 19.6100 1425.96 1344.32 18.88
744 19.6230 1375.12 1319.68 18.54
745 19.6360 1316.15 1298.90 18.14
746 19.6490 1317.45 1281.16 18.15
747 19.6620 1270.84 1265.82 17.82
748 19.6750 1244.03 1252.37 17.64
749 19.6880 1228.70 1240.44 17.53
750 19.7010 1228.75 1229.75 17.53
751 19.7140 1202.70 1220.07 17.34
752 19.7270 1200.11 1211.24 17.32
753 19.7400 1199.35 1203.11 17.32
754 19.7530 1200.67 1195.60 17.33
755 19.7660 1180.45 1188.60 17.18
756 19.7790 1161.27 1182.07 17.04
757 19.7920 1166.26 1175.94 17.08
758 19.8050 1130.80 1170.19 16.81
759 19.8180 1107.38 1164.79 16.64
760 19.8310 1121.24 1159.73 16.74
761 19.8440 1122.89 1154.99 16.75
762 19.8570 1113.50 1150.58 16.68
763 19.8700 1125.74 1146.49 16.78
764 19.8830 1144.70 1142.70 16.92
765 19.8960 1139.81 1139.23 16.88
766 19.9090 1123.33 1136.05 16.76
767 19.9220 1094.16 1133.17 16.54
768 19.9350 1076.05 1130.58 16.40
769 19.9480 1092.24 1128.26 16.52
770 19.9610 1113.15 1126.20 16.68
771 19.9740 1109.70 1124.39 16.66
772 19.9870 1100.30 1122.83 16.59
773 20.0000 1101.22 1121.49 16.59
774 20.0130 1092.04 1120.37 16.52
775 20.0260 1088.63 1119.46 16.50
776 20.0390 1070.03 1118.75 16.36
777 20.0520 1065.46 1118.22 16.32
778 20.0650 1088.93 1117.88 16.50
779 20.0780 1089.85 1117.71 16.51
780 20.0910 1091.11 1117.72 16.52
781 20.1040 1086.37 1117.88 16.48
782 20.1170 1086.60 1118.21 16.48
783 20.1300 1094.16 1118.70 16.54
784 20.1430 1102.23 1119.34 16.60
785 20.1560 1100.43 1120.14 16.59
786 20.1690 1086.90 1121.10 16.48
787 20.1820 1095.10 1122.21 16.55
788 20.1950 1099.81 1123.48 16.58
789 20.2080 1100.57 1124.91 16.59
790 20.2210 1103.37 1126.50 16.61
791 20.2340 1090.57 1128.26 16.51
792 20.2470 1092.86 1130.20 16.53
793 20.2600 1118.33 1132.33 16.72
794 20.2730 1109.97 1134.66 16.66
795 20.2860 1081.92 1137.22 16.45
796 20.2990 1094.00 1140.03 16.54
797 20.3120 1107.86 1143.13 16.64
798 20.3250 1098.18 1146.56 16.57
799 20.3380 1089.71 1150.38 16.51
800 20.3510 1111.77 1154.69 16.67
801 20.3640 1140.92 1159.56 16.89
802 20.3770 1145.73 1165.12 16.92
803 20.3900 1148.65 1171.53 16.95
804 20.4030 1133.99 1186.03 16.84
805 20.4160 1129.23 1194.79 16.80
806 20.4290 1145.66 1205.07 16.92
807 20.4420 1168.31 1217.22 17.09
808 20.4550 1175.18 1231.62 17.14
809 20.4680 1167.42 1248.76 17.08
810 20.4810 1187.76 1269.19 17.23
811 20.4940 1206.51 1293.60 17.37
812 20.5070 1227.44 1322.74 17.52
813 20.5200 1229.47 1357.52 17.53
814 20.5330 1250.51 1398.92 17.68
815 20.5460 1282.83 1448.06 17.91
816 20.5590 1328.51 1506.07 18.22
817 20.5720 1367.78 1574.15 18.49
818 20.5850 1404.13 1653.34 18.74
819 20.5980 1482.42 1744.59 19.25
820 20.6110 1547.02 1848.43 19.67
821 20.6240 1610.08 1964.98 20.06
822 20.6370 1738.05 2093.58 20.84
823 20.6500 1916.16 2232.83 21.89
824 20.6630 2140.13 2381.58 23.13
825 20.6760 2344.13 2532.93 24.21
826 20.6890 2682.25 2682.85 25.90
827 20.7020 3094.95 2824.11 27.82
828 20.7150 3552.06 2947.81 29.80
829 20.7280 4074.32 3043.79 31.92
830 20.7410 4444.93 3101.95 33.34
831 20.7540 4658.21 3114.90 34.13
832 20.7670 4454.16 3076.77 33.37
833 20.7800 3979.08 2990.42 31.54
834 20.7930 3449.24 2864.04 29.37
835 20.8060 2908.63 2710.49 26.97
836 20.8190 2556.54 2544.11 25.28
837 20.8320 2243.20 2377.92 23.68
838 20.8450 2060.46 2221.50 22.70
839 20.8580 1938.09 2080.80 22.01
840 20.8710 1829.27 1958.32 21.39
841 20.8840 1720.75 1854.29 20.74
842 20.8970 1600.81 1767.35 20.01
843 20.9100 1596.81 1695.55 19.98
844 20.9230 1493.84 1636.66 19.33
845 20.9360 1459.29 1588.64 19.10
846 20.9490 1412.20 1549.67 18.79
847 20.9620 1372.87 1518.28 18.53
848 20.9750 1345.73 1493.27 18.34
849 20.9880 1335.03 1473.73 18.27
850 21.0010 1305.17 1458.88 18.06
851 21.0140 1295.82 1448.08 18.00
852 21.0270 1279.75 1440.74 17.89
853 21.0400 1260.21 1436.26 17.75
854 21.0530 1258.77 1433.97 17.74
855 21.0660 1264.50 1433.13 17.78
856 21.0790 1254.94 1432.85 17.71
857 21.0920 1282.61 1432.14 17.91
858 21.1050 1256.92 1429.86 17.73
859 21.1180 1255.17 1424.86 17.71
860 21.1310 1251.86 1416.14 17.69
861 21.1440 1232.57 1403.06 17.55
862 21.1570 1237.29 1385.58 17.59
863 21.1700 1207.49 1364.31 17.37
864 21.1830 1184.83 1340.42 17.21
865 21.1960 1176.06 1315.34 17.15
866 21.2090 1162.85 1290.44 17.05
867 21.2220 1145.60 1266.78 16.92
868 21.2350 1123.94 1245.07 16.76
869 21.2480 1111.31 1225.60 16.67
870 21.2610 1130.30 1208.43 16.81
871 21.2740 1140.30 1193.43 16.88
872 21.2870 1123.87 1180.38 16.76
873 21.3000 1120.84 1169.01 16.74
874 21.3130 1125.73 1159.07 16.78
875 21.3260 1116.12 1150.33 16.70
876 21.3390 1090.83 1142.60 16.51
877 21.3520 1093.53 1135.71 16.53
878 21.3650 1099.43 1129.52 16.58
879 21.3780 1094.28 1123.92 16.54
880 21.3910 1086.69 1118.84 16.48
881 21.4040 1077.94 1114.20 16.42
882 21.4170 1107.84 1109.93 16.64
883 21.4300 1101.69 1105.99 16.60
884 21.4430 1062.06 1102.35 16.29
885 21.4560 1065.82 1098.95 16.32
886 21.4690 1080.00 1110.55 16.43
887 21.4820 1070.38 1107.73 16.36
888 21.4950 1070.83 1105.09 16.36
889 21.5080 1063.10 1102.64 16.30
890 21.5210 1088.98 1100.34 16.50
891 21.5340 1072.29 1098.20 16.37
892 21.5470 1064.69 1096.21 16.31
893 21.5600 1051.45 1094.35 16.21
894 21.5730 1059.23 1092.63 16.27
895 21.5860 1064.71 1091.03 16.31
896 21.5990 1072.98 1089.55 16.38
897 21.6120 1054.94 1088.19 16.24
898 21.6250 1067.35 1086.94 16.34
899 21.6380 1056.78 1085.80 16.25
900 21.6510 1037.17 1084.75 16.10
901 21.6640 1043.51 1083.80 16.15
902 21.6770 1041.74 1082.94 16.14
903 21.6900 1049.39 1082.17 16.20
904 21.7030 1057.75 1081.47 16.26
905 21.7160 1063.02 1080.85 16.30
906 21.7290 1032.81 1080.31 16.07
907 21.7420 1034.66 1079.83 16.08
908 21.7550 1049.51 1079.42 16.20
909 21.7680 1059.71 1079.07 16.28
910 21.7810 1051.16 1078.79 16.21
911 21.7940 1062.37 1078.56 16.30
912 21.8070 1049.27 1078.39 16.20
913 21.8200 1057.39 1078.27 16.26
914 21.8330 1037.68 1078.21 16.11
915 21.8460 1021.84 1078.20 15.98
916 21.8590 1032.70 1078.25 16.07
917 21.8720 1052.12 1078.34 16.22
918 21.8850 1049.89 1078.49 16.20
919 21.8980 1041.61 1078.68 16.14
920 21.9110 1059.90 1078.92 16.28
921 21.9240 1021.97 1079.22 15.98
922 21.9370 1058.58 1079.56 16.27
923 21.9500 1066.36 1079.95 16.33
924 21.9630 1077.45 1080.39 16.41
925 21.9760 1085.56 1080.88 16.47
926 21.9890 1048.00 1081.42 16.19
927 22.0020 1046.27 1082.02 16.17
928 22.0150 1041.44 1082.66 16.14
929 22.0280 1033.73 1083.36 16.08
930 22.0410 1031.10 1084.11 16.06
931 22.0540 1066.95 1084.91 16.33
932 22.0670 1032.95 1085.78 16.07
933 22.0800 1042.18 1086.70 16.14
934 22.0930 1083.13 1087.67 16.46
935 22.1060 1060.27 1088.71 16.28
936 22.1190 1100.85 1089.81 16.59
937 22.1320 1059.98 1090.98 16.28
938 22.1450 1087.83 1092.21 16.49
939 22.1580 1057.35 1093.51 16.26
940 22.1710 1091.52 1094.87 16.52
941 22.1840 1098.40 1096.32 16.57
942 22.1970 1090.50 1097.84 16.51
943 22.2100 1123.17 1099.43 16.76
944 22.2230 1101.20 1101.11 16.59
945 22.2360 1111.27 1102.88 16.67
946 22.2490 1107.78 1104.73 16.64
947 22.2620 1095.89 1106.68 16.55
948 22.2750 1092.32 1108.72 16.53
949 22.2880 1107.53 1110.87 16.64
950 22.3010 1129.38 1113.12 16.80
951 22.3140 1123.45 1115.49 16.76
952 22.3270 1121.06 1117.97 16.74
953 22.3400 1120.77 1125.23 16.74
954 22.3530 1120.33 1126.68 16.74
955 22.3660 1135.79 1129.61 16.85
956 22.3790 1159.43 1132.68 17.03
957 22.3920 1166.24 1136.88 17.08
958 22.4050 1141.89 1140.28 16.90
959 22.4180 1156.38 1143.84 17.00
960 22.4310 1144.01 1147.59 16.91
961 22.4440 1148.69 1151.53 16.95
962 22.4570 1141.80 1155.67 16.90
963 22.4700 1161.73 1160.01 17.04
964 22.4830 1155.30 1164.58 16.99
965 22.4960 1161.49 1169.39 17.04
966 22.5090 1199.57 1174.44 17.32
967 22.5220 1194.99 1179.76 17.28
968 22.5350 1208.16 1185.35 17.38
969 22.5480 1227.87 1191.22 17.52
970 22.5610 1229.53 1197.40 17.53
971 22.5740 1235.23 1203.90 17.57
972 22.5870 1222.65 1210.73 17.48
973 22.6000 1220.25 1217.92 17.47
974 22.6130 1225.94 1225.47 17.51
975 22.6260 1245.07 1233.41 17.64
976 22.6390 1250.20 1241.77 17.68
977 22.6520 1240.95 1250.56 17.61
978 22.6650 1252.01 1259.83 17.69
979 22.6780 1261.27 1269.61 17.76
980 22.6910 1293.65 1279.95 17.98
981 22.7040 1317.12 1290.91 18.15
982 22.7170 1313.25 1302.58 18.12
983 22.7300 1323.03 1315.06 18.19
984 22.7430 1337.07 1328.47 18.28
985 22.7560 1342.45 1342.98 18.32
986 22.7690 1345.94 1358.80 18.34
987 22.7820 1364.04 1376.17 18.47
988 22.7950 1372.46 1395.43 18.52
989 22.8080 1393.94 1416.96 18.67
990 22.8210 1404.81 1441.24 18.74
991 22.8340 1438.38 1468.86 18.96
992 22.8470 1483.13 1500.53 19.26
993 22.8600 1506.02 1537.11 19.40
994 22.8730 1524.61 1579.62 19.52
995 22.8860 1574.38 1629.30 19.84
996 22.8990 1626.67 1687.60 20.17
997 22.9120 1683.70 1756.23 20.52
998 22.9250 1735.82 1837.17 20.83
999 22.9380 1784.31 1932.69 21.12
1000 22.9510 1840.54 2045.30 21.45
1001 22.9640 1965.85 2177.77 22.17
1002 22.9770 2047.48 2332.98 22.62
1003 22.9900 2156.54 2513.82 23.22
1004 23.0030 2309.60 2722.89 24.03
1005 23.0160 2500.98 2962.35 25.00
1006 23.0290 2744.90 3233.50 26.20
1007 23.0420 3050.99 3536.40 27.62
1008 23.0550 3421.25 3869.20 29.25
1009 23.0680 3953.81 4227.80 31.44
1010 23.0810 4535.12 4605.00 33.67
1011 23.0940 5239.61 4989.78 36.19
1012 23.1070 6070.15 5366.42 38.96
1013 23.1200 6879.56 5714.32 41.47
1014 23.1330 7582.06 6008.49 43.54
1015 23.1460 8023.76 6221.81 44.79
1016 23.1590 8150.49 6329.65 45.14
1017 23.1720 7723.78 6316.36 43.94
1018 23.1850 7170.00 6181.10 42.34
1019 23.1980 6417.33 5940.11 40.05
1020 23.2110 5726.73 5623.53 37.84
1021 23.2240 5105.06 5267.88 35.72
1022 23.2370 4638.57 4907.49 34.05
1023 23.2500 4207.96 4569.23 32.43
1024 23.2630 3918.21 4270.50 31.30
1025 23.2760 3672.94 4019.98 30.30
1026 23.2890 3466.30 3819.65 29.44
1027 23.3020 3314.07 3667.43 28.78
1028 23.3150 3188.82 3558.59 28.23
1029 23.3280 3166.46 3487.18 28.14
1030 23.3410 3077.55 3446.43 27.74
1031 23.3540 3195.02 3429.11 28.26
1032 23.3670 3220.21 3427.49 28.37
1033 23.3800 3263.11 3433.36 28.56
1034 23.3930 3290.19 3438.42 28.68
1035 23.4060 3437.88 3434.95 29.32
1036 23.4190 3569.77 3417.02 29.87
1037 23.4320 3696.78 3381.60 30.40
1038 23.4450 3774.09 3328.84 30.72
1039 23.4580 3907.29 3261.49 31.25
1040 23.4710 4109.51 3183.24 32.05
1041 23.4840 4281.42 3097.15 32.72
1042 23.4970 4268.20 3004.91 32.67
1043 23.5100 4341.67 2907.10 32.95
1044 23.5230 4200.77 2804.16 32.41
1045 23.5360 3960.69 2697.41 31.47
1046 23.5490 3720.60 2589.35 30.50
1047 23.5620 3445.32 2483.39 29.35
1048 23.5750 3204.89 2382.90 28.31
1049 23.5880 2965.86 2290.59 27.23
1050 23.6010 2810.86 2208.09 26.51
1051 23.6140 2636.41 2136.05 25.67
1052 23.6270 2529.21 2074.28 25.15
1053 23.6400 2428.49 2019.41 24.64
1054 23.6530 2369.05 1975.93 24.34
1055 23.6660 2285.16 1940.15 23.90
1056 23.6790 2222.03 1911.12 23.57
1057 23.6920 2206.01 1888.01 23.48
1058 23.7050 2179.49 1870.11 23.34
1059 23.7180 2155.57 1856.86 23.21
1060 23.7310 2142.54 1847.83 23.14
1061 23.7440 2122.13 1842.71 23.03
1062 23.7570 2139.94 1841.30 23.13
1063 23.7700 2150.48 1843.53 23.19
1064 23.7830 2188.36 1849.43 23.39
1065 23.7960 2216.19 1859.17 23.54
1066 23.8090 2198.64 1873.01 23.44
1067 23.8220 2246.35 1891.39 23.70
1068 23.8350 2300.35 1914.88 23.98
1069 23.8480 2320.07 1944.26 24.08
1070 23.8610 2402.41 1980.50 24.51
1071 23.8740 2464.93 2024.81 24.82
1072 23.8870 2513.21 2078.69 25.07
1073 23.9000 2575.13 2143.99 25.37
1074 23.9130 2642.84 2222.90 25.70
1075 23.9260 2741.39 2318.07 26.18
1076 23.9390 2892.70 2432.59 26.89
1077 23.9520 3032.47 2570.19 27.53
1078 23.9650 3140.35 2735.04 28.02
1079 23.9780 3322.62 2931.96 28.82
1080 23.9910 3511.97 3166.26 29.63
1081 24.0040 3737.32 3443.38 30.57
1082 24.0170 4002.37 3769.66 31.63
1083 24.0300 4289.57 4150.53 32.75
1084 24.0430 4693.24 4590.96 34.25
1085 24.0560 5111.12 5094.72 35.75
1086 24.0690 5588.59 5663.30 37.38
1087 24.0820 6178.20 6295.29 39.30
1088 24.0950 6894.25 6985.00 41.52
1089 24.1080 7702.61 7721.09 43.88
1090 24.1210 8716.22 8484.62 46.68
1091 24.1340 9859.33 9247.23 49.65
1092 24.1470 10997.90 9970.38 52.44
1093 24.1600 12127.40 10604.10 55.06
1094 24.1730 13024.10 11091.10 57.06
1095 24.1860 13337.50 11374.70 57.74
1096 24.1990 13106.30 11411.50 57.24
1097 24.2120 12351.50 11185.60 55.57
1098 24.2250 11296.30 10717.00 53.14
1099 24.2380 10090.30 10058.80 50.23
1100 24.2510 8948.29 9282.47 47.30
1101 24.2640 7844.17 8460.88 44.28
1102 24.2770 6973.75 7653.45 41.75
1103 24.2900 6255.93 6900.77 39.55
1104 24.3030 5679.18 6224.13 37.68
1105 24.3160 5200.38 5631.04 36.06
1106 24.3290 4801.68 5119.17 34.65
1107 24.3420 4392.84 4681.42 33.14
1108 24.3550 4069.71 4308.12 31.90
1109 24.3680 3825.59 3989.72 30.93
1110 24.3810 3577.66 3717.20 29.91
1111 24.3940 3373.69 3482.85 29.04
1112 24.4070 3126.69 3280.01 27.96
1113 24.4200 2990.58 3103.34 27.34
1114 24.4330 2846.94 2948.40 26.68
1115 24.4460 2746.14 2811.61 26.20
1116 24.4590 2650.86 2689.96 25.74
1117 24.4720 2528.23 2581.10 25.14
1118 24.4850 2439.61 2483.02 24.70
1119 24.4980 2354.19 2394.21 24.26
1120 24.5110 2301.18 2313.34 23.99
1121 24.5240 2241.46 2239.47 23.67
1122 24.5370 2213.71 2171.84 23.52
1123 24.5500 2112.83 2109.87 22.98
1124 24.5630 2096.77 2053.11 22.90
1125 24.5760 2036.96 2001.23 22.57
1126 24.5890 1981.23 1954.01 22.26
1127 24.6020 1965.23 1911.22 22.17
1128 24.6150 1961.02 1872.72 22.14
1129 24.6280 1876.08 1838.36 21.66
1130 24.6410 1896.77 1808.06 21.78
1131 24.6540 1842.10 1781.74 21.46
1132 24.6670 1841.67 1759.36 21.46
1133 24.6800 1839.17 1740.92 21.44
1134 24.6930 1804.31 1726.48 21.24
1135 24.7060 1840.99 1716.16 21.45
1136 24.7190 1806.60 1710.17 21.25
1137 24.7320 1781.24 1708.80 21.10
1138 24.7450 1823.70 1712.45 21.35
1139 24.7580 1840.76 1721.68 21.45
1140 24.7710 1855.44 1737.17 21.54
1141 24.7840 1890.70 1759.79 21.74
1142 24.7970 1906.93 1790.57 21.83
1143 24.8100 1973.26 1830.81 22.21
1144 24.8230 1984.34 1881.96 22.27
1145 24.8360 2015.14 1945.75 22.45
1146 24.8490 2105.86 2024.02 22.94
1147 24.8620 2172.04 2118.85 23.30
1148 24.8750 2246.59 2232.31 23.70
1149 24.8880 2341.63 2366.46 24.20
1150 24.9010 2449.26 2523.04 24.75
1151 24.9140 2613.98 2703.43 25.56
1152 24.9270 2813.18 2908.13 26.52
1153 24.9400 3061.16 3136.57 27.66
1154 24.9530 3349.84 3386.44 28.94
1155 24.9660 3645.67 3653.38 30.19
1156 24.9790 4051.90 3929.92 31.83
1157 24.9920 4503.64 4204.94 33.55
1158 25.0050 4995.35 4463.30 35.34
1159 25.0180 5407.30 4685.96 36.77
1160 25.0310 5675.43 4851.86 37.67
1161 25.0440 5827.78 4941.35 38.17
1162 25.0570 5661.58 4941.16 37.62
1163 25.0700 5340.16 4848.59 36.54
1164 25.0830 4901.10 4672.97 35.00
1165 25.0960 4402.46 4433.44 33.18
1166 25.1090 3944.46 4153.78 31.40
1167 25.1220 3540.37 3857.65 29.75
1168 25.1350 3190.57 3564.49 28.24
1169 25.1480 2914.79 3288.22 26.99
1170 25.1610 2691.60 3036.79 25.94
1171 25.1740 2501.76 2813.68 25.01
1172 25.1870 2336.91 2618.89 24.17
1173 25.2000 2216.39 2450.53 23.54
1174 25.2130 2104.59 2305.60 22.94
1175 25.2260 1957.37 2180.94 22.12
1176 25.2390 1884.32 2073.43 21.70
1177 25.2520 1819.37 1980.33 21.33
1178 25.2650 1746.62 1899.21 20.90
1179 25.2780 1713.23 1828.09 20.70
1180 25.2910 1655.18 1765.29 20.34
1181 25.3040 1601.29 1709.45 20.01
1182 25.3170 1559.74 1659.40 19.75
1183 25.3300 1532.69 1614.26 19.57
1184 25.3430 1504.58 1573.26 19.39
1185 25.3560 1473.69 1535.80 19.19
1186 25.3690 1446.65 1501.39 19.02
1187 25.3820 1417.42 1469.65 18.82
1188 25.3950 1412.29 1440.29 18.79
1189 25.4080 1390.05 1413.08 18.64
1190 25.4210 1354.31 1387.81 18.40
1191 25.4340 1330.76 1364.36 18.24
1192 25.4470 1313.48 1342.59 18.12
1193 25.4600 1303.65 1322.39 18.05
1194 25.4730 1278.40 1303.67 17.88
1195 25.4860 1262.08 1286.34 17.76
1196 25.4990 1260.79 1270.30 17.75
1197 25.5120 1232.76 1255.46 17.56
1198 25.5250 1217.38 1241.75 17.45
1199 25.5380 1218.82 1229.08 17.46
1200 25.5510 1191.75 1217.36 17.26
1201 25.5640 1208.50 1206.52 17.38
1202 25.5770 1194.75 1196.48 17.28
1203 25.5900 1193.85 1187.18 17.28
1204 25.6030 1169.17 1178.54 17.10
1205 25.6160 1161.69 1170.50 17.04
1206 25.6290 1166.16 1163.00 17.07
1207 25.6420 1136.50 1156.01 16.86
1208 25.6550 1124.92 1149.46 16.77
1209 25.6680 1127.86 1143.32 16.79
1210 25.6810 1139.81 1137.55 16.88
1211 25.6940 1163.71 1132.12 17.06
1212 25.7070 1139.55 1126.99 16.88
1213 25.7200 1119.45 1122.14 16.73
1214 25.7330 1135.59 1117.55 16.85
1215 25.7460 1094.37 1113.20 16.54
1216 25.7590 1099.32 1109.06 16.58
1217 25.7720 1136.57 1105.13 16.86
1218 25.7850 1107.72 1101.38 16.64
1219 25.7980 1103.89 1097.81 16.61
1220 25.8110 1091.92 1094.39 16.52
1221 25.8240 1103.41 1091.13 16.61
1222 25.8370 1087.10 1088.01 16.49
1223 25.8500 1050.73 1085.02 16.21
1224 25.8630 1085.61 1082.15 16.47
1225 25.8760 1102.66 1079.40 16.60
1226 25.8890 1072.71 1076.76 16.38
1227 25.9020 1080.81 1074.23 16.44
1228 25.9150 1083.87 1071.79 16.46
1229 25.9280 1058.38 1069.44 16.27
1230 25.9410 1064.91 1067.18 16.32
1231 25.9540 1068.18 1065.01 16.34
1232 25.9670 1059.57 1055.88 16.28
1233 25.9800 1029.48 1053.92 16.04
1234 25.9930 1033.69 1052.03 16.08
1235 26.0060 1026.05 1050.21 16.02
1236 26.0190 1045.88 1048.46 16.17
1237 26.0320 1061.48 1046.76 16.29
1238 26.0450 1062.98 1045.28 16.30
1239 26.0580 1038.81 1043.70 16.12
1240 26.0710 1009.20 1042.17 15.88
1241 26.0840 1025.25 1040.69 16.01
1242 26.0970 1023.68 1039.26 16.00
1243 26.1100 1042.06 1037.87 16.14
1244 26.1230 1035.95 1036.53 16.09
1245 26.1360 1025.47 1035.23 16.01
1246 26.1490 1016.94 1033.97 15.94
1247 26.1620 1007.75 1032.75 15.87
1248 26.1750 1017.30 1031.57 15.95
1249 26.1880 1029.77 1030.42 16.05
1250 26.2010 1003.73 1029.30 15.84
1251 26.2140 986.88 1026.77 15.71
1252 26.2270 1004.97 1025.73 15.85
1253 26.2400 1020.53 1024.72 15.97
1254 26.2530 1029.90 1023.74 16.05
1255 26.2660 1017.51 1022.79 15.95
1256 26.2790 1018.62 1021.86 15.96
1257 26.2920 1001.28 1022.25 15.82
1258 26.3050 1027.29 1020.50 16.03
1259 26.3180 1017.54 1019.67 15.95
1260 26.3310 1013.62 1018.87 15.92
1261 26.3440 1025.32 1018.08 16.01
1262 26.3570 1013.81 1017.32 15.92
1263 26.3700 1007.65 1016.58 15.87
1264 26.3830 998.79 1015.85 15.80
1265 26.3960 992.55 1015.15 15.75
1266 26.4090 999.86 1014.47 15.81
1267 26.4220 995.39 1013.80 15.77
1268 26.4350 973.64 1013.15 15.60
1269 26.4480 993.03 1012.52 15.76
1270 26.4610 1004.91 1011.90 15.85
1271 26.4740 1019.80 1011.30 15.97
1272 26.4870 1007.17 1010.72 15.87
1273 26.5000 986.96 1010.15 15.71
1274 26.5130 1005.88 1009.59 15.86
1275 26.5260 1018.43 1009.05 15.96
1276 26.5390 1025.13 1008.52 16.01
1277 26.5520 1028.72 1008.01 16.04
1278 26.5650 1000.96 1007.51 15.82
1279 26.5780 984.75 1007.02 15.69
1280 26.5910 992.72 1006.54 15.75
1281 26.6040 981.55 1006.08 15.66
1282 26.6170 974.33 1005.62 15.61
1283 26.6300 973.49 1005.18 15.60
1284 26.6430 961.73 1004.75 15.51
1285 26.6560 972.78 1004.33 15.59
1286 26.6690 973.46 1003.92 15.60
1287 26.6820 955.18 1003.51 15.45
1288 26.6950 964.15 1003.12 15.53
1289 26.7080 977.66 1002.74 15.63
1290 26.7210 981.02 1002.37 15.66
1291 26.7340 969.85 1002.01 15.57
1292 26.7470 990.84 1001.65 15.74
1293 26.7600 1001.03 1001.31 15.82
1294 26.7730 972.78 1000.97 15.59
1295 26.7860 982.18 1000.64 15.67
1296 26.7990 983.85 1000.32 15.68
1297 26.8120 991.08 1000.01 15.74
1298 26.8250 966.87 999.70 15.55
1299 26.8380 964.32 999.41 15.53
1300 26.8510 975.21 999.11 15.61
1301 26.8640 975.84 998.83 15.62
1302 26.8770 954.53 998.56 15.45
1303 26.8900 945.98 998.29 15.38
1304 26.9030 945.83 998.03 15.38
1305 26.9160 949.88 997.77 15.41
1306 26.9290 948.58 997.52 15.40
1307 26.9420 944.94 997.28 15.37
1308 26.9550 957.89 997.04 15.47
1309 26.9680 978.74 982.20 15.64
1310 26.9810 968.12 982.11 15.56
1311 26.9940 955.83 982.03 15.46
1312 27.0070 950.81 981.95 15.42
1313 27.0200 956.02 981.87 15.46
1314 27.0330 974.00 981.80 15.60
1315 27.0460 963.70 981.74 15.52
1316 27.0590 949.10 981.67 15.40
1317 27.0720 968.35 981.61 15.56
1318 27.0850 992.28 981.56 15.75
1319 27.0980 964.03 981.51 15.52
1320 27.1110 975.44 981.46 15.62
1321 27.1240 976.91 981.41 15.63
1322 27.1370 971.77 981.37 15.59
1323 27.1500 957.34 981.33 15.47
1324 27.1630 976.73 981.30 15.63
1325 27.1760 967.68 981.27 15.55
1326 27.1890 976.79 981.24 15.63
1327 27.2020 963.01 981.22 15.52
1328 27.2150 962.72 981.20 15.51
1329 27.2280 940.83 981.18 15.34
1330 27.2410 965.09 981.17 15.53
1331 27.2540 974.60 981.16 15.61
1332 27.2670 954.56 981.16 15.45
1333 27.2800 952.80 981.15 15.43
1334 27.2930 961.10 981.16 15.50
1335 27.3060 955.71 981.16 15.46
1336 27.3190 950.61 981.17 15.42
1337 27.3320 940.56 981.18 15.33
1338 27.3450 974.71 981.20 15.61
1339 27.3580 978.23 981.22 15.64
1340 27.3710 950.55 981.24 15.42
1341 27.3840 941.29 981.27 15.34
1342 27.3970 957.11 981.30 15.47
1343 27.4100 936.17 981.33 15.30
1344 27.4230 947.24 981.37 15.39
1345 27.4360 947.65 981.41 15.39
1346 27.4490 942.04 981.46 15.35
1347 27.4620 953.58 981.51 15.44
1348 27.4750 972.14 981.57 15.59
1349 27.4880 969.52 981.63 15.57
1350 27.5010 948.14 981.69 15.40
1351 27.5140 955.76 981.76 15.46
1352 27.5270 955.58 981.83 15.46
1353 27.5400 957.76 981.91 15.47
1354 27.5530 958.00 983.32 15.48
1355 27.5660 987.98 983.42 15.72
1356 27.5790 977.01 983.53 15.63
1357 27.5920 958.02 983.64 15.48
1358 27.6050 959.66 983.76 15.49
1359 27.6180 949.13 983.88 15.40
1360 27.6310 936.98 984.01 15.31
1361 27.6440 919.27 984.14 15.16
1362 27.6570 941.73 984.28 15.34
1363 27.6700 960.42 984.43 15.50
1364 27.6830 948.00 984.59 15.39
1365 27.6960 962.06 984.75 15.51
1366 27.7090 952.38 984.92 15.43
1367 27.7220 931.71 985.09 15.26
1368 27.7350 943.39 985.28 15.36
1369 27.7480 955.12 985.47 15.45
1370 27.7610 936.78 985.67 15.30
1371 27.7740 933.14 985.88 15.27
1372 27.7870 945.95 981.47 15.38
1373 27.8000 941.58 981.74 15.34
1374 27.8130 937.82 982.02 15.31
1375 27.8260 952.42 981.36 15.43
1376 27.8390 949.21 981.67 15.40
1377 27.8520 932.90 982.00 15.27
1378 27.8650 953.18 982.33 15.44
1379 27.8780 961.43 982.68 15.50
1380 27.8910 949.62 983.03 15.41
1381 27.9040 953.47 983.41 15.44
1382 27.9170 957.39 983.79 15.47
1383 27.9300 956.27 984.20 15.46
1384 27.9430 937.03 984.61 15.31
1385 27.9560 925.86 985.05 15.21
1386 27.9690 934.12 985.50 15.28
1387 27.9820 942.06 985.97 15.35
1388 27.9950 962.64 986.47 15.51
1389 28.0080 971.86 986.98 15.59
1390 28.0210 960.48 987.52 15.50
1391 28.0340 946.25 988.08 15.38
1392 28.0470 940.53 988.66 15.33
1393 28.0600 952.91 989.28 15.43
1394 28.0730 958.62 989.92 15.48
1395 28.0860 957.31 990.59 15.47
1396 28.0990 946.73 991.30 15.38
1397 28.1120 956.57 992.04 15.46
1398 28.1250 967.46 992.82 15.55
1399 28.1380 968.64 993.64 15.56
1400 28.1510 977.61 994.50 15.63
1401 28.1640 965.34 995.41 15.53
1402 28.1770 976.36 996.38 15.62
1403 28.1900 989.85 997.39 15.73
1404 28.2030 973.40 998.47 15.60
1405 28.2160 967.06 999.61 15.55
1406 28.2290 968.06 1000.83 15.56
1407 28.2420 957.30 1005.26 15.47
1408 28.2550 988.26 1006.68 15.72
1409 28.2680 978.54 1008.20 15.64
1410 28.2810 996.77 1009.84 15.79
1411 28.2940 978.31 1012.94 15.64
1412 28.3070 996.25 1014.87 15.78
1413 28.3200 1006.08 1016.97 15.86
1414 28.3330 994.33 1019.27 15.77
1415 28.3460 1000.36 1021.79 15.81
1416 28.3590 994.31 1024.58 15.77
1417 28.3720 992.10 1027.67 15.75
1418 28.3850 1010.26 1031.10 15.89
1419 28.3980 1017.88 1034.94 15.95
1420 28.4110 1034.08 1039.25 16.08
1421 28.4240 1025.26 1044.10 16.01
1422 28.4370 1024.67 1049.57 16.01
1423 28.4500 1072.30 1055.74 16.37
1424 28.4630 1033.14 1062.70 16.07
1425 28.4760 1033.48 1070.55 16.07
1426 28.4890 1076.00 1079.36 16.40
1427 28.5020 1092.49 1089.20 16.53
1428 28.5150 1061.72 1100.11 16.29
1429 28.5280 1118.83 1112.07 16.72
1430 28.5410 1102.79 1124.99 16.60
1431 28.5540 1138.19 1138.65 16.87
1432 28.5670 1141.70 1152.72 16.89
1433 28.5800 1138.12 1166.71 16.87
1434 28.5930 1134.16 1180.16 16.84
1435 28.6060 1142.57 1192.71 16.90
1436 28.6190 1167.25 1204.36 17.08
1437 28.6320 1199.09 1215.60 17.31
1438 28.6450 1212.11 1227.38 17.41
1439 28.6580 1221.44 1240.93 17.47
1440 28.6710 1220.46 1257.55 17.47
1441 28.6840 1252.36 1278.36 17.69
1442 28.6970 1253.39 1304.28 17.70
1443 28.7100 1295.52 1336.01 18.00
1444 28.7230 1328.27 1373.96 18.22
1445 28.7360 1388.32 1418.29 18.63
1446 28.7490 1447.91 1468.80 19.03
1447 28.7620 1474.11 1524.74 19.20
1448 28.7750 1560.98 1584.64 19.75
1449 28.7880 1634.87 1645.95 20.22
1450 28.8010 1709.96 1704.82 20.68
1451 28.8140 1808.68 1756.11 21.26
1452 28.8270 1850.86 1793.81 21.51
1453 28.8400 1891.48 1812.32 21.75
1454 28.8530 1909.20 1808.09 21.85
1455 28.8660 1890.43 1781.04 21.74
1456 28.8790 1840.60 1734.84 21.45
1457 28.8920 1771.08 1675.67 21.04
1458 28.9050 1693.49 1610.33 20.58
1459 28.9180 1607.26 1544.54 20.05
1460 28.9310 1518.75 1482.32 19.49
1461 28.9440 1444.08 1425.86 19.00
1462 28.9570 1379.88 1375.98 18.57
1463 28.9700 1343.68 1332.65 18.33
1464 28.9830 1309.22 1295.34 18.09
1465 28.9960 1277.13 1263.35 17.87
1466 29.0090 1257.60 1235.93 17.73
1467 29.0220 1209.79 1212.34 17.39
1468 29.0350 1210.68 1191.98 17.40
1469 29.0480 1189.32 1174.31 17.24
1470 29.0610 1170.94 1158.88 17.11
1471 29.0740 1161.09 1145.31 17.04
1472 29.0870 1142.33 1133.31 16.90
1473 29.1000 1137.70 1122.64 16.86
1474 29.1130 1133.44 1113.09 16.83
1475 29.1260 1114.62 1104.50 16.69
1476 29.1390 1090.73 1096.76 16.51
1477 29.1520 1084.24 1089.75 16.46
1478 29.1650 1086.96 1083.41 16.48
1479 29.1780 1079.45 1077.67 16.43
1480 29.1910 1076.92 1088.44 16.41
1481 29.2040 1069.74 1083.92 16.35
1482 29.2170 1071.97 1079.87 16.37
1483 29.2300 1075.32 1076.24 16.40
1484 29.2430 1074.79 1073.02 16.39
1485 29.2560 1085.25 1070.17 16.47
1486 29.2690 1076.91 1067.67 16.41
1487 29.2820 1069.82 1065.49 16.35
1488 29.2950 1079.15 1063.60 16.43
1489 29.3080 1078.17 1061.99 16.42
1490 29.3210 1053.75 1060.63 16.23
1491 29.3340 1051.86 1059.50 16.22
1492 29.3470 1045.49 1058.59 16.17
1493 29.3600 1035.09 1057.88 16.09
1494 29.3730 1049.42 1057.36 16.20
1495 29.3860 1051.27 1057.02 16.21
1496 29.3990 1057.19 1056.84 16.26
1497 29.4120 1058.63 1056.82 16.27
1498 29.4250 1076.05 1056.95 16.40
1499 29.4380 1062.75 1057.22 16.30
1500 29.4510 1081.16 1057.63 16.44
1501 29.4640 1080.10 1058.19 16.43
1502 29.4770 1058.78 1058.87 16.27
1503 29.4900 1066.72 1059.69 16.33
1504 29.5030 1043.64 1061.64 16.15
1505 29.5160 1062.83 1062.74 16.30
1506 29.5290 1068.25 1065.16 16.34
1507 29.5420 1037.05 1066.56 16.10
1508 29.5550 1035.06 1068.09 16.09
1509 29.5680 1060.05 1069.77 16.28
1510 29.5810 1055.44 1071.61 16.24
1511 29.5940 1053.43 1073.61 16.23
1512 29.6070 1067.67 1075.78 16.34
1513 29.6200 1037.69 1078.13 16.11
1514 29.6330 1095.25 1080.68 16.55
1515 29.6460 1088.61 1083.45 16.50
1516 29.6590 1085.84 1086.46 16.48
1517 29.6720 1081.51 1089.74 16.44
1518 29.6850 1080.78 1093.34 16.44
1519 29.6980 1087.06 1097.31 16.49
1520 29.7110 1073.18 1101.69 16.38
1521 29.7240 1109.88 1106.58 16.66
1522 29.7370 1110.35 1112.06 16.66
1523 29.7500 1104.97 1118.24 16.62
1524 29.7630 1120.35 1125.27 16.74
1525 29.7760 1096.12 1133.31 16.55
1526 29.7890 1126.63 1142.56 16.78
1527 29.8020 1134.92 1153.24 16.84
1528 29.8150 1158.01 1165.64 17.01
1529 29.8280 1166.41 1180.06 17.08
1530 29.8410 1161.61 1196.88 17.04
1531 29.8540 1201.21 1216.51 17.33
1532 29.8670 1204.23 1239.42 17.35
1533 29.8800 1240.48 1266.09 17.61
1534 29.8930 1234.96 1297.09 17.57
1535 29.9060 1258.50 1332.95 17.74
1536 29.9190 1277.54 1374.16 17.87
1537 29.9320 1325.48 1421.11 18.20
1538 29.9450 1397.75 1474.02 18.69
1539 29.9580 1445.56 1532.63 19.01
1540 29.9710 1517.72 1596.15 19.48
1541 29.9840 1617.61 1662.71 20.11
1542 29.9970 1723.64 1729.17 20.76
1543 30.0100 1788.51 1790.78 21.15
1544 30.0230 1849.47 1841.45 21.50
1545 30.0360 1910.61 1874.75 21.86
1546 30.0490 1913.53 1885.58 21.87
1547 30.0620 1869.25 1872.16 21.62
1548 30.0750 1768.66 1836.87 21.03
1549 30.0880 1699.94 1785.53 20.62
1550 30.1010 1655.79 1725.34 20.35
1551 30.1140 1604.39 1662.92 20.03
1552 30.1270 1531.46 1603.12 19.57
1553 30.1400 1498.42 1548.79 19.35
1554 30.1530 1485.86 1501.19 19.27
1555 30.1660 1431.02 1460.49 18.91
1556 30.1790 1391.05 1426.29 18.65
1557 30.1920 1389.56 1397.87 18.64
1558 30.2050 1384.27 1374.48 18.60
1559 30.2180 1381.31 1355.39 18.58
1560 30.2310 1365.69 1339.96 18.48
1561 30.2440 1358.21 1327.64 18.43
1562 30.2570 1366.92 1318.00 18.49
1563 30.2700 1354.15 1310.68 18.40
1564 30.2830 1376.47 1305.42 18.55
1565 30.2960 1378.86 1302.00 18.57
1566 30.3090 1379.68 1300.28 18.57
1567 30.3220 1386.40 1300.19 18.62
1568 30.3350 1403.17 1301.68 18.73
1569 30.3480 1383.41 1304.78 18.60
1570 30.3610 1395.22 1309.53 18.68
1571 30.3740 1425.65 1316.06 18.88
1572 30.3870 1440.32 1324.51 18.98
1573 30.4000 1447.78 1335.12 19.02
1574 30.4130 1439.18 1348.16 18.97
1575 30.4260 1464.71 1363.99 19.14
1576 30.4390 1513.68 1383.04 19.45
1577 30.4520 1551.38 1405.85 19.69
1578 30.4650 1563.25 1433.08 19.77
1579 30.4780 1576.92 1465.45 19.86
1580 30.4910 1599.03 1503.91 19.99
1581 30.5040 1633.79 1549.47 20.21
1582 30.5170 1687.27 1603.34 20.54
1583 30.5300 1743.77 1670.59 20.88
1584 30.5430 1807.17 1745.37 21.26
1585 30.5560 1846.53 1833.01 21.49
1586 30.5690 1901.20 1935.22 21.80
1587 30.5820 1979.37 2053.64 22.25
1588 30.5950 2046.53 2189.78 22.62
1589 30.6080 2151.95 2344.48 23.19
1590 30.6210 2270.69 2517.55 23.83
1591 30.6340 2398.98 2706.85 24.49
1592 30.6470 2548.40 2907.54 25.24
1593 30.6600 2701.70 3110.66 25.99
1594 30.6730 2844.38 3303.05 26.67
1595 30.6860 2962.72 3467.79 27.22
1596 30.6990 3063.29 3587.54 27.67
1597 30.7120 3144.76 3648.66 28.04
1598 30.7250 3154.17 3645.42 28.08
1599 30.7380 3102.87 3580.98 27.85
1600 30.7510 3022.86 3465.27 27.49
1601 30.7640 2945.35 3311.81 27.14
1602 30.7770 2804.78 3134.96 26.48
1603 30.7900 2668.26 2948.57 25.83
1604 30.8030 2556.12 2764.34 25.28
1605 30.8160 2422.08 2591.03 24.61
1606 30.8290 2322.42 2433.93 24.10
1607 30.8420 2213.71 2295.31 23.52
1608 30.8550 2164.65 2175.11 23.26
1609 30.8680 2111.94 2072.07 22.98
1610 30.8810 2063.53 1984.21 22.71
1611 30.8940 2019.03 1909.49 22.47
1612 30.9070 1962.76 1845.89 22.15
1613 30.9200 1929.83 1791.70 21.96
1614 30.9330 1855.63 1745.43 21.54
1615 30.9460 1847.96 1705.89 21.49
1616 30.9590 1843.33 1672.07 21.47
1617 30.9720 1795.34 1643.22 21.19
1618 30.9850 1846.24 1618.70 21.48
1619 30.9980 1789.23 1598.05 21.15
1620 31.0110 1760.82 1580.89 20.98
1621 31.0240 1754.22 1566.93 20.94
1622 31.0370 1743.84 1555.95 20.88
1623 31.0500 1751.71 1547.76 20.93
1624 31.0630 1776.51 1542.22 21.07
1625 31.0760 1761.53 1539.23 20.99
1626 31.0890 1766.36 1538.69 21.01
1627 31.1020 1787.17 1540.54 21.14
1628 31.1150 1837.51 1544.71 21.43
1629 31.1280 1857.29 1551.18 21.55
1630 31.1410 1858.02 1559.92 21.55
1631 31.1540 1843.75 1570.93 21.47
1632 31.1670 1879.89 1584.24 21.68
1633 31.1800 1927.62 1599.89 21.95
1634 31.1930 1925.33 1617.97 21.94
1635 31.2060 2028.96 1638.46 22.52
1636 31.2190 2037.06 1661.83 22.57
1637 31.2320 2038.45 1688.21 22.57
1638 31.2450 2056.55 1717.90 22.67
1639 31.2580 2122.67 1751.35 23.04
1640 31.2710 2168.73 1789.10 23.28
1641 31.2840 2257.82 1831.88 23.76
1642 31.2970 2273.70 1880.52 23.84
1643 31.3100 2328.21 1936.16 24.13
1644 31.3230 2428.03 2000.08 24.64
1645 31.3360 2484.83 2073.94 24.92
1646 31.3490 2542.55 2159.63 25.21
1647 31.3620 2625.41 2263.89 25.62
1648 31.3750 2785.60 2380.70 26.39
1649 31.3880 2875.08 2517.61 26.81
1650 31.4010 3025.20 2678.29 27.50
1651 31.4140 3185.07 2867.16 28.22
1652 31.4270 3355.06 3087.85 28.96
1653 31.4400 3520.74 3348.46 29.67
1654 31.4530 3760.29 3654.03 30.66
1655 31.4660 4033.31 4011.48 31.75
1656 31.4790 4383.05 4427.84 33.10
1657 31.4920 4739.92 4909.98 34.42
1658 31.5050 5220.99 5463.28 36.13
1659 31.5180 5771.31 6090.36 37.98
1660 31.5310 6451.05 6787.21 40.16
1661 31.5440 7176.09 7539.06 42.36
1662 31.5570 8039.83 8315.51 44.83
1663 31.5700 8988.29 9064.31 47.40
1664 31.5830 9849.38 9712.48 49.62
1665 31.5960 10603.00 10174.30 51.49
1666 31.6090 10984.80 10374.30 52.40
1667 31.6220 10982.10 10274.10 52.40
1668 31.6350 10557.60 9890.80 51.38
1669 31.6480 9878.71 9291.23 49.70
1670 31.6610 9044.14 8566.15 47.55
1671 31.6740 8105.15 7802.55 45.01
1672 31.6870 7271.49 7064.45 42.64
1673 31.7000 6478.94 6390.58 40.25
1674 31.7130 5758.73 5797.49 37.94
1675 31.7260 5228.43 5288.13 36.15
1676 31.7390 4818.75 4857.42 34.71
1677 31.7520 4459.98 4497.05 33.39
1678 31.7650 4134.50 4197.70 32.15
1679 31.7780 3882.86 3951.05 31.16
1680 31.7910 3661.38 3749.75 30.25
1681 31.8040 3462.37 3588.01 29.42
1682 31.8170 3329.22 3461.06 28.85
1683 31.8300 3229.73 3365.16 28.42
1684 31.8430 3187.66 3296.99 28.23
1685 31.8560 3151.82 3253.10 28.07
1686 31.8690 3104.11 3229.23 27.86
1687 31.8820 3093.10 3219.62 27.81
1688 31.8950 3053.85 3216.50 27.63
1689 31.9080 3081.59 3210.18 27.76
1690 31.9210 3120.24 3190.30 27.93
1691 31.9340 3022.29 3147.77 27.49
1692 31.9470 2950.62 3077.13 27.16
1693 31.9600 2844.34 2978.12 26.67
1694 31.9730 2700.99 2855.60 25.99
1695 31.9860 2583.11 2718.16 25.41
1696 31.9990 2465.12 2575.48 24.83
1697 32.0120 2314.74 2435.87 24.06
1698 32.0250 2203.34 2305.20 23.47
1699 32.0380 2138.93 2186.63 23.12
1700 32.0510 2035.78 2081.11 22.56
1701 32.0640 1962.93 1988.23 22.15
1702 32.0770 1909.55 1906.90 21.85
1703 32.0900 1848.28 1835.72 21.50
1704 32.1030 1779.79 1773.27 21.09
1705 32.1160 1743.71 1718.22 20.88
1706 32.1290 1697.31 1669.46 20.60
1707 32.1420 1671.62 1626.00 20.44
1708 32.1550 1620.08 1587.06 20.13
1709 32.1680 1584.72 1551.98 19.90
1710 32.1810 1570.89 1520.25 19.82
1711 32.1940 1546.65 1491.44 19.66
1712 32.2070 1510.80 1465.21 19.43
1713 32.2200 1473.49 1441.26 19.19
1714 32.2330 1445.88 1419.38 19.01
1715 32.2460 1430.24 1399.35 18.91
1716 32.2590 1403.98 1381.02 18.73
1717 32.2720 1391.38 1364.24 18.65
1718 32.2850 1382.36 1348.88 18.59
1719 32.2980 1358.58 1334.83 18.43
1720 32.3110 1365.79 1321.99 18.48
1721 32.3240 1363.45 1310.27 18.46
1722 32.3370 1327.48 1299.58 18.22
1723 32.3500 1306.00 1289.85 18.07
1724 32.3630 1289.64 1281.01 17.96
1725 32.3760 1297.27 1272.99 18.01
1726 32.3890 1305.45 1265.74 18.07
1727 32.4020 1287.38 1259.20 17.94
1728 32.4150 1305.69 1267.81 18.07
1729 32.4280 1277.56 1262.72 17.87
1730 32.4410 1293.11 1258.24 17.98
1731 32.4540 1286.55 1254.32 17.93
1732 32.4670 1255.06 1250.96 17.71
1733 32.4800 1266.45 1248.12 17.79
1734 32.4930 1294.57 1245.80 17.99
1735 32.5060 1266.99 1243.98 17.80
1736 32.5190 1224.78 1242.65 17.50
1737 32.5320 1258.59 1241.81 17.74
1738 32.5450 1267.82 1241.45 17.80
1739 32.5580 1248.62 1241.58 17.67
1740 32.5710 1255.12 1240.89 17.71
1741 32.5840 1248.67 1242.03 17.67
1742 32.5970 1245.75 1243.69 17.65
1743 32.6100 1253.12 1245.90 17.70
1744 32.6230 1248.92 1248.67 17.67
1745 32.6360 1243.44 1252.05 17.63
1746 32.6490 1241.46 1256.08 17.62
1747 32.6620 1285.33 1260.83 17.93
1748 32.6750 1252.59 1266.38 17.70
1749 32.6880 1277.86 1272.83 17.87
1750 32.7010 1282.19 1280.31 17.90
1751 32.7140 1260.13 1288.98 17.75
1752 32.7270 1286.32 1299.02 17.93
1753 32.7400 1303.81 1310.67 18.05
1754 32.7530 1338.09 1324.24 18.29
1755 32.7660 1329.30 1340.08 18.23
1756 32.7790 1361.03 1358.60 18.45
1757 32.7920 1373.77 1380.33 18.53
1758 32.8050 1418.48 1405.85 18.83
1759 32.8180 1460.57 1435.91 19.11
1760 32.8310 1478.62 1471.32 19.23
1761 32.8440 1497.35 1513.04 19.35
1762 32.8570 1520.29 1562.20 19.50
1763 32.8700 1616.27 1620.07 20.10
1764 32.8830 1711.85 1688.02 20.69
1765 32.8960 1768.90 1767.56 21.03
1766 32.9090 1827.45 1860.20 21.37
1767 32.9220 1969.18 1967.50 22.19
1768 32.9350 2047.78 2090.66 22.63
1769 32.9480 2181.42 2230.30 23.35
1770 32.9610 2363.24 2386.00 24.31
1771 32.9740 2530.28 2555.42 25.15
1772 32.9870 2728.65 2733.24 26.12
1773 33.0000 2918.31 2910.18 27.01
1774 33.0130 3020.67 3072.44 27.48
1775 33.0260 3084.86 3202.78 27.77
1776 33.0390 3040.13 3283.51 27.57
1777 33.0520 2953.81 3301.75 27.17
1778 33.0650 2844.09 3254.30 26.67
1779 33.0780 2671.99 3149.05 25.85
1780 33.0910 2493.50 3002.22 24.97
1781 33.1040 2312.53 2832.74 24.04
1782 33.1170 2134.35 2657.42 23.10
1783 33.1300 1980.98 2488.21 22.25
1784 33.1430 1874.61 2332.24 21.65
1785 33.1560 1795.49 2192.72 21.19
1786 33.1690 1711.59 2070.17 20.69
1787 33.1820 1636.79 1963.67 20.23
1788 33.1950 1586.01 1868.55 19.91
1789 33.2080 1537.89 1789.23 19.61
1790 33.2210 1477.09 1720.79 19.22
1791 33.2340 1443.96 1661.63 19.00
1792 33.2470 1426.65 1609.00 18.89
1793 33.2600 1391.41 1564.33 18.65
1794 33.2730 1352.56 1525.30 18.39
1795 33.2860 1329.03 1491.09 18.23
1796 33.2990 1317.85 1461.01 18.15
1797 33.3120 1311.42 1434.51 18.11
1798 33.3250 1288.51 1411.14 17.95
1799 33.3380 1279.03 1390.54 17.88
1800 33.3510 1247.17 1372.41 17.66
1801 33.3640 1255.38 1356.51 17.72
1802 33.3770 1278.65 1342.63 17.88
1803 33.3900 1224.31 1330.61 17.50
1804 33.4030 1225.89 1320.30 17.51
1805 33.4160 1224.88 1311.59 17.50
1806 33.4290 1229.38 1304.37 17.53
1807 33.4420 1233.30 1298.53 17.56
1808 33.4550 1234.26 1294.02 17.57
1809 33.4680 1241.67 1290.74 17.62
1810 33.4810 1238.86 1288.65 17.60
1811 33.4940 1230.06 1287.70 17.54
1812 33.5070 1256.55 1287.86 17.72
1813 33.5200 1255.36 1289.12 17.72
1814 33.5330 1255.48 1291.46 17.72
1815 33.5460 1261.99 1294.92 17.76
1816 33.5590 1260.39 1299.52 17.75
1817 33.5720 1274.86 1305.34 17.85
1818 33.5850 1298.87 1312.46 18.02
1819 33.5980 1281.60 1321.03 17.90
1820 33.6110 1308.03 1331.20 18.08
1821 33.6240 1304.97 1343.19 18.06
1822 33.6370 1356.71 1357.29 18.42
1823 33.6500 1383.28 1373.82 18.60
1824 33.6630 1392.92 1393.19 18.66
1825 33.6760 1400.47 1415.93 18.71
1826 33.6890 1413.86 1442.63 18.80
1827 33.7020 1450.64 1474.03 19.04
1828 33.7150 1501.10 1510.97 19.37
1829 33.7280 1557.80 1554.48 19.73
1830 33.7410 1565.44 1605.71 19.78
1831 33.7540 1603.20 1665.98 20.02
1832 33.7670 1699.78 1743.21 20.61
1833 33.7800 1741.27 1826.24 20.86
1834 33.7930 1867.01 1923.18 21.60
1835 33.8060 1977.55 2035.76 22.23
1836 33.8190 2075.78 2165.61 22.78
1837 33.8320 2203.39 2314.11 23.47
1838 33.8450 2382.34 2481.83 24.40
1839 33.8580 2572.23 2668.06 25.36
1840 33.8710 2851.65 2870.03 26.70
1841 33.8840 3096.64 3081.81 27.82
1842 33.8970 3411.98 3293.06 29.21
1843 33.9100 3610.03 3488.60 30.04
1844 33.9230 3985.71 3649.31 31.57
1845 33.9360 4220.61 3755.43 32.48
1846 33.9490 4261.97 3791.61 32.64
1847 33.9620 4269.24 3752.38 32.67
1848 33.9750 4119.62 3644.33 32.09
1849 33.9880 3905.90 3483.72 31.25
1850 34.0010 3640.14 3291.20 30.17
1851 34.0140 3382.35 3086.17 29.08
1852 34.0270 3114.88 2883.53 27.91
1853 34.0400 2887.19 2692.95 26.87
1854 34.0530 2694.17 2503.57 25.95
1855 34.0660 2488.68 2349.05 24.94
1856 34.0790 2364.01 2213.19 24.31
1857 34.0920 2255.24 2094.68 23.74
1858 34.1050 2118.84 1991.81 23.02
1859 34.1180 1994.81 1902.69 22.33
1860 34.1310 1917.70 1825.52 21.90
1861 34.1440 1842.26 1758.65 21.46
1862 34.1570 1742.84 1700.58 20.87
1863 34.1700 1715.18 1650.07 20.71
1864 34.1830 1680.21 1606.01 20.50
1865 34.1960 1638.58 1567.50 20.24
1866 34.2090 1586.10 1533.77 19.91
1867 34.2220 1529.94 1504.17 19.56
1868 34.2350 1492.84 1478.20 19.32
1869 34.2480 1458.82 1455.42 19.10
1870 34.2610 1432.65 1436.50 18.93
1871 34.2740 1427.45 1419.10 18.89
1872 34.2870 1431.68 1404.00 18.92
1873 34.3000 1388.55 1391.00 18.63
1874 34.3130 1373.90 1379.93 18.53
1875 34.3260 1382.17 1370.63 18.59
1876 34.3390 1370.15 1362.98 18.51
1877 34.3520 1346.96 1356.88 18.35
1878 34.3650 1324.87 1351.25 18.20
1879 34.3780 1313.08 1347.96 18.12
1880 34.3910 1316.04 1345.96 18.14
1881 34.4040 1322.18 1344.02 18.18
1882 34.4170 1318.24 1344.43 18.15
1883 34.4300 1299.21 1345.97 18.02
1884 34.4430 1292.82 1348.60 17.98
1885 34.4560 1314.74 1352.31 18.13
1886 34.4690 1324.75 1357.07 18.20
1887 34.4820 1316.36 1362.87 18.14
1888 34.4950 1321.66 1369.73 18.18
1889 34.5080 1344.21 1377.63 18.33
1890 34.5210 1351.37 1386.61 18.38
1891 34.5340 1337.35 1396.68 18.28
1892 34.5470 1339.99 1408.25 18.30
1893 34.5600 1347.95 1420.61 18.36
1894 34.5730 1349.81 1434.19 18.37
1895 34.5860 1369.70 1449.05 18.50
1896 34.5990 1392.46 1465.26 18.66
1897 34.6120 1412.90 1482.93 18.79
1898 34.6250 1431.55 1502.14 18.92
1899 34.6380 1443.50 1523.05 19.00
1900 34.6510 1451.62 1545.82 19.05
1901 34.6640 1473.75 1570.66 19.19
1902 34.6770 1500.71 1597.79 19.37
1903 34.6900 1545.90 1627.55 19.66
1904 34.7030 1575.81 1660.31 19.85
1905 34.7160 1596.80 1696.54 19.98
1906 34.7290 1618.64 1736.78 20.12
1907 34.7420 1663.15 1781.75 20.39
1908 34.7550 1728.69 1832.31 20.79
1909 34.7680 1756.10 1889.47 20.95
1910 34.7810 1842.45 1954.46 21.46
1911 34.7940 1911.59 2028.87 21.86
1912 34.8070 1970.20 2114.49 22.19
1913 34.8200 2056.62 2213.47 22.67
1914 34.8330 2153.46 2328.37 23.20
1915 34.8460 2279.83 2462.25 23.87
1916 34.8590 2435.20 2618.57 24.67
1917 34.8720 2538.28 2801.26 25.19
1918 34.8850 2730.56 3014.84 26.13
1919 34.8980 2907.50 3264.30 26.96
1920 34.9110 3111.47 3554.89 27.89
1921 34.9240 3465.35 3892.09 29.43
1922 34.9370 3830.62 4281.27 30.95
1923 34.9500 4300.87 4727.09 32.79
1924 34.9630 4835.98 5233.20 34.77
1925 34.9760 5548.53 5800.11 37.24
1926 34.9890 6494.02 6424.49 40.29
1927 35.0020 7561.54 7095.33 43.48
1928 35.0150 8875.53 7792.13 47.10
1929 35.0280 10410.00 8480.70 51.01
1930 35.0410 11899.90 9112.83 54.54
1931 35.0540 13157.60 9629.46 57.35
1932 35.0670 13940.20 9971.09 59.03
1933 35.0800 13986.40 10092.20 59.13
1934 35.0930 13275.20 9976.60 57.61
1935 35.1060 12147.30 9643.13 55.11
1936 35.1190 10755.90 9139.02 51.86
1937 35.1320 9487.98 8525.27 48.70
1938 35.1450 8429.61 7860.85 45.91
1939 35.1580 7429.44 7193.65 43.10
1940 35.1710 6566.88 6554.18 40.52
1941 35.1840 5950.39 5962.01 38.57
1942 35.1970 5362.74 5426.55 36.62
1943 35.2100 4891.56 4947.51 34.97
1944 35.2230 4500.47 4523.73 33.54
1945 35.2360 4096.49 4151.19 32.00
1946 35.2490 3832.82 3824.85 30.95
1947 35.2620 3534.95 3539.45 29.73
1948 35.2750 3280.17 3289.99 28.64
1949 35.2880 3097.81 3071.71 27.83
1950 35.3010 2911.94 2880.32 26.98
1951 35.3140 2741.24 2712.15 26.18
1952 35.3270 2633.07 2563.84 25.66
1953 35.3400 2522.83 2432.59 25.11
1954 35.3530 2400.24 2315.99 24.50
1955 35.3660 2265.20 2212.01 23.80
1956 35.3790 2199.27 2118.99 23.45
1957 35.3920 2102.17 2035.40 22.92
1958 35.4050 2034.17 1960.11 22.55
1959 35.4180 1989.06 1892.14 22.30
1960 35.4310 1931.95 1830.67 21.98
1961 35.4440 1873.49 1774.97 21.64
1962 35.4570 1811.61 1724.45 21.28
1963 35.4700 1763.14 1678.58 20.99
1964 35.4830 1747.43 1636.94 20.90
1965 35.4960 1704.47 1599.07 20.64
1966 35.5090 1687.89 1564.62 20.54
1967 35.5220 1633.95 1533.26 20.21
1968 35.5350 1596.16 1504.71 19.98
1969 35.5480 1571.25 1478.68 19.82
1970 35.5610 1552.81 1454.93 19.70
1971 35.5740 1530.06 1433.25 19.56
1972 35.5870 1512.35 1409.80 19.44
1973 35.6000 1479.04 1391.70 19.23
1974 35.6130 1457.90 1375.14 19.09
1975 35.6260 1458.24 1359.96 19.09
1976 35.6390 1441.97 1346.04 18.99
1977 35.6520 1420.37 1333.27 18.84
1978 35.6650 1415.17 1321.55 18.81
1979 35.6780 1419.58 1310.80 18.84
1980 35.6910 1405.13 1300.94 18.74
1981 35.7040 1394.76 1291.89 18.67
1982 35.7170 1376.39 1283.60 18.55
1983 35.7300 1362.93 1276.03 18.46
1984 35.7430 1376.32 1269.12 18.55
1985 35.7560 1372.64 1262.85 18.52
1986 35.7690 1339.72 1257.17 18.30
1987 35.7820 1325.76 1252.05 18.21
1988 35.7950 1337.17 1247.49 18.28
1989 35.8080 1351.69 1243.44 18.38
1990 35.8210 1355.17 1239.89 18.41
1991 35.8340 1334.44 1236.84 18.26
1992 35.8470 1332.18 1234.27 18.25
1993 35.8600 1323.68 1232.17 18.19
1994 35.8730 1308.93 1230.54 18.09
1995 35.8860 1313.66 1229.37 18.12
1996 35.8990 1314.13 1228.66 18.13
1997 35.9120 1336.72 1228.41 18.28
1998 35.9250 1334.60 1228.62 18.27
1999 35.9380 1315.90 1229.31 18.14
2000 35.9510 1347.17 1230.47 18.35
2001 35.9640 1351.40 1232.11 18.38
2002 35.9770 1348.28 1234.25 18.36
2003 35.9900 1358.32 1236.90 18.43
2004 36.0030 1353.01 1240.08 18.39
2005 36.0160 1364.46 1243.81 18.47
2006 36.0290 1383.83 1248.10 18.60
2007 36.0420 1369.87 1252.99 18.51
2008 36.0550 1388.85 1258.50 18.63
2009 36.0680 1397.42 1264.68 18.69
2010 36.0810 1400.77 1271.57 18.71
2011 36.0940 1428.44 1279.21 18.90
2012 36.1070 1440.07 1287.69 18.97
2013 36.1200 1431.33 1297.07 18.92
2014 36.1330 1475.32 1307.45 19.20
2015 36.1460 1484.05 1318.94 19.26
2016 36.1590 1487.54 1331.68 19.28
2017 36.1720 1489.91 1345.86 19.30
2018 36.1850 1510.01 1361.66 19.43
2019 36.1980 1581.14 1379.36 19.88
2020 36.2110 1572.48 1399.28 19.83
2021 36.2240 1611.96 1421.79 20.07
2022 36.2370 1666.35 1447.37 20.41
2023 36.2500 1707.16 1476.58 20.66
2024 36.2630 1719.38 1510.13 20.73
2025 36.2760 1780.76 1548.82 21.10
2026 36.2890 1786.90 1593.63 21.14
2027 36.3020 1852.41 1645.71 21.52
2028 36.3150 1875.48 1706.44 21.65
2029 36.3280 1968.61 1777.35 22.18
2030 36.3410 2036.28 1860.16 22.56
2031 36.3540 2132.57 1956.86 23.09
2032 36.3670 2163.41 2069.58 23.26
2033 36.3800 2301.93 2200.55 23.99
2034 36.3930 2434.53 2352.06 24.67
2035 36.4060 2497.65 2526.35 24.99
2036 36.4190 2584.97 2725.46 25.42
2037 36.4320 2802.37 2955.97 26.47
2038 36.4450 2949.60 3207.79 27.16
2039 36.4580 3187.34 3484.88 28.23
2040 36.4710 3353.74 3783.20 28.96
2041 36.4840 3590.28 4094.92 29.96
2042 36.4970 3766.81 4407.04 30.69
2043 36.5100 4045.86 4701.58 31.80
2044 36.5230 4244.20 4955.00 32.57
2045 36.5360 4384.44 5142.45 33.11
2046 36.5490 4458.27 5238.19 33.39
2047 36.5620 4463.37 5239.05 33.40
2048 36.5750 4374.41 5141.87 33.07
2049 36.5880 4227.89 4960.66 32.51
2050 36.6010 4000.56 4717.83 31.62
2051 36.6140 3709.98 4437.70 30.45
2052 36.6270 3579.39 4142.40 29.91
2053 36.6400 3380.43 3848.85 29.07
2054 36.6530 3187.10 3568.47 28.23
2055 36.6660 2978.53 3308.00 27.29
2056 36.6790 2771.44 3070.57 26.32
2057 36.6920 2656.24 2857.17 25.77
2058 36.7050 2491.69 2667.36 24.96
2059 36.7180 2396.28 2499.65 24.48
2060 36.7310 2287.72 2352.39 23.92
2061 36.7440 2180.80 2223.70 23.35
2062 36.7570 2096.89 2111.67 22.90
2063 36.7700 2004.29 2014.50 22.38
2064 36.7830 1934.08 1930.47 21.99
2065 36.7960 1888.75 1858.07 21.73
2066 36.8090 1865.37 1796.00 21.59
2067 36.8220 1794.94 1743.12 21.18
2068 36.8350 1757.39 1698.47 20.96
2069 36.8480 1716.68 1661.34 20.72
2070 36.8610 1691.00 1631.16 20.56
2071 36.8740 1694.72 1607.55 20.58
2072 36.8870 1656.65 1590.22 20.35
2073 36.9000 1607.64 1579.06 20.05
2074 36.9130 1606.82 1574.01 20.04
2075 36.9260 1599.68 1575.09 20.00
2076 36.9390 1587.09 1582.35 19.92
2077 36.9520 1557.26 1595.80 19.73
2078 36.9650 1530.94 1615.37 19.56
2079 36.9780 1559.12 1640.82 19.74
2080 36.9910 1591.35 1671.59 19.95
2081 37.0040 1594.75 1706.64 19.97
2082 37.0170 1592.46 1744.29 19.95
2083 37.0300 1587.98 1782.01 19.92
2084 37.0430 1598.84 1816.50 19.99
2085 37.0560 1616.90 1843.87 20.11
2086 37.0690 1624.58 1860.31 20.15
2087 37.0820 1630.90 1862.97 20.19
2088 37.0950 1596.49 1850.76 19.98
2089 37.1080 1575.54 1824.64 19.85
2090 37.1210 1579.10 1787.34 19.87
2091 37.1340 1519.38 1742.52 19.49
2092 37.1470 1481.41 1693.93 19.24
2093 37.1600 1456.93 1644.74 19.08
2094 37.1730 1414.38 1597.37 18.80
2095 37.1860 1398.05 1553.43 18.70
2096 37.1990 1361.52 1513.89 18.45
2097 37.2120 1343.07 1479.27 18.32
2098 37.2250 1343.28 1449.75 18.33
2099 37.2380 1330.09 1425.37 18.24
2100 37.2510 1306.39 1406.02 18.07
2101 37.2640 1321.24 1391.50 18.17
2102 37.2770 1330.09 1381.57 18.24
2103 37.2900 1342.49 1375.91 18.32
2104 37.3030 1334.61 1374.09 18.27
2105 37.3160 1300.08 1375.53 18.03
2106 37.3290 1304.27 1380.67 18.06
2107 37.3420 1325.49 1386.03 18.20
2108 37.3550 1325.44 1391.50 18.20
2109 37.3680 1341.30 1395.54 18.31
2110 37.3810 1355.06 1396.61 18.41
2111 37.3940 1379.25 1393.48 18.57
2112 37.4070 1348.54 1385.49 18.36
2113 37.4200 1353.12 1372.75 18.39
2114 37.4330 1358.62 1356.03 18.43
2115 37.4460 1300.49 1336.54 18.03
2116 37.4590 1296.29 1315.56 18.00
2117 37.4720 1282.04 1294.25 17.90
2118 37.4850 1237.85 1273.49 17.59
2119 37.4980 1222.44 1253.88 17.48
2120 37.5110 1208.62 1236.51 17.38
2121 37.5240 1174.49 1220.11 17.14
2122 37.5370 1197.38 1205.44 17.30
2123 37.5500 1154.26 1192.48 16.99
2124 37.5630 1153.57 1181.16 16.98
2125 37.5760 1173.11 1171.38 17.13
2126 37.5890 1155.07 1163.03 16.99
2127 37.6020 1155.76 1156.01 17.00
2128 37.6150 1131.68 1150.21 16.82
2129 37.6280 1133.73 1145.54 16.84
2130 37.6410 1132.95 1141.92 16.83
2131 37.6540 1127.45 1139.28 16.79
2132 37.6670 1120.18 1137.57 16.73
2133 37.6800 1099.12 1136.75 16.58
2134 37.6930 1159.79 1136.83 17.03
2135 37.7060 1098.92 1137.79 16.57
2136 37.7190 1126.39 1139.68 16.78
2137 37.7320 1132.18 1142.56 16.82
2138 37.7450 1131.77 1146.51 16.82
2139 37.7580 1163.15 1151.63 17.05
2140 37.7710 1146.33 1143.89 16.93
2141 37.7840 1143.14 1152.00 16.91
2142 37.7970 1154.01 1161.86 16.99
2143 37.8100 1173.29 1173.73 17.13
2144 37.8230 1196.75 1187.93 17.30
2145 37.8360 1226.18 1204.83 17.51
2146 37.8490 1208.16 1224.86 17.38
2147 37.8620 1242.78 1248.47 17.63
2148 37.8750 1272.94 1276.17 17.84
2149 37.8880 1283.66 1308.50 17.91
2150 37.9010 1289.90 1346.00 17.96
2151 37.9140 1343.28 1389.22 18.33
2152 37.9270 1369.08 1438.61 18.50
2153 37.9400 1409.90 1494.51 18.77
2154 37.9530 1471.91 1557.05 19.18
2155 37.9660 1498.54 1625.98 19.36
2156 37.9790 1559.03 1700.51 19.74
2157 37.9920 1611.71 1779.19 20.07
2158 38.0050 1684.61 1859.72 20.52
2159 38.0180 1750.56 1939.03 20.92
2160 38.0310 1799.66 2013.31 21.21
2161 38.0440 1888.45 2078.42 21.73
2162 38.0570 1910.89 2130.20 21.86
2163 38.0700 1947.54 2164.98 22.07
2164 38.0830 2013.81 2179.90 22.44
2165 38.0960 1997.10 2173.45 22.34
2166 38.1090 1984.38 2145.89 22.27
2167 38.1220 1958.68 2099.40 22.13
2168 38.1350 1893.78 2037.79 21.76
2169 38.1480 1822.82 1965.78 21.35
2170 38.1610 1745.37 1888.18 20.89
2171 38.1740 1661.08 1809.05 20.38
2172 38.1870 1595.80 1731.59 19.97
2173 38.2000 1555.27 1657.94 19.72
2174 38.2130 1493.36 1589.44 19.32
2175 38.2260 1422.73 1526.71 18.86
2176 38.2390 1372.01 1469.92 18.52
2177 38.2520 1340.09 1419.01 18.30
2178 38.2650 1311.70 1373.68 18.11
2179 38.2780 1277.56 1333.52 17.87
2180 38.2910 1265.14 1298.10 17.78
2181 38.3040 1242.47 1266.95 17.62
2182 38.3170 1215.85 1239.62 17.43
2183 38.3300 1192.48 1215.66 17.27
2184 38.3430 1168.73 1194.65 17.09
2185 38.3560 1158.44 1176.22 17.02
2186 38.3690 1137.39 1160.03 16.86
2187 38.3820 1129.92 1145.79 16.81
2188 38.3950 1128.63 1133.23 16.80
2189 38.4080 1121.63 1122.13 16.75
2190 38.4210 1131.13 1112.30 16.82
2191 38.4340 1117.29 1103.59 16.71
2192 38.4470 1101.32 1096.86 16.59
2193 38.4600 1110.34 1090.00 16.66
2194 38.4730 1101.57 1083.91 16.59
2195 38.4860 1088.45 1078.52 16.50
2196 38.4990 1096.66 1073.75 16.56
2197 38.5120 1090.85 1069.56 16.51
2198 38.5250 1079.29 1065.88 16.43
2199 38.5380 1073.53 1062.68 16.38
2200 38.5510 1050.68 1059.92 16.21
2201 38.5640 1058.84 1057.58 16.27
2202 38.5770 1075.05 1055.61 16.39
2203 38.5900 1066.41 1054.00 16.33
2204 38.6030 1077.28 1052.73 16.41
2205 38.6160 1081.07 1051.78 16.44
2206 38.6290 1054.93 1051.13 16.24
2207 38.6420 1047.68 1050.78 16.18
2208 38.6550 1061.33 1050.70 16.29
2209 38.6680 1053.06 1054.22 16.23
2210 38.6810 1057.79 1054.72 16.26
2211 38.6940 1052.47 1055.47 16.22
2212 38.7070 1065.33 1056.49 16.32
2213 38.7200 1061.52 1057.77 16.29
2214 38.7330 1053.09 1059.32 16.23
2215 38.7460 1050.18 1061.12 16.20
2216 38.7590 1046.61 1063.20 16.18
2217 38.7720 1062.20 1065.55 16.30
2218 38.7850 1050.25 1068.19 16.20
2219 38.7980 1075.05 1071.11 16.39
2220 38.8110 1041.46 1074.34 16.14
2221 38.8240 1059.14 1077.87 16.27
2222 38.8370 1059.26 1081.74 16.27
2223 38.8500 1062.96 1085.94 16.30
2224 38.8630 1055.89 1090.50 16.25
2225 38.8760 1048.91 1095.44 16.19
2226 38.8890 1098.31 1100.78 16.57
2227 38.9020 1090.01 1106.53 16.51
2228 38.9150 1088.83 1112.74 16.50
2229 38.9280 1077.99 1119.43 16.42
2230 38.9410 1105.09 1126.63 16.62
2231 38.9540 1089.29 1134.40 16.50
2232 38.9670 1115.96 1142.78 16.70
2233 38.9800 1105.38 1151.84 16.62
2234 38.9930 1152.02 1161.65 16.97
2235 39.0060 1141.88 1172.29 16.90
2236 39.0190 1132.59 1183.86 16.83
2237 39.0320 1155.12 1196.51 16.99
2238 39.0450 1157.23 1210.39 17.01
2239 39.0580 1225.92 1225.69 17.51
2240 39.0710 1222.22 1242.64 17.48
2241 39.0840 1266.24 1262.74 17.79
2242 39.0970 1252.71 1283.95 17.70
2243 39.1100 1261.33 1307.88 17.76
2244 39.1230 1295.74 1335.04 18.00
2245 39.1360 1321.13 1366.04 18.17
2246 39.1490 1340.89 1403.03 18.31
2247 39.1620 1387.92 1444.02 18.63
2248 39.1750 1395.25 1491.38 18.68
2249 39.1880 1474.65 1546.26 19.20
2250 39.2010 1509.14 1609.90 19.42
2251 39.2140 1564.04 1683.70 19.77
2252 39.2270 1605.07 1769.17 20.03
2253 39.2400 1686.35 1867.88 20.53
2254 39.2530 1794.07 1981.60 21.18
2255 39.2660 1880.80 2111.95 21.68
2256 39.2790 2023.22 2260.51 22.49
2257 39.2920 2127.37 2428.54 23.06
2258 39.3050 2293.11 2617.01 23.94
2259 39.3180 2471.86 2825.96 24.86
2260 39.3310 2725.38 3054.28 26.10
2261 39.3440 2930.73 3292.46 27.07
2262 39.3570 3165.96 3548.16 28.13
2263 39.3700 3427.57 3806.04 29.27
2264 39.3830 3762.63 4053.72 30.67
2265 39.3960 3986.91 4275.52 31.57
2266 39.4090 4232.88 4454.28 32.53
2267 39.4220 4392.74 4573.88 33.14
2268 39.4350 4448.05 4623.02 33.35
2269 39.4480 4432.93 4598.02 33.29
2270 39.4610 4316.43 4503.54 32.85
2271 39.4740 4134.24 4351.09 32.15
2272 39.4870 3847.62 4155.93 31.01
2273 39.5000 3611.38 3933.88 30.05
2274 39.5130 3409.11 3698.74 29.19
2275 39.5260 3156.99 3461.59 28.09
2276 39.5390 2958.59 3230.40 27.20
2277 39.5520 2792.03 3010.62 26.42
2278 39.5650 2623.36 2805.32 25.61
2279 39.5780 2474.59 2616.36 24.87
2280 39.5910 2375.99 2444.42 24.37
2281 39.6040 2274.47 2289.44 23.85
2282 39.6170 2147.38 2150.73 23.17
2283 39.6300 2042.88 2027.39 22.60
2284 39.6430 1964.36 1918.26 22.16
2285 39.6560 1887.76 1822.12 21.72
2286 39.6690 1801.57 1737.57 21.22
2287 39.6820 1748.80 1663.36 20.91
2288 39.6950 1712.89 1598.26 20.69
2289 39.7080 1652.16 1541.13 20.32
2290 39.7210 1606.65 1490.95 20.04
2291 39.7340 1580.45 1446.74 19.88
2292 39.7470 1536.87 1407.74 19.60
2293 39.7600 1497.16 1373.21 19.35
2294 39.7730 1465.05 1342.57 19.14
2295 39.7860 1431.19 1315.29 18.92
2296 39.7990 1407.72 1290.96 18.76
2297 39.8120 1361.48 1269.21 18.45
2298 39.8250 1360.23 1250.71 18.44
2299 39.8380 1352.12 1233.29 18.39
2300 39.8510 1311.23 1217.68 18.11
2301 39.8640 1283.04 1203.71 17.91
2302 39.8770 1268.07 1191.22 17.81
2303 39.8900 1256.57 1180.08 17.72
2304 39.9030 1271.02 1170.17 17.83
2305 39.9160 1241.88 1160.38 17.62
2306 39.9290 1239.74 1152.68 17.60
2307 39.9420 1245.64 1145.97 17.65
2308 39.9550 1239.09 1140.19 17.60
2309 39.9680 1225.66 1135.29 17.50
2310 39.9810 1210.62 1131.24 17.40
2311 39.9940 1226.44 1128.02 17.51
2312 40.0070 1225.70 1125.62 17.50
2313 40.0200 1222.15 1124.04 17.48
2314 40.0330 1204.54 1123.31 17.35
2315 40.0460 1171.96 1123.45 17.12
2316 40.0590 1198.54 1125.97 17.31
2317 40.0720 1205.41 1128.08 17.36
2318 40.0850 1186.45 1131.29 17.22
2319 40.0980 1174.03 1135.74 17.13
2320 40.1110 1199.75 1141.59 17.32
2321 40.1240 1170.60 1149.01 17.11
2322 40.1370 1184.86 1158.23 17.21
2323 40.1500 1216.88 1169.49 17.44
2324 40.1630 1232.49 1183.09 17.55
2325 40.1760 1212.92 1199.34 17.41
2326 40.1890 1239.33 1218.60 17.60
2327 40.2020 1223.49 1241.23 17.49
2328 40.2150 1243.65 1267.63 17.63
2329 40.2280 1293.75 1298.21 17.98
2330 40.2410 1332.59 1333.33 18.25
2331 40.2540 1324.01 1372.92 18.19
2332 40.2670 1377.96 1418.03 18.56
2333 40.2800 1379.56 1468.34 18.57
2334 40.2930 1439.15 1523.68 18.97
2335 40.3060 1437.28 1583.48 18.96
2336 40.3190 1508.17 1646.69 19.42
2337 40.3320 1566.07 1712.11 19.79
2338 40.3450 1607.16 1776.02 20.04
2339 40.3580 1651.44 1835.72 20.32
2340 40.3710 1702.79 1887.65 20.63
2341 40.3840 1735.04 1928.32 20.83
2342 40.3970 1763.86 1955.19 21.00
2343 40.4100 1785.98 1967.31 21.13
2344 40.4230 1801.48 1965.54 21.22
2345 40.4360 1779.92 1952.34 21.09
2346 40.4490 1785.77 1931.10 21.13
2347 40.4620 1776.14 1905.50 21.07
2348 40.4750 1732.41 1878.79 20.81
2349 40.4880 1773.59 1853.54 21.06
2350 40.5010 1773.44 1831.43 21.06
2351 40.5140 1777.26 1813.20 21.08
2352 40.5270 1824.06 1798.72 21.35
2353 40.5400 1858.77 1786.98 21.56
2354 40.5530 1879.80 1776.29 21.68
2355 40.5660 1971.06 1764.48 22.20
2356 40.5790 1954.65 1749.29 22.11
2357 40.5920 2004.94 1728.83 22.39
2358 40.6050 1998.25 1702.00 22.35
2359 40.6180 1982.97 1668.74 22.27
2360 40.6310 1913.95 1629.92 21.87
2361 40.6440 1883.25 1587.04 21.70
2362 40.6570 1806.53 1541.86 21.25
2363 40.6700 1717.48 1496.07 20.72
2364 40.6830 1681.93 1451.05 20.51
2365 40.6960 1617.03 1407.81 20.11
2366 40.7090 1550.13 1367.04 19.69
2367 40.7220 1518.26 1329.14 19.48
2368 40.7350 1475.15 1294.33 19.20
2369 40.7480 1412.43 1262.63 18.79
2370 40.7610 1360.35 1233.99 18.44
2371 40.7740 1336.05 1208.30 18.28
2372 40.7870 1345.49 1185.38 18.34
2373 40.8000 1319.51 1165.03 18.16
2374 40.8130 1287.85 1147.05 17.94
2375 40.8260 1262.00 1131.22 17.76
2376 40.8390 1231.19 1117.33 17.54
2377 40.8520 1234.32 1105.18 17.57
2378 40.8650 1232.77 1094.58 17.56
2379 40.8780 1211.90 1085.35 17.41
2380 40.8910 1196.72 1077.33 17.30
2381 40.9040 1176.58 1070.39 17.15
2382 40.9170 1159.79 1064.39 17.03
2383 40.9300 1146.20 1059.23 16.93
2384 40.9430 1142.29 1054.21 16.90
2385 40.9560 1134.59 1050.49 16.84
2386 40.9690 1107.00 1047.38 16.64
2387 40.9820 1102.25 1044.83 16.60
2388 40.9950 1125.65 1042.80 16.78
2389 41.0080 1127.57 1040.03 16.79
2390 41.0210 1123.40 1038.93 16.76
2391 41.0340 1108.77 1038.26 16.65
2392 41.0470 1104.79 1038.00 16.62
2393 41.0600 1127.61 1038.13 16.79
2394 41.0730 1101.89 1038.64 16.60
2395 41.0860 1090.19 1039.53 16.51
2396 41.0990 1114.78 1040.78 16.69
2397 41.1120 1116.14 1042.42 16.70
2398 41.1250 1124.02 1044.42 16.76
2399 41.1380 1118.61 1046.81 16.72
2400 41.1510 1092.28 1049.59 16.52
2401 41.1640 1106.14 1052.79 16.63
2402 41.1770 1113.94 1056.41 16.69
2403 41.1900 1113.76 1060.49 16.69
2404 41.2030 1114.48 1065.07 16.69
2405 41.2160 1116.90 1070.18 16.71
2406 41.2290 1136.81 1075.88 16.86
2407 41.2420 1142.15 1082.24 16.90
2408 41.2550 1148.69 1089.33 16.95
2409 41.2680 1140.22 1097.25 16.88
2410 41.2810 1138.11 1106.11 16.87
2411 41.2940 1155.21 1116.04 16.99
2412 41.3070 1183.39 1127.19 17.20
2413 41.3200 1176.96 1139.75 17.15
2414 41.3330 1169.66 1153.93 17.10
2415 41.3460 1171.12 1169.94 17.11
2416 41.3590 1215.21 1188.06 17.43
2417 41.3720 1202.52 1208.56 17.34
2418 41.3850 1235.45 1231.77 17.57
2419 41.3980 1258.43 1258.02 17.74
2420 41.4110 1269.25 1287.67 17.81
2421 41.4240 1289.16 1321.08 17.95
2422 41.4370 1337.28 1358.62 18.28
2423 41.4500 1368.68 1400.64 18.50
2424 41.4630 1359.63 1447.43 18.44
2425 41.4760 1430.33 1499.17 18.91
2426 41.4890 1491.20 1555.90 19.31
2427 41.5020 1561.70 1617.42 19.76
2428 41.5150 1572.23 1683.12 19.83
2429 41.5280 1665.96 1751.96 20.41
2430 41.5410 1791.38 1822.34 21.16
2431 41.5540 1857.78 1892.22 21.55
2432 41.5670 1952.72 1959.20 22.09
2433 41.5800 2063.65 2021.02 22.71
2434 41.5930 2136.17 2076.08 23.11
2435 41.6060 2182.78 2123.90 23.36
2436 41.6190 2176.01 2165.40 23.32
2437 41.6320 2226.53 2202.85 23.59
2438 41.6450 2174.55 2239.44 23.32
2439 41.6580 2206.67 2278.80 23.49
2440 41.6710 2199.18 2324.47 23.45
2441 41.6840 2249.44 2379.56 23.71
2442 41.6970 2297.08 2447.92 23.96
2443 41.7100 2407.53 2528.60 24.53
2444 41.7230 2469.65 2623.73 24.85
2445 41.7360 2643.22 2733.08 25.71
2446 41.7490 2818.35 2855.80 26.54
2447 41.7620 2998.79 2987.21 27.38
2448 41.7750 3142.84 3122.89 28.03
2449 41.7880 3343.92 3255.61 28.91
2450 41.8010 3578.47 3376.43 29.91
2451 41.8140 3711.70 3475.45 30.46
2452 41.8270 3889.87 3543.25 31.18
2453 41.8400 3953.69 3572.78 31.44
2454 41.8530 3870.56 3560.79 31.11
2455 41.8660 3762.59 3508.48 30.67
2456 41.8790 3619.50 3420.97 30.08
2457 41.8920 3427.91 3305.89 29.27
2458 41.9050 3265.41 3171.91 28.57
2459 41.9180 3103.44 3027.27 27.85
2460 41.9310 2918.83 2878.96 27.01
2461 41.9440 2767.48 2732.53 26.30
2462 41.9570 2647.11 2592.09 25.73
2463 41.9700 2534.63 2460.54 25.17
2464 41.9830 2422.38 2339.76 24.61
2465 41.9960 2312.02 2230.93 24.04
2466 42.0090 2240.78 2134.78 23.67
2467 42.0220 2173.18 2051.67 23.31
2468 42.0350 2133.15 1981.65 23.09
2469 42.0480 2077.11 1924.70 22.79
2470 42.0610 2035.99 1880.65 22.56
2471 42.0740 2001.91 1849.34 22.37
2472 42.0870 1966.43 1830.57 22.17
2473 42.1000 1981.90 1824.18 22.26
2474 42.1130 1955.74 1830.05 22.11
2475 42.1260 1947.55 1848.10 22.07
2476 42.1390 1969.24 1878.26 22.19
2477 42.1520 1966.85 1920.41 22.17
2478 42.1650 1998.22 1974.31 22.35
2479 42.1780 2036.30 2039.52 22.56
2480 42.1910 2088.09 2115.14 22.85
2481 42.2040 2150.41 2199.89 23.19
2482 42.2170 2229.73 2291.65 23.61
2483 42.2300 2337.01 2387.50 24.17
2484 42.2430 2469.34 2483.80 24.85
2485 42.2560 2644.94 2576.28 25.71
2486 42.2690 2821.40 2660.48 26.56
2487 42.2820 2999.47 2732.18 27.38
2488 42.2950 3151.35 2787.74 28.07
2489 42.3080 3258.04 2824.36 28.54
2490 42.3210 3307.43 2839.94 28.76
2491 42.3340 3279.69 2833.17 28.63
2492 42.3470 3196.35 2803.73 28.27
2493 42.3600 3082.57 2752.50 27.76
2494 42.3730 2954.75 2681.70 27.18
2495 42.3860 2795.21 2594.78 26.43
2496 42.3990 2634.00 2496.04 25.66
2497 42.4120 2473.29 2389.83 24.87
2498 42.4250 2318.52 2280.37 24.08
2499 42.4380 2200.92 2165.97 23.46
2500 42.4510 2112.09 2059.81 22.98
2501 42.4640 1989.40 1958.58 22.30
2502 42.4770 1874.61 1863.60 21.65
2503 42.4900 1781.57 1775.66 21.10
2504 42.5030 1721.60 1695.09 20.75
2505 42.5160 1672.21 1621.93 20.45
2506 42.5290 1626.78 1555.95 20.17
2507 42.5420 1567.40 1496.99 19.80
2508 42.5550 1506.93 1444.58 19.41
2509 42.5680 1483.36 1398.20 19.26
2510 42.5810 1447.15 1357.35 19.02
2511 42.5940 1433.71 1321.53 18.93
2512 42.6070 1388.11 1290.21 18.63
2513 42.6200 1376.29 1262.90 18.55
2514 42.6330 1380.38 1239.17 18.58
2515 42.6460 1338.32 1218.60 18.29
2516 42.6590 1289.74 1200.85 17.96
2517 42.6720 1281.31 1185.62 17.90
2518 42.6850 1293.26 1172.63 17.98
2519 42.6980 1288.37 1161.68 17.95
2520 42.7110 1244.69 1152.60 17.64
2521 42.7240 1260.59 1145.26 17.75
2522 42.7370 1246.31 1139.58 17.65
2523 42.7500 1225.97 1135.52 17.51
2524 42.7630 1204.66 1133.06 17.35
2525 42.7760 1250.24 1132.23 17.68
2526 42.7890 1221.80 1133.07 17.48
2527 42.8020 1229.93 1135.68 17.54
2528 42.8150 1245.14 1140.18 17.64
2529 42.8280 1205.42 1146.70 17.36
2530 42.8410 1237.42 1155.43 17.59
2531 42.8540 1238.57 1166.56 17.60
2532 42.8670 1265.05 1180.34 17.78
2533 42.8800 1287.40 1196.98 17.94
2534 42.8930 1298.04 1216.78 18.01
2535 42.9060 1299.15 1239.98 18.02
2536 42.9190 1309.45 1266.85 18.09
2537 42.9320 1317.15 1297.63 18.15
2538 42.9450 1369.34 1332.51 18.50
2539 42.9580 1416.62 1372.92 18.82
2540 42.9710 1418.24 1416.09 18.83
2541 42.9840 1489.35 1463.05 19.30
2542 42.9970 1507.70 1513.19 19.41
2543 43.0100 1603.52 1567.43 20.02
2544 43.0230 1662.72 1620.34 20.39
2545 43.0360 1703.50 1671.81 20.64
2546 43.0490 1771.18 1719.51 21.04
2547 43.0620 1806.55 1761.01 21.25
2548 43.0750 1884.39 1794.24 21.70
2549 43.0880 1837.47 1817.99 21.43
2550 43.1010 1814.61 1832.11 21.30
2551 43.1140 1750.83 1837.70 20.92
2552 43.1270 1745.52 1836.74 20.89
2553 43.1400 1686.79 1831.83 20.54
2554 43.1530 1650.50 1825.69 20.31
2555 43.1660 1605.73 1820.89 20.04
2556 43.1790 1590.97 1819.65 19.94
2557 43.1920 1591.56 1823.72 19.95
2558 43.2050 1613.85 1834.37 20.09
2559 43.2180 1619.81 1852.38 20.12
2560 43.2310 1655.90 1877.99 20.35
2561 43.2440 1661.03 1910.83 20.38
2562 43.2570 1711.48 1949.81 20.68
2563 43.2700 1772.56 1993.10 21.05
2564 43.2830 1836.83 2037.96 21.43
2565 43.2960 1942.04 2080.89 22.03
2566 43.3090 2031.38 2117.85 22.54
2567 43.3220 2165.59 2144.89 23.27
2568 43.3350 2264.05 2158.62 23.79
2569 43.3480 2389.84 2157.02 24.44
2570 43.3610 2477.53 2139.74 24.89
2571 43.3740 2485.98 2108.10 24.93
2572 43.3870 2437.58 2064.70 24.69
2573 43.4000 2342.39 2012.86 24.20
2574 43.4130 2218.01 1958.67 23.55
2575 43.4260 2093.62 1899.99 22.88
2576 43.4390 1956.54 1842.13 22.12
2577 43.4520 1845.19 1787.18 21.48
2578 43.4650 1738.22 1735.50 20.85
2579 43.4780 1656.45 1692.03 20.35
2580 43.4910 1613.14 1653.38 20.08
2581 43.5040 1565.13 1621.31 19.78
2582 43.5170 1545.82 1595.85 19.66
2583 43.5300 1524.09 1576.67 19.52
2584 43.5430 1515.19 1563.15 19.46
2585 43.5560 1551.14 1554.25 19.69
2586 43.5690 1579.47 1548.60 19.87
2587 43.5820 1592.98 1544.47 19.96
2588 43.5950 1624.65 1539.96 20.15
2589 43.6080 1641.75 1533.14 20.26
2590 43.6210 1638.59 1522.40 20.24
2591 43.6340 1615.04 1506.66 20.09
2592 43.6470 1538.34 1485.56 19.61
2593 43.6600 1481.59 1459.41 19.25
2594 43.6730 1420.98 1429.05 18.85
2595 43.6860 1351.31 1394.94 18.38
2596 43.6990 1326.01 1359.71 18.21
2597 43.7120 1269.62 1323.78 17.82
2598 43.7250 1216.92 1288.06 17.44
2599 43.7380 1175.16 1253.29 17.14
2600 43.7510 1156.98 1220.00 17.01
2601 43.7640 1120.28 1188.54 16.74
2602 43.7770 1071.15 1159.14 16.36
2603 43.7900 1070.61 1131.93 16.36
2604 43.8030 1053.09 1106.92 16.23
2605 43.8160 1026.23 1084.11 16.02
2606 43.8290 1023.03 1063.42 15.99
2607 43.8420 1025.68 1044.74 16.01
2608 43.8550 995.50 1027.94 15.78
2609 43.8680 971.02 1012.89 15.58
2610 43.8810 982.63 999.43 15.67
2611 43.8940 958.31 987.40 15.48
2612 43.9070 942.98 976.66 15.35
2613 43.9200 945.06 967.06 15.37
2614 43.9330 923.24 958.48 15.19
2615 43.9460 933.31 950.78 15.27
2616 43.9590 928.76 943.86 15.24
2617 43.9720 927.58 937.62 15.23
2618 43.9850 917.42 931.99 15.14
2619 43.9980 916.23 926.88 15.13
2620 44.0110 878.71 922.24 14.82
2621 44.0240 901.64 918.02 15.01
2622 44.0370 896.72 914.16 14.97
2623 44.0500 893.15 910.63 14.94
2624 44.0630 897.14 907.40 14.98
2625 44.0760 879.58 904.44 14.83
2626 44.0890 875.57 901.72 14.80
2627 44.1020 869.11 899.23 14.74
2628 44.1150 885.27 896.94 14.88
2629 44.1280 856.49 894.85 14.63
2630 44.1410 876.39 893.28 14.80
2631 44.1540 881.43 891.53 14.84
2632 44.1670 870.56 889.95 14.75
2633 44.1800 880.34 888.51 14.84
2634 44.1930 877.24 887.21 14.81
2635 44.2060 863.71 886.05 14.69
2636 44.2190 857.67 885.02 14.64
2637 44.2320 868.69 884.11 14.74
2638 44.2450 846.17 883.33 14.54
2639 44.2580 840.74 882.65 14.50
2640 44.2710 837.52 882.10 14.47
2641 44.2840 854.99 881.66 14.62
2642 44.2970 883.78 881.33 14.86
2643 44.3100 860.37 881.10 14.67
2644 44.3230 876.70 881.19 14.80
2645 44.3360 860.49 881.19 14.67
2646 44.3490 881.96 881.30 14.85
2647 44.3620 882.32 881.52 14.85
2648 44.3750 887.77 881.84 14.90
2649 44.3880 862.90 882.28 14.69
2650 44.4010 868.76 882.82 14.74
2651 44.4140 874.85 883.48 14.79
2652 44.4270 879.23 884.25 14.83
2653 44.4400 863.09 885.14 14.69
2654 44.4530 876.98 886.15 14.81
2655 44.4660 863.68 887.28 14.69
2656 44.4790 885.00 888.55 14.87
2657 44.4920 887.07 889.96 14.89
2658 44.5050 860.39 891.51 14.67
2659 44.5180 876.08 893.68 14.80
2660 44.5310 876.48 895.55 14.80
2661 44.5440 879.39 897.59 14.83
2662 44.5570 895.07 899.81 14.96
2663 44.5700 874.34 902.22 14.78
2664 44.5830 882.84 904.84 14.86
2665 44.5960 864.67 907.67 14.70
2666 44.6090 881.08 910.74 14.84
2667 44.6220 884.12 914.07 14.87
2668 44.6350 901.01 917.67 15.01
2669 44.6480 905.15 921.59 15.04
2670 44.6610 886.85 925.85 14.89
2671 44.6740 891.88 930.49 14.93
2672 44.6870 913.93 935.58 15.12
2673 44.7000 906.57 941.17 15.05
2674 44.7130 908.87 947.35 15.07
2675 44.7260 926.96 954.21 15.22
2676 44.7390 924.12 961.86 15.20
2677 44.7520 938.91 969.44 15.32
2678 44.7650 960.90 979.13 15.50
2679 44.7780 973.39 990.09 15.60
2680 44.7910 986.33 1002.56 15.70
2681 44.8040 988.73 1016.78 15.72
2682 44.8170 999.99 1033.04 15.81
2683 44.8300 1025.78 1051.67 16.01
2684 44.8430 1032.87 1073.04 16.07
2685 44.8560 1062.06 1097.53 16.29
2686 44.8690 1090.87 1125.60 16.51
2687 44.8820 1106.67 1157.71 16.63
2688 44.8950 1139.02 1194.37 16.87
2689 44.9080 1170.86 1236.10 17.11
2690 44.9210 1224.53 1283.41 17.50
2691 44.9340 1271.62 1336.81 17.83
2692 44.9470 1317.63 1396.78 18.15
2693 44.9600 1390.20 1463.66 18.64
2694 44.9730 1445.07 1537.62 19.01
2695 44.9860 1509.95 1618.62 19.43
2696 44.9990 1600.51 1706.16 20.00
2697 45.0120 1695.65 1795.94 20.59
2698 45.0250 1810.51 1892.89 21.27
2699 45.0380 1956.40 1991.23 22.12
2700 45.0510 2091.06 2087.73 22.86
2701 45.0640 2221.50 2178.43 23.57
2702 45.0770 2370.65 2259.04 24.34
2703 45.0900 2488.16 2325.45 24.94
2704 45.1030 2599.31 2374.14 25.49
2705 45.1160 2700.47 2402.66 25.98
2706 45.1290 2734.49 2409.88 26.15
2707 45.1420 2757.34 2395.99 26.26
2708 45.1550 2709.13 2362.37 26.02
2709 45.1680 2650.85 2311.36 25.74
2710 45.1810 2571.50 2246.01 25.35
2711 45.1940 2476.04 2169.70 24.88
2712 45.2070 2361.60 2085.87 24.30
2713 45.2200 2209.26 1997.75 23.50
2714 45.2330 2103.25 1908.19 22.93
2715 45.2460 1975.17 1819.41 22.22
2716 45.2590 1872.17 1733.27 21.63
2717 45.2720 1794.63 1651.09 21.18
2718 45.2850 1721.45 1573.78 20.75
2719 45.2980 1649.72 1501.95 20.31
2720 45.3110 1563.29 1435.85 19.77
2721 45.3240 1473.44 1375.59 19.19
2722 45.3370 1423.82 1322.15 18.87
2723 45.3500 1391.13 1273.19 18.65
2724 45.3630 1335.92 1229.49 18.28
2725 45.3760 1308.94 1190.66 18.09
2726 45.3890 1296.26 1156.32 18.00
2727 45.4020 1236.85 1126.05 17.58
2728 45.4150 1223.45 1099.42 17.49
2729 45.4280 1219.50 1076.04 17.46
2730 45.4410 1202.32 1055.54 17.34
2731 45.4540 1124.64 1037.57 16.77
2732 45.4670 1153.68 1021.80 16.98
2733 45.4800 1105.71 1006.78 16.63
2734 45.4930 1111.14 994.63 16.67
2735 45.5060 1104.31 983.95 16.62
2736 45.5190 1081.89 974.55 16.45
2737 45.5320 1068.11 966.27 16.34
2738 45.5450 1070.89 958.99 16.36
2739 45.5580 1054.83 951.17 16.24
2740 45.5710 1040.75 945.56 16.13
2741 45.5840 1039.52 940.66 16.12
2742 45.5970 1037.54 936.39 16.11
2743 45.6100 1038.48 932.70 16.11
2744 45.6230 1006.01 929.54 15.86
2745 45.6360 1017.39 926.87 15.95
2746 45.6490 1015.89 924.65 15.94
2747 45.6620 1008.52 922.86 15.88
2748 45.6750 1011.93 921.47 15.91
2749 45.6880 995.59 920.45 15.78
2750 45.7010 981.36 919.87 15.66
2751 45.7140 975.32 919.57 15.61
2752 45.7270 997.73 919.61 15.79
2753 45.7400 997.04 919.97 15.79
2754 45.7530 990.68 920.64 15.74
2755 45.7660 1002.78 921.62 15.83
2756 45.7790 997.20 922.90 15.79
2757 45.7920 1013.06 924.46 15.91
2758 45.8050 1011.97 926.30 15.91
2759 45.8180 1013.86 928.41 15.92
2760 45.8310 1009.88 931.08 15.89
2761 45.8440 995.45 933.68 15.78
2762 45.8570 987.89 936.54 15.72
2763 45.8700 1004.57 939.64 15.85
2764 45.8830 1031.74 943.02 16.06
2765 45.8960 1036.05 946.66 16.09
2766 45.9090 1050.53 950.58 16.21
2767 45.9220 1054.84 954.82 16.24
2768 45.9350 1052.33 959.40 16.22
2769 45.9480 1054.60 964.36 16.24
2770 45.9610 1069.65 969.72 16.35
2771 45.9740 1067.96 975.52 16.34
2772 45.9870 1072.81 981.79 16.38
2773 46.0000 1095.24 988.60 16.55
2774 46.0130 1102.10 995.98 16.60
2775 46.0260 1127.55 1004.02 16.79
2776 46.0390 1141.51 1012.77 16.89
2777 46.0520 1145.48 1022.34 16.92
2778 46.0650 1177.16 1032.85 17.15
2779 46.0780 1181.52 1044.44 17.19
2780 46.0910 1182.95 1057.61 17.20
2781 46.1040 1219.05 1071.87 17.46
2782 46.1170 1229.15 1087.78 17.53
2783 46.1300 1252.39 1105.63 17.69
2784 46.1430 1294.86 1125.72 17.99
2785 46.1560 1327.64 1148.40 18.22
2786 46.1690 1344.92 1174.09 18.34
2787 46.1820 1350.71 1203.26 18.38
2788 46.1950 1371.82 1236.41 18.52
2789 46.2080 1424.80 1274.11 18.87
2790 46.2210 1497.26 1316.99 19.35
2791 46.2340 1527.43 1365.74 19.54
2792 46.2470 1554.57 1421.05 19.71
2793 46.2600 1619.62 1483.70 20.12
2794 46.2730 1680.08 1554.49 20.49
2795 46.2860 1756.91 1634.20 20.96
2796 46.2990 1824.52 1723.56 21.36
2797 46.3120 1869.26 1823.17 21.62
2798 46.3250 1969.17 1933.55 22.19
2799 46.3380 2086.44 2054.85 22.84
2800 46.3510 2163.64 2185.79 23.26
2801 46.3640 2289.94 2327.44 23.93
2802 46.3770 2421.15 2477.22 24.60
2803 46.3900 2557.97 2632.47 25.29
2804 46.4030 2786.33 2789.55 26.39
2805 46.4160 2978.62 2943.75 27.29
2806 46.4290 3140.53 3089.73 28.02
2807 46.4420 3301.54 3221.58 28.73
2808 46.4550 3485.97 3333.51 29.52
2809 46.4680 3614.16 3420.42 30.06
2810 46.4810 3764.67 3478.29 30.68
2811 46.4940 3781.80 3504.64 30.75
2812 46.5070 3774.87 3498.90 30.72
2813 46.5200 3717.01 3462.49 30.48
2814 46.5330 3585.62 3398.67 29.94
2815 46.5460 3471.09 3312.02 29.46
2816 46.5590 3271.11 3208.03 28.60
2817 46.5720 3108.91 3092.33 27.88
2818 46.5850 3004.99 2970.22 27.41
2819 46.5980 2856.17 2846.51 26.72
2820 46.6110 2739.03 2725.23 26.17
2821 46.6240 2627.24 2608.25 25.63
2822 46.6370 2544.15 2501.12 25.22
2823 46.6500 2435.25 2404.39 24.67
2824 46.6630 2420.94 2320.30 24.60
2825 46.6760 2333.69 2248.88 24.15
2826 46.6890 2347.95 2191.68 24.23
2827 46.7020 2275.78 2149.41 23.85
2828 46.7150 2283.74 2122.68 23.89
2829 46.7280 2242.61 2111.96 23.68
2830 46.7410 2241.33 2117.64 23.67
2831 46.7540 2269.87 2140.07 23.82
2832 46.7670 2269.50 2179.59 23.82
2833 46.7800 2307.04 2236.44 24.02
2834 46.7930 2363.94 2310.79 24.31
2835 46.8060 2393.38 2402.65 24.46
2836 46.8190 2453.73 2511.75 24.77
2837 46.8320 2459.33 2637.34 24.80
2838 46.8450 2612.42 2778.00 25.56
2839 46.8580 2707.53 2931.49 26.02
2840 46.8710 2828.57 3094.44 26.59
2841 46.8840 2927.13 3262.14 27.05
2842 46.8970 3097.92 3428.58 27.83
2843 46.9100 3259.39 3586.86 28.55
2844 46.9230 3390.68 3728.89 29.11
2845 46.9360 3588.88 3848.64 29.95
2846 46.9490 3726.83 3939.40 30.52
2847 46.9620 3874.23 3996.70 31.12
2848 46.9750 3981.51 4018.15 31.55
2849 46.9880 4017.34 4003.27 31.69
2850 47.0010 4020.46 3953.39 31.70
2851 47.0140 3891.17 3871.37 31.19
2852 47.0270 3821.46 3761.23 30.91
2853 47.0400 3655.44 3627.89 30.23
2854 47.0530 3421.39 3476.78 29.25
2855 47.0660 3228.70 3313.50 28.41
2856 47.0790 3040.75 3143.09 27.57
2857 47.0920 2890.68 2970.28 26.88
2858 47.1050 2712.64 2799.00 26.04
2859 47.1180 2570.11 2632.42 25.35
2860 47.1310 2419.55 2472.85 24.59
2861 47.1440 2299.84 2322.03 23.98
2862 47.1570 2164.64 2181.11 23.26
2863 47.1700 2081.63 2050.79 22.81
2864 47.1830 1982.39 1931.20 22.26
2865 47.1960 1906.43 1822.34 21.83
2866 47.2090 1850.82 1723.92 21.51
2867 47.2220 1759.05 1635.49 20.97
2868 47.2350 1703.56 1556.38 20.64
2869 47.2480 1625.15 1485.93 20.16
2870 47.2610 1574.95 1423.41 19.84
2871 47.2740 1551.91 1368.10 19.70
2872 47.2870 1531.71 1319.21 19.57
2873 47.3000 1443.29 1276.07 19.00
2874 47.3130 1411.66 1238.02 18.79
2875 47.3260 1365.68 1204.47 18.48
2876 47.3390 1352.36 1174.87 18.39
2877 47.3520 1306.72 1148.75 18.07
2878 47.3650 1280.38 1125.69 17.89
2879 47.3780 1274.90 1105.35 17.85
2880 47.3910 1259.87 1087.42 17.75
2881 47.4040 1213.31 1071.67 17.42
2882 47.4170 1194.83 1057.90 17.28
2883 47.4300 1193.44 1045.96 17.27
2884 47.4430 1180.15 1035.74 17.18
2885 47.4560 1158.67 1027.14 17.02
2886 47.4690 1148.67 1020.13 16.95
2887 47.4820 1157.90 1014.66 17.01
2888 47.4950 1144.74 1010.73 16.92
2889 47.5080 1106.79 1008.33 16.63
2890 47.5210 1089.04 1007.50 16.50
2891 47.5340 1086.41 1008.27 16.48
2892 47.5470 1088.20 1010.68 16.49
2893 47.5600 1106.33 1014.78 16.63
2894 47.5730 1107.10 1020.61 16.64
2895 47.5860 1071.00 1028.24 16.36
2896 47.5990 1057.99 1037.60 16.26
2897 47.6120 1067.31 1048.71 16.33
2898 47.6250 1070.02 1061.42 16.36
2899 47.6380 1088.09 1075.55 16.49
2900 47.6510 1090.54 1090.78 16.51
2901 47.6640 1105.74 1106.96 16.63
2902 47.6770 1146.77 1122.93 16.93
2903 47.6900 1168.04 1138.29 17.09
2904 47.7030 1179.74 1152.28 17.17
2905 47.7160 1168.34 1164.22 17.09
2906 47.7290 1195.18 1173.57 17.29
2907 47.7420 1201.03 1180.03 17.33
2908 47.7550 1204.25 1183.60 17.35
2909 47.7680 1206.20 1184.55 17.37
2910 47.7810 1170.76 1183.39 17.11
2911 47.7940 1166.28 1180.75 17.08
2912 47.8070 1135.56 1177.26 16.85
2913 47.8200 1135.32 1173.52 16.85
2914 47.8330 1126.48 1170.00 16.78
2915 47.8460 1115.49 1167.01 16.70
2916 47.8590 1087.36 1164.72 16.49
2917 47.8720 1110.37 1163.12 16.66
2918 47.8850 1098.82 1162.10 16.57
2919 47.8980 1098.35 1161.46 16.57
2920 47.9110 1112.25 1160.99 16.68
2921 47.9240 1121.00 1160.56 16.74
2922 47.9370 1125.57 1160.17 16.77
2923 47.9500 1144.28 1159.91 16.91
2924 47.9630 1132.14 1160.05 16.82
2925 47.9760 1149.11 1160.90 16.95
2926 47.9890 1120.62 1162.81 16.74
2927 48.0020 1149.39 1166.07 16.95
2928 48.0150 1141.92 1170.86 16.90
2929 48.0280 1194.95 1177.22 17.28
2930 48.0410 1231.46 1184.96 17.55
2931 48.0540 1254.08 1193.70 17.71
2932 48.0670 1280.95 1202.81 17.90
2933 48.0800 1327.31 1211.44 18.22
2934 48.0930 1410.07 1218.61 18.78
2935 48.1060 1459.46 1223.31 19.10
2936 48.1190 1477.88 1224.62 19.22
2937 48.1320 1510.19 1221.88 19.43
2938 48.1450 1550.92 1214.77 19.69
2939 48.1580 1611.06 1203.36 20.07
2940 48.1710 1577.57 1188.05 19.86
2941 48.1840 1539.86 1169.49 19.62
2942 48.1970 1521.29 1148.42 19.50
2943 48.2100 1386.09 1125.63 18.62
2944 48.2230 1362.49 1101.86 18.46
2945 48.2360 1282.83 1077.75 17.91
2946 48.2490 1274.75 1053.82 17.85
2947 48.2620 1189.12 1030.49 17.24
2948 48.2750 1150.48 1008.09 16.96
2949 48.2880 1103.90 986.87 16.61
2950 48.3010 1077.30 966.97 16.41
2951 48.3140 1025.94 948.50 16.02
2952 48.3270 1019.43 931.53 15.96
2953 48.3400 984.80 916.07 15.69
2954 48.3530 944.89 902.79 15.37
2955 48.3660 932.62 890.26 15.27
2956 48.3790 934.30 879.11 15.28
2957 48.3920 904.81 869.25 15.04
2958 48.4050 895.31 860.59 14.96
2959 48.4180 868.78 853.03 14.74
2960 48.4310 864.12 847.23 14.70
2961 48.4440 844.82 841.60 14.53
2962 48.4570 851.46 836.79 14.59
2963 48.4700 842.80 832.84 14.52
2964 48.4830 814.01 829.45 14.27
2965 48.4960 826.01 825.32 14.37
2966 48.5090 817.88 823.11 14.30
2967 48.5220 795.12 821.41 14.10
2968 48.5350 815.11 820.20 14.28
2969 48.5480 838.32 819.44 14.48
2970 48.5610 815.22 818.37 14.28
2971 48.5740 798.04 818.51 14.12
2972 48.5870 791.83 819.10 14.07
2973 48.6000 789.16 820.16 14.05
2974 48.6130 797.01 821.71 14.12
2975 48.6260 809.31 823.81 14.22
2976 48.6390 827.05 826.50 14.38
2977 48.6520 813.34 829.84 14.26
2978 48.6650 811.39 833.92 14.24
2979 48.6780 803.57 838.84 14.17
2980 48.6910 800.82 844.68 14.15
2981 48.7040 813.39 851.59 14.26
2982 48.7170 830.18 859.70 14.41
2983 48.7300 830.60 869.16 14.41
2984 48.7430 836.04 880.15 14.46
2985 48.7560 839.83 892.86 14.49
2986 48.7690 855.93 907.49 14.63
2987 48.7820 877.54 924.40 14.81
2988 48.7950 878.24 943.56 14.82
2989 48.8080 882.39 965.34 14.85
2990 48.8210 893.15 990.00 14.94
2991 48.8340 918.92 1017.78 15.16
2992 48.8470 958.84 1048.90 15.48
2993 48.8600 985.50 1083.53 15.70
2994 48.8730 1013.56 1121.77 15.92
2995 48.8860 1043.35 1163.58 16.15
2996 48.8990 1072.36 1208.75 16.37
2997 48.9120 1113.27 1256.85 16.68
2998 48.9250 1153.86 1307.08 16.98
2999 48.9380 1213.45 1358.28 17.42
3000 48.9510 1282.92 1408.90 17.91
3001 48.9640 1348.14 1456.98 18.36
3002 48.9770 1417.59 1500.31 18.83
3003 48.9900 1478.53 1536.61 19.23
3004 49.0030 1551.74 1563.88 19.70
3005 49.0160 1614.48 1580.60 20.09
3006 49.0290 1676.53 1586.02 20.47
3007 49.0420 1678.06 1580.19 20.48
3008 49.0550 1672.98 1563.94 20.45
3009 49.0680 1642.32 1538.68 20.26
3010 49.0810 1597.54 1506.11 19.98
3011 49.0940 1557.11 1468.41 19.73
3012 49.1070 1436.64 1426.65 18.95
3013 49.1200 1366.60 1382.74 18.48
3014 49.1330 1308.41 1338.03 18.09
3015 49.1460 1255.47 1293.65 17.72
3016 49.1590 1223.77 1250.52 17.49
3017 49.1720 1191.88 1209.65 17.26
3018 49.1850 1143.12 1170.94 16.91
3019 49.1980 1129.19 1135.12 16.80
3020 49.2110 1099.54 1102.45 16.58
3021 49.2240 1076.59 1073.12 16.41
3022 49.2370 1056.42 1047.20 16.25
3023 49.2500 1021.21 1024.71 15.98
3024 49.2630 1009.28 1005.62 15.88
3025 49.2760 987.93 989.81 15.72
3026 49.2890 976.76 977.17 15.63
3027 49.3020 951.25 967.54 15.42
3028 49.3150 922.68 960.72 15.19
3029 49.3280 963.88 956.53 15.52
3030 49.3410 963.78 954.73 15.52
3031 49.3540 948.21 955.10 15.40
3032 49.3670 963.68 957.40 15.52
3033 49.3800 982.37 961.42 15.67
3034 49.3930 965.88 966.96 15.54
3035 49.4060 982.61 973.84 15.67
3036 49.4190 1008.42 981.94 15.88
3037 49.4320 1009.46 991.15 15.89
3038 49.4450 988.77 1001.37 15.72
3039 49.4580 1015.72 1012.46 15.94
3040 49.4710 1034.86 1024.19 16.08
3041 49.4840 1038.56 1036.25 16.11
3042 49.4970 1041.99 1048.22 16.14
3043 49.5100 1038.77 1059.56 16.11
3044 49.5230 1080.19 1069.67 16.43
3045 49.5360 1083.93 1077.99 16.46
3046 49.5490 1089.57 1084.03 16.50
3047 49.5620 1090.95 1087.49 16.51
3048 49.5750 1131.95 1088.30 16.82
3049 49.5880 1132.15 1086.63 16.82
3050 49.6010 1108.60 1082.86 16.65
3051 49.6140 1077.41 1077.48 16.41
3052 49.6270 1053.21 1071.10 16.23
3053 49.6400 1076.35 1064.34 16.40
3054 49.6530 1020.40 1057.76 15.97
3055 49.6660 996.59 1051.90 15.78
3056 49.6790 980.60 1047.21 15.66
3057 49.6920 984.72 1044.03 15.69
3058 49.7050 978.98 1042.60 15.64
3059 49.7180 980.69 1043.05 15.66
3060 49.7310 970.50 1045.37 15.58
3061 49.7440 986.24 1049.38 15.70
3062 49.7570 1015.90 1054.76 15.94
3063 49.7700 995.88 1060.99 15.78
3064 49.7830 1023.13 1067.41 15.99
3065 49.7960 1026.81 1073.24 16.02
3066 49.8090 1019.11 1077.67 15.96
3067 49.8220 1010.81 1079.92 15.90
3068 49.8350 1019.23 1079.45 15.96
3069 49.8480 1052.29 1075.81 16.22
3070 49.8610 1028.89 1068.95 16.04
3071 49.8740 1049.66 1059.04 16.20
3072 49.8870 1006.43 1046.48 15.86
3073 49.9000 980.29 1031.75 15.65
3074 49.9130 950.94 1015.42 15.42
3075 49.9260 957.09 998.04 15.47
3076 49.9390 936.91 980.12 15.30
3077 49.9520 917.89 960.75 15.15
3078 49.9650 912.75 943.00 15.11
3079 49.9780 880.42 925.82 14.84
3080 49.9910 855.46 909.46 14.62
3081 50.0040 864.01 892.18 14.70
3082 50.0170 852.66 877.99 14.60
3083 50.0300 831.71 865.05 14.42
3084 50.0430 807.88 853.45 14.21
3085 50.0560 812.64 843.22 14.25
3086 50.0690 804.32 834.41 14.18
3087 50.0820 784.17 827.00 14.00
3088 50.0950 770.45 821.02 13.88
3089 50.1080 767.54 816.46 13.85
3090 50.1210 770.67 813.32 13.88
3091 50.1340 781.09 811.60 13.97
3092 50.1470 789.07 811.31 14.05
3093 50.1600 772.12 812.48 13.89
3094 50.1730 759.72 815.13 13.78
3095 50.1860 759.24 819.31 13.78
3096 50.1990 762.78 825.09 13.81
3097 50.2120 776.03 832.55 13.93
3098 50.2250 783.47 841.76 14.00
3099 50.2380 779.31 852.83 13.96
3100 50.2510 786.24 865.86 14.02
3101 50.2640 801.18 880.94 14.15
3102 50.2770 814.08 898.16 14.27
3103 50.2900 835.56 917.55 14.45
3104 50.3030 848.59 939.12 14.57
3105 50.3160 855.53 962.74 14.62
3106 50.3290 861.71 989.34 14.68
3107 50.3420 916.47 1016.29 15.14
3108 50.3550 982.05 1044.13 15.67
3109 50.3680 1022.82 1072.07 15.99
3110 50.3810 1080.36 1099.10 16.43
3111 50.3940 1139.65 1124.07 16.88
3112 50.4070 1238.23 1145.72 17.59
3113 50.4200 1296.76 1162.86 18.01
3114 50.4330 1328.16 1174.53 18.22
3115 50.4460 1335.93 1180.10 18.28
3116 50.4590 1339.32 1179.35 18.30
3117 50.4720 1320.60 1169.91 18.17
3118 50.4850 1287.50 1157.58 17.94
3119 50.4980 1227.50 1140.56 17.52
3120 50.5110 1177.01 1119.77 17.15
3121 50.5240 1131.75 1096.31 16.82
3122 50.5370 1068.69 1070.81 16.35
3123 50.5500 1026.99 1042.80 16.02
3124 50.5630 988.42 1015.79 15.72
3125 50.5760 966.51 988.94 15.54
3126 50.5890 920.55 962.70 15.17
3127 50.6020 888.13 937.44 14.90
3128 50.6150 861.91 913.42 14.68
3129 50.6280 859.32 890.83 14.66
3130 50.6410 835.03 869.80 14.45
3131 50.6540 809.06 850.42 14.22
3132 50.6670 796.24 832.67 14.11
3133 50.6800 789.38 816.56 14.05
3134 50.6930 780.87 802.02 13.97
3135 50.7060 769.76 788.97 13.87
3136 50.7190 745.13 777.33 13.65
3137 50.7320 746.18 766.98 13.66
3138 50.7450 738.21 757.80 13.59
3139 50.7580 744.72 749.70 13.64
3140 50.7710 711.13 742.55 13.33
3141 50.7840 714.39 736.24 13.36
3142 50.7970 699.62 730.69 13.23
3143 50.8100 725.71 725.80 13.47
3144 50.8230 713.08 721.84 13.35
3145 50.8360 699.23 718.04 13.22
3146 50.8490 677.82 714.70 13.02
3147 50.8620 686.42 711.75 13.10
3148 50.8750 669.34 709.14 12.94
3149 50.8880 696.84 706.85 13.20
3150 50.9010 693.60 704.83 13.17
3151 50.9140 674.76 703.06 12.99
3152 50.9270 681.72 701.51 13.05
3153 50.9400 645.18 700.16 12.70
3154 50.9530 698.97 699.00 13.22
3155 50.9660 672.35 698.02 12.96
3156 50.9790 663.19 697.19 12.88
3157 50.9920 673.53 696.52 12.98
3158 51.0050 676.32 696.00 13.00
3159 51.0180 669.53 695.62 12.94
3160 51.0310 687.05 695.38 13.11
3161 51.0440 673.63 695.28 12.98
3162 51.0570 654.71 695.34 12.79
3163 51.0700 670.79 695.54 12.95
3164 51.0830 670.73 695.91 12.95
3165 51.0960 660.86 696.45 12.85
3166 51.1090 682.17 697.18 13.06
3167 51.1220 679.43 698.11 13.03
3168 51.1350 667.05 699.27 12.91
3169 51.1480 666.43 700.68 12.91
3170 51.1610 659.34 702.38 12.84
3171 51.1740 678.29 704.38 13.02
3172 51.1870 681.31 707.16 13.05
3173 51.2000 704.51 709.91 13.27
3174 51.2130 675.82 713.10 13.00
3175 51.2260 678.84 716.78 13.03
3176 51.2390 702.18 721.02 13.25
3177 51.2520 692.76 725.86 13.16
3178 51.2650 694.03 731.37 13.17
3179 51.2780 719.70 737.64 13.41
3180 51.2910 735.30 744.71 13.56
3181 51.3040 734.46 752.67 13.55
3182 51.3170 715.54 761.24 13.37
3183 51.3300 719.88 771.17 13.42
3184 51.3430 738.31 782.15 13.59
3185 51.3560 751.74 794.21 13.71
3186 51.3690 759.32 807.34 13.78
3187 51.3820 768.52 821.48 13.86
3188 51.3950 789.45 836.53 14.05
3189 51.4080 799.18 852.31 14.13
3190 51.4210 828.04 868.59 14.39
3191 51.4340 856.09 885.06 14.63
3192 51.4470 868.12 901.44 14.73
3193 51.4600 892.73 917.03 14.94
3194 51.4730 905.51 931.42 15.05
3195 51.4860 923.41 944.07 15.19
3196 51.4990 946.27 954.42 15.38
3197 51.5120 954.27 962.03 15.45
3198 51.5250 955.33 966.35 15.45
3199 51.5380 925.29 967.62 15.21
3200 51.5510 921.82 965.70 15.18
3201 51.5640 934.29 960.79 15.28
3202 51.5770 899.62 953.26 15.00
3203 51.5900 883.71 943.57 14.86
3204 51.6030 878.59 932.22 14.82
3205 51.6160 880.52 919.68 14.84
3206 51.6290 848.58 906.43 14.57
3207 51.6420 816.45 892.84 14.29
3208 51.6550 827.10 879.27 14.38
3209 51.6680 816.85 866.01 14.29
3210 51.6810 783.08 853.28 13.99
3211 51.6940 770.34 841.25 13.88
3212 51.7070 785.16 830.07 14.01
3213 51.7200 774.40 819.84 13.91
3214 51.7330 757.65 810.62 13.76
3215 51.7460 778.64 802.01 13.95
3216 51.7590 771.31 794.89 13.89
3217 51.7720 756.25 788.84 13.75
3218 51.7850 758.78 783.82 13.77
3219 51.7980 760.51 779.82 13.79
3220 51.8110 762.82 776.81 13.81
3221 51.8240 762.75 774.76 13.81
3222 51.8370 747.60 773.64 13.67
3223 51.8500 759.09 773.44 13.78
3224 51.8630 782.21 774.14 13.98
3225 51.8760 787.05 775.76 14.03
3226 51.8890 789.87 778.30 14.05
3227 51.9020 797.41 781.81 14.12
3228 51.9150 778.66 786.32 13.95
3229 51.9280 792.27 791.91 14.07
3230 51.9410 797.97 798.66 14.12
3231 51.9540 798.93 806.68 14.13
3232 51.9670 807.39 816.09 14.21
3233 51.9800 810.34 827.04 14.23
3234 51.9930 802.69 839.71 14.17
3235 52.0060 852.91 854.27 14.60
3236 52.0190 852.13 870.95 14.60
3237 52.0320 883.34 889.97 14.86
3238 52.0450 904.34 911.59 15.04
3239 52.0580 910.09 936.10 15.08
3240 52.0710 922.00 963.78 15.18
3241 52.0840 951.82 994.91 15.43
3242 52.0970 984.22 1029.76 15.69
3243 52.1100 982.96 1068.60 15.68
3244 52.1230 1000.33 1111.62 15.81
3245 52.1360 1035.97 1158.93 16.09
3246 52.1490 1062.28 1210.47 16.30
3247 52.1620 1169.94 1266.11 17.10
3248 52.1750 1173.73 1325.41 17.13
3249 52.1880 1229.23 1387.67 17.53
3250 52.2010 1265.47 1451.94 17.79
3251 52.2140 1343.28 1516.97 18.33
3252 52.2270 1394.89 1581.34 18.67
3253 52.2400 1447.13 1643.44 19.02
3254 52.2530 1502.54 1701.71 19.38
3255 52.2660 1551.98 1754.59 19.70
3256 52.2790 1648.87 1800.73 20.30
3257 52.2920 1643.99 1838.91 20.27
3258 52.3050 1668.65 1868.10 20.42
3259 52.3180 1688.44 1887.46 20.55
3260 52.3310 1708.93 1896.38 20.67
3261 52.3440 1711.22 1894.50 20.68
3262 52.3570 1713.69 1881.85 20.70
3263 52.3700 1691.49 1858.87 20.56
3264 52.3830 1668.79 1826.40 20.43
3265 52.3960 1657.77 1785.64 20.36
3266 52.4090 1618.60 1738.04 20.12
3267 52.4220 1564.36 1685.22 19.78
3268 52.4350 1504.74 1628.76 19.40
3269 52.4480 1466.14 1570.20 19.15
3270 52.4610 1422.74 1510.89 18.86
3271 52.4740 1393.45 1452.09 18.66
3272 52.4870 1324.45 1394.76 18.20
3273 52.5000 1260.52 1339.74 17.75
3274 52.5130 1218.45 1287.68 17.45
3275 52.5260 1205.77 1239.06 17.36
3276 52.5390 1173.02 1194.25 17.12
3277 52.5520 1138.36 1153.44 16.87
3278 52.5650 1114.14 1116.73 16.69
3279 52.5780 1087.45 1084.16 16.49
3280 52.5910 1097.40 1055.64 16.56
3281 52.6040 1088.35 1031.06 16.50
3282 52.6170 1041.45 1010.19 16.14
3283 52.6300 1047.62 992.79 16.18
3284 52.6430 1037.99 978.52 16.11
3285 52.6560 1015.60 967.01 15.93
3286 52.6690 1011.09 957.84 15.90
3287 52.6820 1000.62 950.56 15.82
3288 52.6950 983.76 943.69 15.68
3289 52.7080 992.64 938.82 15.75
3290 52.7210 993.62 934.53 15.76
3291 52.7340 990.07 930.52 15.73
3292 52.7470 1004.83 926.56 15.85
3293 52.7600 1024.87 922.58 16.01
3294 52.7730 1035.38 918.60 16.09
3295 52.7860 1030.54 914.73 16.05
3296 52.7990 1014.59 911.16 15.93
3297 52.8120 1002.38 908.10 15.83
3298 52.8250 1001.63 905.82 15.82
3299 52.8380 996.24 904.58 15.78
3300 52.8510 979.22 904.61 15.65
3301 52.8640 966.71 906.18 15.55
3302 52.8770 964.21 909.51 15.53
3303 52.8900 954.07 914.82 15.44
3304 52.9030 935.62 922.29 15.29
3305 52.9160 935.60 932.10 15.29
3306 52.9290 960.56 944.35 15.50
3307 52.9420 957.97 959.12 15.48
3308 52.9550 975.94 976.38 15.62
3309 52.9680 1013.20 996.03 15.92
3310 52.9810 1028.12 1017.84 16.03
3311 52.9940 1040.88 1041.44 16.13
3312 53.0070 1061.73 1066.32 16.29
3313 53.0200 1092.80 1091.80 16.53
3314 53.0330 1106.57 1117.13 16.63
3315 53.0460 1133.68 1141.43 16.84
3316 53.0590 1141.27 1163.79 16.89
3317 53.0720 1165.78 1183.39 17.07
3318 53.0850 1176.70 1199.42 17.15
3319 53.0980 1167.20 1211.25 17.08
3320 53.1110 1173.72 1218.29 17.13
3321 53.1240 1203.43 1220.37 17.35
3322 53.1370 1180.94 1217.28 17.18
3323 53.1500 1171.33 1209.10 17.11
3324 53.1630 1179.62 1196.13 17.17
3325 53.1760 1159.22 1178.82 17.02
3326 53.1890 1129.60 1157.80 16.80
3327 53.2020 1115.21 1133.77 16.70
3328 53.2150 1097.52 1107.48 16.56
3329 53.2280 1025.53 1079.66 16.01
3330 53.2410 1007.45 1050.97 15.87
3331 53.2540 984.41 1022.03 15.69
3332 53.2670 927.06 993.89 15.22
3333 53.2800 947.23 965.88 15.39
3334 53.2930 900.81 938.87 15.01
3335 53.3060 859.20 913.13 14.66
3336 53.3190 885.36 888.84 14.88
3337 53.3320 876.74 866.16 14.80
3338 53.3450 850.92 845.14 14.59
3339 53.3580 823.42 825.81 14.35
3340 53.3710 828.53 808.16 14.39
3341 53.3840 800.11 792.14 14.14
3342 53.3970 802.18 777.68 14.16
3343 53.4100 783.20 764.72 13.99
3344 53.4230 780.47 753.13 13.97
3345 53.4360 777.26 742.83 13.94
3346 53.4490 763.15 733.71 13.81
3347 53.4620 742.67 725.66 13.63
3348 53.4750 733.04 718.57 13.54
3349 53.4880 738.03 712.78 13.58
3350 53.5010 754.17 707.35 13.73
3351 53.5140 720.93 702.62 13.43
3352 53.5270 698.06 698.52 13.21
3353 53.5400 709.16 694.98 13.31
3354 53.5530 684.08 691.95 13.08
3355 53.5660 681.73 689.02 13.06
3356 53.5790 699.34 686.87 13.22
3357 53.5920 678.61 685.11 13.03
3358 53.6050 688.78 683.71 13.12
3359 53.6180 667.08 682.66 12.91
3360 53.6310 664.53 681.92 12.89
3361 53.6440 681.78 681.49 13.06
3362 53.6570 659.03 681.37 12.84
3363 53.6700 680.24 681.53 13.04
3364 53.6830 666.53 681.99 12.91
3365 53.6960 655.19 682.73 12.80
3366 53.7090 671.11 683.76 12.95
3367 53.7220 648.79 685.06 12.74
3368 53.7350 648.59 686.63 12.73
3369 53.7480 646.76 688.45 12.72
3370 53.7610 677.08 690.51 13.01
3371 53.7740 669.33 692.78 12.94
3372 53.7870 663.01 695.22 12.87
3373 53.8000 669.50 697.77 12.94
3374 53.8130 671.11 700.39 12.95
3375 53.8260 681.64 703.02 13.05
3376 53.8390 663.06 705.58 12.88
3377 53.8520 683.80 708.02 13.07
3378 53.8650 679.09 710.31 13.03
3379 53.8780 689.80 712.43 13.13
3380 53.8910 686.92 714.37 13.10
3381 53.9040 675.12 716.17 12.99
3382 53.9170 685.22 717.88 13.09
3383 53.9300 676.57 719.57 13.01
3384 53.9430 686.21 721.31 13.10
3385 53.9560 693.98 723.19 13.17
3386 53.9690 683.15 725.32 13.07
3387 53.9820 665.66 727.77 12.90
3388 53.9950 698.83 730.66 13.22
3389 54.0080 723.95 734.09 13.45
3390 54.0210 708.61 738.17 13.31
3391 54.0340 717.52 743.00 13.39
3392 54.0470 735.05 748.71 13.56
3393 54.0600 739.47 755.43 13.60
3394 54.0730 747.55 763.27 13.67
3395 54.0860 762.44 772.40 13.81
3396 54.0990 761.75 782.97 13.80
3397 54.1120 771.35 795.14 13.89
3398 54.1250 787.03 809.11 14.03
3399 54.1380 791.83 825.08 14.07
3400 54.1510 813.52 843.27 14.26
3401 54.1640 832.14 864.04 14.42
3402 54.1770 855.41 887.40 14.62
3403 54.1900 878.33 913.74 14.82
3404 54.2030 903.19 943.33 15.03
3405 54.2160 942.53 975.85 15.35
3406 54.2290 981.60 1012.69 15.67
3407 54.2420 1042.24 1053.42 16.14
3408 54.2550 1095.31 1098.15 16.55
3409 54.2680 1146.25 1146.81 16.93
3410 54.2810 1219.47 1199.13 17.46
3411 54.2940 1268.87 1254.64 17.81
3412 54.3070 1362.34 1312.57 18.45
3413 54.3200 1492.62 1371.76 19.32
3414 54.3330 1592.64 1430.73 19.95
3415 54.3460 1721.21 1487.67 20.74
3416 54.3590 1873.21 1540.54 21.64
3417 54.3720 1967.70 1587.28 22.18
3418 54.3850 2059.25 1625.99 22.69
3419 54.3980 2091.84 1655.10 22.87
3420 54.4110 2077.11 1673.62 22.79
3421 54.4240 2091.71 1681.23 22.87
3422 54.4370 2006.97 1678.23 22.40
3423 54.4500 1908.20 1665.46 21.84
3424 54.4630 1777.30 1644.18 21.08
3425 54.4760 1674.88 1615.86 20.46
3426 54.4890 1578.20 1582.01 19.86
3427 54.5020 1445.46 1544.11 19.01
3428 54.5150 1396.83 1503.61 18.69
3429 54.5280 1311.95 1461.46 18.11
3430 54.5410 1270.18 1418.72 17.82
3431 54.5540 1230.87 1376.13 17.54
3432 54.5670 1229.04 1334.28 17.53
3433 54.5800 1153.87 1293.56 16.98
3434 54.5930 1123.74 1254.27 16.76
3435 54.6060 1111.11 1216.66 16.67
3436 54.6190 1095.27 1180.91 16.55
3437 54.6320 1038.07 1147.16 16.11
3438 54.6450 1046.14 1115.60 16.17
3439 54.6580 1008.51 1086.36 15.88
3440 54.6710 1001.65 1059.60 15.82
3441 54.6840 946.60 1035.46 15.38
3442 54.6970 952.89 1014.01 15.43
3443 54.7100 936.77 995.34 15.30
3444 54.7230 928.15 979.53 15.23
3445 54.7360 907.65 966.58 15.06
3446 54.7490 860.62 956.50 14.67
3447 54.7620 864.70 949.28 14.70
3448 54.7750 899.96 944.85 15.00
3449 54.7880 851.88 943.12 14.59
3450 54.8010 861.99 943.94 14.68
3451 54.8140 869.62 947.10 14.74
3452 54.8270 838.58 952.32 14.48
3453 54.8400 887.79 959.41 14.90
3454 54.8530 859.62 967.48 14.66
3455 54.8660 870.16 976.16 14.75
3456 54.8790 867.24 984.79 14.72
3457 54.8920 884.08 992.76 14.87
3458 54.9050 880.33 999.32 14.84
3459 54.9180 880.38 1003.96 14.84
3460 54.9310 888.66 1006.27 14.91
3461 54.9440 881.69 1006.04 14.85
3462 54.9570 916.78 1003.23 15.14
3463 54.9700 903.66 998.01 15.03
3464 54.9830 882.31 990.69 14.85
3465 54.9960 882.35 981.68 14.85
3466 55.0090 871.27 971.44 14.76
3467 55.0220 872.99 960.45 14.77
3468 55.0350 870.17 949.17 14.75
3469 55.0480 858.43 938.07 14.65
3470 55.0610 843.49 927.78 14.52
3471 55.0740 848.00 918.20 14.56
3472 55.0870 845.21 909.91 14.54
3473 55.1000 815.90 903.20 14.28
3474 55.1130 831.66 898.34 14.42
3475 55.1260 817.27 895.53 14.29
3476 55.1390 792.56 894.97 14.08
3477 55.1520 798.85 896.76 14.13
3478 55.1650 818.11 900.97 14.30
3479 55.1780 818.98 907.60 14.31
3480 55.1910 808.50 916.56 14.22
3481 55.2040 815.07 927.65 14.27
3482 55.2170 832.12 940.56 14.42
3483 55.2300 856.16 954.85 14.63
3484 55.2430 894.28 969.94 14.95
3485 55.2560 914.46 985.14 15.12
3486 55.2690 917.86 999.67 15.15
3487 55.2820 926.44 1012.73 15.22
3488 55.2950 938.29 1023.51 15.32
3489 55.3080 937.72 1031.45 15.31
3490 55.3210 929.69 1036.11 15.25
3491 55.3340 940.15 1037.17 15.33
3492 55.3470 949.90 1034.71 15.41
3493 55.3600 937.33 1028.94 15.31
3494 55.3730 915.92 1019.99 15.13
3495 55.3860 900.90 1008.91 15.01
3496 55.3990 884.59 995.98 14.87
3497 55.4120 870.91 981.75 14.76
3498 55.4250 864.79 966.73 14.70
3499 55.4380 823.93 951.40 14.35
3500 55.4510 798.84 936.16 14.13
3501 55.4640 799.27 921.34 14.14
3502 55.4770 781.24 907.20 13.98
3503 55.4900 780.15 893.91 13.97
3504 55.5030 781.77 881.57 13.98
3505 55.5160 786.68 870.19 14.02
3506 55.5290 784.24 859.72 14.00
3507 55.5420 789.78 850.04 14.05
3508 55.5550 797.67 840.98 14.12
3509 55.5680 793.69 832.34 14.09
3510 55.5810 768.51 823.91 13.86
3511 55.5940 799.57 815.49 14.14
3512 55.6070 789.58 806.94 14.05
3513 55.6200 769.35 798.15 13.87
3514 55.6330 749.23 789.09 13.69
3515 55.6460 732.43 779.77 13.53
3516 55.6590 719.34 770.30 13.41
3517 55.6720 724.73 760.65 13.46
3518 55.6850 701.70 750.98 13.24
3519 55.6980 667.32 741.39 12.92
3520 55.7110 660.90 731.97 12.85
3521 55.7240 644.46 722.81 12.69
3522 55.7370 634.07 714.00 12.59
3523 55.7500 634.08 705.60 12.59
3524 55.7630 631.16 697.66 12.56
3525 55.7760 621.56 690.23 12.47
3526 55.7890 619.06 683.32 12.44
3527 55.8020 625.01 676.96 12.50
3528 55.8150 602.23 671.16 12.27
3529 55.8280 593.78 665.86 12.18
3530 55.8410 598.96 661.05 12.24
3531 55.8540 609.36 656.69 12.34
3532 55.8670 589.74 652.73 12.14
3533 55.8800 587.48 649.20 12.12
3534 55.8930 608.36 645.86 12.33
3535 55.9060 584.68 642.75 12.09
3536 55.9190 573.84 639.79 11.98
3537 55.9320 585.70 636.96 12.10
3538 55.9450 588.50 634.20 12.13
3539 55.9580 573.88 631.52 11.98
3540 55.9710 592.80 628.88 12.17
3541 55.9840 575.31 626.29 11.99
3542 55.9970 572.69 623.76 11.97
3543 56.0100 589.89 621.28 12.14
3544 56.0230 559.26 618.86 11.82
3545 56.0360 569.07 616.52 11.93
3546 56.0490 557.04 614.26 11.80
3547 56.0620 563.47 612.33 11.87
3548 56.0750 560.05 610.25 11.83
3549 56.0880 575.37 608.27 11.99
3550 56.1010 583.24 606.40 12.08
3551 56.1140 558.90 604.63 11.82
3552 56.1270 567.68 602.97 11.91
3553 56.1400 556.32 601.42 11.79
3554 56.1530 563.14 599.97 11.87
3555 56.1660 550.24 597.96 11.73
3556 56.1790 560.33 596.73 11.84
3557 56.1920 555.23 595.59 11.78
3558 56.2050 562.04 594.55 11.85
3559 56.2180 574.18 593.60 11.98
3560 56.2310 567.52 592.74 11.91
3561 56.2440 563.90 591.96 11.87
3562 56.2570 552.29 590.51 11.75
3563 56.2700 562.39 589.88 11.86
3564 56.2830 565.58 589.32 11.89
3565 56.2960 541.45 588.82 11.63
3566 56.3090 533.58 588.28 11.55
3567 56.3220 550.54 587.90 11.73
3568 56.3350 552.64 587.58 11.75
3569 56.3480 579.40 587.31 12.04
3570 56.3610 552.34 587.09 11.75
3571 56.3740 564.47 586.92 11.88
3572 56.3870 557.55 586.81 11.81
3573 56.4000 542.98 587.04 11.65
3574 56.4130 556.97 587.03 11.80
3575 56.4260 549.87 587.06 11.72
3576 56.4390 546.10 587.15 11.68
3577 56.4520 561.58 587.29 11.85
3578 56.4650 562.84 587.47 11.86
3579 56.4780 551.35 587.71 11.74
3580 56.4910 558.03 587.99 11.81
3581 56.5040 557.58 588.32 11.81
3582 56.5170 552.40 588.69 11.75
3583 56.5300 555.24 589.09 11.78
3584 56.5430 576.44 589.51 12.00
3585 56.5560 566.02 589.95 11.90
3586 56.5690 560.51 590.40 11.84
3587 56.5820 570.44 590.84 11.94
3588 56.5950 584.49 591.26 12.09
3589 56.6080 577.25 591.66 12.01
3590 56.6210 564.66 592.03 11.88
3591 56.6340 568.00 592.38 11.92
3592 56.6470 582.46 592.69 12.07
3593 56.6600 580.34 592.98 12.05
3594 56.6730 562.54 593.11 11.86
3595 56.6860 563.96 593.38 11.87
3596 56.6990 579.13 593.65 12.03
3597 56.7120 588.38 593.93 12.13
3598 56.7250 580.48 594.23 12.05
3599 56.7380 574.42 594.56 11.98
3600 56.7510 565.08 594.92 11.89
3601 56.7640 562.06 595.32 11.85
3602 56.7770 577.55 595.77 12.02
3603 56.7900 577.00 596.27 12.01
3604 56.8030 578.08 596.84 12.02
3605 56.8160 573.62 597.46 11.98
3606 56.8290 565.09 598.16 11.89
3607 56.8420 574.61 598.92 11.99
3608 56.8550 590.05 599.75 12.15
3609 56.8680 587.75 600.72 12.12
3610 56.8810 582.88 601.71 12.07
3611 56.8940 583.24 602.78 12.08
3612 56.9070 594.56 603.95 12.19
3613 56.9200 608.17 605.18 12.33
3614 56.9330 606.37 606.50 12.31
3615 56.9460 616.59 607.96 12.42
3616 56.9590 607.65 609.47 12.33
3617 56.9720 602.67 611.07 12.27
3618 56.9850 609.65 612.77 12.35
3619 56.9980 604.96 614.59 12.30
3620 57.0110 619.31 616.52 12.44
3621 57.0240 622.04 618.59 12.47
3622 57.0370 617.72 620.47 12.43
3623 57.0500 627.97 622.98 12.53
3624 57.0630 610.51 625.53 12.35
3625 57.0760 618.48 628.27 12.43
3626 57.0890 642.46 631.23 12.67
3627 57.1020 651.94 634.43 12.77
3628 57.1150 625.66 637.58 12.51
3629 57.1280 649.60 641.37 12.74
3630 57.1410 653.96 645.52 12.79
3631 57.1540 671.79 650.05 12.96
3632 57.1670 666.64 655.02 12.91
3633 57.1800 676.06 660.48 13.00
3634 57.1930 691.96 666.49 13.15
3635 57.2060 678.98 673.12 13.03
3636 57.2190 708.00 680.45 13.30
3637 57.2320 724.94 688.57 13.46
3638 57.2450 717.52 697.59 13.39
3639 57.2580 719.09 707.62 13.41
3640 57.2710 762.74 718.79 13.81
3641 57.2840 775.93 731.27 13.93
3642 57.2970 786.22 745.22 14.02
3643 57.3100 789.65 760.82 14.05
3644 57.3230 782.04 778.28 13.98
3645 57.3360 791.26 797.81 14.06
3646 57.3490 834.29 819.66 14.44
3647 57.3620 856.03 844.02 14.63
3648 57.3750 864.70 871.14 14.70
3649 57.3880 869.92 901.20 14.75
3650 57.4010 916.00 934.34 15.13
3651 57.4140 969.77 970.69 15.57
3652 57.4270 983.92 1010.18 15.68
3653 57.4400 1025.79 1052.69 16.01
3654 57.4530 1099.46 1097.90 16.58
3655 57.4660 1143.31 1145.30 16.91
3656 57.4790 1170.04 1194.09 17.10
3657 57.4920 1178.81 1243.31 17.17
3658 57.5050 1300.89 1291.95 18.03
3659 57.5180 1319.46 1338.25 18.16
3660 57.5310 1364.16 1381.00 18.47
3661 57.5440 1482.23 1418.89 19.25
3662 57.5570 1526.68 1450.81 19.54
3663 57.5700 1544.56 1475.95 19.65
3664 57.5830 1602.31 1493.96 20.01
3665 57.5960 1579.61 1504.88 19.87
3666 57.6090 1573.01 1509.15 19.83
3667 57.6220 1553.30 1507.51 19.71
3668 57.6350 1513.35 1500.90 19.45
3669 57.6480 1460.12 1490.35 19.11
3670 57.6610 1426.12 1476.87 18.88
3671 57.6740 1391.65 1461.41 18.65
3672 57.6870 1338.65 1444.79 18.29
3673 57.7000 1297.81 1427.60 18.01
3674 57.7130 1294.09 1410.24 17.99
3675 57.7260 1265.55 1392.93 17.79
3676 57.7390 1211.09 1375.62 17.40
3677 57.7520 1217.99 1358.10 17.45
3678 57.7650 1196.36 1340.04 17.29
3679 57.7780 1188.17 1321.03 17.23
3680 57.7910 1170.82 1300.68 17.11
3681 57.8040 1162.59 1278.67 17.05
3682 57.8170 1140.96 1254.88 16.89
3683 57.8300 1113.27 1229.16 16.68
3684 57.8430 1087.65 1201.67 16.49
3685 57.8560 1067.99 1172.68 16.34
3686 57.8690 1038.44 1142.50 16.11
3687 57.8820 1016.63 1111.45 15.94
3688 57.8950 1018.42 1080.03 15.96
3689 57.9080 986.54 1048.54 15.70
3690 57.9210 936.50 1017.36 15.30
3691 57.9340 905.19 986.78 15.04
3692 57.9470 887.21 957.04 14.89
3693 57.9600 869.66 928.37 14.74
3694 57.9730 853.95 900.97 14.61
3695 57.9860 830.06 874.95 14.41
3696 57.9990 807.17 850.41 14.21
3697 58.0120 806.84 827.45 14.20
3698 58.0250 783.79 806.09 14.00
3699 58.0380 756.10 786.34 13.75
3700 58.0510 764.66 768.17 13.83
3701 58.0640 747.51 751.58 13.67
3702 58.0770 740.83 736.50 13.61
3703 58.0900 732.98 722.86 13.54
3704 58.1030 688.71 710.60 13.12
3705 58.1160 686.30 699.62 13.10
3706 58.1290 687.09 689.85 13.11
3707 58.1420 691.60 681.19 13.15
3708 58.1550 691.45 673.57 13.15
3709 58.1680 676.13 666.89 13.00
3710 58.1810 676.71 661.08 13.01
3711 58.1940 681.22 656.08 13.05
3712 58.2070 657.29 651.82 12.82
3713 58.2200 642.95 648.25 12.68
3714 58.2330 661.46 645.33 12.86
3715 58.2460 664.21 643.01 12.89
3716 58.2590 655.98 641.27 12.81
3717 58.2720 637.09 640.09 12.62
3718 58.2850 619.11 639.45 12.44
3719 58.2980 646.01 639.36 12.71
3720 58.3110 650.03 639.81 12.75
3721 58.3240 634.42 640.81 12.59
3722 58.3370 633.42 642.36 12.58
3723 58.3500 645.51 644.47 12.70
3724 58.3630 642.17 647.15 12.67
3725 58.3760 637.77 650.40 12.63
3726 58.3890 619.93 654.21 12.45
3727 58.4020 628.30 658.55 12.53
3728 58.4150 637.96 663.37 12.63
3729 58.4280 628.56 668.62 12.54
3730 58.4410 637.33 674.18 12.62
3731 58.4540 644.72 678.79 12.70
3732 58.4670 658.23 684.57 12.83
3733 58.4800 663.76 690.17 12.88
3734 58.4930 652.27 695.40 12.77
3735 58.5060 662.31 700.05 12.87
3736 58.5190 676.85 703.94 13.01
3737 58.5320 669.46 706.91 12.94
3738 58.5450 662.70 708.86 12.87
3739 58.5580 661.11 709.77 12.86
3740 58.5710 671.31 709.63 12.95
3741 58.5840 661.18 708.53 12.86
3742 58.5970 669.25 706.57 12.93
3743 58.6100 656.84 703.88 12.81
3744 58.6230 644.97 700.64 12.70
3745 58.6360 655.77 696.98 12.80
3746 58.6490 654.47 693.07 12.79
3747 58.6620 652.88 689.07 12.78
3748 58.6750 641.52 684.95 12.66
3749 58.6880 657.36 681.15 12.82
3750 58.7010 626.36 677.61 12.51
3751 58.7140 644.21 674.46 12.69
3752 58.7270 660.38 671.78 12.85
3753 58.7400 639.36 669.63 12.64
3754 58.7530 616.60 668.08 12.42
3755 58.7660 637.84 667.16 12.63
3756 58.7790 649.18 666.89 12.74
3757 58.7920 625.84 667.27 12.51
3758 58.8050 634.33 668.27 12.59
3759 58.8180 650.44 669.85 12.75
3760 58.8310 648.73 671.92 12.74
3761 58.8440 661.34 674.38 12.86
3762 58.8570 686.10 677.12 13.10
3763 58.8700 657.37 680.00 12.82
3764 58.8830 669.86 682.92 12.94
3765 58.8960 690.94 685.68 13.14
3766 58.9090 682.78 688.20 13.07
3767 58.9220 690.61 690.41 13.14
3768 58.9350 703.44 692.28 13.26
3769 58.9480 697.29 693.82 13.20
3770 58.9610 716.73 695.08 13.39
3771 58.9740 698.41 696.14 13.21
3772 58.9870 704.03 697.11 13.27
3773 59.0000 705.56 698.13 13.28
3774 59.0130 716.46 699.04 13.38
3775 59.0260 706.03 700.49 13.29
3776 59.0390 693.88 702.47 13.17
3777 59.0520 691.08 705.05 13.14
3778 59.0650 723.89 708.36 13.45
3779 59.0780 726.14 712.53 13.47
3780 59.0910 708.53 717.66 13.31
3781 59.1040 706.80 723.81 13.29
3782 59.1170 719.87 731.06 13.42
3783 59.1300 732.37 739.41 13.53
3784 59.1430 726.02 748.82 13.47
3785 59.1560 733.98 759.21 13.55
3786 59.1690 748.40 770.44 13.68
3787 59.1820 770.10 782.30 13.88
3788 59.1950 758.35 794.59 13.77
3789 59.2080 796.83 806.88 14.11
3790 59.2210 823.76 818.89 14.35
3791 59.2340 810.98 830.30 14.24
3792 59.2470 835.71 840.80 14.45
3793 59.2600 860.89 850.15 14.67
3794 59.2730 864.50 858.19 14.70
3795 59.2860 863.35 864.87 14.69
3796 59.2990 888.02 870.24 14.90
3797 59.3120 897.20 874.37 14.98
3798 59.3250 875.18 877.48 14.79
3799 59.3380 886.93 879.78 14.89
3800 59.3510 900.94 881.80 15.01
3801 59.3640 899.86 883.22 15.00
3802 59.3770 887.83 884.53 14.90
3803 59.3900 870.92 885.88 14.76
3804 59.4030 884.69 887.36 14.87
3805 59.4160 888.92 888.99 14.91
3806 59.4290 889.18 890.27 14.91
3807 59.4420 904.61 891.89 15.04
3808 59.4550 903.16 893.21 15.03
3809 59.4680 904.79 893.97 15.04
3810 59.4810 909.07 893.90 15.08
3811 59.4940 907.43 892.73 15.06
3812 59.5070 915.00 890.27 15.12
3813 59.5200 908.09 886.39 15.07
3814 59.5330 900.29 881.06 15.00
3815 59.5460 875.79 874.35 14.80
3816 59.5590 865.34 866.39 14.71
3817 59.5720 859.71 857.37 14.66
3818 59.5850 841.51 847.53 14.50
3819 59.5980 817.73 837.11 14.30
3820 59.6110 796.93 826.35 14.11
3821 59.6240 795.78 815.51 14.10
3822 59.6370 789.50 804.78 14.05
3823 59.6500 778.41 794.33 13.95
3824 59.6630 788.48 784.34 14.04
3825 59.6760 745.83 774.91 13.65
3826 59.6890 741.71 766.09 13.62
3827 59.7020 748.25 757.93 13.68
3828 59.7150 767.88 750.42 13.86
3829 59.7280 764.44 743.52 13.82
3830 59.7410 742.86 737.02 13.63
3831 59.7540 749.48 731.08 13.69
3832 59.7670 737.84 725.47 13.58
3833 59.7800 741.45 720.10 13.61
3834 59.7930 758.28 714.86 13.77
3835 59.8060 763.65 709.71 13.82
3836 59.8190 799.47 704.60 14.14
3837 59.8320 759.33 699.52 13.78
3838 59.8450 753.47 694.47 13.72
3839 59.8580 747.45 689.50 13.67
3840 59.8710 751.84 684.64 13.71
3841 59.8840 753.65 679.94 13.73
3842 59.8970 733.22 675.45 13.54
3843 59.9100 712.71 671.24 13.35
3844 59.9230 718.76 667.36 13.40
3845 59.9360 694.43 663.85 13.18
3846 59.9490 698.60 660.77 13.22
3847 59.9620 693.51 658.16 13.17
3848 59.9750 706.55 656.06 13.29
3849 59.9880 683.28 654.49 13.07
3850 60.0010 692.16 653.48 13.15
3851 60.0140 699.35 653.05 13.22
3852 60.0270 710.89 653.19 13.33
3853 60.0400 719.41 653.89 13.41
3854 60.0530 714.06 655.12 13.36
3855 60.0660 737.24 656.85 13.58
3856 60.0790 742.94 658.99 13.63
3857 60.0920 751.99 661.53 13.71
3858 60.1050 749.57 664.37 13.69
3859 60.1180 787.94 667.42 14.04
3860 60.1310 776.68 670.63 13.93
3861 60.1440 773.00 673.94 13.90
3862 60.1570 814.08 677.31 14.27
3863 60.1700 799.18 680.72 14.13
3864 60.1830 801.71 684.20 14.16
3865 60.1960 810.32 687.76 14.23
3866 60.2090 822.76 691.45 14.34
3867 60.2220 831.16 695.31 14.41
3868 60.2350 833.07 699.41 14.43
3869 60.2480 794.89 703.77 14.10
3870 60.2610 808.77 708.43 14.22
3871 60.2740 819.49 713.40 14.31
3872 60.2870 802.65 718.66 14.17
3873 60.3000 811.52 724.21 14.24
3874 60.3130 821.07 730.01 14.33
3875 60.3260 828.68 736.01 14.39
3876 60.3390 819.61 742.16 14.31
3877 60.3520 844.53 748.42 14.53
3878 60.3650 834.96 754.76 14.45
3879 60.3780 843.86 761.16 14.52
3880 60.3910 837.26 767.63 14.47
3881 60.4040 835.26 774.21 14.45
3882 60.4170 853.87 780.93 14.61
3883 60.4300 845.47 787.88 14.54
3884 60.4430 838.80 795.07 14.48
3885 60.4560 842.96 802.57 14.52
3886 60.4690 852.34 810.36 14.60
3887 60.4820 864.68 818.40 14.70
3888 60.4950 856.96 826.58 14.64
3889 60.5080 854.58 834.76 14.62
3890 60.5210 852.34 842.66 14.60
3891 60.5340 868.92 850.02 14.74
3892 60.5470 876.46 856.55 14.80
3893 60.5600 878.18 861.97 14.82
3894 60.5730 900.33 866.01 15.00
3895 60.5860 910.50 868.49 15.09
3896 60.5990 914.95 869.32 15.12
3897 60.6120 924.91 868.53 15.21
3898 60.6250 924.03 866.16 15.20
3899 60.6380 914.73 862.40 15.12
3900 60.6510 912.46 857.51 15.10
3901 60.6640 906.93 851.74 15.06
3902 60.6770 894.21 845.42 14.95
3903 60.6900 881.11 838.83 14.84
3904 60.7030 873.34 832.29 14.78
3905 60.7160 869.44 826.09 14.74
3906 60.7290 847.90 820.51 14.56
3907 60.7420 837.26 815.78 14.47
3908 60.7550 847.82 812.14 14.56
3909 60.7680 841.56 809.78 14.50
3910 60.7810 832.19 808.84 14.42
3911 60.7940 830.22 809.43 14.41
3912 60.8070 822.24 811.61 14.34
3913 60.8200 849.73 815.36 14.58
3914 60.8330 865.86 820.60 14.71
3915 60.8460 884.57 827.18 14.87
3916 60.8590 909.28 834.84 15.08
3917 60.8720 932.59 843.25 15.27
3918 60.8850 959.87 852.00 15.49
3919 60.8980 1023.09 861.01 15.99
3920 60.9110 1072.41 869.02 16.37
3921 60.9240 1109.36 875.93 16.65
3922 60.9370 1140.65 881.29 16.89
3923 60.9500 1172.08 884.74 17.12
3924 60.9630 1208.15 886.03 17.38
3925 60.9760 1198.84 885.03 17.31
3926 60.9890 1161.99 881.74 17.04
3927 61.0020 1159.87 876.27 17.03
3928 61.0150 1123.75 868.90 16.76
3929 61.0280 1098.98 859.69 16.58
3930 61.0410 1044.89 849.02 16.16
3931 61.0540 997.68 837.18 15.79
3932 61.0670 987.01 824.49 15.71
3933 61.0800 937.55 811.22 15.31
3934 61.0930 903.23 797.71 15.03
3935 61.1060 876.22 784.07 14.80
3936 61.1190 853.33 770.60 14.61
3937 61.1320 847.53 757.48 14.56
3938 61.1450 832.79 744.88 14.43
3939 61.1580 798.20 732.95 14.13
3940 61.1710 791.95 721.81 14.07
3941 61.1840 777.28 711.57 13.94
3942 61.1970 776.10 702.29 13.93
3943 61.2100 758.46 694.04 13.77
3944 61.2230 750.81 686.87 13.70
3945 61.2360 752.52 680.79 13.72
3946 61.2490 765.92 675.85 13.84
3947 61.2620 704.95 672.03 13.28
3948 61.2750 730.62 669.34 13.52
3949 61.2880 737.16 667.79 13.58
3950 61.3010 717.61 667.41 13.39
3951 61.3140 738.23 668.06 13.59
3952 61.3270 746.08 669.78 13.66
3953 61.3400 718.46 672.54 13.40
3954 61.3530 731.14 676.28 13.52
3955 61.3660 759.46 680.94 13.78
3956 61.3790 756.09 686.44 13.75
3957 61.3920 762.94 692.69 13.81
3958 61.4050 787.35 699.57 14.03
3959 61.4180 813.32 706.97 14.26
3960 61.4310 778.74 714.76 13.95
3961 61.4440 822.21 722.78 14.34
3962 61.4570 801.71 730.91 14.16
3963 61.4700 822.52 739.01 14.34
3964 61.4830 814.68 746.97 14.27
3965 61.4960 829.29 754.68 14.40
3966 61.5090 862.84 762.04 14.69
3967 61.5220 853.23 768.98 14.61
3968 61.5350 834.87 775.41 14.45
3969 61.5480 823.63 781.26 14.35
3970 61.5610 830.14 786.45 14.41
3971 61.5740 822.01 790.90 14.34
3972 61.5870 822.17 794.65 14.34
3973 61.6000 829.54 797.32 14.40
3974 61.6130 827.52 798.95 14.38
3975 61.6260 832.62 799.44 14.43
3976 61.6390 843.99 798.70 14.53
3977 61.6520 824.66 796.67 14.36
3978 61.6650 836.93 793.37 14.46
3979 61.6780 834.90 788.82 14.45
3980 61.6910 814.33 783.12 14.27
3981 61.7040 816.73 776.38 14.29
3982 61.7170 818.12 768.78 14.30
3983 61.7300 797.85 760.48 14.12
3984 61.7430 780.10 751.68 13.97
3985 61.7560 790.53 742.61 14.06
3986 61.7690 781.55 733.34 13.98
3987 61.7820 755.32 724.10 13.74
3988 61.7950 747.21 715.03 13.67
3989 61.8080 712.73 706.27 13.35
3990 61.8210 716.04 698.04 13.38
3991 61.8340 726.09 690.26 13.47
3992 61.8470 718.73 682.26 13.40
3993 61.8600 709.85 675.84 13.32
3994 61.8730 707.47 670.20 13.30
3995 61.8860 698.32 665.42 13.21
3996 61.8990 697.13 661.55 13.20
3997 61.9120 692.72 658.63 13.16
3998 61.9250 695.91 656.70 13.19
3999 61.9380 697.79 655.92 13.21
4000 61.9510 684.75 656.08 13.08
4001 61.9640 689.97 657.26 13.13
4002 61.9770 698.87 659.48 13.22
4003 61.9900 683.84 662.74 13.08
4004 62.0030 683.33 666.98 13.07
4005 62.0160 706.50 672.15 13.29
4006 62.0290 714.06 678.14 13.36
4007 62.0420 721.49 684.82 13.43
4008 62.0550 730.81 692.01 13.52
4009 62.0680 740.12 699.51 13.60
4010 62.0810 760.66 707.05 13.79
4011 62.0940 780.38 714.36 13.97
4012 62.1070 768.87 720.74 13.86
4013 62.1200 781.27 726.75 13.98
4014 62.1330 804.23 731.72 14.18
4015 62.1460 809.36 735.43 14.22
4016 62.1590 835.30 737.76 14.45
4017 62.1720 832.20 738.64 14.42
4018 62.1850 817.96 738.07 14.30
4019 62.1980 815.44 736.13 14.28
4020 62.2110 806.22 732.92 14.20
4021 62.2240 775.40 728.61 13.92
4022 62.2370 748.72 723.38 13.68
4023 62.2500 742.99 717.41 13.63
4024 62.2630 724.29 710.89 13.46
4025 62.2760 717.30 704.02 13.39
4026 62.2890 701.96 696.95 13.25
4027 62.3020 673.62 689.85 12.98
4028 62.3150 691.14 682.86 13.14
4029 62.3280 681.68 676.10 13.05
4030 62.3410 675.74 669.66 13.00
4031 62.3540 654.48 663.62 12.79
4032 62.3670 639.34 658.04 12.64
4033 62.3800 636.90 652.94 12.62
4034 62.3930 629.64 648.33 12.55
4035 62.4060 610.93 644.18 12.36
4036 62.4190 628.75 640.45 12.54
4037 62.4320 615.46 637.08 12.40
4038 62.4450 626.04 634.00 12.51
4039 62.4580 623.18 631.11 12.48
4040 62.4710 625.13 628.38 12.50
4041 62.4840 611.57 625.66 12.36
4042 62.4970 594.81 622.93 12.19
4043 62.5100 591.00 620.14 12.16
4044 62.5230 602.58 617.25 12.27
4045 62.5360 589.03 614.26 12.14
4046 62.5490 589.47 611.16 12.14
4047 62.5620 588.28 607.97 12.13
4048 62.5750 574.60 604.70 11.99
4049 62.5880 568.33 601.38 11.92
4050 62.6010 573.80 598.04 11.98
4051 62.6140 583.45 594.71 12.08
4052 62.6270 583.50 591.40 12.08
4053 62.6400 565.23 588.15 11.89
4054 62.6530 578.50 584.98 12.03
4055 62.6660 562.53 581.91 11.86
4056 62.6790 556.08 578.96 11.79
4057 62.6920 563.47 576.13 11.87
4058 62.7050 555.45 573.45 11.78
4059 62.7180 550.64 570.92 11.73
4060 62.7310 573.11 568.55 11.97
4061 62.7440 556.70 566.34 11.80
4062 62.7570 547.86 564.29 11.70
4063 62.7700 531.68 562.41 11.53
4064 62.7830 532.53 560.67 11.54
4065 62.7960 540.92 559.09 11.63
4066 62.8090 572.71 557.65 11.97
4067 62.8220 531.23 556.34 11.52
4068 62.8350 536.05 555.17 11.58
4069 62.8480 555.53 554.11 11.78
4070 62.8610 554.42 553.16 11.77
4071 62.8740 547.92 552.32 11.70
4072 62.8870 555.99 551.44 11.79
4073 62.9000 549.00 550.77 11.72
4074 62.9130 532.84 550.19 11.54
4075 62.9260 534.61 549.67 11.56
4076 62.9390 542.29 549.21 11.64
4077 62.9520 537.44 548.82 11.59
4078 62.9650 529.74 548.47 11.51
4079 62.9780 532.23 548.18 11.54
4080 62.9910 536.12 547.92 11.58
4081 63.0040 521.85 547.72 11.42
4082 63.0170 537.06 547.54 11.59
4083 63.0300 543.79 547.41 11.66
4084 63.0430 549.42 547.30 11.72
4085 63.0560 534.93 547.25 11.56
4086 63.0690 522.59 547.21 11.43
4087 63.0820 525.78 547.20 11.47
4088 63.0950 540.27 547.27 11.62
4089 63.1080 544.32 547.32 11.67
4090 63.1210 523.06 547.40 11.44
4091 63.1340 530.08 547.50 11.51
4092 63.1470 541.05 547.64 11.63
4093 63.1600 547.88 547.80 11.70
4094 63.1730 539.10 548.00 11.61
4095 63.1860 533.89 548.23 11.55
4096 63.1990 543.14 548.49 11.65
4097 63.2120 536.93 548.79 11.59
4098 63.2250 532.73 549.12 11.54
4099 63.2380 538.58 549.50 11.60
4100 63.2510 542.54 549.92 11.65
4101 63.2640 541.51 550.38 11.64
4102 63.2770 544.61 550.89 11.67
4103 63.2900 540.35 551.46 11.62
4104 63.3030 539.65 552.00 11.62
4105 63.3160 551.89 552.69 11.75
4106 63.3290 549.40 553.44 11.72
4107 63.3420 548.48 554.27 11.71
4108 63.3550 545.85 555.19 11.68
4109 63.3680 542.57 556.19 11.65
4110 63.3810 545.66 557.30 11.68
4111 63.3940 550.29 558.53 11.73
4112 63.4070 549.80 559.87 11.72
4113 63.4200 528.65 561.36 11.50
4114 63.4330 531.34 562.99 11.53
4115 63.4460 544.48 564.79 11.67
4116 63.4590 543.33 566.75 11.65
4117 63.4720 544.47 568.90 11.67
4118 63.4850 536.97 571.24 11.59
4119 63.4980 539.07 573.77 11.61
4120 63.5110 555.43 576.48 11.78
4121 63.5240 547.50 579.36 11.70
4122 63.5370 564.09 582.41 11.88
4123 63.5500 573.33 585.58 11.97
4124 63.5630 561.19 588.84 11.84
4125 63.5760 568.41 592.15 11.92
4126 63.5890 566.06 595.45 11.90
4127 63.6020 555.31 598.68 11.78
4128 63.6150 565.96 601.78 11.90
4129 63.6280 582.50 604.71 12.07
4130 63.6410 580.19 607.41 12.04
4131 63.6540 573.91 609.87 11.98
4132 63.6670 581.74 611.88 12.06
4133 63.6800 579.41 613.83 12.04
4134 63.6930 593.82 615.58 12.18
4135 63.7060 560.13 617.14 11.83
4136 63.7190 602.62 618.59 12.27
4137 63.7320 560.64 619.96 11.84
4138 63.7450 567.38 621.38 11.91
4139 63.7580 576.96 622.90 12.01
4140 63.7710 580.37 624.60 12.05
4141 63.7840 583.34 626.56 12.08
4142 63.7970 601.75 628.85 12.27
4143 63.8100 601.16 631.55 12.26
4144 63.8230 594.61 634.73 12.19
4145 63.8360 593.96 638.46 12.19
4146 63.8490 566.67 642.78 11.90
4147 63.8620 631.68 647.76 12.57
4148 63.8750 590.89 653.44 12.15
4149 63.8880 610.05 659.82 12.35
4150 63.9010 612.29 666.94 12.37
4151 63.9140 615.29 674.79 12.40
4152 63.9270 629.65 683.15 12.55
4153 63.9400 640.87 692.47 12.66
4154 63.9530 647.28 702.51 12.72
4155 63.9660 637.15 713.23 12.62
4156 63.9790 655.57 724.61 12.80
4157 63.9920 654.62 736.62 12.79
4158 64.0050 667.57 749.19 12.92
4159 64.0180 662.97 762.27 12.87
4160 64.0310 665.70 775.72 12.90
4161 64.0440 679.33 789.40 13.03
4162 64.0570 720.29 803.11 13.42
4163 64.0700 719.48 816.59 13.41
4164 64.0830 728.80 829.55 13.50
4165 64.0960 756.38 841.65 13.75
4166 64.1090 752.18 852.55 13.71
4167 64.1220 775.86 861.86 13.93
4168 64.1350 770.29 869.23 13.88
4169 64.1480 767.23 874.47 13.85
4170 64.1610 761.92 877.31 13.80
4171 64.1740 773.02 877.69 13.90
4172 64.1870 768.46 875.62 13.86
4173 64.2000 785.07 871.19 14.01
4174 64.2130 775.47 864.58 13.92
4175 64.2260 765.85 855.99 13.84
4176 64.2390 759.17 845.62 13.78
4177 64.2520 749.69 833.91 13.69
4178 64.2650 740.21 821.13 13.60
4179 64.2780 716.39 807.41 13.38
4180 64.2910 699.33 793.07 13.22
4181 64.3040 680.08 778.38 13.04
4182 64.3170 654.93 763.55 12.80
4183 64.3300 666.95 748.77 12.91
4184 64.3430 670.69 734.24 12.95
4185 64.3560 661.19 720.08 12.86
4186 64.3690 646.13 706.42 12.71
4187 64.3820 639.20 693.36 12.64
4188 64.3950 627.96 680.97 12.53
4189 64.4080 626.44 669.31 12.51
4190 64.4210 619.41 658.42 12.44
4191 64.4340 614.31 648.30 12.39
4192 64.4470 617.68 638.97 12.43
4193 64.4600 619.07 630.41 12.44
4194 64.4730 616.16 622.59 12.41
4195 64.4860 613.97 615.49 12.39
4196 64.4990 604.86 609.07 12.30
4197 64.5120 601.17 603.50 12.26
4198 64.5250 601.59 598.31 12.26
4199 64.5380 585.83 593.67 12.10
4200 64.5510 583.44 589.52 12.08
4201 64.5640 589.21 585.84 12.14
4202 64.5770 585.13 582.56 12.09
4203 64.5900 569.91 579.65 11.94
4204 64.6030 572.37 577.08 11.96
4205 64.6160 587.34 574.80 12.12
4206 64.6290 577.44 572.74 12.02
4207 64.6420 571.33 570.97 11.95
4208 64.6550 573.02 569.42 11.97
4209 64.6680 583.19 568.05 12.07
4210 64.6810 584.79 566.86 12.09
4211 64.6940 577.97 565.82 12.02
4212 64.7070 574.82 564.91 11.99
4213 64.7200 561.64 564.13 11.85
4214 64.7330 568.57 563.47 11.92
4215 64.7460 576.53 562.90 12.01
4216 64.7590 567.34 562.44 11.91
4217 64.7720 565.72 562.06 11.89
4218 64.7850 581.20 561.76 12.05
4219 64.7980 586.07 561.54 12.10
4220 64.8110 593.10 561.37 12.18
4221 64.8240 594.58 561.30 12.19
4222 64.8370 576.07 561.29 12.00
4223 64.8500 578.39 561.36 12.02
4224 64.8630 576.40 561.49 12.00
4225 64.8760 577.46 561.61 12.02
4226 64.8890 573.34 561.88 11.97
4227 64.9020 575.54 562.21 12.00
4228 64.9150 560.36 562.62 11.84
4229 64.9280 568.48 563.10 11.92
4230 64.9410 570.85 563.65 11.95
4231 64.9540 586.85 564.28 12.11
4232 64.9670 573.82 564.99 11.98
4233 64.9800 595.03 565.78 12.20
4234 64.9930 588.55 566.66 12.13
4235 65.0060 583.68 567.79 12.08
4236 65.0190 587.92 568.83 12.12
4237 65.0320 593.31 569.96 12.18
4238 65.0450 599.57 571.18 12.24
4239 65.0580 614.49 572.48 12.39
4240 65.0710 589.74 573.86 12.14
4241 65.0840 607.60 575.09 12.32
4242 65.0970 618.08 576.63 12.43
4243 65.1100 612.35 578.25 12.37
4244 65.1230 595.96 579.95 12.21
4245 65.1360 629.81 581.73 12.55
4246 65.1490 626.46 583.61 12.51
4247 65.1620 614.57 585.59 12.40
4248 65.1750 625.23 587.67 12.50
4249 65.1880 625.03 589.87 12.50
4250 65.2010 633.53 592.21 12.59
4251 65.2140 623.14 594.68 12.48
4252 65.2270 659.50 597.31 12.84
4253 65.2400 643.16 600.09 12.68
4254 65.2530 641.53 603.02 12.66
4255 65.2660 634.58 606.10 12.60
4256 65.2790 659.96 609.33 12.84
4257 65.2920 652.69 612.68 12.77
4258 65.3050 651.31 616.31 12.76
4259 65.3180 654.05 619.88 12.79
4260 65.3310 659.55 623.52 12.84
4261 65.3440 679.58 627.21 13.03
4262 65.3570 667.09 630.92 12.91
4263 65.3700 684.66 634.64 13.08
4264 65.3830 678.42 638.35 13.02
4265 65.3960 700.34 642.04 13.23
4266 65.4090 710.64 645.69 13.33
4267 65.4220 705.80 649.31 13.28
4268 65.4350 744.08 652.91 13.64
4269 65.4480 713.47 656.50 13.36
4270 65.4610 709.86 660.10 13.32
4271 65.4740 726.17 663.75 13.47
4272 65.4870 724.34 667.18 13.46
4273 65.5000 754.08 671.06 13.73
4274 65.5130 759.32 675.14 13.78
4275 65.5260 767.00 679.51 13.85
4276 65.5390 772.17 684.26 13.89
4277 65.5520 787.86 689.51 14.03
4278 65.5650 791.09 695.37 14.06
4279 65.5780 807.71 701.97 14.21
4280 65.5910 833.69 709.45 14.44
4281 65.6040 820.06 717.96 14.32
4282 65.6170 843.82 727.62 14.52
4283 65.6300 867.03 738.57 14.72
4284 65.6430 853.17 750.91 14.60
4285 65.6560 853.16 764.72 14.60
4286 65.6690 882.44 780.07 14.85
4287 65.6820 898.03 796.95 14.98
4288 65.6950 916.71 815.30 15.14
4289 65.7080 933.38 835.04 15.28
4290 65.7210 958.69 855.96 15.48
4291 65.7340 978.25 877.79 15.64
4292 65.7470 1001.96 900.18 15.83
4293 65.7600 1030.78 922.73 16.05
4294 65.7730 1064.66 944.97 16.31
4295 65.7860 1109.11 966.39 16.65
4296 65.7990 1133.25 986.51 16.83
4297 65.8120 1148.35 1004.90 16.94
4298 65.8250 1181.76 1021.14 17.19
4299 65.8380 1205.53 1035.04 17.36
4300 65.8510 1189.48 1046.23 17.24
4301 65.8640 1164.83 1054.70 17.06
4302 65.8770 1152.84 1060.45 16.98
4303 65.8900 1144.79 1063.53 16.92
4304 65.9030 1145.89 1064.05 16.93
4305 65.9160 1120.11 1062.18 16.73
4306 65.9290 1086.33 1058.07 16.48
4307 65.9420 1076.51 1051.91 16.41
4308 65.9550 1070.01 1043.89 16.36
4309 65.9680 1085.55 1034.21 16.47
4310 65.9810 1093.84 1023.04 16.54
4311 65.9940 1097.71 1010.62 16.57
4312 66.0070 1109.26 997.11 16.65
4313 66.0200 1102.02 982.75 16.60
4314 66.0330 1095.89 967.66 16.55
4315 66.0460 1101.73 952.15 16.60
4316 66.0590 1095.26 936.39 16.55
4317 66.0720 1051.27 920.53 16.21
4318 66.0850 1061.52 904.90 16.29
4319 66.0980 1048.25 889.45 16.19
4320 66.1110 1018.48 874.48 15.96
4321 66.1240 1010.34 859.98 15.89
4322 66.1370 993.00 846.25 15.76
4323 66.1500 960.31 833.25 15.49
4324 66.1630 938.07 821.07 15.31
4325 66.1760 934.05 809.73 15.28
4326 66.1890 936.88 799.21 15.30
4327 66.2020 905.83 789.51 15.05
4328 66.2150 911.06 780.56 15.09
4329 66.2280 893.96 772.34 14.95
4330 66.2410 871.86 764.64 14.76
4331 66.2540 856.95 757.67 14.64
4332 66.2670 847.18 751.26 14.55
4333 66.2800 858.60 745.38 14.65
4334 66.2930 871.07 740.02 14.76
4335 66.3060 866.27 735.18 14.72
4336 66.3190 856.75 730.88 14.64
4337 66.3320 880.53 727.15 14.84
4338 66.3450 843.41 724.04 14.52
4339 66.3580 859.81 721.68 14.66
4340 66.3710 848.30 719.93 14.56
4341 66.3840 851.89 718.95 14.59
4342 66.3970 835.32 718.76 14.45
4343 66.4100 814.11 719.40 14.27
4344 66.4230 805.17 720.90 14.19
4345 66.4360 801.07 723.26 14.15
4346 66.4490 825.69 726.46 14.37
4347 66.4620 824.70 730.47 14.36
4348 66.4750 824.17 735.22 14.35
4349 66.4880 832.07 740.62 14.42
4350 66.5010 820.59 746.54 14.32
4351 66.5140 807.06 752.86 14.20
4352 66.5270 865.68 759.42 14.71
4353 66.5400 856.53 766.05 14.63
4354 66.5530 849.10 772.62 14.57
4355 66.5660 856.59 778.99 14.63
4356 66.5790 883.14 785.07 14.86
4357 66.5920 912.03 790.79 15.10
4358 66.6050 924.87 796.12 15.21
4359 66.6180 930.67 801.09 15.25
4360 66.6310 927.53 805.74 15.23
4361 66.6440 966.29 810.15 15.54
4362 66.6570 978.39 814.39 15.64
4363 66.6700 942.86 818.54 15.35
4364 66.6830 955.42 822.68 15.45
4365 66.6960 955.97 826.87 15.46
4366 66.7090 981.83 831.16 15.67
4367 66.7220 960.20 835.73 15.49
4368 66.7350 970.66 840.26 15.58
4369 66.7480 990.88 844.90 15.74
4370 66.7610 999.03 849.61 15.80
4371 66.7740 1004.10 854.17 15.84
4372 66.7870 997.52 858.90 15.79
4373 66.8000 1004.95 863.55 15.85
4374 66.8130 1035.88 868.07 16.09
4375 66.8260 1025.96 872.40 16.02
4376 66.8390 1003.11 876.46 15.84
4377 66.8520 1016.19 880.20 15.94
4378 66.8650 1007.57 883.52 15.87
4379 66.8780 997.02 886.32 15.79
4380 66.8910 996.83 888.56 15.79
4381 66.9040 999.49 889.99 15.81
4382 66.9170 995.82 890.52 15.78
4383 66.9300 995.23 890.01 15.77
4384 66.9430 979.36 888.34 15.65
4385 66.9560 976.26 885.40 15.62
4386 66.9690 965.01 881.11 15.53
4387 66.9820 935.55 875.45 15.29
4388 66.9950 931.57 868.43 15.26
4389 67.0080 915.89 860.12 15.13
4390 67.0210 899.39 850.63 14.99
4391 67.0340 886.16 840.08 14.88
4392 67.0470 871.76 828.65 14.76
4393 67.0600 852.38 816.50 14.60
4394 67.0730 828.07 803.80 14.39
4395 67.0860 807.00 790.74 14.20
4396 67.0990 797.83 777.47 14.12
4397 67.1120 787.49 764.15 14.03
4398 67.1250 764.53 750.94 13.83
4399 67.1380 724.80 737.89 13.46
4400 67.1510 715.17 725.20 13.37
4401 67.1640 715.40 712.93 13.37
4402 67.1770 712.43 701.15 13.35
4403 67.1900 708.08 689.93 13.30
4404 67.2030 688.39 679.32 13.12
4405 67.2160 675.41 669.34 12.99
4406 67.2290 683.39 660.04 13.07
4407 67.2420 687.45 651.40 13.11
4408 67.2550 665.80 643.43 12.90
4409 67.2680 644.46 636.12 12.69
4410 67.2810 636.97 629.52 12.62
4411 67.2940 640.39 623.50 12.65
4412 67.3070 639.57 618.09 12.64
4413 67.3200 630.11 613.27 12.55
4414 67.3330 613.62 609.01 12.39
4415 67.3460 615.64 605.27 12.41
4416 67.3590 608.75 602.02 12.34
4417 67.3720 596.89 599.22 12.22
4418 67.3850 594.49 596.85 12.19
4419 67.3980 598.13 594.89 12.23
4420 67.4110 598.92 593.26 12.24
4421 67.4240 600.34 591.93 12.25
4422 67.4370 603.33 590.88 12.28
4423 67.4500 585.97 590.04 12.10
4424 67.4630 590.11 589.39 12.15
4425 67.4760 602.30 588.87 12.27
4426 67.4890 597.50 588.43 12.22
4427 67.5020 588.71 588.03 12.13
4428 67.5150 588.91 587.64 12.13
4429 67.5280 590.22 587.21 12.15
4430 67.5410 574.07 586.71 11.98
4431 67.5540 577.71 586.13 12.02
4432 67.5670 569.65 585.45 11.93
4433 67.5800 570.38 584.67 11.94
4434 67.5930 575.39 583.79 11.99
4435 67.6060 577.41 582.81 12.01
4436 67.6190 574.71 581.75 11.99
4437 67.6320 574.13 580.61 11.98
4438 67.6450 570.55 579.42 11.94
4439 67.6580 562.05 578.19 11.85
4440 67.6710 568.24 576.94 11.92
4441 67.6840 574.92 575.69 11.99
4442 67.6970 556.18 574.45 11.79
4443 67.7100 563.89 573.23 11.87
4444 67.7230 553.58 572.06 11.76
4445 67.7360 568.28 570.94 11.92
4446 67.7490 588.78 569.89 12.13
4447 67.7620 572.92 568.91 11.97
4448 67.7750 560.87 568.23 11.84
4449 67.7880 558.05 567.45 11.81
4450 67.8010 548.53 566.76 11.71
4451 67.8140 549.30 566.20 11.72
4452 67.8270 551.31 565.75 11.74
4453 67.8400 554.97 565.43 11.78
4454 67.8530 548.28 565.24 11.71
4455 67.8660 560.33 565.20 11.84
4456 67.8790 551.23 565.30 11.74
4457 67.8920 554.39 565.55 11.77
4458 67.9050 582.71 565.97 12.07
4459 67.9180 565.55 566.56 11.89
4460 67.9310 544.61 567.33 11.67
4461 67.9440 570.82 568.28 11.95
4462 67.9570 550.09 569.44 11.73
4463 67.9700 537.12 570.80 11.59
4464 67.9830 560.22 572.49 11.83
4465 67.9960 545.49 574.29 11.68
4466 68.0090 547.20 576.32 11.70
4467 68.0220 570.95 578.58 11.95
4468 68.0350 561.86 581.07 11.85
4469 68.0480 553.61 583.78 11.76
4470 68.0610 566.53 586.70 11.90
4471 68.0740 570.70 589.80 11.94
4472 68.0870 571.82 593.06 11.96
4473 68.1000 556.86 596.43 11.80
4474 68.1130 577.98 599.85 12.02
4475 68.1260 576.18 603.28 12.00
4476 68.1390 578.48 606.62 12.03
4477 68.1520 574.76 609.81 11.99
4478 68.1650 564.35 612.76 11.88
4479 68.1780 577.03 615.41 12.01
4480 68.1910 591.66 617.67 12.16
4481 68.2040 585.54 619.50 12.10
4482 68.2170 587.57 620.84 12.12
4483 68.2300 592.06 621.66 12.17
4484 68.2430 592.83 621.96 12.17
4485 68.2560 585.18 621.74 12.10
4486 68.2690 586.16 621.03 12.11
4487 68.2820 580.73 619.85 12.05
4488 68.2950 579.64 618.26 12.04
4489 68.3080 588.30 616.30 12.13
4490 68.3210 580.11 614.03 12.04
4491 68.3340 580.96 611.51 12.05
4492 68.3470 575.14 608.79 11.99
4493 68.3600 568.75 605.92 11.92
4494 68.3730 574.00 602.95 11.98
4495 68.3860 560.56 599.89 11.84
4496 68.3990 554.55 596.87 11.77
4497 68.4120 558.18 593.88 11.81
4498 68.4250 564.98 590.96 11.88
4499 68.4380 567.14 588.13 11.91
4500 68.4510 563.22 585.42 11.87
4501 68.4640 555.48 582.84 11.78
4502 68.4770 555.50 580.42 11.78
4503 68.4900 562.91 578.16 11.86
4504 68.5030 557.89 576.07 11.81
4505 68.5160 550.89 574.16 11.74
4506 68.5290 558.17 572.42 11.81
4507 68.5420 559.12 570.94 11.82
4508 68.5550 552.11 569.55 11.75
4509 68.5680 554.68 568.33 11.78
4510 68.5810 559.35 567.27 11.83
4511 68.5940 558.66 566.36 11.82
4512 68.6070 562.18 565.90 11.86
4513 68.6200 567.41 565.27 11.91
4514 68.6330 553.85 564.81 11.77
4515 68.6460 555.24 564.44 11.78
4516 68.6590 556.86 564.19 11.80
4517 68.6720 557.51 564.05 11.81
4518 68.6850 550.21 564.01 11.73
4519 68.6980 548.62 564.08 11.71
4520 68.7110 557.66 564.24 11.81
4521 68.7240 549.45 564.51 11.72
4522 68.7370 563.58 564.81 11.87
4523 68.7500 559.71 565.38 11.83
4524 68.7630 554.37 565.93 11.77
4525 68.7760 561.08 566.59 11.84
4526 68.7890 555.03 567.36 11.78
4527 68.8020 546.95 568.24 11.69
4528 68.8150 545.62 569.24 11.68
4529 68.8280 566.39 570.36 11.90
4530 68.8410 570.32 571.61 11.94
4531 68.8540 571.20 572.98 11.95
4532 68.8670 577.17 574.52 12.01
4533 68.8800 578.29 576.22 12.02
4534 68.8930 568.26 578.07 11.92
4535 68.9060 573.50 580.09 11.97
4536 68.9190 578.98 582.27 12.03
4537 68.9320 577.29 584.34 12.01
4538 68.9450 566.12 586.94 11.90
4539 68.9580 576.10 589.60 12.00
4540 68.9710 578.50 592.40 12.03
4541 68.9840 582.00 595.33 12.06
4542 68.9970 584.30 598.38 12.09
4543 69.0100 581.40 601.52 12.06
4544 69.0230 612.75 604.74 12.38
4545 69.0360 618.39 608.03 12.43
4546 69.0490 610.19 611.39 12.35
4547 69.0620 613.86 614.81 12.39
4548 69.0750 631.90 618.31 12.57
4549 69.0880 600.02 621.90 12.25
4550 69.1010 652.90 625.63 12.78
4551 69.1140 639.28 629.52 12.64
4552 69.1270 632.96 633.62 12.58
4553 69.1400 641.49 637.98 12.66
4554 69.1530 658.75 642.64 12.83
4555 69.1660 658.01 647.66 12.83
4556 69.1790 658.99 653.06 12.84
4557 69.1920 635.39 658.88 12.60
4558 69.2050 632.34 665.15 12.57
4559 69.2180 689.27 671.85 13.13
4560 69.2310 693.89 678.97 13.17
4561 69.2440 682.09 686.47 13.06
4562 69.2570 697.20 694.30 13.20
4563 69.2700 710.85 702.39 13.33
4564 69.2830 738.69 710.64 13.59
4565 69.2960 716.68 718.95 13.39
4566 69.3090 722.60 727.23 13.44
4567 69.3220 738.41 735.36 13.59
4568 69.3350 779.43 743.25 13.96
4569 69.3480 778.02 750.81 13.95
4570 69.3610 796.41 757.97 14.11
4571 69.3740 801.26 764.74 14.15
4572 69.3870 791.60 770.94 14.07
4573 69.4000 795.21 776.61 14.10
4574 69.4130 813.82 781.72 14.26
4575 69.4260 806.47 786.26 14.20
4576 69.4390 793.10 790.22 14.08
4577 69.4520 781.53 793.60 13.98
4578 69.4650 773.26 796.42 13.90
4579 69.4780 775.85 798.71 13.93
4580 69.4910 785.00 800.51 14.01
4581 69.5040 763.43 801.89 13.82
4582 69.5170 759.77 802.93 13.78
4583 69.5300 769.63 803.76 13.87
4584 69.5430 757.58 804.48 13.76
4585 69.5560 748.30 805.23 13.68
4586 69.5690 743.06 806.15 13.63
4587 69.5820 750.38 807.35 13.70
4588 69.5950 760.42 808.97 13.79
4589 69.6080 760.30 811.08 13.79
4590 69.6210 756.01 813.74 13.75
4591 69.6340 753.71 816.97 13.73
4592 69.6470 756.54 820.75 13.75
4593 69.6600 757.12 824.99 13.76
4594 69.6730 764.90 829.59 13.83
4595 69.6860 767.08 834.37 13.85
4596 69.6990 776.34 839.29 13.93
4597 69.7120 778.88 843.80 13.95
4598 69.7250 771.35 847.82 13.89
4599 69.7380 780.59 851.11 13.97
4600 69.7510 775.10 853.46 13.92
4601 69.7640 776.99 854.67 13.94
4602 69.7770 793.61 854.63 14.09
4603 69.7900 784.57 853.26 14.01
4604 69.8030 769.46 850.52 13.87
4605 69.8160 777.82 846.47 13.94
4606 69.8290 786.70 841.15 14.02
4607 69.8420 786.75 834.69 14.02
4608 69.8550 770.46 827.22 13.88
4609 69.8680 748.16 818.90 13.68
4610 69.8810 756.38 809.88 13.75
4611 69.8940 745.21 800.33 13.65
4612 69.9070 731.38 790.42 13.52
4613 69.9200 737.71 780.31 13.58
4614 69.9330 732.50 770.16 13.53
4615 69.9460 745.87 760.10 13.66
4616 69.9590 734.59 750.29 13.55
4617 69.9720 727.35 740.88 13.48
4618 69.9850 731.10 731.92 13.52
4619 69.9980 734.74 723.56 13.55
4620 70.0110 736.36 715.91 13.57
4621 70.0240 741.06 709.04 13.61
4622 70.0370 722.99 703.04 13.44
4623 70.0500 718.26 697.98 13.40
4624 70.0630 727.92 693.91 13.49
4625 70.0760 720.94 690.90 13.43
4626 70.0890 715.07 688.96 13.37
4627 70.1020 715.75 688.14 13.38
4628 70.1150 720.12 688.43 13.42
4629 70.1280 729.75 689.84 13.51
4630 70.1410 758.69 692.34 13.77
4631 70.1540 760.42 695.89 13.79
4632 70.1670 761.53 700.43 13.80
4633 70.1800 767.24 705.84 13.85
4634 70.1930 786.32 712.04 14.02
4635 70.2060 777.56 718.86 13.94
4636 70.2190 800.04 726.14 14.14
4637 70.2320 798.16 733.66 14.13
4638 70.2450 821.61 741.23 14.33
4639 70.2580 817.77 748.62 14.30
4640 70.2710 829.04 755.61 14.40
4641 70.2840 842.12 762.03 14.51
4642 70.2970 856.09 767.72 14.63
4643 70.3100 883.56 772.54 14.86
4644 70.3230 884.65 776.42 14.87
4645 70.3360 877.55 779.33 14.81
4646 70.3490 892.87 781.29 14.94
4647 70.3620 886.57 782.37 14.89
4648 70.3750 886.15 782.66 14.88
4649 70.3880 871.05 782.28 14.76
4650 70.4010 859.63 781.40 14.66
4651 70.4140 848.41 780.16 14.56
4652 70.4270 856.47 778.73 14.63
4653 70.4400 817.22 777.24 14.29
4654 70.4530 826.99 775.85 14.38
4655 70.4660 825.22 774.67 14.36
4656 70.4790 802.20 773.80 14.16
4657 70.4920 803.72 773.32 14.18
4658 70.5050 782.13 773.28 13.98
4659 70.5180 779.34 773.65 13.96
4660 70.5310 762.12 774.41 13.80
4661 70.5440 747.59 775.50 13.67
4662 70.5570 753.78 776.80 13.73
4663 70.5700 777.80 778.18 13.94
4664 70.5830 762.20 779.49 13.80
4665 70.5960 755.09 780.56 13.74
4666 70.6090 734.21 781.23 13.55
4667 70.6220 768.59 781.34 13.86
4668 70.6350 753.22 780.79 13.72
4669 70.6480 757.59 779.46 13.76
4670 70.6610 751.72 777.30 13.71
4671 70.6740 745.66 774.30 13.65
4672 70.6870 748.71 770.46 13.68
4673 70.7000 753.62 765.82 13.73
4674 70.7130 741.91 760.45 13.62
4675 70.7260 727.57 754.06 13.49
4676 70.7390 717.82 747.50 13.40
4677 70.7520 720.90 740.48 13.42
4678 70.7650 723.22 733.11 13.45
4679 70.7780 700.80 725.52 13.24
4680 70.7910 695.26 717.77 13.18
4681 70.8040 690.92 709.99 13.14
4682 70.8170 697.14 702.25 13.20
4683 70.8300 673.41 694.66 12.98
4684 70.8430 668.25 687.28 12.93
4685 70.8560 677.82 680.20 13.02
4686 70.8690 681.35 673.39 13.05
4687 70.8820 659.79 667.08 12.84
4688 70.8950 654.47 661.25 12.79
4689 70.9080 640.82 655.93 12.66
4690 70.9210 653.85 651.16 12.79
4691 70.9340 649.22 646.98 12.74
4692 70.9470 640.03 643.41 12.65
4693 70.9600 650.06 640.41 12.75
4694 70.9730 656.10 638.13 12.81
4695 70.9860 648.45 636.50 12.73
4696 70.9990 635.48 635.54 12.60
4697 71.0120 626.50 635.24 12.51
4698 71.0250 624.72 635.60 12.50
4699 71.0380 630.62 636.59 12.56
4700 71.0510 647.52 638.21 12.72
4701 71.0640 657.21 640.40 12.82
4702 71.0770 653.14 643.24 12.78
4703 71.0900 649.61 646.47 12.74
4704 71.1030 652.35 650.12 12.77
4705 71.1160 647.17 654.12 12.72
4706 71.1290 643.34 658.39 12.68
4707 71.1420 655.15 662.82 12.80
4708 71.1550 660.16 667.37 12.85
4709 71.1680 655.24 671.89 12.80
4710 71.1810 658.29 676.33 12.83
4711 71.1940 668.13 680.58 12.92
4712 71.2070 669.66 684.69 12.94
4713 71.2200 681.52 688.59 13.05
4714 71.2330 696.99 692.29 13.20
4715 71.2460 691.36 695.80 13.15
4716 71.2590 714.64 699.16 13.37
4717 71.2720 721.41 702.44 13.43
4718 71.2850 695.06 705.70 13.18
4719 71.2980 701.69 709.00 13.24
4720 71.3110 710.18 712.41 13.32
4721 71.3240 734.46 715.99 13.55
4722 71.3370 732.97 719.80 13.54
4723 71.3500 715.63 723.86 13.38
4724 71.3630 703.48 728.19 13.26
4725 71.3760 724.97 732.76 13.46
4726 71.3890 729.70 737.54 13.51
4727 71.4020 736.65 742.48 13.57
4728 71.4150 725.04 747.48 13.46
4729 71.4280 734.47 752.45 13.55
4730 71.4410 725.05 757.27 13.46
4731 71.4540 745.71 761.84 13.65
4732 71.4670 742.51 766.04 13.62
4733 71.4800 753.63 769.79 13.73
4734 71.4930 769.48 773.01 13.87
4735 71.5060 778.42 775.65 13.95
4736 71.5190 776.99 777.70 13.94
4737 71.5320 788.61 779.16 14.04
4738 71.5450 807.12 779.92 14.20
4739 71.5580 799.07 780.33 14.13
4740 71.5710 791.83 780.30 14.07
4741 71.5840 795.35 779.91 14.10
4742 71.5970 785.45 779.24 14.01
4743 71.6100 804.45 778.36 14.18
4744 71.6230 805.82 777.36 14.19
4745 71.6360 790.06 776.28 14.05
4746 71.6490 764.57 775.17 13.83
4747 71.6620 773.46 774.05 13.91
4748 71.6750 786.78 772.95 14.02
4749 71.6880 768.22 771.83 13.86
4750 71.7010 792.62 770.68 14.08
4751 71.7140 809.52 769.46 14.23
4752 71.7270 789.92 768.10 14.05
4753 71.7400 781.15 766.50 13.97
4754 71.7530 769.27 764.72 13.87
4755 71.7660 770.15 762.65 13.88
4756 71.7790 785.74 760.29 14.02
4757 71.7920 789.96 757.58 14.05
4758 71.8050 793.68 754.54 14.09
4759 71.8180 799.09 751.13 14.13
4760 71.8310 782.22 747.57 13.98
4761 71.8440 784.59 743.83 14.01
4762 71.8570 766.90 740.01 13.85
4763 71.8700 755.30 736.20 13.74
4764 71.8830 767.61 732.47 13.85
4765 71.8960 743.73 728.95 13.64
4766 71.9090 725.05 725.74 13.46
4767 71.9220 773.32 722.93 13.90
4768 71.9350 736.60 720.64 13.57
4769 71.9480 745.55 718.79 13.65
4770 71.9610 729.69 717.77 13.51
4771 71.9740 731.86 717.44 13.53
4772 71.9870 739.06 717.95 13.59
4773 72.0000 720.11 719.30 13.42
4774 72.0130 732.62 721.48 13.53
4775 72.0260 749.23 724.50 13.69
4776 72.0390 757.46 728.37 13.76
4777 72.0520 761.33 732.90 13.80
4778 72.0650 772.55 738.04 13.90
4779 72.0780 767.22 743.68 13.85
4780 72.0910 773.70 749.66 13.91
4781 72.1040 797.54 755.80 14.12
4782 72.1170 796.16 761.92 14.11
4783 72.1300 809.90 767.84 14.23
4784 72.1430 810.78 773.38 14.24
4785 72.1560 826.01 778.38 14.37
4786 72.1690 841.78 782.70 14.51
4787 72.1820 847.06 786.25 14.55
4788 72.1950 853.21 788.96 14.60
4789 72.2080 861.47 790.78 14.68
4790 72.2210 861.77 791.75 14.68
4791 72.2340 847.30 791.81 14.55
4792 72.2470 851.01 791.04 14.59
4793 72.2600 835.35 789.46 14.45
4794 72.2730 819.18 787.13 14.31
4795 72.2860 828.80 784.10 14.39
4796 72.2990 828.27 780.40 14.39
4797 72.3120 822.27 776.09 14.34
4798 72.3250 820.88 771.21 14.33
4799 72.3380 810.66 765.82 14.24
4800 72.3510 812.51 759.96 14.25
4801 72.3640 792.41 753.70 14.07
4802 72.3770 783.27 747.09 13.99
4803 72.3900 808.53 740.21 14.22
4804 72.4030 782.93 733.13 13.99
4805 72.4160 764.30 725.92 13.82
4806 72.4290 766.04 718.68 13.84
4807 72.4420 756.95 711.47 13.76
4808 72.4550 745.91 704.38 13.66
4809 72.4680 739.56 697.47 13.60
4810 72.4810 728.98 690.82 13.50
4811 72.4940 701.12 684.48 13.24
4812 72.5070 706.80 678.53 13.29
4813 72.5200 707.20 673.00 13.30
4814 72.5330 697.57 667.93 13.21
4815 72.5460 695.40 663.37 13.19
4816 72.5590 692.69 659.35 13.16
4817 72.5720 695.03 655.85 13.18
4818 72.5850 681.93 652.96 13.06
4819 72.5980 692.46 650.65 13.16
4820 72.6110 695.95 648.89 13.19
4821 72.6240 673.26 647.70 12.97
4822 72.6370 672.21 647.04 12.96
4823 72.6500 676.93 646.88 13.01
4824 72.6630 671.79 647.18 12.96
4825 72.6760 654.06 647.89 12.79
4826 72.6890 667.83 648.93 12.92
4827 72.7020 685.98 650.24 13.10
4828 72.7150 677.46 651.74 13.01
4829 72.7280 683.47 653.35 13.07
4830 72.7410 692.04 655.00 13.15
4831 72.7540 699.24 656.63 13.22
4832 72.7670 687.69 658.13 13.11
4833 72.7800 690.84 659.46 13.14
4834 72.7930 696.27 660.57 13.19
4835 72.8060 688.43 661.43 13.12
4836 72.8190 699.16 662.01 13.22
4837 72.8320 706.51 662.30 13.29
4838 72.8450 703.63 662.30 13.26
4839 72.8580 690.61 662.02 13.14
4840 72.8710 691.45 661.48 13.15
4841 72.8840 701.77 660.71 13.25
4842 72.8970 686.73 659.73 13.10
4843 72.9100 702.07 658.59 13.25
4844 72.9230 704.23 657.37 13.27
4845 72.9360 683.23 656.04 13.07
4846 72.9490 684.09 654.71 13.08
4847 72.9620 694.80 653.49 13.18
4848 72.9750 707.92 652.33 13.30
4849 72.9880 691.29 651.34 13.15
4850 73.0010 661.84 650.62 12.86
4851 73.0140 667.44 650.23 12.92
4852 73.0270 683.71 650.23 13.07
4853 73.0400 696.35 650.72 13.19
4854 73.0530 653.47 651.77 12.78
4855 73.0660 670.02 653.45 12.94
4856 73.0790 656.51 655.82 12.81
4857 73.0920 657.00 658.97 12.82
4858 73.1050 651.58 662.95 12.76
4859 73.1180 675.21 667.81 12.99
4860 73.1310 669.22 673.60 12.93
4861 73.1440 655.60 680.34 12.80
4862 73.1570 690.54 688.04 13.14
4863 73.1700 683.13 696.68 13.07
4864 73.1830 687.14 706.25 13.11
4865 73.1960 685.44 716.66 13.09
4866 73.2090 696.15 727.83 13.19
4867 73.2220 678.85 739.62 13.03
4868 73.2350 713.39 751.88 13.35
4869 73.2480 688.81 764.42 13.12
4870 73.2610 716.23 777.05 13.38
4871 73.2740 730.66 789.54 13.52
4872 73.2870 733.10 801.67 13.54
4873 73.3000 747.51 813.22 13.67
4874 73.3130 745.49 823.93 13.65
4875 73.3260 756.38 833.75 13.75
4876 73.3390 777.61 842.51 13.94
4877 73.3520 807.57 850.12 14.21
4878 73.3650 825.45 856.53 14.37
4879 73.3780 829.09 861.76 14.40
4880 73.3910 842.52 865.90 14.51
4881 73.4040 870.23 868.88 14.75
4882 73.4170 862.96 870.82 14.69
4883 73.4300 866.88 871.82 14.72
4884 73.4430 870.37 871.95 14.75
4885 73.4560 843.34 871.26 14.52
4886 73.4690 837.37 869.82 14.47
4887 73.4820 830.68 867.64 14.41
4888 73.4950 833.90 864.76 14.44
4889 73.5080 835.65 861.19 14.45
4890 73.5210 807.37 856.93 14.21
4891 73.5340 801.51 852.01 14.16
4892 73.5470 799.33 846.40 14.14
4893 73.5600 811.21 840.14 14.24
4894 73.5730 798.17 833.27 14.13
4895 73.5860 794.97 825.84 14.10
4896 73.5990 793.58 817.90 14.09
4897 73.6120 794.41 809.53 14.09
4898 73.6250 799.63 800.82 14.14
4899 73.6380 784.35 791.86 14.00
4900 73.6510 777.93 782.73 13.95
4901 73.6640 756.21 773.56 13.75
4902 73.6770 732.15 764.38 13.53
4903 73.6900 730.76 755.31 13.52
4904 73.7030 752.17 746.41 13.71
4905 73.7160 757.46 737.78 13.76
4906 73.7290 727.73 729.46 13.49
4907 73.7420 720.40 721.62 13.42
4908 73.7550 721.69 714.14 13.43
4909 73.7680 709.34 707.15 13.32
4910 73.7810 714.54 700.70 13.37
4911 73.7940 708.71 694.84 13.31
4912 73.8070 695.73 689.62 13.19
4913 73.8200 696.06 685.07 13.19
4914 73.8330 686.66 681.23 13.10
4915 73.8460 684.31 678.15 13.08
4916 73.8590 692.00 675.88 13.15
4917 73.8720 690.48 674.47 13.14
4918 73.8850 697.60 673.96 13.21
4919 73.8980 712.68 674.40 13.35
4920 73.9110 686.11 675.87 13.10
4921 73.9240 677.03 678.43 13.01
4922 73.9370 695.65 682.16 13.19
4923 73.9500 708.16 687.12 13.31
4924 73.9630 697.27 693.39 13.20
4925 73.9760 691.79 701.05 13.15
4926 73.9890 710.78 710.17 13.33
4927 74.0020 742.71 720.80 13.63
4928 74.0150 730.04 733.01 13.51
4929 74.0280 719.74 746.82 13.41
4930 74.0410 743.69 762.24 13.64
4931 74.0540 767.82 779.26 13.85
4932 74.0670 756.25 797.82 13.75
4933 74.0800 792.20 817.83 14.07
4934 74.0930 806.78 839.14 14.20
4935 74.1060 792.83 861.59 14.08
4936 74.1190 809.57 884.92 14.23
4937 74.1320 825.77 908.84 14.37
4938 74.1450 853.17 933.06 14.60
4939 74.1580 866.50 957.18 14.72
4940 74.1710 908.93 980.85 15.07
4941 74.1840 917.98 1003.67 15.15
4942 74.1970 958.09 1025.25 15.48
4943 74.2100 946.50 1045.24 15.38
4944 74.2230 943.92 1063.28 15.36
4945 74.2360 968.52 1079.15 15.56
4946 74.2490 986.03 1092.64 15.70
4947 74.2620 984.88 1103.59 15.69
4948 74.2750 989.50 1111.94 15.73
4949 74.2880 982.05 1117.68 15.67
4950 74.3010 982.42 1120.86 15.67
4951 74.3140 1012.97 1121.56 15.91
4952 74.3270 977.19 1119.91 15.63
4953 74.3400 992.18 1116.17 15.75
4954 74.3530 969.59 1110.30 15.57
4955 74.3660 979.39 1102.60 15.65
4956 74.3790 1003.51 1093.27 15.84
4957 74.3920 970.89 1082.49 15.58
4958 74.4050 997.13 1070.50 15.79
4959 74.4180 967.21 1057.51 15.55
4960 74.4310 954.08 1043.75 15.44
4961 74.4440 962.93 1029.41 15.52
4962 74.4570 929.58 1014.69 15.24
4963 74.4700 914.53 999.81 15.12
4964 74.4830 879.37 984.90 14.83
4965 74.4960 861.73 970.09 14.68
4966 74.5090 871.04 955.55 14.76
4967 74.5220 855.25 941.29 14.62
4968 74.5350 869.63 927.43 14.74
4969 74.5480 827.65 913.91 14.38
4970 74.5610 820.03 900.80 14.32
4971 74.5740 824.52 888.07 14.36
4972 74.5870 782.87 875.65 13.99
4973 74.6000 799.03 863.53 14.13
4974 74.6130 798.03 851.66 14.12
4975 74.6260 773.66 840.00 13.91
4976 74.6390 796.93 828.56 14.11
4977 74.6520 804.26 817.31 14.18
4978 74.6650 795.54 806.25 14.10
4979 74.6780 762.37 795.38 13.81
4980 74.6910 747.40 784.68 13.67
4981 74.7040 750.68 774.33 13.70
4982 74.7170 741.09 764.26 13.61
4983 74.7300 743.67 754.53 13.64
4984 74.7430 723.27 745.15 13.45
4985 74.7560 720.89 736.16 13.42
4986 74.7690 728.03 727.60 13.49
4987 74.7820 712.61 719.51 13.35
4988 74.7950 696.25 711.90 13.19
4989 74.8080 678.26 704.82 13.02
4990 74.8210 679.12 698.27 13.03
4991 74.8340 681.84 692.26 13.06
4992 74.8470 683.15 686.83 13.07
4993 74.8600 691.61 681.97 13.15
4994 74.8730 695.12 677.67 13.18
4995 74.8860 682.20 673.93 13.06
4996 74.8990 685.26 670.75 13.09
4997 74.9120 687.96 668.11 13.11
4998 74.9250 687.75 665.99 13.11
4999 74.9380 683.38 664.35 13.07
5000 74.9510 675.64 663.16 13.00
5001 74.9640 665.33 662.37 12.90
5002 74.9770 669.41 661.74 12.94
5003 74.9900 675.61 661.68 13.00
5004 75.0030 668.20 661.78 12.92
5005 75.0160 662.74 662.04 12.87
5006 75.0290 658.36 662.41 12.83
5007 75.0420 664.81 662.82 12.89
5008 75.0550 658.54 663.21 12.83
5009 75.0680 652.52 663.55 12.77
5010 75.0810 672.00 663.80 12.96
5011 75.0940 667.90 663.94 12.92
5012 75.1070 666.05 663.99 12.90
5013 75.1200 678.30 663.95 13.02
5014 75.1330 668.37 663.86 12.93
5015 75.1460 677.39 663.77 13.01
5016 75.1590 684.35 663.73 13.08
5017 75.1720 678.99 663.81 13.03
5018 75.1850 694.91 664.08 13.18
5019 75.1980 680.89 664.61 13.05
5020 75.2110 657.22 665.47 12.82
5021 75.2240 646.56 666.72 12.71
5022 75.2370 666.77 668.57 12.91
5023 75.2500 681.58 670.77 13.05
5024 75.2630 694.78 673.50 13.18
5025 75.2760 687.61 676.77 13.11
5026 75.2890 687.60 680.57 13.11
5027 75.3020 687.45 684.87 13.11
5028 75.3150 679.75 689.60 13.04
5029 75.3280 695.82 694.70 13.19
5030 75.3410 680.74 700.03 13.05
5031 75.3540 701.53 705.48 13.24
5032 75.3670 703.96 710.90 13.27
5033 75.3800 694.79 716.12 13.18
5034 75.3930 733.57 720.99 13.54
5035 75.4060 754.02 725.34 13.73
5036 75.4190 753.86 729.04 13.73
5037 75.4320 757.48 731.97 13.76
5038 75.4450 769.25 734.03 13.87
5039 75.4580 791.28 735.16 14.06
5040 75.4710 773.54 735.34 13.91
5041 75.4840 754.13 734.56 13.73
5042 75.4970 796.60 732.86 14.11
5043 75.5100 803.28 730.29 14.17
5044 75.5230 814.23 726.91 14.27
5045 75.5360 802.25 722.81 14.16
5046 75.5490 791.47 718.08 14.07
5047 75.5620 772.14 712.65 13.89
5048 75.5750 758.15 706.95 13.77
5049 75.5880 714.16 700.90 13.36
5050 75.6010 725.62 694.59 13.47
5051 75.6140 753.74 688.11 13.73
5052 75.6270 737.16 681.51 13.58
5053 75.6400 683.40 674.87 13.07
5054 75.6530 685.81 668.24 13.09
5055 75.6660 680.33 661.65 13.04
5056 75.6790 645.64 655.16 12.70
5057 75.6920 651.03 648.77 12.76
5058 75.7050 633.58 642.53 12.59
5059 75.7180 657.34 636.43 12.82
5060 75.7310 636.61 630.49 12.62
5061 75.7440 630.66 624.73 12.56
5062 75.7570 608.11 619.15 12.33
5063 75.7700 579.60 613.76 12.04
5064 75.7830 609.86 608.56 12.35
5065 75.7960 607.32 603.54 12.32
5066 75.8090 599.38 598.73 12.24
5067 75.8220 588.25 594.12 12.13
5068 75.8350 613.34 589.71 12.38
5069 75.8480 583.90 585.50 12.08
5070 75.8610 557.48 581.49 11.81
5071 75.8740 568.26 577.68 11.92
5072 75.8870 572.84 574.07 11.97
5073 75.9000 556.39 570.65 11.79
5074 75.9130 543.59 567.26 11.66
5075 75.9260 544.26 564.23 11.66
5076 75.9390 561.03 561.37 11.84
5077 75.9520 539.88 558.71 11.62
5078 75.9650 535.26 556.22 11.57
5079 75.9780 533.91 553.91 11.55
5080 75.9910 543.50 551.78 11.66
5081 76.0040 530.38 549.82 11.52
5082 76.0170 515.82 548.04 11.36
5083 76.0300 527.28 546.43 11.48
5084 76.0430 531.63 545.05 11.53
5085 76.0560 524.71 543.78 11.45
5086 76.0690 528.96 542.67 11.50
5087 76.0820 516.49 541.72 11.36
5088 76.0950 512.79 540.94 11.32
5089 76.1080 518.10 540.31 11.38
5090 76.1210 520.52 539.84 11.41
5091 76.1340 520.25 539.52 11.40
5092 76.1470 511.02 539.34 11.30
5093 76.1600 505.85 539.31 11.25
5094 76.1730 506.31 539.40 11.25
5095 76.1860 507.23 539.61 11.26
5096 76.1990 508.76 539.93 11.28
5097 76.2120 505.65 540.34 11.24
5098 76.2250 520.37 540.83 11.41
5099 76.2380 518.84 541.38 11.39
5100 76.2510 514.79 541.97 11.34
5101 76.2640 512.24 542.59 11.32
5102 76.2770 496.40 543.20 11.14
5103 76.2900 502.52 543.80 11.21
5104 76.3030 510.68 544.37 11.30
5105 76.3160 502.41 544.89 11.21
5106 76.3290 505.24 545.36 11.24
5107 76.3420 504.01 545.76 11.23
5108 76.3550 500.17 546.10 11.18
5109 76.3680 514.43 546.37 11.34
5110 76.3810 523.80 546.58 11.44
5111 76.3940 509.60 546.75 11.29
5112 76.4070 505.23 546.87 11.24
5113 76.4200 521.58 546.97 11.42
5114 76.4330 512.96 547.08 11.32
5115 76.4460 496.70 547.17 11.14
5116 76.4590 502.85 547.28 11.21
5117 76.4720 519.78 547.43 11.40
5118 76.4850 532.48 547.62 11.54
5119 76.4980 521.02 547.88 11.41
5120 76.5110 520.52 548.23 11.41
5121 76.5240 527.15 548.67 11.48
5122 76.5370 533.16 549.14 11.55
5123 76.5500 530.28 549.89 11.51
5124 76.5630 519.92 550.70 11.40
5125 76.5760 516.79 551.64 11.37
5126 76.5890 517.16 552.74 11.37
5127 76.6020 529.59 554.01 11.51
5128 76.6150 532.80 555.45 11.54
5129 76.6280 537.32 557.08 11.59
5130 76.6410 530.48 558.90 11.52
5131 76.6540 531.55 560.94 11.53
5132 76.6670 527.78 563.19 11.49
5133 76.6800 534.36 565.68 11.56
5134 76.6930 542.32 568.42 11.64
5135 76.7060 536.22 571.42 11.58
5136 76.7190 531.48 574.71 11.53
5137 76.7320 549.11 578.28 11.72
5138 76.7450 546.76 582.15 11.69
5139 76.7580 561.10 586.33 11.84
5140 76.7710 563.71 590.82 11.87
5141 76.7840 555.69 595.62 11.79
5142 76.7970 555.74 600.69 11.79
5143 76.8100 562.92 606.02 11.86
5144 76.8230 564.00 611.56 11.87
5145 76.8360 571.95 617.16 11.96
5146 76.8490 570.39 622.93 11.94
5147 76.8620 583.21 628.69 12.07
5148 76.8750 585.50 634.33 12.10
5149 76.8880 590.59 639.76 12.15
5150 76.9010 588.71 644.90 12.13
5151 76.9140 618.47 649.62 12.43
5152 76.9270 615.62 653.82 12.41
5153 76.9400 621.33 657.41 12.46
5154 76.9530 633.82 660.31 12.59
5155 76.9660 626.14 662.48 12.51
5156 76.9790 640.64 663.88 12.66
5157 76.9920 621.52 664.48 12.47
5158 77.0050 646.37 664.28 12.71
5159 77.0180 633.50 663.30 12.58
5160 77.0310 616.17 661.58 12.41
5161 77.0440 636.84 659.15 12.62
5162 77.0570 621.97 656.06 12.47
5163 77.0700 636.40 652.39 12.61
5164 77.0830 619.18 648.20 12.44
5165 77.0960 606.26 643.55 12.31
5166 77.1090 607.83 638.52 12.33
5167 77.1220 608.70 633.18 12.34
5168 77.1350 603.52 627.61 12.28
5169 77.1480 611.34 621.78 12.36
5170 77.1610 587.07 615.94 12.11
5171 77.1740 587.53 610.06 12.12
5172 77.1870 566.00 604.20 11.90
5173 77.2000 584.94 598.41 12.09
5174 77.2130 552.09 592.74 11.75
5175 77.2260 555.86 587.22 11.79
5176 77.2390 549.23 581.88 11.72
5177 77.2520 555.72 576.77 11.79
5178 77.2650 558.11 571.89 11.81
5179 77.2780 553.64 567.28 11.76
5180 77.2910 561.42 562.94 11.85
5181 77.3040 544.59 558.88 11.67
5182 77.3170 549.68 555.11 11.72
5183 77.3300 533.12 551.62 11.54
5184 77.3430 532.65 548.43 11.54
5185 77.3560 543.97 545.53 11.66
5186 77.3690 541.76 542.92 11.64
5187 77.3820 539.75 540.59 11.62
5188 77.3950 545.46 538.54 11.68
5189 77.4080 531.41 536.76 11.53
5190 77.4210 526.76 535.26 11.48
5191 77.4340 525.70 534.02 11.46
5192 77.4470 518.53 533.05 11.39
5193 77.4600 530.59 532.34 11.52
5194 77.4730 527.31 531.88 11.48
5195 77.4860 523.11 531.68 11.44
5196 77.4990 532.24 531.73 11.54
5197 77.5120 520.01 532.04 11.40
5198 77.5250 529.55 532.59 11.51
5199 77.5380 551.66 533.39 11.74
5200 77.5510 539.59 534.44 11.61
5201 77.5640 543.50 535.71 11.66
5202 77.5770 554.25 537.03 11.77
5203 77.5900 548.28 538.72 11.71
5204 77.6030 538.71 540.60 11.61
5205 77.6160 546.23 542.65 11.69
5206 77.6290 560.66 544.85 11.84
5207 77.6420 565.68 547.17 11.89
5208 77.6550 561.35 549.64 11.85
5209 77.6680 564.08 552.11 11.88
5210 77.6810 557.78 554.62 11.81
5211 77.6940 540.72 557.14 11.63
5212 77.7070 560.08 559.64 11.83
5213 77.7200 567.08 562.12 11.91
5214 77.7330 558.24 564.54 11.81
5215 77.7460 565.99 566.92 11.90
5216 77.7590 568.84 569.24 11.93
5217 77.7720 589.17 571.50 12.14
5218 77.7850 597.15 573.67 12.22
5219 77.7980 595.56 575.86 12.20
5220 77.8110 583.94 578.03 12.08
5221 77.8240 575.63 580.20 12.00
5222 77.8370 593.07 582.38 12.18
5223 77.8500 597.36 584.59 12.22
5224 77.8630 600.11 586.82 12.25
5225 77.8760 597.29 589.09 12.22
5226 77.8890 598.11 591.39 12.23
5227 77.9020 602.13 593.71 12.27
5228 77.9150 605.74 596.02 12.31
5229 77.9280 617.41 598.30 12.42
5230 77.9410 610.09 600.52 12.35
5231 77.9540 613.67 602.64 12.39
5232 77.9670 599.16 604.62 12.24
5233 77.9800 617.32 606.43 12.42
5234 77.9930 622.89 608.02 12.48
5235 78.0060 628.10 609.41 12.53
5236 78.0190 602.52 610.49 12.27
5237 78.0320 619.13 611.29 12.44
5238 78.0450 606.54 611.80 12.31
5239 78.0580 607.87 612.02 12.33
5240 78.0710 617.23 611.94 12.42
5241 78.0840 624.22 611.61 12.49
5242 78.0970 628.73 610.98 12.54
5243 78.1100 612.22 610.08 12.37
5244 78.1230 623.73 608.93 12.49
5245 78.1360 624.75 607.54 12.50
5246 78.1490 617.31 605.92 12.42
5247 78.1620 626.21 604.09 12.51
5248 78.1750 628.83 602.04 12.54
5249 78.1880 613.55 599.78 12.39
5250 78.2010 620.69 597.36 12.46
5251 78.2140 608.14 594.76 12.33
5252 78.2270 625.71 592.02 12.51
5253 78.2400 602.00 589.16 12.27
5254 78.2530 608.25 586.14 12.33
5255 78.2660 600.27 583.10 12.25
5256 78.2790 605.18 580.00 12.30
5257 78.2920 597.12 576.88 12.22
5258 78.3050 601.37 573.77 12.26
5259 78.3180 607.30 570.73 12.32
5260 78.3310 583.04 567.71 12.07
5261 78.3440 574.60 564.79 11.99
5262 78.3570 569.86 561.98 11.94
5263 78.3700 576.78 559.31 12.01
5264 78.3830 577.24 556.78 12.01
5265 78.3960 565.87 554.44 11.89
5266 78.4090 564.55 552.29 11.88
5267 78.4220 573.79 550.35 11.98
5268 78.4350 566.46 548.63 11.90
5269 78.4480 563.48 547.13 11.87
5270 78.4610 545.04 545.87 11.67
5271 78.4740 562.35 544.84 11.86
5272 78.4870 548.70 544.05 11.71
5273 78.5000 546.50 543.49 11.69
5274 78.5130 544.14 543.17 11.66
5275 78.5260 567.76 543.08 11.91
5276 78.5390 530.65 543.20 11.52
5277 78.5520 551.18 543.55 11.74
5278 78.5650 549.01 544.09 11.72
5279 78.5780 536.12 544.88 11.58
5280 78.5910 539.71 545.83 11.62
5281 78.6040 554.69 546.96 11.78
5282 78.6170 552.01 548.27 11.75
5283 78.6300 554.49 549.78 11.77
5284 78.6430 557.28 551.47 11.80
5285 78.6560 551.94 553.36 11.75
5286 78.6690 554.82 555.45 11.78
5287 78.6820 542.99 557.75 11.65
5288 78.6950 549.36 560.27 11.72
5289 78.7080 548.60 563.02 11.71
5290 78.7210 545.10 566.00 11.67
5291 78.7340 560.57 569.23 11.84
5292 78.7470 564.69 572.70 11.88
5293 78.7600 567.28 576.44 11.91
5294 78.7730 577.52 580.45 12.02
5295 78.7860 572.80 584.73 11.97
5296 78.7990 576.02 589.28 12.00
5297 78.8120 568.03 594.11 11.92
5298 78.8250 580.96 599.19 12.05
5299 78.8380 596.77 604.30 12.21
5300 78.8510 601.71 609.85 12.26
5301 78.8640 611.94 615.58 12.37
5302 78.8770 603.21 621.45 12.28
5303 78.8900 600.91 627.39 12.26
5304 78.9030 615.86 633.32 12.41
5305 78.9160 625.10 639.18 12.50
5306 78.9290 619.82 644.86 12.45
5307 78.9420 628.26 650.27 12.53
5308 78.9550 647.01 655.30 12.72
5309 78.9680 659.55 659.85 12.84
5310 78.9810 656.08 663.85 12.81
5311 78.9940 662.64 667.21 12.87
5312 79.0070 671.40 669.86 12.96
5313 79.0200 670.46 671.77 12.95
5314 79.0330 669.72 672.92 12.94
5315 79.0460 657.13 673.29 12.82
5316 79.0590 656.25 672.90 12.81
5317 79.0720 652.37 671.79 12.77
5318 79.0850 652.57 669.93 12.77
5319 79.0980 660.33 667.54 12.85
5320 79.1110 651.63 664.60 12.76
5321 79.1240 645.92 661.20 12.71
5322 79.1370 635.64 657.42 12.61
5323 79.1500 621.10 653.35 12.46
5324 79.1630 622.64 649.08 12.48
5325 79.1760 618.24 644.69 12.43
5326 79.1890 604.24 640.26 12.29
5327 79.2020 612.51 635.88 12.37
5328 79.2150 612.95 631.63 12.38
5329 79.2280 596.43 627.58 12.21
5330 79.2410 593.44 623.79 12.18
5331 79.2540 596.35 620.33 12.21
5332 79.2670 583.13 617.24 12.07
5333 79.2800 575.07 614.59 11.99
5334 79.2930 576.67 612.39 12.01
5335 79.3060 586.73 610.69 12.11
5336 79.3190 572.37 609.50 11.96
5337 79.3320 575.20 608.83 11.99
5338 79.3450 580.92 608.68 12.05
5339 79.3580 585.10 609.04 12.09
5340 79.3710 596.57 609.88 12.21
5341 79.3840 588.64 611.18 12.13
5342 79.3970 587.72 612.88 12.12
5343 79.4100 608.81 614.94 12.34
5344 79.4230 606.67 617.29 12.32
5345 79.4360 589.63 619.87 12.14
5346 79.4490 599.67 622.62 12.24
5347 79.4620 621.17 625.47 12.46
5348 79.4750 610.25 628.36 12.35
5349 79.4880 605.12 631.24 12.30
5350 79.5010 607.06 634.07 12.32
5351 79.5140 616.15 636.80 12.41
5352 79.5270 616.39 639.48 12.41
5353 79.5400 604.88 641.98 12.30
5354 79.5530 609.46 644.35 12.34
5355 79.5660 608.53 646.60 12.33
5356 79.5790 606.31 648.73 12.31
5357 79.5920 637.36 650.76 12.62
5358 79.6050 607.07 652.71 12.32
5359 79.6180 618.86 654.60 12.44
5360 79.6310 624.97 656.46 12.50
5361 79.6440 619.77 658.30 12.45
5362 79.6570 635.54 660.15 12.60
5363 79.6700 624.77 662.04 12.50
5364 79.6830 638.28 663.97 12.63
5365 79.6960 632.06 665.95 12.57
5366 79.7090 631.28 667.98 12.56
5367 79.7220 615.09 670.07 12.40
5368 79.7350 623.97 672.19 12.49
5369 79.7480 629.80 674.25 12.55
5370 79.7610 634.56 676.36 12.60
5371 79.7740 665.74 678.41 12.90
5372 79.7870 656.17 680.36 12.81
5373 79.8000 665.69 682.14 12.90
5374 79.8130 630.82 683.69 12.56
5375 79.8260 654.63 684.65 12.79
5376 79.8390 658.45 685.57 12.83
5377 79.8520 665.17 686.09 12.90
5378 79.8650 687.20 686.18 13.11
5379 79.8780 663.70 685.78 12.88
5380 79.8910 645.99 684.89 12.71
5381 79.9040 668.99 683.47 12.93
5382 79.9170 681.81 681.53 13.06
5383 79.9300 689.15 679.09 13.13
5384 79.9430 679.04 676.15 13.03
5385 79.9560 677.02 672.75 13.01
5386 79.9690 663.66 668.93 12.88
5387 79.9820 653.65 664.72 12.78
5388 79.9950 652.12 660.08 12.77
5389 80.0080 658.90 655.25 12.83
5390 80.0210 651.76 650.20 12.76
5391 80.0340 628.18 644.97 12.53
5392 80.0470 623.20 639.68 12.48
5393 80.0600 626.96 634.27 12.52
5394 80.0730 623.96 628.85 12.49
5395 80.0860 632.72 623.47 12.58
5396 80.0990 621.46 618.19 12.46
5397 80.1120 589.34 613.05 12.14
5398 80.1250 592.45 608.11 12.17
5399 80.1380 588.85 603.40 12.13
5400 80.1510 580.60 598.96 12.05
5401 80.1640 585.15 594.81 12.09
5402 80.1770 596.80 590.98 12.21
5403 80.1900 585.52 587.50 12.10
5404 80.2030 577.84 584.39 12.02
5405 80.2160 585.00 581.65 12.09
5406 80.2290 582.67 579.20 12.07
5407 80.2420 570.81 577.24 11.95
5408 80.2550 568.09 575.67 11.92
5409 80.2680 574.36 574.52 11.98
5410 80.2810 569.48 573.76 11.93
5411 80.2940 574.63 573.42 11.99
5412 80.3070 577.45 573.49 12.02
5413 80.3200 568.95 573.98 11.93
5414 80.3330 582.73 574.88 12.07
5415 80.3460 588.56 576.18 12.13
5416 80.3590 589.28 577.89 12.14
5417 80.3720 597.32 579.98 12.22
5418 80.3850 584.90 582.44 12.09
5419 80.3980 584.45 585.23 12.09
5420 80.4110 597.78 588.30 12.22
5421 80.4240 603.06 591.60 12.28
5422 80.4370 613.35 595.08 12.38
5423 80.4500 612.31 598.65 12.37
5424 80.4630 606.15 602.24 12.31
5425 80.4760 610.58 605.75 12.35
5426 80.4890 606.84 609.09 12.32
5427 80.5020 626.46 612.21 12.51
5428 80.5150 633.90 614.95 12.59
5429 80.5280 643.17 617.28 12.68
5430 80.5410 650.17 619.11 12.75
5431 80.5540 670.68 620.43 12.95
5432 80.5670 671.80 621.18 12.96
5433 80.5800 650.30 621.35 12.75
5434 80.5930 650.40 620.94 12.75
5435 80.6060 643.04 619.96 12.68
5436 80.6190 653.44 618.44 12.78
5437 80.6320 626.61 616.42 12.52
5438 80.6450 610.97 613.94 12.36
5439 80.6580 615.84 611.06 12.41
5440 80.6710 627.61 607.84 12.53
5441 80.6840 621.11 604.34 12.46
5442 80.6970 597.14 600.61 12.22
5443 80.7100 603.77 596.73 12.29
5444 80.7230 573.63 592.75 11.98
5445 80.7360 568.38 588.68 11.92
5446 80.7490 570.80 584.69 11.95
5447 80.7620 579.47 580.78 12.04
5448 80.7750 570.09 576.99 11.94
5449 80.7880 557.00 573.37 11.80
5450 80.8010 543.16 569.96 11.65
5451 80.8140 558.27 566.80 11.81
5452 80.8270 542.86 563.91 11.65
5453 80.8400 539.11 561.33 11.61
5454 80.8530 540.05 559.05 11.62
5455 80.8660 539.48 557.11 11.61
5456 80.8790 567.70 555.50 11.91
5457 80.8920 554.40 554.24 11.77
5458 80.9050 573.15 553.32 11.97
5459 80.9180 556.31 552.73 11.79
5460 80.9310 568.97 552.48 11.93
5461 80.9440 583.72 552.55 12.08
5462 80.9570 576.54 553.00 12.01
5463 80.9700 584.13 553.73 12.08
5464 80.9830 565.74 554.77 11.89
5465 80.9960 567.42 556.14 11.91
5466 81.0090 597.34 557.83 12.22
5467 81.0220 573.01 559.85 11.97
5468 81.0350 596.98 562.21 12.22
5469 81.0480 585.34 564.91 12.10
5470 81.0610 592.26 567.96 12.17
5471 81.0740 583.05 571.34 12.07
5472 81.0870 579.99 575.05 12.04
5473 81.1000 590.16 579.09 12.15
5474 81.1130 592.38 583.42 12.17
5475 81.1260 588.27 587.87 12.13
5476 81.1390 569.19 592.70 11.93
5477 81.1520 596.01 597.71 12.21
5478 81.1650 601.92 602.84 12.27
5479 81.1780 619.34 608.04 12.44
5480 81.1910 625.45 613.26 12.50
5481 81.2040 612.11 618.41 12.37
5482 81.2170 629.64 623.45 12.55
5483 81.2300 626.76 628.33 12.52
5484 81.2430 648.74 633.01 12.74
5485 81.2560 676.43 637.47 13.00
5486 81.2690 681.62 641.70 13.05
5487 81.2820 680.88 645.70 13.05
5488 81.2950 696.76 649.48 13.20
5489 81.3080 684.17 653.07 13.08
5490 81.3210 698.74 656.52 13.22
5491 81.3340 699.49 659.85 13.22
5492 81.3470 680.59 663.10 13.04
5493 81.3600 674.78 666.33 12.99
5494 81.3730 678.30 669.54 13.02
5495 81.3860 686.92 672.76 13.10
5496 81.3990 667.36 676.03 12.92
5497 81.4120 659.94 679.27 12.84
5498 81.4250 657.89 682.48 12.82
5499 81.4380 653.84 685.59 12.79
5500 81.4510 655.47 688.60 12.80
5501 81.4640 663.53 691.41 12.88
5502 81.4770 652.82 693.92 12.78
5503 81.4900 647.89 696.06 12.73
5504 81.5030 655.11 697.73 12.80
5505 81.5160 654.92 698.85 12.80
5506 81.5290 658.19 699.35 12.83
5507 81.5420 667.84 699.17 12.92
5508 81.5550 670.64 698.25 12.95
5509 81.5680 676.38 696.57 13.00
5510 81.5810 690.52 694.13 13.14
5511 81.5940 681.63 690.92 13.05
5512 81.6070 667.25 686.98 12.92
5513 81.6200 666.80 682.34 12.91
5514 81.6330 671.46 677.04 12.96
5515 81.6460 682.25 671.16 13.06
5516 81.6590 681.35 664.74 13.05
5517 81.6720 650.48 657.87 12.75
5518 81.6850 629.43 650.60 12.54
5519 81.6980 634.65 643.02 12.60
5520 81.7110 626.55 635.20 12.52
5521 81.7240 615.74 627.20 12.41
5522 81.7370 604.59 619.09 12.29
5523 81.7500 605.85 610.94 12.31
5524 81.7630 588.46 602.81 12.13
5525 81.7760 571.36 594.76 11.95
5526 81.7890 554.64 586.83 11.78
5527 81.8020 557.57 579.07 11.81
5528 81.8150 550.64 571.52 11.73
5529 81.8280 544.93 564.22 11.67
5530 81.8410 555.11 557.19 11.78
5531 81.8540 550.86 550.47 11.74
5532 81.8670 546.16 544.05 11.69
5533 81.8800 528.00 537.97 11.49
5534 81.8930 516.42 532.23 11.36
5535 81.9060 507.78 526.83 11.27
5536 81.9190 517.87 521.78 11.38
5537 81.9320 515.38 517.08 11.35
5538 81.9450 504.68 512.71 11.23
5539 81.9580 499.12 508.68 11.17
5540 81.9710 520.14 504.97 11.40
5541 81.9840 501.03 501.57 11.19
5542 81.9970 509.35 498.49 11.28
5543 82.0100 503.90 495.70 11.22
5544 82.0230 501.88 493.21 11.20
5545 82.0360 508.10 490.99 11.27
5546 82.0490 498.16 489.05 11.16
5547 82.0620 477.17 487.39 10.92
5548 82.0750 489.36 485.99 11.06
5549 82.0880 503.21 484.85 11.22
5550 82.1010 482.45 483.99 10.98
5551 82.1140 500.67 483.40 11.19
5552 82.1270 490.26 483.08 11.07
5553 82.1400 491.15 483.05 11.08
5554 82.1530 478.12 483.30 10.93
5555 82.1660 482.06 483.84 10.98
5556 82.1790 479.36 484.69 10.95
5557 82.1920 482.55 485.83 10.98
5558 82.2050 497.35 487.29 11.15
5559 82.2180 499.55 489.05 11.18
5560 82.2310 500.69 491.12 11.19
5561 82.2440 486.30 493.50 11.03
5562 82.2570 490.25 496.17 11.07
5563 82.2700 489.51 499.11 11.06
5564 82.2830 494.66 502.31 11.12
5565 82.2960 490.14 505.72 11.07
5566 82.3090 514.30 509.33 11.34
5567 82.3220 472.64 513.06 10.87
5568 82.3350 500.65 516.88 11.19
5569 82.3480 507.63 520.71 11.27
5570 82.3610 486.56 524.51 11.03
5571 82.3740 505.06 528.19 11.24
5572 82.3870 495.27 531.71 11.13
5573 82.4000 508.06 534.98 11.27
5574 82.4130 509.09 537.96 11.28
5575 82.4260 513.15 540.61 11.33
5576 82.4390 518.50 542.86 11.39
5577 82.4520 517.55 544.71 11.37
5578 82.4650 522.31 546.12 11.43
5579 82.4780 514.92 547.11 11.35
5580 82.4910 523.75 547.67 11.44
5581 82.5040 518.07 547.81 11.38
5582 82.5170 539.55 547.58 11.61
5583 82.5300 528.79 546.99 11.50
5584 82.5430 505.31 546.11 11.24
5585 82.5560 511.61 544.98 11.31
5586 82.5690 511.76 543.65 11.31
5587 82.5820 520.55 542.18 11.41
5588 82.5950 514.08 540.62 11.34
5589 82.6080 510.57 539.04 11.30
5590 82.6210 519.01 537.49 11.39
5591 82.6340 510.83 536.03 11.30
5592 82.6470 499.39 534.72 11.17
5593 82.6600 505.70 533.62 11.24
5594 82.6730 498.80 532.77 11.17
5595 82.6860 505.05 532.23 11.24
5596 82.6990 511.50 532.02 11.31
5597 82.7120 510.69 532.18 11.30
5598 82.7250 505.17 532.76 11.24
5599 82.7380 512.03 533.74 11.31
5600 82.7510 499.85 535.14 11.18
5601 82.7640 494.33 536.88 11.12
5602 82.7770 508.09 539.13 11.27
5603 82.7900 517.24 541.77 11.37
5604 82.8030 520.66 544.78 11.41
5605 82.8160 517.26 548.13 11.37
5606 82.8290 514.46 551.76 11.34
5607 82.8420 521.11 555.61 11.41
5608 82.8550 523.28 559.62 11.44
5609 82.8680 542.03 563.71 11.64
5610 82.8810 545.66 567.84 11.68
5611 82.8940 548.37 571.91 11.71
5612 82.9070 551.11 575.83 11.74
5613 82.9200 544.34 579.53 11.67
5614 82.9330 564.70 582.92 11.88
5615 82.9460 581.23 585.93 12.05
5616 82.9590 574.88 588.49 11.99
5617 82.9720 586.74 590.53 12.11
5618 82.9850 594.18 592.01 12.19
5619 82.9980 583.53 592.89 12.08
5620 83.0110 592.62 593.15 12.17
5621 83.0240 584.48 592.77 12.09
5622 83.0370 584.40 591.76 12.09
5623 83.0500 594.69 590.14 12.19
5624 83.0630 584.77 587.93 12.09
5625 83.0760 566.51 585.17 11.90
5626 83.0890 570.75 581.91 11.95
5627 83.1020 569.73 578.19 11.93
5628 83.1150 561.11 574.07 11.84
5629 83.1280 547.12 569.60 11.70
5630 83.1410 527.54 564.83 11.48
5631 83.1540 530.63 559.83 11.52
5632 83.1670 525.85 554.65 11.47
5633 83.1800 527.23 549.33 11.48
5634 83.1930 520.32 543.94 11.41
5635 83.2060 508.41 538.51 11.27
5636 83.2190 519.23 533.09 11.39
5637 83.2320 529.59 527.72 11.51
5638 83.2450 515.23 522.43 11.35
5639 83.2580 500.05 517.26 11.18
5640 83.2710 493.17 512.23 11.10
5641 83.2840 491.96 507.38 11.09
5642 83.2970 484.05 502.71 11.00
5643 83.3100 477.22 498.23 10.92
5644 83.3230 472.90 493.97 10.87
5645 83.3360 476.98 489.93 10.92
5646 83.3490 476.70 486.11 10.92
5647 83.3620 471.20 482.52 10.85
5648 83.3750 475.21 479.16 10.90
5649 83.3880 465.79 476.03 10.79
5650 83.4010 447.95 473.12 10.58
5651 83.4140 472.23 470.42 10.87
5652 83.4270 467.89 467.95 10.82
5653 83.4400 478.71 465.67 10.94
5654 83.4530 472.77 463.59 10.87
5655 83.4660 462.08 461.70 10.75
5656 83.4790 454.13 459.99 10.66
5657 83.4920 453.18 458.46 10.64
5658 83.5050 463.79 457.09 10.77
5659 83.5180 459.42 455.88 10.72
5660 83.5310 450.80 454.82 10.62
5661 83.5440 436.42 453.90 10.45
5662 83.5570 457.45 453.12 10.69
5663 83.5700 452.01 452.48 10.63
5664 83.5830 441.12 451.96 10.50
5665 83.5960 447.62 451.56 10.58
5666 83.6090 450.42 451.24 10.61
5667 83.6220 438.98 451.07 10.48
5668 83.6350 440.17 451.00 10.49
5669 83.6480 445.19 451.03 10.55
5670 83.6610 425.97 451.15 10.32
5671 83.6740 434.40 451.36 10.42
5672 83.6870 463.02 451.65 10.76
5673 83.7000 449.77 452.02 10.60
5674 83.7130 454.24 452.45 10.66
5675 83.7260 466.01 452.94 10.79
5676 83.7390 456.84 453.49 10.69
5677 83.7520 464.08 454.10 10.77
5678 83.7650 455.08 454.74 10.67
5679 83.7780 466.92 455.42 10.80
5680 83.7910 447.69 456.14 10.58
5681 83.8040 463.37 456.90 10.76
5682 83.8170 479.72 457.69 10.95
5683 83.8300 476.89 458.53 10.92
5684 83.8430 466.60 459.41 10.80
5685 83.8560 479.89 460.35 10.95
5686 83.8690 478.47 461.36 10.94
5687 83.8820 488.56 462.45 11.05
5688 83.8950 494.89 463.65 11.12
5689 83.9080 493.34 464.94 11.11
5690 83.9210 478.05 466.29 10.93
5691 83.9340 477.27 467.85 10.92
5692 83.9470 470.46 469.55 10.85
5693 83.9600 465.60 471.42 10.79
5694 83.9730 476.25 473.47 10.91
5695 83.9860 479.55 475.70 10.95
5696 83.9990 481.95 478.11 10.98
5697 84.0120 489.96 480.71 11.07
5698 84.0250 484.93 483.48 11.01
5699 84.0380 482.59 486.41 10.98
5700 84.0510 475.68 489.49 10.91
5701 84.0640 476.77 492.71 10.92
5702 84.0770 474.43 496.00 10.89
5703 84.0900 480.40 499.36 10.96
5704 84.1030 473.55 502.74 10.88
5705 84.1160 491.48 506.10 11.08
5706 84.1290 495.85 509.40 11.13
5707 84.1420 481.09 512.56 10.97
5708 84.1550 475.62 515.59 10.90
5709 84.1680 483.83 518.42 11.00
5710 84.1810 494.77 521.01 11.12
5711 84.1940 506.31 523.33 11.25
5712 84.2070 512.82 525.34 11.32
5713 84.2200 504.71 527.04 11.23
5714 84.2330 497.27 528.40 11.15
5715 84.2460 498.90 529.42 11.17
5716 84.2590 506.28 530.12 11.25
5717 84.2720 519.69 530.50 11.40
5718 84.2850 520.58 530.61 11.41
5719 84.2980 509.40 530.46 11.28
5720 84.3110 514.70 530.09 11.34
5721 84.3240 513.29 529.55 11.33
5722 84.3370 502.16 528.89 11.20
5723 84.3500 501.47 528.14 11.20
5724 84.3630 503.94 527.36 11.22
5725 84.3760 498.28 526.63 11.16
5726 84.3890 492.18 525.92 11.09
5727 84.4020 502.46 525.30 11.21
5728 84.4150 496.65 524.82 11.14
5729 84.4280 487.82 524.51 11.04
5730 84.4410 507.34 524.38 11.26
5731 84.4540 507.65 524.47 11.27
5732 84.4670 497.08 524.77 11.15
5733 84.4800 487.12 525.30 11.04
5734 84.4930 495.90 526.05 11.13
5735 84.5060 501.65 527.00 11.20
5736 84.5190 506.83 528.14 11.26
5737 84.5320 530.70 529.43 11.52
5738 84.5450 515.24 530.86 11.35
5739 84.5580 518.90 532.37 11.39
5740 84.5710 534.29 533.94 11.56
5741 84.5840 520.88 535.51 11.41
5742 84.5970 512.18 537.05 11.32
5743 84.6100 536.25 538.53 11.58
5744 84.6230 529.53 539.91 11.51
5745 84.6360 532.41 541.16 11.54
5746 84.6490 535.00 542.24 11.57
5747 84.6620 572.22 543.12 11.96
5748 84.6750 556.26 543.81 11.79
5749 84.6880 541.46 544.29 11.63
5750 84.7010 558.86 544.55 11.82
5751 84.7140 567.99 544.60 11.92
5752 84.7270 562.14 544.45 11.85
5753 84.7400 568.70 544.11 11.92
5754 84.7530 551.67 543.60 11.74
5755 84.7660 550.56 542.93 11.73
5756 84.7790 524.62 542.11 11.45
5757 84.7920 552.20 541.20 11.75
5758 84.8050 540.63 540.20 11.63
5759 84.8180 534.28 539.12 11.56
5760 84.8310 530.12 537.98 11.51
5761 84.8440 539.14 536.80 11.61
5762 84.8570 526.47 535.59 11.47
5763 84.8700 538.44 534.35 11.60
5764 84.8830 529.77 533.10 11.51
5765 84.8960 525.31 531.83 11.46
5766 84.9090 505.45 530.56 11.24
5767 84.9220 507.67 529.31 11.27
5768 84.9350 530.75 528.04 11.52
5769 84.9480 523.70 526.78 11.44
5770 84.9610 528.65 525.54 11.50
5771 84.9740 510.90 524.28 11.30
5772 84.9870 520.75 523.09 11.41
5773 85.0000 496.32 521.98 11.14
5774 85.0130 497.57 520.93 11.15
5775 85.0260 503.11 519.86 11.22
5776 85.0390 492.99 518.94 11.10
5777 85.0520 524.52 518.10 11.45
5778 85.0650 503.09 517.37 11.21
5779 85.0780 497.48 516.72 11.15
5780 85.0910 503.76 516.18 11.22
5781 85.1040 497.13 515.71 11.15
5782 85.1170 487.11 515.31 11.04
5783 85.1300 512.57 514.97 11.32
5784 85.1430 508.81 514.66 11.28
5785 85.1560 494.21 514.36 11.12
5786 85.1690 479.11 514.05 10.94
5787 85.1820 489.22 513.69 11.06
5788 85.1950 501.80 513.26 11.20
5789 85.2080 487.63 512.73 11.04
5790 85.2210 495.69 512.08 11.13
5791 85.2340 501.78 511.27 11.20
5792 85.2470 492.35 510.31 11.09
5793 85.2600 503.06 509.17 11.21
5794 85.2730 506.20 507.84 11.25
5795 85.2860 511.56 506.33 11.31
5796 85.2990 511.78 504.65 11.31
5797 85.3120 512.01 502.79 11.31
5798 85.3250 496.07 500.82 11.14
5799 85.3380 506.54 498.65 11.25
5800 85.3510 514.83 496.36 11.34
5801 85.3640 504.16 493.96 11.23
5802 85.3770 511.57 491.47 11.31
5803 85.3900 505.37 488.96 11.24
5804 85.4030 501.61 486.38 11.20
5805 85.4160 495.70 483.79 11.13
5806 85.4290 490.27 481.21 11.07
5807 85.4420 483.87 478.66 11.00
5808 85.4550 481.17 476.18 10.97
5809 85.4680 478.43 473.79 10.94
5810 85.4810 478.02 471.51 10.93
5811 85.4940 479.14 469.36 10.94
5812 85.5070 472.68 467.36 10.87
5813 85.5200 465.95 465.53 10.79
5814 85.5330 463.63 463.89 10.77
5815 85.5460 466.33 462.39 10.80
5816 85.5590 475.87 461.17 10.91
5817 85.5720 472.86 460.17 10.87
5818 85.5850 466.24 459.41 10.80
5819 85.5980 476.27 458.88 10.91
5820 85.6110 466.18 458.60 10.80
5821 85.6240 447.37 458.54 10.58
5822 85.6370 458.63 458.71 10.71
5823 85.6500 471.16 459.09 10.85
5824 85.6630 461.21 459.67 10.74
5825 85.6760 465.04 460.43 10.78
5826 85.6890 483.86 461.34 11.00
5827 85.7020 476.34 462.37 10.91
5828 85.7150 480.54 463.50 10.96
5829 85.7280 476.29 464.67 10.91
5830 85.7410 465.39 465.88 10.79
5831 85.7540 468.26 467.08 10.82
5832 85.7670 470.95 468.24 10.85
5833 85.7800 487.42 469.32 11.04
5834 85.7930 498.50 470.30 11.16
5835 85.8060 482.91 471.14 10.99
5836 85.8190 475.13 471.84 10.90
5837 85.8320 473.85 472.37 10.88
5838 85.8450 487.45 472.73 11.04
5839 85.8580 488.22 472.91 11.05
5840 85.8710 472.45 472.88 10.87
5841 85.8840 484.33 472.71 11.00
5842 85.8970 479.94 472.39 10.95
5843 85.9100 481.32 471.92 10.97
5844 85.9230 489.99 471.33 11.07
5845 85.9360 479.36 470.63 10.95
5846 85.9490 489.35 469.86 11.06
5847 85.9620 474.89 468.98 10.90
5848 85.9750 463.60 468.14 10.77
5849 85.9880 450.33 467.29 10.61
5850 86.0010 478.17 466.48 10.93
5851 86.0140 470.45 465.73 10.85
5852 86.0270 473.12 465.06 10.88
5853 86.0400 481.18 464.51 10.97
5854 86.0530 469.37 464.10 10.83
5855 86.0660 474.05 463.86 10.89
5856 86.0790 486.97 463.79 11.03
5857 86.0920 466.20 463.92 10.80
5858 86.1050 448.22 464.27 10.59
5859 86.1180 465.82 464.83 10.79
5860 86.1310 467.91 465.60 10.82
5861 86.1440 486.43 466.61 11.03
5862 86.1570 470.82 467.83 10.85
5863 86.1700 473.30 469.26 10.88
5864 86.1830 476.22 470.87 10.91
5865 86.1960 471.03 472.64 10.85
5866 86.2090 471.74 474.55 10.86
5867 86.2220 477.61 476.56 10.93
5868 86.2350 484.03 478.64 11.00
5869 86.2480 474.69 480.76 10.89
5870 86.2610 478.51 482.88 10.94
5871 86.2740 489.05 484.96 11.06
5872 86.2870 480.95 486.97 10.97
5873 86.3000 494.69 488.89 11.12
5874 86.3130 492.38 490.69 11.09
5875 86.3260 489.31 492.35 11.06
5876 86.3390 472.82 493.85 10.87
5877 86.3520 495.96 495.19 11.14
5878 86.3650 488.45 496.37 11.05
5879 86.3780 493.82 497.37 11.11
5880 86.3910 503.47 498.21 11.22
5881 86.4040 502.28 498.89 11.21
5882 86.4170 514.69 499.41 11.34
5883 86.4300 504.89 499.81 11.23
5884 86.4430 514.91 500.10 11.35
5885 86.4560 504.66 500.28 11.23
5886 86.4690 497.91 500.39 11.16
5887 86.4820 521.28 500.44 11.42
5888 86.4950 520.78 500.44 11.41
5889 86.5080 510.17 500.42 11.29
5890 86.5210 498.35 500.41 11.16
5891 86.5340 507.23 500.42 11.26
5892 86.5470 513.50 500.47 11.33
5893 86.5600 514.79 500.59 11.34
5894 86.5730 526.50 500.78 11.47
5895 86.5860 509.98 501.07 11.29
5896 86.5990 507.29 501.47 11.26
5897 86.6120 501.44 501.99 11.20
5898 86.6250 508.44 502.64 11.27
5899 86.6380 505.61 503.43 11.24
5900 86.6510 500.77 504.36 11.19
5901 86.6640 504.65 505.45 11.23
5902 86.6770 506.38 506.69 11.25
5903 86.6900 496.88 507.99 11.15
5904 86.7030 507.98 509.53 11.27
5905 86.7160 505.74 511.23 11.24
5906 86.7290 508.48 513.05 11.27
5907 86.7420 506.38 514.98 11.25
5908 86.7550 519.19 517.00 11.39
5909 86.7680 520.53 519.09 11.41
5910 86.7810 493.45 521.21 11.11
5911 86.7940 500.47 523.32 11.19
5912 86.8070 509.95 525.39 11.29
5913 86.8200 510.92 527.35 11.30
5914 86.8330 518.51 529.19 11.39
5915 86.8460 512.64 530.87 11.32
5916 86.8590 514.34 532.29 11.34
5917 86.8720 527.18 533.44 11.48
5918 86.8850 528.26 534.29 11.49
5919 86.8980 529.61 534.81 11.51
5920 86.9110 541.79 534.98 11.64
5921 86.9240 541.33 534.80 11.63
5922 86.9370 533.69 534.24 11.55
5923 86.9500 536.09 533.31 11.58
5924 86.9630 543.20 532.02 11.65
5925 86.9760 548.35 530.39 11.71
5926 86.9890 544.52 528.44 11.67
5927 87.0020 539.37 526.19 11.61
5928 87.0150 531.55 523.68 11.53
5929 87.0280 533.86 520.94 11.55
5930 87.0410 526.94 518.00 11.48
5931 87.0540 522.81 514.89 11.43
5932 87.0670 512.67 511.67 11.32
5933 87.0800 511.26 508.36 11.31
5934 87.0930 515.73 505.01 11.35
5935 87.1060 527.43 501.65 11.48
5936 87.1190 520.63 498.31 11.41
5937 87.1320 502.92 495.04 11.21
5938 87.1450 512.67 491.85 11.32
5939 87.1580 513.97 488.82 11.34
5940 87.1710 499.34 485.87 11.17
5941 87.1840 507.13 483.12 11.26
5942 87.1970 495.41 480.55 11.13
5943 87.2100 492.15 478.18 11.09
5944 87.2230 483.91 476.01 11.00
5945 87.2360 479.59 474.05 10.95
5946 87.2490 475.24 472.31 10.90
5947 87.2620 478.85 470.77 10.94
5948 87.2750 487.53 469.42 11.04
5949 87.2880 478.40 468.24 10.94
5950 87.3010 499.60 467.23 11.18
5951 87.3140 471.03 466.36 10.85
5952 87.3270 480.15 465.60 10.96
5953 87.3400 478.52 464.93 10.94
5954 87.3530 471.67 464.34 10.86
5955 87.3660 472.16 463.79 10.86
5956 87.3790 466.54 463.26 10.80
5957 87.3920 484.21 462.73 11.00
5958 87.4050 486.27 462.19 11.03
5959 87.4180 482.13 461.62 10.98
5960 87.4310 467.24 461.01 10.81
5961 87.4440 497.51 460.37 11.15
5962 87.4570 481.03 459.68 10.97
5963 87.4700 481.46 458.85 10.97
5964 87.4830 481.29 458.09 10.97
5965 87.4960 502.73 457.30 11.21
5966 87.5090 493.57 456.50 11.11
5967 87.5220 492.77 455.70 11.10
5968 87.5350 486.67 454.91 11.03
5969 87.5480 491.80 454.16 11.09
5970 87.5610 473.41 453.46 10.88
5971 87.5740 475.10 452.85 10.90
5972 87.5870 474.32 452.32 10.89
5973 87.6000 473.10 451.90 10.88
5974 87.6130 481.68 451.62 10.97
5975 87.6260 493.12 451.49 11.10
5976 87.6390 490.90 451.52 11.08
5977 87.6520 472.38 451.73 10.87
5978 87.6650 475.68 452.13 10.91
5979 87.6780 481.04 452.73 10.97
5980 87.6910 479.40 453.53 10.95
5981 87.7040 490.61 454.52 11.07
5982 87.7170 477.73 455.71 10.93
5983 87.7300 479.08 457.08 10.94
5984 87.7430 474.71 458.62 10.89
5985 87.7560 495.63 460.31 11.13
5986 87.7690 482.52 462.12 10.98
5987 87.7820 483.05 463.89 10.99
5988 87.7950 491.28 465.85 11.08
5989 87.8080 492.49 467.83 11.10
5990 87.8210 502.83 469.79 11.21
5991 87.8340 499.73 471.70 11.18
5992 87.8470 509.08 473.50 11.28
5993 87.8600 498.38 475.16 11.16
5994 87.8730 520.84 476.65 11.41
5995 87.8860 526.36 477.95 11.47
5996 87.8990 508.70 479.01 11.28
5997 87.9120 517.60 479.82 11.38
5998 87.9250 530.50 480.37 11.52
5999 87.9380 543.24 480.65 11.65
6000 87.9510 533.66 480.66 11.55
6001 87.9640 521.64 480.41 11.42
6002 87.9770 540.41 479.92 11.62
6003 87.9900 556.10 479.19 11.79
6004 88.0030 555.02 478.25 11.78
6005 88.0160 552.09 477.13 11.75
6006 88.0290 551.06 475.84 11.74
6007 88.0420 550.90 474.43 11.74
6008 88.0550 550.72 472.92 11.73
6009 88.0680 541.86 471.35 11.64
6010 88.0810 530.66 469.74 11.52
6011 88.0940 522.49 468.13 11.43
6012 88.1070 514.32 466.55 11.34
6013 88.1200 509.98 465.02 11.29
6014 88.1330 516.61 463.58 11.36
6015 88.1460 519.83 462.26 11.40
6016 88.1590 518.49 461.10 11.39
6017 88.1720 506.25 460.06 11.25
6018 88.1850 491.02 459.19 11.08
6019 88.1980 501.86 458.50 11.20
6020 88.2110 508.90 458.00 11.28
6021 88.2240 496.32 457.68 11.14
6022 88.2370 494.80 457.56 11.12
6023 88.2500 495.83 457.61 11.13
6024 88.2630 490.28 457.86 11.07
6025 88.2760 487.16 458.21 11.04
6026 88.2890 478.59 458.70 10.94
6027 88.3020 486.61 459.28 11.03
6028 88.3150 489.15 459.94 11.06
6029 88.3280 477.90 460.64 10.93
6030 88.3410 479.73 461.37 10.95
6031 88.3540 488.62 462.07 11.05
6032 88.3670 484.02 462.72 11.00
6033 88.3800 491.43 463.30 11.08
6034 88.3930 497.68 463.78 11.15
6035 88.4060 486.80 464.15 11.03
6036 88.4190 483.74 464.39 11.00
6037 88.4320 485.69 464.49 11.02
6038 88.4450 470.81 464.44 10.85
6039 88.4580 470.23 464.27 10.84
6040 88.4710 479.46 463.93 10.95
6041 88.4840 461.94 463.43 10.75
6042 88.4970 462.48 462.80 10.75
6043 88.5100 463.22 462.05 10.76
6044 88.5230 470.17 461.18 10.84
6045 88.5360 457.33 460.21 10.69
6046 88.5490 458.44 459.14 10.71
6047 88.5620 468.02 458.00 10.82
6048 88.5750 461.18 456.80 10.74
6049 88.5880 455.61 455.54 10.67
6050 88.6010 458.55 454.25 10.71
6051 88.6140 435.35 452.92 10.43
6052 88.6270 451.78 451.58 10.63
6053 88.6400 454.61 450.22 10.66
6054 88.6530 461.91 448.86 10.75
6055 88.6660 459.41 447.50 10.72
6056 88.6790 445.86 446.15 10.56
6057 88.6920 457.55 444.82 10.70
6058 88.7050 452.02 443.49 10.63
6059 88.7180 439.82 442.19 10.49
6060 88.7310 429.23 440.91 10.36
6061 88.7440 454.85 439.64 10.66
6062 88.7570 433.90 438.33 10.42
6063 88.7700 449.16 437.11 10.60
6064 88.7830 446.17 435.92 10.56
6065 88.7960 442.22 434.74 10.51
6066 88.8090 461.73 433.58 10.74
6067 88.8220 434.25 432.48 10.42
6068 88.8350 458.04 431.36 10.70
6069 88.8480 452.43 430.25 10.64
6070 88.8610 443.36 429.16 10.53
6071 88.8740 454.42 428.08 10.66
6072 88.8870 436.88 427.03 10.45
6073 88.9000 444.84 425.98 10.55
6074 88.9130 440.43 424.96 10.49
6075 88.9260 444.79 423.95 10.55
6076 88.9390 437.14 422.97 10.45
6077 88.9520 444.06 422.01 10.54
6078 88.9650 429.13 421.07 10.36
6079 88.9780 433.11 420.16 10.41
6080 88.9910 424.30 419.29 10.30
6081 89.0040 425.10 418.45 10.31
6082 89.0170 449.30 417.65 10.60
6083 89.0300 434.82 416.89 10.43
6084 89.0430 432.85 416.18 10.40
6085 89.0560 419.24 415.51 10.24
6086 89.0690 429.45 414.91 10.36
6087 89.0820 432.36 414.35 10.40
6088 89.0950 439.49 413.86 10.48
6089 89.1080 427.40 413.44 10.34
6090 89.1210 430.12 413.08 10.37
6091 89.1340 417.38 412.79 10.21
6092 89.1470 432.57 412.58 10.40
6093 89.1600 429.05 412.43 10.36
6094 89.1730 433.39 412.37 10.41
6095 89.1860 417.60 412.38 10.22
6096 89.1990 430.58 412.46 10.38
6097 89.2120 427.98 412.63 10.34
6098 89.2250 424.03 412.84 10.30
6099 89.2380 421.47 413.13 10.26
6100 89.2510 425.31 413.53 10.31
6101 89.2640 428.98 413.95 10.36
6102 89.2770 431.76 414.45 10.39
6103 89.2900 428.25 414.97 10.35
6104 89.3030 433.77 415.52 10.41
6105 89.3160 429.85 416.10 10.37
6106 89.3290 420.17 416.70 10.25
6107 89.3420 424.64 417.30 10.30
6108 89.3550 438.13 417.89 10.47
6109 89.3680 431.18 418.38 10.38
6110 89.3810 417.55 418.94 10.22
6111 89.3940 425.18 419.46 10.31
6112 89.4070 434.43 419.94 10.42
6113 89.4200 420.69 420.38 10.26
6114 89.4330 424.40 420.77 10.30
6115 89.4460 442.61 421.11 10.52
6116 89.4590 429.33 421.40 10.36
6117 89.4720 417.58 421.65 10.22
6118 89.4850 437.54 421.86 10.46
6119 89.4980 449.71 422.03 10.60
6120 89.5110 435.71 422.19 10.44
6121 89.5240 426.92 422.32 10.33
6122 89.5370 431.17 422.43 10.38
6123 89.5500 432.05 422.55 10.39
6124 89.5630 428.37 422.67 10.35
6125 89.5760 433.41 422.82 10.41
6126 89.5890 436.74 422.99 10.45
6127 89.6020 428.48 423.21 10.35
6128 89.6150 435.05 423.48 10.43
6129 89.6280 439.41 423.80 10.48
6130 89.6410 435.23 424.19 10.43
6131 89.6540 426.83 424.65 10.33
6132 89.6670 427.02 425.18 10.33
6133 89.6800 433.93 425.79 10.42
6134 89.6930 432.93 426.46 10.40
6135 89.7060 422.42 427.20 10.28
6136 89.7190 422.91 428.02 10.28
6137 89.7320 434.87 428.88 10.43
6138 89.7450 437.38 429.78 10.46
6139 89.7580 429.06 430.72 10.36
6140 89.7710 437.20 431.68 10.45
6141 89.7840 432.06 432.64 10.39
6142 89.7970 433.97 433.59 10.42
6143 89.8100 439.90 434.50 10.49
6144 89.8230 434.47 435.36 10.42
6145 89.8360 432.31 436.17 10.40
6146 89.8490 431.63 436.89 10.39
6147 89.8620 447.97 437.51 10.58
6148 89.8750 456.36 438.04 10.68
6149 89.8880 444.60 438.45 10.54
6150 89.9010 424.72 438.75 10.30
6151 89.9140 435.14 438.92 10.43
6152 89.9270 445.07 438.97 10.55
6153 89.9400 442.21 438.90 10.51
6154 89.9530 432.83 438.72 10.40
6155 89.9660 443.66 438.42 10.53
6156 89.9790 435.35 438.01 10.43
6157 89.9920 463.04 437.51 10.76
6158 90.0050 444.69 436.93 10.54
6159 90.0180 441.31 436.27 10.50
6160 90.0310 437.12 435.54 10.45
6161 90.0440 412.73 434.76 10.16
6162 90.0570 432.09 433.95 10.39
6163 90.0700 424.84 433.10 10.31
6164 90.0830 445.83 432.24 10.56
6165 90.0960 448.20 431.37 10.59
6166 90.1090 432.21 430.51 10.39
6167 90.1220 428.01 429.68 10.34
6168 90.1350 436.66 428.87 10.45
6169 90.1480 426.96 428.10 10.33
6170 90.1610 446.86 427.39 10.57
6171 90.1740 447.50 426.73 10.58
6172 90.1870 431.84 426.15 10.39
6173 90.2000 445.33 425.64 10.55
6174 90.2130 439.98 425.21 10.49
6175 90.2260 435.36 424.87 10.43
6176 90.2390 427.73 424.62 10.34
6177 90.2520 440.95 424.46 10.50
6178 90.2650 455.85 424.41 10.68
6179 90.2780 450.68 424.45 10.61
6180 90.2910 442.58 424.58 10.52
6181 90.3040 451.61 424.82 10.63
6182 90.3170 455.80 425.15 10.67
6183 90.3300 465.92 425.57 10.79
6184 90.3430 449.07 426.08 10.60
6185 90.3560 441.36 426.68 10.50
6186 90.3690 452.86 427.34 10.64
6187 90.3820 464.96 428.05 10.78
6188 90.3950 455.00 428.81 10.67
6189 90.4080 454.10 429.61 10.65
6190 90.4210 439.14 430.44 10.48
6191 90.4340 454.48 431.27 10.66
6192 90.4470 460.19 432.10 10.73
6193 90.4600 473.71 432.92 10.88
6194 90.4730 466.80 433.69 10.80
6195 90.4860 470.44 434.42 10.84
6196 90.4990 470.84 435.09 10.85
6197 90.5120 468.53 435.68 10.82
6198 90.5250 480.28 436.20 10.96
6199 90.5380 482.69 436.62 10.99
6200 90.5510 482.93 436.95 10.99
6201 90.5640 480.28 437.18 10.96
6202 90.5770 490.57 437.31 11.07
6203 90.5900 482.56 437.34 10.98
6204 90.6030 476.56 437.26 10.92
6205 90.6160 476.67 437.09 10.92
6206 90.6290 471.11 436.84 10.85
6207 90.6420 472.37 436.50 10.87
6208 90.6550 480.01 436.08 10.95
6209 90.6680 488.41 435.59 11.05
6210 90.6810 479.60 435.04 10.95
6211 90.6940 467.13 434.44 10.81
6212 90.7070 453.32 433.80 10.65
6213 90.7200 449.27 433.08 10.60
6214 90.7330 455.23 432.38 10.67
6215 90.7460 457.41 431.67 10.69
6216 90.7590 465.82 430.96 10.79
6217 90.7720 468.48 430.26 10.82
6218 90.7850 461.04 429.58 10.74
6219 90.7980 460.79 428.92 10.73
6220 90.8110 458.77 428.32 10.71
6221 90.8240 450.61 427.76 10.61
6222 90.8370 460.39 427.26 10.73
6223 90.8500 464.07 426.84 10.77
6224 90.8630 456.33 426.49 10.68
6225 90.8760 462.76 426.24 10.76
6226 90.8890 457.49 426.09 10.69
6227 90.9020 448.18 426.04 10.59
6228 90.9150 438.55 426.10 10.47
6229 90.9280 443.83 426.29 10.53
6230 90.9410 443.63 426.60 10.53
6231 90.9540 439.57 427.03 10.48
6232 90.9670 443.10 427.60 10.52
6233 90.9800 451.60 428.30 10.63
6234 90.9930 447.26 429.13 10.57
6235 91.0060 457.74 430.09 10.70
6236 91.0190 455.85 431.17 10.68
6237 91.0320 449.43 432.37 10.60
6238 91.0450 449.55 433.68 10.60
6239 91.0580 452.89 435.09 10.64
6240 91.0710 457.24 436.58 10.69
6241 91.0840 452.71 438.14 10.64
6242 91.0970 459.62 439.77 10.72
6243 91.1100 468.19 441.43 10.82
6244 91.1230 462.23 443.12 10.75
6245 91.1360 444.83 444.81 10.55
6246 91.1490 459.62 446.46 10.72
6247 91.1620 467.45 448.11 10.81
6248 91.1750 472.17 449.71 10.86
6249 91.1880 463.61 451.25 10.77
6250 91.2010 472.43 452.72 10.87
6251 91.2140 453.77 454.11 10.65
6252 91.2270 475.02 455.40 10.90
6253 91.2400 477.08 456.60 10.92
6254 91.2530 458.97 457.67 10.71
6255 91.2660 471.00 458.67 10.85
6256 91.2790 467.16 459.56 10.81
6257 91.2920 465.54 460.36 10.79
6258 91.3050 473.96 461.07 10.89
6259 91.3180 471.36 461.67 10.86
6260 91.3310 472.26 462.19 10.87
6261 91.3440 470.33 462.63 10.84
6262 91.3570 484.49 463.00 11.01
6263 91.3700 468.33 463.31 10.82
6264 91.3830 484.35 463.57 11.00
6265 91.3960 460.48 463.79 10.73
6266 91.4090 460.22 463.99 10.73
6267 91.4220 487.39 464.19 11.04
6268 91.4350 471.80 464.39 10.86
6269 91.4480 465.83 464.61 10.79
6270 91.4610 461.60 464.88 10.74
6271 91.4740 470.69 465.19 10.85
6272 91.4870 479.38 465.58 10.95
6273 91.5000 470.28 466.05 10.84
6274 91.5130 476.55 466.61 10.91
6275 91.5260 485.35 467.25 11.02
6276 91.5390 477.97 468.02 10.93
6277 91.5520 500.17 468.91 11.18
6278 91.5650 476.92 469.91 10.92
6279 91.5780 469.34 471.02 10.83
6280 91.5910 474.24 472.23 10.89
6281 91.6040 475.87 473.53 10.91
6282 91.6170 489.73 474.91 11.06
6283 91.6300 482.25 476.35 10.98
6284 91.6430 468.35 477.83 10.82
6285 91.6560 460.41 479.33 10.73
6286 91.6690 460.48 480.82 10.73
6287 91.6820 464.59 482.30 10.78
6288 91.6950 480.68 483.69 10.96
6289 91.7080 483.24 485.01 10.99
6290 91.7210 487.14 486.22 11.04
6291 91.7340 478.46 487.32 10.94
6292 91.7470 483.28 488.28 10.99
6293 91.7600 495.67 489.08 11.13
6294 91.7730 484.23 489.73 11.00
6295 91.7860 487.57 490.22 11.04
6296 91.7990 479.79 490.55 10.95
6297 91.8120 512.54 490.70 11.32
6298 91.8250 497.87 490.70 11.16
6299 91.8380 480.87 490.51 10.96
6300 91.8510 487.15 490.23 11.04
6301 91.8640 491.17 489.81 11.08
6302 91.8770 498.34 489.28 11.16
6303 91.8900 475.70 488.65 10.91
6304 91.9030 482.29 487.93 10.98
6305 91.9160 476.53 487.15 10.91
6306 91.9290 476.79 486.31 10.92
6307 91.9420 495.90 485.43 11.13
6308 91.9550 494.41 484.53 11.12
6309 91.9680 491.69 483.63 11.09
6310 91.9810 481.20 482.75 10.97
6311 91.9940 465.77 481.90 10.79
6312 92.0070 469.93 481.10 10.84
6313 92.0200 487.89 480.38 11.04
6314 92.0330 486.74 479.75 11.03
6315 92.0460 494.18 479.24 11.12
6316 92.0590 510.33 478.86 11.30
6317 92.0720 491.58 478.64 11.09
6318 92.0850 471.50 478.60 10.86
6319 92.0980 473.09 478.76 10.88
6320 92.1110 483.55 479.14 10.99
6321 92.1240 499.57 479.76 11.18
6322 92.1370 503.36 480.67 11.22
6323 92.1500 499.18 481.82 11.17
6324 92.1630 493.83 483.24 11.11
6325 92.1760 495.71 484.95 11.13
6326 92.1890 501.76 486.96 11.20
6327 92.2020 498.67 489.26 11.17
6328 92.2150 501.88 491.85 11.20
6329 92.2280 499.87 494.71 11.18
6330 92.2410 505.08 497.83 11.24
6331 92.2540 500.94 501.19 11.19
6332 92.2670 501.24 504.78 11.19
6333 92.2800 508.13 508.54 11.27
6334 92.2930 534.14 512.46 11.56
6335 92.3060 525.42 516.48 11.46
6336 92.3190 524.71 520.60 11.45
6337 92.3320 524.69 524.73 11.45
6338 92.3450 535.32 528.86 11.57
6339 92.3580 545.76 532.93 11.68
6340 92.3710 540.20 536.92 11.62
6341 92.3840 545.46 540.77 11.68
6342 92.3970 549.58 544.47 11.72
6343 92.4100 560.64 547.98 11.84
6344 92.4230 580.13 551.32 12.04
6345 92.4360 572.42 554.39 11.96
6346 92.4490 557.57 557.21 11.81
6347 92.4620 595.07 559.76 12.20
6348 92.4750 612.23 562.09 12.37
6349 92.4880 607.37 564.19 12.32
6350 92.5010 614.25 566.06 12.39
6351 92.5140 621.87 567.72 12.47
6352 92.5270 612.79 569.20 12.38
6353 92.5400 623.08 570.53 12.48
6354 92.5530 617.77 571.72 12.43
6355 92.5660 633.32 572.82 12.58
6356 92.5790 631.62 573.84 12.57
6357 92.5920 596.49 574.84 12.21
6358 92.6050 617.60 575.83 12.43
6359 92.6180 599.99 576.84 12.25
6360 92.6310 608.22 577.89 12.33
6361 92.6440 594.33 579.00 12.19
6362 92.6570 595.13 580.19 12.20
6363 92.6700 592.96 581.46 12.18
6364 92.6830 586.99 582.81 12.11
6365 92.6960 570.43 584.24 11.94
6366 92.7090 568.58 585.72 11.92
6367 92.7220 581.41 587.24 12.06
6368 92.7350 575.19 588.77 11.99
6369 92.7480 562.32 590.28 11.86
6370 92.7610 554.87 591.72 11.78
6371 92.7740 554.19 593.06 11.77
6372 92.7870 568.73 594.27 11.92
6373 92.8000 571.64 595.28 11.95
6374 92.8130 553.57 596.05 11.76
6375 92.8260 543.39 596.56 11.66
6376 92.8390 530.73 596.77 11.52
6377 92.8520 527.24 596.64 11.48
6378 92.8650 553.25 596.16 11.76
6379 92.8780 541.23 595.31 11.63
6380 92.8910 544.82 594.08 11.67
6381 92.9040 561.48 592.47 11.85
6382 92.9170 546.01 590.48 11.68
6383 92.9300 551.17 588.11 11.74
6384 92.9430 540.03 585.40 11.62
6385 92.9560 532.95 582.34 11.54
6386 92.9690 536.96 578.97 11.59
6387 92.9820 538.41 575.31 11.60
6388 92.9950 525.41 571.43 11.46
6389 93.0080 529.22 567.25 11.50
6390 93.0210 527.66 562.91 11.49
6391 93.0340 543.64 558.42 11.66
6392 93.0470 541.03 553.80 11.63
6393 93.0600 518.14 549.09 11.38
6394 93.0730 509.64 544.33 11.29
6395 93.0860 514.90 539.54 11.35
6396 93.0990 520.46 534.76 11.41
6397 93.1120 510.46 530.03 11.30
6398 93.1250 493.46 525.37 11.11
6399 93.1380 502.71 520.82 11.21
6400 93.1510 498.18 516.39 11.16
6401 93.1640 496.47 512.11 11.14
6402 93.1770 486.99 508.02 11.03
6403 93.1900 490.87 504.11 11.08
6404 93.2030 490.74 500.44 11.08
6405 93.2160 494.22 496.99 11.12
6406 93.2290 487.24 493.80 11.04
6407 93.2420 475.29 490.88 10.90
6408 93.2550 470.39 488.22 10.84
6409 93.2680 473.54 485.85 10.88
6410 93.2810 475.37 483.75 10.90
6411 93.2940 482.85 481.95 10.99
6412 93.3070 480.52 480.42 10.96
6413 93.3200 464.35 479.18 10.77
6414 93.3330 460.20 478.20 10.73
6415 93.3460 474.02 477.50 10.89
6416 93.3590 480.21 477.04 10.96
6417 93.3720 468.95 476.82 10.83
6418 93.3850 463.93 476.82 10.77
6419 93.3980 461.14 477.02 10.74
6420 93.4110 463.81 477.36 10.77
6421 93.4240 465.80 477.88 10.79
6422 93.4370 468.11 478.52 10.82
6423 93.4500 469.82 479.25 10.84
6424 93.4630 448.11 480.04 10.58
6425 93.4760 457.48 480.87 10.69
6426 93.4890 479.21 481.71 10.95
6427 93.5020 469.82 482.53 10.84
6428 93.5150 468.92 483.30 10.83
6429 93.5280 469.70 484.00 10.84
6430 93.5410 464.50 484.61 10.78
6431 93.5540 459.59 485.11 10.72
6432 93.5670 473.40 485.49 10.88
6433 93.5800 469.08 485.74 10.83
6434 93.5930 466.22 485.85 10.80
6435 93.6060 470.62 485.82 10.85
6436 93.6190 481.01 485.65 10.97
6437 93.6320 475.88 485.34 10.91
6438 93.6450 469.95 484.89 10.84
6439 93.6580 469.55 484.24 10.83
6440 93.6710 469.21 483.54 10.83
6441 93.6840 477.68 482.72 10.93
6442 93.6970 474.36 481.80 10.89
6443 93.7100 476.18 480.79 10.91
6444 93.7230 469.19 479.70 10.83
6445 93.7360 469.17 478.54 10.83
6446 93.7490 476.27 477.32 10.91
6447 93.7620 452.17 476.08 10.63
6448 93.7750 480.86 474.80 10.96
6449 93.7880 467.76 473.52 10.81
6450 93.8010 470.09 472.23 10.84
6451 93.8140 468.56 470.96 10.82
6452 93.8270 458.93 469.72 10.71
6453 93.8400 469.22 468.51 10.83
6454 93.8530 466.24 467.34 10.80
6455 93.8660 458.99 466.24 10.71
6456 93.8790 464.44 465.20 10.78
6457 93.8920 451.54 464.24 10.62
6458 93.9050 457.39 463.38 10.69
6459 93.9180 457.62 462.59 10.70
6460 93.9310 451.99 461.89 10.63
6461 93.9440 471.70 461.30 10.86
6462 93.9570 444.33 460.80 10.54
6463 93.9700 460.64 460.42 10.73
6464 93.9830 448.22 460.14 10.59
6465 93.9960 461.37 459.97 10.74
6466 94.0090 463.81 459.92 10.77
6467 94.0220 457.76 459.97 10.70
6468 94.0350 447.25 460.14 10.57
6469 94.0480 467.21 460.41 10.81
6470 94.0610 448.89 460.80 10.59
6471 94.0740 446.05 461.30 10.56
6472 94.0870 463.75 461.91 10.77
6473 94.1000 449.81 462.63 10.60
6474 94.1130 451.87 463.46 10.63
6475 94.1260 462.85 464.41 10.76
6476 94.1390 454.17 465.46 10.66
6477 94.1520 457.20 466.63 10.69
6478 94.1650 452.25 467.92 10.63
6479 94.1780 457.17 469.32 10.69
6480 94.1910 448.38 470.85 10.59
6481 94.2040 469.56 472.50 10.83
6482 94.2170 477.96 474.25 10.93
6483 94.2300 468.61 476.15 10.82
6484 94.2430 486.64 478.18 11.03
6485 94.2560 466.80 480.36 10.80
6486 94.2690 477.30 482.63 10.92
6487 94.2820 491.99 485.03 11.09
6488 94.2950 472.53 487.54 10.87
6489 94.3080 465.89 490.16 10.79
6490 94.3210 459.95 492.88 10.72
6491 94.3340 461.25 495.69 10.74
6492 94.3470 476.71 498.63 10.92
6493 94.3600 474.51 501.58 10.89
6494 94.3730 481.74 504.58 10.97
6495 94.3860 479.17 507.61 10.94
6496 94.3990 490.29 510.66 11.07
6497 94.4120 495.55 513.71 11.13
6498 94.4250 485.57 516.73 11.02
6499 94.4380 486.44 519.71 11.03
6500 94.4510 492.33 522.63 11.09
6501 94.4640 497.43 525.46 11.15
6502 94.4770 495.63 528.19 11.13
6503 94.4900 488.68 530.79 11.05
6504 94.5030 513.03 533.24 11.33
6505 94.5160 510.31 535.54 11.30
6506 94.5290 499.10 537.66 11.17
6507 94.5420 511.61 539.59 11.31
6508 94.5550 524.37 541.32 11.45
6509 94.5680 521.20 542.86 11.41
6510 94.5810 518.74 544.18 11.39
6511 94.5940 527.08 545.31 11.48
6512 94.6070 540.89 546.23 11.63
6513 94.6200 525.32 546.96 11.46
6514 94.6330 511.14 547.51 11.30
6515 94.6460 503.56 547.89 11.22
6516 94.6590 507.43 548.12 11.26
6517 94.6720 497.75 548.22 11.16
6518 94.6850 500.54 548.18 11.19
6519 94.6980 521.40 548.03 11.42
6520 94.7110 510.59 547.80 11.30
6521 94.7240 499.59 547.49 11.18
6522 94.7370 506.61 547.11 11.25
6523 94.7500 511.82 546.69 11.31
6524 94.7630 506.53 546.17 11.25
6525 94.7760 499.60 545.66 11.18
6526 94.7890 502.06 545.12 11.20
6527 94.8020 501.31 544.55 11.19
6528 94.8150 500.14 543.95 11.18
6529 94.8280 509.57 543.31 11.29
6530 94.8410 501.29 542.63 11.19
6531 94.8540 491.36 541.91 11.08
6532 94.8670 495.36 541.13 11.13
6533 94.8800 505.41 540.29 11.24
6534 94.8930 506.36 539.38 11.25
6535 94.9060 512.73 538.39 11.32
6536 94.9190 513.77 537.33 11.33
6537 94.9320 510.21 536.17 11.29
6538 94.9450 521.59 534.93 11.42
6539 94.9580 510.87 533.59 11.30
6540 94.9710 504.15 532.15 11.23
6541 94.9840 505.10 530.62 11.24
6542 94.9970 506.35 529.01 11.25
6543 95.0100 512.58 527.30 11.32
6544 95.0230 501.15 525.51 11.19
6545 95.0360 498.79 523.65 11.17
6546 95.0490 491.72 521.72 11.09
6547 95.0620 509.55 519.73 11.29
6548 95.0750 511.17 517.69 11.30
6549 95.0880 512.03 515.60 11.31
6550 95.1010 475.73 513.49 10.91
6551 95.1140 489.42 511.35 11.06
6552 95.1270 489.30 509.21 11.06
6553 95.1400 495.04 507.06 11.12
6554 95.1530 493.57 504.92 11.11
6555 95.1660 490.55 502.80 11.07
6556 95.1790 486.50 500.71 11.03
6557 95.1920 486.57 498.66 11.03
6558 95.2050 487.57 496.65 11.04
6559 95.2180 490.03 494.69 11.07
6560 95.2310 477.12 492.80 10.92
6561 95.2440 486.09 490.97 11.02
6562 95.2570 474.39 489.22 10.89
6563 95.2700 474.84 487.53 10.90
6564 95.2830 459.57 485.94 10.72
6565 95.2960 464.69 484.44 10.78
6566 95.3090 468.23 483.02 10.82
6567 95.3220 468.38 481.67 10.82
6568 95.3350 488.60 480.46 11.05
6569 95.3480 480.92 479.35 10.97
6570 95.3610 473.01 478.33 10.87
6571 95.3740 479.44 477.42 10.95
6572 95.3870 468.72 476.62 10.82
6573 95.4000 477.24 475.92 10.92
6574 95.4130 467.18 475.34 10.81
6575 95.4260 465.80 474.87 10.79
6576 95.4390 467.64 474.50 10.81
6577 95.4520 459.61 474.25 10.72
6578 95.4650 464.30 474.11 10.77
6579 95.4780 475.46 474.08 10.90
6580 95.4910 474.70 474.15 10.89
6581 95.5040 478.07 474.34 10.93
6582 95.5170 476.96 474.62 10.92
6583 95.5300 481.33 475.01 10.97
6584 95.5430 468.22 475.50 10.82
6585 95.5560 454.08 476.09 10.65
6586 95.5690 468.84 476.76 10.83
6587 95.5820 477.41 477.52 10.92
6588 95.5950 477.89 478.37 10.93
6589 95.6080 491.15 479.29 11.08
6590 95.6210 489.24 480.28 11.06
6591 95.6340 484.83 481.34 11.01
6592 95.6470 484.00 482.47 11.00
6593 95.6600 480.33 483.66 10.96
6594 95.6730 476.58 484.92 10.92
6595 95.6860 477.63 486.24 10.93
6596 95.6990 485.68 487.62 11.02
6597 95.7120 480.38 489.08 10.96
6598 95.7250 495.39 490.61 11.13
6599 95.7380 496.55 492.23 11.14
6600 95.7510 482.66 493.94 10.98
6601 95.7640 491.44 495.76 11.08
6602 95.7770 487.60 497.70 11.04
6603 95.7900 490.74 499.76 11.08
6604 95.8030 492.02 501.97 11.09
6605 95.8160 512.64 504.33 11.32
6606 95.8290 508.98 506.87 11.28
6607 95.8420 502.88 509.59 11.21
6608 95.8550 509.86 512.51 11.29
6609 95.8680 523.99 515.63 11.45
6610 95.8810 528.04 518.96 11.49
6611 95.8940 530.11 522.50 11.51
6612 95.9070 543.26 526.24 11.65
6613 95.9200 551.76 530.19 11.74
6614 95.9330 556.13 534.34 11.79
6615 95.9460 563.38 538.66 11.87
6616 95.9590 561.75 543.15 11.85
6617 95.9720 564.96 547.78 11.88
6618 95.9850 578.72 552.54 12.03
6619 95.9980 579.72 557.38 12.04
6620 96.0110 583.83 562.29 12.08
6621 96.0240 599.55 567.22 12.24
6622 96.0370 603.71 572.16 12.29
6623 96.0500 600.42 577.05 12.25
6624 96.0630 614.13 581.86 12.39
6625 96.0760 636.68 586.57 12.62
6626 96.0890 638.39 591.13 12.63
6627 96.1020 637.76 595.51 12.63
6628 96.1150 631.24 599.68 12.56
6629 96.1280 618.68 603.62 12.44
6630 96.1410 630.99 607.29 12.56
6631 96.1540 636.25 610.66 12.61
6632 96.1670 630.08 613.73 12.55
6633 96.1800 615.35 616.48 12.40
6634 96.1930 606.15 618.89 12.31
6635 96.2060 606.08 620.96 12.31
6636 96.2190 621.02 622.67 12.46
6637 96.2320 621.36 624.02 12.46
6638 96.2450 598.67 625.02 12.23
6639 96.2580 591.96 625.66 12.17
6640 96.2710 590.98 625.95 12.16
6641 96.2840 588.95 625.89 12.13
6642 96.2970 594.83 625.48 12.19
6643 96.3100 588.95 624.75 12.13
6644 96.3230 591.96 623.70 12.17
6645 96.3360 588.47 622.34 12.13
6646 96.3490 585.25 620.70 12.10
6647 96.3620 588.29 618.78 12.13
6648 96.3750 588.61 616.60 12.13
6649 96.3880 574.32 614.20 11.98
6650 96.4010 586.25 611.60 12.11
6651 96.4140 600.77 608.81 12.26
6652 96.4270 567.14 605.88 11.91
6653 96.4400 587.91 602.82 12.12
6654 96.4530 579.59 599.66 12.04
6655 96.4660 574.26 596.47 11.98
6656 96.4790 572.79 593.24 11.97
6657 96.4920 584.59 590.02 12.09
6658 96.5050 562.82 586.83 11.86
6659 96.5180 543.01 583.71 11.65
6660 96.5310 569.99 580.67 11.94
6661 96.5440 556.41 577.75 11.79
6662 96.5570 528.59 574.96 11.50
6663 96.5700 537.04 572.32 11.59
6664 96.5830 533.10 569.84 11.54
6665 96.5960 514.59 567.53 11.34
6666 96.6090 527.88 565.39 11.49
6667 96.6220 522.02 563.44 11.42
6668 96.6350 560.08 561.66 11.83
6669 96.6480 544.82 560.04 11.67
6670 96.6610 521.05 558.59 11.41
6671 96.6740 526.99 557.27 11.48
6672 96.6870 506.99 556.08 11.26
6673 96.7000 504.80 554.99 11.23
6674 96.7130 541.07 553.99 11.63
6675 96.7260 531.23 553.05 11.52
6676 96.7390 534.07 552.15 11.56
6677 96.7520 528.15 551.27 11.49
6678 96.7650 511.96 550.39 11.31
6679 96.7780 535.10 549.50 11.57
6680 96.7910 542.03 548.57 11.64
6681 96.8040 560.04 547.59 11.83
6682 96.8170 550.45 546.57 11.73
6683 96.8300 534.28 545.49 11.56
6684 96.8430 539.86 544.36 11.62
6685 96.8560 538.64 543.18 11.60
6686 96.8690 540.80 541.96 11.63
6687 96.8820 534.12 540.71 11.56
6688 96.8950 550.39 539.43 11.73
6689 96.9080 532.08 538.16 11.53
6690 96.9210 535.76 536.89 11.57
6691 96.9340 527.96 535.66 11.49
6692 96.9470 522.15 534.50 11.43
6693 96.9600 521.06 533.41 11.41
6694 96.9730 532.75 532.41 11.54
6695 96.9860 538.91 531.54 11.61
6696 96.9990 547.31 530.82 11.70
6697 97.0120 543.41 530.26 11.66
6698 97.0250 534.80 529.88 11.56
6699 97.0380 519.00 529.70 11.39
6700 97.0510 532.57 529.73 11.54
6701 97.0640 519.25 529.98 11.39
6702 97.0770 514.05 530.45 11.34
6703 97.0900 525.11 531.15 11.46
6704 97.1030 530.84 532.08 11.52
6705 97.1160 537.45 533.23 11.59
6706 97.1290 530.74 534.59 11.52
6707 97.1420 523.58 536.15 11.44
6708 97.1550 527.39 537.90 11.48
6709 97.1680 544.22 539.78 11.66
6710 97.1810 556.42 541.79 11.79
6711 97.1940 565.97 543.89 11.90
6712 97.2070 568.83 546.06 11.93
6713 97.2200 543.53 548.25 11.66
6714 97.2330 535.25 550.43 11.57
6715 97.2460 544.39 552.58 11.67
6716 97.2590 555.63 554.65 11.79
6717 97.2720 570.02 556.61 11.94
6718 97.2850 557.15 558.45 11.80
6719 97.2980 563.06 560.12 11.86
6720 97.3110 576.21 561.61 12.00
6721 97.3240 575.15 562.91 11.99
6722 97.3370 599.58 564.00 12.24
6723 97.3500 597.78 564.87 12.22
6724 97.3630 581.75 565.53 12.06
6725 97.3760 576.41 565.96 12.00
6726 97.3890 578.49 566.17 12.03
6727 97.4020 596.43 566.16 12.21
6728 97.4150 593.50 565.95 12.18
6729 97.4280 586.43 565.55 12.11
6730 97.4410 567.26 564.95 11.91
6731 97.4540 542.17 564.18 11.64
6732 97.4670 534.92 563.25 11.56
6733 97.4800 547.09 562.16 11.69
6734 97.4930 548.07 560.94 11.71
6735 97.5060 554.80 559.58 11.78
6736 97.5190 543.72 558.11 11.66
6737 97.5320 542.23 556.53 11.64
6738 97.5450 545.67 554.85 11.68
6739 97.5580 530.60 553.09 11.52
6740 97.5710 540.08 551.25 11.62
6741 97.5840 517.65 549.33 11.38
6742 97.5970 506.07 547.36 11.25
6743 97.6100 527.16 545.33 11.48
6744 97.6230 535.19 543.26 11.57
6745 97.6360 527.83 541.14 11.49
6746 97.6490 507.27 538.99 11.26
6747 97.6620 516.63 536.80 11.36
6748 97.6750 504.10 534.60 11.23
6749 97.6880 516.44 532.38 11.36
6750 97.7010 511.73 530.15 11.31
6751 97.7140 509.59 527.91 11.29
6752 97.7270 514.78 525.66 11.34
6753 97.7400 512.41 523.42 11.32
6754 97.7530 513.16 521.18 11.33
6755 97.7660 486.99 518.94 11.03
6756 97.7790 511.98 516.71 11.31
6757 97.7920 507.28 514.50 11.26
6758 97.8050 490.92 512.30 11.08
6759 97.8180 505.25 510.13 11.24
6760 97.8310 488.28 507.98 11.05
6761 97.8440 505.54 505.87 11.24
6762 97.8570 504.64 503.79 11.23
6763 97.8700 511.40 501.75 11.31
6764 97.8830 493.50 499.76 11.11
6765 97.8960 484.58 497.81 11.01
6766 97.9090 488.58 495.92 11.05
6767 97.9220 477.68 494.10 10.93
6768 97.9350 485.90 492.33 11.02
6769 97.9480 469.96 490.63 10.84
6770 97.9610 477.64 489.00 10.93
6771 97.9740 470.90 487.45 10.85
6772 97.9870 494.66 485.97 11.12
6773 98.0000 477.49 484.58 10.93
6774 98.0130 470.17 483.27 10.84
6775 98.0260 474.84 482.03 10.90
6776 98.0390 473.09 480.88 10.88
6777 98.0520 479.39 479.81 10.95
6778 98.0650 482.05 478.82 10.98
6779 98.0780 456.80 477.91 10.69
6780 98.0910 465.29 477.08 10.79
6781 98.1040 471.92 476.34 10.86
6782 98.1170 479.45 475.67 10.95
6783 98.1300 473.60 475.07 10.88
6784 98.1430 458.29 474.55 10.70
6785 98.1560 472.51 474.11 10.87
6786 98.1690 475.86 473.74 10.91
6787 98.1820 477.70 473.43 10.93
6788 98.1950 475.91 473.20 10.91
6789 98.2080 475.30 473.04 10.90
6790 98.2210 476.68 472.94 10.92
6791 98.2340 475.39 472.91 10.90
6792 98.2470 472.41 472.95 10.87
6793 98.2600 473.33 473.06 10.88
6794 98.2730 474.73 473.23 10.89
6795 98.2860 457.54 473.46 10.70
6796 98.2990 451.12 473.76 10.62
6797 98.3120 470.94 474.11 10.85
6798 98.3250 478.86 474.53 10.94
6799 98.3380 470.15 475.00 10.84
6800 98.3510 481.29 475.53 10.97
6801 98.3640 483.11 476.10 10.99
6802 98.3770 471.20 476.71 10.85
6803 98.3900 466.07 477.37 10.79
6804 98.4030 471.01 478.04 10.85
6805 98.4160 466.65 478.74 10.80
6806 98.4290 456.17 479.44 10.68
6807 98.4420 469.85 480.16 10.84
6808 98.4550 468.71 480.88 10.82
6809 98.4680 484.60 481.58 11.01
6810 98.4810 487.76 482.25 11.04
6811 98.4940 472.62 482.89 10.87
6812 98.5070 480.83 483.48 10.96
6813 98.5200 473.32 484.01 10.88
6814 98.5330 460.92 484.49 10.73
6815 98.5460 468.33 484.89 10.82
6816 98.5590 474.11 485.22 10.89
6817 98.5720 469.20 485.46 10.83
6818 98.5850 465.93 485.63 10.79
6819 98.5980 456.70 485.70 10.69
6820 98.6110 452.03 485.68 10.63
6821 98.6240 478.57 485.58 10.94
6822 98.6370 487.13 485.39 11.04
6823 98.6500 464.32 485.10 10.77
6824 98.6630 465.30 484.73 10.79
6825 98.6760 472.30 484.30 10.87
6826 98.6890 465.97 483.78 10.79
6827 98.7020 468.24 483.20 10.82
6828 98.7150 464.14 482.56 10.77
6829 98.7280 457.16 481.86 10.69
6830 98.7410 466.00 481.10 10.79
6831 98.7540 473.04 480.30 10.87
6832 98.7670 475.45 479.48 10.90
6833 98.7800 473.51 478.61 10.88
6834 98.7930 470.67 477.70 10.85
6835 98.8060 470.83 476.78 10.85
6836 98.8190 470.07 475.83 10.84
6837 98.8320 475.19 474.87 10.90
6838 98.8450 475.52 473.90 10.90
6839 98.8580 463.33 472.92 10.76
6840 98.8710 466.82 471.94 10.80
6841 98.8840 473.77 470.96 10.88
6842 98.8970 478.27 469.98 10.93
6843 98.9100 482.92 469.02 10.99
6844 98.9230 480.45 468.11 10.96
6845 98.9360 475.44 467.17 10.90
6846 98.9490 474.10 466.25 10.89
6847 98.9620 488.83 465.35 11.05
6848 98.9750 489.76 464.47 11.07
6849 98.9880 479.56 463.62 10.95
6850 99.0010 469.73 462.81 10.84
6851 99.0140 472.04 462.03 10.86
6852 99.0270 471.36 461.25 10.86
6853 99.0400 472.48 460.56 10.87
6854 99.0530 474.91 459.92 10.90
6855 99.0660 472.73 459.33 10.87
6856 99.0790 472.52 458.80 10.87
6857 99.0920 459.26 458.33 10.72
6858 99.1050 458.55 457.93 10.71
6859 99.1180 472.92 457.61 10.87
6860 99.1310 476.48 457.36 10.91
6861 99.1440 490.34 457.18 11.07
6862 99.1570 459.63 457.09 10.72
6863 99.1700 461.59 457.08 10.74
6864 99.1830 469.11 457.16 10.83
6865 99.1960 462.15 457.32 10.75
6866 99.2090 463.77 457.56 10.77
6867 99.2220 460.52 457.88 10.73
6868 99.2350 464.96 458.27 10.78
6869 99.2480 458.80 458.75 10.71
6870 99.2610 467.04 459.29 10.81
6871 99.2740 458.47 459.89 10.71
6872 99.2870 474.51 460.55 10.89
6873 99.3000 475.25 461.25 10.90
6874 99.3130 482.88 462.00 10.99
6875 99.3260 477.89 462.78 10.93
6876 99.3390 467.39 463.58 10.81
6877 99.3520 459.85 464.38 10.72
6878 99.3650 456.67 465.20 10.68
6879 99.3780 474.95 466.01 10.90
6880 99.3910 459.39 466.79 10.72
6881 99.4040 480.18 467.55 10.96
6882 99.4170 482.71 468.27 10.99
6883 99.4300 465.76 468.94 10.79
6884 99.4430 478.13 469.56 10.93
6885 99.4560 479.35 470.10 10.95
6886 99.4690 467.15 470.58 10.81
6887 99.4820 469.95 470.97 10.84
6888 99.4950 490.19 471.29 11.07
6889 99.5080 500.43 471.51 11.19
6890 99.5210 490.82 471.64 11.08
6891 99.5340 494.41 471.68 11.12
6892 99.5470 490.52 471.62 11.07
6893 99.5600 488.46 471.48 11.05
6894 99.5730 485.90 471.24 11.02
6895 99.5860 498.83 470.92 11.17
6896 99.5990 502.37 470.51 11.21
6897 99.6120 505.46 470.04 11.24
6898 99.6250 524.22 469.50 11.45
6899 99.6380 506.89 468.90 11.26
6900 99.6510 493.60 468.26 11.11
6901 99.6640 495.69 467.60 11.13
6902 99.6770 513.14 466.91 11.33
6903 99.6900 507.05 466.23 11.26
6904 99.7030 492.07 465.58 11.09
6905 99.7160 483.02 464.92 10.99
6906 99.7290 503.91 464.36 11.22
6907 99.7420 521.91 463.85 11.42
6908 99.7550 521.05 463.45 11.41
6909 99.7680 516.68 463.16 11.37
6910 99.7810 524.12 463.00 11.45
6911 99.7940 518.00 462.98 11.38
6912 99.8070 505.09 463.12 11.24
6913 99.8200 490.51 463.39 11.07
6914 99.8330 489.86 463.87 11.07
6915 99.8460 488.15 464.55 11.05
6916 99.8590 494.28 465.42 11.12
6917 99.8720 508.08 466.47 11.27
6918 99.8850 508.40 467.73 11.27
6919 99.8980 527.85 469.17 11.49
6920 99.9110 531.41 470.78 11.53
6921 99.9240 521.02 472.56 11.41
6922 99.9370 510.54 474.47 11.30
loop_
_pd_proc_info_excluded_regions
'from 0 to 10.000'
loop_
_refln_index_h
_refln_index_k
_refln_index_l
_refln_F_squared_calc
_refln_F_squared_meas
_refln_F_squared_sigma
_refln_observed_status
_refln_d_spacing
1 1 0 8706.13 8294.90 169.13 o 7.667344
2 0 0 18669.86 15609.14 317.85 o 7.089765
0 2 0 7059.52 9155.40 199.15 o 4.557417
-1 0 1 16595.37 15987.90 330.00 o 4.271925
3 1 0 925.58 655.85 14.87 o 4.195924
2 2 0 25693.99 26013.71 523.90 o 3.833672
-2 1 1 5453.06 5966.29 119.87 o 3.793700
-3 0 1 6059.49 6397.02 135.62 o 3.778503
0 1 1 56008.86 57546.88 1167.64 o 3.672820
1 0 1 37956.07 37981.29 769.40 o 3.550210
4 0 0 8010.68 7993.68 160.15 o 3.544883
-1 2 1 813.26 829.62 17.76 o 3.116751
-4 1 1 6198.68 6378.53 141.43 o 3.091626
1 3 0 6429.84 6167.40 136.97 o 2.970844
-3 2 1 16296.83 14361.92 293.06 o 2.908790
2 1 1 6587.36 5823.32 121.78 o 2.904116
-5 0 1 167448.58 169593.92 3438.67 o 2.827552
1 2 1 5030.26 4997.55 103.97 o 2.800711
4 2 0 6228.74 6104.87 125.92 o 2.798094
5 1 0 22990.59 18972.14 390.19 o 2.707869
3 0 1 59155.35 63548.41 1308.12 o 2.638231
3 3 0 109774.93 119640.12 2432.93 o 2.555781
-2 3 1 58151.71 50502.89 1026.95 o 2.456070
0 3 1 9915.05 8546.72 179.34 o 2.422340
-5 2 1 3602.02 2930.43 65.91 o 2.402683
6 0 0 13160.96 11244.59 237.22 o 2.363255
-6 1 1 12558.74 10732.02 229.34 o 2.359958
3 2 1 61251.40 55744.91 1147.22 o 2.283254
0 4 0 1692.39 1546.51 33.17 o 2.278708
-4 3 1 15400.01 14891.23 316.96 o 2.230969
4 1 1 9484.50 9274.95 195.06 o 2.220596
2 4 0 14466.07 14711.31 301.02 o 2.169408
2 3 1 48982.70 50575.76 1034.15 o 2.157349
-2 0 2 35984.77 39016.68 802.87 o 2.135963
-7 0 1 43301.05 47389.05 982.19 o 2.132483
6 2 0 15192.18 14781.83 312.14 o 2.097962
-4 0 2 48854.28 47365.73 975.72 o 2.086129
-3 1 2 129.69 125.20 2.58 o 2.078166
5 3 0 10356.15 10753.27 223.84 o 2.073143
-1 1 2 2.18 1.83 0.12 o 2.037657
-1 4 1 7.86 8.52 0.23 o 2.010557
5 0 1 52556.55 57172.23 1182.37 o 2.008879
0 0 2 30471.24 33292.55 684.77 o 2.006519
7 1 0 92.11 127.36 2.99 o 1.977405
-5 1 2 28964.33 30313.29 623.14 o 1.953516
-3 4 1 41573.95 42644.34 877.35 o 1.951327
-2 2 2 57956.45 56958.60 1170.45 o 1.934080
-7 2 1 32133.71 31583.71 645.93 o 1.931495
1 4 1 53.92 55.56 1.26 o 1.917677
4 4 0 0.00 0.00 0.00 o 1.916836
-6 3 1 7932.73 8349.71 181.39 o 1.904002
-4 2 2 4686.08 5092.60 110.97 o 1.896850
-6 0 2 21935.38 24204.93 530.55 o 1.889252
1 1 2 26885.64 25151.53 536.52 o 1.857171
-8 1 1 1761.39 1746.65 37.89 o 1.843426
5 2 1 8277.10 7811.72 172.13 o 1.838219
0 2 2 507.63 474.77 11.01 o 1.836410
4 3 1 9981.79 8983.88 200.72 o 1.828520
1 5 0 16892.30 15821.66 358.45 o 1.808085
2 0 2 2458.29 2056.69 50.24 o 1.775105
-5 4 1 601.13 505.71 12.10 o 1.774259
8 0 0 18137.36 15434.59 373.38 o 1.772441
6 1 1 22380.92 19518.94 407.98 o 1.749243
-3 3 2 24916.35 21888.83 457.33 o 1.746502
-6 2 2 3675.14 3241.38 66.14 o 1.745237
-7 1 2 4911.66 4703.23 99.08 o 1.734690
3 4 1 11521.58 11573.23 248.48 o 1.724503
-1 3 2 11871.97 11801.44 255.49 o 1.722251
3 5 0 1274.49 1157.63 28.04 o 1.700845
7 3 0 43232.20 43228.00 904.80 o 1.685407
-9 0 1 10744.65 10320.53 214.22 o 1.679509
-5 3 2 10822.73 8594.20 184.86 o 1.670542
-2 5 1 2342.24 1859.94 41.06 o 1.670476
0 5 1 17078.62 12988.10 286.33 o 1.659746
2 2 2 515.69 382.48 8.53 o 1.654065
8 2 0 5133.78 3808.58 86.97 o 1.651910
-8 0 2 1647.91 1107.27 35.05 o 1.643225
6 4 0 11.34 6.24 0.29 o 1.640365
3 1 2 273.12 166.72 11.27 o 1.624764
1 3 2 187.69 191.48 4.02 o 1.609089
-8 3 1 40495.83 37590.91 789.33 o 1.600125
7 0 1 767.80 711.97 16.29 o 1.597790
-4 5 1 20633.88 19070.31 400.69 o 1.594144
-9 2 1 5877.09 4987.90 137.71 o 1.575904
2 5 1 3850.64 3578.43 87.82 o 1.566623
-2 4 2 10796.96 10730.20 238.70 o 1.558376
-7 4 1 1921.57 1918.07 41.90 o 1.557023
9 1 0 12449.91 12633.80 282.27 o 1.552482
-8 2 2 3992.91 4300.87 97.36 o 1.545813
-4 4 2 12.62 15.63 0.49 o 1.538702
6 3 1 3000.27 3730.40 86.58 o 1.537359
5 5 0 1582.37 1906.41 40.92 o 1.533469
4 0 2 8222.23 9781.24 224.51 o 1.531893
-7 3 2 13908.37 17469.87 376.53 o 1.527452
0 6 0 34040.25 43936.82 967.48 o 1.519139
7 2 1 3475.45 4378.79 98.55 o 1.507809
5 4 1 1387.00 1726.94 40.21 o 1.506906
0 4 2 3139.91 3882.16 90.38 o 1.505909
-9 1 2 8605.14 10529.25 244.42 o 1.503479
-10 1 1 11255.09 12624.42 308.00 o 1.492737
2 6 0 2938.15 3073.91 84.53 o 1.485422
-6 5 1 3099.97 2005.56 59.71 o 1.461092
-6 4 2 3574.87 2417.36 60.93 o 1.454395
4 2 2 1744.34 1191.41 29.04 o 1.452058
3 3 2 19338.96 13246.97 324.49 o 1.450799
-1 6 1 511.74 761.21 21.42 o 1.431331
8 1 1 836.83 1145.46 27.41 o 1.427669
4 5 1 2024.77 2669.85 59.84 o 1.426137
-3 0 3 3436.08 4247.39 95.85 o 1.423975
10 0 0 56247.49 71671.30 1547.72 o 1.417953
-5 0 3 15307.21 19608.05 417.85 o 1.415465
-10 0 2 10542.98 13473.24 283.39 o 1.413776
-4 1 3 4431.50 5724.21 121.48 o 1.409702
-3 6 1 31.23 40.37 0.98 o 1.409488
5 1 2 11036.85 15018.72 325.49 o 1.403761
2 4 2 4799.95 6248.62 135.84 o 1.400356
8 4 0 7085.16 9120.01 198.75 o 1.399047
9 3 0 258.34 331.96 7.23 o 1.398641
1 6 1 10937.13 13912.04 308.10 o 1.396648
4 6 0 3893.14 4947.13 109.27 o 1.396323
-2 1 3 84.36 97.46 2.56 o 1.390564
-3 5 2 1874.34 1861.70 58.17 o 1.386184
-1 0 3 412.72 265.72 12.29 o 1.377497
-6 1 3 22.60 14.38 0.74 o 1.374841
-11 0 1 2483.71 1578.26 76.30 o 1.375009
-1 5 2 4333.85 2727.82 137.36 o 1.373965
-9 3 2 47.94 47.54 1.36 o 1.362491
-3 2 3 2413.18 2310.86 58.90 o 1.359174
7 5 0 459.73 399.88 9.62 o 1.355039
-7 0 3 5639.82 4898.55 114.32 o 1.354753
-10 3 1 3261.75 2827.00 65.30 o 1.354481
10 2 0 3859.59 3330.77 78.03 o 1.353934
-9 4 1 1505.52 1302.22 29.73 o 1.351968
-5 2 3 6594.67 5713.54 132.90 o 1.351768
-10 2 2 51.54 45.07 1.04 o 1.350297
-5 5 2 19889.03 17799.39 405.41 o 1.347278
-5 6 1 15911.60 16473.41 372.94 o 1.338227
-8 4 2 14860.97 15612.57 361.42 o 1.332824
0 1 3 8086.24 8001.40 186.22 o 1.323502
6 0 2 20083.28 20624.51 473.42 o 1.319115
-1 2 3 2213.13 2277.92 51.56 o 1.318582
9 0 1 4047.85 4170.33 96.45 o 1.318295
3 6 1 528.99 556.13 12.26 o 1.316486
-11 2 1 807.17 850.61 19.01 o 1.316399
1 5 2 10228.20 11018.09 246.75 o 1.314414
-8 5 1 332.73 380.55 9.52 o 1.309514
7 4 1 16402.26 18997.00 433.57 o 1.308233
8 3 1 6261.98 7404.13 167.25 o 1.305310
-11 1 2 1820.92 1961.33 46.61 o 1.299414
-7 2 3 4974.82 5020.89 118.77 o 1.298592
-8 1 3 1345.50 1293.06 31.25 o 1.296756
1 7 0 7.08 6.78 0.41 o 1.296663
-4 3 3 693.76 639.33 14.20 o 1.291535
1 0 3 45456.39 41738.15 949.55 o 1.290306
5 3 2 12545.34 11449.11 258.37 o 1.286961
6 6 0 8946.50 7467.40 161.81 o 1.277891
-2 3 3 34880.91 29114.38 628.13 o 1.276769
11 1 0 4062.28 3385.21 72.19 o 1.276348
6 5 1 12125.58 10104.61 219.54 o 1.274438
4 4 2 11232.88 9403.77 205.55 o 1.271319
-7 5 2 263.42 227.84 5.18 o 1.268777
6 2 2 1376.13 1243.05 28.61 o 1.267105
9 2 1 442.13 413.73 9.17 o 1.266378
-6 3 3 7305.41 7531.62 173.50 o 1.264567
-9 0 3 37269.78 39741.76 954.48 o 1.259501
3 7 0 2761.64 2885.79 74.25 o 1.255352
-12 1 1 2048.08 1188.16 55.18 o 1.247005
-2 7 1 663.79 469.07 15.31 o 1.242992
1 2 3 1875.86 1346.21 41.31 o 1.241507
0 7 1 12802.38 9593.36 286.35 o 1.238552
-2 6 2 386.60 291.52 8.34 o 1.237967
-7 6 1 2706.95 2060.55 61.16 o 1.237288
-4 6 2 4445.65 4721.69 133.09 o 1.228035
2 1 3 1149.31 1247.19 35.16 o 1.226820
0 3 3 7620.88 8349.24 234.47 o 1.224273
3 5 2 591.26 645.96 18.59 o 1.223810
-12 0 2 7228.39 7729.41 213.65 o 1.221636
7 1 2 1937.59 1851.24 48.07 o 1.216325
-9 2 3 3149.64 2843.25 74.06 o 1.213994
5 6 1 6469.93 5724.69 140.55 o 1.211689
0 6 2 10170.09 8958.71 220.49 o 1.211170
-4 7 1 841.45 735.82 19.35 o 1.210563
-3 4 3 1065.12 922.14 21.37 o 1.207580
-11 3 2 9658.15 8439.39 199.60 o 1.205132
10 4 0 1496.27 1306.58 31.42 o 1.203901
-8 3 3 3399.88 2988.04 70.47 o 1.203011
-5 4 3 531.83 469.52 11.02 o 1.202377
-10 4 2 4514.36 4050.40 97.28 o 1.201341
10 1 1 11960.46 10851.20 257.07 o 1.200198
2 7 1 2210.12 2081.41 49.61 o 1.198379
-10 1 3 3097.83 3077.98 73.83 o 1.195142
9 5 0 14110.67 14526.02 364.99 o 1.192014
11 3 0 3732.55 3699.78 88.74 o 1.186663
-6 6 2 1209.53 1168.09 27.24 o 1.183879
3 0 3 5955.03 5760.35 133.33 o 1.183403
5 7 0 11363.68 10994.83 256.58 o 1.183342
12 0 0 61.16 59.04 1.68 o 1.181628
-12 2 2 20658.62 19794.37 467.97 o 1.179979
-1 4 3 996.97 952.09 22.44 o 1.178843
-11 4 1 5.62 5.19 0.15 o 1.177283
-9 5 2 11245.11 9270.08 258.08 o 1.169397
-7 4 3 4003.46 3324.06 88.34 o 1.164493
-10 5 1 1528.09 1271.13 33.18 o 1.164321
-12 3 1 13928.26 11705.30 319.44 o 1.162971
-13 0 1 58.00 50.95 1.73 o 1.160041
2 6 2 148.77 124.40 4.47 o 1.154180
8 6 0 1670.79 1387.79 46.60 o 1.153447
-11 0 3 4804.88 4195.70 121.22 o 1.150340
-6 7 1 9392.32 8329.89 229.91 o 1.149116
2 3 3 42.20 37.15 1.07 o 1.146547
3 2 3 1418.56 1248.34 31.87 o 1.145417
8 0 2 12839.21 11391.48 298.94 o 1.144791
12 2 0 5149.30 4640.56 120.20 o 1.143807
6 4 2 467.39 442.02 11.53 o 1.141627
9 4 1 5544.43 5302.19 139.99 o 1.141095
0 8 0 1010.40 973.72 26.47 o 1.139354
7 3 2 7422.26 7082.82 202.63 o 1.137966
8 5 1 165.44 175.22 5.66 o 1.132642
4 7 1 6017.36 6356.83 196.46 o 1.131877
-13 1 2 278.77 294.34 9.30 o 1.130902
-9 6 1 8072.30 8028.52 218.48 o 1.126635
2 8 0 1951.51 1965.01 50.54 o 1.124921
10 3 1 625.81 630.20 15.95 o 1.124727
-13 2 1 10.19 10.33 0.47 o 1.124194
-4 5 3 595.36 604.06 15.02 o 1.123608
1 4 3 4067.41 4150.59 110.07 o 1.122798
5 5 2 5270.88 5492.66 146.16 o 1.120592
-10 3 3 6381.51 6650.01 177.93 o 1.120562
4 1 3 1186.92 1240.39 33.42 o 1.119626
11 0 1 894.64 942.70 24.84 o 1.118806
-8 6 2 146.34 183.25 5.32 o 1.115484
-11 2 3 4952.71 6245.89 176.59 o 1.115358
-2 5 3 159.45 219.40 6.56 o 1.113845
-3 7 2 655.55 957.76 28.84 o 1.111590
8 2 2 9292.41 13105.20 387.24 o 1.110298
-6 5 3 1179.08 1544.35 51.03 o 1.105715
-1 7 2 6168.21 7935.87 265.20 o 1.105259
-9 4 3 1347.55 1570.60 62.12 o 1.102324
7 6 1 488.59 550.23 23.97 o 1.100949
-1 8 1 570.74 643.62 27.00 o 1.100873
7 7 0 2567.90 2854.27 149.03 o 1.095335
-5 7 2 2281.98 2649.55 125.83 o 1.091223
-3 8 1 2650.89 3123.93 147.45 o 1.090841
-12 1 3 127.44 167.88 7.76 o 1.087656
11 2 1 528.97 757.05 36.07 o 1.086544
1 8 1 2205.67 3504.06 160.33 o 1.084856
4 8 0 1451.70 2290.69 104.07 o 1.084704
13 1 0 124.26 172.43 7.29 o 1.083006
4 6 2 2169.99 2316.15 79.90 o 1.078675
0 5 3 2861.16 3033.00 104.26 o 1.078475
-12 4 2 2515.10 2598.20 82.97 o 1.076671
5 0 3 2222.31 2290.01 65.52 o 1.073799
1 7 2 7308.44 7565.32 218.60 o 1.073541
-8 7 1 2248.15 2422.03 63.05 o 1.070866
-4 0 4 12684.80 11795.64 292.02 o 1.067981
-14 1 1 2033.92 1884.59 45.98 o 1.067725
-6 0 4 6638.93 6098.41 152.24 o 1.067191
-13 3 2 5136.39 4715.56 115.10 o 1.067101
-14 0 2 5858.31 5337.76 131.19 o 1.066242
-11 5 2 719.91 651.69 16.75 o 1.065322
-8 5 3 13090.98 11515.01 293.19 o 1.063855
9 1 2 14.26 12.33 0.41 o 1.063485
-5 1 4 6099.24 5245.87 133.86 o 1.063315
4 3 3 6552.72 5408.57 211.52 o 1.057612
-5 8 1 280.21 225.78 8.82 o 1.056786
11 5 0 1693.52 1212.61 41.15 o 1.052499
-3 1 4 211.56 150.47 4.81 o 1.052310
6 7 1 648.08 461.77 14.46 o 1.051427
-7 1 4 271.10 193.96 6.22 o 1.050799
3 4 3 4285.19 3067.51 94.54 o 1.050223
12 4 0 7999.42 5769.23 178.00 o 1.048981
-7 7 2 3060.45 2201.30 69.87 o 1.048242
3 8 1 6276.89 4615.72 149.03 o 1.045981
-2 0 4 101.98 73.97 3.10 o 1.045283
5 2 3 1788.18 1300.93 44.56 o 1.045180
-8 0 4 45.85 40.14 1.30 o 1.043064
-13 0 3 1110.31 1101.30 35.94 o 1.042118
-4 2 4 699.69 674.70 18.00 o 1.039812
-6 2 4 4013.27 3816.16 99.19 o 1.039083
-3 6 3 10.04 9.55 0.27 o 1.038917
-14 2 2 4.67 4.35 0.11 o 1.038206
10 6 0 8422.76 7585.83 189.88 o 1.036571
-12 5 1 2439.59 2205.00 56.65 o 1.035863
-5 6 3 8994.10 8147.67 204.03 o 1.035598
-10 6 2 3312.27 2996.75 73.94 o 1.034936
-13 4 1 8252.94 7359.45 184.04 o 1.033791
12 1 1 19.50 16.89 0.40 o 1.032741
-12 3 3 10036.28 9082.52 237.92 o 1.030542
-11 4 3 1852.89 1739.93 48.93 o 1.026907
13 3 0 8230.40 7699.77 214.03 o 1.026585
6 8 0 5124.33 4796.79 135.60 o 1.026307
2 5 3 3982.91 3657.49 109.60 o 1.024206
8 4 2 1957.18 1702.12 52.96 o 1.022954
3 7 2 800.00 670.21 23.29 o 1.022452
-1 6 3 8.06 6.69 0.29 o 1.020448
-1 1 4 1029.37 862.77 34.88 o 1.019858
-11 6 1 817.73 694.86 27.85 o 1.019435
-2 2 4 484.87 416.54 16.77 o 1.018829
7 5 2 635.15 560.38 23.65 o 1.018075
-9 1 4 605.67 547.85 21.92 o 1.017113
-8 2 4 4222.01 3847.12 158.43 o 1.016774
-13 2 3 877.85 814.04 31.81 o 1.015897
6 1 3 661.38 642.60 23.26 o 1.014912
-14 3 1 1753.02 1937.10 69.90 o 1.013542
14 0 0 129.94 154.67 6.35 o 1.012823
-7 6 3 1876.04 2441.85 82.83 o 1.011097
1 9 0 982.01 1278.25 45.03 o 1.010186
9 3 2 3237.37 4233.92 148.11 o 1.009913
-5 3 4 283.55 370.52 13.49 o 1.009767
10 5 1 3404.06 4539.75 165.28 o 1.008563
