#------------------------------------------------------------------------------
#$Date: 2020-02-04 05:13:16 +0200 (Tue, 04 Feb 2020) $
#$Revision: 247531 $
#$URL: file:///home/coder/svn-repositories/cod/cif/4/13/39/4133971.cif $
#------------------------------------------------------------------------------
#
# This file is available in the Crystallography Open Database (COD),
# http://www.crystallography.net/
#
# All data on this site have been placed in the public domain by the
# contributors.
#
data_4133971
loop_
_publ_author_name
'Bear, Joseph C.'
'Cockcroft, Jeremy K.'
'Williams, Jeffrey H.'
_publ_section_title
;
 Influence of Solvent in Crystal Engineering: A Significant Change to the
 Order-Disorder Transition in Ferrocene.
;
_journal_issue                   4
_journal_name_full               'Journal of the American Chemical Society'
_journal_page_first              1731
_journal_page_last               1734
_journal_paper_doi               10.1021/jacs.9b11895
_journal_volume                  142
_journal_year                    2020
_chemical_formula_moiety         'C10 H10 Fe, 2(C3 F3)'
_chemical_formula_sum            'C16 H10 F6 Fe'
_chemical_formula_weight         372.09
_chemical_name_systematic        Ferrocene:hexafluorobenzene
_space_group_crystal_system      triclinic
_space_group_IT_number           2
_space_group_name_Hall           '-P 1'
_space_group_name_H-M_alt        'P -1'
_atom_sites_solution_hydrogens   difmap
_atom_sites_solution_primary     dual
_audit_creation_date             2019-04-26
_audit_creation_method
;
Olex2 1.2
(compiled 2018.05.29 svn.r3508 for OlexSys, GUI svn.r5506)
;
_cell_angle_alpha                77.610(5)
_cell_angle_beta                 76.995(5)
_cell_angle_gamma                84.190(5)
_cell_formula_units_Z            2
_cell_length_a                   7.2034(5)
_cell_length_b                   9.1326(5)
_cell_length_c                   11.5371(7)
_cell_measurement_reflns_used    4859
_cell_measurement_temperature    250
_cell_measurement_theta_max      27.2760
_cell_measurement_theta_min      4.4620
_cell_volume                     721.17(8)
_computing_cell_refinement       'CrysAlisPro 1.171.39.46 (Rigaku OD, 2018)'
_computing_data_collection       'CrysAlisPro 1.171.39.46 (Rigaku OD, 2018)'
_computing_data_reduction        'CrysAlisPro 1.171.39.46 (Rigaku OD, 2018)'
_computing_molecular_graphics    'Olex2 (Dolomanov et al., 2009)'
_computing_publication_material  'Olex2 (Dolomanov et al., 2009)'
_computing_structure_refinement  'ShelXL (Sheldrick, 2015)'
_computing_structure_solution    'ShelXT (Sheldrick, 2015)'
_diffrn_ambient_environment      C6F6
_diffrn_ambient_temperature      250
_diffrn_detector                 'CCD plate'
_diffrn_detector_area_resol_mean 5.2031
_diffrn_detector_type            Atlas
_diffrn_measured_fraction_theta_full 0.998
_diffrn_measured_fraction_theta_max 0.998
_diffrn_measurement_details
;
List of Runs (angles in degrees, time in seconds):

  # Type    Start    End  Width  t~exp~   \w     \q     \k     \f   Frames
--------------------------------------------------------------------------
  1  \w    -13.00  79.00   1.00    1.00    --   11.09  38.00  60.00   92
  2  \w    -17.00  52.00   1.00    1.00    --   11.09 -99.00 120.00   69
  3  \w    -18.00  87.00   1.00    1.00    --   11.09  77.00 -90.00  105
  4  \w    -21.00  87.00   1.00    1.00    --   11.09  77.00 120.00  108
  5  \w    -20.00  52.00   1.00    1.00    --   11.09 -99.00-120.00   72
  6  \w     17.00  87.00   1.00    1.00    --   11.09-154.00   4.24   70
  7  \w    -62.00  39.00   1.00    1.00    --   11.09 -57.00   0.00  101
;
_diffrn_measurement_device       'four-circle diffractometer'
_diffrn_measurement_device_type  'SuperNova, Dual, Cu at home/near, Atlas'
_diffrn_measurement_method       '\w scans'
_diffrn_orient_matrix_type
'CrysAlisPro convention (1999,Acta A55,543-557)'
_diffrn_orient_matrix_UB_11      -0.0711190000
_diffrn_orient_matrix_UB_12      -0.0341319000
_diffrn_orient_matrix_UB_13      -0.0171409000
_diffrn_orient_matrix_UB_21      -0.0657228000
_diffrn_orient_matrix_UB_22      0.0119644000
_diffrn_orient_matrix_UB_23      0.0534274000
_diffrn_orient_matrix_UB_31      -0.0294493000
_diffrn_orient_matrix_UB_32      0.0709565000
_diffrn_orient_matrix_UB_33      -0.0315490000
_diffrn_radiation_monochromator  mirror
_diffrn_radiation_probe          x-ray
_diffrn_radiation_type           MoK\a
_diffrn_radiation_wavelength     0.71073
_diffrn_reflns_av_R_equivalents  0.0345
_diffrn_reflns_av_unetI/netI     0.0316
_diffrn_reflns_Laue_measured_fraction_full 0.998
_diffrn_reflns_Laue_measured_fraction_max 0.998
_diffrn_reflns_limit_h_max       9
_diffrn_reflns_limit_h_min       -9
_diffrn_reflns_limit_k_max       11
_diffrn_reflns_limit_k_min       -11
_diffrn_reflns_limit_l_max       14
_diffrn_reflns_limit_l_min       -14
_diffrn_reflns_number            11678
_diffrn_reflns_point_group_measured_fraction_full 0.998
_diffrn_reflns_point_group_measured_fraction_max 0.998
_diffrn_reflns_theta_full        25.242
_diffrn_reflns_theta_max         26.370
_diffrn_reflns_theta_min         3.527
_diffrn_source                   'micro-focus sealed X-ray tube'
_diffrn_source_type              'SuperNova (Mo) X-ray Source'
_exptl_absorpt_coefficient_mu    1.106
_exptl_absorpt_correction_T_max  1.000
_exptl_absorpt_correction_T_min  0.182
_exptl_absorpt_correction_type   gaussian
_exptl_absorpt_process_details
;
CrysAlisPro 1.171.39.46 (Rigaku Oxford Diffraction, 2018)
Numerical absorption correction based on gaussian integration over
			a multifaceted crystal model
Empirical absorption correction using spherical harmonics,
 implemented in SCALE3 ABSPACK scaling algorithm.
;
_exptl_crystal_colour            'clear dark orange'
_exptl_crystal_colour_lustre     clear
_exptl_crystal_colour_modifier   dark
_exptl_crystal_colour_primary    orange
_exptl_crystal_density_diffrn    1.714
_exptl_crystal_description       block
_exptl_crystal_F_000             372
_exptl_crystal_preparation       'Ferrocene disssolved in hot C6F6'
_exptl_crystal_recrystallization_method
'Crystals grown using C6F6 as solvent in an NMR tube stood in hot water'
_exptl_crystal_size_max          0.778
_exptl_crystal_size_mid          0.47
_exptl_crystal_size_min          0.322
_refine_diff_density_max         0.307
_refine_diff_density_min         -0.315
_refine_diff_density_rms         0.056
_refine_ls_extinction_method     none
_refine_ls_goodness_of_fit_ref   1.030
_refine_ls_hydrogen_treatment    refall
_refine_ls_matrix_type           full
_refine_ls_number_parameters     248
_refine_ls_number_reflns         2947
_refine_ls_number_restraints     0
_refine_ls_restrained_S_all      1.030
_refine_ls_R_factor_all          0.0464
_refine_ls_R_factor_gt           0.0329
_refine_ls_shift/su_max          0.000
_refine_ls_shift/su_mean         0.000
_refine_ls_structure_factor_coef Fsqd
_refine_ls_weighting_details
'w=1/[\s^2^(Fo^2^)+(0.0371P)^2^+0.1221P] where P=(Fo^2^+2Fc^2^)/3'
_refine_ls_weighting_scheme      calc
_refine_ls_wR_factor_gt          0.0746
_refine_ls_wR_factor_ref         0.0830
_reflns_Friedel_coverage         0.000
_reflns_number_gt                2358
_reflns_number_total             2947
_reflns_threshold_expression     'I > 2\s(I)'
_cod_data_source_file            ja9b11895_si_002.cif
_cod_data_source_block           exp_1221
_cod_depositor_comments
'Adding full bibliography for 4133967--4133980.cif.'
_cod_original_cell_volume        721.16(8)
_cod_database_code               4133971
_shelx_shelxl_version_number     2014/7
_chemical_oxdiff_formula         'Fe1 C16 F6 H10'
_shelx_space_group_comment
;
The symmetry employed for this shelxl refinement is uniquely defined
by the following loop, which should always be used as a source of
symmetry information in preference to the above space-group names.
They are only intended as comments.
;
_reflns_odcompleteness_completeness 99.80
_reflns_odcompleteness_iscentric 1
_reflns_odcompleteness_theta     26.32
_olex2_refinement_description
;
;
_shelx_res_file
;
    exp_1221.res created by SHELXL-2014/7

TITL exp_1221 in P-1
REM P-1 (#2 in standard setting)
CELL 0.71073 7.203433 9.132551 11.537054 77.6097 76.995 84.1896
ZERR 2 0.000461 0.000544 0.000696 0.0051 0.0053 0.0051
LATT 1
SFAC C H F Fe
UNIT 32 20 12 2

L.S. 10 0 0
PLAN  1
BOND $H
CONF
list 4
fmap 2 53
acta
SHEL 50 0.8
REM <olex2.extras>
REM <HklSrc "%.\\exp_1221.hkl">
REM </olex2.extras>

WGHT    0.037100    0.122100
FVAR       8.02584
FE1   4    0.239859    0.496189    0.252191    11.00000    0.03885    0.03256 =
         0.03485   -0.00449   -0.01119    0.00153
C7    1    0.316136    0.679167    0.120688    11.00000    0.05491    0.05264 =
         0.07063    0.01840   -0.01608   -0.01113
H7    2    0.433994    0.711862    0.096538    11.00000    0.07670
C8    1    0.242644    0.572886    0.073050    11.00000    0.07061    0.05707 =
         0.03363   -0.00253   -0.00846    0.01526
H8    2    0.307055    0.523054    0.013430    11.00000    0.06850
C9    1    0.055709    0.549858    0.137614    11.00000    0.05980    0.04983 =
         0.04978   -0.00612   -0.03000    0.00166
H9    2   -0.021345    0.482341    0.126063    11.00000    0.05805
C10   1    0.012861    0.640783    0.225232    11.00000    0.05100    0.05482 =
         0.04829   -0.00922   -0.01375    0.01643
H10   2   -0.102258    0.641796    0.283892    11.00000    0.05593
C11   1    0.173155    0.720225    0.215078    11.00000    0.08137    0.03465 =
         0.06252   -0.00828   -0.03399    0.00636
H11   2    0.185307    0.787847    0.265124    11.00000    0.06393
C12   1    0.473612    0.407568    0.318576    11.00000    0.04368    0.06633 =
         0.07171    0.00945   -0.02277    0.00096
H12   2    0.593378    0.445812    0.290119    11.00000    0.06963
C13   1    0.405624    0.302115    0.267459    11.00000    0.06131    0.04926 =
         0.05374   -0.00629   -0.00955    0.02386
H13   2    0.471694    0.259906    0.201012    11.00000    0.06624
C14   1    0.218055    0.274766    0.329980    11.00000    0.06458    0.03328 =
         0.05018   -0.00262   -0.01846    0.00064
H14   2    0.134368    0.212624    0.312289    11.00000    0.06996
C15   1    0.169649    0.362676    0.419732    11.00000    0.05236    0.04404 =
         0.03972   -0.00156   -0.00880    0.00194
H15   2    0.054478    0.368408    0.472010    11.00000    0.06102
C16   1    0.326689    0.445973    0.413143    11.00000    0.07156    0.04714 =
         0.04982   -0.00617   -0.03341    0.00237
H16   2    0.335441    0.514491    0.456929    11.00000    0.06671
F1    3    0.371752    0.999500   -0.113555    11.00000    0.04861    0.08215 =
         0.08185   -0.01484    0.00866   -0.00273
F2    3    0.136883    0.813196   -0.156701    11.00000    0.08833    0.05383 =
         0.05545   -0.02373   -0.00856    0.01181
F3    3   -0.233289    0.812849   -0.042537    11.00000    0.07515    0.07409 =
         0.09473   -0.02858   -0.02016   -0.02183
C1    1    0.187383    1.000231   -0.057775    11.00000    0.04429    0.04544 =
         0.04565   -0.00096   -0.00398    0.00246
C2    1    0.069217    0.905726   -0.079833    11.00000    0.05879    0.03475 =
         0.03769   -0.00479   -0.00934    0.00751
C3    1   -0.118129    0.905576   -0.021837    11.00000    0.05332    0.03968 =
         0.04873   -0.00480   -0.01345   -0.00415
F4    3    0.799895    0.151688    0.504441    11.00000    0.06787    0.08815 =
         0.10789   -0.01953   -0.02384   -0.03053
F5    3    0.454369    0.206641    0.642301    11.00000    0.10741    0.05794 =
         0.06712   -0.02871   -0.02438    0.00540
F6    3    0.153461    0.055367    0.636957    11.00000    0.05536    0.08121 =
         0.06534   -0.00405    0.00741    0.01219
C4    1    0.651611    0.076811    0.501847    11.00000    0.04685    0.04428 =
         0.05443   -0.00148   -0.01600   -0.00789
C5    1    0.476527    0.104254    0.572395    11.00000    0.06479    0.03590 =
         0.04302   -0.00791   -0.01646    0.00394
C6    1    0.325544    0.027345    0.569794    11.00000    0.04443    0.04405 =
         0.04375    0.00135   -0.00496    0.00760
HKLF 4

REM  exp_1221 in P-1
REM R1 =  0.0329 for    2358 Fo > 4sig(Fo)  and  0.0464 for all    2947 data
REM    248 parameters refined using      0 restraints

END

WGHT      0.0370      0.1220

REM Highest difference peak  0.307,  deepest hole -0.315,  1-sigma level  0.056
Q1    1  -0.1505  0.5074  0.3860  11.00000  0.05    0.31
;
_shelx_res_checksum              28440
_shelx_hkl_file
;
   0   0   2 7123.94 364.404   5
   0   0   2 7091.11 313.391   4
   0   0   2 7307.59 434.548   3
   0   0   3-70.8038 160.756   3
   0   0  -3-9.68271 90.5343   5
   0   0   3 17.7362 82.3679   5
   0   0  -3-36.3759 104.390   4
   0   0   3 61.5409 87.7489   4
   0   0  -4 11737.1 651.342   5
   0   0   4 12214.9 787.040   3
   0   0   4 11041.3 548.695   4
   0   0  -4 10353.9 593.485   4
   0   0   4 11290.2 644.486   5
   0   0   5 12244.9 876.556   3
   0   0   5 12102.4 637.332   4
   0   0   5 12130.6 741.743   5
   0   0  -5 12513.5 759.214   5
   0   0  -5 11928.4 736.931   4
   0   0  -5 13721.7 982.210   6
   0   0   6 54278.9 1706.12   5
   0   0   6 56847.1 2030.69   3
   0   0  -6 59298.7 1781.72   5
   0   0   6 56593.2 1511.11   4
   0   0  -7 1501.76 355.897   5
   0   0  -7 1963.60 546.355   6
   0   0   7 1059.44 262.572   4
   0   0   7 1752.02 370.499   5
   0   0   7 978.400 347.033   3
   0   0  -8 34343.1 1574.84   5
   0   0   8 30090.0 1295.03   4
   0   0  -8 30970.5 2004.16   3
   0   0  -8 33009.1 2054.78   6
   0   0   8 31913.1 1762.62   3
   0   0  -9 54.1232 120.405   7
   0   0   9 90.0878 311.138   3
   0   0   9 129.321 151.869   4
   0   0  -9 157.938 254.591   6
   0   0   9 21.4256 154.982   5
   0   0 -10 21677.1 1971.29   6
   0   0  10 19960.4 1197.96   4
   0   0  10 21581.0 1389.10   5
   0   0  10 23975.9 1720.04   3
   0   0 -10 20625.1 1299.66   7
   0   0  11 1660.24 409.953   5
   0   0 -11 1172.07 500.390   6
   0   0 -11 1150.67 353.155   7
   0   0  11 1177.49 308.945   4
   0   0  11 1042.06 432.406   3
   0   0 -12 13526.0 1169.71   7
   0   0  12 14698.3 1518.07   3
   0   0 -12 14412.5 1867.66   6
   0   0  13 1498.30 523.159   3
   0   0 -13 745.254 531.215   6
   0  -1  13 798.721 421.074   3
   0   1 -13 636.867 464.414   6
   0  -1  12 5750.32 996.670   3
   0   1 -12 5541.41 1156.76   6
   0   1 -11-100.012 207.296   6
   0   1 -11-60.4271 158.243   7
   0  -1  11-204.561 378.263   3
   0  -1  11 27.7053 130.658   4
   0   1 -10 8368.46 730.403   7
   0  -1  10 7018.28 677.759   4
   0  -1  10 9597.18 1145.89   3
   0   1 -10 8978.02 1307.86   6
   0  -1   9 583.949 279.682   5
   0   1  -9 1368.75 437.153   5
   0  -1   9 746.502 231.311   4
   0   1  -9 1078.03 504.671   6
   0  -1   9 874.311 420.413   3
   0   1  -9 686.578 228.304   7
   0   1  -8-73.0368 220.899   5
   0  -1   8 539.080 244.776   5
   0   1  -8 54.9795 117.056   7
   0   1  -8 380.094 271.977   3
   0   1  -8-127.774 291.406   6
   0  -1   8-27.5939 325.190   3
   0  -1   8 102.274 110.765   4
   0   1  -7 417.508 174.149   7
   0  -1   7-27.6097 299.431   3
   0   1  -7 87.7632 203.319   3
   0   1  -7 155.402 281.412   6
   0  -1   7 192.890 119.173   4
   0  -1   7-88.6375 158.738   5
   0   1  -7-49.2983 184.810   5
   0   1  -6 56584.7 2273.68   6
   0  -1   6 52330.1 2015.02   3
   0   1  -6 55397.7 1941.71   5
   0  -1   6 53551.6 1395.34   4
   0   1  -6 57063.3 1354.80   7
   0   1  -5 1789.06 351.447   5
   0   1  -5 2076.47 236.093   7
   0  -1   5 1669.65 367.122   3
   0  -1   5 1893.96 250.718   4
   0  -1   5 1988.18 357.894   5
   0   1  -5 2178.48 427.384   6
   0   1  -4 40127.1 1412.84   5
   0  -1   4 40296.3 1459.19   3
   0  -1   4 41230.0 1014.47   4
   0   1  -4 41950.4 870.305   7
   0  -1   4 42420.6 1432.74   5
   0   1  -4 44617.7 1596.25   6
   0   1  -3 83.4144 56.6468   7
   0  -1   3 235.353 152.832   5
   0   1  -3 1.02847 168.910   5
   0   1  -3 12.1424 100.248   6
   0  -1   3 1.03840 147.303   3
   0  -1   2 624599. 4313.77   3
   0   1  -2 629691. 4401.32   5
   0  -1  -2 481881. 3306.87   4
   0   1   2 497331. 3539.16   3
   0   1   3 869.758 130.513   5
   0   1   3 1290.09 282.559   3
   0   1   3 756.268 166.393   4
   0  -1  -3 1189.27 216.160   4
   0  -1  -4 224128. 2944.69   4
   0   1   4 214078. 2672.97   4
   0   1   4 226895. 3284.23   3
   0   1   4 216247. 2285.22   5
   0   1   5 9523.71 565.239   5
   0   1   5 9881.48 631.665   4
   0  -1  -5 9383.25 689.711   4
   0   1   5 8746.06 746.979   3
   0   1   6 124330. 2409.69   4
   0   1   6 131224. 3035.72   3
   0   1   6 128026. 2301.87   5
   0  -1  -6 132751. 2813.86   4
   0   1   7 47062.8 1610.17   4
   0   1   7 49462.9 2008.03   3
   0   1   7 47116.1 1541.57   5
   0  -1  -7 49289.3 1900.06   4
   0  -1  -8 79370.1 2626.04   4
   0  -1  -8 81900.5 3314.81   3
   0   1   8 77361.0 2192.91   4
   0   1   8 72692.5 2084.51   5
   0   1   8 81181.5 2750.64   3
   0   1   9 124.401 135.812   4
   0  -1  -9-11.3056 296.597   6
   0   1   9 211.632 317.005   3
   0  -1  -9 49.2879 210.008   4
   0   1  10 10996.7 922.973   5
   0   1  10 9024.44 839.063   4
   0  -1 -10 8176.99 1200.23   6
   0   1  10 10466.7 1131.43   3
   0  -1 -11 1373.61 628.267   6
   0  -1 -11 1302.05 425.658   7
   0   1  11 1365.35 368.031   4
   0   1  11 1954.92 423.972   5
   0   1  11 1302.74 455.590   3
   0   1  12 5473.37 926.727   3
   0  -1 -12 3682.80 931.479   6
   0  -1 -12 5838.83 837.999   7
   0  -1 -13 2908.87 953.362   6
   0   1  13 1817.34 577.041   3
   0  -1 -13 2596.33 617.142   7
   0  -1 -14 3272.66 977.945   6
   0   1  14 3618.42 836.858   3
   0   2 -13 703.932 475.857   6
   0  -2  13 619.540 530.001   3
   0   2 -12 2936.49 897.423   6
   0  -2  12 2036.59 665.535   3
   0   2 -11 1205.76 564.495   6
   0  -2  11 476.986 440.193   3
   0  -2  10 10914.6 1256.48   3
   0   2 -10 10579.4 1423.62   6
   0   2 -10 10581.9 586.551   7
   0  -2  10 9667.28 760.101   4
   0   2 -10 10423.1 1140.18   5
   0  -2   9-30.6777 348.608   3
   0   2  -9-197.108 233.847   5
   0  -2   9 257.118 166.084   4
   0   2  -9-155.887 91.6910   7
   0   2  -9-258.358 293.199   6
   0   2  -8 14871.6 1242.71   5
   0   2  -8 14605.5 643.074   7
   0  -2   8 14710.3 1298.30   3
   0   2  -8 16722.5 1531.32   6
   0  -2   8 14449.3 830.437   4
   0  -2   8 15161.2 1237.89   5
   0  -2   7 4527.26 649.612   5
   0   2  -7 4219.90 324.594   7
   0   2  -7 3884.54 679.358   3
   0   2  -7 4348.88 683.787   5
   0  -2   7 5202.99 747.639   3
   0  -2   7 3583.29 390.374   4
   0   2  -7 3748.81 694.271   6
   0  -2   6 67924.2 1591.30   4
   0  -2   6 76233.6 2454.17   5
   0   2  -6 76043.4 2710.12   6
   0   2  -6 73148.3 2469.17   5
   0  -2   6 72376.2 2484.89   3
   0   2  -6 74633.3 2670.94   3
   0   2  -6 72489.2 1192.67   7
   0   2  -5 556.245 99.3253   7
   0  -2   5 391.739 126.094   4
   0  -2   5 567.764 272.378   3
   0   2  -5 414.248 206.293   6
   0   2  -5 730.231 301.100   5
   0  -2   4 61090.4 1918.24   3
   0   2  -4 58180.0 881.036   7
   0   2  -4 58453.3 1946.04   5
   0   2  -4 62237.2 2036.67   6
   0  -2   3 179.983 64.4283   7
   0   2  -3-61.0479 202.374   5
   0   2  -3-8.19966 103.571   3
   0   2  -3 77.2424 50.6600   7
   0   2  -3-49.5157 175.048   6
   0  -2   3 56.0493 177.190   3
   0  -2   2 423446. 2429.94   7
   0   2  -2 430904. 4338.32   5
   0  -2   2 429262. 4261.17   3
   0   2  -2 429271. 4353.78   6
   0  -2   1 105.212 73.4973   7
   0  -2   1 110.449 92.9893   4
   0   2  -1 11.5771 94.3386   6
   0   2  -1-18.0854 130.657   5
   0   2   0 209243. 2483.15   2
   0  -2   0 226380. 2320.48   4
   0  -2   0 218275. 2341.11   5
   0   2   0 226564. 2372.08   5
   0   2   0 216419. 2361.58   4
   0   2   1 1156.62 189.849   2
   0  -2  -1 1317.42 191.786   2
   0   2   1 1309.26 156.402   5
   0  -2  -1 1148.95 197.514   4
   0  -2  -1 1164.06 145.581   5
   0  -2  -2 508789. 4037.74   4
   0  -2  -2 517549. 3583.96   2
   0  -2  -3 784.214 205.663   4
   0   2   3 389.289 162.070   4
   0   2   3 247.577 149.245   3
   0   2   4 1005.50 122.549   5
   0   2   4 873.294 217.494   4
   0   2   4 751.706 285.860   3
   0  -2  -4 1236.42 270.935   4
   0  -2  -5 16527.3 966.782   4
   0   2   5 16215.2 592.071   5
   0   2   5 14450.0 851.180   4
   0   2   5 16863.7 1016.72   3
   0   2   6 188948. 2341.36   5
   0  -2  -6 198319. 3581.01   4
   0   2   6 182989. 3211.01   4
   0   2   6 201142. 3718.45   3
   0  -2  -7 153.697 229.168   4
   0   2   7 218.603 163.002   4
   0   2   7 267.514 132.936   5
   0  -2  -8 21656.0 1391.25   4
   0   2   8 21490.1 1414.72   3
   0  -2  -8 19057.1 1616.55   3
   0   2   8 21521.7 1247.43   4
   0   2   8 20863.1 980.477   5
   0   2   9 1505.63 290.955   5
   0  -2  -9 1173.88 398.473   4
   0   2   9 982.189 322.607   4
   0   2   9 771.353 409.409   3
   0   2  10 5053.65 677.125   4
   0   2  10 6081.82 876.194   3
   0  -2 -10 5152.55 791.037   4
   0  -2 -11 102.636 343.980   4
   0   2  11 451.010 392.250   3
   0  -2 -11-193.806 292.680   6
   0  -2 -12 13639.9 1748.58   6
   0   2  12 14914.5 1457.59   3
   0  -2 -13-346.198 323.422   6
   0  -2 -13-266.873 193.265   7
   0   2  14 5401.84 964.063   3
   0  -2 -14 2995.70 941.057   6
   0  -3  12 4554.45 942.335   3
   0   3 -12 3878.53 1029.65   6
   0   3 -11-813.795 501.046   6
   0  -3  11 352.151 395.270   3
   0   3 -10 15550.8 1491.60   5
   0   3 -10 11781.1 1537.02   6
   0  -3  10 13729.2 1447.24   3
   0  -3   9 2049.88 622.652   3
   0  -3   9 2210.71 349.958   4
   0   3  -9 2822.71 624.099   5
   0   3  -9 2366.23 657.419   6
   0  -3   8 17582.7 912.960   4
   0   3  -8 19163.5 1519.71   5
   0  -3   8 19126.9 1536.44   3
   0   3  -8 20982.4 1777.78   6
   0   3  -7 886.557 340.674   3
   0  -3   7 1452.76 276.378   4
   0   3  -7 1535.58 467.488   6
   0  -3   7 1101.33 317.810   6
   0   3  -7 1448.79 470.830   5
   0  -3   7 1558.46 485.077   3
   0  -3   7 1000.36 360.752   5
   0   3  -6 7370.11 908.292   3
   0   3  -6 6395.64 866.916   6
   0   3  -6 5075.61 743.259   5
   0  -3   6 6205.30 737.478   6
   0  -3   6 7792.65 890.964   3
   0  -3   6 6290.21 774.843   5
   0   3  -5 1053.92 348.441   6
   0  -3   5 662.849 292.930   3
   0   3  -5 985.542 317.017   3
   0   3  -5 697.012 294.775   5
   0   3  -4 64615.6 2266.39   6
   0   3  -4 67089.8 2285.14   5
   0  -3   4 64078.0 2167.13   3
   0  -3   4 64676.5 940.045   7
   0  -3   3 1170.92 159.409   7
   0   3  -3 1291.84 332.864   6
   0  -3   3 739.983 197.259   4
   0  -3   3 795.944 263.808   3
   0   3  -3 637.877 298.155   5
   0  -3   2 15065.9 937.837   3
   0   3  -2 15695.7 960.510   5
   0  -3   2 14699.5 722.502   4
   0  -3   2 14975.3 623.964   7
   0   3  -2 16656.1 993.003   6
   0  -3   1 388.623 160.288   6
   0   3  -1 416.342 178.144   2
   0  -3   1 389.236 135.359   7
   0   3  -1 398.387 131.498   4
   0  -3   1 685.144 198.254   5
   0   3  -1 676.053 221.890   5
   0  -3   1 133.673 100.427   4
   0   3  -1 181.876 138.550   6
   0  -3   0 87905.3 1791.49   5
   0   3   0 89411.5 1874.25   4
   0  -3   0 83855.9 1980.65   6
   0   3   0 86530.4 1973.88   2
   0  -3   0 88903.6 1783.53   4
   0   3   0 90413.8 1863.17   5
   0  -3  -1 3552.27 316.271   5
   0   3   1 3971.86 418.000   2
   0  -3  -1 4052.22 410.947   4
   0   3   1 4025.74 351.497   5
   0   3   1 3900.14 414.427   4
   0  -3  -1 3868.06 386.786   2
   0   3   2 24812.9 713.185   5
   0  -3  -2 24791.5 944.369   2
   0  -3  -2 24709.4 1037.77   4
   0   3   2 26618.6 1049.75   2
   0   3   3 3600.74 212.840   5
   0   3   3 3640.85 409.661   2
   0  -3  -3 3349.29 427.629   4
   0  -3  -4 120874. 2565.25   4
   0   3   4 117723. 2329.94   2
   0  -3  -5 2679.46 436.224   4
   0   3   5 2637.21 453.646   3
   0   3   6 876.788 383.132   3
   0   3   6 1960.48 188.791   5
   0  -3  -6 1952.49 440.048   4
   0   3   6 1347.68 329.821   4
   0   3   7 148.945 103.246   5
   0   3   7 138.628 155.630   4
   0   3   7 83.2437 245.108   3
   0  -3  -7 293.037 258.842   4
   0  -3  -8 24089.7 1494.36   4
   0   3   8 24123.9 1474.99   3
   0  -3  -8 22525.0 1734.03   3
   0   3   8 23376.4 1383.89   4
   0   3   8 24858.3 880.665   5
   0   3   9 14107.6 740.496   5
   0  -3  -9 13648.8 1213.86   4
   0   3   9 14391.1 1138.68   4
   0   3   9 15392.5 1251.02   3
   0   3  10 18823.5 1458.74   3
   0  -3 -10 21056.0 1580.80   4
   0   3  10 19171.7 935.227   5
   0   3  11 2948.94 669.593   3
   0  -3 -11 2875.98 671.799   4
   0   3  11 2175.72 349.829   5
   0  -3 -12 10060.2 1236.21   4
   0   3  12 8727.36 1096.64   3
   0   3  13 1186.50 529.011   3
   0  -3 -13-64.5936 229.467   6
   0  -3 -14 1156.54 597.682   6
   0   3  14 1953.85 628.115   3
   0   4 -12 1263.54 644.122   6
   0  -4  12 999.084 525.028   3
   0  -4  11 394.518 392.791   3
   0   4 -11 65.1470 361.523   6
   0   4 -11-92.1235 255.394   5
   0   4 -10 19280.6 1756.48   5
   0  -4  10 20793.9 1889.05   3
   0   4 -10 21882.6 2140.83   6
   0   4  -9 62.7558 274.487   5
   0   4  -9 505.737 399.345   6
   0  -4   9 616.482 440.023   3
   0   4  -8 8083.40 1074.10   5
   0  -4   8 8994.37 674.135   4
   0  -4   8 9906.02 1187.27   3
   0   4  -8 9692.43 1275.18   6
   0  -4   7-670.022 377.073   3
   0   4  -7-673.859 391.216   5
   0   4  -7 52.3018 190.607   6
   0   4  -6 23109.6 1696.84   6
   0  -4   6 27574.8 1729.44   5
   0   4  -6 23335.4 1662.53   5
   0  -4   6 23562.5 1589.43   3
   0  -4   6 28384.3 1681.82   6
   0  -4   5 82.5296 213.794   2
   0  -4   5-86.9398 278.195   5
   0   4  -5 31.9924 325.571   5
   0  -4   5 356.579 253.175   6
   0  -4   5 129.809 58.7456   7
   0  -4   5 28.7914 262.595   3
   0   4  -5 486.308 369.906   6
   0  -4   5 1.39507 140.515   4
   0   4  -4 40731.0 1962.31   5
   0  -4   4 43429.5 1951.95   3
   0   4  -4 47007.3 2127.85   6
   0  -4   4 42320.8 962.040   7
   0  -4   4 44881.0 1506.33   4
   0  -4   3 491.470 310.255   3
   0  -4   3 765.425 171.985   7
   0   4  -3 779.235 330.425   6
   0   4  -3 48.7164 302.247   5
   0  -4   3 484.438 188.526   4
   0   4  -2 122065. 2961.41   5
   0  -4   2 122906. 2179.65   7
   0   4  -2 127748. 3062.10   6
   0  -4   2 130825. 2464.96   4
   0  -4   2 126495. 3011.14   3
   0  -4   1 510.967 209.592   5
   0   4  -1 649.694 271.923   5
   0   4  -1 691.297 210.684   4
   0  -4   1 1069.11 255.905   4
   0   4  -1 395.601 216.829   2
   0  -4   1 595.655 164.681   7
   0   4   0 95413.9 2200.16   5
   0  -4   0 95484.2 2138.68   4
   0   4   0 91991.3 2224.60   4
   0  -4   0 94718.9 2149.21   5
   0   4   0 88924.1 2359.40   2
   0  -4  -1 57420.7 1702.36   4
   0  -4  -1 53748.0 1457.19   5
   0   4   1 53258.9 1777.36   4
   0   4   1 56353.7 1531.47   5
   0   4   1 55344.9 1810.76   2
   0   4   2 143177. 2146.90   5
   0  -4  -2 142427. 2605.60   2
   0  -4  -2 145751. 2798.87   4
   0  -4  -2 137295. 2015.05   5
   0   4   2 148738. 2927.57   2
   0   4   3 13984.7 907.639   2
   0   4   3 13844.1 568.849   5
   0  -4  -3 14672.6 936.741   4
   0  -4  -3 13598.4 809.903   2
   0   4   4 5868.90 604.555   2
   0  -4  -4 5966.49 643.681   4
   0   4   4 6471.75 301.882   5
   0   4   5 270.894 189.390   2
   0  -4  -5 518.486 249.412   4
   0  -4  -6 30024.1 1540.38   4
   0   4   6 27234.7 1357.52   2
   0   4   6 26343.5 1471.34   4
   0   4   7 448.190 220.571   4
   0   4   7 1316.03 380.990   2
   0   4   7 934.514 453.011   3
   0  -4  -7 460.043 277.291   3
   0  -4  -7 769.370 382.267   4
   0  -4  -8 51027.6 2596.10   3
   0   4   8 56428.8 2412.64   3
   0   4   8 54173.7 728.323   5
   0  -4  -8 56938.0 2359.46   4
   0   4   8 52905.5 2218.47   4
   0   4   9-34.6922 68.2508   5
   0   4   9-273.299 326.998   3
   0  -4  -9-81.8612 257.655   4
   0   4  10 9772.44 478.028   5
   0  -4 -10 9528.87 1088.34   4
   0   4  10 10586.1 1123.83   3
   0   4  11-559.523 357.662   3
   0  -4 -11 86.4471 237.664   4
   0  -4 -12 1651.39 550.589   4
   0   4  12 427.763 319.038   3
   0   4  13-536.823 377.892   3
   0  -4 -13 410.429 340.321   4
   0  -4 -14 2000.16 654.766   4
   0   5 -11-34.6331 283.225   5
   0   5 -11 157.193 282.784   6
   0  -5  11-361.532 366.291   3
   0   5 -10 4503.15 932.074   5
   0   5 -10 4478.29 1033.50   6
   0  -5  10 4501.81 981.343   3
   0   5  -9 659.074 545.016   6
   0  -5   9 6.46013 263.397   3
   0   5  -9 473.135 373.755   5
   0  -5   9-207.795 209.334   4
   0  -5   8 25038.9 1909.60   3
   0   5  -8 22097.5 1852.64   5
   0  -5   8 21842.4 1254.33   4
   0   5  -8 24813.3 2110.32   6
   0  -5   7 1248.31 340.103   4
   0  -5   7 594.580 379.745   3
   0   5  -7 1053.12 470.046   6
   0   5  -7 1543.84 540.918   5
   0   5  -6 14726.8 1465.69   6
   0   5  -6 16411.5 1486.06   5
   0  -5   6 15687.8 1017.50   4
   0  -5   6 14371.0 1355.93   3
   0  -5   5 2303.74 223.618   7
   0   5  -5 2357.80 584.013   6
   0  -5   5 2505.37 408.801   4
   0  -5   5 2656.77 570.241   2
   0  -5   5 2141.86 529.405   3
   0   5  -5 1796.22 539.502   5
   0  -5   4 56188.2 2412.44   3
   0  -5   4 59680.8 2448.19   5
   0  -5   4 54956.7 1338.54   7
   0  -5   4 58438.3 1853.37   4
   0   5  -4 56397.7 2519.45   6
   0   5  -4 54104.5 2449.67   5
   0  -5   4 57692.8 2453.85   2
   0  -5   4 59618.3 2456.80   6
   0   5  -3 7518.66 886.743   6
   0  -5   3 7165.32 652.795   4
   0  -5   3 6674.27 807.813   6
   0  -5   3 7380.81 873.768   3
   0  -5   3 7551.57 848.214   2
   0   5  -3 6152.35 804.045   5
   0  -5   3 6922.99 553.881   7
   0  -5   3 6778.98 800.553   5
   0   5  -2 41910.1 1920.52   5
   0  -5   2 44484.4 876.082   1
   0  -5   2 42752.3 1957.67   6
   0  -5   2 43729.7 1503.43   7
   0  -5   2 45422.5 1910.26   5
   0   5  -2 45575.3 2015.05   6
   0  -5   2 44308.4 1983.91   3
   0  -5   2 44855.6 1604.02   4
   0  -5   1 966.677 248.764   7
   0   5  -1 1318.27 297.943   4
   0   5  -1 1329.96 367.695   2
   0   5  -1 2046.49 427.533   5
   0  -5   1 1222.77 298.082   4
   0  -5   1 1782.60 366.311   5
   0  -5   0 19025.4 1084.12   4
   0   5   0 17980.9 1089.84   5
   0   5   0 19062.0 1248.47   2
   0   5   0 17922.2 1137.35   4
   0  -5   0 19567.9 1097.64   5
   0   5   1 10295.1 900.528   2
   0  -5  -1 8447.91 665.386   5
   0   5   1 8453.66 692.278   5
   0  -5  -1 8958.97 761.444   4
   0   5   2 64078.2 2180.10   2
   0   5   2 60931.9 1115.21   1
   0   5   2 64625.1 1706.64   5
   0  -5  -2 62347.3 1590.64   5
   0  -5  -2 66964.6 2081.98   4
   0   5   3 22819.0 894.215   5
   0   5   3 25233.2 1384.00   2
   0  -5  -3 23911.8 1298.50   4
   0  -5  -4 146928. 3298.09   4
   0   5   4 144440. 3305.48   2
   0   5   4 140227. 1864.28   5
   0   5   5 1721.91 152.269   5
   0  -5  -5 1502.32 410.151   4
   0   5   5 1674.87 409.923   2
   0  -5  -6 51619.7 2197.93   3
   0   5   6 51405.9 2246.40   4
   0  -5  -6 57004.6 2224.97   4
   0   5   6 49191.0 2020.82   2
   0   5   7 99.6372 162.215   4
   0   5   7 127.790 245.445   2
   0  -5  -7-70.5117 233.547   3
   0  -5  -7 71.7004 318.428   4
   0  -5  -8 17634.5 1372.59   4
   0   5   8 15388.5 1188.10   2
   0  -5  -9 179.760 326.334   4
   0   5   9-43.6625 230.505   2
   0   5  10 194.073 178.699   2
   0  -5 -10 322.232 247.130   4
   0   5  11 912.295 486.985   3
   0   5  11 767.590 330.065   2
   0  -5 -11 915.996 415.782   4
   0   5  12 5022.85 916.846   3
   0   5  12 6153.01 845.535   2
   0  -5 -12 6790.33 1054.13   4
   0   5  13-355.303 362.804   3
   0   5  13 869.772 380.654   2
   0  -5 -13 480.005 369.858   4
   0   5  14 3118.06 660.466   2
   0  -5 -14 2282.62 698.487   4
   0   5  15-272.111 314.098   2
   0   6 -10 3011.54 837.445   6
   0   6 -10 4054.39 991.679   5
   0  -6  10 3754.74 909.949   3
   0   6  -9-5.68673 310.249   6
   0  -6   9 1309.56 614.274   3
   0   6  -9 918.750 421.601   5
   0   6  -8 14517.4 1604.53   5
   0   6  -8 15733.4 1771.86   6
   0  -6   8 14948.9 1591.31   3
   0  -6   8 14809.9 1041.20   4
   0  -6   7 5013.73 608.700   4
   0   6  -7 4253.73 927.069   6
   0   6  -7 3608.11 813.567   5
   0  -6   7 4310.45 855.139   3
   0  -6   6 27392.6 1954.25   3
   0  -6   6 28858.1 1437.24   4
   0   6  -6 27775.1 2083.41   6
   0   6  -6 25182.6 1970.53   5
   0  -6   5 669.527 407.292   3
   0   6  -5 508.713 307.425   6
   0  -6   5 482.982 128.615   7
   0  -6   5 437.170 227.493   4
   0   6  -5 619.463 402.702   5
   0   6  -4 5884.61 895.250   6
   0  -6   4 6730.14 694.428   4
   0  -6   4 6193.50 895.823   3
   0   6  -4 5785.98 876.951   5
   0  -6   4 6488.84 536.047   7
   0  -6   3 910.207 168.974   1
   0  -6   3 869.788 152.970   1
   0  -6   3 834.220 345.891   2
   0  -6   3 838.692 375.125   3
   0  -6   3 704.124 228.954   7
   0  -6   3 539.393 252.577   6
   0   6  -3 743.351 354.450   6
   0  -6   3 1206.40 410.302   5
   0   6  -3 538.303 332.639   5
   0  -6   3 790.333 283.103   4
   0  -6   2 1027.62 348.286   6
   0  -6   2 518.080 320.021   3
   0  -6   2 1246.26 308.244   7
   0  -6   2 638.742 256.014   5
   0  -6   2 1136.86 330.331   4
   0  -6   2 967.394 356.374   2
   0   6  -2 1024.64 370.433   5
   0  -6   1-219.927 224.098   6
   0  -6   1-41.4665 172.804   2
   0   6  -1 157.036 243.728   5
   0  -6   1-102.184 132.920   7
   0  -6   1-17.3909 197.650   4
   0  -6   1-87.2610 222.307   5
   0  -6   0 50684.0 2251.02   6
   0  -6   0 54453.9 1985.15   4
   0  -6   0 51073.0 1998.03   7
   0  -6   0 49281.9 2067.04   2
   0   6   0 49801.8 2221.42   2
   0   6   0 50412.8 2007.14   5
   0  -6   0 53404.0 1985.60   5
   0  -6  -1 17803.5 1318.42   6
   0   6   1 15930.1 1239.03   4
   0   6   1 18405.9 1117.21   5
   0  -6  -1 17826.7 1062.95   5
   0   6   1 16406.4 1275.57   2
   0  -6  -1 17144.2 1135.48   4
   0  -6  -1 18038.4 1199.37   2
   0   6   2 122594. 1179.94   1
   0  -6  -2 126088. 3077.53   2
   0   6   2 126015. 1277.72   1
   0   6   2 123444. 2665.10   5
   0   6   2 123301. 3564.33   4
   0  -6  -2 132341. 3194.24   4
   0  -6  -2 120024. 2491.09   5
   0   6   2 128468. 3472.03   2
   0  -6  -3 21446.8 1243.93   2
   0   6   3 19932.8 1462.59   4
   0   6   3 20973.9 1000.53   5
   0   6   3 19100.1 1344.70   2
   0  -6  -3 21514.7 1331.48   4
   0   6   4 55212.8 2279.57   2
   0  -6  -4 56134.0 1995.34   2
   0   6   4 54498.3 1405.87   5
   0  -6  -4 56348.4 2206.20   4
   0   6   4 55466.3 2463.73   4
   0  -6  -5 689.016 273.157   3
   0  -6  -5 412.693 281.885   4
   0   6   5 930.730 352.735   2
   0   6   5 472.923 125.763   5
   0   6   5 139.743 171.744   4
   0  -6  -6 9821.01 1006.36   4
   0   6   6 9500.01 985.917   2
   0   6   7-113.743 292.604   2
   0  -6  -7-156.543 265.530   4
   0  -6  -8 8375.04 987.593   4
   0   6   8 8982.34 991.532   2
   0   6   9 68.0674 242.530   2
   0  -6  -9 211.483 404.340   4
   0   6  10 18302.8 1461.70   2
   0  -6 -10 21973.1 1714.33   4
   0  -6 -11-265.506 270.345   4
   0   6  11 451.880 328.947   2
   0   6  12 4920.70 812.912   2
   0  -6 -12 4778.24 884.051   4
   0   6  13 26.1014 180.033   2
   0  -6 -13 121.870 302.670   4
   0   6  14 2753.67 642.470   2
   0  -6 -14 2832.87 761.692   4
   0   7  -9 523.834 480.244   6
   0   7  -9-323.243 359.582   5
   0  -7   9 246.647 336.138   3
   0   7  -8 4753.75 1002.80   6
   0   7  -8 4569.43 1004.45   5
   0  -7   8 5455.01 1066.05   3
   0   7  -7 107.442 319.422   6
   0   7  -7-471.369 308.046   5
   0  -7   7 376.392 242.019   4
   0  -7   7 407.535 420.221   3
   0  -7   6 6610.60 739.736   4
   0  -7   6 7455.33 694.977   1
   0   7  -6 6228.92 1036.26   5
   0  -7   6 6641.51 1058.52   3
   0   7  -6 6957.26 1153.42   6
   0   7  -5 128.619 263.508   5
   0  -7   5 190.326 173.397   1
   0  -7   5 17.4092 218.984   4
   0  -7   5-315.503 405.951   3
   0  -7   5 303.270 142.107   1
   0   7  -5-129.674 309.412   6
   0  -7   4 26529.4 1208.06   7
   0  -7   4 25522.9 1429.49   4
   0  -7   4 27291.1 1958.08   3
   0   7  -4 26140.2 1947.47   5
   0   7  -4 25490.2 1941.37   6
   0  -7   4 24539.9 866.429   1
   0  -7   4 26639.5 933.453   1
   0  -7   3 6181.18 738.122   4
   0  -7   3 6455.87 960.267   3
   0  -7   3 5492.75 616.522   7
   0   7  -3 5887.97 940.934   5
   0  -7   2 18733.8 1556.67   3
   0  -7   2 18748.6 1230.86   4
   0  -7   2 18329.1 1214.32   7
   0   7  -2 15613.8 1384.58   5
   0  -7   1 1643.78 419.241   7
   0   7  -1 2153.25 507.607   5
   0  -7   1 2398.07 480.237   4
   0  -7   1 2674.20 537.335   5
   0  -7   0 19016.9 1274.62   5
   0  -7   0 19972.7 1301.21   4
   0   7   0 18081.9 1484.36   2
   0  -7   0 19285.6 1530.09   6
   0  -7   0 20687.9 1391.82   7
   0   7   0 18595.3 1335.76   5
   0   7   0 20067.6 1493.59   4
   0  -7  -1 992.551 348.763   2
   0   7   1 377.629 248.671   5
   0   7   1 1379.48 439.312   4
   0  -7  -1 673.913 353.685   6
   0   7   1 590.008 306.322   2
   0  -7  -1 756.979 353.507   4
   0  -7  -1 887.234 286.341   5
   0  -7  -2 12853.8 1073.71   2
   0   7   2 11017.0 916.341   5
   0  -7  -2 11579.0 859.082   5
   0   7   2 13045.2 1234.11   2
   0   7   2 12574.4 1238.11   4
   0  -7  -2 11581.3 1173.87   6
   0  -7  -2 13032.6 1088.54   4
   0  -7  -3 229.846 286.511   4
   0  -7  -3-277.036 198.472   2
   0   7   3 185.849 287.288   4
   0   7   3 344.253 184.016   5
   0   7   3 246.663 106.478   1
   0   7   3 207.822 261.556   2
   0   7   3 38.0546 71.9765   1
   0  -7  -4 6194.37 794.896   4
   0   7   4 6208.93 555.123   5
   0  -7  -4 6789.50 757.307   2
   0   7   4 5986.33 862.316   2
   0   7   4 6415.29 545.064   1
   0   7   5 13563.7 678.752   5
   0   7   5 13676.3 1272.51   2
   0  -7  -5 12915.3 1185.74   4
   0  -7  -6 9973.70 1078.10   4
   0   7   6 8746.83 1029.44   2
   0  -7  -7 786.340 370.644   4
   0   7   7 754.116 413.592   2
   0   7   8 35038.2 2098.02   2
   0  -7  -8 37887.3 2158.12   4
   0   7   9 29.8890 302.623   2
   0  -7  -9 85.1454 248.721   4
   0  -7 -10 10788.4 1248.23   4
   0   7  10 11356.2 1243.45   2
   0   7  11-263.131 277.114   2
   0  -7 -11 32.1465 242.840   4
   0   7  12 2195.56 580.317   2
   0  -7 -12 2295.61 672.358   4
   0   7  13-357.783 305.305   2
   0  -7 -13 39.9408 254.869   4
   0   7  14 580.878 379.597   2
   0  -8   8 750.994 390.838   3
   0   8  -8 871.345 448.265   6
   0   8  -7 574.711 424.707   6
   0  -8   7 461.938 425.861   3
   0   8  -7 450.201 422.465   5
   0   8  -6 12253.0 1555.06   6
   0   8  -6 12821.5 1598.70   5
   0  -8   6 15429.5 1687.10   3
   0   8  -5 2394.73 657.734   5
   0  -8   5 2051.38 447.549   4
   0  -8   5 2536.15 695.752   3
   0  -8   4 17479.0 1693.75   3
   0  -8   4 18450.8 1298.56   4
   0   8  -4 18591.9 1753.39   5
   0  -8   3 24.0650 110.271   7
   0  -8   3 170.382 195.574   4
   0   8  -3 164.266 216.189   5
   0  -8   2 15562.3 1213.60   7
   0  -8   2 17827.9 1614.26   3
   0  -8   2 17474.1 1286.34   4
   0   8  -2 18277.8 1600.69   5
   0  -8   1 173.308 177.888   7
   0  -8   1 215.306 252.045   4
   0   8  -1 273.727 306.695   5
   0  -8   0 5128.79 712.749   5
   0  -8   0 4143.31 691.669   7
   0  -8   0 4292.34 685.589   4
   0   8   0 4075.53 743.227   4
   0   8   0 4152.33 832.032   2
   0   8   0 4548.38 731.663   5
   0   8   1 887.237 354.346   4
   0   8   1 363.453 271.660   5
   0  -8  -1 430.865 222.474   7
   0  -8  -1-34.6430 132.499   5
   0   8   1 544.397 378.414   2
   0  -8  -1 265.176 246.271   4
   0  -8  -2 5670.21 798.943   4
   0   8   2 5685.59 927.272   2
   0   8   2 5759.67 703.616   5
   0  -8  -2 6021.51 680.126   5
   0   8   3 255.409 293.810   2
   0   8   3-95.2542 175.838   5
   0  -8  -3 15.3112 336.892   4
   0   8   4 16986.9 816.871   1
   0   8   4 19098.1 1057.43   5
   0   8   4 16529.7 723.376   1
   0   8   4 17371.6 1551.81   2
   0  -8  -4 18219.5 1428.78   4
   0   8   5 5189.38 872.483   2
   0  -8  -5 6167.99 877.328   4
   0   8   5 6210.33 534.898   5
   0   8   5 5775.01 576.452   1
   0   8   6 16511.9 1522.99   2
   0  -8  -6 16054.8 1404.43   4
   0   8   7 49.4025 226.393   2
   0  -8  -7 268.291 294.189   4
   0   8   8 4239.86 813.769   2
   0  -8  -8 3824.59 761.026   4
   0  -8  -9 342.711 363.325   4
   0   8   9-82.5436 191.009   2
   0   8  10 2585.80 656.186   2
   0  -8 -10 2097.41 629.337   4
   0  -8 -11-198.851 351.082   4
   0   8  11 150.122 246.420   2
   0   8  12 1786.92 574.330   2
   0  -8 -12 1767.84 551.257   4
   0   8  13-422.219 395.584   2
   0  -9   6 1361.96 606.198   3
   0   9  -6 405.708 380.242   5
   0  -9   5-69.2761 306.597   3
   0   9  -5-186.327 215.863   5
   0  -9   4 11780.5 1505.10   3
   0   9  -4 10906.9 1439.16   5
   0  -9   4 11488.0 1083.80   4
   0  -9   3 203.733 313.967   3
   0  -9   3 165.778 237.553   4
   0   9  -3-17.4200 298.684   5
   0  -9   2 10215.9 1050.52   4
   0  -9   2 10972.5 1396.97   3
   0   9  -2 11331.7 1328.35   5
   0  -9   1 1532.41 448.843   7
   0  -9   1 924.964 378.962   4
   0   9  -1 621.745 375.447   5
   0   9   0 5808.88 871.992   5
   0  -9   0 5024.64 762.490   4
   0  -9  -1 2200.49 554.076   4
   0   9   1 1368.00 573.386   2
   0   9   1 1258.49 438.211   5
   0   9   2 32773.2 1792.56   5
   0   9   2 35661.1 2406.72   2
   0  -9  -2 35121.8 2021.66   4
   0  -9  -3-20.5400 280.986   4
   0   9   3 57.9339 328.790   2
   0   9   3-185.548 259.584   5
   0  -9  -4 16358.8 1443.92   4
   0   9   4 18160.6 1721.29   2
   0   9   4 15729.3 1045.43   5
   0   9   5 30.9388 120.478   5
   0  -9  -5-193.060 307.730   4
   0   9   5 2.66820 90.2553   1
   0  -9  -6 949.468 478.616   4
   0   9   6 1685.75 562.853   2
   0  -9  -7 1414.62 538.510   4
   0   9   7 2326.27 640.462   2
   0  -9  -8 1854.34 577.438   4
   0   9   8 1860.21 587.567   2
   0   9   9 192.436 318.073   2
   0  -9  -9 447.772 403.091   4
   0  -9 -10 3008.09 768.962   4
   0   9  10 3326.44 793.009   2
   0   9  11 396.872 353.093   2
   0   9  12 3827.80 892.253   2
   0 -10   4 4238.03 948.238   3
   0  10  -4 3251.73 810.626   5
   0 -10   3-311.957 411.936   3
   0 -10   3 64.1386 228.874   4
   0  10  -3-29.0533 241.996   5
   0 -10   2 2655.21 602.407   4
   0 -10   2 3060.53 816.557   3
   0  10  -2 2440.59 656.406   5
   0  10  -1-23.9038 307.480   5
   0 -10   1-302.911 244.097   4
   0  10   0 14851.6 1432.06   5
   0 -10   0 13902.8 1334.52   4
   0  10   1 5654.07 1056.92   2
   0  10   1 5643.98 844.380   5
   0 -10  -1 5147.70 842.913   4
   0 -10  -2 5745.33 914.706   4
   0  10   2 4829.07 745.915   5
   0  10   2 5889.76 1093.09   2
   0  10   3 3149.90 806.297   2
   0  10   3 3223.93 556.648   5
   0 -10  -3 2744.17 677.417   4
   0 -10  -4 7486.77 1077.10   4
   0  10   4 6613.80 741.404   5
   0  10   4 8151.40 1271.73   2
   0  10   5 43.4929 347.004   2
   0 -10  -5-156.722 301.057   4
   0 -10  -6 5195.07 941.695   4
   0  10   6 5670.69 1070.86   2
   0  10   7-523.900 392.978   2
   0 -10  -7-250.988 302.552   4
   0 -10  -8 3355.50 792.680   4
   0  10   8 4219.32 912.096   2
   0  10   9 447.789 400.390   2
   0 -10  -9-38.6164 331.625   4
   0  10  10 3237.42 865.138   2
   0  10  11-1081.13 547.755   2
   0  11  -3 921.989 470.884   5
   0  11  -2 6906.96 1115.87   5
   0 -11   2 6809.85 949.839   4
   0 -11   1 1178.54 465.999   4
   0  11  -1 912.654 466.138   5
   0 -11   1 1111.77 601.652   3
   0 -11   0 519.299 376.836   4
   0  11   0 100.021 241.749   5
   0  11   1-520.704 293.641   5
   0 -11  -1 172.169 276.959   4
   0  11   2 1401.44 463.947   5
   0  11   2 2467.17 780.098   2
   0 -11  -2 1161.80 484.749   4
   0  11   3 874.839 335.747   5
   0 -11  -3 348.166 373.393   4
   0  11   4 7597.23 1319.93   2
   0 -11  -4 6739.50 1040.25   4
   0  11   5 686.844 579.846   2
   0 -11  -5-42.6425 305.603   4
   0 -11  -6 3047.37 745.463   4
   0  11   6 3789.56 942.030   2
   0  11   7 47.9635 366.487   2
   0  11   8 5008.32 1090.92   2
   0  11   9 1133.97 653.129   2
   0  12  -1-271.057 220.612   5
   0 -12   0 1825.10 543.943   4
   0  12   0 1737.47 577.246   5
   0  12   1 403.063 263.695   5
   0 -12  -1-10.4568 296.058   4
   0 -12  -2 1048.23 473.072   4
   0 -12  -3 403.192 422.885   4
   1 -12  -1-176.678 323.900   4
   1 -12   0-127.548 268.948   4
  -1  11   6 510.217 402.850   2
   1 -11  -5 3518.26 859.089   4
  -1  11   5 2456.15 819.508   2
   1 -11  -4 264.284 366.515   4
  -1  11   4 1841.86 708.347   2
  -1  11   3 2177.70 779.113   2
   1 -11  -3 2095.11 635.952   4
   1 -11  -2 660.263 458.031   4
  -1  11   2 1471.55 587.851   2
  -1  11   1 1347.01 606.049   2
   1 -11  -1 1106.25 468.844   4
   1 -11   0 3901.93 857.707   4
   1 -11   1 4664.65 1056.10   3
   1 -11   1 6529.07 1011.18   4
   1 -11   2 476.734 360.442   4
   1 -11   2-186.693 352.110   3
   1 -11   3 834.179 435.620   4
  -1  10   9 627.479 487.426   2
  -1  10   8-746.950 456.170   2
   1 -10  -8-275.188 394.648   4
  -1  10   7 1685.99 659.847   2
   1 -10  -7 1764.29 625.797   4
  -1  10   6 750.693 399.142   2
   1 -10  -6-941.263 490.177   4
  -1  10   5 8454.57 1355.06   2
   1 -10  -5 5459.57 951.199   4
   1 -10  -4 934.978 476.776   4
  -1  10   4-167.227 338.904   2
   1 -10  -3 15000.9 1498.60   4
  -1  10   3 17743.3 1915.65   2
  -1  10   2 686.329 471.409   2
   1 -10  -2 580.137 394.063   4
  -1  10   1 6134.40 1143.56   2
   1 -10  -1 6512.54 997.666   4
  -1  10   0 1767.38 705.027   2
   1 -10   0 1023.45 473.815   4
  -1  10  -1 1953.06 553.202   5
   1 -10   1 2748.33 630.484   4
   1 -10   2 1411.83 499.540   4
  -1  10  -2 1099.62 466.321   5
   1 -10   2 1196.67 573.388   3
  -1  10  -3 3963.35 872.759   5
   1 -10   3 4253.53 815.715   4
   1 -10   3 4605.89 989.994   3
   1 -10   4 798.675 518.619   3
   1 -10   4-360.996 294.574   4
   1 -10   5 1473.43 619.128   3
  -1   9  11 683.073 506.991   2
  -1   9  10-47.8832 296.732   2
   1  -9 -10 106.788 245.369   4
  -1   9   9 2904.49 808.326   2
   1  -9  -9 2229.67 631.765   4
   1  -9  -8-195.617 290.011   4
  -1   9   8-488.950 475.313   2
  -1   9   7 6218.68 1086.32   2
   1  -9  -7 7494.31 1105.66   4
   1  -9  -6-665.251 390.149   4
  -1   9   6 34.7108 278.309   2
  -1   9   5 24397.8 2062.56   2
   1  -9  -5 19219.3 1652.37   4
  -1   9   4 210.951 357.205   2
   1  -9  -4 198.212 549.403   4
  -1   9   3 8474.19 1231.18   2
   1  -9  -3 8795.46 1116.03   4
   1  -9  -2 158.273 312.412   4
  -1   9   2 539.122 435.910   2
   1  -9  -2 691.931 290.227   5
   1  -9  -1 5124.27 717.952   5
  -1   9   1 4447.72 673.499   5
   1  -9  -1 5238.63 843.620   4
  -1   9   1 4407.10 930.010   2
  -1   9   0 457.047 260.062   5
   1  -9   0 908.873 414.401   4
  -1   9   0 339.348 336.035   2
  -1   9  -1 10580.5 1154.01   5
   1  -9   1 11472.7 1209.46   4
  -1   9  -2 878.098 368.036   5
   1  -9   2 62.3616 343.756   3
   1  -9   2 550.416 316.211   4
  -1   9  -3 16112.9 1598.50   5
   1  -9   3 19344.1 1839.74   3
   1  -9   3 19109.9 1588.87   4
   1  -9   4 511.774 414.941   3
  -1   9  -4 595.338 309.485   5
   1  -9   4 645.860 387.121   4
   1  -9   5 3682.78 870.908   3
   1  -9   5 3482.21 699.767   4
  -1   9  -5 3355.96 784.517   5
   1  -9   6 1004.49 530.256   3
   1  -9   7 2337.17 776.709   3
  -1   8  12 908.312 519.210   2
  -1   8  11 3717.43 856.358   2
   1  -8 -11 3424.01 788.096   4
   1  -8 -10-204.002 303.557   4
  -1   8  10-507.518 396.955   2
  -1   8   9 7779.38 1152.07   2
   1  -8  -9 7005.15 1055.49   4
  -1   8   8-182.125 342.385   2
   1  -8  -8-136.042 348.818   4
  -1   8   7 7973.30 893.820   1
  -1   8   7 8606.44 1184.02   2
   1  -8  -7 8960.73 1111.41   4
   1  -8  -6-131.170 346.600   4
  -1   8   6-163.670 339.715   2
   1  -8  -5 641.374 284.632   4
  -1   8   5 912.781 275.278   1
  -1   8   5 911.306 375.934   2
  -1   8   4-24.9362 282.951   2
   1  -8  -4-177.281 377.943   4
  -1   8   4 72.8018 97.9632   1
  -1   8   3 6383.51 445.841   1
   1  -8  -3 5870.04 865.693   4
  -1   8   3 7124.65 1050.72   2
   1  -8  -3 5521.47 584.056   5
   1  -8  -2 5437.97 815.507   4
  -1   8   2 4526.80 871.555   2
  -1   8   2 3929.26 551.021   5
   1  -8  -2 3974.71 548.244   5
   1  -8  -1 13065.5 1238.21   4
  -1   8   1 12764.4 1045.32   5
  -1   8   1 12831.3 1408.58   2
   1  -8  -1 12561.3 1045.81   5
   1  -8   0 418.840 225.936   7
   1  -8   0-249.213 282.772   4
  -1   8   0 64.3586 184.672   5
  -1   8   0-164.099 389.088   2
   1  -8   0-475.364 253.923   5
  -1   8  -1 29634.1 1821.31   5
  -1   8  -1 32683.6 2238.71   2
   1  -8   1 31528.8 1934.90   7
   1  -8   1 33546.6 1940.26   4
   1  -8   2 3928.11 786.781   3
  -1   8  -2 3151.55 623.975   5
   1  -8   2 3720.62 664.247   4
   1  -8   2 3490.70 638.593   7
   1  -8   3 22026.6 1821.05   3
   1  -8   3 18858.2 1371.38   7
   1  -8   3 22777.3 1605.57   4
  -1   8  -4 427.080 333.582   5
   1  -8   4-252.883 269.645   4
   1  -8   4 490.811 454.733   3
   1  -8   5 9552.41 1058.78   4
  -1   8  -5 8212.43 1173.71   5
   1  -8   5 10394.5 1337.75   3
   1  -8   6-57.4889 244.372   4
  -1   8  -6-529.736 346.055   5
   1  -8   6 47.8912 249.787   3
   1  -8   7 2574.17 757.322   3
  -1   8  -7 1600.40 651.327   6
   1  -8   8 64.4229 297.266   3
  -1   7  13 2675.61 690.040   2
  -1   7  12 454.498 375.357   2
   1  -7 -12 548.076 382.686   4
  -1   7  11 3420.76 751.884   2
   1  -7 -11 3847.88 813.477   4
   1  -7 -10 92.0137 295.190   4
  -1   7  10-359.916 297.023   2
   1  -7  -9 9799.15 1164.50   4
  -1   7   9 11574.6 1296.36   2
  -1   7   8 478.457 343.913   2
   1  -7  -8 997.780 432.629   4
  -1   7   7 522.047 307.934   2
  -1   7   7 962.610 307.880   1
   1  -7  -7 571.196 324.462   4
  -1   7   6-27.2402 331.286   2
  -1   7   6-73.5595 130.162   1
   1  -7  -6-63.7978 262.324   4
  -1   7   5 11384.4 1239.93   2
   1  -7  -5 12044.5 1173.33   4
   1  -7  -4 887.579 408.153   4
  -1   7   4 1073.57 272.217   1
  -1   7   4 1347.69 454.572   2
  -1   7   3 37822.1 2179.93   2
  -1   7   3 36856.1 1289.03   1
   1  -7  -3 35528.3 1343.68   5
   1  -7  -3 36501.8 1966.72   4
  -1   7   2 195.065 97.2670   1
  -1   7   2 57.1549 264.531   2
   1  -7  -2-20.9043 208.649   7
   1  -7  -2 282.718 336.903   4
   1  -7  -2 221.997 166.960   5
  -1   7   2 140.375 249.020   4
  -1   7   2 118.642 143.814   5
   1  -7  -1 24684.8 1586.69   4
   1  -7  -1 23493.3 1333.77   5
  -1   7   1 24670.8 1763.37   2
  -1   7   1 22208.1 1277.85   5
   1  -7  -1 25156.2 1707.68   7
  -1   7   1 23265.9 1717.61   4
  -1   7   0 561.788 279.917   4
   1  -7   0 178.214 190.408   5
   1  -7   0 87.1365 257.271   4
  -1   7   0 537.649 280.441   5
  -1   7   0 89.4933 239.866   2
   1  -7   0 139.773 145.660   7
   1  -7   1 917.723 341.905   4
  -1   7  -1 1734.43 463.965   5
   1  -7   1 1944.75 444.146   5
   1  -7   1 1746.70 464.560   7
  -1   7  -1 1492.45 491.832   2
   1  -7   2 2034.30 497.282   5
   1  -7   2 2074.96 507.867   4
   1  -7   2 1963.36 447.079   7
  -1   7  -2 1865.97 469.642   5
   1  -7   3 14057.7 434.545   1
   1  -7   3 13794.0 1187.34   4
  -1   7  -3 13882.1 1300.48   5
   1  -7   3 13620.2 1094.83   7
   1  -7   3 14098.4 1367.52   3
   1  -7   4 550.652 226.035   7
  -1   7  -4 510.029 297.866   5
   1  -7   4 118.131 105.953   1
   1  -7   4 761.773 417.804   3
   1  -7   4 317.921 260.950   4
   1  -7   5 13500.9 932.331   7
  -1   7  -5 13361.7 1428.00   5
   1  -7   5 13868.6 832.026   1
  -1   7  -5 14091.2 1528.65   6
   1  -7   5 14798.8 1252.42   4
   1  -7   5 13347.8 1411.57   3
   1  -7   6 1070.80 372.316   4
  -1   7  -6 1384.28 497.449   5
   1  -7   6 846.551 266.283   1
  -1   7  -6 820.961 385.107   6
   1  -7   6 842.092 485.678   3
  -1   7  -7 11082.2 1407.00   5
  -1   7  -7 11288.3 1487.74   6
   1  -7   7 10502.0 1082.71   4
   1  -7   7 10626.8 1359.95   3
   1  -7   7 11462.2 974.902   1
  -1   7  -8 580.921 324.100   6
   1  -7   8 546.854 416.643   3
   1  -7   8 290.344 242.035   4
  -1   7  -9 1151.66 519.957   6
   1  -7   9 2160.67 687.680   3
   1  -7  10-599.251 438.528   3
  -1   6  14 529.580 362.149   2
  -1   6  13 2227.24 602.670   2
   1  -6 -13 1638.15 579.500   4
  -1   6  12 657.705 356.705   2
   1  -6 -12-49.6760 202.239   4
  -1   6  11 4717.17 811.618   2
   1  -6 -11 4141.38 821.482   4
   1  -6 -10 183.170 319.782   4
  -1   6  10-33.3711 254.008   2
   1  -6  -9 6552.60 932.977   4
  -1   6   9 5232.46 831.498   2
   1  -6  -8 1611.06 489.277   4
  -1   6   8 2469.64 592.538   2
   1  -6  -7 29219.1 1795.85   4
  -1   6   7 28961.6 1838.93   2
  -1   6   6 438.807 345.994   2
   1  -6  -6 308.160 336.231   4
   1  -6  -5 69804.4 2614.20   4
   1  -6  -5 65426.0 2444.29   3
  -1   6   5 65836.1 2693.96   2
  -1   6   5 65375.1 2844.06   4
   1  -6  -4 2071.12 530.178   4
  -1   6   4 1467.04 463.245   2
  -1   6   4 1803.85 475.919   4
  -1   6   4 1666.54 333.547   1
   1  -6  -4 1175.82 359.954   3
   1  -6  -3 63394.8 2392.91   4
   1  -6  -3 57552.2 1491.51   5
   1  -6  -3 59659.1 2559.71   7
   1  -6  -3 60575.6 2156.86   2
  -1   6   3 56980.4 2552.92   4
  -1   6   3 63417.5 2574.18   2
  -1   6   3 58592.0 1675.02   1
   1  -6  -2-50.7206 152.918   7
  -1   6   2 278.969 230.638   4
   1  -6  -2 89.9938 233.056   4
  -1   6   2 392.539 172.909   5
   1  -6  -2 570.521 255.291   2
   1  -6  -2 250.122 145.818   5
  -1   6   2 251.624 98.3217   1
  -1   6   2 169.793 292.668   2
  -1   6   1 53.9038 210.094   4
   1  -6  -1 147.549 165.847   7
   1  -6  -1 144.207 187.973   2
   1  -6  -1-534.746 272.152   6
  -1   6   1 156.381 60.8937   1
   1  -6  -1-0.82900 166.230   5
  -1   6   1-84.4448 200.330   2
  -1   6   1 8.47651 144.930   5
   1  -6  -1 17.0330 248.177   4
   1  -6   0 3891.36 598.931   2
  -1   6   0 4755.07 705.460   4
   1  -6   0 4486.38 652.231   4
   1  -6   0 5082.16 748.210   6
   1  -6   0 4762.65 609.780   5
  -1   6   0 3675.40 548.937   5
   1  -6   0 5942.27 755.125   7
  -1   6   0 4584.45 718.873   2
  -1   6  -1 27938.2 1747.24   2
   1  -6   1 29620.9 1605.74   7
   1  -6   1 30549.7 1622.53   4
  -1   6  -1 29512.9 1576.36   5
   1  -6   1 28893.6 1562.91   5
   1  -6   1 27896.7 1769.35   6
   1  -6   1 32313.7 1706.46   2
   1  -6   2 6961.96 788.636   4
  -1   6  -2 7036.02 887.516   2
   1  -6   2 7861.07 877.440   5
   1  -6   2 7149.79 909.834   6
   1  -6   2 7937.71 887.942   2
  -1   6  -2 6945.56 815.912   5
   1  -6   2 6304.85 721.802   7
   1  -6   2 6640.89 321.192   1
  -1   6  -3 26009.6 1667.61   5
   1  -6   3 26736.6 1679.11   2
   1  -6   3 27183.8 1703.72   5
   1  -6   3 27053.3 1552.53   4
   1  -6   3 24485.5 1339.70   7
   1  -6   3 26312.3 1700.97   3
   1  -6   3 25973.4 891.365   1
   1  -6   4 498.874 326.753   3
   1  -6   4 289.855 246.744   4
  -1   6  -4 612.921 362.680   5
   1  -6   4 232.671 147.660   7
  -1   6  -4 887.940 378.236   6
   1  -6   4 446.684 173.157   1
  -1   6  -5 11507.0 1251.25   5
   1  -6   5 12400.9 1083.77   4
  -1   6  -5 14692.6 1480.18   6
   1  -6   5 13650.4 1301.79   3
   1  -6   5 13512.0 891.338   1
   1  -6   5 12800.4 841.310   7
  -1   6  -6-514.218 326.244   6
   1  -6   6 154.857 160.929   1
   1  -6   6-95.5288 358.083   3
   1  -6   6 88.8218 76.7157   7
   1  -6   6-3.82855 255.919   4
  -1   6  -6-427.100 334.119   5
   1  -6   7 11233.3 1274.44   3
  -1   6  -7 10298.7 1371.53   6
   1  -6   7 9481.89 1007.29   4
  -1   6  -7 12321.6 1408.34   5
   1  -6   7 10767.4 953.048   1
   1  -6   8-65.4980 310.886   3
   1  -6   8 18.0475 252.102   4
   1  -6   8 337.936 278.937   1
  -1   6  -8 484.931 339.415   6
  -1   6  -8-28.2055 312.937   5
   1  -6   9 4846.57 736.838   4
   1  -6   9 6011.66 1061.95   3
   1  -6   9 6907.98 898.670   1
  -1   6  -9 3590.42 920.967   6
   1  -6  10 865.686 467.418   3
   1  -6  10-44.6950 309.752   1
   1  -6  11 344.265 249.882   3
  -1   5  14 268.454 332.228   2
   1  -5 -14 314.325 418.842   4
   1  -5 -13 3613.92 803.440   4
  -1   5  13 3847.36 842.658   3
  -1   5  13 5410.83 874.353   2
   1  -5 -12-169.802 298.506   4
  -1   5  12 89.7623 250.573   2
  -1   5  12 57.2139 249.199   3
  -1   5  11 2243.11 645.141   3
  -1   5  11 3498.50 670.229   2
   1  -5 -11 3212.61 687.570   4
   1  -5 -10 695.043 395.432   4
  -1   5  10-347.831 439.923   3
  -1   5  10 641.003 339.458   2
  -1   5   9 27418.6 1727.93   2
   1  -5  -9 31455.9 1912.01   4
  -1   5   8 608.419 320.449   2
   1  -5  -8 600.839 337.820   4
  -1   5   7 46094.5 2262.53   4
  -1   5   7 47184.6 2178.58   2
   1  -5  -7 50992.9 2253.46   4
   1  -5  -6 2925.75 567.960   4
   1  -5  -6 1994.99 485.922   3
  -1   5   6 2844.62 609.863   2
  -1   5   6 3554.78 668.790   4
  -1   5   5 21613.0 1410.50   2
  -1   5   5 20070.9 1450.14   4
   1  -5  -5 21641.2 1362.62   3
   1  -5  -5 20342.9 1341.55   4
  -1   5   4 742.102 331.469   2
   1  -5  -4 962.568 301.193   3
   1  -5  -4 757.524 311.282   4
  -1   5   4 1039.60 264.294   1
  -1   5   3 26521.2 1513.56   2
  -1   5   3 25229.9 1087.54   1
   1  -5  -3 27023.2 872.669   5
   1  -5  -3 27592.7 1481.12   4
   1  -5  -2 3762.09 578.892   4
  -1   5   2 5111.60 688.217   2
   1  -5  -2 3592.42 391.319   5
   1  -5  -2 5252.61 699.804   7
  -1   5   2 4119.16 391.533   1
  -1   5   1 183015. 2129.63   1
  -1   5   1 184597. 3009.65   5
   1  -5  -1 188875. 3743.43   4
   1  -5  -1 186344. 3090.51   5
   1  -5  -1 183196. 3897.37   7
  -1   5   1 180946. 3880.42   2
  -1   5   0 1683.08 402.421   2
  -1   5   0 2324.33 188.804   1
   1  -5   0 1548.00 345.324   7
   1  -5   0 2121.69 377.503   5
  -1   5   0 2183.12 381.579   5
   1  -5   0 1601.69 389.764   4
   1  -5   1 24157.6 1329.28   5
   1  -5   1 24541.6 1368.44   4
   1  -5   1 24021.1 597.561   1
   1  -5   1 22067.3 1269.87   7
  -1   5  -1 25099.1 1498.00   2
  -1   5  -1 23610.6 1292.06   5
   1  -5   2 429.983 276.122   4
   1  -5   2 462.633 137.345   1
  -1   5  -2 403.584 241.911   2
   1  -5   2 693.333 254.126   7
  -1   5  -2 948.064 314.818   5
   1  -5   2 381.508 202.112   5
   1  -5   3 117072. 2019.48   1
   1  -5   3 122239. 3295.31   2
   1  -5   3 128341. 3448.50   5
   1  -5   3 120672. 3047.67   4
  -1   5  -3 117499. 3485.18   6
  -1   5  -3 108470. 3155.82   5
   1  -5   3 112962. 2602.17   7
   1  -5   3 115289. 3228.63   3
   1  -5   4 159.533 139.293   1
   1  -5   4 367.564 180.793   7
   1  -5   4 147.080 237.719   4
   1  -5   4 549.788 237.247   5
   1  -5   4 436.100 243.664   6
   1  -5   4 208.823 179.266   2
   1  -5   4 50.7688 245.782   3
  -1   5  -4 119.794 237.787   6
  -1   5  -4 185.964 233.731   5
   1  -5   5 34364.7 1926.25   2
  -1   5  -5 33432.2 2075.84   6
   1  -5   5 34934.4 1717.19   4
   1  -5   5 32421.2 1850.53   3
   1  -5   5 32077.7 1376.97   1
  -1   5  -5 32282.4 1930.02   5
   1  -5   5 33447.1 1243.22   7
  -1   5  -6 154.332 211.327   6
   1  -5   6 268.819 238.574   4
  -1   5  -6 210.926 269.925   5
   1  -5   6 42.0145 288.253   3
   1  -5   6 358.778 168.507   7
   1  -5   7 3378.59 706.410   3
   1  -5   7 3296.47 326.328   7
  -1   5  -7 2904.26 742.286   6
  -1   5  -7 3497.83 743.248   5
   1  -5   7 3314.11 577.771   4
   1  -5   8 1.80656 315.407   3
  -1   5  -8 272.154 384.117   5
  -1   5  -8 99.1627 271.267   6
   1  -5   8-719.419 321.632   4
   1  -5   9 9893.56 1272.67   3
  -1   5  -9 8166.74 1293.55   6
   1  -5   9 7747.65 921.462   4
  -1   5 -10-616.873 416.919   6
   1  -5  10 215.476 451.021   3
   1  -5  11 3102.82 769.494   3
  -1   5 -11 2788.58 831.657   6
   1  -4 -14-227.067 292.885   4
   1  -4 -13 4033.84 839.827   4
  -1   4  13 3724.52 818.421   3
   1  -4 -12 368.140 298.175   4
  -1   4  12 499.045 324.742   3
   1  -4 -11 6076.46 906.706   4
  -1   4  11 5989.02 915.383   3
   1  -4 -10 9536.34 1082.60   4
  -1   4  10 9248.28 1094.60   3
   1  -4  -9 24243.3 1621.90   4
  -1   4   9 21099.1 1551.73   3
   1  -4  -8 2511.56 541.881   4
  -1   4   8 3235.31 635.388   3
  -1   4   8 2828.14 553.428   4
   1  -4  -7 6091.90 864.857   3
  -1   4   7 6451.56 817.165   3
   1  -4  -7 6048.39 749.207   4
  -1   4   7 7029.08 845.349   4
  -1   4   6 21397.3 1400.59   4
  -1   4   6 19987.4 1275.46   2
   1  -4  -6 21563.2 1483.55   3
   1  -4  -6 24524.1 1425.24   4
   1  -4  -5 4193.55 600.065   4
   1  -4  -5 3506.07 561.750   3
  -1   4   5 3997.36 578.787   2
  -1   4   5 3168.71 548.525   4
  -1   4   4 2832.84 494.965   2
   1  -4  -4 2922.94 463.692   3
   1  -4  -4 2589.04 464.471   4
  -1   4   3 248704. 4128.06   2
   1  -4  -3 236430. 3650.87   3
   1  -4  -3 249900. 4079.86   4
   1  -4  -3 231760. 1972.90   5
  -1   4   3 227904. 3198.02   1
  -1   4   2 25563.5 957.098   1
  -1   4   2 28181.8 1359.77   2
   1  -4  -2 27065.8 1328.76   4
   1  -4  -2 26646.8 881.987   5
   1  -4  -1 45218.9 1768.43   7
   1  -4  -1 46716.6 1362.64   5
   1  -4  -1 45761.9 1685.30   4
  -1   4   1 45879.1 1104.10   1
  -1   4   1 46322.3 1742.91   2
  -1   4   1 48085.7 1301.40   5
   1  -4   0 1037.55 292.882   4
  -1   4   0 1605.30 305.436   5
  -1   4   0 1389.75 321.390   2
  -1   4   0 1128.13 154.834   1
   1  -4   0 1428.46 319.460   7
   1  -4   0 871.991 230.660   5
  -1   4   0 1371.10 328.287   4
   1  -4   0 1209.14 150.519   1
  -1   4  -1 169682. 3071.62   5
   1  -4   1 158634. 3069.83   5
   1  -4   1 166093. 3220.43   4
   1  -4   1 163086. 3116.53   7
   1  -4   1 162833. 1797.66   1
  -1   4  -1 168621. 3412.63   2
   1  -4   2 675.560 146.096   1
  -1   4  -2 776.383 271.962   2
  -1   4  -2 542.143 246.191   6
   1  -4   2 499.154 239.639   4
   1  -4   2 971.020 296.424   5
  -1   4  -2 1243.10 320.281   5
   1  -4   2 550.857 188.419   7
   1  -4   3 250386. 4327.91   2
   1  -4   3 248894. 3043.60   1
   1  -4   3 255090. 4327.11   3
   1  -4   3 257040. 4134.30   4
  -1   4  -3 248585. 4356.97   5
   1  -4   3 246640. 3468.49   7
   1  -4   4 2685.29 346.965   7
  -1   4  -4 2716.89 381.554   7
   1  -4   4 3213.94 548.378   2
   1  -4   4 2554.06 373.185   1
   1  -4   4 3310.85 566.856   3
  -1   4  -4 2812.94 573.954   6
  -1   4  -4 3135.87 576.001   5
   1  -4   4 2618.71 451.732   4
  -1   4  -5 12099.7 1122.41   5
   1  -4   5 11049.6 1027.04   3
   1  -4   5 11397.5 674.565   7
  -1   4  -5 10571.1 692.930   7
  -1   4  -5 12406.1 1195.86   6
   1  -4   5 12288.0 1072.30   2
   1  -4   5 11832.6 1109.93   5
   1  -4   5 14163.3 1176.07   6
   1  -4   6 94.7788 97.8946   7
   1  -4   6 342.637 225.043   2
   1  -4   6 266.457 223.445   6
   1  -4   6 126.241 306.532   3
  -1   4  -6 278.554 307.846   5
  -1   4  -6 141.769 126.214   7
   1  -4   6-69.0300 224.388   5
  -1   4  -6-43.4644 340.359   6
  -1   4  -7 28880.9 2060.36   6
  -1   4  -7 30660.5 1109.81   7
   1  -4   7 27170.7 1772.45   3
  -1   4  -7 28242.4 1857.37   5
   1  -4   7 28955.0 1832.26   2
  -1   4  -8 75.4424 83.4716   7
   1  -4   8 56.3528 314.247   3
  -1   4  -8 388.845 378.134   6
  -1   4  -8 85.9100 278.536   5
   1  -4   9 24489.0 1860.34   3
  -1   4  -9 28034.8 2270.50   6
   1  -4   9 22765.4 1291.79   4
  -1   4 -10 537.114 409.880   6
   1  -4  10 249.729 366.706   3
   1  -4  11 5397.29 1014.09   3
  -1   4 -11 5335.40 1136.64   6
  -1   4 -12 318.155 435.127   6
   1  -4  12 952.777 520.299   3
   1  -3 -13 4614.40 885.596   4
  -1   3  13 4656.58 877.220   3
   1  -3 -12 1570.49 511.460   4
  -1   3  12 2050.56 600.877   3
   1  -3 -11 5403.06 843.772   4
  -1   3  11 5237.35 839.760   3
  -1   3  10-36.2292 313.930   3
   1  -3 -10-199.789 268.604   4
  -1   3   9 1059.96 433.334   3
   1  -3  -9 1131.78 422.155   4
  -1   3   9 570.417 298.796   4
   1  -3  -8 2368.90 514.032   4
  -1   3   8 2013.44 515.662   3
  -1   3   8 1540.33 364.937   4
   1  -3  -7 22822.4 1366.17   4
  -1   3   7 20992.0 1313.93   4
  -1   3   7 23158.2 1432.70   3
   1  -3  -7 20055.4 1560.55   3
   1  -3  -6 5487.07 655.502   4
   1  -3  -6 4815.13 704.497   3
  -1   3   6 5117.10 654.046   3
  -1   3   6 4988.50 618.235   4
   1  -3  -5 58553.8 1948.43   4
  -1   3   5 59097.1 2056.25   3
  -1   3   4 14006.4 971.120   3
  -1   3   4 13971.5 948.717   4
  -1   3   4 13299.6 892.638   2
   1  -3  -4 14287.4 971.626   3
   1  -3  -4 14297.6 933.898   4
   1  -3  -3 59747.5 1811.29   4
  -1   3   3 59177.8 1787.75   2
   1  -3  -3 55201.4 1668.87   3
   1  -3  -2 34713.0 1348.49   4
  -1   3   2 34536.0 1331.71   2
   1  -3  -2 35369.8 805.147   5
   1  -3  -2 35554.4 1200.67   3
  -1   3   2 34520.8 1085.61   1
   1  -3  -1 158676. 2128.88   5
   1  -3  -1 165796. 3018.42   7
  -1   3   1 157689. 2037.40   1
  -1   3   1 164474. 2832.98   2
   1  -3  -1 164743. 2887.26   4
   1  -3   0 2280.18 364.998   4
  -1   3   0 1874.25 269.248   5
   1  -3   0 2048.66 201.678   1
  -1   3   0 2270.22 220.850   1
   1  -3   0 2114.34 334.874   7
  -1   3   0 2091.03 338.561   4
  -1   3   0 1484.19 290.330   2
   1  -3   0 2116.98 284.072   5
   1  -3   1 8291.56 625.161   7
  -1   3  -1 9756.59 714.807   2
   1  -3   1 7905.21 623.185   5
  -1   3  -1 9242.17 638.051   5
   1  -3   1 9028.81 436.999   1
   1  -3   1 8330.34 671.690   4
  -1   3  -1 9249.03 437.226   1
  -1   3  -1 8444.04 614.449   7
  -1   3  -2 53.0155 167.251   2
  -1   3  -2-23.0473 178.430   6
  -1   3  -2 61.0100 129.583   7
   1  -3   2 66.6348 193.300   3
   1  -3   2 163.367 169.377   4
   1  -3   2-20.5772 95.1630   2
   1  -3   2 17.4946 93.6639   7
   1  -3   2 3.98118 74.0265   1
  -1   3  -3 3898.85 550.427   6
  -1   3  -3 4044.38 543.432   5
   1  -3   3 4244.19 406.104   1
   1  -3   3 4290.23 530.642   3
   1  -3   3 4764.86 543.478   2
   1  -3   3 3966.03 394.625   7
  -1   3  -3 3921.82 418.154   7
   1  -3   4 351.812 220.987   3
   1  -3   4 460.667 158.407   7
   1  -3   4 572.854 244.436   2
  -1   3  -4 382.669 298.490   6
  -1   3  -4 337.384 290.411   5
  -1   3  -4 534.256 179.758   7
   1  -3   5 551306. 4401.97   7
  -1   3  -5 555820. 4720.13   7
  -1   3  -5 548118. 7221.23   6
   1  -3   5 547374. 6546.52   2
  -1   3  -5 569168. 6902.29   5
   1  -3   5 573259. 6553.09   3
   1  -3   6 610.178 305.153   6
  -1   3  -6 1089.57 406.212   5
   1  -3   6 912.069 352.848   3
  -1   3  -6 721.323 358.688   6
   1  -3   6 863.902 305.974   5
  -1   3  -6 952.291 235.344   7
   1  -3   6 804.738 180.959   7
   1  -3   6 784.257 276.445   2
  -1   3  -6 1129.33 393.773   3
   1  -3   7 27047.1 1698.52   5
  -1   3  -7 25112.0 1784.63   6
   1  -3   7 24884.1 1560.87   6
   1  -3   7 25222.8 1608.93   3
  -1   3  -7 22775.2 1627.32   3
  -1   3  -7 24531.7 1037.96   7
  -1   3  -7 23198.7 1577.29   5
   1  -3   8 242.570 161.280   4
  -1   3  -8 37.3281 402.914   6
  -1   3  -8 401.030 145.608   7
   1  -3   8 335.043 362.235   3
  -1   3  -9 16271.4 853.914   7
   1  -3   9 18330.0 1536.07   3
  -1   3  -9 16489.7 1678.41   6
   1  -3   9 14437.8 1008.36   4
   1  -3  10 220.088 362.526   3
   1  -3  10 486.281 198.309   4
  -1   3 -10 241.862 359.174   6
  -1   3 -10 431.376 141.162   7
   1  -3  11 9991.07 1270.54   3
  -1   3 -11 9402.70 1459.71   6
   1  -3  12 560.963 421.402   3
  -1   3 -12 255.839 444.790   6
   1  -3  13 1435.61 668.434   3
  -1   2  13 5008.45 959.415   3
   1  -2 -13 4552.14 1057.28   6
   1  -2 -12 851.207 484.221   6
  -1   2  12 1866.15 604.071   3
   1  -2 -12 1329.95 487.313   4
   1  -2 -11 316.302 231.362   4
  -1   2  11 544.101 392.318   3
  -1   2  10 12932.6 1091.13   4
  -1   2  10 13377.1 851.758   5
   1  -2 -10 13143.2 1225.21   4
  -1   2  10 14159.8 1325.26   3
  -1   2   9 19984.2 970.199   5
  -1   2   9 19374.7 1263.73   4
   1  -2  -9 21316.5 1451.31   4
  -1   2   9 22406.7 1566.03   3
  -1   2   8 6777.36 839.834   3
  -1   2   8 7283.84 745.874   4
   1  -2  -8 7397.63 1033.25   3
  -1   2   8 7803.65 565.473   5
   1  -2  -8 7202.29 806.645   4
  -1   2   7 83793.4 2390.05   4
   1  -2  -7 89344.0 1758.55   5
  -1   2   7 95148.1 2857.81   3
  -1   2   7 88551.3 1688.23   5
   1  -2  -7 90479.2 3299.85   3
   1  -2  -7 95216.6 2667.41   4
   1  -2  -6 6546.45 666.301   4
   1  -2  -6 6638.50 428.384   5
  -1   2   6 7333.96 770.788   3
  -1   2   6 5898.72 614.419   4
  -1   2   5 50225.2 1805.34   3
   1  -2  -5 49600.9 1663.27   4
   1  -2  -5 46688.7 946.475   5
   1  -2  -4 64598.2 1781.07   4
  -1   2   4 67842.3 1946.99   3
   1  -2  -4 64722.3 892.928   5
   1  -2  -3 497.732 190.900   4
  -1   2   3 363.216 154.130   4
  -1   2   3 41.9782 154.729   3
   1  -2  -3 409.826 182.075   3
  -1   2   2 8456.15 603.138   4
   1  -2  -2 9028.28 613.756   4
  -1   2   2 8357.75 529.828   1
   1  -2  -2 8762.07 556.171   3
  -1   2   2 9212.50 606.911   2
  -1   2   1 29037.0 858.145   1
   1  -2  -1 30792.7 1086.72   4
   1  -2  -1 30210.1 712.495   5
  -1   2   1 30937.5 1051.02   2
   1  -2   0-40.3218 122.575   4
   1  -2   0 115.795 71.1867   1
  -1   2   0 78.6189 116.447   7
  -1   2   0 46.8530 64.2734   1
   1  -2   0 229.119 117.853   7
   1  -2   1 310784. 2536.20   1
  -1   2  -1 316038. 3529.01   6
   1  -2   1 319074. 3330.94   7
  -1   2  -1 313723. 2546.66   1
  -1   2  -1 316958. 3305.33   7
   1  -2   1 308630. 3201.46   2
  -1   2  -1 318925. 3371.76   2
   1  -2   1 319705. 3289.48   5
   1  -2   1 318046. 3566.99   6
   1  -2   1 314162. 3518.95   4
   1  -2   2 62.4404 84.6499   1
   1  -2   2 64.3811 124.738   3
  -1   2  -2 128.860 133.447   6
   1  -2   2 119.234 108.581   6
   1  -2   2 140.745 93.2245   7
  -1   2  -2 153.470 134.373   7
   1  -2   2-79.2775 100.981   2
  -1   2  -2-20.5734 151.083   5
  -1   2  -2 29.1653 113.107   2
  -1   2  -3 590845. 5459.98   5
   1  -2   3 566368. 5107.26   2
  -1   2  -3 591829. 5749.44   6
   1  -2   3 561280. 4124.65   7
   1  -2   3 583279. 5087.72   3
  -1   2  -3 586008. 4380.47   7
  -1   2  -3 576570. 5061.66   3
   1  -2   4 173.721 109.888   7
  -1   2  -4 126.099 185.198   6
   1  -2   4 246.438 146.528   2
   1  -2   4-26.9903 193.816   3
  -1   2  -4 674.880 269.403   5
  -1   2  -4 143.081 164.112   3
  -1   2  -4 219.969 118.493   7
  -1   2  -5 7269.19 797.254   6
   1  -2   5 5644.32 636.751   3
   1  -2   5 6496.02 458.979   7
  -1   2  -5 6511.44 497.068   7
  -1   2  -5 6827.42 724.746   5
   1  -2   6 217.292 277.252   3
  -1   2  -6-50.2854 181.812   7
  -1   2  -6 124.283 203.705   3
  -1   2  -6 192.736 291.041   6
   1  -2   6 430.607 235.221   5
  -1   2  -6 458.602 315.656   5
  -1   2  -7 14544.2 814.779   7
  -1   2  -7 14395.4 1284.58   6
   1  -2   7 13437.5 882.999   4
   1  -2   7 13296.6 1115.24   3
   1  -2   7 13849.6 1126.58   5
  -1   2  -7 14021.8 1215.00   3
   1  -2   8 194.738 151.499   4
  -1   2  -8-134.876 343.291   6
   1  -2   8 287.570 251.137   5
  -1   2  -8 164.676 247.487   3
   1  -2   8-101.785 361.489   3
  -1   2  -8-34.0594 121.059   7
   1  -2   9 13322.3 948.623   4
   1  -2   9 14306.2 1303.44   3
  -1   2  -9 15728.2 937.835   7
  -1   2  -9 15834.1 1591.21   6
  -1   2 -10 144.279 136.608   7
  -1   2 -10 221.935 347.834   6
   1  -2  10-35.3152 113.255   4
   1  -2  10 74.5007 251.959   3
  -1   2 -11 16097.4 1843.47   6
   1  -2  11 15573.8 1534.04   3
  -1   2 -11 15028.0 976.287   7
   1  -2  12 3015.97 706.683   3
  -1   2 -12 4530.19 1091.47   6
   1  -2  13 3724.59 872.601   3
  -1   2 -13 3934.41 1106.22   6
   1  -1 -13 2262.24 811.565   6
  -1   1  13 3163.01 817.341   3
  -1   1  12 437.119 376.147   3
   1  -1 -12-373.901 332.875   6
  -1   1  11 31836.2 1588.45   5
   1  -1 -11 29324.3 2464.35   6
  -1   1  11 34376.3 2160.92   3
   1  -1 -11 29228.9 1656.12   7
  -1   1  11 29926.9 1621.60   4
   1  -1 -10 258.108 219.301   4
  -1   1  10-217.574 324.486   3
  -1   1  10-178.009 167.447   4
   1  -1 -10 300.198 462.668   6
  -1   1  10 212.760 143.336   5
  -1   1   9 12942.3 957.950   4
   1  -1  -9 12420.8 1104.16   4
   1  -1  -9 15669.6 1032.28   5
  -1   1   9 16178.6 1355.60   3
   1  -1  -8 8915.55 878.579   4
   1  -1  -8 8239.47 704.861   5
  -1   1   8 7809.11 708.891   4
   1  -1  -8 6829.64 981.723   3
  -1   1   8 8519.96 702.039   5
  -1   1   8 8400.81 953.188   3
   1  -1  -7 39979.6 1654.91   4
   1  -1  -7 40166.6 2214.09   3
  -1   1   7 34668.0 1394.42   4
   1  -1  -7 38866.6 1414.02   5
  -1   1   7 38270.2 1349.41   5
  -1   1   7 39556.1 1876.95   3
  -1   1   6 2368.38 551.578   3
   1  -1  -6 2280.48 355.303   5
   1  -1  -6 2747.68 441.943   4
  -1   1   6 2023.71 325.602   4
  -1   1   6 2188.99 324.240   5
   1  -1  -5 1772.81 324.554   4
  -1   1   5 1786.20 255.995   5
  -1   1   5 1980.20 308.626   4
  -1   1   5 1399.07 328.144   3
   1  -1  -5 1467.58 253.521   5
  -1   1   4 61.0795 85.4020   5
   1  -1  -4 1.02196 157.470   4
  -1   1   4 71.4698 117.204   4
  -1   1   4 127.202 201.826   3
   1  -1  -4 34.3992 96.3020   5
   1  -1  -3 120331. 1509.18   5
   1  -1  -3 126446. 2041.09   4
  -1   1   3 116335. 1956.80   4
  -1   1   3 129753. 2367.19   3
   1  -1  -3 123518. 2481.87   3
   1  -1  -2 3790.72 380.816   3
   1  -1  -2 2488.16 309.963   7
  -1   1   2 3550.34 365.702   3
  -1   1   2 2474.88 284.448   4
   1  -1  -2 2995.70 313.513   4
  -1   1   1 529229. 3889.67   7
   1  -1  -1 526558. 3470.11   1
  -1   1   1 524364. 3570.02   1
   1  -1  -1 520414. 3283.48   3
  -1   1   1 526936. 3207.88   3
   1  -1  -1 529640. 3705.61   4
  -1   1   1 521168. 3762.34   4
   1  -1   0 122.986 70.6778   1
  -1   1   0 145.833 73.3226   1
   1  -1   0 75.2982 47.0772   2
  -1   1   0 118.983 55.1772   2
  -1   1   0 96.5221 89.0149   7
   1  -1   0 82.9746 81.8094   4
  -1   1  -1 525380. 3634.32   7
   1  -1   1 520303. 3599.01   7
  -1   1  -1 524707. 3579.28   6
  -1   1  -1 529424. 3279.75   2
   1  -1   1 524988. 3186.53   2
   1  -1   1 518924. 3626.91   6
   1  -1   2 11.4957 64.7583   2
  -1   1  -2 20.8706 84.1582   7
   1  -1   2 4.18952 94.8625   3
   1  -1   2 3.47018 66.9868   7
  -1   1  -2 35.4343 103.047   6
   1  -1   2-56.8657 98.9972   6
   1  -1   2-33.5662 96.0560   1
  -1   1  -2-33.5306 75.1540   3
  -1   1  -3 952049. 6396.11   6
  -1   1  -3 950913. 5143.07   7
   1  -1   3 938058. 5034.89   7
   1  -1   3 932591. 6098.65   6
  -1   1  -3 956014. 5757.27   3
  -1   1  -4 96.9233 133.075   3
  -1   1  -4 100.699 161.874   6
   1  -1   4 54.1220 178.558   3
  -1   1  -4-19.6152 122.510   7
   1  -1   4-59.3792 106.270   7
   1  -1   4 84.3435 141.839   5
   1  -1   5 61016.0 1876.19   3
  -1   1  -5 65306.1 2135.62   6
  -1   1  -5 61662.4 1531.64   7
  -1   1  -5 59505.7 1940.91   3
   1  -1   5 58097.4 1851.60   5
   1  -1   6 147.748 230.321   3
   1  -1   6 132.594 122.309   4
  -1   1  -6 312.917 211.527   6
  -1   1  -6 122.881 113.457   7
  -1   1  -7 57887.4 2396.46   3
  -1   1  -7 62028.9 2539.71   6
   1  -1   7 59362.3 1798.76   4
   1  -1   7 61773.7 2186.55   5
   1  -1   7 58304.9 2197.23   3
  -1   1  -7 62897.6 1815.93   7
   1  -1   8 2567.02 407.333   4
  -1   1  -8 3667.91 692.559   3
  -1   1  -8 2650.80 605.081   6
   1  -1   8 3298.36 606.476   3
   1  -1   8 3353.43 564.167   5
  -1   1  -8 3637.53 492.494   7
  -1   1  -9 7186.66 1069.78   6
   1  -1   9 6739.28 825.414   5
   1  -1   9 6767.72 891.465   3
  -1   1  -9 7295.25 726.061   7
   1  -1   9 6251.13 656.903   4
   1  -1  10 894.102 268.395   4
  -1   1 -10 1103.30 322.533   7
   1  -1  10 1010.30 444.216   3
  -1   1 -10 774.317 402.434   6
  -1   1 -11 18611.6 1258.19   7
   1  -1  11 17186.9 1182.90   4
  -1   1 -11 19766.8 2014.50   6
   1  -1  11 19344.8 1649.79   3
  -1   1 -12 1490.20 646.052   6
   1  -1  12 662.066 442.369   3
  -1   1 -12 559.698 235.879   7
   1  -1  13 781.401 422.486   3
  -1   1 -13 3311.45 978.402   6
   1  -1  14 1529.64 596.857   3
  -1   0  13 12028.3 1465.59   3
   1   0 -13 10896.2 1743.50   6
  -1   0  12 553.228 494.411   3
   1   0 -12 75.6053 275.807   6
   1   0 -11 5159.27 1070.68   6
  -1   0  11 7068.59 828.005   5
  -1   0  11 6891.66 1049.71   3
   1   0 -11 5287.99 670.389   7
  -1   0  10-237.301 172.084   5
  -1   0  10-31.9792 118.041   4
   1   0 -10 131.895 306.793   6
   1   0 -10-20.1360 184.191   5
   1   0 -10-69.4237 137.273   7
  -1   0  10 294.889 373.362   3
   1   0  -9 6003.77 725.363   5
   1   0  -9 5246.21 965.365   6
  -1   0   9 5260.24 568.032   4
  -1   0   9 5460.18 668.503   5
  -1   0   9 5485.78 859.414   3
  -1   0   8 1598.26 514.627   3
   1   0  -8 2015.02 403.857   5
   1   0  -8 1747.41 525.240   6
  -1   0   8 1644.43 311.106   4
   1   0  -8 1757.67 499.999   3
   1   0  -7 38284.1 1604.11   5
  -1   0   7 38120.7 1317.73   4
   1   0  -7 39494.9 2100.94   6
   1   0  -7 38391.6 2135.11   3
  -1   0   7 38803.8 1896.82   3
   1   0  -7 38773.1 1536.76   4
  -1   0   6 1457.34 310.758   5
  -1   0   6 1261.05 410.250   3
   1   0  -6 1240.23 383.649   6
   1   0  -6 886.470 274.785   4
   1   0  -6 1156.73 306.981   5
  -1   0   6 1202.97 241.841   4
  -1   0   5 245684. 2826.77   4
   1   0  -5 263307. 3591.99   5
  -1   0   5 251581. 3364.33   5
  -1   0   5 262569. 4158.28   3
   1   0  -5 260878. 3206.24   4
  -1   0   4 25055.5 1176.12   3
   1   0  -4 24586.9 906.401   7
  -1   0   4 24100.4 950.161   5
   1   0  -4 25301.1 884.575   4
   1   0  -4 24502.1 995.259   5
  -1   0   4 24768.9 801.859   4
   1   0  -3 214060. 2212.05   4
  -1   0   3 213014. 3017.00   3
   1   0  -3 213267. 3200.42   3
  -1   0   3 201744. 2066.99   4
   1   0  -3 208756. 2412.63   7
  -1   0   3 202731. 2449.91   5
   1   0  -3 208164. 2579.73   5
  -1   0   2 555.037 155.139   3
  -1   0   2 886.014 131.250   4
   1   0  -2 642.823 170.806   3
   1   0  -2 822.446 166.529   5
   1   0  -2 635.748 129.800   7
   1   0  -2 843.656 132.635   4
   1   0  -1 597223. 2853.96   4
   1   0  -1 581722. 3366.71   7
   1   0  -1 599724. 3736.45   1
  -1   0   1 594825. 3339.15   7
  -1   0   1 573774. 3340.18   3
  -1   0   1 591938. 2869.98   4
   1   0   2 51.5795 60.8444   6
  -1   0  -2 0.55164 65.1822   6
   1   0   2 6.30276 79.2412   1
  -1   0  -2 31.8093 65.9273   3
   1   0   2 28.7229 61.2530   7
   1   0   2 41.7109 75.4646   3
   1   0   3 61059.7 1269.03   7
  -1   0  -3 62330.8 1449.95   6
  -1   0  -3 61005.4 1333.37   7
   1   0   3 63695.8 1376.11   3
  -1   0  -3 61032.0 1428.58   3
   1   0   4 266.576 126.172   4
  -1   0  -4 285.153 152.258   6
   1   0   4 248.866 127.331   5
  -1   0  -4 82.1866 82.1006   7
   1   0   4 180.103 188.905   3
  -1   0  -4 376.876 166.669   3
   1   0   5 173983. 3059.37   3
   1   0   5 163434. 2615.25   4
  -1   0  -5 169004. 2683.63   7
  -1   0  -5 175831. 3361.70   3
  -1   0  -5 173047. 3297.14   6
   1   0   5 163141. 2772.41   5
   1   0   6 407.481 183.114   4
  -1   0  -6 422.235 160.303   7
  -1   0  -6 791.622 310.870   6
   1   0   6 498.449 309.453   3
   1   0   6 590.391 200.145   5
   1   0   7 12249.4 839.964   4
  -1   0  -7 16502.3 1301.77   6
  -1   0  -7 14500.8 950.148   7
  -1   0  -7 14397.9 1216.66   3
   1   0   7 13499.2 1035.60   3
  -1   0  -8 652.455 220.881   7
   1   0   8 331.633 325.726   3
  -1   0  -8 559.208 296.620   6
   1   0   8 674.958 237.591   4
   1   0   8 992.586 311.150   5
  -1   0  -8 744.346 352.508   3
   1   0   9 20355.7 1187.90   4
   1   0   9 20672.7 1321.34   5
  -1   0  -9 20995.2 1307.45   7
  -1   0  -9 21749.8 1789.94   6
  -1   0  -9 21712.0 1767.84   3
   1   0   9 22390.1 1534.17   3
  -1   0 -10 5063.05 701.399   7
   1   0  10 4494.96 596.528   4
  -1   0 -10 4973.77 962.121   6
   1   0  10 4481.69 660.727   5
   1   0  10 4699.15 792.990   3
   1   0  11 3184.04 533.290   4
  -1   0 -11 3904.23 938.444   6
  -1   0 -11 3539.87 621.611   7
   1   0  11 3032.12 657.814   3
  -1   0 -12 231.498 197.933   7
  -1   0 -12-29.5101 272.110   6
   1   0  12-327.121 336.769   3
  -1   0 -13 2538.61 563.359   7
  -1   0 -13 2170.49 767.012   6
   1   0  13 2592.50 658.701   3
  -1   0 -14 2489.11 855.998   6
   1   0  14 352.007 253.924   3
  -1  -1  13-628.068 471.028   3
   1   1 -13-1600.11 683.399   6
  -1  -1  12-37.9029 391.176   3
   1   1 -12 578.914 460.686   6
   1   1 -11 17519.4 1435.84   5
  -1  -1  11 17647.5 1665.01   3
   1   1 -11 16445.2 1923.99   6
   1   1 -10 892.625 469.208   6
   1   1 -10 1079.10 253.286   7
  -1  -1  10 891.207 248.370   4
   1   1 -10 769.832 215.126   7
  -1  -1  10 899.664 460.982   3
   1   1 -10 1125.87 424.753   5
   1   1  -9 19344.8 938.741   7
  -1  -1   9 19795.4 1582.02   3
  -1  -1   9 18067.1 1297.75   5
   1   1  -9 18652.9 1380.33   5
  -1  -1   9 18265.5 968.116   4
   1   1  -9 19592.8 959.369   7
   1   1  -9 21102.0 1887.79   6
  -1  -1   8 246.109 351.208   3
   1   1  -8 154.130 116.098   7
  -1  -1   8 87.9349 97.4624   4
   1   1  -8 179.793 116.930   7
   1   1  -8 239.331 282.468   6
  -1  -1   8 305.859 252.457   5
   1   1  -8 187.750 217.034   5
   1   1  -7 31696.2 1062.45   7
  -1  -1   7 33955.7 1115.28   4
   1   1  -7 33328.7 1659.72   5
  -1  -1   7 32820.9 1575.89   5
  -1  -1   7 33584.8 1809.96   3
   1   1  -7 34183.1 2013.24   3
   1   1  -7 37156.1 2078.39   6
   1   1  -6 18148.1 1158.24   5
  -1  -1   6 17313.4 727.993   4
  -1  -1   6 17633.1 1241.65   3
   1   1  -6 18454.3 740.567   7
   1   1  -6 18854.9 1341.20   6
  -1  -1   5 148029. 1845.23   4
  -1  -1   5 152481. 3296.64   3
   1   1  -5 145191. 1872.95   7
  -1  -1   5 146680. 2898.05   5
   1   1  -5 148067. 3061.93   5
   1   1  -4 1513.35 172.785   7
   1   1  -4 1701.66 346.908   6
   1   1  -4 1496.80 322.761   5
  -1  -1   4 1518.97 169.280   4
  -1  -1   4 2091.94 341.699   5
  -1  -1   4 1477.08 339.090   3
  -1  -1   3 3749.29 199.494   4
   1   1  -3 3628.58 428.316   3
  -1  -1   3 3444.18 387.296   5
  -1  -1   3 3190.90 415.926   3
   1   1  -3 4194.96 445.104   6
   1   1  -3 3520.83 412.560   5
  -1  -1   2 150.863 101.970   5
  -1  -1   2 144.688 134.111   3
  -1  -1   2 60.4974 82.3614   6
   1   1  -2 31.0684 39.3077   7
   1   1  -2 73.5177 119.903   5
  -1  -1   2 76.9572 44.9030   7
   1   1  -2 132.635 109.906   6
   1   1  -2 81.0380 93.5328   3
  -1  -1   1 328521. 2485.09   6
   1   1  -1 333463. 2763.47   1
  -1  -1   1 336588. 2771.76   1
   1   1  -1 340891. 3208.56   5
   1   1  -1 334397. 3010.64   3
   1   1  -1 327736. 2003.79   7
   1   1  -1 334983. 2600.89   6
  -1  -1   1 342172. 1997.04   7
  -1  -1   1 338981. 3017.98   3
  -1  -1   0 4577.76 221.935   6
   1   1   0 4493.20 268.203   7
   1   1   0 4571.47 222.664   6
   1   1   0 4780.57 226.056   4
  -1  -1   0 4731.66 300.112   1
  -1  -1  -1 752904. 3856.76   1
   1   1   1 765635. 3846.51   1
   1   1   2 712.079 137.516   1
  -1  -1  -2 652.490 130.422   3
  -1  -1  -3 269614. 3057.80   4
  -1  -1  -3 252275. 3039.19   3
   1   1   4 1571.81 250.434   4
   1   1   4 2018.61 334.888   3
  -1  -1  -4 1419.00 284.779   4
  -1  -1  -4 1682.72 329.070   3
   1   1   5 52670.5 1380.18   5
   1   1   5 58769.9 1751.61   3
   1   1   5 53240.2 1515.20   4
  -1  -1  -5 56601.4 1969.44   3
  -1  -1  -5 56980.7 1780.68   4
   1   1   6 5261.53 615.365   3
  -1  -1  -6 6117.21 673.316   4
   1   1   6 6281.26 573.171   4
   1   1   6 5379.55 505.212   5
   1   1   7 173744. 3168.54   4
  -1  -1  -7 169887. 4308.46   3
   1   1   7 174195. 3070.64   5
   1   1   8 57.1849 141.395   4
  -1  -1  -8-87.5509 198.833   7
  -1  -1  -8 598.588 379.630   6
   1   1   8 19.8862 289.801   3
  -1  -1  -8 717.214 378.208   3
  -1  -1  -9 289.200 347.986   6
  -1  -1  -9 614.541 368.497   3
   1   1   9 395.588 186.157   4
  -1  -1  -9 453.555 265.484   7
   1   1   9 393.037 283.646   3
   1   1  10 422.741 317.408   3
  -1  -1 -10 1159.73 378.647   7
   1   1  10 851.366 292.256   4
  -1  -1 -10 721.189 471.267   6
   1   1  10 1239.27 355.387   5
   1   1  11 9643.08 951.290   5
  -1  -1 -11 9627.32 1363.78   6
  -1  -1 -11 9367.57 1042.45   7
   1   1  11 11090.0 1179.92   3
  -1  -1 -12 128.145 194.568   7
   1   1  12 393.379 425.193   3
  -1  -1 -12 399.918 444.450   6
  -1  -1 -13 7731.43 1036.67   7
   1   1  13 8690.69 1162.21   3
  -1  -1 -13 9376.03 1573.07   6
  -1  -1 -14 1730.54 736.845   6
   1   1  14 2389.34 717.834   3
   1   2 -12 512.046 350.214   5
   1   2 -12 311.127 291.922   6
  -1  -2  12-388.529 374.806   3
   1   2 -11 6719.61 1223.17   6
  -1  -2  11 7706.19 1146.23   3
   1   2 -11 5601.35 896.773   5
   1   2 -10 1057.33 584.498   6
  -1  -2  10 1143.55 420.789   3
   1   2 -10 993.449 407.598   5
  -1  -2   9 1492.95 513.080   3
   1   2  -9 2984.98 718.362   6
  -1  -2   9 1984.13 300.172   4
   1   2  -9 2122.06 562.207   5
  -1  -2   8 11451.7 652.539   4
  -1  -2   8 14748.3 1211.31   5
  -1  -2   8 11432.2 1206.35   3
   1   2  -8 11510.0 1128.38   5
   1   2  -8 12823.9 1374.64   6
  -1  -2   7 24644.0 1481.28   5
  -1  -2   7 22330.8 824.123   4
  -1  -2   7 26415.5 1682.28   3
   1   2  -7 23887.2 1735.50   3
   1   2  -7 21568.2 1489.08   5
   1   2  -7 25004.4 1743.04   6
  -1  -2   6 164.102 91.8094   4
  -1  -2   6 129.247 234.246   5
   1   2  -6-39.8755 307.863   6
   1   2  -6-54.5398 220.648   5
  -1  -2   6 329.488 372.716   3
  -1  -2   5 23203.6 1366.92   3
   1   2  -5 21148.2 1304.00   5
  -1  -2   5 23884.8 653.924   4
   1   2  -5 25717.6 1458.96   6
  -1  -2   4 643.320 223.030   5
  -1  -2   4 960.855 247.553   6
   1   2  -4 924.997 301.748   6
  -1  -2   4 879.929 113.317   4
  -1  -2   4 643.994 244.958   3
   1   2  -4 1195.79 328.532   5
   1   2  -3 170047. 3003.57   6
  -1  -2   3 161180. 2750.06   6
  -1  -2   3 165630. 3054.63   3
   1   2  -3 158883. 3073.45   5
  -1  -2   2 1415.49 292.937   3
  -1  -2   2 1239.22 221.343   6
   1   2  -2 1604.41 340.062   5
   1   2  -2 1352.52 258.453   6
  -1  -2   1 14992.9 592.662   1
   1   2  -1 15378.6 718.879   6
  -1  -2   1 16012.5 713.256   6
   1   2  -1 15403.1 435.725   4
  -1  -2   1 15493.4 393.427   4
  -1  -2   1 15610.6 470.807   7
  -1  -2   1 15658.7 800.474   3
   1   2  -1 16010.7 849.634   5
   1   2   0 2665.78 230.338   1
  -1  -2   0 2531.01 209.019   4
   1   2   0 2470.53 223.116   4
  -1  -2   0 1910.80 193.396   1
   1   2   0 2256.36 309.161   5
  -1  -2   0 2214.16 246.999   6
   1   2   0 2461.88 258.570   6
  -1  -2  -1 480099. 3291.28   4
   1   2   1 484520. 3048.35   1
  -1  -2  -1 479834. 2967.13   1
  -1  -2  -1 477937. 3303.73   2
   1   2   1 475525. 3364.64   2
  -1  -2  -2 4703.90 386.914   4
  -1  -2  -2 4451.52 289.239   2
   1   2   2 5108.30 398.653   4
   1   2   2 4915.10 317.155   2
   1   2   2 4918.72 355.116   1
  -1  -2  -3 119803. 2147.00   4
   1   2   3 117364. 1552.41   2
  -1  -2  -4 23833.2 1072.11   4
   1   2   4 22853.2 1042.14   3
  -1  -2  -4 22399.5 1082.40   3
  -1  -2  -5 95095.1 2345.72   4
   1   2   5 100654. 2297.30   3
  -1  -2  -6 8324.99 779.539   4
   1   2   6 8202.61 736.682   3
   1   2   6 7278.91 653.135   4
   1   2   6 7608.84 522.069   5
   1   2   7 21721.9 973.988   5
  -1  -2  -7 23459.4 1386.05   4
   1   2   7 21864.6 1183.12   4
  -1  -2  -7 21977.7 1553.63   3
   1   2   7 23613.5 1328.72   3
   1   2   8 83.4644 124.085   5
   1   2   8 38.1746 156.970   4
   1   2   8 101.415 283.719   3
  -1  -2  -8 183.902 249.360   4
  -1  -2  -8 187.232 259.524   3
   1   2   9 45229.0 1667.13   5
   1   2   9 48822.9 2134.66   3
  -1  -2  -9 44240.9 2586.97   3
  -1  -2  -9 52330.9 2397.24   4
   1   2   9 47784.7 1959.08   4
   1   2  10 189.668 397.468   3
   1   2  10 245.501 214.949   4
   1   2  11 24242.4 1696.21   3
  -1  -2 -11 20614.6 1576.34   7
   1   2  11 22433.8 1324.78   5
  -1  -2 -11 19033.0 1910.67   6
  -1  -2 -12 756.238 350.437   7
   1   2  12 1641.81 418.013   5
  -1  -2 -12 988.810 488.278   6
   1   2  12 1802.08 576.385   3
   1   2  13 8455.80 1113.48   3
  -1  -2 -13 8238.09 1105.54   7
  -1  -2 -13 7649.20 1411.72   6
   1   2  14 201.367 364.952   3
  -1  -2 -14 251.388 269.896   7
  -1  -2 -14 74.9918 353.288   6
  -1  -3  12 93.1322 304.786   3
   1   3 -12 79.2744 248.139   5
   1   3 -12-492.709 459.527   6
  -1  -3  11 3284.51 821.964   3
   1   3 -11 2749.06 843.784   6
   1   3 -11 4242.60 855.587   5
   1   3 -10 153.954 250.448   6
  -1  -3  10-349.181 375.148   3
   1   3 -10 432.903 341.101   5
   1   3  -9 20209.4 1664.55   5
   1   3  -9 20791.7 1926.94   6
  -1  -3   9 23575.9 1844.98   3
  -1  -3   9 19182.8 814.901   4
  -1  -3   8 1833.26 238.992   4
   1   3  -8 1703.21 569.142   6
  -1  -3   8 2374.32 572.152   3
   1   3  -8 2307.39 583.579   5
  -1  -3   7-69.2675 234.059   5
  -1  -3   7-13.6175 334.862   3
   1   3  -7 29.7841 282.167   6
   1   3  -7 84.7863 244.110   5
  -1  -3   7 88.0060 84.6465   4
   1   3  -6 123.849 222.802   6
   1   3  -6 35.8778 222.237   3
  -1  -3   6-239.803 212.905   6
  -1  -3   6 64.0630 257.479   3
  -1  -3   6 184.141 215.860   5
  -1  -3   6 125.830 71.0353   4
   1   3  -6 53.9073 204.032   5
  -1  -3   5 34897.9 1715.90   5
  -1  -3   5 32991.7 763.014   4
  -1  -3   5 30464.3 860.455   4
   1   3  -5 33914.3 1771.16   6
   1   3  -5 33380.4 1792.15   5
  -1  -3   5 33626.1 1596.69   6
  -1  -3   5 32822.2 1717.17   3
  -1  -3   4 6958.25 371.214   4
   1   3  -4 6139.82 711.011   6
  -1  -3   4 8554.14 762.461   6
  -1  -3   4 6534.89 748.861   3
   1   3  -4 9138.48 913.021   5
  -1  -3   3 68103.7 2191.03   3
   1   3  -3 64878.0 2066.02   6
   1   3  -3 63418.6 2184.55   5
  -1  -3   3 65666.9 1060.88   4
  -1  -3   3 68264.1 2041.31   6
  -1  -3   2 20181.3 788.810   1
   1   3  -2 20120.0 1080.84   6
  -1  -3   2 19636.9 1105.74   3
  -1  -3   2 19863.1 604.885   4
   1   3  -2 18020.0 1098.74   5
  -1  -3   2 20050.9 1022.32   6
   1   3  -1 224060. 2369.31   4
  -1  -3   1 227646. 3412.81   2
  -1  -3   1 221111. 2230.85   1
  -1  -3   1 230671. 3264.13   6
  -1  -3   1 233593. 2207.47   4
   1   3  -1 232158. 3350.66   6
   1   3  -1 232262. 3616.43   5
   1   3   0 12938.1 797.186   5
   1   3   0 11885.9 457.307   1
   1   3   0 12051.4 621.691   4
  -1  -3   0 11657.5 552.165   4
  -1  -3   0 12893.6 757.655   2
  -1  -3   0 11410.1 441.993   1
  -1  -3   0 10983.6 679.066   6
  -1  -3   0 10958.6 667.032   5
   1   3   1 75963.5 1679.35   4
   1   3   1 79003.6 1213.77   1
  -1  -3  -1 76573.8 1557.04   4
  -1  -3  -1 75684.3 1676.52   2
  -1  -3  -1 75835.7 1134.76   1
   1   3   1 77462.9 1799.12   5
  -1  -3  -2-9.47782 83.2797   2
  -1  -3  -2 8.29807 140.762   4
   1   3   2 24.4689 76.5227   1
   1   3   2-37.7541 105.301   4
   1   3   2-9.17839 96.6853   2
   1   3   3 5769.62 449.066   2
  -1  -3  -3 5546.56 519.787   4
  -1  -3  -3 5844.60 426.633   2
  -1  -3  -4 86374.2 2157.05   4
   1   3   4 86651.2 1754.56   2
  -1  -3  -5 19802.1 1117.18   4
   1   3   5 14183.2 752.661   2
  -1  -3  -6 10183.9 868.272   4
   1   3   6 9658.01 840.162   3
   1   3   6 10207.2 675.137   2
  -1  -3  -7 147999. 3511.06   4
   1   3   7 139378. 3216.46   4
   1   3   7 154895. 3429.31   3
  -1  -3  -7 132921. 3780.29   3
   1   3   7 134085. 2152.86   5
  -1  -3  -8 3450.08 614.068   4
   1   3   8 3727.92 569.898   4
   1   3   8 3071.91 558.887   3
   1   3   8 3494.95 390.288   5
  -1  -3  -8 3483.75 691.183   3
   1   3   9 45328.8 2066.60   3
   1   3   9 39491.4 1877.62   4
  -1  -3  -9 44339.9 2212.99   4
   1   3   9 39464.4 1406.11   5
   1   3  10 252.602 297.940   3
  -1  -3 -10-175.653 342.934   4
   1   3  10-226.871 144.527   5
  -1  -3 -11 7113.66 1018.53   4
   1   3  11 6903.46 919.933   3
   1   3  12 319.551 359.203   3
  -1  -3 -13 2118.61 576.487   7
  -1  -3 -13 1989.17 745.180   6
   1   3  13 3236.54 719.468   3
   1   3  14 62.1128 289.078   3
  -1  -3 -14 105.112 194.938   7
  -1  -3 -14 88.4356 335.708   6
   1   4 -12 325.835 348.240   5
  -1  -4  11 5790.92 1083.24   3
   1   4 -11 7370.72 1346.58   6
   1   4 -11 5605.42 1005.47   5
  -1  -4  10-47.9287 431.474   3
   1   4 -10 377.972 255.444   5
   1   4 -10 505.179 439.101   6
  -1  -4   9 3061.28 766.226   3
   1   4  -9 3405.82 851.538   6
   1   4  -9 4159.13 829.476   5
  -1  -4   8 65.8337 65.8449   4
   1   4  -8-619.886 384.954   6
  -1  -4   8-882.567 438.756   3
   1   4  -8-207.236 307.691   5
  -1  -4   8 49.3914 99.2610   4
  -1  -4   7 11573.3 532.338   4
  -1  -4   7 10826.8 599.369   4
   1   4  -7 11335.7 1257.11   5
  -1  -4   7 11537.6 1251.73   3
   1   4  -7 12992.1 1364.24   6
   1   4  -6 6391.73 928.007   5
  -1  -4   6 5510.13 414.160   4
   1   4  -6 5560.08 850.805   6
  -1  -4   6 6549.15 906.730   3
  -1  -4   6 5807.46 369.986   4
  -1  -4   6 5502.74 737.033   6
   1   4  -5 25685.4 1663.69   6
   1   4  -5 27208.8 1772.58   5
  -1  -4   5 27427.3 1688.96   3
  -1  -4   5 30077.9 1623.72   6
  -1  -4   5 28718.2 897.412   4
  -1  -4   5 29083.0 1693.35   5
  -1  -4   4 5734.29 763.208   3
  -1  -4   4 6063.08 714.185   6
   1   4  -4 5401.72 763.999   5
   1   4  -4 5488.85 716.856   6
  -1  -4   4 5342.96 384.226   4
  -1  -4   3 62678.5 2152.24   6
  -1  -4   3 56404.4 969.535   7
   1   4  -3 59632.7 2220.83   6
   1   4  -3 56596.5 2279.38   5
  -1  -4   3 62739.2 2301.84   3
  -1  -4   3 54728.2 1486.77   1
  -1  -4   3 58243.9 1271.12   4
  -1  -4   2 307.793 197.338   6
   1   4  -2 64.0461 178.345   6
  -1  -4   2 256.789 115.065   1
   1   4  -2 181.161 179.328   5
  -1  -4   2 285.361 238.525   3
  -1  -4   2 232.782 127.759   4
  -1  -4   1 38634.1 1543.90   6
  -1  -4   1 35949.0 1074.60   4
   1   4  -1 36514.2 1206.10   4
  -1  -4   1 35946.3 866.789   1
   1   4  -1 37655.7 1637.58   5
   1   4  -1 39909.2 1569.52   6
  -1  -4   0 20856.4 1046.40   5
  -1  -4   0 22443.4 907.611   4
  -1  -4   0 19447.9 1062.30   6
  -1  -4   0 21876.5 555.928   1
   1   4   0 22616.0 1020.98   4
   1   4   0 22812.0 1208.99   5
  -1  -4   0 24144.7 1183.68   2
   1   4   1 21859.8 1075.08   4
   1   4   1 20955.1 603.668   1
  -1  -4  -1 22331.7 971.295   4
   1   4   1 21655.8 1088.63   5
   1   4   1 22749.0 1134.16   2
  -1  -4  -1 22073.2 1069.71   2
  -1  -4  -1 20545.3 1056.68   6
   1   4   2 840.757 260.832   5
   1   4   2 1015.76 175.394   1
   1   4   2 1203.85 300.612   2
   1   4   2 1507.26 324.198   4
  -1  -4  -2 1169.33 289.252   4
  -1  -4  -2 708.122 205.390   2
  -1  -4  -3 156565. 2911.84   4
   1   4   3 146890. 2701.61   2
  -1  -4  -3 146518. 2475.13   2
   1   4   3 154751. 2481.06   5
   1   4   4 5684.22 543.566   2
  -1  -4  -4 6373.05 641.351   4
  -1  -4  -4 5761.21 492.476   2
  -1  -4  -5 60484.2 2054.25   4
   1   4   5 60866.2 1785.78   2
  -1  -4  -6 903.347 309.738   4
   1   4   6 1204.61 283.836   2
  -1  -4  -7 23488.5 1454.82   4
   1   4   7 22512.4 1376.47   4
  -1  -4  -7 20710.3 1479.28   3
   1   4   7 22432.4 1163.97   2
  -1  -4  -8 1717.16 480.159   4
  -1  -4  -8 1717.92 478.643   3
   1   4   8 2093.90 272.134   5
   1   4   8 1673.52 415.860   4
   1   4   8 1878.27 388.310   2
   1   4   8 1457.74 455.448   3
  -1  -4  -9 3831.57 687.166   4
   1   4   9 4136.59 691.966   3
   1   4   9 5012.90 614.914   2
   1   4   9 4847.68 448.962   5
   1   4  10 100.423 272.415   3
  -1  -4 -10 829.394 419.821   4
   1   4  10 275.884 142.398   5
  -1  -4 -11 1880.27 536.202   4
   1   4  11 1774.07 510.052   3
   1   4  11 2138.01 341.450   5
  -1  -4 -12-80.8305 372.353   4
   1   4  12-317.752 349.293   3
   1   4  13 10422.7 1285.74   3
  -1  -4 -13 11186.8 1421.11   4
   1   4  14-296.010 330.064   3
  -1  -4 -14 324.158 437.905   6
  -1  -4 -14-74.5094 261.119   7
  -1  -4 -15 2201.92 606.716   7
   1   5 -11 955.304 488.491   5
   1   5 -11 2523.17 807.513   6
  -1  -5  10 114.857 337.305   3
   1   5 -10 577.415 425.572   5
   1   5 -10 573.528 432.785   6
   1   5  -9 19924.0 1908.45   5
   1   5  -9 16909.7 1842.69   6
  -1  -5   9 18210.9 1793.00   3
  -1  -5   8 3588.91 834.577   3
   1   5  -8 3292.07 794.812   5
   1   5  -8 3370.35 805.900   6
  -1  -5   7 18637.1 1641.62   3
  -1  -5   7 15585.4 700.827   4
   1   5  -7 18274.5 1720.15   5
  -1  -5   7 16534.0 642.528   4
   1   5  -7 17377.3 1673.90   6
  -1  -5   6 205.163 272.817   3
   1   5  -6-64.4524 350.241   5
   1   5  -6 244.285 358.780   6
  -1  -5   6 165.842 138.620   4
  -1  -5   5 2531.90 313.168   4
  -1  -5   5 2579.54 613.613   3
   1   5  -5 2783.12 594.795   6
  -1  -5   5 3459.76 609.283   6
   1   5  -5 2044.56 594.603   5
  -1  -5   4 7394.93 881.235   5
  -1  -5   4 7192.19 606.480   1
  -1  -5   4 8233.67 960.692   2
  -1  -5   4 6700.63 902.759   3
  -1  -5   4 7525.97 860.216   6
   1   5  -4 6054.36 852.538   6
   1   5  -4 7044.21 951.904   5
  -1  -5   4 7397.54 537.813   4
  -1  -5   3 1701.51 476.880   3
  -1  -5   3 1575.91 407.719   2
   1   5  -3 780.014 361.219   5
   1   5  -3 1939.93 490.021   6
  -1  -5   3 1549.76 257.224   1
  -1  -5   3 1257.68 247.238   4
  -1  -5   3 1572.47 428.917   5
  -1  -5   3 1673.20 398.106   6
  -1  -5   3 1182.61 196.696   7
   1   5  -2-26.7674 196.054   6
  -1  -5   2 150.207 166.835   4
  -1  -5   2-12.3480 74.4335   1
  -1  -5   2 4.85809 265.091   3
   1   5  -2 189.441 236.580   5
  -1  -5   2-35.1201 94.1120   6
  -1  -5   2 91.5207 177.998   5
  -1  -5   1 80579.5 2515.06   6
  -1  -5   1 78847.7 1847.61   4
  -1  -5   1 76845.9 1144.24   1
  -1  -5   1 79960.5 2406.84   5
   1   5  -1 74187.1 2018.00   4
   1   5  -1 78492.6 2614.38   5
   1   5   0 25877.1 1416.71   5
   1   5   0 25048.3 1253.34   4
  -1  -5   0 24742.8 1249.94   5
  -1  -5   0 26158.0 1395.52   6
  -1  -5   0 28209.6 1157.54   4
  -1  -5  -1 225204. 3995.78   6
  -1  -5  -1 230513. 3449.93   4
   1   5   1 221492. 3885.76   4
   1   5   1 233382. 4099.94   2
   1   5   1 221053. 1603.66   1
   1   5   1 223198. 3896.03   5
   1   5   2 9429.24 819.711   2
   1   5   2 8211.41 432.719   1
   1   5   2 9651.77 778.944   5
  -1  -5  -2 8056.96 703.447   4
  -1  -5  -3 100327. 2523.43   4
   1   5   3 92643.3 2518.44   2
   1   5   3 88361.9 1725.53   1
   1   5   3 98804.2 2231.69   5
  -1  -5  -3 91925.3 2249.02   2
   1   5   4 758.410 210.987   5
   1   5   4 912.597 283.632   2
  -1  -5  -4 823.114 299.535   4
   1   5   5 7478.59 528.101   5
   1   5   5 7202.36 720.254   2
  -1  -5  -5 6910.52 759.334   4
  -1  -5  -6 21147.5 1356.64   4
   1   5   6 21947.5 1255.37   2
  -1  -5  -6 19483.7 1307.15   3
   1   5   6 19755.3 785.079   5
  -1  -5  -7 8282.74 903.337   4
   1   5   7 7085.70 856.607   4
   1   5   7 7074.89 733.869   2
  -1  -5  -7 7286.06 882.106   3
  -1  -5  -8 549.645 386.917   4
   1   5   8 374.588 231.955   2
   1   5   8 824.308 152.634   5
   1   5   9 12284.9 1013.01   2
   1   5   9 11389.7 563.780   5
  -1  -5  -9 13192.8 1238.09   4
  -1  -5 -10 146.926 274.527   4
   1   5  10 242.952 178.347   2
   1   5  10 553.015 145.167   5
  -1  -5 -11 14829.7 1469.97   4
   1   5  11 13729.9 1136.83   2
  -1  -5 -12 196.299 267.199   4
   1   5  12 75.3088 197.105   2
   1   5  13 3353.44 607.824   2
  -1  -5 -13 3438.14 838.844   4
   1   5  14-4.44739 243.905   2
  -1  -5 -14-172.542 272.020   4
  -1  -5 -15 2338.50 678.112   7
  -1  -6  10 750.085 504.668   3
   1   6 -10 837.987 541.707   6
   1   6 -10 270.599 431.658   5
  -1  -6   9 4904.84 1021.93   3
   1   6  -9 3455.66 873.957   6
   1   6  -9 4319.20 1003.80   5
   1   6  -8 358.648 336.266   6
  -1  -6   8 750.173 485.815   3
   1   6  -8 363.434 346.196   5
   1   6  -7 11362.2 1424.19   5
  -1  -6   7 9782.97 925.682   1
  -1  -6   7 10993.1 1375.51   3
   1   6  -7 9738.98 1307.87   6
  -1  -6   6-319.537 458.619   3
   1   6  -6-122.736 334.653   6
  -1  -6   6 411.879 183.029   1
  -1  -6   6 108.279 130.468   4
  -1  -6   5 8252.28 605.742   4
   1   6  -5 8278.37 1176.00   5
   1   6  -5 8197.33 1087.84   6
  -1  -6   5 8129.89 1079.90   3
  -1  -6   5 8551.27 723.332   1
  -1  -6   4 1925.35 214.955   7
  -1  -6   4 1595.38 311.944   4
  -1  -6   4 2093.20 322.814   1
  -1  -6   4 2089.68 567.349   3
   1   6  -4 1629.28 493.546   6
   1   6  -4 1377.73 482.269   5
   1   6  -3 28633.5 1819.02   6
  -1  -6   3 32268.2 1845.31   6
   1   6  -3 27292.1 1884.21   5
  -1  -6   3 29472.4 1120.41   7
  -1  -6   3 30876.1 1222.98   4
  -1  -6   3 31140.4 1923.24   3
  -1  -6   3 29296.1 1021.37   1
  -1  -6   2 16575.2 921.204   4
  -1  -6   2 16362.7 1322.88   2
  -1  -6   2 15302.6 581.807   1
  -1  -6   2 14813.8 1296.73   3
   1   6  -2 15571.7 1358.65   5
  -1  -6   2 15527.6 1257.31   6
  -1  -6   2 13510.1 862.850   7
  -1  -6   2 15615.3 1223.67   5
  -1  -6   1 10398.7 773.720   4
   1   6  -1 8554.40 787.221   4
  -1  -6   1 10029.6 928.375   5
   1   6  -1 8994.70 992.198   5
  -1  -6   1 11506.4 1054.88   2
  -1  -6   1 11834.3 1069.24   6
   1   6   0 1188.07 366.378   5
  -1  -6   0 1811.53 386.221   5
  -1  -6   0 1330.73 367.190   2
  -1  -6   0 1223.63 371.318   6
  -1  -6   0 1367.10 317.610   4
   1   6   1 69145.7 2404.20   5
  -1  -6  -1 69672.5 2489.80   6
   1   6   1 74570.7 2618.61   2
  -1  -6  -1 73619.4 2430.48   2
  -1  -6  -1 71467.6 2123.05   4
   1   6   2 2793.67 522.567   2
   1   6   2 2218.77 416.642   5
  -1  -6  -2 2683.31 465.881   4
  -1  -6  -2 2190.65 406.114   2
   1   6   2 2319.30 203.249   1
   1   6   2 2063.94 470.879   4
  -1  -6  -3 22438.7 1299.92   4
   1   6   3 22322.9 1506.94   4
   1   6   3 21912.8 1380.07   2
  -1  -6  -3 21205.6 1207.40   2
   1   6   3 21285.0 1157.09   5
   1   6   3 19539.6 795.028   1
  -1  -6  -4 7641.53 803.213   4
   1   6   4 7759.01 648.021   5
   1   6   4 6346.40 823.787   4
  -1  -6  -4 8140.55 736.005   2
   1   6   4 7148.98 565.425   1
   1   6   4 7682.71 827.999   2
  -1  -6  -5 17394.7 1057.38   2
  -1  -6  -5 15351.5 1191.51   3
   1   6   5 17640.4 1225.60   2
  -1  -6  -5 18356.7 1275.17   4
   1   6   5 16530.4 1326.58   4
   1   6   5 16293.0 850.774   5
  -1  -6  -6 390.903 238.831   3
   1   6   6 577.918 177.181   5
   1   6   6 557.620 302.735   4
   1   6   6 555.199 292.094   2
  -1  -6  -6 618.015 340.080   4
  -1  -6  -7 49638.4 2257.00   4
   1   6   7 46313.4 2057.03   2
   1   6   7 48144.0 1173.21   5
  -1  -6  -8 206.812 328.132   4
   1   6   8 795.474 333.288   2
   1   6   8 624.788 135.449   5
   1   6   9 34356.4 1816.22   2
   1   6   9 31059.6 615.529   5
  -1  -6  -9 34353.2 2047.11   4
   1   6   9 30676.8 627.414   5
  -1  -6 -10-57.5354 317.376   4
   1   6  10 219.554 242.365   2
  -1  -6 -11 3426.71 733.949   4
   1   6  11 2495.02 537.544   2
  -1  -6 -12 218.861 356.487   4
   1   6  12 125.966 246.287   2
  -1  -6 -13 1750.40 582.036   4
   1   6  13 1066.65 375.208   2
  -1  -6 -14-629.111 373.083   4
   1   6  14-257.618 305.275   2
   1   7  -9 2242.72 730.364   6
   1   7  -8 1014.66 475.195   6
  -1  -7   8 350.692 438.938   3
   1   7  -8 1013.92 563.274   5
  -1  -7   7 5981.76 1081.41   3
   1   7  -7 5482.09 1024.37   6
   1   7  -7 5410.42 1066.28   5
   1   7  -6 7083.39 1130.64   6
  -1  -7   6 7437.68 1123.19   3
   1   7  -6 8030.10 1264.55   5
  -1  -7   5 32168.2 2241.74   3
   1   7  -5 29334.6 2172.03   6
  -1  -7   5 31853.5 1258.29   4
   1   7  -5 29507.0 2304.93   5
  -1  -7   4 1408.87 246.178   1
  -1  -7   4 1759.76 558.378   3
   1   7  -4 1746.18 553.298   6
  -1  -7   4 1770.62 250.035   7
   1   7  -4 1420.85 555.722   5
  -1  -7   4 1534.55 331.005   4
  -1  -7   3 744.456 223.768   7
   1   7  -3 98.2945 261.309   5
  -1  -7   3 719.415 143.337   1
  -1  -7   3 1023.90 268.701   4
  -1  -7   3 901.462 451.225   3
  -1  -7   2 145.809 156.551   4
   1   7  -2-1.71835 288.505   5
  -1  -7   2 101.857 104.525   7
  -1  -7   2 315.927 341.390   3
  -1  -7   1 10713.5 1040.66   5
  -1  -7   1 10406.5 837.900   4
  -1  -7   1 9703.09 1063.21   6
   1   7  -1 9756.48 1109.04   5
  -1  -7   0 4817.32 657.201   5
  -1  -7   0 4566.04 724.119   6
  -1  -7   0 4981.07 613.485   4
   1   7   0 4391.62 708.176   5
  -1  -7   0 6095.99 805.562   2
   1   7   0 5097.65 736.055   4
  -1  -7  -1 8393.13 902.531   2
   1   7   1 5816.20 799.629   4
  -1  -7  -1 8139.63 795.679   4
   1   7   1 7866.25 951.101   2
  -1  -7  -1 6773.17 862.797   6
   1   7   1 6837.20 835.577   5
  -1  -7  -2 1855.07 471.496   6
  -1  -7  -2 2263.51 454.317   4
   1   7   2 3068.33 623.040   2
   1   7   2 2334.52 496.528   5
   1   7   2 2611.48 560.247   4
  -1  -7  -2 2756.18 506.724   2
  -1  -7  -3 20352.1 1302.82   2
  -1  -7  -3 21287.0 1350.32   4
   1   7   3 22666.4 1667.03   4
   1   7   3 21460.1 1522.07   2
   1   7   3 19704.4 1215.15   5
   1   7   3 20961.1 716.561   1
   1   7   4 1887.59 296.101   1
  -1  -7  -4 1985.88 430.100   2
  -1  -7  -4 2106.32 519.822   4
   1   7   4 2546.32 420.927   5
   1   7   4 1582.92 520.001   4
   1   7   4 2187.71 518.203   2
  -1  -7  -5 43439.2 1819.97   2
   1   7   5 39128.0 2007.69   2
  -1  -7  -5 45831.2 2113.03   4
   1   7   5 45120.7 1560.01   1
   1   7   5 41355.2 1497.99   5
  -1  -7  -6 11781.5 1143.94   4
   1   7   6 11480.5 715.657   5
   1   7   6 11444.1 1096.47   2
  -1  -7  -7 22558.8 1608.17   4
   1   7   7 22041.8 855.008   5
   1   7   7 18533.9 1414.11   2
  -1  -7  -8 3395.71 695.381   4
   1   7   8 4121.14 699.819   2
   1   7   8 3047.55 243.889   5
  -1  -7  -9 8106.95 1058.69   4
   1   7   9 7662.98 950.344   2
  -1  -7 -10 414.118 288.465   4
   1   7  10 422.921 285.579   2
  -1  -7 -11 3513.66 762.195   4
   1   7  11 4023.96 740.660   2
  -1  -7 -12-604.981 370.631   4
   1   7  12 303.188 244.421   2
  -1  -7 -13 3251.33 810.468   4
   1   7  13 3718.69 737.322   2
   1   8  -8 1457.38 640.015   6
  -1  -8   7 4950.30 1013.74   3
   1   8  -7 4618.61 1009.53   6
   1   8  -7 4279.21 1012.14   5
  -1  -8   6 1126.03 485.056   3
   1   8  -6 1522.90 567.298   6
   1   8  -6 2018.44 720.612   5
  -1  -8   5 3762.76 848.604   3
   1   8  -5 3534.46 840.040   6
   1   8  -5 3898.13 921.973   5
  -1  -8   4 453.977 388.878   3
   1   8  -4 865.103 450.522   5
  -1  -8   4 931.229 317.226   4
  -1  -8   3 20654.7 1212.28   4
   1   8  -3 19414.2 1831.43   5
  -1  -8   3 21494.4 1861.61   3
  -1  -8   2 2583.64 432.186   7
   1   8  -2 2602.63 640.560   5
  -1  -8   2 2377.44 628.644   3
  -1  -8   2 2013.09 417.758   4
  -1  -8   1 3696.45 559.054   4
  -1  -8   1 3365.97 563.635   7
   1   8  -1 3193.23 690.515   5
   1   8   0 1066.78 361.058   4
  -1  -8   0 2137.13 447.999   4
   1   8   0 1691.86 533.839   5
  -1  -8  -1 10223.8 958.899   4
   1   8   1 10362.6 1160.71   4
   1   8   1 8930.62 1012.12   5
   1   8   2-144.630 279.922   2
  -1  -8  -2-152.725 277.192   4
   1   8   2 579.397 344.910   4
   1   8   2-149.463 240.264   5
   1   8   3 46017.5 2456.08   2
  -1  -8  -3 50982.1 2235.63   4
   1   8   3 49106.3 2058.74   5
   1   8   4 25203.3 1796.13   2
   1   8   4 24935.1 895.071   1
   1   8   4 25084.9 1376.53   5
  -1  -8  -4 25874.6 1647.76   4
  -1  -8  -5 410.685 350.139   4
   1   8   5 445.983 384.948   2
   1   8   5 88.8968 121.879   1
   1   8   5-68.5286 161.298   5
   1   8   6 81.9902 164.121   1
  -1  -8  -6 334.518 341.860   4
   1   8   6-3.22141 245.646   2
   1   8   6 12.8089 124.265   5
  -1  -8  -7 2291.41 575.924   4
   1   8   7 1691.21 480.456   2
   1   8   7 2797.68 336.149   5
   1   8   8 281.838 216.837   2
  -1  -8  -8 640.102 418.674   4
   1   8   8 457.951 107.327   5
   1   8   9 8379.26 1076.18   2
  -1  -8  -9 8611.47 1153.88   4
  -1  -8 -10-314.852 289.488   4
   1   8  10 118.990 217.500   2
  -1  -8 -11 4506.97 886.696   4
   1   8  11 3772.21 761.226   2
  -1  -8 -12 515.335 326.819   4
   1   8  12 133.307 185.175   2
   1   8  13 3946.24 781.476   2
  -1  -9   6 674.884 482.775   3
   1   9  -6 824.063 440.321   5
  -1  -9   5 5772.63 1127.49   3
   1   9  -5 5249.14 1075.78   5
   1   9  -4 245.185 232.962   5
  -1  -9   4 803.480 494.986   3
  -1  -9   3 11520.6 969.896   4
   1   9  -3 10688.1 1430.61   5
  -1  -9   3 8857.93 1298.67   3
  -1  -9   2-18.4850 434.490   3
   1   9  -2-296.342 302.560   5
  -1  -9   2 187.678 239.874   4
  -1  -9   1 5026.62 690.911   4
   1   9  -1 4820.76 909.025   5
  -1  -9   1 4435.99 682.946   7
  -1  -9   0 5158.16 782.176   7
   1   9   0 3778.52 780.527   5
  -1  -9   0 4054.90 661.186   4
  -1  -9  -1 34840.1 1873.78   4
   1   9   1 33194.3 2058.18   5
  -1  -9  -2 2836.91 589.969   4
   1   9   2 3291.35 744.145   2
   1   9   2 2488.02 567.356   5
  -1  -9  -3 2663.48 619.710   4
   1   9   3 2184.48 492.138   5
   1   9   3 2555.55 665.198   2
  -1  -9  -4 2709.20 619.666   4
   1   9   4 3588.08 764.937   2
   1   9   4 3170.30 536.685   5
   1   9   5 4982.51 907.872   2
  -1  -9  -5 5462.53 833.829   4
   1   9   5 4687.13 600.038   5
   1   9   5 5792.39 477.352   1
   1   9   6 4768.10 865.002   2
   1   9   6 3833.38 502.241   1
  -1  -9  -6 4298.09 762.171   4
   1   9   6 4671.59 548.841   5
   1   9   7 5163.34 644.557   1
  -1  -9  -7 5986.08 959.066   4
   1   9   7 5169.65 485.131   5
   1   9   7 5163.07 897.028   2
  -1  -9  -8 935.358 401.031   4
   1   9   8 1177.28 326.149   1
   1   9   8 1020.29 481.653   2
   1   9   9 3950.03 798.198   2
  -1  -9  -9 4318.33 888.099   4
   1   9  10 140.195 193.437   2
  -1  -9 -10 325.748 378.929   4
   1   9  11 1743.70 543.672   2
  -1  -9 -11 2927.13 741.305   4
   1   9  12 137.508 256.240   2
  -1 -10   4 384.433 354.376   3
   1  10  -4 746.578 492.330   5
  -1 -10   3 1969.89 717.713   3
   1  10  -3 2762.46 801.200   5
  -1 -10   2 408.181 234.385   4
  -1 -10   2-31.8423 339.572   3
   1  10  -2-51.9979 233.973   5
  -1 -10   1 11588.4 1111.41   4
  -1 -10   1 12080.6 1549.57   3
   1  10  -1 12230.3 1462.73   5
  -1 -10   0 394.916 312.559   4
   1  10   0 81.9153 279.622   5
  -1 -10  -1 841.246 402.533   4
   1  10   1 18.3964 287.582   5
   1  10   2-136.832 320.551   5
  -1 -10  -2 61.2307 270.635   4
  -1 -10  -3 23120.3 1705.70   4
   1  10   3 21858.9 1965.61   2
   1  10   3 23802.1 1631.89   5
   1  10   4 2.24434 352.416   2
  -1 -10  -4-13.6393 258.348   4
   1  10   4 159.430 171.292   5
  -1 -10  -5 7822.72 1057.96   4
   1  10   5 9504.89 1282.32   2
   1  10   5 8089.28 838.633   5
  -1 -10  -6 1829.17 572.854   4
   1  10   6 1850.28 621.705   2
  -1 -10  -7 5010.07 904.114   4
   1  10   7 4171.25 885.153   2
  -1 -10  -8 31.2735 213.438   4
   1  10   8 297.741 382.657   2
   1  10   9 7215.71 1154.86   2
  -1 -10  -9 6458.60 1068.60   4
   1  10  10 1123.65 473.237   2
   1  10  11 840.187 513.912   2
   1  11  -2 1561.02 647.094   5
   1  11  -1-32.2978 144.663   5
  -1 -11   1 97.6829 323.294   3
  -1 -11   0-178.612 218.306   4
   1  11   0 494.683 441.415   5
  -1 -11  -1 4636.33 805.739   4
   1  11   1 3784.38 770.698   5
  -1 -11  -2 422.152 285.944   4
   1  11   2 1219.85 439.849   5
  -1 -11  -3 6206.81 956.702   4
   1  11   3 4940.14 798.586   5
   1  11   4 2.58755 309.708   2
  -1 -11  -4 411.607 322.588   4
   1  11   4 892.397 339.309   5
  -1 -11  -5 3533.24 772.824   4
   1  11   5 4254.13 938.114   2
  -1 -11  -6 853.415 498.565   4
   1  11   6-588.035 438.582   2
  -1 -11  -7 5681.58 997.175   4
   1  11   7 3910.91 872.856   2
   1  11   8 278.145 290.762   2
   1  11   9 2869.35 815.096   2
   1  11  10 1185.56 553.715   2
   1  12   0 300.336 330.717   5
  -1 -12  -1 642.233 372.359   4
   1  12   1 736.368 386.660   5
   1  12   2-394.216 273.172   5
  -1 -12  -2 186.546 261.069   4
  -1 -12  -3 942.011 433.532   4
  -1 -12  -4 112.241 204.446   4
  -1 -12  -5 2340.59 710.765   4
   2 -11  -3-2.39029 264.162   4
   2 -11  -2 3934.52 883.962   4
   2 -11  -1 843.467 490.059   4
   2 -11   0 1427.89 613.617   4
   2 -11   1 84.2824 257.515   3
   2 -11   1 34.7150 256.148   4
   2 -11   2 862.046 539.086   3
   2 -11   2 1575.97 611.979   4
   2 -11   3-257.940 327.537   4
  -2  10   7 235.859 265.573   2
   2 -10  -7 273.242 274.337   4
  -2  10   6 4882.33 1036.45   2
   2 -10  -6 5401.32 998.589   4
  -2  10   5 448.948 345.364   2
   2 -10  -5 165.493 327.867   4
   2 -10  -4 9083.15 1266.93   4
  -2  10   4 7808.00 1342.31   2
  -2  10   3 59.8183 344.833   2
   2 -10  -3 19.3730 320.608   4
  -2  10   2 1852.88 689.757   2
   2 -10  -2 1428.02 521.508   4
  -2  10   1 1405.34 515.248   2
   2 -10  -1 838.100 448.395   4
   2 -10   0 5146.84 940.418   4
  -2  10   0 4627.16 1020.12   2
   2 -10   1 727.661 366.905   4
  -2  10  -1 1270.47 536.975   2
   2 -10   2 5888.98 1081.67   3
   2 -10   2 4853.52 911.654   4
   2 -10   3-290.979 351.881   3
   2 -10   3-207.839 298.439   4
   2 -10   4 3453.62 887.409   3
   2 -10   4 2806.93 713.175   4
   2 -10   5 168.117 222.831   4
   2 -10   5-198.947 247.652   3
  -2   9   9 351.112 415.028   2
   2  -9  -9 1141.03 453.431   4
   2  -9  -8 3046.52 734.891   4
  -2   9   8 3780.33 932.219   2
   2  -9  -7 46.6935 388.489   4
  -2   9   7-124.430 288.502   2
  -2   9   6 6621.49 1173.16   2
   2  -9  -6 6712.16 1062.07   4
   2  -9  -5 210.294 372.279   4
  -2   9   5-190.202 341.027   2
   2  -9  -4 4319.67 856.431   4
  -2   9   4 3270.57 871.447   2
  -2   9   3 63.8108 260.697   2
   2  -9  -3 847.784 517.027   4
   2  -9  -2 12949.3 1401.63   4
  -2   9   2 13121.6 1594.94   2
  -2   9   1-630.167 439.696   2
   2  -9  -1 561.287 402.082   4
   2  -9   0 19212.0 1692.89   4
  -2   9   0 17325.6 1819.47   2
  -2   9  -1 2311.46 708.825   2
   2  -9   1 2178.60 619.302   4
   2  -9   2 19942.5 1718.01   4
   2  -9   2 18600.0 1764.33   3
   2  -9   3 129.942 343.341   4
   2  -9   3 721.428 475.570   3
   2  -9   4 1206.15 532.000   3
   2  -9   4 1140.68 472.529   4
   2  -9   5 538.215 510.146   3
   2  -9   5-672.463 373.984   4
   2  -9   6 2930.68 768.951   3
   2  -9   6 4252.35 857.194   4
   2  -9   7 183.720 320.829   3
  -2   8  11-105.505 303.544   2
   2  -8 -10 1089.32 457.389   4
  -2   8  10 2036.24 639.015   2
   2  -8  -9 79.0655 253.526   4
  -2   8   9 529.702 395.428   2
   2  -8  -8 4469.53 856.313   4
  -2   8   8 4499.77 938.623   2
   2  -8  -7 1469.35 553.169   4
  -2   8   7 472.774 381.987   2
   2  -8  -6 1117.39 441.779   4
  -2   8   6 1351.72 436.968   1
  -2   8   6 1563.15 596.239   2
   2  -8  -5 1144.20 499.591   4
  -2   8   5 1645.99 592.674   2
  -2   8   4 19072.2 1236.97   1
  -2   8   4 18902.9 1800.58   2
   2  -8  -4 16904.1 854.504   5
   2  -8  -4 21428.1 1697.14   4
   2  -8  -3 306.091 161.640   5
  -2   8   3 247.666 130.084   1
   2  -8  -3 382.942 352.294   4
  -2   8   3 768.254 440.640   2
  -2   8   2 15720.2 1602.14   2
   2  -8  -2 18841.6 1574.06   4
   2  -8  -2 17142.9 1145.86   5
  -2   8   2 18599.9 863.418   1
   2  -8  -1 1273.62 518.075   4
   2  -8  -1 900.366 296.082   5
  -2   8   1 333.532 278.486   2
   2  -8   0 14780.1 1411.47   4
   2  -8   0 13915.3 1206.02   5
  -2   8   0 15626.3 1601.30   2
   2  -8   1 227.781 292.662   4
  -2   8  -1 574.518 358.144   2
   2  -8   2 8370.42 1068.27   4
  -2   8  -2 7940.90 1147.48   2
   2  -8   3 360.418 203.051   7
   2  -8   3 40.4347 278.420   3
   2  -8   3 172.455 349.125   4
   2  -8   4 18708.6 1617.76   4
   2  -8   4 18634.7 1682.92   3
   2  -8   5 199.314 322.763   3
   2  -8   5 201.886 322.140   4
   2  -8   6 5840.61 1022.86   3
   2  -8   6 6836.40 1013.01   4
   2  -8   7 23.2661 408.760   3
   2  -8   7 839.009 418.497   4
   2  -8   8 4699.48 976.119   3
   2  -8   9 585.581 438.083   3
   2  -7 -12 425.134 387.388   4
  -2   7  12-267.344 332.392   2
   2  -7 -11 1539.18 575.182   4
  -2   7  11 622.551 417.279   2
   2  -7 -10 2426.13 642.302   4
  -2   7  10 3110.68 768.297   2
   2  -7  -9 458.554 342.011   4
  -2   7   9 256.172 377.483   2
  -2   7   8 4634.68 897.136   2
   2  -7  -8 4536.84 818.876   4
   2  -7  -7 63.4182 271.200   4
  -2   7   7 494.316 263.592   1
  -2   7   7 289.433 295.921   2
   2  -7  -6 12620.0 1280.31   4
  -2   7   6 13738.5 1191.39   1
  -2   7   6 12006.6 1375.66   2
  -2   7   5 5257.76 708.918   1
  -2   7   5 6121.14 969.911   2
   2  -7  -5 4762.61 783.431   4
  -2   7   4 23721.7 1852.69   2
   2  -7  -4 23274.6 1673.58   4
   2  -7  -4 22191.8 880.091   5
  -2   7   3 748.565 257.218   1
   2  -7  -3 639.608 217.980   5
   2  -7  -3 235.974 337.670   4
  -2   7   3 79.6273 341.071   2
   2  -7  -2 2421.25 593.721   4
  -2   7   2 2593.37 378.686   1
   2  -7  -2 2816.61 441.322   5
  -2   7   2 1431.52 505.212   2
   2  -7  -1 962.648 290.509   5
   2  -7  -1 1160.28 417.017   4
  -2   7   1 1061.93 402.522   2
  -2   7   1 790.583 182.996   1
   2  -7   0 775.774 297.365   5
   2  -7   0 728.181 326.276   7
   2  -7   0 564.814 386.446   4
  -2   7   0 227.296 238.403   2
   2  -7   1 659.148 357.367   4
  -2   7  -1 802.085 339.118   2
   2  -7   1 879.553 342.533   7
   2  -7   1 267.995 232.906   5
   2  -7   2 44284.5 1054.85   1
   2  -7   2 45589.8 2337.47   4
  -2   7  -2 46421.7 2556.82   2
   2  -7   2 44736.9 2244.26   7
   2  -7   3 686.719 365.093   4
   2  -7   3 270.710 110.462   1
   2  -7   3 540.567 343.281   3
   2  -7   3 460.341 231.202   7
   2  -7   4 6147.90 546.939   1
   2  -7   4 7483.66 1012.59   3
   2  -7   4 5609.34 746.900   7
   2  -7   4 6527.16 912.294   4
   2  -7   5-144.465 241.961   4
   2  -7   5-16.3212 295.536   3
   2  -7   5-168.965 145.406   7
   2  -7   5 276.728 201.604   1
  -2   7  -6 11087.6 1434.73   6
   2  -7   6 9782.54 849.705   1
   2  -7   6 11219.1 1230.46   4
   2  -7   6 11346.5 1300.01   3
   2  -7   7 663.580 410.899   3
   2  -7   7 50.2474 197.410   4
   2  -7   7 570.752 311.534   1
  -2   7  -7-147.788 378.581   6
   2  -7   8 14871.5 1448.14   4
   2  -7   8 15712.3 1637.39   3
  -2   7  -8 13445.7 1727.46   6
  -2   7  -9 348.473 482.450   6
   2  -7   9-356.203 440.728   3
   2  -7  10 256.450 385.599   3
   2  -6 -13-731.612 408.880   4
  -2   6  12 1701.73 553.313   2
   2  -6 -12 1998.61 641.989   4
   2  -6 -11-218.612 234.647   4
  -2   6  11 226.355 303.499   2
   2  -6 -10 7118.91 1031.43   4
  -2   6  10 6931.88 1037.87   2
   2  -6  -9-370.806 299.061   4
  -2   6   9 206.878 263.519   2
  -2   6   8 14326.9 1407.86   2
   2  -6  -8 16204.6 1436.72   4
  -2   6   7 7377.31 898.744   1
   2  -6  -7 9137.12 1060.02   4
  -2   6   7 7842.70 1063.60   2
  -2   6   6 13863.8 1167.22   1
   2  -6  -6 14857.7 1301.70   4
  -2   6   6 13724.4 1346.78   2
  -2   6   5 1640.70 388.620   1
   2  -6  -5 1847.50 458.827   4
   2  -6  -5 1015.05 336.626   3
  -2   6   5 1668.43 514.856   2
   2  -6  -4 6847.69 428.988   5
  -2   6   4 7771.22 1014.88   2
   2  -6  -4 6868.40 779.788   3
   2  -6  -4 8718.30 972.260   4
  -2   6   3 898.582 336.549   4
  -2   6   3 842.366 262.030   1
   2  -6  -3 669.510 331.334   7
  -2   6   3 982.880 402.567   2
   2  -6  -3 620.667 181.139   5
   2  -6  -3 923.983 386.107   4
   2  -6  -3 1026.14 296.060   3
  -2   6   2 8678.40 1034.21   4
   2  -6  -2 9585.77 1020.81   4
  -2   6   2 9924.85 1084.94   2
  -2   6   2 9596.31 750.929   1
   2  -6  -2 9398.05 890.596   2
   2  -6  -2 9979.62 1106.70   7
   2  -6  -2 9539.12 729.813   5
  -2   6   1 1282.72 260.398   1
  -2   6   1 1804.72 497.531   4
   2  -6  -1 1190.01 402.867   7
   2  -6  -1 1222.15 436.123   4
   2  -6  -1 1273.16 388.276   6
  -2   6   1 1154.82 383.714   2
   2  -6  -1 760.172 251.823   5
   2  -6  -1 1118.87 328.002   2
  -2   6   0 32101.8 1101.79   1
  -2   6   0 32547.1 1933.39   2
   2  -6   0 29449.0 1603.44   2
   2  -6   0 32643.0 1969.42   6
   2  -6   0 32115.4 1585.51   5
   2  -6   0 33603.2 1916.19   7
   2  -6   0 31041.1 1801.74   4
  -2   6  -1 4363.82 739.093   2
   2  -6   1 3687.77 664.076   4
   2  -6   1 3582.16 344.568   1
   2  -6   1 3511.02 650.110   6
   2  -6   1 4359.59 636.263   5
   2  -6   1 4633.43 721.589   7
   2  -6   1 3153.38 541.602   2
  -2   6  -2 9708.75 1082.52   2
   2  -6   2 12378.1 1092.65   2
   2  -6   2 10516.5 624.255   1
   2  -6   2 9221.23 977.105   5
   2  -6   2 12028.3 1145.82   4
   2  -6   2 11152.2 1051.12   7
   2  -6   3-9.66751 110.616   7
   2  -6   3 238.885 145.578   1
   2  -6   3 367.841 330.611   3
   2  -6   3 489.850 299.000   4
  -2   6  -3 230.823 262.182   2
   2  -6   3 493.699 299.660   5
   2  -6   4 16035.4 1355.39   4
   2  -6   4 17683.3 1232.02   7
   2  -6   4 15737.9 1320.87   3
   2  -6   4 16562.9 952.803   1
   2  -6   5-145.116 240.482   3
  -2   6  -5-62.3378 350.062   6
   2  -6   5-121.850 120.452   7
   2  -6   5-204.425 246.237   4
   2  -6   5-11.7015 131.349   1
   2  -6   6 1702.77 484.296   3
   2  -6   6 2455.25 569.931   4
  -2   6  -6 3264.48 738.059   6
   2  -6   6 2767.00 438.107   7
   2  -6   6 2179.47 427.537   1
   2  -6   7 424.766 276.995   1
   2  -6   7-551.559 387.877   3
  -2   6  -7-45.7627 400.175   6
   2  -6   7 317.677 353.998   4
   2  -6   8 1207.04 492.271   3
   2  -6   8 1258.36 445.345   4
  -2   6  -8 1232.64 523.114   6
   2  -6   8 1381.21 414.906   1
   2  -6   9 17.3430 352.525   3
  -2   6  -9 360.884 467.011   6
   2  -6   9-94.4286 275.469   4
   2  -6   9 194.334 194.458   1
   2  -6  10 8926.07 1152.56   4
   2  -6  10 10057.5 1377.40   3
   2  -6  10 9238.55 1138.17   1
  -2   6 -10 9314.70 1513.29   6
   2  -6  11 347.012 403.279   3
   2  -5 -14 3164.76 816.561   4
   2  -5 -13 49.3345 164.305   4
  -2   5  13 108.231 237.661   2
  -2   5  12 4885.51 917.740   3
   2  -5 -12 3060.69 700.394   4
  -2   5  12 4089.61 778.609   2
  -2   5  11 1569.13 503.394   2
   2  -5 -11 1329.27 495.749   4
  -2   5  11 1026.36 529.773   3
   2  -5 -10 8242.77 1042.24   4
  -2   5  10 7570.17 1006.83   2
  -2   5  10 9546.16 1178.51   3
   2  -5  -9 483.228 338.627   4
  -2   5   9 397.707 336.769   2
   2  -5  -8 27414.1 1755.66   4
  -2   5   8 22613.6 1652.40   2
  -2   5   7 16192.5 1297.37   1
   2  -5  -7 18189.0 1397.33   4
  -2   5   7 20035.7 1535.94   2
   2  -5  -6 2713.15 578.943   4
  -2   5   6 3256.21 647.114   2
  -2   5   6 2829.22 533.398   1
   2  -5  -6 3063.24 605.801   3
  -2   5   5 9111.17 887.341   1
  -2   5   5 9682.57 1068.49   4
   2  -5  -5 9979.16 996.411   4
   2  -5  -5 9702.12 1109.95   7
  -2   5   5 8102.94 947.117   2
   2  -5  -5 8904.37 935.506   3
  -2   5   4 46834.6 2270.74   4
   2  -5  -4 47007.5 933.563   5
  -2   5   4 46466.0 2189.05   2
   2  -5  -4 45683.9 1913.01   3
   2  -5  -4 48699.5 2122.04   4
   2  -5  -4 50851.8 2463.60   7
   2  -5  -3 8915.13 909.009   4
  -2   5   3 9685.18 802.868   1
  -2   5   3 10492.8 1080.36   4
   2  -5  -3 8275.31 776.452   3
   2  -5  -3 10169.3 1082.92   7
  -2   5   3 9553.92 993.437   2
   2  -5  -3 9605.37 571.435   5
  -2   5   2 131005. 3536.63   2
   2  -5  -2 130216. 3416.09   4
  -2   5   2 124028. 2646.58   1
   2  -5  -2 129520. 3721.70   7
   2  -5  -2 123243. 2347.86   5
  -2   5   1 13541.2 814.965   1
   2  -5  -1 16434.7 1303.19   7
  -2   5   1 13919.7 1158.54   2
   2  -5  -1 13409.0 869.540   5
   2  -5  -1 12477.3 1075.96   4
   2  -5   0 25896.4 974.448   1
   2  -5   0 27687.3 1412.32   2
   2  -5   0 26883.7 1567.11   4
   2  -5   0 29960.0 1710.33   6
  -2   5   0 26680.8 1040.70   1
   2  -5   0 27804.1 1633.25   7
  -2   5   0 25149.9 1538.03   2
   2  -5   0 26028.5 1319.17   5
   2  -5   1 11406.7 650.572   1
   2  -5   1 11350.1 1034.55   4
  -2   5  -1 12337.2 1083.73   2
   2  -5   1 11000.0 1004.67   7
   2  -5   1 11139.9 924.585   2
   2  -5   1 11373.1 1072.25   6
  -2   5  -1 11197.9 650.619   1
   2  -5   1 10947.9 913.250   5
   2  -5   2 77045.1 1789.05   1
   2  -5   2 74232.0 2648.94   4
   2  -5   2 79842.1 2880.72   6
  -2   5  -2 81511.7 2814.05   2
   2  -5   2 77901.2 2558.64   7
   2  -5   2 78888.9 2514.76   2
   2  -5   2 79176.6 2614.61   5
   2  -5   3 48.9978 122.500   1
   2  -5   3-245.716 282.189   3
   2  -5   3-20.6416 149.968   7
   2  -5   3 567.232 267.746   6
   2  -5   3-2.30263 77.3517   2
  -2   5  -3 81.0639 241.105   2
   2  -5   3-16.6249 280.212   4
  -2   5  -3 56.8554 176.533   7
   2  -5   3-197.487 179.602   5
   2  -5   4 16595.5 1353.15   6
  -2   5  -4 18477.5 1480.66   6
   2  -5   4 18666.5 1035.40   1
   2  -5   4 17454.7 1123.89   7
  -2   5  -4 18680.1 1200.17   7
   2  -5   4 19326.2 1336.06   3
   2  -5   4 16717.6 1258.34   2
   2  -5   4 18296.9 1408.06   5
  -2   5  -5-21.4494 178.855   7
   2  -5   5 107.160 140.008   1
   2  -5   5 58.2475 152.196   2
   2  -5   5 62.2502 265.187   4
  -2   5  -5 48.0033 357.876   6
   2  -5   5-241.456 168.671   7
   2  -5   5-10.3723 230.800   3
   2  -5   6 14327.7 1271.48   4
   2  -5   6 11328.1 1116.56   3
  -2   5  -6 12301.6 972.063   7
   2  -5   6 13691.5 1044.06   1
   2  -5   6 12201.1 890.819   7
  -2   5  -6 13523.0 1408.80   6
   2  -5   7 239.633 339.206   3
  -2   5  -7 133.233 267.083   6
   2  -5   7 228.743 258.073   1
   2  -5   7 9.60914 59.0906   7
  -2   5  -7 36.9580 184.685   7
   2  -5   8 30872.3 2034.65   3
  -2   5  -8 29517.4 2304.58   6
   2  -5   8 33155.9 1872.19   1
  -2   5  -8 31534.3 1485.86   7
  -2   5  -9-218.180 171.762   7
   2  -5   9 65.1194 187.496   1
   2  -5  10 5020.07 849.181   1
  -2   5 -10 4602.12 1076.08   6
   2  -5  10 3692.69 840.309   3
   2  -5  11-194.612 466.816   1
   2  -5  11-2.33251 354.221   3
  -2   5 -11 19.7037 316.450   6
   2  -5  12 435.773 357.474   3
   2  -5  12 793.895 420.863   1
   2  -4 -13-521.973 353.169   4
   2  -4 -12 3889.15 771.714   4
  -2   4  12 4899.45 873.179   3
   2  -4 -11 1.72417 260.880   4
  -2   4  11-830.538 407.867   3
   2  -4 -10 6412.23 915.753   4
  -2   4  10 5570.84 879.435   3
  -2   4   9 6390.77 891.016   3
   2  -4  -9 7165.20 910.763   4
   2  -4  -8 7884.72 929.820   4
  -2   4   8 8119.53 954.174   3
  -2   4   7 1675.80 455.461   4
  -2   4   7 1195.95 424.835   3
   2  -4  -7 1396.48 426.353   4
   2  -4  -7 1712.47 514.851   3
   2  -4  -7 2154.21 556.714   7
   2  -4  -6 53961.1 2173.84   4
  -2   4   6 53716.0 2351.11   4
   2  -4  -6 53845.0 2502.54   7
  -2   4   6 51936.8 2221.00   2
   2  -4  -6 52287.0 2419.82   3
  -2   4   6 52150.8 2167.99   1
  -2   4   6 55203.7 2301.88   3
  -2   4   5 426.645 256.199   4
  -2   4   5 327.810 245.006   2
   2  -4  -5 199.363 218.992   4
   2  -4  -5 340.509 214.796   3
  -2   4   5 790.963 284.684   1
   2  -4  -5 843.647 311.961   7
   2  -4  -4 107857. 2924.89   4
  -2   4   4 107210. 3036.96   2
  -2   4   4 102388. 3119.42   4
   2  -4  -4 101048. 2816.81   3
   2  -4  -4 106369. 1237.69   5
  -2   4   3 23769.5 1223.93   1
   2  -4  -3 23674.2 1378.77   4
  -2   4   3 23742.2 1405.42   2
   2  -4  -3 22185.0 1165.12   3
   2  -4  -3 22244.4 763.883   5
  -2   4   2 130065. 3189.93   2
  -2   4   2 123743. 2592.69   1
   2  -4  -2 128083. 3123.20   4
   2  -4  -2 121336. 2512.11   3
   2  -4  -2 122280. 2094.19   5
  -2   4   1 5399.85 686.552   2
   2  -4  -1 4576.30 635.507   4
   2  -4  -1 5041.54 463.936   1
   2  -4  -1 5780.89 518.154   5
  -2   4   1 5357.82 517.765   1
   2  -4   0 16528.8 805.955   1
  -2   4   0 15475.3 1081.21   2
   2  -4   0 15801.7 1115.74   4
  -2   4   0 15960.3 825.344   1
   2  -4   0 16151.5 1150.82   7
   2  -4   0 16148.5 934.654   5
   2  -4   1 3790.72 401.978   1
   2  -4   1 4634.31 609.301   7
  -2   4  -1 4262.58 570.091   7
   2  -4   1 3746.50 582.735   4
  -2   4  -1 4131.26 420.630   1
   2  -4   1 4198.90 527.228   5
  -2   4  -1 4102.10 582.391   2
   2  -4   1 3832.98 492.531   2
   2  -4   2 84080.1 1907.37   1
   2  -4   2 85507.0 2473.56   7
   2  -4   2 82361.2 2621.80   4
  -2   4  -2 85116.0 2554.12   2
   2  -4   2 83835.1 2349.88   2
  -2   4  -2 77442.9 2348.03   7
   2  -4   2 83814.8 2469.70   5
  -2   4  -3-147.407 334.914   6
   2  -4   3 123.098 133.184   7
   2  -4   3 147.113 146.296   1
   2  -4   3 25.6187 239.236   3
  -2   4  -3 295.105 235.928   2
   2  -4   3 31.5733 184.676   5
   2  -4   3-151.307 162.285   6
   2  -4   3-38.0453 179.792   2
  -2   4  -3 35.4058 180.513   7
   2  -4   3 176.542 210.385   4
   2  -4   4 126587. 2684.28   1
   2  -4   4 133079. 3533.76   6
  -2   4  -4 121549. 2899.68   7
   2  -4   4 124543. 2793.95   7
   2  -4   4 124912. 3137.52   2
  -2   4  -4 124374. 3529.93   6
   2  -4   4 124720. 3050.64   3
   2  -4   4 130687. 3487.02   5
   2  -4   5 275.664 137.671   7
   2  -4   5 32.2708 181.627   1
   2  -4   5-5.41878 246.964   3
  -2   4  -5 144.335 306.657   6
   2  -4   5 182.434 164.610   6
   2  -4   5 188.544 145.930   2
  -2   4  -5 59.7562 170.547   7
   2  -4   5-48.8368 204.787   5
   2  -4   6 124376. 2704.03   7
   2  -4   6 129933. 3524.43   2
  -2   4  -6 129645. 3003.57   7
  -2   4  -6 127928. 4048.96   6
   2  -4   6 131395. 3473.33   3
   2  -4   6 129967. 3179.08   1
   2  -4   7-144.731 319.379   3
  -2   4  -7 34.8164 158.654   7
   2  -4   7 47.4743 125.533   7
   2  -4   7-443.513 241.980   2
  -2   4  -7-35.0158 344.219   6
   2  -4   7-27.8587 202.615   1
   2  -4   8 2049.68 506.204   3
  -2   4  -8 1650.63 364.205   7
  -2   4  -8 1838.49 626.111   6
   2  -4   8 1363.80 422.056   1
   2  -4   8 1741.17 326.044   7
   2  -4   9-159.102 387.686   3
  -2   4  -9-98.6203 254.514   7
   2  -4   9 76.3897 205.329   1
  -2   4  -9-44.6132 370.301   6
  -2   4 -10 9115.49 1395.99   6
  -2   4 -10 8368.93 764.421   7
   2  -4  10 8766.70 1174.31   3
   2  -4  10 8738.41 1093.70   1
  -2   4 -11-694.100 494.872   6
   2  -4  11 40.1523 325.358   3
   2  -4  11-313.535 368.292   1
   2  -4  12 2534.22 698.770   1
   2  -4  12 1203.60 518.565   3
   2  -4  13 7.41026 199.004   1
   2  -4  13-335.584 387.494   3
   2  -3 -13-556.346 315.803   4
  -2   3  13 343.236 419.180   3
   2  -3 -12 2268.52 604.512   4
  -2   3  12 2460.83 654.581   3
   2  -3 -11 747.977 353.724   4
  -2   3  11 546.526 393.651   3
   2  -3 -10 1033.23 422.350   4
  -2   3  10 597.965 376.781   3
   2  -3  -9 9916.21 1024.53   4
   2  -3  -9 10321.4 1142.34   7
  -2   3   9 11020.0 1140.02   3
  -2   3   9 10274.2 1039.39   4
  -2   3   8 70101.8 2651.22   3
  -2   3   8 62307.5 2475.54   4
   2  -3  -8 66363.3 2753.50   7
   2  -3  -8 69450.7 2525.20   4
   2  -3  -7 6915.72 381.885   5
   2  -3  -7 6913.07 787.280   4
  -2   3   7 6030.09 759.799   4
   2  -3  -7 5670.30 885.436   3
   2  -3  -7 5972.83 805.362   7
  -2   3   7 8558.57 914.012   3
   2  -3  -6 39673.7 1739.65   4
  -2   3   6 33066.4 1695.40   4
  -2   3   6 37122.4 1755.67   3
   2  -3  -6 35211.6 1963.74   3
   2  -3  -6 33437.2 1835.71   7
   2  -3  -6 35444.7 790.068   5
  -2   3   5 851.567 288.831   4
   2  -3  -5 788.290 269.512   4
   2  -3  -5 912.318 128.397   5
   2  -3  -5 1784.16 437.167   7
  -2   3   5 1144.48 326.958   3
   2  -3  -5 983.819 315.001   3
  -2   3   5 988.462 302.671   1
  -2   3   4 5473.67 654.469   3
   2  -3  -4 6697.21 690.463   4
  -2   3   4 6417.94 708.800   4
   2  -3  -4 6754.66 720.278   3
  -2   3   3-34.4147 133.240   4
  -2   3   3-132.964 157.656   1
   2  -3  -3 231.387 179.684   4
   2  -3  -3 157.970 144.009   3
  -2   3   2 14854.6 890.115   1
   2  -3  -2 15075.4 1002.10   4
   2  -3  -2 14191.8 793.451   3
  -2   3   2 15244.7 996.160   2
  -2   3   1 1708.25 372.079   7
   2  -3  -1 2527.69 341.844   1
  -2   3   1 1820.93 298.785   1
   2  -3  -1 1896.88 296.285   3
   2  -3  -1 1958.51 409.222   4
  -2   3   1 2169.57 424.115   2
   2  -3   0 133246. 2278.79   1
   2  -3   0 135227. 2511.72   2
  -2   3   0 129483. 2343.99   1
  -2   3   0 138852. 2930.59   7
  -2   3   0 135194. 2799.98   2
   2  -3   0 132951. 2953.99   4
   2  -3   0 132356. 2366.54   5
   2  -3   1 1165.53 294.367   7
   2  -3   1 1633.63 308.331   5
  -2   3  -1 1467.25 309.462   2
   2  -3   1 1155.90 234.549   1
   2  -3   1 1378.81 301.065   6
   2  -3   1 1068.07 238.342   2
   2  -3   1 1002.15 305.935   4
  -2   3  -1 1108.82 221.726   1
  -2   3  -1 1487.88 321.245   7
  -2   3  -2 150127. 3131.39   6
   2  -3   2 148900. 2981.40   7
   2  -3   2 150230. 2533.88   1
   2  -3   2 148004. 2782.75   2
  -2   3  -2 156022. 3027.69   2
  -2   3  -2 150676. 2490.01   1
   2  -3   2 154025. 3035.26   5
   2  -3   2 155452. 2668.86   3
  -2   3  -2 148338. 2982.64   7
   2  -3   3-11.7248 108.735   7
   2  -3   3 70.8052 169.101   3
  -2   3  -3 52.3998 146.194   7
   2  -3   3-80.4812 133.500   2
   2  -3   3-129.688 198.969   1
  -2   3  -3 47.4094 162.401   2
  -2   3  -4 635397. 7289.57   6
   2  -3   4 619082. 6244.69   2
  -2   3  -4 604469. 6130.17   7
   2  -3   4 618071. 5843.63   7
   2  -3   4 626957. 6082.21   3
   2  -3   4 618734. 5982.17   1
  -2   3  -5 5.68049 176.984   7
   2  -3   5-21.2701 222.483   1
  -2   3  -5-306.231 370.771   6
   2  -3   5-48.8824 177.228   7
   2  -3   5-193.805 264.041   6
   2  -3   5-337.963 297.748   3
   2  -3   5 72.7030 165.262   2
   2  -3   6 760.212 238.859   7
   2  -3   6 700.479 333.598   3
  -2   3  -6 1699.71 426.289   3
   2  -3   6 1429.38 393.666   6
  -2   3  -6 1037.09 291.503   7
  -2   3  -6 1224.98 429.754   6
   2  -3   6 520.887 278.712   1
   2  -3   6 1023.44 307.209   2
   2  -3   6 610.097 277.990   5
   2  -3   7-167.001 375.857   3
  -2   3  -7 116.704 179.772   3
   2  -3   7-391.988 178.936   7
  -2   3  -7 341.245 203.937   7
   2  -3   7-25.4155 185.494   2
   2  -3   7-250.360 278.485   6
  -2   3  -7-131.821 299.600   6
   2  -3   7 38.8605 209.841   1
   2  -3   8 22146.3 1504.70   2
  -2   3  -8 21944.3 1268.67   7
  -2   3  -8 22094.0 1794.14   6
   2  -3   8 20466.4 1493.52   3
  -2   3  -8 23117.2 1667.76   3
   2  -3   9 1.14887 199.847   4
  -2   3  -9 419.152 248.086   7
  -2   3  -9 222.859 380.770   6
  -2   3 -10 25424.8 1420.56   7
  -2   3 -10 25162.1 2197.05   6
   2  -3  10 20405.9 1671.66   3
  -2   3 -11 459.349 430.261   6
   2  -3  11 491.894 407.197   3
  -2   3 -11 514.082 257.492   7
  -2   3 -12 3558.91 1012.40   6
   2  -3  12 3412.96 803.710   3
   2  -3  13 568.406 333.167   3
   2  -2 -13 537.124 494.609   6
  -2   2  13 435.281 396.056   3
  -2   2  12 5303.86 928.170   3
   2  -2 -12 2905.91 615.942   4
   2  -2 -12 3189.08 851.909   6
   2  -2 -11 533.891 254.718   4
  -2   2  11 1985.70 624.641   3
  -2   2  10 12489.2 1102.70   4
   2  -2 -10 12021.4 1155.20   4
   2  -2 -10 13657.5 1260.95   7
   2  -2 -10 14958.6 934.384   5
  -2   2  10 13568.6 1336.66   3
   2  -2  -9 3335.51 605.043   4
   2  -2  -9 2107.36 480.831   7
  -2   2   9 2726.30 498.159   4
  -2   2   9 3619.26 711.145   3
   2  -2  -9 2619.11 392.441   5
   2  -2  -8 1073.61 363.035   4
  -2   2   8 544.950 215.630   4
  -2   2   8 447.915 341.694   3
   2  -2  -8 671.458 213.182   5
   2  -2  -8 726.574 335.781   7
   2  -2  -7 649.701 362.321   3
   2  -2  -7 207.497 228.226   4
  -2   2   7 781.235 275.168   4
   2  -2  -7 536.069 273.648   7
   2  -2  -7 453.471 176.253   5
  -2   2   7 636.734 358.822   3
  -2   2   6 7297.54 729.875   4
  -2   2   6 8763.50 870.206   3
   2  -2  -6 8809.13 984.948   3
   2  -2  -6 6973.33 505.600   5
   2  -2  -6 7006.03 710.808   4
   2  -2  -5 600.965 285.439   3
   2  -2  -5 176.650 127.326   5
   2  -2  -5-69.2741 167.947   4
  -2   2   5 227.495 162.508   4
  -2   2   5 136.820 261.711   3
   2  -2  -4 12644.3 842.084   4
  -2   2   4 11513.7 840.087   4
   2  -2  -4 11137.4 913.368   3
   2  -2  -4 10580.4 894.311   7
  -2   2   4 12224.6 868.634   3
   2  -2  -4 10927.9 541.254   5
  -2   2   3 14501.1 930.836   1
   2  -2  -3 13989.5 872.666   4
  -2   2   3 13740.7 900.619   4
   2  -2  -3 14848.3 1023.39   7
  -2   2   3 14745.6 878.074   3
   2  -2  -3 13409.3 891.405   3
  -2   2   2 229574. 3438.32   1
   2  -2  -2 232566. 3494.13   4
  -2   2   2 228744. 3560.92   4
   2  -2  -2 231217. 3153.21   3
  -2   2   2 236946. 3649.01   7
   2  -2  -1 32366.6 1160.53   1
  -2   2   1 32963.4 1213.47   1
   2  -2  -1 32359.2 976.684   3
  -2   2   1 34905.3 1379.11   7
  -2   2   1 36032.5 1306.23   2
   2  -2  -1 33046.9 1315.45   4
  -2   2   0 100583. 2034.57   1
   2  -2   0 103731. 2368.40   4
   2  -2   0 100484. 1980.23   1
  -2   2   0 101739. 2327.36   7
  -2   2   0 107442. 2145.24   2
   2  -2   0 101390. 1915.01   2
   2  -2   1 1335.04 263.513   1
  -2   2  -1 1423.89 255.347   2
  -2   2  -1 940.155 264.647   7
   2  -2   1 1213.01 211.574   2
  -2   2  -1 1355.96 242.363   1
   2  -2   1 1387.46 288.113   7
   2  -2   1 1192.50 247.263   6
  -2   2  -2 1266.33 291.541   6
   2  -2   2 1472.63 286.770   6
   2  -2   2 1354.14 216.908   3
  -2   2  -2 1297.21 272.337   7
   2  -2   2 1532.14 282.954   7
   2  -2   2 1141.15 245.698   1
   2  -2   2 1340.20 233.985   2
  -2   2  -2 1307.46 245.926   2
  -2   2  -2 1369.63 251.613   1
   2  -2   3 180.549 149.687   1
  -2   2  -3 279.774 194.472   7
   2  -2   3 142.850 129.298   3
   2  -2   3 269.625 146.598   7
   2  -2   3 367.926 168.630   6
   2  -2   3 161.655 113.479   2
  -2   2  -3 242.578 171.509   6
  -2   2  -3 431.413 189.390   2
  -2   2  -4 27488.5 1232.70   7
   2  -2   4 27538.6 1164.97   7
   2  -2   4 27031.8 1158.15   2
   2  -2   4 27832.4 1137.08   3
   2  -2   4 31087.9 1392.12   6
  -2   2  -4 28929.8 1427.83   6
   2  -2   4 29311.6 1284.40   1
  -2   2  -4 29417.4 1203.38   3
   2  -2   5 103.150 142.744   2
   2  -2   5-83.4859 221.425   3
  -2   2  -5 37.2221 145.441   3
   2  -2   5 123.394 160.318   7
   2  -2   5-89.6572 213.616   1
  -2   2  -5-320.876 363.093   6
  -2   2  -5-219.744 250.787   7
   2  -2   6 224315. 3379.85   7
   2  -2   6 229215. 3928.02   2
   2  -2   6 232217. 4023.72   3
   2  -2   6 239960. 4508.72   5
  -2   2  -6 223133. 3705.07   7
  -2   2  -6 224869. 4642.53   6
   2  -2   6 227876. 4210.09   6
   2  -2   7-37.4604 166.881   2
  -2   2  -7-237.282 192.857   3
   2  -2   7-19.4184 121.785   7
   2  -2   7 60.9034 132.412   6
  -2   2  -7-59.7008 156.220   7
  -2   2  -7-77.2146 275.201   6
   2  -2   7-113.631 275.228   3
   2  -2   7 46.3854 202.369   5
   2  -2   8 32637.2 1598.98   4
   2  -2   8 34907.6 1743.13   2
  -2   2  -8 33690.6 1954.81   3
   2  -2   8 33128.3 1770.94   3
  -2   2  -8 33171.9 1550.50   7
  -2   2  -8 32807.2 2100.95   6
   2  -2   8 32896.3 1863.11   5
   2  -2   9 565.964 356.975   3
   2  -2   9 528.196 217.366   4
  -2   2  -9-32.6600 194.784   7
  -2   2  -9 130.414 271.553   6
   2  -2   9 239.441 218.785   2
   2  -2  10 12434.7 1187.90   2
   2  -2  10 14461.8 1345.79   3
   2  -2  10 12317.3 1048.43   4
  -2   2 -10 14821.4 1134.67   7
  -2   2 -10 15804.0 1681.72   6
  -2   2 -11 1521.18 366.494   7
  -2   2 -11 1144.87 519.656   6
   2  -2  11 1738.47 574.964   3
  -2   2 -12 17037.8 2005.92   6
   2  -2  12 14211.2 1491.96   3
   2  -2  13 962.336 504.303   3
  -2   2 -13-307.344 398.582   6
   2  -2  14 956.380 499.560   3
   2  -1 -13 939.754 555.839   6
  -2   1  13-32.2328 195.417   3
   2  -1 -12 10178.5 1566.82   6
  -2   1  12 11324.1 1358.89   3
   2  -1 -11 1799.80 428.671   5
   2  -1 -11 1495.65 435.196   4
   2  -1 -11 1732.35 603.340   6
  -2   1  11 1400.51 501.843   3
   2  -1 -10 714.425 310.425   4
  -2   1  10 414.628 244.280   4
   2  -1 -10-3.90905 169.874   7
   2  -1 -10 148.400 289.255   6
  -2   1  10 759.428 430.993   3
   2  -1 -10 451.536 248.637   5
   2  -1  -9-253.230 218.831   4
  -2   1   9 223.462 154.319   4
  -2   1   9-40.1940 279.622   3
   2  -1  -9 291.632 233.393   5
  -2   1   8 17285.4 1096.68   4
   2  -1  -8 17478.6 1182.44   4
  -2   1   8 20777.4 1503.12   3
   2  -1  -8 17212.5 1081.87   5
   2  -1  -7 2602.18 578.811   3
   2  -1  -7 2672.85 437.905   4
  -2   1   7 1932.87 366.118   4
  -2   1   7 2497.19 535.291   3
   2  -1  -7 2403.01 395.691   5
   2  -1  -6 95416.0 2338.27   4
  -2   1   6 84305.6 2195.14   4
   2  -1  -6 86985.9 2507.15   7
  -2   1   6 92249.5 2766.10   3
   2  -1  -6 89753.8 3129.49   3
   2  -1  -6 82033.7 2059.15   5
   2  -1  -5 1629.07 303.109   5
   2  -1  -5 2408.93 477.060   3
  -2   1   5 1654.07 313.165   4
   2  -1  -5 1752.30 347.373   7
   2  -1  -5 2683.14 385.053   4
  -2   1   5 1579.92 398.022   3
   2  -1  -4 23842.6 1030.64   4
  -2   1   4 21882.2 1026.48   4
  -2   1   4 23175.1 1184.39   3
   2  -1  -4 22620.8 1287.28   3
   2  -1  -4 22149.3 919.961   5
   2  -1  -4 22135.1 1168.21   7
   2  -1  -3 96121.0 1986.53   4
  -2   1   3 95220.5 2046.61   4
   2  -1  -3 92551.2 2299.37   3
   2  -1  -3 95760.4 2318.33   7
  -2   1   3 101155. 2236.59   3
  -2   1   2 46310.7 1522.67   1
   2  -1  -2 46381.0 1360.63   4
  -2   1   2 48204.7 1414.49   4
   2  -1  -2 47630.6 1576.58   7
  -2   1   2 47114.8 1496.46   7
  -2   1   2 51357.3 1405.50   3
   2  -1  -2 48493.8 1421.35   3
   2  -1  -1 2159.19 315.294   1
   2  -1  -1 1954.03 292.516   4
  -2   1   1 2183.22 349.952   7
  -2   1   1 2652.12 344.679   1
   2  -1  -1 2945.74 385.766   7
  -2   1   1 2304.14 274.587   3
   2  -1  -1 2606.44 276.591   3
  -2   1   0 1868.51 327.260   7
   2  -1   0 2041.15 192.028   3
  -2   1   0 1816.03 263.801   2
  -2   1  -1 197.820 143.724   7
   2  -1   1 402.421 127.497   6
  -2   1  -1 478.324 137.713   2
  -2   1  -1 225.000 112.683   1
   2  -1   1 471.686 171.461   1
   2  -1   1 462.692 113.069   2
   2  -1   2 438.075 164.341   1
  -2   1  -2 241.285 154.532   7
  -2   1  -2 306.528 138.570   6
  -2   1  -2 692.132 155.556   2
   2  -1   2 514.649 103.190   3
   2  -1   2 502.716 170.435   7
  -2   1  -2 277.657 119.355   1
   2  -1   2 430.441 140.048   6
   2  -1   2 450.730 116.551   2
  -2   1  -3 533.581 143.330   3
   2  -1   3 253.985 164.498   1
  -2   1  -3 468.952 137.498   2
   2  -1   3 424.986 147.372   7
  -2   1  -3 433.599 169.230   7
   2  -1   3 543.573 140.065   2
   2  -1   3 599.876 178.366   6
  -2   1  -3 628.464 216.837   6
   2  -1   3 412.902 134.292   3
   2  -1   4 46035.0 1465.53   7
  -2   1  -4 43818.2 1559.66   6
   2  -1   4 45817.1 1278.69   2
   2  -1   4 45996.5 1499.64   6
  -2   1  -4 41990.3 1304.94   3
  -2   1  -4 42649.3 1454.72   7
   2  -1   4 44685.2 1324.45   3
   2  -1   4 47714.3 1616.63   1
   2  -1   5 10.4973 172.511   3
  -2   1  -5-4.97215 163.219   3
   2  -1   5 49.8637 168.073   1
  -2   1  -5-83.2031 223.258   6
   2  -1   5-24.3683 107.632   7
   2  -1   5-98.4111 97.2851   2
   2  -1   5 5.15095 134.977   6
  -2   1  -5 19.1769 134.639   7
   2  -1   6 116329. 2685.11   3
   2  -1   6 105283. 2375.92   2
   2  -1   6 113039. 2396.38   7
   2  -1   6 111697. 2828.85   5
  -2   1  -6 111405. 2634.23   7
  -2   1  -6 111343. 3031.75   6
  -2   1  -6 110489. 2782.42   3
  -2   1  -7 261.954 201.713   7
   2  -1   7 225.581 196.701   4
   2  -1   7 49.2105 249.684   3
  -2   1  -7-21.9853 268.188   6
   2  -1   7 31.1444 141.865   5
  -2   1  -8 6544.24 720.201   7
   2  -1   8 5760.96 754.084   3
   2  -1   8 6665.80 717.407   4
  -2   1  -8 5897.52 820.388   3
  -2   1  -8 6560.24 921.005   6
   2  -1   8 6791.78 800.704   5
  -2   1  -9 615.780 277.757   3
   2  -1   9 555.133 230.304   4
   2  -1   9 261.759 214.516   5
  -2   1  -9 822.578 443.885   6
   2  -1   9 486.449 314.945   3
  -2   1  -9 627.283 262.813   7
  -2   1 -10 29712.5 1680.84   7
   2  -1  10 25884.5 1487.47   4
  -2   1 -10 29492.5 2247.21   6
   2  -1  10 29158.6 1837.96   3
  -2   1 -11 437.034 261.604   7
  -2   1 -11-193.489 378.404   6
   2  -1  11 272.548 275.832   3
   2  -1  12 4675.32 882.756   3
  -2   1 -12 4063.47 688.212   7
  -2   1 -12 6020.89 1213.73   6
  -2   1 -13 1937.32 788.136   6
   2  -1  13 1111.55 487.285   3
   2  -1  14 2691.04 762.065   3
   2   0 -13 1900.54 721.997   6
   2   0 -12 1461.47 676.361   6
   2   0 -12 3059.81 606.633   5
  -2   0  12 3812.03 873.436   3
   2   0 -11 765.871 513.594   6
   2   0 -11 110.438 205.297   5
  -2   0  11 191.297 287.113   3
  -2   0  10 31187.7 2138.67   3
   2   0 -10 26351.3 1408.64   7
   2   0 -10 27388.6 1633.49   5
   2   0  -9 2839.72 739.200   6
  -2   0   9 2087.71 593.241   3
   2   0  -9 2199.82 455.875   4
   2   0  -9 2054.05 397.891   7
   2   0  -9 2151.54 471.509   5
  -2   0   9 2377.62 402.224   4
  -2   0   8 13357.3 866.810   4
   2   0  -8 14745.1 994.028   7
  -2   0   8 15042.4 1325.19   3
   2   0  -8 13476.5 1398.48   6
   2   0  -8 13648.3 1082.41   5
   2   0  -8 13483.8 968.404   4
   2   0  -7 26.1001 184.538   3
  -2   0   7-76.0536 119.454   4
   2   0  -7 10.6171 143.224   7
   2   0  -7 18.1374 148.160   4
   2   0  -7 209.321 305.332   6
  -2   0   7 371.614 360.745   3
   2   0  -7 11.4355 166.146   5
  -2   0   6 22876.1 1001.13   4
   2   0  -6 23638.2 1091.72   4
   2   0  -6 23230.8 1158.71   7
  -2   0   6 24943.3 1480.76   3
   2   0  -6 24398.3 1604.31   3
   2   0  -6 22592.4 1228.07   5
   2   0  -5 19206.7 877.280   4
  -2   0   5 17037.5 814.241   4
   2   0  -5 17883.8 1256.91   3
   2   0  -5 17593.1 955.943   7
   2   0  -5 18697.4 1052.72   5
  -2   0   5 18326.9 1179.72   3
   2   0  -4 116091. 2329.53   7
   2   0  -4 122545. 2005.54   4
  -2   0   4 111004. 1930.95   4
  -2   0   4 118883. 2703.90   3
   2   0  -4 115668. 2414.51   5
   2   0  -4 114220. 2820.26   3
  -2   0   3 210.810 193.804   3
  -2   0   3 286.156 140.100   4
   2   0  -3 138.045 161.172   5
   2   0  -3 160.502 126.108   3
   2   0  -3 257.802 122.879   4
  -2   0   3 29.4348 115.147   7
  -2   0   2 439.232 181.713   3
  -2   0   2 299.074 146.240   7
   2   0  -2 340.050 154.019   3
   2   0  -2 462.828 153.435   7
   2   0  -2 336.019 126.415   4
   2   0  -1 736.469 153.804   3
   2   0  -1 839.762 222.351   1
  -2   0   1 298.340 150.284   7
  -2   0   1 1056.21 196.714   3
   2   0  -1 835.322 183.727   4
   2   0  -1 963.309 203.051   7
  -2   0   0 297330. 3322.30   7
   2   0   0 303249. 3418.99   1
  -2   0   0 305430. 2058.26   3
   2   0   0 296963. 1998.51   3
  -2   0  -1 2072.65 295.411   7
   2   0   1 2475.59 328.558   1
   2   0   1 2592.47 189.992   6
  -2   0  -2 585.689 93.2533   3
   2   0   2 764.133 221.351   1
  -2   0  -2 313.312 163.932   7
  -2   0  -2 499.695 88.7491   2
  -2   0  -3 263.261 118.140   3
   2   0   3 230.071 139.375   1
  -2   0  -3 271.579 167.690   7
   2   0   3 341.396 80.5488   2
  -2   0  -3 703.384 176.613   6
   2   0   3 327.436 113.899   6
   2   0   3 152.588 91.3688   7
  -2   0  -4 103937. 2285.45   7
  -2   0  -4 109694. 2217.22   6
   2   0   4 102539. 2128.19   7
   2   0   4 104128. 1914.90   3
   2   0   4 103351. 1496.52   2
  -2   0  -4 106475. 2082.34   3
   2   0   4 110430. 2418.18   1
  -2   0  -5 3213.64 452.672   7
   2   0   5 3548.11 424.225   7
  -2   0  -5 3864.40 468.386   3
   2   0   5 3523.12 423.229   3
  -2   0  -5 3391.04 464.606   6
   2   0   6 56229.6 1847.27   4
   2   0   6 65640.1 1973.78   3
  -2   0  -6 62999.8 2014.76   7
  -2   0  -6 59118.3 2117.10   6
  -2   0  -6 63138.0 2149.16   3
   2   0   7 1498.61 342.966   4
  -2   0  -7 1621.83 372.390   7
   2   0   7 2020.42 413.996   3
  -2   0  -7 1437.41 441.869   6
   2   0   7 1844.40 363.410   5
  -2   0  -8 10866.7 1111.33   3
  -2   0  -8 10044.5 1083.25   6
   2   0   8 9909.07 934.135   3
   2   0   8 10055.8 857.015   4
  -2   0  -8 10366.6 944.680   7
   2   0   8 8884.34 847.570   5
   2   0   9 2953.95 496.426   4
  -2   0  -9 2685.36 590.052   3
   2   0   9 3195.59 596.223   3
  -2   0  -9 3658.34 610.518   7
  -2   0  -9 2638.83 637.607   6
   2   0   9 3455.17 586.360   5
   2   0  10 24.8395 144.841   4
  -2   0 -10 300.555 309.284   6
  -2   0 -10 439.174 293.812   7
   2   0  10 516.099 397.524   3
   2   0  10 299.068 213.929   5
  -2   0 -11 481.099 311.031   7
  -2   0 -11 125.818 327.500   6
   2   0  11 117.011 321.725   3
  -2   0 -12 13253.9 1296.87   7
  -2   0 -12 15514.0 1865.63   6
   2   0  12 13706.1 1378.13   3
  -2   0 -13 536.380 470.495   6
  -2   0 -13 326.086 243.800   7
   2   0  13 519.029 303.130   3
   2   0  14 3002.93 748.415   3
  -2   0 -14 4599.33 1174.76   6
   2   1 -13 54.1588 205.194   5
  -2  -1  12 10223.2 1362.85   3
   2   1 -12 8488.27 1484.51   6
   2   1 -12 8551.30 1064.65   5
  -2  -1  11 8166.64 1181.76   3
   2   1 -11 6566.65 1234.94   6
   2   1 -11 6330.16 928.071   5
   2   1 -10 3947.13 439.285   7
   2   1 -10 3881.74 696.429   5
   2   1 -10 3710.78 883.680   6
  -2  -1  10 5144.62 926.838   3
   2   1  -9 4137.99 446.360   7
  -2  -1   9 4019.75 445.857   4
  -2  -1   9 4559.77 655.781   5
  -2  -1   9 4457.95 802.710   3
   2   1  -9 2852.50 757.865   6
   2   1  -9 3928.10 664.348   5
  -2  -1   8 7914.30 578.146   4
  -2  -1   8 9317.06 1082.84   3
   2   1  -8 8800.24 944.724   5
   2   1  -8 9408.06 1189.23   6
  -2  -1   8 8289.68 845.100   5
   2   1  -8 8799.37 634.194   7
   2   1  -7 63.0977 95.2143   7
  -2  -1   7-42.4848 140.250   5
   2   1  -7-182.203 200.796   3
  -2  -1   7 106.436 105.424   4
   2   1  -7-294.667 272.344   5
  -2  -1   7-56.9380 338.042   3
   2   1  -7-68.1171 254.979   6
   2   1  -6 138950. 3898.10   3
  -2  -1   6 146420. 3661.61   3
  -2  -1   6 136964. 2029.49   4
   2   1  -6 139994. 2304.33   7
   2   1  -6 147392. 3869.44   6
   2   1  -6 141391. 3398.72   5
   2   1  -5 3117.94 518.027   5
   2   1  -5 2227.65 255.324   4
   2   1  -5 2097.07 460.169   3
  -2  -1   5 2774.43 264.528   4
  -2  -1   5 3356.91 576.128   3
   2   1  -5 3356.56 353.563   7
   2   1  -5 3122.64 542.467   6
  -2  -1   4 19753.0 1131.90   1
   2   1  -4 19611.6 615.051   4
   2   1  -4 20571.7 1158.18   6
  -2  -1   4 18471.7 608.939   4
  -2  -1   4 19791.2 1161.50   3
   2   1  -4 19105.7 786.844   7
   2   1  -4 20212.1 1224.41   3
   2   1  -4 20551.4 1165.71   5
   2   1  -3 5266.45 396.189   7
  -2  -1   3 5832.42 571.970   1
   2   1  -3 5455.60 290.246   4
  -2  -1   3 4808.41 386.829   7
   2   1  -3 5444.86 512.000   6
  -2  -1   3 5794.41 594.077   3
   2   1  -3 5614.53 584.118   3
   2   1  -3 5501.47 592.698   5
  -2  -1   2 65871.2 1789.41   1
   2   1  -2 68246.9 1006.58   4
   2   1  -2 69319.4 1413.00   7
  -2  -1   2 68713.4 1727.88   3
   2   1  -2 73831.9 1561.13   6
   2   1  -2 69214.8 1770.76   3
  -2  -1   2 66849.6 1415.43   7
   2   1  -2 68956.0 1882.60   5
   2   1  -1 18485.1 620.210   6
   2   1  -1 17263.9 850.350   1
  -2  -1   1 18161.5 870.690   1
   2   1  -1 16505.8 700.755   7
  -2  -1   1 18524.8 749.916   7
  -2  -1   1 16875.0 748.278   3
   2   1  -1 18406.3 790.139   3
   2   1   0 106306. 1855.64   7
   2   1   0 113856. 2096.81   1
  -2  -1   0 113158. 1905.46   7
  -2  -1   0 105674. 2000.79   1
  -2  -1   0 109345. 1633.03   3
  -2  -1  -1 19664.3 842.779   7
   2   1   1 19731.0 867.610   1
  -2  -1  -1 17915.4 812.696   1
   2   1   1 17530.1 788.024   7
   2   1   2 335902. 3664.76   1
  -2  -1  -2 328510. 3579.47   1
  -2  -1  -2 339182. 3711.51   7
  -2  -1  -2 331345. 2087.96   6
  -2  -1  -3 6869.01 459.328   3
  -2  -1  -3 7314.10 587.207   7
   2   1   3 6968.80 579.856   1
  -2  -1  -4 59592.0 1763.92   7
  -2  -1  -4 61456.0 1572.28   6
   2   1   4 61519.3 1440.54   3
   2   1   4 62033.8 1813.46   1
  -2  -1  -5-20.4461 179.799   7
  -2  -1  -5-38.5070 135.349   6
  -2  -1  -5 142.725 161.364   3
   2   1   5-104.763 168.258   3
  -2  -1  -6 30847.2 1486.51   6
   2   1   6 29654.0 1301.97   3
  -2  -1  -6 27543.6 1379.65   7
  -2  -1  -6 25445.9 1416.25   3
   2   1   7 4397.86 552.061   4
  -2  -1  -7 4053.25 583.337   7
  -2  -1  -7 3877.09 614.228   6
   2   1   7 4322.32 565.288   3
   2   1   8 19412.9 1206.95   4
  -2  -1  -8 18705.2 1287.64   7
  -2  -1  -8 20381.8 1497.74   6
  -2  -1  -8 18113.0 1474.20   3
   2   1   8 20071.8 1269.78   3
   2   1   9 1033.66 322.454   5
  -2  -1  -9 1184.04 436.664   3
  -2  -1  -9 973.935 464.310   6
   2   1   9 1339.85 365.004   4
  -2  -1  -9 765.609 353.414   7
   2   1   9 1696.14 453.243   3
  -2  -1 -10 22553.2 1585.53   7
   2   1  10 21162.3 1481.45   3
  -2  -1 -10 21286.2 1857.44   6
   2   1  10 21061.3 1369.37   5
  -2  -1 -11 326.193 248.781   7
   2   1  11-155.907 328.672   3
  -2  -1 -11 75.3366 274.256   6
   2   1  11-213.426 185.925   5
   2   1  12 9659.78 1134.68   3
  -2  -1 -12 9285.22 1418.18   6
  -2  -1 -12 8603.58 1103.09   7
  -2  -1 -13 228.828 376.426   6
   2   1  13 594.923 418.298   3
  -2  -1 -14 2063.22 617.999   7
   2   1  14 1372.21 533.619   3
  -2  -1 -14 1205.67 634.231   6
   2   2 -13 1145.17 449.526   5
   2   2 -12 2101.31 811.540   6
   2   2 -12 844.283 418.255   5
  -2  -2  12 1146.31 548.789   3
   2   2 -11 342.086 305.780   6
   2   2 -11 512.499 295.744   5
  -2  -2  11 1042.10 500.141   3
   2   2 -10 11107.5 1243.87   5
   2   2 -10 11647.6 1520.42   6
  -2  -2  10 11791.3 1380.42   3
  -2  -2   9 4440.85 810.802   3
   2   2  -9 5611.24 863.924   5
   2   2  -9 3987.86 842.823   6
  -2  -2   8 12991.7 570.223   4
   2   2  -8 13567.9 1429.46   6
  -2  -2   8 13381.8 1314.17   3
   2   2  -8 13658.4 1289.34   5
  -2  -2   8 15382.9 1227.41   5
  -2  -2   7 1584.22 403.790   5
  -2  -2   7 1338.03 164.339   4
  -2  -2   7 1159.29 435.318   3
   2   2  -7 1562.44 499.850   6
   2   2  -7 1435.67 434.047   5
  -2  -2   6 2731.82 494.721   5
   2   2  -6 3640.51 655.761   3
   2   2  -6 2457.61 551.225   6
   2   2  -6 2548.38 555.386   5
   2   2  -5 1444.08 413.550   5
  -2  -2   5 1787.68 385.920   5
  -2  -2   5 1287.76 407.568   3
   2   2  -5 1343.23 150.125   7
   2   2  -5 1106.04 343.210   6
  -2  -2   5 2065.48 413.787   1
   2   2  -5 965.810 332.843   3
   2   2  -4 156376. 3578.65   3
   2   2  -4 167069. 1704.79   7
  -2  -2   4 155104. 3181.40   1
  -2  -2   4 160213. 3452.28   3
   2   2  -4 163791. 3611.07   5
   2   2  -4 160652. 3350.42   6
  -2  -2   3 60434.3 1838.07   1
  -2  -2   3 64847.8 2015.55   3
  -2  -2   3 61494.3 1141.36   7
   2   2  -3 63503.8 1144.64   7
   2   2  -3 63795.6 1867.04   6
   2   2  -3 63014.1 2062.40   3
   2   2  -3 66313.6 2195.23   5
  -2  -2   2 233570. 3345.72   1
   2   2  -2 236557. 2366.72   7
  -2  -2   2 234255. 3573.01   3
   2   2  -2 234428. 3122.42   6
  -2  -2   2 233983. 2909.57   6
   2   2  -2 239828. 3645.73   3
   2   2  -2 247537. 4006.35   5
  -2  -2   2 238369. 2395.62   7
   2   2  -1 12029.8 721.213   1
   2   2  -1 11621.5 407.554   4
  -2  -2   1 10948.6 673.529   1
  -2  -2   1 12105.6 582.516   7
   2   2  -1 11508.1 571.909   7
   2   2  -1 11183.1 591.667   6
  -2  -2   1 10639.5 549.031   6
  -2  -2   1 11524.1 741.977   3
   2   2  -1 12872.9 876.287   5
  -2  -2   0 56588.0 1458.70   1
   2   2   0 59121.8 1120.04   6
  -2  -2   0 59106.9 1398.26   7
   2   2   0 57520.8 1499.91   1
  -2  -2   0 59218.6 1092.43   6
   2   2   0 56641.3 1105.99   4
   2   2   0 58571.9 1370.16   7
   2   2   1 1770.39 234.988   4
  -2  -2  -1 1835.69 179.195   6
   2   2   1 1937.01 286.613   1
  -2  -2  -1 2183.36 301.270   7
  -2  -2  -1 1824.83 268.162   1
   2   2   2 1641.28 283.301   1
  -2  -2  -2 1445.47 164.038   2
  -2  -2  -2 1578.12 274.120   7
  -2  -2  -2 1185.81 241.993   4
  -2  -2  -2 1685.28 263.078   1
  -2  -2  -3 17240.9 922.561   7
   2   2   3 16575.6 464.438   2
  -2  -2  -3 16544.3 874.782   4
   2   2   3 15018.7 787.401   4
  -2  -2  -3 15756.9 741.132   3
  -2  -2  -3 15410.0 417.260   2
   2   2   3 16971.2 887.202   1
   2   2   4 18762.2 504.710   2
  -2  -2  -4 18476.8 1022.04   7
  -2  -2  -4 16952.4 896.723   3
  -2  -2  -4 20026.6 1063.20   4
   2   2   4 20307.2 1047.89   1
  -2  -2  -5 9678.20 814.638   4
  -2  -2  -5 9314.54 792.088   3
  -2  -2  -5 10569.0 841.161   7
   2   2   5 10716.2 727.056   3
   2   2   5 10387.9 438.653   2
  -2  -2  -6 247988. 4222.41   7
  -2  -2  -6 255203. 4585.49   3
   2   2   7 35258.0 1574.13   4
  -2  -2  -7 37497.5 1765.74   7
   2   2   8 80612.4 2493.06   4
  -2  -2  -8 77723.0 2679.09   7
  -2  -2  -8 72979.4 2972.28   3
   2   2   8 84956.4 2542.70   3
   2   2   9 39.7751 146.351   4
  -2  -2  -9-64.8682 221.504   7
   2   2   9 21.2144 248.685   3
  -2  -2  -9 315.335 271.652   3
  -2  -2  -9-174.056 361.317   6
  -2  -2 -10 8268.23 1000.61   7
   2   2  10 9513.90 975.601   3
  -2  -2 -10 7490.28 1087.38   6
   2   2  10 9022.72 841.944   5
   2   2  11 1018.78 314.372   5
  -2  -2 -11 981.312 394.750   7
  -2  -2 -11 954.259 499.828   6
   2   2  11 1794.66 509.993   3
  -2  -2 -12 4813.22 848.133   7
  -2  -2 -12 4597.52 1031.85   6
   2   2  12 4993.57 816.062   3
   2   2  12 4064.55 626.780   5
  -2  -2 -13-365.252 451.210   6
  -2  -2 -13 269.346 273.094   7
   2   2  13 151.871 328.218   3
  -2  -2 -14 2347.46 670.742   7
   2   2  14 1540.06 538.865   3
  -2  -2 -14 1715.12 716.428   6
   2   3 -13-97.0898 330.731   5
   2   3 -12 3151.37 943.745   6
   2   3 -12 1761.28 634.706   5
   2   3 -11 300.371 315.269   6
  -2  -3  11-970.086 507.369   3
   2   3 -11-361.411 325.569   5
  -2  -3  10 2968.14 737.069   3
   2   3 -10 3829.13 933.759   6
   2   3 -10 3740.63 803.304   5
  -2  -3   9 4837.69 901.482   3
   2   3  -9 4777.29 852.143   5
   2   3  -9 3651.82 834.223   6
  -2  -3   8 1349.30 501.646   3
   2   3  -8 1938.47 597.296   6
   2   3  -8 1269.93 491.419   5
   2   3  -7 5786.56 914.476   6
  -2  -3   7 6230.35 915.440   3
   2   3  -7 5037.29 812.577   5
  -2  -3   6 37088.9 1789.43   1
   2   3  -6 38696.0 2133.49   5
  -2  -3   6 39918.6 1940.67   5
   2   3  -6 38825.7 2104.22   6
  -2  -3   6 42119.3 2171.12   3
  -2  -3   5 19812.1 1311.94   5
  -2  -3   5 19349.6 1208.23   1
  -2  -3   5 19292.2 1385.13   3
   2   3  -5 20035.0 1381.96   6
   2   3  -5 21512.4 1525.20   3
   2   3  -5 18002.5 1394.42   5
  -2  -3   4 96476.1 2507.99   1
   2   3  -4 103328. 3104.16   3
   2   3  -4 103869. 2868.71   6
  -2  -3   4 108760. 2883.93   5
  -2  -3   4 105320. 3003.51   3
   2   3  -4 100327. 3116.55   5
  -2  -3   4 100439. 2532.89   6
  -2  -3   3 10279.5 759.684   1
  -2  -3   3 9540.78 388.674   7
  -2  -3   3 10282.0 906.262   3
   2   3  -3 10509.4 852.744   6
   2   3  -3 9809.17 955.101   5
  -2  -3   3 9944.02 759.729   6
  -2  -3   2 22121.1 717.399   7
  -2  -3   2 20089.8 975.138   1
   2   3  -2 21449.9 1098.97   6
  -2  -3   2 21409.6 1027.12   6
  -2  -3   2 21250.4 1209.10   3
   2   3  -2 21227.9 1321.54   5
  -2  -3   1 8457.07 513.418   7
  -2  -3   1 9007.06 764.044   3
  -2  -3   1 8389.28 374.891   4
   2   3  -1 8610.56 428.446   4
  -2  -3   1 8163.90 583.530   6
  -2  -3   1 8517.16 597.179   1
   2   3  -1 7987.41 603.483   6
   2   3  -1 9125.21 624.890   1
   2   3  -1 9073.21 843.444   5
  -2  -3   0 26690.5 811.450   4
   2   3   0 26694.9 906.719   4
   2   3   0 29256.2 1079.21   1
  -2  -3   0 24646.0 963.993   1
  -2  -3   0 26571.0 982.878   7
  -2  -3   0 28029.9 1010.85   6
   2   3   0 30233.1 1414.93   5
   2   3   1 916.319 203.314   1
  -2  -3  -1 1014.23 203.457   4
  -2  -3  -1 1213.57 207.825   6
  -2  -3  -1 997.867 210.226   2
  -2  -3  -1 888.288 189.314   1
  -2  -3  -1 1061.53 243.632   7
   2   3   1 1412.12 235.993   4
  -2  -3  -2 45029.8 1201.06   2
  -2  -3  -2 49413.5 1407.41   4
   2   3   2 47200.6 1412.93   4
  -2  -3  -2 46813.1 1328.76   1
   2   3   2 48514.4 1400.55   1
  -2  -3  -3 91299.5 2106.48   4
   2   3   3 93812.1 1653.09   2
   2   3   3 85418.7 2025.60   4
   2   3   3 91061.8 2055.25   1
  -2  -3  -3 84813.7 1476.85   2
  -2  -3  -4 117892. 2609.95   4
   2   3   4 116668. 1776.10   2
   2   3   4 122145. 2539.92   1
  -2  -3  -5 712.645 311.970   4
   2   3   5 203.008 178.634   1
   2   3   5 482.983 144.026   2
  -2  -3  -5 406.430 190.829   3
  -2  -3  -6 90223.4 2646.49   4
   2   3   6 84199.4 1647.26   2
   2   3   7 4409.23 584.068   4
  -2  -3  -7 4219.53 657.338   4
   2   3   7 4205.90 405.363   2
   2   3   7 3367.20 585.021   3
  -2  -3  -7 4097.71 660.583   3
  -2  -3  -8 19736.6 1570.57   3
  -2  -3  -8 21443.5 1515.49   4
   2   3   8 21059.7 1329.28   4
   2   3   8 20497.0 1324.81   3
  -2  -3  -9 983.394 417.511   4
   2   3   9 1164.86 374.755   3
  -2  -3  -9 1701.58 545.939   3
  -2  -3 -10 7493.79 972.622   7
   2   3  10 7522.04 905.284   3
  -2  -3 -11 143.742 300.067   7
   2   3  11-25.2871 128.101   5
   2   3  11-27.0985 278.979   3
  -2  -3 -12 11460.4 1309.73   7
   2   3  12 12032.4 1225.37   3
  -2  -3 -12 13212.3 1628.30   6
   2   3  12 11797.1 1008.04   5
  -2  -3 -13-56.6606 271.624   7
   2   3  13-156.620 235.537   3
  -2  -3 -13-152.430 365.920   6
  -2  -3 -14 7047.35 1092.24   7
   2   3  14 8261.68 1126.94   3
  -2  -3 -14 6892.42 1343.13   6
  -2  -3 -15 301.296 238.994   7
   2   4 -12 1555.85 606.677   5
  -2  -4  11-754.299 521.566   3
   2   4 -11-338.920 314.252   6
   2   4 -11 502.937 380.085   5
  -2  -4  10 5455.29 1059.75   3
   2   4 -10 6002.54 1169.71   6
   2   4 -10 5106.67 964.603   5
  -2  -4   9 1479.58 561.383   3
   2   4  -9 1319.50 496.248   5
   2   4  -9 1148.21 518.319   6
   2   4  -8 12631.9 1453.66   6
  -2  -4   8 12975.5 1407.36   3
   2   4  -8 10641.8 1309.22   5
   2   4  -7 3929.21 783.300   6
  -2  -4   7 4640.57 856.240   3
  -2  -4   7 4050.06 640.777   1
   2   4  -7 2567.22 685.422   5
  -2  -4   6 2835.75 627.791   3
   2   4  -6 2258.74 553.074   6
  -2  -4   6 1918.73 424.750   1
   2   4  -6 1452.64 537.618   5
  -2  -4   5 1102.47 308.233   1
  -2  -4   5 1510.61 440.815   5
  -2  -4   5 1143.17 415.627   3
  -2  -4   5 1232.40 338.947   6
   2   4  -5 651.234 344.275   6
   2   4  -5 1196.11 484.709   5
  -2  -4   4 5157.42 594.298   1
  -2  -4   4 6539.07 712.596   6
  -2  -4   4 6346.80 774.151   5
   2   4  -4 5861.61 753.733   6
   2   4  -4 5132.70 784.276   5
  -2  -4   4 5004.04 733.173   3
  -2  -4   3 63.6326 127.907   1
  -2  -4   3 289.392 284.564   3
   2   4  -3 255.468 218.652   6
  -2  -4   3 1.84097 147.613   6
  -2  -4   3 15.6784 56.0076   7
   2   4  -3 38.1473 265.799   5
  -2  -4   2 84484.6 1133.56   4
  -2  -4   2 80500.4 1939.71   1
  -2  -4   2 82643.1 1528.56   7
   2   4  -2 86918.1 2901.38   5
   2   4  -2 83433.0 2408.39   6
  -2  -4   2 80727.9 2246.83   6
  -2  -4   2 81699.1 2607.28   3
  -2  -4   1 44398.1 1028.77   4
  -2  -4   1 44831.4 1250.29   7
   2   4  -1 45393.2 1214.41   4
  -2  -4   1 43822.2 1332.11   1
  -2  -4   1 43108.9 1561.28   6
  -2  -4   1 48585.1 1923.46   3
   2   4  -1 44311.4 1624.17   6
   2   4  -1 46958.9 2050.13   5
   2   4   0 291382. 4812.70   5
  -2  -4   0 285371. 2957.81   4
   2   4   0 292159. 3332.93   1
   2   4   0 288131. 3473.66   4
  -2  -4   0 278675. 3139.44   1
  -2  -4   0 283506. 3854.93   6
  -2  -4  -1 32215.1 1111.90   4
  -2  -4  -1 31730.1 1043.90   1
   2   4   1 32673.5 1114.16   1
  -2  -4  -1 31113.6 1298.34   2
   2   4   1 30674.1 1229.05   4
  -2  -4  -1 29089.4 1182.53   6
   2   4   1 31986.5 1540.44   5
  -2  -4  -2 14442.8 815.460   4
   2   4   2 14510.8 893.747   4
  -2  -4  -2 13674.7 795.707   2
   2   4   2 14078.7 771.216   1
  -2  -4  -2 14668.2 729.689   1
  -2  -4  -3 5777.26 481.252   2
  -2  -4  -3 6055.58 578.001   4
   2   4   3 4949.43 553.311   4
   2   4   3 6443.08 557.642   2
   2   4   3 5382.94 514.664   1
  -2  -4  -4 21580.9 1166.12   4
   2   4   4 22727.7 992.532   2
   2   4   4 21321.5 1088.82   1
  -2  -4  -4 19631.6 835.093   2
  -2  -4  -5 1387.01 364.506   4
   2   4   5 984.988 235.562   2
   2   4   5 798.820 254.691   1
  -2  -4  -6 8768.83 862.872   4
   2   4   6 7177.82 573.912   2
  -2  -4  -6 7419.96 772.954   3
  -2  -4  -7 2461.53 519.245   4
   2   4   7 2628.41 369.100   2
   2   4   7 2153.62 438.347   4
  -2  -4  -7 2162.45 508.529   3
  -2  -4  -8 20704.1 1475.25   4
   2   4   8 18117.8 1284.71   4
  -2  -4  -8 17397.9 1451.10   3
   2   4   8 17611.9 965.924   2
  -2  -4  -9 7058.42 951.997   4
   2   4   9 7269.14 662.753   2
  -2  -4 -10 20097.7 1653.96   4
   2   4  10 19536.1 1116.00   2
   2   4  10 21696.8 1543.85   3
   2   4  11 1368.00 339.019   2
  -2  -4 -11 839.299 443.302   4
   2   4  11 1693.15 486.684   3
   2   4  12 14005.0 1350.18   3
  -2  -4 -12 12124.0 1359.65   7
   2   4  12 13713.1 1013.56   2
   2   4  13 560.604 241.807   2
  -2  -4 -13 487.429 316.910   7
   2   4  13 134.776 267.077   3
  -2  -4 -14 1415.94 627.632   6
  -2  -4 -14 1396.59 507.492   7
   2   4  14 1923.51 580.516   3
  -2  -4 -15-220.879 212.073   7
  -2  -5  10 3057.29 854.812   3
   2   5 -10 1896.95 698.923   6
   2   5 -10 2553.78 789.338   5
  -2  -5   9 191.322 471.985   3
   2   5  -9-92.9104 223.604   6
   2   5  -9-299.118 451.729   5
  -2  -5   8 4032.68 883.801   3
   2   5  -8 3820.42 876.529   5
   2   5  -8 3494.52 810.542   6
   2   5  -7 145.612 392.212   5
  -2  -5   7-107.846 272.245   3
  -2  -5   7 160.812 151.314   1
   2   5  -7-18.5527 217.135   6
  -2  -5   6 10910.2 990.963   1
   2   5  -6 10537.9 1233.08   6
  -2  -5   6 11103.6 1244.81   3
   2   5  -6 11327.5 1376.44   5
  -2  -5   5 369.657 287.463   3
  -2  -5   5 600.612 280.006   6
   2   5  -5 459.724 306.520   6
  -2  -5   5 522.454 229.171   1
   2   5  -5 640.760 371.973   5
  -2  -5   4 10382.5 831.985   1
  -2  -5   4 9429.56 1076.40   3
   2   5  -4 9742.62 1172.03   5
   2   5  -4 11872.0 1141.43   6
  -2  -5   4 11404.4 1033.47   6
  -2  -5   3 8902.38 390.896   4
  -2  -5   3 9062.91 446.123   7
  -2  -5   3 9148.34 713.280   1
  -2  -5   3 9688.73 910.154   6
  -2  -5   3 10218.8 1064.88   3
   2   5  -3 9149.70 959.042   6
   2   5  -3 8915.28 1084.77   5
  -2  -5   3 9135.67 938.589   5
  -2  -5   2 88713.2 1495.64   4
  -2  -5   2 92199.7 2969.88   2
  -2  -5   2 79332.4 1903.74   1
  -2  -5   2 85006.4 2556.75   6
  -2  -5   2 84610.1 1679.23   7
   2   5  -2 84293.6 2669.13   6
  -2  -5   2 91787.3 3009.31   3
   2   5  -2 83054.6 3101.11   5
   2   5  -1 2237.22 531.627   5
  -2  -5   1 2052.39 293.462   4
  -2  -5   1 1868.93 453.438   3
  -2  -5   1 1988.53 432.090   2
   2   5  -1 1812.48 307.943   4
  -2  -5   1 2386.41 427.573   6
  -2  -5   1 2230.66 298.338   1
   2   5   0 21419.8 877.073   1
  -2  -5   0 22318.4 940.202   4
   2   5   0 20471.7 1071.52   4
  -2  -5   0 21238.7 830.882   1
  -2  -5   0 21965.0 1240.40   6
   2   5   0 23189.3 1505.60   5
  -2  -5  -1 6172.87 557.846   4
   2   5   1 6761.48 681.145   4
   2   5   1 5396.81 453.149   1
  -2  -5  -1 6630.69 666.920   6
  -2  -5  -1 7360.45 487.071   1
   2   5   1 7741.00 836.614   5
   2   5   2 125475. 2267.46   1
  -2  -5  -2 132539. 2649.90   4
  -2  -5  -2 127115. 2751.41   2
   2   5   2 126189. 3155.74   5
   2   5   3 8357.43 622.834   1
   2   5   3 8013.65 716.862   2
  -2  -5  -3 7728.31 648.379   2
  -2  -5  -3 8359.30 720.086   4
   2   5   3 8131.15 772.993   5
   2   5   4 1780.27 345.557   2
  -2  -5  -4 1936.77 403.053   4
   2   5   4 1713.46 329.602   1
   2   5   4 1516.47 366.151   4
  -2  -5  -4 1885.72 308.677   2
  -2  -5  -5 328.247 141.438   2
  -2  -5  -5 98.8964 233.102   4
   2   5   5 279.875 207.808   4
   2   5   5 157.518 168.311   1
   2   5   5 139.515 151.803   2
  -2  -5  -5 182.101 183.627   3
  -2  -5  -6 38340.4 1819.59   4
   2   5   6 39277.6 1875.87   4
  -2  -5  -6 37303.9 1766.54   3
   2   5   6 33474.9 1596.02   1
   2   5   6 34174.0 1425.25   2
  -2  -5  -7 5770.03 775.426   4
   2   5   7 4977.41 694.148   4
   2   5   7 5027.24 578.534   2
  -2  -5  -7 4798.44 712.051   3
   2   5   8 52842.5 1847.24   2
  -2  -5  -8 53505.4 2399.79   4
  -2  -5  -8 46677.8 2354.68   3
   2   5   9 14898.9 1017.68   2
  -2  -5  -9 13795.7 1302.19   4
  -2  -5 -10 4647.94 826.165   4
   2   5  10 4164.99 566.850   2
   2   5  10 4721.05 492.590   5
  -2  -5 -11 319.553 394.164   4
   2   5  11 71.0141 69.5651   5
   2   5  11 13.3362 165.551   2
  -2  -5 -12 1796.67 585.345   4
   2   5  12 2031.39 438.802   2
  -2  -5 -13 972.064 431.272   7
   2   5  13-17.9709 184.734   2
  -2  -5 -14 2926.58 733.692   7
  -2  -5 -15 564.038 396.579   7
   2   6 -10 2725.11 858.757   6
   2   6  -9-484.303 442.164   5
  -2  -6   9 44.8034 161.863   3
   2   6  -9 110.314 412.097   6
  -2  -6   8 3657.77 849.612   3
   2   6  -8 3282.19 827.915   6
   2   6  -8 5144.73 1042.34   5
  -2  -6   7 1094.51 499.775   3
   2   6  -7 1755.48 594.378   6
   2   6  -7 2996.66 806.879   5
  -2  -6   6 7277.95 800.922   1
   2   6  -6 6791.63 1027.11   6
  -2  -6   6 8364.26 1141.82   3
   2   6  -6 7982.53 1239.35   5
  -2  -6   5 409.707 343.744   3
  -2  -6   5 728.281 252.836   1
   2   6  -5 634.103 371.554   6
   2   6  -5-400.814 383.235   5
  -2  -6   4 18798.2 576.185   4
  -2  -6   4 17956.9 1062.03   1
   2   6  -4 17129.4 1654.56   5
   2   6  -4 17077.8 1469.82   6
  -2  -6   4 18858.8 1595.03   3
  -2  -6   3-87.5671 256.385   3
  -2  -6   3 84.3397 97.9580   7
  -2  -6   3 16.9127 82.3548   4
  -2  -6   3 210.813 155.096   1
  -2  -6   3 109.021 192.566   6
   2   6  -3 460.455 308.302   6
  -2  -6   3 70.0486 97.0629   7
   2   6  -3 87.6351 240.231   5
   2   6  -2-84.1776 345.289   5
  -2  -6   2 156.622 272.915   3
  -2  -6   2-454.949 255.309   2
  -2  -6   2 120.878 134.292   4
  -2  -6   2 229.806 123.230   1
  -2  -6   2 209.527 138.440   7
   2   6  -2 41.1652 193.717   6
  -2  -6   2 325.700 219.196   6
  -2  -6   1 1684.61 244.187   1
  -2  -6   1 1842.28 500.128   3
   2   6  -1 1522.09 331.299   4
   2   6  -1 1342.99 478.424   5
  -2  -6   1 2023.94 319.895   4
  -2  -6   1 1989.69 453.894   2
  -2  -6   1 1469.43 370.576   6
  -2  -6   0 93824.5 2146.57   4
   2   6   0 84023.7 2462.84   4
  -2  -6   0 89121.2 2844.69   2
  -2  -6   0 87181.6 2733.08   6
  -2  -6   0 87798.4 1575.65   1
   2   6   0 84031.2 3090.59   5
   2   6   1-15.3990 89.1071   1
   2   6   1 344.919 299.965   5
  -2  -6  -1 166.176 204.277   4
  -2  -6  -1 125.828 160.053   2
  -2  -6  -1-78.2873 164.149   6
  -2  -6  -2 29771.7 1369.87   4
   2   6   2 25171.3 973.972   1
  -2  -6  -2 26956.9 1414.40   2
  -2  -6  -2 27139.7 1482.75   6
   2   6   2 28248.6 1626.97   5
   2   6   3 218.196 189.850   5
   2   6   3 74.5047 134.396   1
  -2  -6  -3 112.699 215.542   4
   2   6   3 538.906 261.260   4
   2   6   3 32.0731 208.359   2
  -2  -6  -4 32844.8 1605.43   4
   2   6   4 34682.7 1655.33   2
   2   6   4 32951.9 1327.72   1
   2   6   4 31031.3 1524.80   5
   2   6   4 31685.1 1762.84   4
   2   6   5 151.806 153.071   5
   2   6   5 325.741 220.978   4
  -2  -6  -5 29.8702 222.335   4
   2   6   5 332.543 285.786   2
   2   6   5 222.514 198.282   1
   2   6   6 91208.0 3085.79   4
  -2  -6  -6 91317.6 2921.13   3
  -2  -6  -6 96467.1 3012.28   4
   2   6   6 89537.1 2592.62   2
   2   6   6 90029.0 2600.37   1
   2   6   6 95301.1 2397.69   5
  -2  -6  -7 4243.43 730.637   4
   2   6   7 2727.07 486.282   2
   2   6   7 3135.02 557.591   1
  -2  -6  -8 7532.46 961.824   4
   2   6   8 8323.26 832.004   2
  -2  -6  -9 2617.68 656.296   4
   2   6   9 3746.01 578.438   2
  -2  -6 -10 3577.05 733.000   4
   2   6  10 3056.05 367.157   5
   2   6  10 3718.20 592.394   2
  -2  -6 -11 2249.27 638.076   4
   2   6  11 1566.85 395.758   2
  -2  -6 -12 4700.45 932.499   4
   2   6  12 6085.11 778.134   2
  -2  -6 -13-245.359 293.005   4
   2   6  13-208.141 191.456   2
  -2  -6 -14 2055.12 702.011   4
  -2  -6 -14 3574.77 833.111   7
   2   7  -9 1569.09 644.049   6
  -2  -7   8 951.206 578.382   3
   2   7  -8 1474.22 610.142   6
   2   7  -8 2140.64 749.229   5
   2   7  -7 5577.78 1116.27   5
  -2  -7   7 6303.72 1120.47   3
   2   7  -7 4522.82 969.159   6
  -2  -7   6 4699.76 959.773   3
   2   7  -6 5112.03 965.417   6
   2   7  -6 5167.88 1088.38   5
  -2  -7   5 1234.39 565.019   3
   2   7  -5 1954.75 607.819   6
   2   7  -5 1098.87 596.166   5
  -2  -7   4 6551.96 438.386   4
  -2  -7   4 5913.17 976.454   3
  -2  -7   4 6203.66 602.649   1
   2   7  -4 6453.86 961.938   6
   2   7  -4 4739.57 964.869   5
  -2  -7   3 802.847 420.674   3
  -2  -7   3 357.122 165.728   4
  -2  -7   3 331.884 156.252   7
  -2  -7   3 392.706 149.273   7
  -2  -7   3 347.714 150.773   1
   2   7  -3 93.7987 342.798   5
  -2  -7   2 10434.4 728.962   7
  -2  -7   2 10462.1 705.829   4
  -2  -7   2 11064.4 620.463   1
  -2  -7   2 10514.6 1210.81   3
   2   7  -2 11411.6 1339.40   5
  -2  -7   1 1499.77 198.575   1
  -2  -7   1 765.192 320.146   3
  -2  -7   1 1491.97 309.129   4
   2   7  -1 1150.34 317.964   4
  -2  -7   1 1582.73 423.845   6
   2   7  -1 1356.20 514.305   5
  -2  -7   0 11794.6 851.341   4
  -2  -7   0 9702.34 1011.21   6
  -2  -7   0 11688.6 1120.47   2
   2   7   0 11350.7 1236.53   5
   2   7   1 490.665 326.368   5
   2   7   1 356.124 256.961   4
  -2  -7  -1 803.398 288.083   4
  -2  -7  -1 643.520 286.161   6
  -2  -7  -1 864.530 314.519   2
   2   7   2 21690.9 804.799   1
   2   7   2 21356.4 1529.66   4
  -2  -7  -2 22839.6 1288.43   4
  -2  -7  -2 23683.0 1462.64   2
   2   7   2 20658.9 1504.69   5
  -2  -7  -2 20864.4 1435.36   6
   2   7   3 3447.21 606.162   5
   2   7   3 2956.77 358.087   1
  -2  -7  -3 3784.95 598.928   4
   2   7   3 2866.42 598.915   4
   2   7   3 2946.19 570.246   2
  -2  -7  -3 3528.82 544.598   2
   2   7   4 41678.3 1461.67   1
  -2  -7  -4 42494.0 1930.92   4
   2   7   4 41370.7 2251.15   4
   2   7   4 44886.2 2103.73   2
  -2  -7  -4 41626.2 1776.31   2
   2   7   4 41565.5 1890.40   5
  -2  -7  -5 9332.85 964.730   4
   2   7   5 10943.6 1053.75   2
   2   7   5 10537.6 822.185   1
   2   7   5 9250.11 845.298   5
  -2  -7  -5 9391.59 836.424   2
   2   7   6 155.624 190.516   5
  -2  -7  -6 704.183 248.683   2
  -2  -7  -6 741.713 376.152   4
   2   7   6 707.451 326.549   2
   2   7   6 446.600 232.276   1
  -2  -7  -7 15915.0 1349.79   4
   2   7   7 14503.4 1137.15   1
   2   7   7 15630.7 976.994   5
   2   7   7 14132.0 1162.76   2
  -2  -7  -8 29023.7 1873.97   4
   2   7   8 27269.9 1640.31   2
   2   7   8 29381.7 1736.06   1
   2   7   8 29765.3 1258.24   5
   2   7   9 102.179 137.339   5
  -2  -7  -9 51.6206 281.241   4
   2   7   9-206.705 333.468   2
   2   7  10 10680.6 1059.92   2
  -2  -7 -10 10272.9 1238.68   4
   2   7  10 9451.08 625.609   5
  -2  -7 -11 860.736 454.312   4
   2   7  11 874.339 336.275   2
  -2  -7 -12 5320.63 968.669   4
   2   7  12 3341.24 633.624   2
  -2  -7 -13-392.892 338.507   4
  -2  -8   7 282.553 410.442   3
   2   8  -7 825.286 456.595   6
   2   8  -7 554.507 468.989   5
  -2  -8   6 1548.14 628.189   3
   2   8  -6 1937.56 658.078   6
   2   8  -6 787.807 498.828   5
  -2  -8   5 398.144 400.360   3
   2   8  -5 1290.06 531.226   6
   2   8  -5 2012.57 697.576   5
  -2  -8   4 7709.66 1173.14   3
   2   8  -4 7843.25 1297.16   5
  -2  -8   3 629.276 194.887   7
  -2  -8   3 224.527 343.414   3
  -2  -8   3 716.528 234.588   4
   2   8  -3 235.385 329.195   5
  -2  -8   2 10228.2 768.113   4
  -2  -8   2 9896.74 845.343   7
  -2  -8   2 12032.0 1395.76   3
   2   8  -2 9846.56 1337.78   5
  -2  -8   1 11377.2 874.692   4
   2   8  -1 12347.9 1087.65   4
  -2  -8   1 12215.4 1359.43   3
   2   8  -1 12537.6 1438.58   5
  -2  -8   0 3453.45 532.173   4
   2   8   0 2336.63 519.549   4
   2   8   0 1867.38 582.241   5
  -2  -8  -1 11451.1 957.576   4
   2   8   1 11033.2 1156.26   4
   2   8   1 12324.3 1302.03   5
  -2  -8  -2 36501.5 1750.36   4
   2   8   2 33706.8 2123.07   4
   2   8   2 36581.0 2097.48   5
   2   8   3 971.168 393.850   5
   2   8   3 781.857 166.191   1
  -2  -8  -3 1083.09 393.432   4
   2   8   3 999.321 398.821   4
   2   8   4 1693.47 443.680   5
  -2  -8  -4 1728.90 483.668   4
   2   8   4 2162.15 545.533   2
   2   8   4 1601.85 303.394   1
  -2  -8  -4 1879.95 443.161   2
   2   8   5 171.010 216.139   5
  -2  -8  -5-307.309 378.984   4
   2   8   5-22.3202 133.427   1
   2   8   5-609.495 352.673   2
  -2  -8  -5 99.9719 150.448   2
  -2  -8  -6 13703.6 1263.70   4
   2   8   6 12592.7 1223.79   2
  -2  -8  -6 12157.7 998.033   2
   2   8   6 12587.8 965.890   1
   2   8   6 14158.8 1033.83   5
  -2  -8  -7 2961.67 661.980   4
   2   8   7 3618.55 577.770   1
   2   8   7 2739.11 581.153   2
   2   8   7 3330.48 486.439   5
  -2  -8  -8 13347.0 1332.54   4
   2   8   8 12191.3 1200.01   2
   2   8   8 12890.3 1145.73   1
   2   8   8 13755.0 880.346   5
   2   8   9 486.792 180.762   5
  -2  -8  -9 460.495 368.272   4
   2   8   9 470.365 289.068   2
   2   8   9 16.5167 162.338   1
  -2  -8 -10 4979.30 892.765   4
   2   8  10 4994.46 812.059   1
   2   8  10 4970.85 792.270   2
   2   8  11 102.472 158.575   1
  -2  -8 -11 92.5900 348.037   4
   2   8  11-369.433 251.590   2
  -2  -8 -12 2917.60 753.060   4
   2   8  12 4055.72 744.953   2
  -2  -9   5 92.0647 352.318   3
   2   9  -5 1038.65 551.440   5
  -2  -9   4 3548.55 901.556   3
   2   9  -4 4742.78 1047.49   5
   2   9  -3 385.685 333.312   5
  -2  -9   3 807.188 447.034   3
  -2  -9   2 3730.01 532.137   4
  -2  -9   2 4631.89 937.566   3
   2   9  -2 3775.38 897.878   5
  -2  -9   1 4732.52 621.402   4
  -2  -9   1 4946.30 983.981   3
   2   9  -1 4556.11 941.228   5
  -2  -9   0 14628.7 1115.92   4
   2   9   0 12847.5 1293.29   4
   2   9   0 13299.1 1499.02   5
   2   9   1-426.826 302.924   4
  -2  -9  -1 357.896 237.540   4
   2   9   1 211.192 352.598   5
  -2  -9  -2 1975.46 511.664   4
   2   9   2 1127.77 433.279   5
  -2  -9  -3 3076.69 611.305   4
   2   9   3 2280.82 568.902   5
  -2  -9  -4 13715.0 1255.10   4
   2   9   4 12712.5 545.248   1
   2   9   4 12763.1 1352.65   2
   2   9   4 14449.7 1247.72   5
   2   9   5 3048.07 565.450   5
   2   9   5 2783.79 399.473   1
  -2  -9  -5 3800.55 699.368   4
   2   9   5 2826.45 668.491   2
   2   9   6 3172.85 528.532   5
  -2  -9  -6 3380.26 675.070   4
   2   9   6 2127.68 400.374   1
   2   9   6 2647.08 641.401   2
   2   9   7 3515.48 519.636   5
   2   9   7 2861.66 512.626   1
  -2  -9  -7 3090.45 675.896   4
   2   9   7 3383.73 734.882   2
  -2  -9  -8 4363.26 843.088   4
   2   9   8 4571.31 825.921   2
   2   9   8 5473.81 750.391   1
   2   9   9-52.7107 176.337   1
  -2  -9  -9 559.855 372.158   4
   2   9   9-45.2279 240.463   2
  -2  -9 -10 2529.89 701.262   4
   2   9  10 1838.21 530.196   2
   2   9  10 1829.38 503.375   1
  -2  -9 -11 746.438 440.482   4
   2   9  11 509.782 309.687   1
   2   9  11 958.196 433.344   2
   2   9  12 380.350 303.626   1
   2   9  13 215.136 308.895   1
  -2 -10   3-151.451 372.609   3
   2  10  -3 226.114 406.418   5
  -2 -10   2 4517.89 992.715   3
   2  10  -2 4641.79 1052.04   5
  -2 -10   1 1232.38 558.320   3
  -2 -10   1 762.509 305.921   4
   2  10  -1 987.084 452.194   5
  -2 -10   0 1903.06 477.626   4
   2  10   0 1075.89 457.197   5
  -2 -10  -1 10731.7 1069.10   4
   2  10   1 9814.02 1285.32   5
  -2 -10  -2 15384.8 1308.80   4
   2  10   2 13600.0 1429.56   5
  -2 -10  -3 1321.59 485.716   4
   2  10   3 1258.41 459.458   5
  -2 -10  -4 7989.47 1008.97   4
   2  10   4 8370.69 1001.08   5
  -2 -10  -5 209.191 267.819   4
   2  10   5 233.679 267.396   2
   2  10   5 614.625 298.056   5
   2  10   6 2149.00 459.091   5
  -2 -10  -6 3186.57 741.862   4
   2  10   6 2484.98 647.553   2
   2  10   7 304.761 369.768   2
  -2 -10  -7 26.9240 234.143   4
   2  10   8 4049.59 826.553   2
  -2 -10  -8 4150.08 845.353   4
  -2 -10  -9 636.295 475.212   4
   2  10   9 471.439 359.737   2
   2  10  10 1704.20 537.385   2
   2  11  -1-119.232 345.397   5
  -2 -11   0 3049.58 886.844   3
   2  11   0 3262.03 788.688   5
  -2 -11  -1 89.1098 225.943   4
   2  11   1-389.492 336.629   5
  -2 -11  -2 3374.35 666.215   4
   2  11   2 2371.11 606.954   5
  -2 -11  -3 781.046 362.376   4
   2  11   3 883.104 367.240   5
  -2 -11  -4 3640.23 731.081   4
   2  11   4 3150.55 663.329   5
  -2 -11  -5-102.776 319.968   4
   2  11   5 362.780 252.866   5
  -2 -11  -6 2235.73 661.883   4
   2  11   6 3559.72 847.742   2
  -2 -11  -7 6.35250 329.695   4
   2  11   7-606.415 435.798   2
  -2 -11  -8 3378.79 791.915   4
   2  11   8 4036.36 889.525   2
   2  11   9 299.851 388.842   2
   2  12   1 395.544 298.711   5
  -2 -12  -2 1052.26 428.233   4
   2  12   2 631.548 392.868   5
  -2 -12  -3 368.080 372.586   4
   2  12   3 416.746 270.616   5
  -2 -12  -4 2092.57 614.297   4
  -2 -12  -5-128.625 311.311   4
   2  12   7-252.077 341.825   2
   2  12   8 2355.74 780.285   2
   3 -11   1 2987.16 880.168   3
   3 -11   2-180.893 378.630   3
  -3  10   5 4010.55 1061.91   2
   3 -10  -4-197.340 319.811   4
  -3  10   4-995.445 601.504   2
  -3  10   3 1958.87 672.894   2
   3 -10  -3 1410.00 534.903   4
  -3  10   2-130.482 211.476   2
   3 -10  -2-95.3048 345.794   4
  -3  10   1 7108.45 1303.22   2
   3 -10  -1 5746.87 1068.75   4
  -3  10   0-39.8769 157.944   2
   3 -10   0 427.907 402.710   4
   3 -10   1 4484.01 931.191   4
  -3  10  -1 4396.42 1013.79   2
   3 -10   2-650.300 440.737   3
   3 -10   2 88.3053 306.781   4
  -3  10  -2-229.093 261.375   2
   3 -10   3 1681.51 627.111   3
   3 -10   3 1434.34 533.691   4
   3 -10   4 702.812 443.688   4
   3 -10   4 902.704 510.971   3
   3 -10   5 372.650 506.442   3
   3 -10   5 504.562 440.061   4
   3  -9  -7 3595.34 814.918   4
  -3   9   7 4536.32 1076.00   2
   3  -9  -6 878.768 440.135   4
  -3   9   6 186.546 446.807   2
  -3   9   5 5619.80 1135.10   2
   3  -9  -5 5930.30 1041.59   4
   3  -9  -4 1605.79 602.830   4
  -3   9   4 310.109 431.858   2
   3  -9  -3 12059.4 1435.90   4
  -3   9   3 12135.5 1610.07   2
   3  -9  -2 772.124 471.750   4
  -3   9   2 1288.80 563.299   2
   3  -9  -1 11103.9 1380.09   4
  -3   9   1 10221.3 1465.46   2
  -3   9   0-473.651 385.653   2
   3  -9   0 185.960 408.451   4
   3  -9   1 8608.96 1221.97   4
  -3   9  -1 8298.39 1288.92   2
   3  -9   2 208.741 266.106   3
   3  -9   2 498.575 436.159   4
  -3   9  -2 590.288 458.628   2
   3  -9   3 2801.31 707.306   3
   3  -9   3 2136.38 650.364   4
   3  -9   4-56.1680 230.148   3
   3  -9   4-1097.56 499.811   4
   3  -9   5 5412.54 1017.50   4
   3  -9   5 4900.13 970.203   3
   3  -9   6-161.829 438.122   3
   3  -9   6-985.470 520.366   4
   3  -9   7 2282.28 684.765   3
   3  -9   7 1969.34 619.338   4
   3  -8  -9 6316.97 1071.19   4
  -3   8   9 5452.32 1097.89   2
   3  -8  -8-417.406 338.046   4
  -3   8   8 235.847 365.226   2
   3  -8  -7 4494.79 894.363   4
  -3   8   7 4896.86 992.916   2
   3  -8  -6 341.176 342.433   4
  -3   8   6 256.482 349.586   2
  -3   8   5 12921.5 1619.90   2
   3  -8  -5 10855.4 1285.98   4
   3  -8  -4-85.6252 344.143   4
  -3   8   4-275.368 483.770   2
   3  -8  -3 12867.5 1404.51   4
  -3   8   3 12813.0 1563.05   2
   3  -8  -2 4220.32 584.531   5
  -3   8   2 3462.55 521.419   1
   3  -8  -2 2804.53 698.293   4
  -3   8   2 4163.55 867.397   2
   3  -8  -1 3674.40 610.376   5
  -3   8   1 3063.67 782.267   2
   3  -8  -1 4348.71 834.394   4
  -3   8   0 360.257 355.910   2
   3  -8   0-98.1147 378.553   4
   3  -8   1 19073.6 1699.25   4
  -3   8  -1 18328.0 1798.71   2
   3  -8   2-260.249 419.485   4
   3  -8   2-1053.34 477.064   3
  -3   8  -2-306.655 374.838   2
   3  -8   3 25742.3 2033.67   4
  -3   8  -3 27043.6 2174.93   2
   3  -8   3 23984.2 1842.42   3
   3  -8   4-227.487 332.817   3
   3  -8   4 539.379 396.651   4
   3  -8   5 4640.87 885.260   3
   3  -8   5 4881.37 946.852   4
   3  -8   6-419.112 544.026   3
   3  -8   6-189.713 368.224   4
   3  -8   7 12140.2 1474.72   4
   3  -8   7 12024.1 1443.23   3
   3  -8   8-846.343 503.568   3
   3  -8   8 519.494 389.123   4
   3  -8   9 5142.93 1063.91   3
   3  -7 -11 2029.45 631.900   4
   3  -7 -10-330.449 309.064   4
  -3   7  10 79.4934 261.342   2
   3  -7  -9 4725.20 881.155   4
  -3   7   9 4971.20 982.987   2
   3  -7  -8 2308.90 627.531   4
  -3   7   8 2043.72 656.633   2
   3  -7  -7 4176.02 812.544   4
  -3   7   7 4261.84 923.885   2
  -3   7   6 3151.47 781.322   2
   3  -7  -6 2433.87 622.527   4
   3  -7  -5 9117.27 1119.79   4
  -3   7   5 8308.10 983.618   1
  -3   7   5 8695.10 1228.65   2
  -3   7   4 11471.8 1386.24   2
   3  -7  -4 10316.9 1199.02   4
  -3   7   4 9577.91 1009.30   1
   3  -7  -4 9680.37 635.361   5
   3  -7  -3 2938.06 675.723   4
  -3   7   3 3069.46 731.228   2
   3  -7  -3 2717.22 419.548   5
  -3   7   2 566.433 421.058   2
   3  -7  -2 61.0590 310.668   4
   3  -7  -2-26.7399 146.197   3
   3  -7  -2 120.897 137.729   5
  -3   7   1 12035.8 918.430   1
   3  -7  -1 12710.3 1316.78   4
  -3   7   1 12472.9 1382.77   2
   3  -7  -1 11827.8 1009.08   5
   3  -7   0-198.863 350.075   4
  -3   7   0-29.5812 120.287   1
  -3   7   0-321.757 277.512   2
   3  -7   0 29.9821 104.327   5
   3  -7   1 34787.9 1313.40   1
   3  -7   1 35882.2 2223.05   4
  -3   7  -1 35835.8 2326.89   2
   3  -7   1 32450.6 1886.21   5
   3  -7   2 1152.50 531.113   4
   3  -7   2 1067.72 271.344   1
  -3   7  -2 1513.65 504.800   2
   3  -7   3 16112.4 1537.04   4
   3  -7   3 14405.2 898.003   1
  -3   7  -3 14710.8 1501.82   2
   3  -7   3 13558.4 1280.58   3
   3  -7   4 321.994 237.055   3
   3  -7   4 678.395 255.845   1
   3  -7   5 8834.93 1187.34   4
   3  -7   5 9955.89 860.650   1
   3  -7   5 10064.2 1168.39   3
   3  -7   6-98.5198 317.779   3
   3  -7   6-687.979 414.828   4
   3  -7   6 8.91925 180.904   1
   3  -7   7 16535.5 1676.76   4
  -3   7  -7 15539.3 1781.91   6
   3  -7   7 13119.2 1417.26   3
   3  -7   8-392.105 421.420   3
   3  -7   8 141.782 337.932   4
  -3   7  -8 76.1985 356.399   6
   3  -7   9 4948.56 955.045   3
   3  -7   9 6549.91 1126.78   4
   3  -7  10 358.921 407.323   3
   3  -6 -12 245.558 285.433   4
  -3   6  11 355.467 353.362   2
   3  -6 -11 476.601 299.839   4
  -3   6  10 420.077 379.728   2
   3  -6 -10 157.846 184.453   4
  -3   6   9 3412.38 783.832   2
   3  -6  -9 4333.83 808.152   4
  -3   6   8 475.838 373.674   2
   3  -6  -8 255.242 340.644   4
   3  -6  -7 3584.07 716.889   4
  -3   6   7 3082.29 717.642   2
   3  -6  -6-330.485 317.314   4
  -3   6   6 524.993 432.041   2
   3  -6  -5 251.983 65.9751   5
   3  -6  -5 229.779 282.544   4
  -3   6   5-17.5908 153.743   1
  -3   6   5-331.316 375.187   2
   3  -6  -4 20981.2 1598.57   4
  -3   6   4 22719.5 1499.68   1
   3  -6  -4 19530.9 1371.95   3
  -3   6   4 21446.9 1749.60   2
   3  -6  -4 20987.4 878.330   5
   3  -6  -3 42484.7 2257.02   4
  -3   6   3 40966.4 2369.68   2
  -3   6   3 39925.1 1911.59   1
   3  -6  -3 40854.4 1849.96   3
   3  -6  -3 40858.5 1448.25   5
  -3   6   2 3357.49 697.951   2
   3  -6  -2 2500.98 461.999   3
   3  -6  -2 3467.28 474.088   5
   3  -6  -2 3276.04 653.215   4
   3  -6  -1 16383.4 1416.66   4
  -3   6   1 17988.2 1542.41   2
  -3   6   1 15524.2 1065.87   1
   3  -6  -1 16807.2 1124.50   5
   3  -6   0 399.168 354.676   4
   3  -6   0 293.129 206.155   5
  -3   6   0-153.807 234.124   2
  -3   6   0 100.491 135.186   1
   3  -6   0 45.5166 118.228   1
   3  -6   1 7528.43 652.454   1
   3  -6   1 8748.32 1057.18   4
  -3   6  -1 8750.05 1063.40   2
   3  -6   1 8550.08 1043.75   7
  -3   6  -1 7984.36 701.771   1
   3  -6   1 6872.16 812.249   5
   3  -6   2 1562.14 329.038   1
   3  -6   2 1489.89 485.094   4
   3  -6   2 2026.87 524.418   7
  -3   6  -2 1608.81 469.317   2
   3  -6   2 2019.06 482.312   5
   3  -6   3 10344.0 1191.49   4
  -3   6  -3 10116.3 1147.61   2
   3  -6   3 10298.1 808.412   1
   3  -6   3 10240.7 1059.16   7
   3  -6   3 9273.90 972.334   3
  -3   6  -4 62.0560 175.328   7
   3  -6   4 43.6672 200.016   3
   3  -6   4 437.073 413.485   4
   3  -6   4 120.880 176.633   7
   3  -6   4 62.0354 133.790   1
   3  -6   5 439.343 224.781   1
   3  -6   5 252.907 239.029   3
   3  -6   5-89.3594 370.093   4
  -3   6  -5 200.063 150.248   7
   3  -6   5 51.9505 72.7297   7
   3  -6   6 21.4704 275.634   4
   3  -6   6-325.544 290.520   3
  -3   6  -6 27.5939 182.618   7
   3  -6   6-269.163 224.459   1
   3  -6   6-223.608 170.554   7
  -3   6  -6-270.480 417.846   6
   3  -6   7 5601.66 885.789   3
  -3   6  -7 6287.25 810.852   7
  -3   6  -7 5634.92 1031.39   6
   3  -6   7 5519.33 973.103   4
   3  -6   7 5764.52 781.123   1
   3  -6   8 221.833 238.257   4
  -3   6  -8-151.576 156.629   7
   3  -6   8-146.219 289.608   3
  -3   6  -8-596.758 530.037   6
   3  -6   8 54.6776 213.548   1
   3  -6   9 48356.7 2865.87   4
   3  -6   9 44686.0 2389.60   1
  -3   6  -9 45457.5 3142.62   6
   3  -6   9 44903.9 2673.31   3
   3  -6  10 195.517 290.229   1
   3  -6  10 13.5112 300.793   3
   3  -6  10 75.1189 278.036   4
  -3   6 -10-549.565 488.473   6
   3  -6  11 60.9480 438.424   3
   3  -5 -13 947.454 427.884   4
   3  -5 -12 2.02566 246.564   4
  -3   5  11 3584.56 772.890   2
   3  -5 -11 3178.10 705.114   4
  -3   5  11 2431.59 644.101   3
  -3   5  10 117.860 263.234   2
   3  -5 -10 295.252 249.232   4
   3  -5  -9 5530.57 851.432   4
  -3   5   9 5996.49 941.994   2
  -3   5   8 438.596 303.179   2
   3  -5  -8 569.973 374.048   4
   3  -5  -7 7115.43 932.843   4
  -3   5   7 5370.02 907.466   2
  -3   5   6 13821.4 1345.58   2
   3  -5  -6 17079.5 1379.05   4
  -3   5   6 16748.1 1391.11   1
   3  -5  -5 41495.1 2102.63   3
   3  -5  -5 44461.1 2181.00   4
  -3   5   5 46460.5 2204.58   1
   3  -5  -5 43770.9 891.284   5
  -3   5   5 42811.1 2322.83   2
  -3   5   4 1264.24 365.994   1
   3  -5  -4 1000.52 342.266   3
   3  -5  -4 1819.64 497.855   4
   3  -5  -4 1394.60 232.534   5
  -3   5   4 1406.36 451.965   2
   3  -5  -3 26128.0 1860.99   7
   3  -5  -3 26325.5 1670.66   4
  -3   5   3 23694.9 1696.11   4
  -3   5   3 25137.2 1476.75   1
  -3   5   3 24314.1 1683.96   2
   3  -5  -3 22582.1 1316.50   3
   3  -5  -3 25777.1 1071.87   5
   3  -5  -2 2483.32 591.033   7
   3  -5  -2 1620.31 454.321   4
   3  -5  -2 1727.88 352.003   3
  -3   5   2 1918.99 524.517   2
   3  -5  -2 1454.94 293.550   5
   3  -5  -1 4197.85 704.718   4
   3  -5  -1 4708.96 754.958   7
  -3   5   1 4450.14 579.144   1
   3  -5  -1 3340.01 460.138   3
   3  -5  -1 4310.05 535.862   1
  -3   5   1 4317.54 704.051   2
   3  -5  -1 3585.21 487.171   5
   3  -5   0 1201.61 325.367   1
   3  -5   0 1536.62 481.728   4
   3  -5   0 776.739 360.602   7
  -3   5   0 1148.42 288.179   1
   3  -5   0 843.476 322.281   6
  -3   5   0 1156.17 384.806   2
   3  -5   0 1501.42 349.685   2
   3  -5   0 1479.16 351.674   5
   3  -5   1 3003.38 435.175   1
  -3   5  -1 1859.80 464.493   7
   3  -5   1 3168.91 630.948   7
   3  -5   1 2869.49 601.052   4
  -3   5  -1 2509.47 546.339   2
  -3   5  -1 2934.51 445.033   1
   3  -5   1 3060.09 587.466   6
   3  -5   1 2429.34 457.041   5
   3  -5   1 3004.39 488.404   2
  -3   5  -2-223.011 138.984   1
   3  -5   2-16.4474 152.223   7
   3  -5   2 44.8568 305.773   4
   3  -5   2-93.0826 175.961   1
   3  -5   2 250.294 280.121   6
  -3   5  -2-118.731 276.352   2
   3  -5   2 68.7884 143.028   2
  -3   5  -2 143.570 243.107   7
   3  -5   2-193.089 198.161   5
  -3   5  -3 38738.0 1971.38   7
   3  -5   3 43517.1 2284.61   4
  -3   5  -3 41495.1 2107.11   2
   3  -5   3 42694.6 1836.15   3
   3  -5   3 41401.9 1880.47   2
   3  -5   3 41752.1 1658.10   1
   3  -5   3 44787.2 2079.22   7
   3  -5   3 43510.1 2221.14   6
   3  -5   3 47147.8 2229.75   5
   3  -5   4 11.2290 157.873   1
   3  -5   4-26.8180 190.852   3
   3  -5   4-8.61770 132.842   7
   3  -5   4-94.7304 355.446   4
  -3   5  -4 4.12530 223.124   2
   3  -5   4 296.538 230.693   2
  -3   5  -4-125.678 239.656   7
   3  -5   5 3928.64 609.457   3
   3  -5   5 2723.18 499.452   1
   3  -5   5 1677.72 506.100   4
  -3   5  -5 2204.13 487.396   7
  -3   5  -5 2379.78 638.427   6
   3  -5   5 2614.26 488.811   7
   3  -5   5 2102.65 461.019   2
   3  -5   6-156.346 233.234   1
   3  -5   6-71.0303 213.034   3
  -3   5  -6-78.4841 298.922   6
  -3   5  -6 23.3796 160.467   7
   3  -5   6-45.0778 155.496   7
   3  -5   7 3763.63 584.618   7
  -3   5  -7 4690.67 700.593   7
  -3   5  -7 4867.44 912.442   6
   3  -5   7 4639.78 705.425   1
   3  -5   7 4111.94 703.245   3
   3  -5   8-458.372 271.115   1
  -3   5  -8-275.148 226.012   7
   3  -5   8 410.350 319.795   3
  -3   5  -8-285.510 430.861   6
   3  -5   9 1795.45 578.406   3
  -3   5  -9 824.574 328.975   7
  -3   5  -9 830.178 498.329   6
   3  -5   9 868.448 379.912   1
   3  -5  10 76.7378 323.382   3
  -3   5 -10-347.306 459.767   6
   3  -5  10 272.742 272.734   1
  -3   5 -11 8221.00 1471.11   6
   3  -5  11 8799.83 1204.12   1
   3  -5  11 7860.79 1170.99   3
   3  -5  12 23.6124 215.946   1
   3  -5  12 214.504 364.748   3
   3  -4 -12-282.644 292.641   4
  -3   4  12 671.358 430.360   3
   3  -4 -11 2179.96 578.687   4
  -3   4  11 1453.21 527.456   3
   3  -4 -10-50.5631 229.521   4
  -3   4  10 113.429 265.015   3
   3  -4  -9 15467.1 1344.59   4
  -3   4   9 14333.7 1345.38   3
   3  -4  -8 7.12223 258.961   4
  -3   4   8-467.271 327.499   3
   3  -4  -7 66621.8 2591.89   4
  -3   4   7 65344.0 2680.40   3
  -3   4   6 624.123 408.068   2
   3  -4  -6 134.299 275.336   3
  -3   4   6-84.1731 206.555   4
  -3   4   6-45.2841 296.280   3
   3  -4  -6-177.818 303.168   4
  -3   4   6 56.8815 201.497   1
   3  -4  -6-17.0524 69.5608   5
  -3   4   5-247.402 230.469   4
  -3   4   5 908.872 395.912   2
   3  -4  -5 211.811 115.794   5
  -3   4   5 111.326 184.236   1
   3  -4  -5 547.558 326.972   7
   3  -4  -5 471.142 288.122   4
   3  -4  -5-45.9358 189.642   3
  -3   4   4 3295.47 569.652   1
   3  -4  -4 3536.51 682.988   7
   3  -4  -4 4574.14 692.130   4
  -3   4   4 3982.49 663.332   2
   3  -4  -4 3869.30 594.944   3
  -3   4   4 2910.87 587.149   4
   3  -4  -3 24294.3 1494.48   4
  -3   4   3 24319.0 1597.33   4
  -3   4   3 23563.7 1397.49   1
   3  -4  -3 23940.7 1687.35   7
  -3   4   3 25214.6 1575.48   2
   3  -4  -3 23992.8 1310.98   3
   3  -4  -2 5071.38 707.775   4
  -3   4   2 5874.47 761.681   2
   3  -4  -2 4991.99 546.633   3
  -3   4   1 68193.6 2208.23   1
   3  -4  -1 68047.5 2031.79   1
   3  -4  -1 67616.1 2510.65   4
  -3   4   1 68214.0 2502.35   7
  -3   4   1 68337.2 2490.11   2
   3  -4  -1 68081.9 1792.32   3
  -3   4   0 3110.71 571.456   7
  -3   4   0 2620.05 427.382   1
   3  -4   0 2808.00 432.560   1
   3  -4   0 2779.87 533.153   4
   3  -4   0 3388.67 586.729   7
   3  -4   0 3095.40 466.593   2
   3  -4   0 3014.93 520.239   6
   3  -4   0 3263.02 456.218   5
  -3   4   0 2968.42 536.769   2
   3  -4   1 76385.5 2744.80   4
   3  -4   1 77502.2 2132.74   1
  -3   4  -1 79550.0 2591.62   2
  -3   4  -1 74334.5 2569.44   7
   3  -4   1 78865.8 2653.21   6
   3  -4   1 78614.8 2255.29   2
  -3   4  -1 75107.0 2167.95   1
   3  -4   1 80938.8 2409.94   5
   3  -4   1 81329.5 2783.02   7
   3  -4   2 8515.54 877.535   7
   3  -4   2 7966.44 913.946   4
  -3   4  -2 8465.39 857.808   2
   3  -4   2 7306.69 691.807   1
  -3   4  -2 7953.94 864.392   7
   3  -4   2 8014.38 739.811   2
   3  -4   2 8788.44 901.804   6
  -3   4  -2 9161.08 761.267   1
   3  -4   2 9394.01 874.751   5
   3  -4   3 89902.3 3077.04   4
  -3   4  -3 92287.7 2822.25   2
  -3   4  -3 86338.9 2779.72   7
   3  -4   3 89635.1 2452.25   1
   3  -4   3 87070.2 2486.13   2
   3  -4   3 92579.8 2943.07   6
   3  -4   3 89732.4 2342.33   3
   3  -4   3 92113.1 2868.59   5
   3  -4   3 85636.3 2692.83   7
   3  -4   4-58.9743 207.239   7
   3  -4   4-63.1927 189.134   3
   3  -4   4 55.2127 125.071   2
   3  -4   4-108.084 190.934   1
  -3   4  -4 3.47564 196.999   7
  -3   4  -4 125.693 228.925   6
  -3   4  -4-118.084 232.280   2
   3  -4   4-129.957 144.985   6
   3  -4   4-165.069 225.303   5
   3  -4   5 12512.7 1002.90   1
  -3   4  -5 10491.1 998.582   7
   3  -4   5 13324.2 1054.37   2
   3  -4   5 12597.6 1012.90   7
   3  -4   5 12703.5 1166.97   6
   3  -4   5 11197.9 925.130   3
  -3   4  -5 12240.9 1213.57   6
   3  -4   5 12010.8 1161.86   5
   3  -4   6 16.3197 238.663   1
  -3   4  -6 253.859 245.586   7
  -3   4  -6 560.361 384.129   6
   3  -4   6 717.938 240.526   7
   3  -4   6 181.007 170.213   2
  -3   4  -7 7698.66 877.902   7
   3  -4   7 9381.65 965.392   2
  -3   4  -7 8011.03 1091.35   6
   3  -4   7 8984.58 976.977   1
   3  -4   7 9356.93 960.522   3
   3  -4   7 7260.55 780.815   7
   3  -4   8-67.0369 134.900   7
   3  -4   8 10.1944 241.193   3
  -3   4  -8 86.0293 168.272   7
   3  -4   8 37.2451 229.195   1
  -3   4  -8-320.237 302.515   6
  -3   4  -9 21640.9 1489.59   7
   3  -4   9 19575.0 1583.24   3
  -3   4  -9 18268.9 1849.26   6
   3  -4   9 18640.6 1569.00   1
   3  -4  10 343.905 348.768   1
  -3   4 -10 374.100 358.160   6
   3  -4  10 240.265 282.677   3
  -3   4 -10-696.946 311.292   7
   3  -4  11 4084.62 868.301   3
   3  -4  11 4196.90 845.123   1
  -3   4 -11 4624.70 1050.68   6
   3  -4  12-106.522 287.004   1
  -3   4 -12-74.4390 247.408   6
   3  -4  12 381.383 351.635   3
   3  -4  13 329.322 249.457   1
   3  -4  13 111.445 314.413   3
   3  -3 -12 10.5386 143.153   4
  -3   3  12 278.676 292.788   3
  -3   3  11 5738.45 927.191   3
   3  -3 -11 3842.93 713.315   4
   3  -3 -10 649.030 346.826   4
  -3   3  10 236.834 254.319   3
  -3   3   9 12402.4 1240.35   3
   3  -3  -9 15196.5 1286.81   4
   3  -3  -9 12874.2 702.363   5
  -3   3   8 2879.37 565.007   4
   3  -3  -8 2587.06 534.346   4
  -3   3   8 2732.49 585.421   3
   3  -3  -8 1866.27 277.803   5
   3  -3  -7 3816.62 620.163   4
  -3   3   7 2940.78 568.623   4
   3  -3  -7 2440.32 576.748   7
   3  -3  -7 3297.32 364.464   5
  -3   3   7 2867.78 577.677   3
   3  -3  -6 2824.55 583.617   3
  -3   3   6 2304.75 508.153   1
   3  -3  -6 2931.00 516.420   4
   3  -3  -6 4423.36 762.916   7
  -3   3   6 2929.02 562.854   4
  -3   3   6 2837.25 562.865   3
   3  -3  -6 3368.98 357.509   5
  -3   3   5 50812.6 2219.79   1
  -3   3   5 45755.4 2107.47   4
   3  -3  -5 51242.1 2406.75   7
   3  -3  -5 51225.4 2026.63   4
  -3   3   5 50420.3 2005.46   3
   3  -3  -5 47849.4 2209.52   3
   3  -3  -5 49077.1 1294.19   5
  -3   3   4 2876.70 517.041   4
   3  -3  -4 3525.10 640.588   7
  -3   3   4 2735.75 504.139   1
   3  -3  -4 2855.26 505.821   4
  -3   3   4 2096.43 419.890   3
   3  -3  -4 2647.39 490.743   3
   3  -3  -3 116851. 3021.41   4
  -3   3   3 111630. 3127.13   4
   3  -3  -3 120690. 3539.61   7
  -3   3   3 118736. 3122.61   2
   3  -3  -3 112529. 2761.73   3
  -3   3   2 1562.65 381.152   2
  -3   3   2 1552.64 418.406   7
   3  -3  -2 1300.94 346.865   4
   3  -3  -2 747.725 274.890   1
   3  -3  -2 1518.28 303.516   3
   3  -3  -1 102037. 2499.41   1
  -3   3   1 95370.5 2800.44   7
   3  -3  -1 105484. 2906.50   4
  -3   3   1 105407. 2800.60   2
   3  -3  -1 101120. 2033.66   3
  -3   3   1 97939.9 2577.92   1
  -3   3   0 33627.7 1475.18   1
   3  -3   0 33995.2 1438.00   1
  -3   3   0 33367.2 1658.02   7
  -3   3   0 33754.5 1544.89   2
   3  -3   0 33759.8 1046.02   3
   3  -3   0 33464.5 1677.29   4
   3  -3   1 60569.0 2287.86   4
   3  -3   1 60862.8 1904.64   1
  -3   3  -1 61969.1 2223.33   7
  -3   3  -1 61013.6 2028.56   2
   3  -3   1 59442.2 2035.74   6
   3  -3   1 60018.4 1768.67   2
  -3   3  -1 59154.2 1894.39   1
   3  -3   2 451.567 207.483   7
  -3   3  -2 797.063 258.861   1
   3  -3   2 670.209 192.962   3
  -3   3  -2 994.242 328.023   7
  -3   3  -2 624.228 223.136   2
   3  -3   2 723.150 262.942   1
   3  -3   2 514.320 202.647   2
   3  -3   3 53171.4 1733.77   2
  -3   3  -3 55683.2 1949.13   2
   3  -3   3 59494.2 1627.53   3
  -3   3  -3 51339.3 2070.01   7
   3  -3   3 52371.8 1995.38   7
   3  -3   3 55829.9 1915.20   1
  -3   3  -3 55541.2 2074.37   6
   3  -3   3 55034.0 2063.80   5
  -3   3  -3 51738.6 1799.68   1
   3  -3   4 183.253 152.165   3
   3  -3   4 346.549 190.552   7
  -3   3  -4-14.8819 231.011   7
   3  -3   4 225.868 203.313   1
   3  -3   4 237.192 167.582   6
  -3   3  -4 176.726 189.905   2
  -3   3  -4-121.788 257.419   6
   3  -3   4 149.010 159.665   2
   3  -3   4-12.4830 188.749   5
  -3   3  -5 96003.0 2880.68   7
   3  -3   5 98565.6 2582.13   2
   3  -3   5 103021. 2765.15   7
  -3   3  -5 96652.6 3094.58   6
   3  -3   5 96413.3 2765.08   1
   3  -3   5 108453. 3087.20   6
   3  -3   5 97883.2 2448.64   3
   3  -3   5 102946. 3146.96   5
   3  -3   6-267.648 212.265   6
   3  -3   6-38.4314 226.784   1
   3  -3   6 160.638 136.179   2
  -3   3  -6-17.0066 239.001   7
   3  -3   6 206.499 238.179   3
  -3   3  -6 33.3085 249.955   6
   3  -3   6-14.9477 132.290   7
   3  -3   6 155.115 190.890   5
   3  -3   7 16368.1 1169.20   2
  -3   3  -7 17510.2 1277.78   7
   3  -3   7 16220.0 1107.81   7
   3  -3   7 17853.0 1251.09   3
  -3   3  -7 16041.0 1451.84   6
   3  -3   7 16272.5 1298.07   1
  -3   3  -8 320.320 326.104   6
   3  -3   8-29.5123 226.586   3
   3  -3   8 169.440 275.370   1
  -3   3  -8 95.9465 185.152   3
   3  -3   8 169.895 168.742   2
   3  -3   8 65.4396 155.494   7
  -3   3  -8 203.024 222.261   7
   3  -3   9 8939.72 958.259   2
   3  -3   9 10504.5 1168.78   1
  -3   3  -9 10518.7 1053.68   7
  -3   3  -9 10830.6 1348.00   6
   3  -3   9 9821.81 1057.36   3
  -3   3 -10 272.538 273.674   7
  -3   3 -10-129.452 368.203   6
   3  -3  10-38.2368 224.001   1
   3  -3  10 1.62882 322.369   3
  -3   3 -11 7488.86 912.859   7
   3  -3  11 5768.54 958.260   3
  -3   3 -11 6155.43 1150.10   6
   3  -3  11 6931.60 1075.13   1
   3  -3  12-47.5560 300.593   1
  -3   3 -12 330.461 499.404   6
   3  -3  12 138.232 289.804   3
   3  -3  13 1922.95 668.226   1
   3  -3  13 1193.56 487.260   3
   3  -3  14-95.4123 259.188   3
  -3   2  12 725.393 432.989   3
   3  -2 -12-328.996 388.821   6
   3  -2 -11 1245.30 410.920   4
  -3   2  11 1737.13 562.502   3
   3  -2 -10 1242.55 378.646   4
  -3   2  10 730.790 372.624   3
   3  -2 -10 1482.11 342.067   5
   3  -2  -9 146.571 221.163   4
  -3   2   9-32.5838 109.735   4
  -3   2   9-49.6092 294.891   3
   3  -2  -9 60.8924 163.958   5
  -3   2   8 3353.83 569.739   4
   3  -2  -8 3131.13 612.173   7
   3  -2  -8 3255.08 556.055   4
   3  -2  -8 3332.64 469.219   5
  -3   2   8 3722.24 675.665   3
   3  -2  -7 74499.5 2861.77   7
   3  -2  -7 76229.9 2475.39   4
  -3   2   7 70917.9 2517.36   4
  -3   2   7 79031.2 2812.17   3
   3  -2  -7 72006.1 3118.24   3
   3  -2  -7 73164.9 1972.19   5
  -3   2   6 13723.8 1206.67   1
   3  -2  -6 13932.8 1022.64   4
  -3   2   6 12897.3 1062.14   4
   3  -2  -6 14030.0 1213.47   7
  -3   2   6 15503.5 1192.16   3
   3  -2  -6 14866.7 1333.00   3
   3  -2  -6 14774.6 859.154   5
  -3   2   5 21078.4 1421.66   1
   3  -2  -5 22986.7 1262.30   4
  -3   2   5 20721.7 1290.94   4
   3  -2  -5 22646.4 1491.80   7
   3  -2  -5 19747.2 1419.33   3
   3  -2  -5 20912.6 979.691   5
  -3   2   5 22805.9 1332.33   3
  -3   2   4 5673.25 706.710   1
   3  -2  -4 5929.52 637.019   4
  -3   2   4 4987.44 627.344   4
  -3   2   4 5950.51 648.601   3
   3  -2  -4 5161.14 665.885   3
   3  -2  -3 3763.47 515.348   4
  -3   2   3 2586.13 470.408   7
  -3   2   3 3058.23 476.960   4
   3  -2  -3 3852.81 516.496   3
  -3   2   3 3506.29 466.798   3
   3  -2  -2 19131.4 1122.67   1
   3  -2  -2 19283.5 1136.89   4
  -3   2   2 19274.1 1196.99   7
   3  -2  -2 18792.1 980.813   3
  -3   2   2 19976.3 954.188   3
   3  -2  -1 229933. 3787.37   1
   3  -2  -1 236294. 4030.28   4
  -3   2   1 219260. 3807.96   1
  -3   2   1 236715. 4126.98   7
  -3   2   1 244919. 3829.51   2
   3  -2  -1 224254. 2931.44   3
   3  -2   0 12083.3 563.826   3
   3  -2   0 13197.1 893.245   1
  -3   2   0 14598.9 1062.57   7
  -3   2   0 13232.6 918.766   1
  -3   2   0 13060.5 865.773   2
   3  -2   1 23844.5 660.970   3
   3  -2   1 25754.1 1240.13   1
  -3   2  -1 25009.1 1140.67   2
  -3   2  -1 23374.1 1296.11   7
  -3   2  -1 23315.4 1189.99   1
   3  -2   1 24265.2 1130.27   6
   3  -2   2 713.350 179.985   2
  -3   2  -2 602.283 220.267   1
   3  -2   2 997.704 166.941   3
  -3   2  -2 1013.97 286.481   7
   3  -2   2 786.555 229.725   6
  -3   2  -2 959.131 252.446   2
   3  -2   2 750.818 246.448   1
   3  -2   3 136372. 2973.16   1
  -3   2  -3 136941. 2642.73   2
  -3   2  -3 136951. 3142.69   7
   3  -2   3 137598. 3053.49   7
   3  -2   3 132978. 2376.57   2
  -3   2  -3 135120. 2880.37   6
   3  -2   3 137904. 2874.45   6
   3  -2   3 135096. 1994.61   3
  -3   2  -3 130271. 2839.69   1
   3  -2   4 1991.03 305.636   3
   3  -2   4 1522.59 338.475   7
  -3   2  -4 2085.22 353.914   2
  -3   2  -4 1523.50 378.354   7
   3  -2   4 1905.27 423.466   1
  -3   2  -4 1926.40 408.148   6
   3  -2   4 1575.11 278.296   2
   3  -2   5 97809.3 2621.32   7
  -3   2  -5 98264.7 2774.04   7
   3  -2   5 93867.2 2223.35   2
  -3   2  -5 98786.7 2885.82   6
   3  -2   5 100537. 2823.19   1
   3  -2   5 99624.2 2237.86   3
  -3   2  -5 93359.4 2214.83   3
   3  -2   6 1282.42 340.981   3
  -3   2  -6 877.297 292.665   7
  -3   2  -6 1151.56 295.209   3
   3  -2   6 1531.68 345.144   7
  -3   2  -6 1075.96 404.562   6
   3  -2   6 894.527 234.959   2
   3  -2   6 1946.34 459.747   1
   3  -2   6 1246.62 357.343   6
   3  -2   6 1519.27 391.020   5
  -3   2  -7 45382.7 2003.44   7
   3  -2   7 43767.0 1723.84   2
   3  -2   7 43888.8 1775.91   7
  -3   2  -7 46644.9 2287.37   6
   3  -2   7 45505.8 1841.87   3
   3  -2   7 45932.2 2002.67   6
   3  -2   7 47800.0 2215.05   1
   3  -2   7 44946.0 2139.55   5
   3  -2   8 466.396 229.607   2
  -3   2  -8 423.241 249.913   3
   3  -2   8 281.512 241.213   1
   3  -2   8 751.282 260.883   7
  -3   2  -8 441.102 283.841   7
  -3   2  -8 362.207 300.606   6
   3  -2   8 324.228 254.622   3
   3  -2   9 18859.4 1380.19   3
   3  -2   9 16577.2 1218.39   2
  -3   2  -9 16555.0 1591.39   6
  -3   2  -9 19507.3 1426.34   7
  -3   2  -9 16236.6 1410.99   3
   3  -2   9 18123.5 1511.84   1
  -3   2 -10 256.574 233.392   7
  -3   2 -10-99.3733 285.071   6
   3  -2  10 286.917 173.958   2
   3  -2  10 215.705 298.332   1
   3  -2  10 8.99608 279.805   3
   3  -2  11 18082.5 1546.17   3
  -3   2 -11 18049.1 1455.49   7
  -3   2 -11 17605.8 1879.02   6
   3  -2  11 17241.2 1649.48   1
  -3   2 -12 153.649 134.661   7
  -3   2 -12-201.808 267.643   6
   3  -2  12 109.430 313.359   1
   3  -2  12 235.833 316.619   3
  -3   2 -13 475.063 535.561   6
   3  -2  13 477.784 374.043   1
   3  -2  13 1137.07 524.359   3
   3  -2  14-157.621 314.147   3
   3  -1 -12-240.001 347.424   6
  -3   1  12 427.864 395.510   3
   3  -1 -11 1099.28 381.871   4
   3  -1 -11 2658.36 806.147   6
  -3   1  11 3192.31 740.217   3
   3  -1 -11 2969.61 526.547   5
   3  -1 -10 827.871 307.186   4
   3  -1 -10 535.736 383.274   6
  -3   1  10 909.884 452.876   3
   3  -1 -10 1239.80 339.249   5
  -3   1   9 8554.46 853.902   4
   3  -1  -9 10604.4 1077.68   7
  -3   1   9 9879.13 1138.43   3
   3  -1  -9 8277.74 863.316   4
   3  -1  -9 10917.8 956.219   5
   3  -1  -8 7163.15 772.050   4
  -3   1   8 5680.35 670.386   4
   3  -1  -8 7082.50 844.180   7
  -3   1   8 7568.69 955.610   3
   3  -1  -8 6306.66 710.221   5
   3  -1  -7 1661.38 453.830   3
  -3   1   7 1752.51 372.617   4
   3  -1  -7 2724.01 455.331   4
   3  -1  -7 2671.73 540.186   7
  -3   1   7 2409.43 545.704   3
   3  -1  -7 2085.00 421.485   5
  -3   1   6 6776.83 852.528   1
   3  -1  -6 6233.60 648.329   4
  -3   1   6 5926.68 641.872   4
  -3   1   6 6392.22 769.876   3
   3  -1  -6 6105.83 833.447   3
   3  -1  -6 6281.86 639.653   5
  -3   1   5 15059.2 1195.14   1
   3  -1  -5 13778.0 886.043   4
  -3   1   5 14565.8 978.992   4
  -3   1   5 13565.9 1043.43   3
   3  -1  -5 14698.6 1209.23   3
   3  -1  -5 12486.5 860.213   5
  -3   1   4 6898.59 706.567   3
   3  -1  -4 6765.34 622.852   4
  -3   1   4 8567.28 717.460   4
   3  -1  -4 6774.72 736.998   3
   3  -1  -4 6773.31 618.503   5
   3  -1  -3 83145.9 2094.46   4
  -3   1   3 82794.8 2326.67   7
   3  -1  -3 82382.0 2462.09   7
  -3   1   3 85438.5 2175.11   3
   3  -1  -3 79086.4 2243.97   3
   3  -1  -2 282.723 170.084   3
   3  -1  -2 280.184 212.712   4
   3  -1  -2 70.6095 135.098   7
  -3   1   2 176.332 177.291   7
  -3   1   2 262.555 202.337   3
   3  -1  -2 235.675 199.880   1
   3  -1  -1 2765.74 444.754   1
   3  -1  -1 2740.95 309.275   3
  -3   1   1 2661.49 432.092   7
   3  -1  -1 2584.26 423.531   7
  -3   1   1 2203.73 275.323   3
   3  -1  -1 2629.72 411.391   4
  -3   1   0 4981.69 588.219   7
   3  -1   0 4711.93 536.762   1
   3  -1   0 4820.47 314.092   3
   3  -1   1 143892. 2905.65   1
  -3   1  -1 142000. 2362.47   2
  -3   1  -1 139240. 2965.54   7
  -3   1  -1 136564. 2820.10   1
   3  -1   1 134549. 2193.14   6
   3  -1   2 30931.6 1380.37   1
  -3   1  -2 30093.1 1022.94   2
  -3   1  -2 30759.2 1414.05   7
  -3   1  -2 29949.4 1337.84   1
   3  -1   2 29789.3 1070.34   6
   3  -1   3 67726.4 1100.13   3
   3  -1   3 65886.7 1368.79   2
  -3   1  -3 66947.0 1511.11   2
  -3   1  -3 64931.1 2070.46   7
   3  -1   3 64023.2 2020.49   1
  -3   1  -3 66863.9 1772.02   6
   3  -1   3 66126.9 1708.48   6
  -3   1  -3 59590.4 1922.10   1
  -3   1  -4 7040.06 499.935   2
  -3   1  -4 6755.22 688.669   7
   3  -1   4 6688.10 462.637   2
   3  -1   4 6669.94 665.484   7
   3  -1   4 6048.78 657.243   1
  -3   1  -4 6664.88 644.894   6
   3  -1   4 7044.08 471.191   3
   3  -1   4 6373.40 577.187   6
  -3   1  -4 6441.67 455.648   3
   3  -1   5 135046. 2987.91   7
   3  -1   5 130913. 2202.86   2
  -3   1  -5 130391. 3111.76   7
  -3   1  -5 130835. 3046.25   6
   3  -1   5 136889. 2404.27   3
   3  -1   5 135695. 2803.17   6
   3  -1   5 142579. 3326.69   1
  -3   1  -5 131666. 2442.32   3
  -3   1  -6 1325.55 310.092   3
  -3   1  -6 869.184 323.075   6
   3  -1   6 683.419 197.862   2
   3  -1   6 1330.56 328.482   7
  -3   1  -6 1020.79 340.414   7
   3  -1   6 1132.41 373.600   1
   3  -1   6 853.038 256.378   3
   3  -1   7 14795.8 1030.77   7
   3  -1   7 14167.5 877.286   2
  -3   1  -7 13997.2 1110.94   7
  -3   1  -7 12422.3 1117.34   6
   3  -1   7 14039.7 994.626   3
   3  -1   7 13274.9 1148.43   1
   3  -1   7 13906.0 1125.03   5
   3  -1   8 1511.27 439.107   1
   3  -1   8 1459.69 390.637   3
  -3   1  -8 653.220 270.249   3
   3  -1   8 495.594 242.796   4
  -3   1  -8 1466.57 416.224   7
   3  -1   8 1274.43 307.399   2
  -3   1  -8 1172.02 427.472   6
   3  -1   8 1215.20 374.885   5
  -3   1  -9 9830.47 1024.76   7
   3  -1   9 10276.3 871.623   2
  -3   1  -9 9785.63 1167.87   6
   3  -1   9 11677.9 1048.72   3
  -3   1  -9 9495.69 1064.55   3
   3  -1   9 9509.52 1095.49   1
   3  -1  10 68.7159 281.846   1
  -3   1 -10-228.048 204.522   7
   3  -1  10 234.527 140.743   2
  -3   1 -10 239.164 313.312   6
   3  -1  10-30.5076 254.789   3
   3  -1  11 17886.9 1473.70   3
   3  -1  11 16094.1 1248.43   2
  -3   1 -11 17579.3 1483.09   7
  -3   1 -11 17221.4 1793.78   6
   3  -1  11 18516.1 1696.90   1
   3  -1  12 630.751 374.176   1
  -3   1 -12 758.049 318.766   7
  -3   1 -12 625.775 512.588   6
   3  -1  12 672.185 393.130   3
  -3   1 -13 9862.12 1198.03   7
  -3   1 -13 11886.2 1699.15   6
   3  -1  13 11777.6 1340.98   3
   3  -1  13 10972.2 1448.39   1
   3  -1  14 509.560 418.761   1
  -3   1 -14 998.754 626.684   6
   3  -1  14-756.609 431.320   3
   3   0 -12 132.028 339.152   6
  -3   0  12 553.084 391.808   3
   3   0 -11 5124.13 1079.25   6
  -3   0  11 4393.85 851.939   3
   3   0 -11 5231.72 784.204   5
   3   0 -10 5160.84 1008.21   6
  -3   0  10 5451.51 944.888   3
   3   0 -10 4961.29 764.545   5
   3   0  -9 642.623 250.104   4
   3   0  -9 803.579 429.544   6
  -3   0   9 1469.55 561.105   3
   3   0  -9 1350.42 412.768   5
   3   0  -8 1196.51 307.029   4
  -3   0   8 1752.94 329.584   4
   3   0  -8 1516.59 537.453   6
   3   0  -8 1356.21 415.984   5
  -3   0   8 1450.32 505.376   3
  -3   0   7 28393.7 1271.92   4
   3   0  -7 29001.2 1483.48   7
   3   0  -7 29673.0 1935.53   6
  -3   0   7 32988.3 1901.49   3
   3   0  -7 30895.8 1628.27   5
  -3   0   6 3815.32 631.541   1
   3   0  -6 4602.37 751.316   3
   3   0  -6 3990.62 465.567   4
  -3   0   6 4032.15 467.957   4
   3   0  -6 4269.98 600.398   5
   3   0  -6 4384.91 578.016   7
  -3   0   6 4267.00 674.155   3
  -3   0   5 41740.9 2007.09   1
   3   0  -5 42229.8 1387.09   4
   3   0  -5 41629.6 1671.94   7
  -3   0   5 41709.3 1839.56   3
   3   0  -5 36868.6 1906.99   3
   3   0  -5 41544.8 1743.99   5
   3   0  -4 9719.00 639.102   4
   3   0  -4 10266.3 808.162   7
  -3   0   4 8382.77 708.913   7
  -3   0   4 9848.11 840.992   3
   3   0  -4 10249.0 893.434   3
   3   0  -4 10531.7 840.890   5
   3   0  -3 20747.0 931.529   4
   3   0  -3 21069.7 1121.76   7
  -3   0   3 22537.1 1143.08   7
   3   0  -3 20180.6 1126.80   3
  -3   0   3 20876.8 1099.75   3
   3   0  -2 126.751 131.986   3
  -3   0   2 152.646 196.419   7
   3   0  -2 29.8998 104.737   4
   3   0  -2 68.6067 111.929   7
   3   0  -2 26.1255 191.102   1
  -3   0   2 616.489 220.269   3
   3   0  -1 91241.8 2228.77   7
   3   0  -1 87733.6 2320.66   1
  -3   0   1 86136.6 2202.76   7
  -3   0   1 89465.1 1722.40   3
   3   0  -1 87818.0 1693.99   3
  -3   0   0 80117.1 2122.56   7
   3   0   0 80201.5 2168.26   1
   3   0   0 77943.7 2057.33   7
  -3   0   0 78192.8 1283.65   3
   3   0   0 75444.3 1250.34   3
   3   0   1 268565. 3956.70   1
  -3   0  -1 262504. 3854.33   7
   3   0   1 257558. 2166.66   6
  -3   0  -2 11739.9 534.419   2
   3   0   2 11779.7 849.400   1
  -3   0  -2 12236.1 527.189   6
   3   0   2 11728.4 503.473   6
  -3   0  -2 11543.9 835.236   7
  -3   0  -3 64073.9 1111.95   2
  -3   0  -3 65450.5 2029.20   7
  -3   0  -3 65617.1 1488.60   6
   3   0   3 65104.2 1368.53   6
  -3   0  -3 64862.5 969.169   3
   3   0   3 65908.3 2032.05   1
   3   0   4 5055.52 606.549   1
   3   0   4 5075.89 284.312   2
  -3   0  -4 5156.53 607.084   7
   3   0   4 5239.64 364.692   3
  -3   0  -4 4389.56 454.617   6
   3   0   4 4809.68 428.867   6
  -3   0  -4 5280.40 399.347   3
  -3   0  -5 14296.0 1028.86   7
   3   0   5 14452.6 555.691   2
   3   0   5 16049.4 1020.13   7
  -3   0  -5 16970.1 996.327   6
   3   0   5 15095.5 764.658   3
   3   0   5 15153.7 1096.33   1
  -3   0  -5 13521.7 778.169   3
  -3   0  -6 1980.87 355.651   3
   3   0   6 3078.90 552.788   1
   3   0   6 2604.21 290.197   2
  -3   0  -6 2969.88 511.664   7
  -3   0  -6 2076.43 418.476   6
   3   0   6 2951.26 455.833   7
   3   0   6 2401.42 376.514   3
   3   0   7 11524.1 962.220   4
   3   0   7 8833.88 597.056   2
  -3   0  -7 9176.91 912.460   7
   3   0   7 8889.16 757.879   3
  -3   0  -7 8486.29 889.979   6
   3   0   7 9191.03 950.102   1
  -3   0  -8 266.825 187.406   3
  -3   0  -8 143.119 239.887   7
  -3   0  -8 127.463 255.701   6
   3   0   8 185.453 146.189   4
   3   0   8-185.396 126.197   2
   3   0   8-200.541 376.724   1
   3   0   8 204.117 262.389   3
   3   0   8 351.947 196.345   5
   3   0   9 19342.9 1098.47   2
  -3   0  -9 19686.7 1464.66   7
   3   0   9 20691.9 1355.46   3
  -3   0  -9 20017.9 1615.61   6
  -3   0  -9 18833.4 1502.43   3
   3   0   9 21658.8 1445.96   5
   3   0   9 22687.7 1667.17   1
  -3   0 -10 636.395 316.338   3
  -3   0 -10 394.451 273.253   7
  -3   0 -10 743.940 439.206   6
   3   0  10 698.038 353.350   3
   3   0  10 728.396 391.031   1
  -3   0 -11 21486.6 1704.68   7
   3   0  11 20000.9 1510.80   3
  -3   0 -11 20930.8 1935.05   6
   3   0  12-281.221 379.159   3
  -3   0 -12-283.940 252.571   7
  -3   0 -12 315.418 281.931   6
  -3   0 -13 4693.06 847.619   7
  -3   0 -13 3783.27 961.940   6
   3   0  13 5417.08 901.619   3
   3   0  14 35.4010 329.695   1
  -3   0 -14-700.058 580.463   6
   3   0  14 795.427 438.956   3
   3   0  15 1473.03 513.709   3
   3   1 -12 984.946 557.955   6
   3   1 -12 2108.74 566.330   5
   3   1 -11 4725.80 1058.10   6
   3   1 -11 4897.78 831.821   5
  -3  -1  11 4897.77 930.964   3
   3   1 -10 1736.13 657.714   6
   3   1 -10 1284.97 453.951   5
  -3  -1  10 425.676 415.973   3
  -3  -1   9 9883.44 1216.63   3
   3   1  -9 8734.55 1251.63   6
   3   1  -9 8486.67 1023.82   5
   3   1  -8 636.396 199.087   7
   3   1  -8 161.578 274.262   6
   3   1  -8 920.192 366.115   5
  -3  -1   8 381.591 367.613   3
   3   1  -7 4579.36 423.236   4
   3   1  -7 7650.91 643.133   7
  -3  -1   7 5903.63 845.003   3
   3   1  -7 7731.55 1011.54   6
   3   1  -7 5816.54 783.845   5
  -3  -1   6 118.911 245.066   1
  -3  -1   6-137.037 326.367   3
   3   1  -6 174.155 240.823   5
   3   1  -6-32.4733 191.326   3
   3   1  -6 131.646 101.268   4
   3   1  -6 118.102 152.555   7
   3   1  -6 187.304 250.353   6
   3   1  -5 23591.6 838.696   4
  -3  -1   5 28671.3 1640.30   1
  -3  -1   5 28321.5 1576.97   3
   3   1  -5 28275.2 1203.97   7
   3   1  -5 27250.5 1542.78   6
   3   1  -5 28806.8 1707.88   3
   3   1  -5 29889.1 1614.42   5
  -3  -1   4 1901.73 414.073   3
   3   1  -4 2360.60 482.682   5
  -3  -1   4 2587.23 482.746   1
   3   1  -4 2605.33 283.348   4
   3   1  -4 2892.51 497.630   3
  -3  -1   4 2234.16 357.785   7
   3   1  -4 2410.88 363.063   7
   3   1  -4 2276.14 415.036   6
  -3  -1   3 112958. 2356.60   7
   3   1  -3 112344. 1719.69   4
  -3  -1   3 117844. 2964.55   1
   3   1  -3 121006. 2509.82   6
  -3  -1   3 115051. 2682.50   3
   3   1  -3 109184. 2721.06   3
   3   1  -3 113867. 2319.69   7
   3   1  -3 116441. 2929.68   5
  -3  -1   2 42102.7 1449.46   7
   3   1  -2 40948.8 1636.49   1
   3   1  -2 38510.4 1110.98   4
   3   1  -2 38800.3 1362.46   7
   3   1  -2 40283.1 1233.36   6
  -3  -1   2 40652.0 1452.17   3
   3   1  -2 40540.3 1467.49   3
  -3  -1   1 40931.9 1426.66   7
   3   1  -1 39574.6 1383.04   7
   3   1  -1 41827.6 1618.28   1
   3   1  -1 42188.5 999.695   6
  -3  -1   1 41410.5 1294.82   3
   3   1  -1 41306.5 1310.25   3
   3   1   0 15244.4 871.274   7
   3   1   0 16632.1 1000.48   1
  -3  -1   0 16061.1 923.477   7
   3   1   0 14196.2 383.150   6
  -3  -1   0 14844.5 695.342   3
   3   1   1 1517.75 344.663   1
  -3  -1  -1 1430.55 193.955   3
   3   1   2 17904.6 1048.07   1
  -3  -1  -2 19415.4 1058.59   7
  -3  -1  -3 80358.6 2222.56   7
  -3  -1  -3 79208.2 1418.96   3
   3   1   3 80449.4 2246.75   1
  -3  -1  -3 79891.4 1355.21   6
   3   1   4 460.129 261.689   1
  -3  -1  -4 221.931 168.288   7
  -3  -1  -4 110.836 104.960   6
  -3  -1  -4 587.433 192.147   3
   3   1   5 175416. 2551.55   3
  -3  -1  -5 174149. 3606.06   7
  -3  -1  -5 175626. 2980.68   6
   3   1   5 182880. 3719.01   1
  -3  -1  -6 23311.1 1245.72   6
  -3  -1  -6 25411.8 1457.01   7
   3   1   6 24576.9 625.567   2
   3   1   6 25684.7 1101.88   3
   3   1   6 27124.4 1534.11   1
  -3  -1  -6 23680.7 1309.11   3
  -3  -1  -7 61241.2 2393.56   7
   3   1   7 56569.2 2097.07   4
   3   1   7 59050.0 1850.12   3
  -3  -1  -7 56274.4 2161.30   6
   3   1   7 59789.5 2374.42   1
  -3  -1  -8 903.528 366.767   3
   3   1   8 1329.21 438.001   1
   3   1   8 893.436 312.257   4
  -3  -1  -8 295.070 249.984   7
  -3  -1  -8 574.835 319.277   6
   3   1   8 846.199 314.431   3
  -3  -1  -9 8496.32 990.438   7
   3   1   9 10024.9 932.524   3
  -3  -1  -9 7606.40 997.478   6
  -3  -1  -9 8170.88 1044.32   3
   3   1   9 8272.62 848.767   5
   3   1   9 8058.40 1010.22   1
   3   1  10 4461.02 671.882   3
  -3  -1 -10 2520.77 642.986   3
  -3  -1 -10 3183.16 664.609   7
  -3  -1 -10 4042.50 806.943   6
   3   1  10 4690.28 692.388   5
  -3  -1 -11 4438.31 815.717   7
  -3  -1 -11 5153.08 973.258   6
   3   1  11 4593.72 737.250   3
  -3  -1 -12-609.957 325.319   7
  -3  -1 -12-249.950 373.060   6
   3   1  12-24.4445 282.009   3
  -3  -1 -13 1856.90 612.753   7
  -3  -1 -13 3382.70 906.602   6
   3   1  13 3147.93 676.957   3
  -3  -1 -14 172.724 242.083   7
   3   1  14 200.306 363.695   3
  -3  -1 -14 339.825 424.385   6
   3   1  15 2172.96 681.742   3
   3   2 -12-1233.70 578.026   6
   3   2 -12 334.895 346.439   5
  -3  -2  11 1641.30 617.756   3
   3   2 -11 1083.17 510.934   6
   3   2 -11 984.726 464.633   5
   3   2 -10 4826.10 1018.37   6
   3   2 -10 5040.47 886.523   5
  -3  -2  10 3804.40 815.246   3
   3   2  -9 5154.11 983.228   6
   3   2  -9 4898.97 836.020   5
  -3  -2   9 4973.51 887.284   3
  -3  -2   8 6493.27 961.939   3
   3   2  -8 5425.02 933.801   6
   3   2  -8 6079.85 354.612   7
   3   2  -8 6273.26 912.625   5
   3   2  -7 24938.4 854.000   7
   3   2  -7 21929.8 1709.61   6
  -3  -2   7 25917.7 1785.57   3
   3   2  -7 23509.4 1696.39   5
   3   2  -6 1339.96 451.586   5
  -3  -2   6 1193.19 358.929   1
  -3  -2   6 1370.94 423.797   3
   3   2  -6 1438.19 231.110   7
   3   2  -6 1690.53 500.023   6
   3   2  -5 65333.6 1549.34   7
  -3  -2   5 63736.4 2447.34   1
   3   2  -5 65872.4 2443.84   6
  -3  -2   5 66162.9 2510.32   3
   3   2  -5 63217.1 2628.63   3
   3   2  -5 63108.9 2567.00   5
   3   2  -4 3567.55 627.324   5
  -3  -2   4 4990.22 652.261   1
   3   2  -4 3079.43 538.854   3
   3   2  -4 3748.31 542.708   6
  -3  -2   4 4144.44 637.800   3
  -3  -2   4 3750.07 388.805   7
   3   2  -4 4214.89 405.711   7
  -3  -2   3 19085.7 900.398   7
   3   2  -3 20406.2 914.043   7
  -3  -2   3 19739.0 1210.10   1
   3   2  -3 20299.5 1074.55   6
  -3  -2   3 20933.1 1219.42   3
   3   2  -3 19799.9 1232.21   3
   3   2  -3 20009.7 1348.03   5
   3   2  -2 3252.63 556.077   5
   3   2  -2 3318.36 253.718   4
   3   2  -2 3187.29 491.622   1
  -3  -2   2 3404.33 478.351   3
   3   2  -2 3335.79 258.411   4
  -3  -2   2 3294.99 482.980   1
   3   2  -2 3309.81 387.617   7
  -3  -2   2 2810.01 376.444   7
   3   2  -2 3224.41 377.969   6
   3   2  -2 3236.79 462.360   3
   3   2  -1 554.375 218.765   1
  -3  -2   1 644.939 222.517   3
   3   2  -1 446.195 126.699   4
  -3  -2   1 388.162 175.853   1
   3   2  -1 983.072 226.777   7
   3   2  -1 658.241 157.911   6
  -3  -2   0 34927.6 1317.58   7
   3   2   0 30380.4 995.129   4
   3   2   0 35128.5 1440.02   1
  -3  -2   0 30879.3 1338.94   1
   3   2   0 32171.6 1238.69   7
   3   2   0 31214.6 745.022   6
  -3  -2   0 34901.8 1236.72   3
  -3  -2  -1 35427.5 1410.33   1
   3   2   1 37000.7 1195.07   4
   3   2   1 38021.9 1498.61   1
  -3  -2  -1 37670.8 1411.52   7
   3   2   1 40583.1 1434.85   7
   3   2   2 52760.4 1543.75   4
   3   2   2 56146.3 1739.86   7
   3   2   2 56741.9 1842.36   1
  -3  -2  -2 53352.8 1736.44   1
   3   2   3 207994. 3238.03   4
  -3  -2  -3 216342. 1628.30   2
  -3  -2  -3 220644. 3780.85   7
   3   2   3 214013. 3682.34   1
  -3  -2  -3 219136. 3585.43   1
  -3  -2  -4 12647.7 742.842   3
   3   2   4 11843.1 907.930   1
  -3  -2  -4 12785.9 964.248   7
   3   2   5 75404.4 2413.52   1
  -3  -2  -5 71011.0 2347.68   7
  -3  -2  -5 67869.0 2005.45   3
   3   2   6 3929.98 612.315   1
  -3  -2  -6 3745.99 557.428   3
  -3  -2  -6 3179.68 559.993   7
   3   2   7 51339.0 1981.22   4
   3   2   7 56782.9 1877.40   3
  -3  -2  -7 53640.0 2066.21   6
   3   2   7 52498.8 932.776   2
   3   2   7 56204.6 2308.89   1
  -3  -2  -7 56512.9 2310.89   7
  -3  -2  -8 592.904 294.808   3
   3   2   8 321.551 265.128   1
   3   2   8 611.076 251.656   4
  -3  -2  -8 536.477 313.495   7
  -3  -2  -8 468.686 302.957   6
   3   2   8 627.310 281.552   3
   3   2   9 6798.97 751.839   3
  -3  -2  -9 6343.54 882.918   7
  -3  -2  -9 4967.10 843.835   3
  -3  -2  -9 5964.83 859.105   6
   3   2   9 6455.15 919.031   1
  -3  -2 -10 1423.42 504.088   3
  -3  -2 -10 1277.52 451.505   7
  -3  -2 -10 871.423 386.767   6
   3   2  10 1366.76 425.465   3
   3   2  10 1685.82 396.459   5
  -3  -2 -11 9413.13 1176.65   7
   3   2  11 11585.9 1093.30   3
  -3  -2 -11 9322.91 1277.79   6
   3   2  11 9074.01 935.967   5
  -3  -2 -12 877.416 412.758   7
  -3  -2 -12 846.605 474.309   6
   3   2  12 1060.89 420.957   3
  -3  -2 -13 7885.17 1182.16   7
  -3  -2 -13 10327.9 1525.17   6
   3   2  13 8501.49 1053.77   3
  -3  -2 -14 1023.79 517.870   7
  -3  -2 -14 609.709 453.879   6
   3   2  14 1141.44 508.642   3
  -3  -2 -15 1586.11 608.030   7
   3   2  15 2193.52 589.142   3
   3   3 -12-246.679 298.592   5
   3   3 -11 4125.95 1013.59   6
  -3  -3  11 3591.88 861.733   3
   3   3 -11 3253.84 778.104   5
  -3  -3  10 2018.78 699.683   3
   3   3 -10 2303.71 712.743   6
   3   3 -10 2865.39 713.222   5
  -3  -3   9 5945.08 1010.04   3
   3   3  -9 7151.04 1167.81   6
   3   3  -9 6351.71 1028.91   5
  -3  -3   8 10109.1 1247.11   3
   3   3  -8 9282.59 1223.39   6
   3   3  -8 8904.38 1180.25   5
  -3  -3   7 4503.50 835.503   3
   3   3  -7 4905.69 840.489   6
   3   3  -7 3891.71 789.022   5
   3   3  -6 288.834 321.160   5
  -3  -3   6-156.038 274.310   3
  -3  -3   6 210.834 179.580   1
   3   3  -6 480.787 341.261   6
  -3  -3   5 9542.21 962.138   1
   3   3  -5 10358.9 1028.94   6
  -3  -3   5 9013.97 987.905   3
   3   3  -5 10525.2 1117.99   3
   3   3  -5 10439.5 1157.92   5
   3   3  -4 3371.65 695.908   5
  -3  -3   4 3215.53 314.359   7
  -3  -3   4 2960.14 561.268   3
  -3  -3   4 3161.20 523.009   1
   3   3  -4 3388.62 619.883   3
   3   3  -4 2903.38 512.718   6
  -3  -3   3 79846.0 2423.94   1
  -3  -3   3 75417.2 1634.66   7
  -3  -3   3 82535.1 2615.21   3
   3   3  -3 80135.4 2934.23   5
   3   3  -3 76976.7 2271.75   6
  -3  -3   2 13892.5 778.168   6
  -3  -3   2 14928.6 1006.99   1
  -3  -3   2 16462.4 815.157   7
   3   3  -2 15520.1 912.220   6
  -3  -3   2 15752.8 1088.72   3
   3   3  -2 17011.0 1309.40   5
   3   3  -1 58179.2 1566.99   6
   3   3  -1 54706.1 1191.94   4
   3   3  -1 62529.8 1988.12   1
  -3  -3   1 57462.4 1869.32   1
  -3  -3   1 58473.9 1444.80   6
  -3  -3   1 58956.6 1969.18   3
   3   3  -1 59840.6 2349.09   5
  -3  -3   1 58697.5 1626.71   7
   3   3   0 27849.1 980.092   4
   3   3   0 29249.1 1328.73   1
  -3  -3   0 30691.1 1237.64   7
  -3  -3   0 26823.4 1238.46   1
  -3  -3   0 27736.2 896.606   6
  -3  -3   0 28274.9 1302.94   3
  -3  -3  -1 78760.7 1383.79   6
   3   3   1 75244.8 1750.02   4
   3   3   1 80174.4 2166.85   1
  -3  -3  -1 77032.6 2053.81   1
  -3  -3  -1 83287.3 2154.33   7
  -3  -3  -2 1333.92 297.664   1
  -3  -3  -2 2080.07 283.915   2
   3   3   2 1393.46 293.046   4
  -3  -3  -2 1763.68 377.974   7
  -3  -3  -2 1354.59 194.156   6
   3   3   2 1466.70 350.353   1
   3   3   3 12347.7 821.668   4
  -3  -3  -3 14837.2 628.265   2
  -3  -3  -3 15270.1 1026.15   7
   3   3   3 17613.6 1068.60   1
  -3  -3  -3 14469.0 917.348   1
  -3  -3  -4 319.582 245.157   7
  -3  -3  -4 418.487 173.792   3
   3   3   4 318.910 231.978   1
  -3  -3  -4 428.250 97.5614   2
  -3  -3  -5 133406. 3285.27   7
  -3  -3  -5 128377. 2747.62   3
   3   3   6 7155.39 350.792   2
  -3  -3  -6 6375.46 770.507   7
   3   3   6 8307.86 858.150   1
   3   3   7 18153.9 634.224   2
   3   3   7 19054.5 1246.36   4
  -3  -3  -7 18138.1 1354.75   7
   3   3   7 18616.0 1353.49   1
   3   3   8 5352.64 689.465   4
  -3  -3  -8 7180.68 911.662   7
   3   3   8 5641.72 404.024   2
  -3  -3  -8 6216.58 866.870   3
   3   3   8 6596.81 866.709   1
  -3  -3  -9 17953.9 1479.61   7
   3   3   9 19514.7 832.314   2
  -3  -3  -9 17842.6 1576.83   3
   3   3   9 20137.5 1353.18   3
   3   3   9 19690.0 1555.71   1
  -3  -3 -10 554.658 357.205   7
   3   3  10 636.823 189.134   2
  -3  -3 -10 1129.99 471.385   6
   3   3  10 262.779 265.444   3
   3   3  10 680.321 256.630   5
  -3  -3 -11 24762.5 2023.80   6
  -3  -3 -11 29617.2 2070.79   7
   3   3  11 32152.2 1853.67   3
   3   3  11 26538.7 1511.43   5
  -3  -3 -12 115.348 253.553   7
  -3  -3 -12-462.378 440.081   6
   3   3  12-33.7275 238.676   3
  -3  -3 -13 5213.29 965.139   7
  -3  -3 -13 4397.97 979.470   6
   3   3  13 5618.03 909.329   3
  -3  -3 -14 594.722 370.326   7
  -3  -3 -14 237.508 324.603   6
   3   3  14-39.1678 317.647   3
  -3  -3 -15-44.3054 150.079   7
   3   3  15 697.326 461.501   3
   3   4 -11 994.363 515.452   6
   3   4 -11-142.769 338.290   5
  -3  -4  10-299.627 318.301   3
   3   4 -10 54.9486 265.379   6
   3   4 -10-300.039 499.464   5
  -3  -4   9 2243.58 663.941   3
   3   4  -9 1447.97 551.215   6
   3   4  -9 2487.54 688.462   5
  -3  -4   8 3117.14 777.227   3
   3   4  -8 2572.23 709.448   6
   3   4  -8 3218.02 766.895   5
  -3  -4   7 12207.5 1349.50   3
   3   4  -7 10977.4 1280.06   6
   3   4  -7 12978.8 1454.14   5
  -3  -4   6 812.491 316.798   1
   3   4  -6 736.576 372.335   6
   3   4  -6 54.7647 411.187   5
  -3  -4   5 23350.1 1474.34   1
   3   4  -5 22152.6 1549.24   6
  -3  -4   5 23735.0 1687.02   3
   3   4  -5 21719.4 1776.54   5
   3   4  -4 5533.88 905.609   5
  -3  -4   4 6508.13 742.194   1
  -3  -4   4 6347.62 336.798   7
   3   4  -4 4927.47 694.429   6
  -3  -4   4 6867.71 874.477   3
   3   4  -3 12402.8 1006.65   6
  -3  -4   3 12749.7 972.301   1
  -3  -4   3 12469.3 630.565   7
  -3  -4   3 12601.8 914.931   6
  -3  -4   3 12583.4 1127.44   3
   3   4  -3 14107.2 1341.74   5
   3   4  -2 35351.5 649.256   4
  -3  -4   2 36043.5 1537.70   1
  -3  -4   2 36975.3 1207.05   7
   3   4  -2 35490.2 1541.59   6
  -3  -4   2 37313.5 1456.08   6
  -3  -4   2 36876.4 1809.50   3
   3   4  -2 35645.2 2063.49   5
   3   4  -1 115698. 2737.28   1
   3   4  -1 112852. 1893.22   4
  -3  -4   1 109045. 2581.88   1
  -3  -4   1 114394. 2309.71   7
   3   4  -1 115901. 2569.68   6
  -3  -4   1 111858. 2373.63   6
  -3  -4   1 115032. 3068.09   3
   3   4  -1 112578. 3526.37   5
   3   4   0 1078.02 355.129   5
  -3  -4   0 1041.45 264.414   1
   3   4   0 1011.26 288.504   1
  -3  -4   0 736.224 318.435   3
  -3  -4   0 1498.18 339.919   7
   3   4   0 743.483 213.590   4
  -3  -4   0 1215.29 241.264   6
   3   4   1 94.9573 123.317   4
  -3  -4  -1 34.4435 129.201   4
  -3  -4  -1 147.612 135.492   2
   3   4   1 211.364 158.087   1
  -3  -4  -1-22.9886 109.863   1
  -3  -4  -1 367.731 143.150   6
  -3  -4  -1 71.5061 138.597   7
  -3  -4  -2 9353.65 695.659   4
  -3  -4  -2 8927.63 774.581   7
   3   4   2 8537.59 695.006   4
  -3  -4  -2 9442.88 684.184   2
   3   4   2 9623.41 774.650   1
  -3  -4  -2 8566.70 585.462   6
  -3  -4  -2 8935.74 712.321   1
  -3  -4  -3 55153.5 1990.55   7
  -3  -4  -3 53235.0 1771.04   4
  -3  -4  -3 51259.1 1415.49   2
   3   4   3 52531.5 1836.89   1
  -3  -4  -3 52762.1 1734.38   1
  -3  -4  -4 8550.20 785.402   4
  -3  -4  -4 8579.85 841.251   7
  -3  -4  -4 7661.88 498.191   2
   3   4   4 6878.93 708.018   1
  -3  -4  -5 6514.74 745.114   4
   3   4   5 5628.96 672.092   4
   3   4   5 5770.73 447.480   2
  -3  -4  -5 6256.30 761.737   7
   3   4   5 5702.26 692.876   1
  -3  -4  -5 6888.73 433.590   2
   3   4   6 495.862 161.508   2
  -3  -4  -6 644.695 340.483   4
   3   4   6 533.443 244.232   4
  -3  -4  -6 432.677 277.973   7
   3   4   6 351.804 245.546   1
  -3  -4  -6 544.044 221.616   3
  -3  -4  -7 34953.1 1888.93   4
   3   4   7 34904.8 1742.66   4
   3   4   7 32801.3 1051.54   2
  -3  -4  -7 31829.6 1846.66   7
  -3  -4  -7 31206.8 1748.76   3
   3   4   7 34566.1 1830.68   1
  -3  -4  -8 6707.87 900.535   4
   3   4   8 6716.56 518.093   2
  -3  -4  -8 7226.03 934.166   7
  -3  -4  -8 6175.77 869.606   3
   3   4   8 5435.42 797.105   1
  -3  -4  -9 30067.1 1947.85   7
   3   4   9 29640.3 1125.01   2
  -3  -4  -9 29713.0 2029.69   3
   3   4   9 29393.0 1898.28   1
  -3  -4 -10 11457.3 1262.61   7
   3   4  10 12784.8 788.062   2
   3   4  10 13805.1 1389.40   1
  -3  -4 -11 2744.33 696.566   7
   3   4  11 2491.48 457.344   5
   3   4  11 2209.33 368.880   2
   3   4  12 4037.68 517.323   2
  -3  -4 -12 3288.91 778.613   7
  -3  -4 -13 6153.19 1037.72   7
  -3  -4 -13 4882.73 1014.43   6
  -3  -4 -14-440.289 315.375   7
  -3  -4 -14 600.085 362.748   6
  -3  -4 -15 3618.19 836.919   7
   3   5 -10 495.055 366.431   6
   3   5 -10-376.447 394.344   5
  -3  -5   9 4398.59 961.546   3
   3   5  -9 4593.54 1001.06   6
   3   5  -9 5281.61 1105.45   5
  -3  -5   8-654.930 441.740   3
   3   5  -8 16.6297 286.105   6
   3   5  -8-229.983 478.455   5
  -3  -5   7 4366.63 897.429   3
   3   5  -7 4318.62 855.709   6
   3   5  -7 4846.50 989.712   5
  -3  -5   6 483.425 397.218   3
  -3  -5   6 52.4857 147.015   1
   3   5  -6 534.524 298.804   6
   3   5  -6 400.868 365.924   5
  -3  -5   5 11786.0 1051.29   1
   3   5  -5 11944.9 1225.11   6
  -3  -5   5 12580.1 1079.23   6
  -3  -5   5 11843.5 1272.25   3
   3   5  -5 12404.3 1440.57   5
   3   5  -4 689.719 412.478   5
  -3  -5   4 921.952 375.925   3
  -3  -5   4 486.405 221.885   1
   3   5  -4 129.130 199.582   6
  -3  -5   4 558.061 243.103   6
  -3  -5   3 23022.8 1298.22   1
  -3  -5   3 23888.4 862.705   7
   3   5  -3 24303.3 1523.67   6
  -3  -5   3 22422.2 1328.51   6
  -3  -5   3 23682.8 1642.16   3
   3   5  -3 24298.9 1904.92   5
  -3  -5   2 8277.01 738.725   1
   3   5  -2 8693.69 438.861   4
  -3  -5   2 9133.93 625.319   7
   3   5  -2 9002.95 880.237   6
  -3  -5   2 8230.42 783.508   6
  -3  -5   2 10510.6 1056.39   3
   3   5  -2 8838.15 1131.79   5
   3   5  -1 16307.5 819.838   4
  -3  -5   1 17984.2 1292.85   2
  -3  -5   1 16959.4 935.484   7
  -3  -5   1 14706.0 938.437   1
  -3  -5   1 15022.5 999.917   6
  -3  -5   1 17224.4 1314.91   3
   3   5  -1 17092.7 1498.34   5
   3   5   0 997.109 246.474   4
   3   5   0 814.631 259.529   1
   3   5   0 819.056 375.460   5
  -3  -5   0 825.209 232.150   1
  -3  -5   0 1298.78 259.678   4
  -3  -5   0 1102.71 334.252   2
  -3  -5   0 1365.87 333.290   7
  -3  -5   0 1192.95 283.426   6
  -3  -5  -1 83769.4 1983.40   4
   3   5   1 72238.0 2150.18   4
   3   5   1 83960.8 2234.31   1
  -3  -5  -1 76983.7 2013.24   1
  -3  -5  -1 78497.5 2149.64   6
  -3  -5  -1 80870.3 2297.16   7
   3   5   1 74234.6 2876.67   5
   3   5   2-21.9502 212.548   5
  -3  -5  -2-75.1362 192.825   1
  -3  -5  -2-28.1573 190.549   4
   3   5   2-103.307 202.528   1
  -3  -5  -2 134.919 217.749   7
  -3  -5  -2-50.6787 119.867   2
  -3  -5  -2 671.302 206.632   6
   3   5   2 122.104 138.914   4
   3   5   3 10763.9 858.077   1
  -3  -5  -3 11340.6 867.789   4
  -3  -5  -3 10458.5 756.263   2
  -3  -5  -3 10923.7 946.379   7
  -3  -5  -4 20241.2 1218.10   4
   3   5   4 17751.1 1214.78   4
  -3  -5  -4 18307.6 922.001   2
  -3  -5  -4 19598.4 1303.88   7
   3   5   4 18375.4 1141.43   1
  -3  -5  -5 22484.2 1365.69   4
   3   5   5 22960.4 1411.23   4
   3   5   5 22977.6 1081.58   2
  -3  -5  -5 21424.2 928.000   2
   3   5   5 21892.2 1326.21   1
  -3  -5  -6 7972.62 882.257   4
   3   5   6 6663.88 783.293   4
   3   5   6 7337.09 621.359   2
  -3  -5  -6 7057.82 779.303   3
   3   5   6 6810.77 784.097   1
  -3  -5  -7 64184.5 2580.95   4
   3   5   7 63305.6 1761.51   2
   3   5   7 64378.7 2514.32   1
  -3  -5  -8 7788.40 996.978   4
   3   5   8 6273.52 574.541   2
  -3  -5  -8 5086.27 793.403   3
   3   5   8 6985.05 910.190   1
  -3  -5  -9 615.982 347.276   4
   3   5   9 571.569 312.205   1
   3   5   9 653.847 228.504   2
  -3  -5 -10-784.858 442.324   4
   3   5  10 125.620 229.670   1
  -3  -5 -10-575.082 351.848   7
   3   5  10 63.4913 126.657   2
  -3  -5 -11 5881.56 972.022   7
   3   5  11 6705.59 663.934   2
   3   5  11 7524.94 1081.73   1
  -3  -5 -12 751.813 418.345   7
   3   5  12 1389.68 556.084   1
   3   5  12 826.499 291.480   2
  -3  -5 -13 5486.15 1012.10   7
  -3  -5 -14-58.4101 110.125   7
  -3  -5 -14-165.050 285.983   6
  -3  -5 -15 1739.67 615.460   7
   3   6  -9 570.259 381.670   6
   3   6  -9-227.463 422.989   5
  -3  -6   8 1919.21 646.776   3
   3   6  -8 1031.64 445.025   6
   3   6  -8 2772.60 868.511   5
   3   6  -7 7595.88 1185.44   6
  -3  -6   7 7685.85 1187.31   3
   3   6  -7 8141.42 1343.41   5
  -3  -6   6 565.103 414.014   3
   3   6  -6 639.507 353.204   6
   3   6  -6 1360.96 681.582   5
  -3  -6   5 7824.30 859.822   1
   3   6  -5 8723.46 1113.59   6
  -3  -6   5 8942.97 1177.43   3
   3   6  -5 11060.3 1479.04   5
   3   6  -4 1097.67 592.994   5
  -3  -6   4 810.064 460.349   3
   3   6  -4 358.146 250.227   6
  -3  -6   4 1041.00 284.017   1
  -3  -6   3 11927.5 936.699   1
  -3  -6   3 11322.2 608.158   7
   3   6  -3 13365.6 1225.19   6
  -3  -6   3 12479.0 1286.42   3
  -3  -6   3 12181.3 1081.11   6
   3   6  -3 12210.2 1459.83   5
   3   6  -2 70.5065 261.316   5
  -3  -6   2 170.537 301.983   3
  -3  -6   2 56.0847 132.105   7
  -3  -6   2-257.312 180.727   6
  -3  -6   2-42.9276 112.789   1
  -3  -6   1 13794.8 728.876   4
   3   6  -1 13137.0 843.040   4
  -3  -6   1 14149.7 1240.95   2
  -3  -6   1 12401.6 848.583   7
  -3  -6   1 12967.4 859.169   1
  -3  -6   1 12282.0 1003.82   6
  -3  -6   1 12063.6 1189.92   3
   3   6  -1 14516.4 1498.98   5
   3   6   0 347.584 337.990   5
   3   6   0-128.291 131.271   4
  -3  -6   0 295.190 195.950   6
  -3  -6   0 271.067 169.677   4
  -3  -6   0 258.981 207.437   7
  -3  -6   0 429.239 255.207   2
  -3  -6   0 474.684 207.094   1
   3   6   0-0.76841 192.030   1
  -3  -6  -1 60494.0 1799.24   4
   3   6   1 62683.5 1923.55   1
   3   6   1 56318.5 2126.46   4
  -3  -6  -1 63194.3 2332.98   2
  -3  -6  -1 57600.1 2035.22   7
  -3  -6  -1 58318.8 2108.70   6
  -3  -6  -1 60427.1 1735.00   1
   3   6   1 55555.7 2668.44   5
   3   6   2 4143.93 733.423   5
  -3  -6  -2 4531.90 562.415   4
   3   6   2 4293.40 528.471   1
  -3  -6  -2 5240.77 645.132   2
  -3  -6  -2 5017.47 657.910   7
  -3  -6  -2 4105.27 553.437   6
  -3  -6  -2 4261.08 466.954   1
   3   6   3 10932.9 850.040   1
  -3  -6  -3 12548.7 952.516   4
   3   6   3 9122.92 948.195   4
  -3  -6  -3 11530.4 920.476   6
   3   6   3 11163.6 1124.92   5
  -3  -6  -4 12250.0 1003.17   4
   3   6   4 10382.5 1014.18   4
   3   6   4 11282.8 901.263   1
   3   6   4 11946.7 1109.27   5
  -3  -6  -5 64652.3 2383.53   4
   3   6   5 57814.3 2410.74   4
   3   6   5 65270.0 2129.98   2
   3   6   5 61686.6 2190.75   1
  -3  -6  -6 615.166 191.481   2
   3   6   6 1073.07 346.725   1
  -3  -6  -6 584.855 309.277   4
   3   6   6 261.380 209.373   4
   3   6   6 776.754 277.018   2
  -3  -6  -6 929.088 316.479   3
  -3  -6  -7 3733.37 702.270   4
   3   6   7 3408.74 495.703   2
   3   6   7 3293.58 612.739   1
   3   6   8 408.499 300.759   1
  -3  -6  -8 535.046 362.124   4
   3   6   8 983.384 308.855   2
  -3  -6  -9 19918.8 1633.69   4
   3   6   9 20188.2 1587.64   1
   3   6   9 21375.8 1210.96   2
  -3  -6 -10 5949.67 952.663   4
   3   6  10 6550.70 686.534   2
   3   6  10 7601.25 1031.72   1
   3   6  11 4414.83 834.194   1
  -3  -6 -11 3752.81 789.617   4
   3   6  11 3803.22 557.385   2
  -3  -6 -11 3585.93 784.540   7
  -3  -6 -12 1528.63 599.471   4
   3   6  12 937.585 443.755   1
  -3  -6 -12 870.927 461.465   7
  -3  -6 -13 3219.92 795.826   7
   3   6  13 5030.56 1000.66   1
   3   6  14-599.429 445.590   1
  -3  -6 -14 557.211 353.752   7
   3   7  -8 1915.13 590.458   6
  -3  -7   7-46.1055 309.937   3
   3   7  -7-378.181 319.960   6
   3   7  -7 130.852 334.948   5
  -3  -7   6 170.854 385.975   3
   3   7  -6-459.171 287.803   6
   3   7  -6 67.7173 361.747   5
   3   7  -5 14355.0 1502.71   6
  -3  -7   5 16427.8 1683.73   3
   3   7  -5 15343.0 1831.79   5
  -3  -7   4-114.846 287.655   3
   3   7  -4 369.431 337.047   6
   3   7  -4 107.277 338.614   5
  -3  -7   3 7828.80 538.918   7
  -3  -7   3 7720.36 727.241   1
  -3  -7   3 7305.66 1061.16   3
   3   7  -3 7216.15 1197.78   5
   3   7  -2 3017.04 780.151   5
  -3  -7   2 4400.05 404.058   4
  -3  -7   2 3874.21 489.814   1
  -3  -7   2 3421.77 722.268   3
  -3  -7   2 4092.35 477.606   7
  -3  -7   2 3566.33 624.529   6
  -3  -7   1 16581.1 868.686   4
   3   7  -1 18190.0 1105.39   4
  -3  -7   1 18296.3 1076.18   7
  -3  -7   1 16124.8 910.988   1
  -3  -7   1 16312.5 1272.16   6
  -3  -7   1 16695.4 1518.39   3
   3   7  -1 15190.4 1599.38   5
   3   7   0 3458.58 772.997   5
  -3  -7   0 3945.15 568.071   7
  -3  -7   0 4180.58 495.939   4
  -3  -7   0 3984.32 438.241   1
  -3  -7   0 3744.09 614.367   6
  -3  -7  -1 6517.96 655.350   4
   3   7   1 6487.51 596.863   1
  -3  -7  -1 7574.09 799.828   7
  -3  -7  -1 6342.46 784.646   6
  -3  -7  -1 6823.39 546.623   1
  -3  -7  -1 6387.04 807.802   2
   3   7   1 7684.39 1072.69   5
   3   7   2 1642.40 543.404   5
   3   7   2 1151.72 283.878   1
  -3  -7  -2 1871.79 382.884   4
   3   7   2 1370.62 412.534   4
  -3  -7  -2 1361.72 383.309   6
  -3  -7  -2 1764.56 417.138   2
  -3  -7  -3 37936.8 1723.16   4
   3   7   3 35138.6 2012.98   4
   3   7   3 37881.5 1547.04   1
  -3  -7  -3 39533.0 1818.79   2
  -3  -7  -3 37184.7 1836.22   6
   3   7   3 38796.1 2186.14   5
  -3  -7  -4 8571.50 868.692   4
   3   7   4 7681.67 965.522   4
  -3  -7  -4 8816.97 818.658   2
   3   7   4 8723.24 789.173   1
   3   7   4 8402.58 992.142   5
   3   7   5 452.223 269.440   5
  -3  -7  -5 555.418 325.817   4
   3   7   5 311.547 232.446   1
  -3  -7  -5 294.936 160.809   2
  -3  -7  -6 7384.80 919.984   4
   3   7   6 8513.74 863.826   2
   3   7   6 8050.67 850.815   1
  -3  -7  -6 8092.30 721.508   2
   3   7   6 6690.97 800.671   5
  -3  -7  -7 54904.0 2504.90   4
   3   7   7 52526.5 2116.92   2
   3   7   7 50198.2 2241.36   1
   3   7   7 48938.4 2050.44   5
  -3  -7  -8 231.532 309.763   4
   3   7   8 422.371 274.244   2
   3   7   8 317.888 287.318   1
  -3  -7  -9 13681.7 1391.34   4
   3   7   9 13816.2 1089.82   2
   3   7   9 14898.4 1380.80   1
  -3  -7 -10 1004.41 437.184   4
   3   7  10 871.926 385.847   1
   3   7  10 1038.16 331.039   2
   3   7  11 3559.33 775.269   1
  -3  -7 -11 3090.12 738.199   4
   3   7  11 3391.53 568.131   2
   3   7  12-705.520 408.438   1
  -3  -7 -12-839.150 469.696   4
  -3  -7 -12 113.316 274.914   7
  -3  -7 -13 5279.31 1046.96   4
  -3  -7 -13 5474.74 1038.95   7
   3   7  13 5495.34 1059.00   1
   3   8  -7 2721.23 784.644   6
  -3  -8   6 5181.00 1044.85   3
   3   8  -6 4538.71 953.934   6
   3   8  -6 5130.29 1164.26   5
  -3  -8   5 851.217 482.318   3
   3   8  -5 592.959 374.464   6
  -3  -8   4 422.521 261.899   3
   3   8  -4 702.560 478.022   5
  -3  -8   3 9743.79 1305.25   3
   3   8  -3 10880.8 1559.49   5
  -3  -8   2 1368.78 515.539   3
  -3  -8   2 1910.47 307.777   4
  -3  -8   2 1847.16 356.048   7
   3   8  -2 2172.26 689.935   5
   3   8  -1 4622.50 954.275   5
  -3  -8   1 4685.92 521.836   4
  -3  -8   1 6471.27 1022.75   3
  -3  -8   1 5815.65 645.345   7
   3   8   0 3730.78 835.429   5
  -3  -8   0 3678.82 503.105   4
  -3  -8   0 4017.13 598.470   7
  -3  -8  -1 12800.4 973.537   4
   3   8   1 12790.6 1220.49   4
  -3  -8  -1 12631.3 1084.49   7
  -3  -8  -1 11085.2 1122.99   6
   3   8   1 13222.8 1481.76   5
   3   8   2 3162.05 753.220   5
   3   8   2 3305.87 420.388   1
  -3  -8  -2 3393.80 547.786   4
   3   8   2 3469.27 675.530   4
  -3  -8  -2 3066.80 581.051   6
   3   8   3 1951.12 549.441   5
   3   8   3 1616.27 334.089   1
  -3  -8  -3 2065.55 479.132   4
   3   8   3 1615.84 500.573   4
  -3  -8  -3 1507.54 410.909   6
  -3  -8  -3 2054.79 462.474   2
   3   8   4 4643.58 806.783   5
  -3  -8  -4 4937.88 672.801   2
  -3  -8  -4 3810.21 666.476   6
  -3  -8  -4 4836.54 706.430   4
   3   8   4 5077.62 591.942   1
  -3  -8  -5 11332.8 1110.87   4
   3   8   5 10248.9 891.452   1
  -3  -8  -5 10988.4 948.992   2
   3   8   5 11953.3 1171.71   5
  -3  -8  -6 205.703 166.067   2
   3   8   6 176.604 188.487   5
  -3  -8  -6 316.525 353.396   4
   3   8   6 88.5253 125.551   1
   3   8   6 286.169 256.884   2
  -3  -8  -7 11311.2 1200.08   4
   3   8   7 13158.7 1189.96   2
   3   8   7 12391.5 1103.60   1
   3   8   7 13092.6 1110.35   5
   3   8   8 190.028 173.172   1
  -3  -8  -8 118.509 255.966   4
   3   8   8 513.937 275.050   2
  -3  -8  -9 5740.18 945.750   4
   3   8   9 6237.81 822.246   2
   3   8   9 6535.71 947.912   1
   3   8   9 5995.89 698.910   5
   3   8  10 283.810 275.985   1
  -3  -8 -10 28.7766 274.263   4
   3   8  10 583.617 338.827   2
  -3  -8 -11 2084.07 667.232   4
   3   8  11 2164.19 608.609   1
  -3  -8 -12-358.836 328.332   4
   3   8  12-170.460 202.214   1
   3   8  13 3359.74 835.107   1
  -3  -9   4 149.914 290.438   3
   3   9  -4 307.651 327.687   5
  -3  -9   3 5084.29 1016.92   3
   3   9  -3 4542.62 1118.96   5
  -3  -9   2 1401.91 516.327   3
   3   9  -2 965.569 510.468   5
  -3  -9   1 3193.23 780.243   3
  -3  -9   1 2638.48 431.460   4
  -3  -9   1 3602.26 556.562   7
   3   9  -1 2151.41 766.023   5
  -3  -9   0 4903.51 924.207   3
  -3  -9   0 3550.90 529.709   4
  -3  -9   0 3463.52 578.547   7
   3   9   0 3384.21 836.508   5
   3   9   1 5601.77 1069.33   5
  -3  -9  -1 6206.69 732.667   4
   3   9   1 5422.17 862.295   4
  -3  -9  -2 10173.2 993.994   4
   3   9   2 9867.65 1311.66   5
   3   9   3 7736.63 542.219   1
  -3  -9  -3 9494.96 993.919   4
   3   9   3 9145.89 1201.62   5
   3   9   4 684.722 369.400   5
   3   9   4 218.136 122.407   1
  -3  -9  -4 583.944 299.373   4
   3   9   5 2599.79 594.619   5
  -3  -9  -5 1963.64 509.030   4
   3   9   5 2957.16 456.747   1
   3   9   6 12.8769 185.858   5
   3   9   6 324.505 181.421   1
  -3  -9  -6 566.464 355.893   4
   3   9   7 1268.63 410.125   5
  -3  -9  -7 1650.96 529.222   4
   3   9   7 2046.01 457.264   1
   3   9   7 1133.14 434.048   2
   3   9   8 384.156 237.806   5
  -3  -9  -8-187.938 275.718   4
   3   9   8 277.074 268.044   2
   3   9   8 249.899 185.078   1
   3   9   9 4593.58 766.209   1
  -3  -9  -9 5237.85 928.067   4
   3   9   9 4394.13 763.759   2
  -3  -9 -10-444.581 539.370   4
   3   9  10 249.861 249.067   2
   3   9  10-139.489 227.910   1
  -3  -9 -11 625.749 457.397   4
   3   9  11 657.597 378.197   1
   3   9  12 384.807 352.726   1
   3   9  13 1256.13 564.650   1
  -3 -10   2 158.452 295.875   3
   3  10  -2-1055.99 565.931   5
  -3 -10   1 5616.41 1091.52   3
   3  10  -1 4030.65 1019.85   5
  -3 -10   0 5868.14 1113.58   3
  -3 -10   0 4015.54 673.037   7
   3  10   0 4880.45 1040.39   5
  -3 -10  -1 3052.52 616.268   7
  -3 -10  -1 3426.59 601.821   4
   3  10   1 3077.87 787.607   5
  -3 -10  -2 2740.31 565.193   4
   3  10   2 1492.55 537.906   5
   3  10   3 4107.99 863.550   5
  -3 -10  -3 4763.89 760.530   4
   3  10   4-85.6568 264.477   5
  -3 -10  -4 915.713 399.216   4
   3  10   5 963.435 393.110   5
  -3 -10  -5 1458.17 516.045   4
   3  10   6 337.064 205.053   5
  -3 -10  -6 698.914 386.240   4
   3  10   7 4186.51 683.404   5
  -3 -10  -7 3907.39 781.839   4
   3  10   7 6004.36 959.841   2
  -3 -10  -8 122.434 298.894   4
   3  10   8 438.800 345.105   2
  -3 -10  -9 2565.28 680.120   4
   3  10   9 3918.44 785.669   2
   3  11   0-905.355 536.328   5
   3  11   1 1074.22 475.964   5
  -3 -11  -2 615.484 367.821   4
   3  11   2 470.699 379.878   5
  -3 -11  -3 2294.49 603.417   4
   3  11   3 1915.46 591.240   5
  -3 -11  -4 1445.49 490.244   4
   3  11   4 1120.45 431.167   5
  -3 -11  -5 4071.82 793.198   4
   3  11   5 4657.25 826.837   5
  -3 -11  -6 261.366 278.619   4
  -3 -11  -7 1776.29 568.746   4
   3  11   8 489.996 403.314   2
  -3 -11  -8 1225.36 515.602   4
   3  12   2 566.332 373.858   5
   3  12   3 1244.49 583.355   5
  -3 -12  -4 948.952 431.140   4
  -3 -12  -5 509.742 364.178   4
  -3 -12  -6 64.6701 298.628   4
   4 -10   1 867.701 444.231   3
   4 -10   2-462.878 357.112   3
   4  -9  -5-636.727 372.158   4
  -4   9   5 251.335 340.643   2
   4  -9  -4 3911.62 859.667   4
  -4   9   4 4112.82 1003.09   2
   4  -9  -3 544.363 359.126   4
  -4   9   3 567.893 439.346   2
   4  -9  -2 3738.33 881.274   4
  -4   9   2 2761.43 789.534   2
   4  -9  -1 371.731 459.487   4
  -4   9   1 174.287 313.488   2
   4  -9   0 1379.93 614.992   4
  -4   9   0 1989.82 710.730   2
   4  -9   1 767.224 483.782   4
  -4   9  -1 1333.49 586.945   2
   4  -9   2 6560.28 1045.76   3
  -4   9  -2 6071.69 1149.70   2
   4  -9   2 6003.48 1112.65   4
   4  -9   3 6.31315 198.139   3
  -4   9  -3 176.704 273.115   2
   4  -9   4 3073.62 767.609   3
   4  -9   4 2377.53 816.417   4
   4  -9   5 319.520 332.836   3
   4  -9   5-685.914 488.930   4
   4  -9   6 1545.62 615.081   4
   4  -8  -8 2992.07 778.023   4
   4  -8  -7-566.420 375.254   4
  -4   8   7 55.8580 335.645   2
   4  -8  -6 5534.31 981.754   4
  -4   8   6 4629.10 1034.05   2
   4  -8  -5 1009.04 507.574   4
  -4   8   5 566.808 366.769   2
   4  -8  -4 10769.1 1350.10   4
  -4   8   4 8845.07 1383.68   2
   4  -8  -3 3696.16 811.729   4
  -4   8   3 1888.60 687.464   2
   4  -8  -2 1688.65 595.131   4
  -4   8   2 2906.40 853.035   2
   4  -8  -1 5910.77 1031.62   4
  -4   8   1 5540.54 1059.62   2
   4  -8   0 23594.2 2023.54   4
  -4   8   0 22492.8 2089.82   2
   4  -8   1 420.830 455.838   4
  -4   8  -1 1086.60 519.979   2
   4  -8   2 14033.4 1619.15   4
  -4   8  -2 13430.7 1602.73   2
   4  -8   2 14245.9 1400.76   3
   4  -8   3-180.592 250.533   3
  -4   8  -3-275.478 283.849   2
   4  -8   4 3452.69 729.197   3
   4  -8   4 1764.92 620.190   4
   4  -8   5 117.931 275.152   3
   4  -8   5-796.821 436.763   4
   4  -8   6 7467.21 1086.14   3
   4  -8   6 7685.38 1272.63   4
   4  -8   7 118.845 331.292   4
   4  -8   7 433.035 417.447   3
   4  -8   8 3901.96 936.965   4
   4  -7 -10 960.921 440.487   4
   4  -7  -9 554.297 344.067   4
   4  -7  -8 5051.36 912.291   4
  -4   7   8 6041.40 1149.24   2
   4  -7  -7-225.074 301.052   4
  -4   7   7-504.006 392.271   2
   4  -7  -6 2251.17 631.809   4
  -4   7   6 3213.59 806.017   2
   4  -7  -5 25.6548 240.558   4
  -4   7   5-93.7218 289.676   2
   4  -7  -4 11663.9 1345.32   4
  -4   7   4 11609.0 1236.79   1
  -4   7   4 11617.6 1470.82   2
   4  -7  -3-164.499 356.743   4
  -4   7   3-188.834 424.998   2
  -4   7   3-841.704 339.262   1
   4  -7  -2 40467.7 2468.24   4
  -4   7   2 36732.1 2011.99   1
   4  -7  -2 30908.1 1669.21   3
   4  -7  -2 36627.3 1757.78   5
  -4   7   2 36132.9 2549.17   2
   4  -7  -1 1070.52 470.897   4
  -4   7   1 1597.46 434.588   1
  -4   7   1 2203.56 687.191   2
   4  -7  -1 1644.84 389.174   3
   4  -7  -1 1928.32 444.918   5
   4  -7   0 5325.66 950.061   4
  -4   7   0 6358.95 773.325   1
  -4   7   0 6065.07 1010.74   2
   4  -7   0 5670.73 804.707   5
   4  -7   1 1028.95 493.674   4
  -4   7  -1 800.882 440.678   2
   4  -7   1 1063.51 307.942   1
   4  -7   2 14697.7 1063.00   1
   4  -7   2 14960.0 1576.77   4
  -4   7  -2 15380.7 1601.33   2
   4  -7   2 15397.3 1328.92   3
   4  -7   3 74.7161 270.150   3
   4  -7   3 161.801 227.943   1
  -4   7  -3-342.485 318.035   2
   4  -7   3-297.396 381.788   4
   4  -7   4 12131.8 1470.60   4
  -4   7  -4 9620.14 1253.73   2
   4  -7   4 11892.1 1007.51   1
   4  -7   4 11791.3 1205.30   3
   4  -7   5 282.933 361.242   4
   4  -7   5-14.5286 243.243   3
   4  -7   5-218.975 242.268   1
   4  -7   6 12447.9 1561.15   4
   4  -7   6 14075.0 1199.30   1
   4  -7   6 12534.6 1274.21   3
   4  -7   7-79.9734 279.891   3
   4  -7   7 660.103 471.319   4
   4  -7   8 16532.4 1867.11   4
   4  -7   8 17413.4 1626.14   3
   4  -7   9 150.856 238.951   3
   4  -7   9-702.509 466.742   4
   4  -7  10 3289.04 916.679   4
   4  -6 -11-75.0709 184.423   4
   4  -6 -10 2614.72 665.549   4
   4  -6  -9 154.363 332.910   4
  -4   6   9 424.152 386.772   2
   4  -6  -8 1828.41 543.219   4
  -4   6   8 2195.17 662.405   2
   4  -6  -7 574.340 379.362   4
  -4   6   7 782.119 440.636   2
   4  -6  -6 4428.88 806.887   4
  -4   6   6 4320.56 892.745   2
   4  -6  -5 2321.22 597.777   4
  -4   6   5 2529.19 694.798   2
   4  -6  -4 28205.0 1959.53   4
  -4   6   4 28592.1 1903.80   1
  -4   6   4 28853.0 2159.74   2
   4  -6  -4 24843.1 1638.68   3
   4  -6  -4 26301.7 1167.06   5
   4  -6  -3 276.309 352.907   4
  -4   6   3-34.3790 127.392   1
  -4   6   3 377.406 379.349   2
   4  -6  -3 212.631 211.069   3
   4  -6  -3 119.302 115.435   5
   4  -6  -2 688.981 438.794   4
  -4   6   2 1535.76 544.615   2
   4  -6  -2 1010.89 329.377   3
  -4   6   2 270.545 206.711   1
   4  -6  -2 579.808 235.943   5
  -4   6   1 1406.32 398.751   1
   4  -6  -1 379.638 293.324   4
  -4   6   1 561.710 294.550   2
   4  -6  -1 562.692 233.784   3
   4  -6  -1 648.139 278.611   5
   4  -6   0 7227.60 766.578   1
   4  -6   0 8006.63 1095.57   4
  -4   6   0 7832.34 1066.82   2
   4  -6   0 7519.71 723.747   3
  -4   6   0 8327.88 873.617   1
   4  -6   0 7208.44 842.973   5
   4  -6   1 250.013 230.418   1
  -4   6  -1-131.858 201.419   1
   4  -6   1-455.720 391.160   4
  -4   6  -1 30.4530 291.174   2
   4  -6   2 30592.4 1567.76   1
   4  -6   2 30552.2 2123.44   4
  -4   6  -2 28006.9 1972.28   2
  -4   6  -2 28942.2 1938.48   7
  -4   6  -2 29326.8 1566.14   1
   4  -6   3-52.3052 175.576   3
  -4   6  -3 254.739 268.744   7
   4  -6   3-137.213 210.997   1
   4  -6   3 60.8970 266.303   4
  -4   6  -3-564.606 341.243   2
   4  -6   4 17911.8 1699.56   4
  -4   6  -4 17818.5 1569.40   2
   4  -6   4 16730.2 1222.49   1
  -4   6  -4 14997.3 1404.38   7
   4  -6   4 15906.3 1251.28   3
   4  -6   5 269.902 247.689   3
  -4   6  -5 542.690 387.608   7
   4  -6   5 334.025 363.151   4
   4  -6   5 132.670 173.065   1
   4  -6   6 9477.36 1321.04   4
  -4   6  -6 9673.30 1128.15   7
   4  -6   6 10237.4 1057.00   1
   4  -6   6 10544.6 1103.19   3
   4  -6   7-103.915 342.375   3
   4  -6   7 259.479 274.509   1
  -4   6  -7-477.359 280.119   7
   4  -6   7 500.765 526.861   4
  -4   6  -7 105.717 340.309   6
   4  -6   8 22409.8 2085.54   4
  -4   6  -8 22269.6 1732.84   7
   4  -6   8 23937.3 1752.78   1
  -4   6  -8 22513.7 2117.72   6
   4  -6   8 21506.0 1717.93   3
   4  -6   9 244.777 321.844   3
   4  -6   9-286.358 352.087   1
  -4   6  -9 582.902 420.233   6
   4  -6  10 3150.29 765.842   3
   4  -6  10 4931.55 1057.97   4
   4  -6  11-1358.99 570.954   4
   4  -5 -12 1358.99 497.232   4
   4  -5 -11 242.791 265.851   4
  -4   5  10 1064.01 435.870   2
   4  -5 -10 993.454 416.083   4
  -4   5   9 629.296 402.822   2
   4  -5  -9 8.96249 218.983   4
   4  -5  -8 11783.3 1261.34   4
  -4   5   8 9074.06 1198.44   2
  -4   5   7 670.715 448.235   2
   4  -5  -7 371.089 271.046   4
  -4   5   6 2927.57 703.620   2
   4  -5  -6 2680.70 603.269   4
   4  -5  -6 1994.52 235.334   5
   4  -5  -5 5748.71 854.756   4
   4  -5  -5 6222.41 491.426   5
   4  -5  -5 4130.10 700.441   3
  -4   5   5 5810.57 932.258   2
   4  -5  -4 573.214 355.601   4
  -4   5   4 1110.31 384.920   1
   4  -5  -4 938.843 234.636   5
   4  -5  -4 1314.75 395.130   3
  -4   5   4 1419.37 469.033   2
   4  -5  -3 892.589 416.296   4
  -4   5   3 819.852 353.166   1
   4  -5  -3 991.288 258.364   5
  -4   5   3 918.085 438.972   2
   4  -5  -3 1044.04 333.267   3
   4  -5  -2 44332.7 2344.38   4
  -4   5   2 42595.4 2365.02   2
   4  -5  -2 38738.0 1689.05   3
  -4   5   2 43118.7 2125.92   1
   4  -5  -2 40560.8 1660.03   5
  -4   5   1 657.485 326.114   1
   4  -5  -1 614.340 356.522   4
  -4   5   1 598.000 319.392   2
   4  -5  -1 390.250 197.911   3
   4  -5  -1 947.696 293.913   5
   4  -5  -1 372.527 266.918   1
   4  -5   0 16284.8 1157.42   1
  -4   5   0 17509.3 1469.95   2
   4  -5   0 16641.3 1465.26   4
  -4   5   0 14285.9 1319.12   7
  -4   5   0 15134.8 1177.00   1
   4  -5   0 14949.5 910.013   3
   4  -5   0 16695.0 1416.11   6
   4  -5   0 16621.6 1193.78   5
   4  -5   1-143.033 148.326   2
   4  -5   1-95.3079 196.659   1
   4  -5   1-29.0411 263.427   4
  -4   5  -1 226.419 232.039   7
   4  -5   1-134.598 191.051   6
  -4   5  -1 126.947 204.503   2
   4  -5   1 262.308 193.719   5
  -4   5  -1-194.331 204.564   1
   4  -5   2 10396.6 1205.21   4
   4  -5   2 9812.07 905.637   1
  -4   5  -2 8071.14 1012.34   7
   4  -5   2 9023.71 875.558   2
   4  -5   2 10753.9 1129.38   6
  -4   5  -2 9542.89 916.960   1
   4  -5   2 10730.2 1072.21   5
  -4   5  -2 8951.64 1026.94   2
   4  -5   3 4309.71 802.985   4
  -4   5  -3 4949.25 782.408   2
   4  -5   3 4325.94 631.563   1
  -4   5  -3 3999.78 737.313   7
   4  -5   3 4954.08 660.207   2
   4  -5   3 4023.83 560.080   3
  -4   5  -3 4465.56 626.369   1
   4  -5   4 18703.4 1656.29   4
  -4   5  -4 17159.1 1408.85   2
  -4   5  -4 15136.5 1359.63   7
   4  -5   4 17184.6 1259.19   1
   4  -5   4 16011.8 1202.55   2
   4  -5   4 16163.6 1129.13   3
  -4   5  -5 66.8699 208.073   7
   4  -5   5-184.352 172.986   3
   4  -5   5 347.291 241.258   1
   4  -5   6 532.540 261.795   3
   4  -5   6 214.542 196.485   1
  -4   5  -6 273.657 269.894   7
  -4   5  -6 247.527 291.380   6
   4  -5   7-80.0442 211.618   3
   4  -5   7 182.118 266.432   1
  -4   5  -7-122.155 228.440   7
  -4   5  -7 12.5858 273.676   6
  -4   5  -8 10247.0 1176.47   7
   4  -5   8 9693.83 1125.03   1
  -4   5  -8 11805.4 1463.66   6
   4  -5   8 10786.5 1144.04   3
   4  -5   9-191.655 397.900   3
  -4   5  -9 401.551 259.407   7
   4  -5   9 107.638 289.397   1
  -4   5  -9 56.3522 412.217   6
  -4   5 -10 16399.1 1909.61   6
   4  -5  10 18149.9 1685.22   1
   4  -5  10 16422.6 1528.29   3
   4  -5  11 344.989 416.563   3
  -4   5 -11-139.656 396.797   6
   4  -5  11-664.627 428.683   1
   4  -5  12 2044.28 657.157   1
   4  -4 -11 740.834 346.509   4
  -4   4  11 413.035 343.031   3
   4  -4 -10 3793.82 732.039   4
  -4   4  10 2784.29 691.570   3
   4  -4  -9 1092.13 420.556   4
  -4   4   9 678.642 357.509   3
   4  -4  -8 5608.93 827.625   4
  -4   4   8 6011.71 871.622   3
   4  -4  -7 1289.24 225.802   5
   4  -4  -7 1160.89 391.467   4
  -4   4   7 994.353 377.522   3
   4  -4  -6 1681.21 275.789   5
  -4   4   6 2217.11 560.221   2
   4  -4  -6 1614.56 468.451   4
   4  -4  -5 6499.49 873.831   4
  -4   4   5 6161.83 900.929   2
   4  -4  -5 6269.71 844.077   3
   4  -4  -4 50022.6 2334.54   4
  -4   4   4 46537.5 2308.27   1
  -4   4   4 44955.1 2352.70   2
   4  -4  -4 42564.5 2047.93   3
   4  -4  -3 8055.09 953.054   4
  -4   4   3 9577.10 1024.35   1
  -4   4   3 7958.10 994.754   2
   4  -4  -3 8665.91 854.499   3
   4  -4  -2 16640.9 1218.02   1
   4  -4  -2 16745.4 1369.32   4
  -4   4   2 18311.5 1441.21   7
  -4   4   2 19581.8 1412.22   1
   4  -4  -2 20223.3 1636.13   7
  -4   4   2 16726.8 1377.97   2
   4  -4  -2 16047.6 1035.26   3
   4  -4  -1 1295.58 380.817   1
  -4   4   1 1432.46 477.436   7
   4  -4  -1 1102.27 396.677   4
   4  -4  -1 1073.79 394.784   7
  -4   4   1 1395.49 385.664   1
   4  -4  -1 1461.39 297.950   3
  -4   4   1 1462.82 414.908   2
   4  -4   0 1731.81 411.001   1
  -4   4   0 1768.22 428.622   1
  -4   4   0 1528.39 446.578   7
   4  -4   0 2192.63 525.519   7
   4  -4   0 2168.65 531.827   4
   4  -4   0 2001.41 449.795   6
  -4   4   0 2134.08 507.858   2
   4  -4   0 1976.81 302.348   3
   4  -4   1 8961.72 869.078   1
   4  -4   1 7673.94 975.850   4
   4  -4   1 9485.83 1046.58   7
  -4   4  -1 8693.87 990.543   7
  -4   4  -1 9457.68 970.219   2
   4  -4   1 8918.68 595.266   3
  -4   4  -1 9637.91 906.748   1
   4  -4   1 8263.23 904.632   6
  -4   4  -2 29056.9 1795.92   7
   4  -4   2 28884.7 1888.46   4
   4  -4   2 27325.3 1513.25   1
   4  -4   2 27934.8 1758.44   7
  -4   4  -2 28183.1 1633.48   2
   4  -4   2 26169.4 1354.50   2
   4  -4   2 28022.8 1668.92   6
  -4   4  -2 29371.8 1589.67   1
   4  -4   2 28422.1 1217.63   3
   4  -4   2 29345.7 1658.26   5
   4  -4   3 419.510 209.891   3
  -4   4  -3 473.477 259.102   1
   4  -4   3 818.871 303.106   6
  -4   4  -3 143.830 262.358   7
   4  -4   3 1037.30 347.425   7
   4  -4   3 514.180 438.004   4
  -4   4  -3 550.222 292.092   2
   4  -4   3 296.019 243.074   1
   4  -4   3 294.428 193.159   5
   4  -4   3 764.437 270.603   2
  -4   4  -4 9915.39 973.875   2
  -4   4  -4 8308.68 996.137   7
   4  -4   4 8049.68 885.106   1
   4  -4   4 8151.68 782.393   2
   4  -4   4 7366.72 890.774   6
   4  -4   4 7391.83 889.130   7
   4  -4   4 7697.28 676.147   3
   4  -4   5-372.785 200.405   3
   4  -4   5 366.718 295.355   1
  -4   4  -5 112.327 247.095   7
   4  -4   5 52.0889 91.2483   7
  -4   4  -5 209.261 229.289   6
   4  -4   5 761.081 387.596   6
   4  -4   5-16.8854 140.587   2
   4  -4   6 4983.68 720.359   7
   4  -4   6 4247.54 606.992   2
  -4   4  -6 4508.27 745.496   7
   4  -4   6 5597.14 786.548   1
  -4   4  -6 4805.62 797.364   6
   4  -4   6 5255.99 658.892   3
   4  -4   7-27.9813 139.953   3
  -4   4  -7-110.113 188.113   7
   4  -4   7-47.5011 238.686   1
  -4   4  -7-33.4711 255.722   6
   4  -4   7 185.207 143.026   2
   4  -4   7-136.929 176.938   7
  -4   4  -8 4755.56 781.546   7
   4  -4   8 5642.60 796.589   3
  -4   4  -8 6300.03 1028.33   6
   4  -4   8 4044.65 765.312   1
   4  -4   8 4479.63 680.086   2
   4  -4   9-88.1173 299.644   3
  -4   4  -9-209.081 226.738   7
  -4   4  -9-618.826 402.718   6
   4  -4   9-421.192 353.022   1
   4  -4  10 10412.2 1198.84   3
  -4   4 -10 9608.85 1168.77   7
  -4   4 -10 9540.84 1418.51   6
   4  -4  10 9122.53 1209.55   1
   4  -4  11-81.2143 304.990   1
  -4   4 -11-422.042 605.181   6
   4  -4  11-122.696 267.171   3
   4  -4  12 2575.69 727.941   1
  -4   4 -12 1395.65 731.889   6
   4  -4  12 1686.49 581.483   3
   4  -4  13-1278.71 597.445   1
   4  -3 -11-482.090 268.814   4
  -4   3  11-45.9482 257.194   3
   4  -3 -10 2315.66 518.395   4
  -4   3  10 1751.03 484.809   3
   4  -3  -9-338.462 256.343   4
  -4   3   9-13.2386 261.860   3
   4  -3  -8 12938.6 1180.49   4
  -4   3   8 15473.6 1337.11   3
   4  -3  -8 13474.2 843.561   5
   4  -3  -7 203.672 163.545   5
   4  -3  -7 270.892 262.370   4
  -4   3   7-81.8149 133.662   4
  -4   3   7 165.567 231.845   3
   4  -3  -6 38945.4 1916.42   4
  -4   3   6 36555.3 2048.62   4
  -4   3   6 39054.6 1912.35   3
   4  -3  -6 34552.2 2090.51   3
   4  -3  -6 36891.2 1402.10   5
   4  -3  -5 22473.8 1460.74   4
  -4   3   5 21447.5 1364.70   3
   4  -3  -5 19752.9 1474.49   3
   4  -3  -5 23863.2 1802.30   7
   4  -3  -4 873.653 323.319   3
  -4   3   4 1247.89 409.808   1
   4  -3  -4 849.933 354.814   4
   4  -3  -4 1837.31 493.043   7
  -4   3   4 840.850 320.666   3
  -4   3   3 1.27794 239.203   2
   4  -3  -3-48.6144 185.302   7
  -4   3   3 48.9641 241.080   7
  -4   3   3 36.4474 158.882   1
   4  -3  -3 43.0583 233.118   4
   4  -3  -3 287.264 194.782   3
   4  -3  -2 50891.2 2085.85   1
   4  -3  -2 51268.1 2220.69   4
  -4   3   2 51923.8 2245.78   1
  -4   3   2 51771.8 2327.68   7
   4  -3  -2 54899.2 2543.52   7
  -4   3   2 50620.0 2221.43   2
   4  -3  -2 49597.9 1749.67   3
   4  -3  -1 1622.48 395.175   1
   4  -3  -1 2084.21 511.594   7
   4  -3  -1 1557.28 448.650   4
  -4   3   1 1427.04 401.661   1
  -4   3   1 1929.79 492.374   7
   4  -3  -1 1148.20 255.350   3
  -4   3   1 935.483 363.877   2
   4  -3   0 97037.0 2814.18   1
   4  -3   0 98633.2 3165.94   4
  -4   3   0 95423.5 2856.24   2
  -4   3   0 92417.7 3044.93   7
  -4   3   0 99042.2 2917.91   1
   4  -3   0 93824.4 1873.90   3
   4  -3   1-133.509 253.631   1
  -4   3  -1-101.031 193.558   1
  -4   3  -1 105.769 227.414   7
   4  -3   1-461.112 332.874   4
  -4   3  -1 49.4051 184.253   2
   4  -3   1-27.6045 88.5964   3
   4  -3   1-41.6527 154.073   7
  -4   3  -2 203.301 190.816   1
   4  -3   2 142.751 105.824   3
   4  -3   2 180.366 209.063   7
  -4   3  -2 464.843 287.391   7
   4  -3   2-39.2350 268.075   1
  -4   3  -2 74.0828 151.273   2
   4  -3   3 227.270 142.391   2
   4  -3   3 12.6267 113.028   3
  -4   3  -3-105.746 244.360   7
   4  -3   3 151.571 128.878   7
  -4   3  -3 333.257 234.543   2
   4  -3   3-102.269 283.040   1
  -4   3  -3-139.719 205.951   1
  -4   3  -4 44177.5 1828.12   2
  -4   3  -4 41088.6 1912.83   6
   4  -3   4 45606.3 2075.92   7
   4  -3   4 43518.4 1996.80   1
   4  -3   4 39992.3 1545.50   2
  -4   3  -4 41769.5 2098.15   7
   4  -3   4 46792.7 2003.82   6
   4  -3   4 41058.4 1331.29   3
  -4   3  -4 45781.7 1975.41   1
  -4   3  -5 4461.42 600.192   2
   4  -3   5 3967.57 635.805   1
   4  -3   5 3812.92 499.155   2
  -4   3  -5 3458.10 629.837   7
   4  -3   5 4050.66 622.657   7
   4  -3   5 3818.64 608.577   6
  -4   3  -5 3394.68 628.242   6
   4  -3   5 3717.28 460.095   3
  -4   3  -6 15890.8 1332.40   7
   4  -3   6 16803.4 1277.16   7
   4  -3   6 15469.2 1042.62   2
   4  -3   6 20385.0 1420.74   6
   4  -3   6 14382.5 1232.33   1
  -4   3  -6 16633.9 1393.01   6
   4  -3   6 16050.3 1027.08   3
   4  -3   7 465.800 263.884   3
  -4   3  -7 298.474 339.691   7
   4  -3   7 218.892 183.473   7
  -4   3  -7 369.525 295.019   6
   4  -3   7 493.781 321.061   1
   4  -3   7 500.321 219.004   2
  -4   3  -8 10331.7 1242.71   6
   4  -3   8 11114.4 1045.63   7
  -4   3  -8 11119.4 1182.18   7
   4  -3   8 10063.9 923.619   2
   4  -3   8 9753.32 1126.63   1
   4  -3   8 10403.1 968.233   3
  -4   3  -9-180.812 247.499   7
   4  -3   9 187.676 225.083   1
  -4   3  -9-560.085 394.066   6
   4  -3   9-373.071 186.827   2
   4  -3   9-143.184 265.986   3
   4  -3  10 6347.30 999.969   1
  -4   3 -10 4737.65 822.074   7
   4  -3  10 5984.53 858.743   3
  -4   3 -10 6774.48 1150.50   6
  -4   3 -11 668.278 307.220   7
   4  -3  11 115.763 256.240   1
   4  -3  11-215.839 248.838   3
  -4   3 -12 2386.16 766.013   6
   4  -3  12 2338.63 715.454   1
   4  -3  12 2655.75 657.618   3
   4  -3  13 24.2894 224.285   1
   4  -3  13 198.854 245.838   3
   4  -2 -11 124.326 189.930   6
  -4   2  11-344.074 362.610   3
   4  -2 -10 3419.78 630.989   4
  -4   2  10 3734.53 779.383   3
   4  -2  -9 359.197 238.831   4
  -4   2   9 814.757 424.656   3
   4  -2  -9 150.559 178.410   5
   4  -2  -8 8385.81 901.178   4
  -4   2   8 7839.86 893.419   4
  -4   2   8 8831.01 1027.38   3
   4  -2  -8 7716.96 751.828   5
  -4   2   7 21832.0 1522.23   3
   4  -2  -7 19785.7 1319.43   4
  -4   2   7 18478.9 1368.00   4
   4  -2  -7 18568.7 1561.10   7
   4  -2  -7 19220.5 1156.04   5
   4  -2  -6 12276.0 1235.43   7
  -4   2   6 12020.8 1064.57   3
   4  -2  -6 13199.9 1046.17   4
   4  -2  -6 11062.0 1177.99   3
   4  -2  -6 11792.2 890.779   5
   4  -2  -5 3752.36 657.540   3
   4  -2  -5 3002.78 518.730   4
   4  -2  -5 4382.63 748.225   7
  -4   2   5 3545.04 565.337   3
   4  -2  -5 3213.37 477.902   5
   4  -2  -4 52039.1 2037.49   4
  -4   2   4 49515.5 2308.60   1
  -4   2   4 46762.2 1824.14   3
   4  -2  -4 50735.0 2381.04   7
   4  -2  -4 46669.7 2048.07   3
  -4   2   3 3381.93 471.295   3
  -4   2   3 4946.14 715.222   1
   4  -2  -3 5090.19 756.430   7
  -4   2   3 4318.95 673.797   7
   4  -2  -3 2927.72 508.005   4
   4  -2  -3 4537.52 577.018   3
   4  -2  -2 64462.4 2364.42   1
   4  -2  -2 67029.4 2355.96   4
  -4   2   2 67714.0 2511.01   1
  -4   2   2 67743.6 2524.26   7
   4  -2  -2 70657.3 2677.35   7
  -4   2   2 68093.2 1855.50   3
   4  -2  -2 63403.6 1903.66   3
   4  -2  -1 32.4013 125.348   3
  -4   2   1-658.650 276.304   2
   4  -2  -1 37.2226 211.481   1
  -4   2   1-61.5788 242.484   7
   4  -2  -1 16.6276 141.238   7
   4  -2  -1-54.0758 248.648   4
  -4   2   1 18.5291 166.525   1
   4  -2   0 15365.1 1121.87   1
   4  -2   0 14467.1 1153.01   4
  -4   2   0 14082.1 1150.10   7
  -4   2   0 14633.6 1112.19   1
   4  -2   0 15078.7 658.109   3
  -4   2   0 14901.3 1040.56   2
  -4   2  -1 12.8922 138.282   1
  -4   2  -1-11.8740 248.680   7
   4  -2   1-0.77042 99.8748   6
   4  -2   1-16.3589 215.215   1
  -4   2  -1 18.3918 174.848   2
   4  -2   1 179.320 78.5403   3
   4  -2   2 90108.8 2707.38   1
  -4   2  -2 83256.6 2785.41   7
  -4   2  -2 88831.8 2678.94   1
   4  -2   2 85182.0 2282.93   6
   4  -2   2 82578.0 907.621   3
  -4   2  -2 86590.9 2298.34   2
   4  -2   2 86446.5 983.723   3
   4  -2   3 21374.9 1385.21   7
  -4   2  -3 19589.7 1370.99   7
   4  -2   3 18613.4 1269.38   1
   4  -2   3 17717.4 889.269   2
   4  -2   3 18271.7 1090.09   6
   4  -2   3 18456.3 569.602   3
  -4   2  -3 19873.3 1281.74   1
  -4   2  -3 18430.5 1041.52   2
  -4   2  -4 53265.0 1754.83   2
  -4   2  -4 52632.9 2280.32   7
  -4   2  -4 51809.8 1955.47   6
   4  -2   4 53470.9 2194.63   1
   4  -2   4 56579.8 2235.20   7
   4  -2   4 53249.3 1244.51   3
   4  -2   4 54262.0 1575.56   2
  -4   2  -4 57868.4 2200.05   1
   4  -2   5-1.06279 139.022   3
   4  -2   5-138.890 272.899   1
   4  -2   5 259.569 222.087   7
  -4   2  -5-155.352 292.541   7
  -4   2  -5-13.1369 182.228   6
   4  -2   5 99.7137 108.143   2
   4  -2   6 17752.4 977.696   2
   4  -2   6 17697.7 973.765   3
   4  -2   6 20118.2 1360.76   7
   4  -2   6 19149.1 1418.18   1
  -4   2  -6 19268.3 1379.14   6
   4  -2   6 17786.0 1214.53   6
  -4   2  -6 18373.1 1400.72   7
   4  -2   7 390.229 266.061   1
  -4   2  -7 737.555 255.283   3
  -4   2  -7 182.451 203.454   7
   4  -2   7 111.100 203.059   7
  -4   2  -7 674.425 342.013   6
   4  -2   7 537.431 257.004   6
   4  -2   7 421.745 178.993   2
   4  -2   7 399.636 231.320   3
  -4   2  -8 7976.11 1003.35   7
   4  -2   8 5959.41 754.852   7
  -4   2  -8 6733.16 949.000   6
   4  -2   8 6620.62 744.649   3
   4  -2   8 6759.43 938.387   1
  -4   2  -8 6456.00 762.498   3
   4  -2   8 6420.00 674.729   2
  -4   2  -9-264.072 275.247   7
  -4   2  -9 86.4154 137.271   3
   4  -2   9 433.831 228.008   7
  -4   2  -9-345.841 325.371   6
   4  -2   9 577.577 193.138   2
   4  -2   9-89.8032 291.027   1
   4  -2   9-18.0296 234.939   3
  -4   2 -10 20422.8 1871.83   6
   4  -2  10 20689.6 1493.67   3
   4  -2  10 20597.4 1784.48   1
  -4   2 -10 21758.2 1660.85   3
  -4   2 -10 19716.8 1643.11   7
  -4   2 -11 650.202 365.829   7
  -4   2 -11 710.445 503.246   6
   4  -2  11 283.939 301.031   1
   4  -2  11 376.173 297.853   3
  -4   2 -12 5144.52 889.321   7
  -4   2 -12 6148.32 1209.40   6
   4  -2  12 5322.67 868.281   3
   4  -2  12 5535.26 1037.86   1
   4  -2  13 391.746 327.692   1
  -4   2 -13-288.227 439.885   6
   4  -2  13-361.371 337.884   3
   4  -2  14 608.507 434.247   3
   4  -1 -12 2308.91 755.096   6
   4  -1 -11 1403.07 571.464   6
  -4   1  11 1715.23 568.674   3
   4  -1 -10 1713.85 543.453   6
  -4   1  10 2424.42 659.367   3
   4  -1 -10 2499.51 537.915   5
   4  -1  -9 295.781 221.899   4
   4  -1  -9 602.594 331.536   6
  -4   1   9 255.654 246.875   3
   4  -1  -9 453.274 276.985   5
   4  -1  -8 8419.23 835.874   4
   4  -1  -8 8197.59 969.327   7
  -4   1   8 9298.43 1080.45   3
   4  -1  -8 8289.11 868.340   5
   4  -1  -7 68.2463 186.970   5
   4  -1  -7-167.651 180.752   4
   4  -1  -7-145.310 154.650   7
  -4   1   7-189.377 265.220   3
   4  -1  -6 20453.7 1202.90   4
   4  -1  -6 19391.8 1437.45   7
  -4   1   6 20558.6 1410.65   3
   4  -1  -6 18200.1 1485.46   3
   4  -1  -6 20154.0 1270.84   5
   4  -1  -5 7671.54 727.333   4
   4  -1  -5 7032.33 849.275   7
   4  -1  -5 6377.94 825.653   3
   4  -1  -5 7129.61 739.093   5
  -4   1   5 7321.36 805.087   3
   4  -1  -4 1895.93 408.663   3
  -4   1   4 1800.07 471.742   1
  -4   1   4 1563.22 437.605   7
   4  -1  -4 1828.54 407.151   4
   4  -1  -4 1827.88 440.936   7
  -4   1   4 1514.73 384.027   3
   4  -1  -3 21127.6 1213.49   4
  -4   1   3 20628.2 1433.75   1
  -4   1   3 19018.5 1285.02   7
   4  -1  -3 23671.6 1482.06   7
  -4   1   3 21150.9 1142.07   3
   4  -1  -3 18239.9 1115.09   3
   4  -1  -2 27648.5 1556.65   1
   4  -1  -2 28630.3 1429.78   4
  -4   1   2 27788.1 1540.91   7
   4  -1  -2 31088.5 1649.69   7
  -4   1   2 31527.5 1256.89   3
   4  -1  -2 27919.4 1203.24   3
   4  -1  -1 1647.99 389.688   7
   4  -1  -1 1461.84 245.554   3
   4  -1  -1 1498.36 409.284   1
  -4   1   1 1578.64 410.482   7
   4  -1  -1 1834.05 402.876   4
  -4   1   1 1290.19 245.975   3
  -4   1   0 240325. 4511.22   7
   4  -1   0 236163. 2236.68   3
   4  -1   1 40061.8 1792.58   1
  -4   1  -1 39263.4 1827.80   7
  -4   1  -1 38198.7 1431.26   2
   4  -1   1 39581.6 1272.96   6
  -4   1  -2 78682.1 1925.48   2
   4  -1   2 81243.7 2554.80   1
  -4   1  -2 85626.9 2692.88   7
  -4   1  -2 78115.0 2460.64   1
   4  -1   2 76860.3 1811.93   6
  -4   1  -3 1437.91 369.596   1
  -4   1  -3 580.853 372.741   7
   4  -1   3 1421.26 280.642   6
  -4   1  -3 871.330 207.519   2
   4  -1   3 1048.54 354.321   1
   4  -1   4 1296.18 365.567   1
  -4   1  -4 1750.29 437.580   7
   4  -1   4 1643.88 394.230   7
   4  -1   4 1664.50 163.271   3
  -4   1  -4 1692.17 280.380   2
  -4   1  -4 1758.55 358.091   6
  -4   1  -4 1405.86 351.672   1
   4  -1   4 1876.48 333.026   6
   4  -1   5 2982.43 318.008   2
  -4   1  -5 2397.83 515.367   7
   4  -1   5 2729.80 543.290   1
   4  -1   5 2711.13 508.060   7
   4  -1   5 2740.99 314.012   3
   4  -1   5 3085.75 439.408   6
  -4   1  -5 2224.35 432.583   6
  -4   1  -5 2694.34 308.096   3
  -4   1  -6 10744.4 1057.90   7
   4  -1   6 8849.11 890.023   7
   4  -1   6 7817.70 540.359   2
   4  -1   6 8409.76 618.681   3
   4  -1   6 8475.14 955.245   1
  -4   1  -6 9001.44 886.825   6
  -4   1  -6 8181.89 638.613   3
   4  -1   7 2850.67 600.020   1
   4  -1   7 3039.03 365.222   2
  -4   1  -7 3121.16 618.460   7
   4  -1   7 3568.17 562.036   7
   4  -1   7 3254.86 469.382   3
  -4   1  -7 2559.54 544.832   6
  -4   1  -7 3082.69 455.245   3
   4  -1   8 32560.9 1287.87   2
  -4   1  -8 32531.5 1945.51   7
   4  -1   8 34434.6 1560.58   3
  -4   1  -8 31908.5 1932.80   6
   4  -1   8 33054.4 1739.04   7
   4  -1   8 35523.2 2130.16   1
  -4   1  -9 3040.67 588.844   3
  -4   1  -9 3882.34 717.447   7
   4  -1   9 2640.68 406.955   2
  -4   1  -9 2058.48 545.959   6
   4  -1   9 3135.91 689.985   1
   4  -1   9 3363.51 568.672   3
   4  -1  10 21007.8 1203.57   2
  -4   1 -10 22034.2 1748.01   7
   4  -1  10 22545.7 1464.34   3
  -4   1 -10 23484.8 1918.88   6
   4  -1  10 24749.3 1944.91   1
  -4   1 -10 20335.3 1605.16   3
   4  -1  11 747.634 459.361   1
  -4   1 -11 305.698 234.751   7
  -4   1 -11-84.8973 331.279   6
   4  -1  11 686.791 359.448   3
  -4   1 -12 9021.82 1193.83   7
   4  -1  12 9518.76 1088.19   3
  -4   1 -12 8427.38 1321.18   6
   4  -1  12 9318.43 1343.22   1
   4  -1  13-178.025 265.957   1
  -4   1 -13-550.777 348.905   7
  -4   1 -13-1295.82 556.161   6
   4  -1  13-424.989 351.702   3
  -4   1 -14 982.806 547.406   6
   4  -1  14 1398.75 516.892   3
   4   0 -12 405.739 385.086   6
   4   0 -11 384.708 363.205   6
  -4   0  11 452.850 403.990   3
   4   0 -10 4746.92 1007.32   6
  -4   0  10 4549.93 875.129   3
   4   0 -10 4848.83 768.128   5
   4   0  -9 379.844 181.124   4
   4   0  -9 111.351 235.522   6
  -4   0   9 20.4994 237.460   3
   4   0  -9 203.611 223.584   5
   4   0  -8 1123.49 274.305   4
   4   0  -8 1150.02 358.322   7
   4   0  -8 729.846 367.884   6
  -4   0   8 1469.36 485.629   3
   4   0  -8 1221.97 386.752   5
   4   0  -7 267.930 255.417   5
   4   0  -7 386.064 188.143   4
   4   0  -7 324.102 195.974   7
   4   0  -7 59.2138 276.387   6
  -4   0   7 70.7400 257.243   3
   4   0  -6 10010.4 758.086   4
  -4   0   6 9600.12 1015.10   3
   4   0  -6 9569.31 1039.43   6
   4   0  -6 10304.0 1127.19   3
   4   0  -6 10587.5 1017.50   5
   4   0  -5 13007.0 842.449   4
  -4   0   5 13937.3 1130.99   3
   4   0  -5 12655.2 1156.18   3
   4   0  -5 12577.2 1069.71   5
   4   0  -4 41116.4 1492.81   4
  -4   0   4 42299.0 2097.84   1
  -4   0   4 39816.1 1758.97   7
  -4   0   4 42536.4 1819.46   3
   4   0  -4 40327.3 1887.33   3
   4   0  -4 39637.1 1821.80   5
   4   0  -3 23518.5 1143.76   4
  -4   0   3 28224.7 1635.96   1
  -4   0   3 25514.8 1412.29   7
  -4   0   3 29070.5 1363.54   3
   4   0  -3 24624.4 1317.56   3
   4   0  -2 29028.0 1598.04   1
   4   0  -2 31164.2 1356.90   4
  -4   0   2 30843.7 1542.22   7
  -4   0   2 33059.6 1321.27   3
   4   0  -2 29290.8 1282.15   3
   4   0  -1 1933.81 444.067   1
   4   0  -1 1874.90 288.507   3
  -4   0   1 2505.73 480.288   7
   4   0  -1 2541.47 432.986   4
  -4   0   1 2395.23 338.351   3
   4   0   0 18717.9 1236.10   1
  -4   0   0 19449.6 1231.82   7
  -4   0   0 19678.2 737.757   3
   4   0   0 19058.5 711.932   3
   4   0   1 687.251 347.158   1
  -4   0  -1 791.092 295.320   7
   4   0   1 749.236 141.882   6
  -4   0  -2 52261.6 2050.13   7
  -4   0  -2 51057.2 1371.31   2
   4   0   2 53134.6 1105.61   6
   4   0   2 52251.0 2069.51   1
   4   0   3 1268.79 368.753   1
  -4   0  -3 1654.64 225.328   2
  -4   0  -3 1529.19 385.641   7
   4   0   3 1711.98 236.169   6
  -4   0  -3 1469.53 234.242   6
  -4   0  -4 87258.2 2745.89   7
  -4   0  -4 84325.5 1428.77   2
   4   0   4 87809.3 2750.79   1
  -4   0  -4 86665.6 1978.99   6
   4   0   4 81544.8 1738.49   6
  -4   0  -4 85031.6 1142.34   3
   4   0   5 22990.2 1363.00   7
  -4   0  -5 22433.2 1438.24   7
   4   0   5 22753.2 767.762   3
   4   0   5 20825.8 1396.52   1
  -4   0  -5 21203.2 1105.49   6
  -4   0  -5 22085.1 837.652   3
  -4   0  -6 47327.6 2167.84   7
   4   0   6 43870.0 902.275   2
   4   0   6 49159.4 1365.16   3
   4   0   6 47927.2 2211.12   1
  -4   0  -6 46394.1 1823.22   6
  -4   0  -6 45765.4 1477.59   3
   4   0   6 45565.8 1973.15   7
   4   0   7 3810.13 723.080   1
   4   0   7 3934.87 321.582   2
   4   0   7 3362.23 561.234   7
  -4   0  -7 4266.49 702.897   7
   4   0   7 4590.30 500.729   3
  -4   0  -7 4117.38 626.102   6
  -4   0  -7 3632.65 492.956   3
   4   0   8 2236.54 284.693   2
  -4   0  -8 2039.14 508.841   7
   4   0   8 2287.11 575.444   1
  -4   0  -8 1555.64 447.821   6
   4   0   8 1904.50 386.509   3
  -4   0  -9 921.395 353.228   3
  -4   0  -9 500.728 269.561   7
   4   0   9 579.419 172.072   2
  -4   0  -9 946.519 433.161   6
   4   0   9 924.151 354.344   3
   4   0   9 725.204 389.698   1
   4   0  10 15750.8 923.096   2
  -4   0 -10 18073.7 1592.43   7
  -4   0 -10 16633.8 1549.16   6
   4   0  10 17321.7 1259.22   3
  -4   0 -10 14439.9 1357.03   3
   4   0  10 16135.7 1569.18   1
   4   0  11 2103.92 643.769   1
  -4   0 -11 1509.46 515.022   7
  -4   0 -11 832.167 455.839   6
   4   0  11 1726.10 484.245   3
  -4   0 -12 6995.48 1093.38   7
   4   0  12 6903.80 1137.24   1
   4   0  12 7020.22 899.744   3
  -4   0 -12 5975.83 1090.61   6
  -4   0 -13 1536.07 582.604   7
   4   0  13 2131.46 733.521   1
  -4   0 -13 1186.60 633.356   6
   4   0  13 1620.58 491.337   3
  -4   0 -14 2103.23 655.488   7
  -4   0 -14 1343.61 691.153   6
   4   0  14 1844.75 566.211   3
   4   0  15 628.457 366.447   3
   4   1 -11 262.448 358.268   6
  -4  -1  11-516.724 407.338   3
   4   1 -11 459.546 364.781   5
   4   1 -10 835.321 468.599   6
  -4  -1  10 1378.52 531.171   3
   4   1 -10 1060.66 457.179   5
   4   1  -9 1424.58 522.844   6
  -4  -1   9 1544.93 519.971   3
   4   1  -9 1587.65 521.338   5
  -4  -1   8 13526.5 1383.21   3
   4   1  -8 13084.7 1429.97   6
   4   1  -8 11590.1 1219.88   5
   4   1  -7 556.021 276.815   5
   4   1  -7 646.042 229.836   7
   4   1  -7 857.723 388.322   6
  -4  -1   7 956.155 443.313   3
   4   1  -6 14567.2 739.134   4
  -4  -1   6 16949.9 1363.67   3
   4   1  -6 18621.9 1425.14   6
   4   1  -6 18876.4 1152.03   7
   4   1  -6 17608.0 1398.65   5
  -4  -1   5 2940.46 577.598   3
   4   1  -5 2412.14 556.214   5
   4   1  -5 2667.30 333.122   4
   4   1  -5 3077.42 602.732   3
   4   1  -5 3217.33 485.830   7
   4   1  -5 2688.20 532.701   6
  -4  -1   4 3805.73 587.823   3
   4   1  -4 3330.04 625.735   5
   4   1  -4 3892.61 393.347   4
   4   1  -4 2500.51 510.733   3
  -4  -1   4 3206.45 588.139   1
  -4  -1   4 3052.92 489.083   7
   4   1  -4 3816.40 522.033   7
   4   1  -4 3480.66 527.789   6
  -4  -1   3 8.21736 222.596   3
   4   1  -3 179.972 217.803   5
   4   1  -3 39.3470 119.238   3
  -4  -1   3 351.452 278.313   1
  -4  -1   3-3.51323 172.146   7
   4   1  -3 123.756 122.598   4
   4   1  -3 272.595 155.287   7
   4   1  -3 258.358 163.501   6
   4   1  -2 3748.87 443.556   4
  -4  -1   2 4455.95 632.744   1
  -4  -1   2 4544.39 588.583   7
   4   1  -2 3684.19 395.650   6
  -4  -1   2 4011.38 501.604   3
   4   1  -2 3814.38 501.069   3
   4   1  -2 3983.29 616.624   1
  -4  -1   1 289.496 148.550   3
   4   1  -1 242.140 235.560   1
   4   1  -1 454.992 171.936   3
  -4  -1   1 247.267 222.370   7
   4   1  -1 111.527 91.2392   6
  -4  -1   0 74918.6 2309.73   7
   4   1   0 77190.2 2495.00   1
   4   1   0 72870.5 909.892   6
  -4  -1   0 73803.7 1614.52   3
   4   1   1 6485.18 737.520   1
  -4  -1  -1 6501.42 714.920   7
  -4  -1  -1 6547.65 404.722   3
  -4  -1  -2 85317.2 2535.19   7
   4   1   2 85191.2 2644.55   1
  -4  -1  -2 83338.5 1236.62   3
  -4  -1  -3 50950.3 1010.09   2
  -4  -1  -3 54263.9 2101.53   7
   4   1   3 54213.5 2131.23   1
  -4  -1  -3 49032.1 1015.07   3
  -4  -1  -3 52171.2 957.026   6
  -4  -1  -4 180297. 3913.29   7
   4   1   4 178268. 3958.28   1
  -4  -1  -4 176302. 2394.35   6
  -4  -1  -5 328.154 174.836   3
  -4  -1  -5 451.526 288.556   7
  -4  -1  -5 185.211 149.058   6
   4   1   6 243.844 223.369   1
  -4  -1  -6 1011.19 263.063   3
   4   1   6 1058.36 309.569   7
  -4  -1  -6 924.746 363.665   7
  -4  -1  -6 855.990 271.333   6
  -4  -1  -7 261.587 224.406   3
   4   1   7 49.1660 158.724   4
   4   1   7-60.5482 233.303   1
  -4  -1  -7 75.4398 222.155   7
  -4  -1  -7 38.4407 148.774   6
   4   1   7-84.0795 187.788   3
  -4  -1  -8 19236.1 1509.30   7
   4   1   8 17910.8 486.044   2
   4   1   8 18656.8 1069.02   3
  -4  -1  -8 19057.3 1348.07   6
   4   1   8 20422.6 1597.34   1
  -4  -1  -9 115.391 160.006   3
   4   1   9 312.887 301.142   1
  -4  -1  -9 60.8907 150.850   7
   4   1   9 48.7296 59.1274   2
  -4  -1  -9 52.5206 195.779   6
   4   1   9 20.5036 224.446   3
   4   1  10 7933.92 557.176   2
  -4  -1 -10 7912.01 1075.69   7
   4   1  10 7876.94 829.518   3
  -4  -1 -10 9328.21 1138.17   6
  -4  -1 -10 7935.18 1025.78   3
   4   1  10 7757.92 1084.28   1
  -4  -1 -11-75.9666 292.842   7
   4   1  11-339.212 325.361   1
  -4  -1 -11-619.385 406.380   6
   4   1  11-120.422 272.664   3
  -4  -1 -12 6888.06 1112.79   7
  -4  -1 -12 4651.25 967.139   6
   4   1  12 8207.41 1253.33   1
   4   1  12 5842.35 821.802   3
  -4  -1 -13 1312.01 537.049   7
  -4  -1 -13 1093.22 582.926   6
   4   1  13 1672.07 475.946   3
   4   1  13 1637.05 698.248   1
  -4  -1 -14 3680.92 880.513   7
  -4  -1 -14 3545.46 946.934   6
   4   1  14 3710.09 722.944   3
   4   1  14 5980.57 1205.51   1
   4   1  15 819.936 437.892   3
   4   2 -11 649.723 386.563   6
   4   2 -11 422.437 347.072   5
   4   2 -10 3368.95 855.503   6
   4   2 -10 5268.84 939.372   5
  -4  -2  10 4378.54 914.722   3
   4   2  -9 1845.21 585.554   6
   4   2  -9 1574.49 506.402   5
  -4  -2   9 1930.67 604.965   3
   4   2  -8 1290.74 510.112   6
   4   2  -8 991.032 457.030   5
  -4  -2   8 1462.65 554.338   3
   4   2  -7-66.4491 245.285   5
  -4  -2   7-42.8281 354.705   3
   4   2  -7 15.1415 128.907   7
   4   2  -7 112.120 182.053   6
   4   2  -6 4190.79 777.463   5
  -4  -2   6 4694.46 776.271   3
   4   2  -6 4977.13 530.081   7
   4   2  -6 4575.83 735.894   6
   4   2  -5 524.824 376.602   5
  -4  -2   5 641.544 319.044   3
   4   2  -5 781.368 300.990   3
   4   2  -5 870.628 244.373   7
   4   2  -5 721.948 299.706   6
   4   2  -4 29639.2 682.741   4
  -4  -2   4 37154.4 1961.51   1
  -4  -2   4 35709.1 1453.88   7
   4   2  -4 34245.6 1426.13   7
   4   2  -4 33491.3 1575.96   6
  -4  -2   4 33962.2 1765.48   3
   4   2  -4 33649.7 1865.72   3
   4   2  -4 34184.5 2021.74   5
   4   2  -3 5769.46 604.061   7
   4   2  -3 5197.01 375.969   4
  -4  -2   3 5435.63 717.844   1
  -4  -2   3 5197.59 579.511   7
  -4  -2   3 5822.58 694.201   3
   4   2  -3 5760.43 591.265   6
   4   2  -3 6039.70 744.301   3
   4   2  -3 5974.77 847.952   5
   4   2  -2 50438.2 2107.59   1
   4   2  -2 45339.6 1276.88   4
  -4  -2   2 49924.6 2086.97   1
  -4  -2   2 48157.1 1759.53   7
   4   2  -2 50677.6 1772.67   7
   4   2  -2 50579.4 1474.51   6
  -4  -2   2 49608.4 1820.29   3
   4   2  -1 17.3191 193.065   1
  -4  -2   1 200.805 172.254   3
  -4  -2   1 183.699 189.781   7
   4   2  -1 81.6185 132.969   7
  -4  -2   1 207.848 164.640   1
   4   2  -1 335.782 121.924   6
  -4  -2   0 1495.62 282.167   3
   4   2   0 1448.75 390.195   1
  -4  -2   0 1520.90 362.002   7
  -4  -2   0 1639.40 377.854   1
  -4  -2  -1 1684.55 278.495   3
  -4  -2  -1 1312.17 325.358   1
   4   2   1 1925.40 425.272   1
  -4  -2  -1 1201.17 335.160   7
  -4  -2  -2 95944.3 2689.51   7
   4   2   2 96686.4 2798.73   1
  -4  -2  -2 91772.3 2611.64   1
  -4  -2  -3 588.553 231.820   1
  -4  -2  -3 266.288 203.206   7
   4   2   3 584.349 280.751   1
   4   2   4 20526.1 1210.67   4
  -4  -2  -4 22441.9 1405.93   7
   4   2   4 23441.5 1425.40   1
  -4  -2  -4 21288.4 924.175   3
  -4  -2  -4 23049.9 772.550   6
  -4  -2  -4 22474.8 1342.58   1
   4   2   5 38.1262 184.416   4
  -4  -2  -5 278.687 285.428   7
   4   2   5 231.287 267.349   1
  -4  -2  -5 119.822 142.376   6
  -4  -2  -5 189.866 169.234   3
   4   2   6 112003. 3036.68   4
  -4  -2  -6 114199. 3426.09   7
   4   2   6 116608. 3414.16   1
  -4  -2  -6 112961. 2523.63   6
   4   2   7 539.525 255.938   4
   4   2   7 528.635 311.894   1
  -4  -2  -7 675.621 351.820   7
  -4  -2  -7 515.745 203.059   6
  -4  -2  -7 745.926 299.965   3
  -4  -2  -8 5278.92 829.337   7
  -4  -2  -8 6485.97 780.131   6
   4   2   8 5883.08 874.216   1
  -4  -2  -9 232.843 318.520   3
   4   2   9-793.628 387.098   1
  -4  -2  -9-66.6871 255.399   7
  -4  -2  -9-43.4193 211.942   6
   4   2   9 28.9745 181.586   3
   4   2  10 14633.8 608.310   2
  -4  -2 -10 15054.9 1495.86   7
   4   2  10 12859.8 506.079   2
   4   2  10 14030.7 1118.16   3
  -4  -2 -10 13880.5 1364.84   6
   4   2  10 16600.9 1566.08   1
  -4  -2 -11 106.532 296.311   7
   4   2  11-720.751 416.001   1
  -4  -2 -11-2.00475 336.762   6
   4   2  11-36.7072 220.878   3
  -4  -2 -12 16542.2 1690.71   7
   4   2  12 20107.7 1508.15   3
  -4  -2 -12 14727.0 1631.43   6
   4   2  12 17482.1 1794.91   1
   4   2  13 2448.02 736.145   1
  -4  -2 -13 2496.26 708.835   7
  -4  -2 -13 2828.56 808.435   6
   4   2  13 2484.84 591.212   3
   4   2  14 363.009 388.217   1
  -4  -2 -14 214.165 247.857   7
  -4  -2 -14 395.684 387.240   6
   4   2  14 276.329 278.810   3
  -4  -2 -15-642.145 441.173   7
   4   2  15-260.054 320.772   3
   4   3 -11 645.642 412.955   6
   4   3 -11-54.4665 306.794   5
   4   3 -10 538.781 375.740   6
   4   3 -10-9.43605 353.089   5
  -4  -3  10 288.292 384.937   3
  -4  -3   9 1733.61 598.343   3
   4   3  -9 1795.65 607.255   6
   4   3  -9 2139.25 657.406   5
   4   3  -8 10225.7 1290.61   6
  -4  -3   8 8507.96 1188.76   3
   4   3  -8 8003.15 1168.71   5
   4   3  -7 2666.04 673.148   5
  -4  -3   7 2241.39 634.732   3
   4   3  -7 2750.27 646.575   6
   4   3  -6 14365.8 1318.16   6
  -4  -3   6 14767.2 1378.02   3
   4   3  -6 13502.2 1434.51   5
   4   3  -5-89.9184 310.844   5
  -4  -3   5-22.6545 283.993   3
   4   3  -5 235.779 139.882   7
   4   3  -5 373.448 278.949   6
   4   3  -4 4058.24 786.359   5
  -4  -3   4 2940.06 572.700   3
  -4  -3   4 3491.42 605.767   1
  -4  -3   4 3449.44 435.092   7
   4   3  -4 3058.97 406.036   7
   4   3  -4 3087.53 502.481   6
  -4  -3   3 14578.4 1174.68   1
  -4  -3   3 15051.0 919.513   7
   4   3  -3 16268.1 957.132   7
   4   3  -3 13682.9 959.865   6
  -4  -3   3 13295.5 1096.19   3
   4   3  -3 14458.0 1374.11   5
   4   3  -2 13635.8 1129.91   1
   4   3  -2 11038.9 531.005   4
   4   3  -2 12306.1 850.147   7
  -4  -3   2 12400.2 1044.67   1
  -4  -3   2 11927.6 856.565   7
   4   3  -2 12284.7 804.724   6
  -4  -3   2 12655.3 1009.10   3
   4   3  -2 12618.7 1252.89   5
   4   3  -1 903.329 319.387   1
  -4  -3   1 1060.79 313.673   3
   4   3  -1 944.000 210.581   4
  -4  -3   1 994.224 296.642   7
   4   3  -1 1025.06 258.884   7
   4   3  -1 1095.90 229.693   6
  -4  -3   1 1122.62 330.890   1
   4   3   0 59705.4 1620.75   4
   4   3   0 62530.7 2288.07   1
  -4  -3   0 60181.1 2018.66   7
  -4  -3   0 61628.0 2185.88   1
  -4  -3   0 64397.8 2019.89   3
   4   3   1-10.2897 183.394   1
  -4  -3  -1-59.5496 156.901   3
   4   3   1 125.368 90.3775   4
  -4  -3  -1-479.609 226.496   1
  -4  -3  -1-173.038 183.581   7
   4   3   2 1159.07 269.377   4
  -4  -3  -2 1367.41 371.218   7
   4   3   2 972.685 346.781   1
  -4  -3  -2 1218.78 313.039   1
  -4  -3  -3 626.367 147.892   2
  -4  -3  -3 282.089 159.689   1
  -4  -3  -3 473.607 303.613   7
   4   3   3 296.500 249.951   1
   4   3   4 71026.6 2228.34   4
  -4  -3  -4 73999.3 1079.69   2
  -4  -3  -4 73206.5 2576.78   7
   4   3   4 74902.7 2568.56   1
  -4  -3  -4 77039.1 2446.95   1
   4   3   5 1263.90 335.099   4
   4   3   5 2177.27 490.774   1
  -4  -3  -5 1355.14 298.998   3
  -4  -3  -5 1985.53 489.669   7
   4   3   6 42717.8 1873.04   4
  -4  -3  -6 45432.6 2166.66   7
  -4  -3  -6 41772.6 1763.23   3
   4   3   6 43366.4 2107.71   1
   4   3   7 1378.21 471.753   1
   4   3   7 1016.95 325.247   4
  -4  -3  -7 792.672 364.697   7
  -4  -3  -7 871.118 279.801   6
  -4  -3  -8 14185.3 1346.55   7
  -4  -3  -8 10283.9 1084.02   3
  -4  -3  -8 12860.1 1068.68   6
   4   3   8 14063.6 1330.59   1
   4   3   9 2365.70 591.263   1
  -4  -3  -9 2790.83 633.270   7
  -4  -3  -9 2708.68 567.117   6
  -4  -3  -9 2025.46 525.794   3
   4   3  10 31688.9 705.350   2
   4   3  10 30240.3 662.169   2
  -4  -3 -10 32730.7 2202.82   7
  -4  -3 -10 31230.5 1978.25   6
   4   3  10 33693.1 2242.72   1
  -4  -3 -11 1124.15 540.137   7
   4   3  11 375.157 288.806   1
  -4  -3 -11 1310.13 505.939   6
  -4  -3 -12 3185.24 784.179   7
  -4  -3 -12 4147.35 895.987   6
   4   3  12 4371.05 931.970   1
   4   3  13 1176.00 510.461   1
  -4  -3 -13-57.5291 248.866   7
  -4  -3 -13-115.209 289.957   6
   4   3  13 1022.04 424.853   3
   4   3  14 4510.26 1016.99   1
  -4  -3 -14 3106.00 837.405   7
  -4  -3 -14 3952.29 966.848   6
   4   3  14 2672.24 656.267   3
  -4  -3 -15 1633.23 635.785   7
  -4  -3 -15 1674.70 728.276   6
   4   3  15 1925.29 586.439   3
   4   4 -10 2616.21 740.168   6
   4   4 -10 3079.51 821.148   5
  -4  -4   9 2054.37 623.420   3
   4   4  -9 1258.67 498.963   6
   4   4  -9 2952.92 843.955   5
  -4  -4   8 4675.92 958.864   3
   4   4  -8 3458.07 786.301   6
   4   4  -8 4361.34 922.887   5
  -4  -4   7 135.405 283.265   3
   4   4  -7 359.784 235.059   6
   4   4  -7 397.619 373.161   5
   4   4  -6 1989.54 654.019   5
  -4  -4   6 2828.16 643.611   3
   4   4  -6 1908.45 534.286   6
   4   4  -5 9654.43 1033.92   6
  -4  -4   5 9212.60 1088.93   3
   4   4  -5 9498.36 1274.94   5
  -4  -4   4 17627.7 1347.37   1
  -4  -4   4 19119.2 907.397   7
   4   4  -4 18081.4 1303.56   6
  -4  -4   4 17768.9 1428.52   3
   4   4  -4 18730.0 1747.76   5
  -4  -4   3 12798.1 1100.13   1
  -4  -4   3 11683.4 783.381   7
   4   4  -3 11099.0 942.013   6
  -4  -4   3 13015.3 1172.64   3
   4   4  -3 13755.6 1443.85   5
   4   4  -2 10505.7 414.577   4
  -4  -4   2 9315.22 904.513   1
  -4  -4   2 9750.83 758.391   7
   4   4  -2 9080.69 777.718   6
  -4  -4   2 9668.80 967.798   3
   4   4  -2 8807.33 1158.28   5
   4   4  -1 3962.62 787.481   5
   4   4  -1 4931.84 678.299   1
   4   4  -1 4513.48 429.118   4
  -4  -4   1 5159.41 582.365   7
  -4  -4   1 5434.37 678.294   1
   4   4  -1 4521.10 506.145   6
  -4  -4   1 4981.53 460.836   6
  -4  -4   1 4661.09 678.526   3
   4   4   0 24185.9 1089.40   4
   4   4   0 25090.5 1465.28   1
  -4  -4   0 25377.6 1321.78   7
  -4  -4   0 25731.5 1407.37   1
  -4  -4   0 25594.2 940.544   6
  -4  -4   0 26354.4 1455.27   3
   4   4   0 25989.9 1787.50   5
  -4  -4  -1 1367.67 336.919   1
  -4  -4  -1 1218.41 336.583   3
   4   4   1 843.204 238.169   4
   4   4   1 867.783 297.821   1
  -4  -4  -1 1017.97 333.064   7
  -4  -4  -1 1007.53 179.349   6
   4   4   2 9268.39 763.103   4
  -4  -4  -2 10070.9 748.218   2
   4   4   2 9794.30 920.017   1
  -4  -4  -2 8461.07 858.875   7
  -4  -4  -2 9259.23 515.148   6
  -4  -4  -2 9882.39 871.952   1
  -4  -4  -3 15216.6 815.405   2
   4   4   3 15715.4 1172.35   1
  -4  -4  -3 15163.6 1164.31   7
  -4  -4  -3 14574.1 669.422   6
  -4  -4  -3 16158.3 1106.79   1
   4   4   4 33710.7 1602.35   4
  -4  -4  -4 36439.9 1066.38   2
  -4  -4  -4 36973.3 1852.65   7
   4   4   4 35750.3 1801.87   1
  -4  -4  -4 37184.5 1697.16   1
   4   4   5 14544.2 1092.19   4
  -4  -4  -5 16461.1 1302.43   7
  -4  -4  -5 16725.5 572.493   2
   4   4   5 16134.4 1239.26   1
   4   4   6 13297.0 1083.36   4
  -4  -4  -6 15436.1 1327.55   7
   4   4   6 12763.0 1174.08   1
   4   4   7 247.996 237.836   1
  -4  -4  -7 342.377 290.202   7
  -4  -4  -7 318.076 234.242   3
  -4  -4  -8 26307.8 1833.96   7
  -4  -4  -8 23626.3 1635.00   3
   4   4   8 25251.2 1785.56   1
  -4  -4  -9 54.6836 197.211   7
  -4  -4  -9-105.574 184.251   3
   4   4  10 25.1476 268.553   1
  -4  -4 -10-362.658 317.185   7
   4   4  10 162.551 76.5393   2
   4   4  11 78.5157 331.128   1
  -4  -4 -11 606.158 379.334   7
  -4  -4 -11 607.271 380.063   6
  -4  -4 -12 20845.5 1923.70   7
  -4  -4 -12 18571.2 1758.50   6
   4   4  12 25191.5 2145.13   1
  -4  -4 -13 360.576 319.183   7
  -4  -4 -13 157.778 318.450   6
   4   4  13-212.310 326.105   1
   4   4  14 3106.29 841.813   1
  -4  -4 -14 3393.82 881.257   7
  -4  -4 -14 3514.72 874.190   6
  -4  -4 -15 309.425 265.273   7
  -4  -4 -15 377.110 442.473   6
   4   5 -10 101.759 209.736   6
   4   5  -9 676.472 380.595   6
   4   5  -9 852.468 511.764   5
  -4  -5   8 2288.59 676.540   3
   4   5  -8 1529.36 527.033   6
   4   5  -8 2203.53 744.506   5
  -4  -5   7 7282.21 1147.93   3
   4   5  -7 5958.81 991.606   6
   4   5  -7 6518.76 1199.00   5
   4   5  -6 23856.0 1833.95   6
  -4  -5   6 26279.1 2027.02   3
   4   5  -6 25504.6 2232.17   5
   4   5  -5-55.3669 414.524   5
  -4  -5   5-122.344 380.504   3
   4   5  -5-177.983 231.398   6
   4   5  -4 974.185 544.353   5
  -4  -5   4 177.098 290.859   3
  -4  -5   4 320.109 124.710   7
  -4  -5   4 598.152 279.468   1
   4   5  -4 316.615 202.922   6
   4   5  -3 1497.49 613.185   5
  -4  -5   3 902.879 435.657   3
  -4  -5   3 571.519 203.003   7
  -4  -5   3 520.760 288.167   1
   4   5  -3 229.945 201.258   6
  -4  -5   3 752.380 249.882   6
  -4  -5   2 16116.5 1191.33   1
  -4  -5   2 18397.7 1018.99   7
   4   5  -2 17383.5 1172.84   6
  -4  -5   2 17033.0 1035.22   6
  -4  -5   2 16627.6 1370.54   3
   4   5  -2 17578.8 1698.17   5
   4   5  -1 11629.3 1039.28   1
   4   5  -1 10193.8 661.762   4
  -4  -5   1 10414.5 827.328   7
  -4  -5   1 11127.7 955.648   1
  -4  -5   1 9823.37 758.496   6
  -4  -5   1 10811.9 1067.58   3
   4   5  -1 9512.38 1231.70   5
   4   5   0 7237.04 793.863   1
   4   5   0 6437.51 617.620   4
  -4  -5   0 7786.29 752.161   7
  -4  -5   0 5960.37 679.652   1
  -4  -5   0 7243.63 609.414   6
  -4  -5   0 7358.51 862.867   3
   4   5   0 6616.39 1000.82   5
   4   5   1 14368.6 986.060   4
   4   5   1 15577.0 1145.65   1
  -4  -5  -1 16378.9 1159.36   7
  -4  -5  -1 16752.6 1109.71   1
  -4  -5  -1 14723.7 845.250   6
   4   5   1 16115.1 1478.92   5
   4   5   2 49053.7 2024.06   1
  -4  -5  -2 48940.6 2057.58   7
  -4  -5  -2 47639.1 1493.31   6
  -4  -5  -2 50121.6 1930.15   1
   4   5   3 21785.0 1327.59   4
  -4  -5  -3 22402.3 1127.46   2
   4   5   3 24734.8 1469.99   1
  -4  -5  -3 22534.9 1449.35   7
  -4  -5  -3 22230.7 1026.99   6
  -4  -5  -3 24815.6 1361.78   1
   4   5   4 1083.71 359.275   1
  -4  -5  -4 935.226 351.067   7
   4   5   4 1750.17 432.884   4
  -4  -5  -4 1009.17 296.254   1
  -4  -5  -4 1105.35 240.620   2
  -4  -5  -5 5088.26 435.028   2
   4   5   5 6608.89 781.631   4
  -4  -5  -5 6127.68 837.582   7
   4   5   5 6003.24 782.969   1
   4   5   6 44572.4 2060.72   4
  -4  -5  -6 48241.5 2346.45   7
  -4  -5  -6 43095.1 1916.47   3
   4   5   6 47569.9 2211.20   1
  -4  -5  -7 5853.22 869.445   7
  -4  -5  -7 4446.16 659.138   3
   4   5   7 5517.93 810.334   1
   4   5   8 140.337 271.754   1
  -4  -5  -8 245.960 318.585   7
  -4  -5  -8 42.8219 197.941   3
   4   5   9 6873.89 449.743   2
  -4  -5  -9 6260.63 967.352   7
   4   5   9 7497.51 1042.07   1
   4   5  10 9251.45 550.608   2
  -4  -5 -10 9111.99 1205.82   7
   4   5  10 10243.2 1256.88   1
   4   5  11 2060.48 645.306   1
  -4  -5 -11 1996.00 628.362   7
   4   5  12 6841.20 1123.57   1
  -4  -5 -12 5300.01 965.152   7
  -4  -5 -13-213.817 384.274   7
   4   5  13-979.158 498.770   1
  -4  -5 -13-83.4852 336.702   6
  -4  -5 -14 1531.56 611.001   7
  -4  -5 -14 1853.55 659.413   6
   4   6  -9 353.381 451.323   6
   4   6  -8 1785.37 609.113   6
   4   6  -8 3797.30 1037.25   5
  -4  -6   7 459.127 432.444   3
   4   6  -7-869.247 429.556   6
   4   6  -7 438.477 528.762   5
  -4  -6   6 1225.55 512.863   3
   4   6  -6 1200.76 488.768   6
   4   6  -6 747.183 527.349   5
   4   6  -5-302.715 448.578   5
  -4  -6   5-54.1871 399.432   3
   4   6  -5 145.667 209.744   6
  -4  -6   4 27404.2 1690.21   1
   4   6  -4 28623.3 1860.13   6
  -4  -6   4 35124.1 2278.06   3
   4   6  -4 33576.7 2621.75   5
  -4  -6   3 7369.12 851.773   1
  -4  -6   3 7209.69 573.258   7
   4   6  -3 7561.45 905.732   6
  -4  -6   3 5874.37 702.932   6
  -4  -6   3 7746.32 1052.55   3
   4   6  -3 8221.47 1314.79   5
   4   6  -2 548.342 499.541   5
  -4  -6   2 834.063 418.946   3
  -4  -6   2 717.952 245.670   7
  -4  -6   2 947.295 301.313   6
  -4  -6   2 268.692 172.301   1
   4   6  -1 4328.32 907.393   5
   4   6  -1 4442.13 463.340   4
  -4  -6   1 4427.08 558.208   7
  -4  -6   1 4794.76 624.043   1
  -4  -6   1 4746.13 592.630   6
  -4  -6   1 5787.30 844.048   3
   4   6   0 19021.7 1286.78   1
   4   6   0 15123.0 1021.23   4
  -4  -6   0 19855.7 1446.01   2
  -4  -6   0 17558.9 1162.01   7
  -4  -6   0 16903.1 1119.28   1
  -4  -6   0 17396.6 1086.50   6
  -4  -6   0 17696.3 1431.01   3
   4   6   0 14522.6 1570.81   5
  -4  -6  -1-44.8102 121.845   1
   4   6   1 356.829 340.680   5
   4   6   1-151.089 235.558   1
  -4  -6  -1 206.071 251.784   7
  -4  -6  -1-292.310 239.073   2
  -4  -6  -1-18.1347 144.467   6
   4   6   2 9364.17 888.025   1
  -4  -6  -2 9745.42 900.448   2
  -4  -6  -2 8097.85 879.704   7
  -4  -6  -2 7675.67 707.716   6
  -4  -6  -2 9870.70 844.823   1
   4   6   2 7075.30 1002.05   5
   4   6   3 612.620 347.820   5
  -4  -6  -3 1208.16 315.395   4
   4   6   3 659.835 285.800   4
   4   6   3 1755.88 410.640   1
  -4  -6  -3 1494.11 421.449   7
  -4  -6  -3 1309.96 323.687   1
  -4  -6  -3 1167.22 283.041   6
  -4  -6  -4 22153.1 1386.35   4
   4   6   4 19593.0 1392.18   4
   4   6   4 23793.8 1472.99   1
  -4  -6  -4 22414.5 1563.95   7
  -4  -6  -4 20803.4 1166.06   6
   4   6   5 3834.80 637.691   1
   4   6   5 4715.58 723.774   4
  -4  -6  -5 4595.40 696.549   4
  -4  -6  -5 4197.94 465.745   2
  -4  -6  -5 3558.94 674.952   7
  -4  -6  -6 11051.0 1191.75   7
  -4  -6  -6 7664.67 927.382   4
  -4  -6  -6 9451.27 642.608   2
   4   6   6 6994.58 877.026   1
  -4  -6  -6 8979.79 924.426   3
  -4  -6  -7 18586.6 1482.29   4
  -4  -6  -7 20795.1 1669.98   7
   4   6   7 20916.7 1532.06   1
  -4  -6  -8 19650.9 1604.90   4
  -4  -6  -8 20428.7 1698.17   7
   4   6   8 20671.9 1628.33   1
   4   6   9 39.5771 271.237   1
   4   6   9 107.920 112.271   2
  -4  -6  -9 250.591 297.417   7
  -4  -6 -10 1304.54 516.139   7
   4   6  10 1315.99 290.113   2
   4   6  10 2112.01 615.672   1
  -4  -6 -11 623.258 391.791   7
   4   6  11 885.401 425.351   1
   4   6  12 1793.75 609.723   1
  -4  -6 -12 3493.64 798.234   7
   4   6  13 105.563 384.344   1
  -4  -6 -13-85.3200 220.778   7
  -4  -6 -14 1868.61 652.011   6
   4   7  -8-393.350 329.775   6
   4   7  -7 764.950 394.012   6
  -4  -7   6 7234.08 1197.03   3
   4   7  -6 5693.85 1006.84   6
   4   7  -6 8508.40 1488.06   5
  -4  -7   5 2294.26 706.971   3
   4   7  -5 2708.55 672.050   6
   4   7  -5 2563.34 830.261   5
   4   7  -4 3558.03 1001.15   5
  -4  -7   4 4119.67 876.345   3
   4   7  -4 4944.24 851.183   6
   4   7  -3 562.588 391.375   5
  -4  -7   3 866.133 429.899   3
  -4  -7   2 9934.97 780.600   7
  -4  -7   2 9767.95 913.798   1
  -4  -7   2 10333.5 1001.06   6
  -4  -7   2 10725.2 1264.88   3
   4   7  -2 10693.3 1491.49   5
   4   7  -1 1194.80 557.273   5
  -4  -7   1 552.895 332.486   3
  -4  -7   1 1180.71 322.426   1
   4   7  -1 948.614 253.970   4
  -4  -7   1 963.334 313.232   7
  -4  -7   1 804.850 289.741   6
   4   7   0 6027.91 702.724   4
  -4  -7   0 8108.93 841.633   7
  -4  -7   0 7780.68 752.061   1
  -4  -7   0 7563.95 815.204   6
   4   7   0 8647.57 1283.08   5
   4   7   1 128.246 144.206   1
   4   7   1-278.905 386.920   5
  -4  -7  -1 151.910 215.289   4
  -4  -7  -1 358.211 288.141   7
  -4  -7  -1 112.838 128.638   1
  -4  -7  -1 22.8225 164.646   2
  -4  -7  -1-105.903 94.0990   6
   4   7   2 5627.86 989.461   5
  -4  -7  -2 6324.05 709.917   4
   4   7   2 5587.54 791.749   4
   4   7   2 6915.47 769.169   1
  -4  -7  -2 6687.06 810.060   2
  -4  -7  -2 6581.85 815.396   7
  -4  -7  -2 5965.10 700.390   6
  -4  -7  -2 6311.82 659.721   1
   4   7   3 372.486 318.207   5
   4   7   3 662.934 259.184   1
  -4  -7  -3 174.356 192.282   4
   4   7   3-170.006 194.995   4
  -4  -7  -3 175.324 239.304   7
  -4  -7  -3 181.514 156.230   6
  -4  -7  -3 640.324 232.386   2
  -4  -7  -4 12409.9 1082.19   4
   4   7   4 10080.4 1084.75   4
   4   7   4 12617.9 1073.21   1
  -4  -7  -4 13270.1 997.219   2
  -4  -7  -4 11337.6 963.637   6
   4   7   4 11063.8 1241.78   5
  -4  -7  -4 13248.8 1239.25   7
  -4  -7  -5 20322.9 1449.16   4
  -4  -7  -5 20611.3 1602.56   7
   4   7   5 21311.4 1440.57   1
  -4  -7  -5 18370.7 1088.56   2
   4   7   5 17758.0 1517.42   5
  -4  -7  -6 19561.9 1487.70   4
  -4  -7  -6 19965.6 1627.39   7
   4   7   6 18483.9 1398.43   1
  -4  -7  -7 1131.36 455.223   4
   4   7   7 646.436 326.538   1
  -4  -7  -7 890.278 451.546   7
  -4  -7  -8 12960.2 1326.06   4
  -4  -7  -8 14659.9 1507.47   7
   4   7   8 13255.9 1295.73   1
   4   7   9 900.279 383.045   1
  -4  -7  -9 409.697 366.140   4
   4   7   9 411.993 199.001   2
  -4  -7  -9 544.819 382.122   7
  -4  -7 -10 817.529 402.199   4
   4   7  10 2013.76 585.911   1
  -4  -7 -10 1108.96 457.548   7
   4   7  11 46.2494 218.749   1
  -4  -7 -11 133.225 278.915   7
  -4  -7 -12 5162.69 1005.30   7
   4   7  12 6974.47 1177.39   1
   4   7  13 64.2392 272.776   1
   4   8  -7 1078.49 501.091   6
   4   8  -6 303.550 278.536   6
  -4  -8   5-198.862 333.828   3
   4   8  -5 514.361 529.057   5
  -4  -8   4 4046.61 879.046   3
   4   8  -4 5235.29 1204.51   5
   4   8  -3 2422.68 829.056   5
  -4  -8   3 2706.74 771.138   3
  -4  -8   2 14196.6 1570.03   3
   4   8  -2 12039.2 1652.31   5
   4   8  -1 2899.49 791.960   5
  -4  -8   1 2435.98 452.482   7
   4   8   0 1371.39 495.243   5
  -4  -8   0 752.305 455.060   3
  -4  -8   0 1319.20 368.550   7
   4   8   1 356.983 297.819   5
  -4  -8  -1 118.294 159.337   4
   4   8   1 386.699 204.044   4
  -4  -8  -1 191.434 244.407   7
  -4  -8  -1-87.9728 111.833   6
  -4  -8  -2 14647.6 1103.08   4
   4   8   2 15851.0 1137.98   1
   4   8   2 11993.0 1231.42   4
  -4  -8  -2 14607.5 1255.10   7
  -4  -8  -2 14972.9 1232.02   6
   4   8   2 17687.7 1788.97   5
   4   8   3 446.752 332.930   5
   4   8   3 87.2561 210.394   1
  -4  -8  -3 11.8421 202.061   4
   4   8   3 352.507 249.543   4
  -4  -8  -3 117.128 271.950   7
  -4  -8  -3 109.854 163.412   6
  -4  -8  -3-133.517 179.497   2
   4   8   4 3649.85 791.978   5
  -4  -8  -4 4028.61 665.781   4
   4   8   4 2822.94 507.509   1
  -4  -8  -4 4379.82 764.367   7
  -4  -8  -4 2953.60 568.005   6
  -4  -8  -4 3489.83 563.968   2
   4   8   5-186.286 235.353   5
  -4  -8  -5-112.936 253.766   4
  -4  -8  -5-127.564 320.924   7
  -4  -8  -5-163.920 161.908   6
   4   8   5 155.527 182.199   1
  -4  -8  -5 97.1989 117.777   2
  -4  -8  -6 9497.77 1094.52   4
  -4  -8  -6 8638.13 1128.79   7
   4   8   6 7652.94 897.493   1
  -4  -8  -6 7130.69 723.611   2
   4   8   6 9111.04 1107.67   5
   4   8   7-254.346 238.981   5
  -4  -8  -7 1309.00 300.173   2
   4   8   7 739.419 316.005   1
  -4  -8  -7 519.864 327.356   4
  -4  -8  -7 1057.30 542.058   7
  -4  -8  -8 5775.10 946.188   4
   4   8   8 5970.49 863.471   1
  -4  -8  -8 6018.28 1001.59   7
   4   8   8 6104.28 808.034   5
  -4  -8  -9 393.186 406.191   4
  -4  -8  -9 835.819 482.516   7
   4   8   9 496.924 295.241   1
  -4  -8 -10 5386.32 985.712   4
  -4  -8 -10 6241.92 1108.09   7
   4   8  10 6377.84 1010.34   1
  -4  -8 -11 108.256 311.275   4
   4   8  11-497.139 363.461   1
  -4  -8 -11 613.559 359.658   7
   4   8  12 3941.27 921.011   1
   4   8  13 793.144 445.578   1
  -4  -9   3 905.364 455.979   3
   4   9  -3 1012.78 649.903   5
  -4  -9   2 1854.46 623.411   3
   4   9  -2 1340.22 627.078   5
   4   9  -1 1608.60 699.811   5
  -4  -9   1 2196.48 691.323   3
  -4  -9   0 9362.77 957.282   7
  -4  -9   0 7726.16 1191.28   3
   4   9   0 9792.85 1500.47   5
   4   9   1 3821.91 928.698   5
  -4  -9  -1 5097.31 648.689   4
  -4  -9  -1 4495.18 912.410   3
  -4  -9  -1 4093.89 677.403   7
   4   9   2 2444.27 750.117   5
  -4  -9  -2 1494.83 399.996   4
  -4  -9  -2 1359.28 426.376   7
   4   9   3 293.951 417.078   5
   4   9   3 490.128 211.660   1
  -4  -9  -3-13.0486 224.355   4
  -4  -9  -3 79.5640 234.205   7
   4   9   4 5202.10 966.213   5
  -4  -9  -4 5551.93 805.668   4
   4   9   4 6270.66 726.299   1
  -4  -9  -4 5012.78 855.593   7
   4   9   5 326.400 318.821   5
  -4  -9  -5 195.572 301.251   4
   4   9   5 302.378 198.266   1
  -4  -9  -5 26.0284 242.385   7
   4   9   6 2967.57 689.023   5
  -4  -9  -6 3519.00 699.809   4
  -4  -9  -6 3488.50 770.203   7
   4   9   6 3213.26 577.148   1
   4   9   7 942.148 344.059   1
   4   9   7 1506.88 469.753   5
  -4  -9  -7 1296.00 495.816   4
  -4  -9  -7 1761.39 614.559   7
   4   9   8 5053.09 768.128   5
   4   9   8 5546.11 833.588   1
  -4  -9  -8 4293.60 868.163   4
  -4  -9  -8 7476.23 1162.92   7
   4   9   9 582.886 287.277   5
  -4  -9  -9-173.549 296.166   4
  -4  -9  -9 94.3143 359.871   7
  -4  -9 -10 786.622 423.368   4
  -4  -9 -10 745.443 544.336   7
   4   9  10 523.324 300.620   1
   4   9  11 1546.64 552.235   1
   4   9  12 1945.58 588.398   1
   4   9  13 78.7335 230.394   1
  -4 -10   1 788.228 468.255   3
   4  10  -1 1195.96 619.501   5
  -4 -10   0 2060.18 744.602   3
   4  10   0 621.760 425.850   5
   4  10   1 1632.09 692.907   5
  -4 -10  -1 2268.03 663.780   3
  -4 -10  -1 570.556 299.778   7
   4  10   2 2878.94 770.726   5
  -4 -10  -2 3847.97 646.575   4
  -4 -10  -2 2500.54 589.503   7
   4  10   3 621.634 455.841   5
  -4 -10  -3 458.729 303.474   4
  -4 -10  -3 674.951 399.686   7
   4  10   4 3871.24 871.354   5
  -4 -10  -4 3991.17 719.206   4
  -4 -10  -4 4244.41 824.943   7
   4  10   5 1456.72 537.215   5
  -4 -10  -5 1538.20 513.778   4
  -4 -10  -5 1443.31 534.123   7
   4  10   6 2384.13 614.016   5
  -4 -10  -6 2563.92 641.176   4
  -4 -10  -6 3599.27 803.854   7
   4  10   7 1017.27 404.793   5
  -4 -10  -7 1081.74 465.081   4
  -4 -10  -7 1132.78 550.723   7
  -4 -10  -8 1368.86 527.791   4
  -4 -10  -8 1710.72 635.946   7
  -4 -10  -9-142.400 290.672   4
   4  11   1 1429.98 623.884   5
   4  11   2 1660.46 609.657   5
   4  11   3 338.814 264.566   5
  -4 -11  -3 1223.91 457.121   7
   4  11   4 1210.88 527.574   5
  -4 -11  -4 2125.00 589.472   4
  -4 -11  -4 1534.48 566.174   7
   4  11   5 630.403 390.536   5
  -4 -11  -5 1106.18 472.263   4
  -4 -11  -5 1433.97 533.827   7
   4  11   6 1534.85 521.951   5
  -4 -11  -6 1279.77 517.161   4
  -4 -11  -6 1575.02 545.129   7
  -4 -11  -7 444.614 346.890   4
  -4 -11  -7 418.451 398.729   7
   4  12   4 1264.07 511.097   5
  -5   9   1 904.574 474.024   2
  -5   9   0 1375.11 600.724   2
  -5   9  -1 7720.89 1364.10   2
  -5   9  -2 586.923 420.324   2
  -5   9  -3 355.800 324.157   2
   5  -8  -5 1518.49 563.931   4
  -5   8   5 2003.25 779.942   2
   5  -8  -4 163.129 231.627   4
  -5   8   4-640.357 398.933   2
  -5   8   3 4835.85 1057.24   2
   5  -8  -3 5984.98 1080.80   4
   5  -8  -2 916.749 513.953   4
  -5   8   2 1946.47 649.280   2
   5  -8  -1 8174.09 1284.34   4
  -5   8   1 6043.93 1170.33   2
   5  -8   0 1710.14 601.544   4
  -5   8   0 1404.83 598.756   2
   5  -8   1-124.330 374.999   4
  -5   8  -1 708.717 339.246   2
   5  -8   2-132.838 278.064   4
  -5   8  -2-540.588 381.651   2
   5  -8   3 6010.66 1144.93   4
  -5   8  -3 3813.87 887.868   2
  -5   8  -4-471.800 300.544   2
   5  -8   4-285.241 375.546   4
   5  -8   5 3239.54 865.150   4
   5  -8   6 669.703 499.743   4
   5  -7  -8 1015.45 459.918   4
   5  -7  -7 1060.13 438.529   4
   5  -7  -6 233.823 394.555   4
  -5   7   6-523.842 384.941   2
   5  -7  -5 10776.8 1371.79   4
  -5   7   5 10630.4 1514.02   2
   5  -7  -4 49.2730 388.633   4
  -5   7   4 191.794 351.008   2
   5  -7  -3 12720.5 1485.06   4
  -5   7   3 11959.7 1578.30   2
   5  -7  -2 576.635 441.269   4
  -5   7   2-98.4443 314.472   2
  -5   7   1 1150.11 560.431   2
   5  -7  -1 512.810 464.448   4
   5  -7   0 215.482 375.551   4
  -5   7   0 533.476 393.493   2
   5  -7   0-109.792 223.386   1
  -5   7  -1 20538.4 1929.66   2
   5  -7   1 20973.3 1444.05   1
   5  -7   1 25840.3 2179.46   4
   5  -7   2 529.322 223.548   1
   5  -7   2 470.197 276.886   3
   5  -7   2 574.817 430.947   4
  -5   7  -2 710.637 429.568   2
   5  -7   3 12678.2 1154.30   1
   5  -7   3 14098.2 1665.83   4
  -5   7  -3 10037.2 1349.67   2
   5  -7   3 11390.5 1097.82   3
   5  -7   4-514.224 312.093   3
   5  -7   4-89.6621 224.025   1
  -5   7  -4 35.9171 303.536   2
   5  -7   4-289.349 512.440   4
  -5   7  -4 336.454 345.949   7
  -5   7  -5 2245.35 614.385   7
   5  -7   5 3002.37 568.216   1
   5  -7   5 3542.38 897.547   4
  -5   7  -6-2.18827 257.058   7
   5  -7   6 623.884 486.768   4
   5  -7   7 10216.3 1568.94   4
  -5   7  -7 6339.07 1046.67   7
  -5   7  -8-624.685 372.512   7
   5  -7   8 337.261 485.017   4
   5  -6 -10-434.882 300.989   4
   5  -6  -9 1612.26 593.680   4
   5  -6  -8 502.564 364.001   4
  -5   6   8 472.369 418.966   2
   5  -6  -7 4929.21 891.723   4
  -5   6   7 3714.64 887.616   2
   5  -6  -6 1476.61 542.343   4
  -5   6   6 32.5513 257.016   2
   5  -6  -5 3029.81 698.943   4
  -5   6   5 2659.47 729.725   2
   5  -6  -4 450.425 339.151   4
  -5   6   4 554.905 332.164   2
   5  -6  -3 10806.5 1296.79   4
  -5   6   3 8921.26 1280.03   2
  -5   6   2 2362.21 696.080   2
   5  -6  -2 1718.35 550.792   4
   5  -6  -2 1341.57 375.663   3
   5  -6  -2 2083.69 451.829   5
   5  -6  -1 34767.8 1902.32   1
   5  -6  -1 36953.8 2452.07   4
  -5   6   1 33156.8 2385.34   2
  -5   6   1 31822.1 2028.70   1
   5  -6  -1 29597.2 1512.53   3
   5  -6  -1 31464.9 1792.28   5
   5  -6   0 4737.71 919.028   4
   5  -6   0 3475.85 493.171   3
  -5   6   0 3620.21 672.307   1
  -5   6   0 2871.17 671.937   2
   5  -6   0 4172.88 665.656   1
   5  -6   1 5962.11 798.363   1
   5  -6   1 7747.94 1157.36   4
  -5   6  -1 6264.94 985.904   7
   5  -6   1 4882.56 562.058   3
  -5   6  -1 6615.38 895.723   1
  -5   6  -1 6362.48 1012.03   2
  -5   6  -2 544.462 259.460   1
   5  -6   2-95.7186 251.650   1
   5  -6   2-223.778 201.251   3
  -5   6  -2 31.3624 261.613   7
   5  -6   2 487.303 380.790   4
  -5   6  -2 289.531 293.103   2
   5  -6   3 15722.5 1700.04   4
   5  -6   3 15889.8 1301.74   1
  -5   6  -3 13757.6 1437.37   2
  -5   6  -3 14456.9 1492.96   7
   5  -6   3 16148.3 1165.06   3
  -5   6  -3 16211.0 1359.53   1
   5  -6   4-261.046 221.074   3
   5  -6   4 214.810 216.526   1
   5  -6   4 204.164 348.239   4
  -5   6  -4 262.331 244.592   2
  -5   6  -4 106.337 337.782   7
   5  -6   5 14267.1 1681.07   4
  -5   6  -5 15227.4 1513.68   2
   5  -6   5 15790.3 1374.46   1
  -5   6  -5 11924.6 1393.32   7
   5  -6   5 13670.8 1117.37   3
   5  -6   6 256.504 213.376   3
  -5   6  -6 125.055 259.213   7
   5  -6   6-205.412 394.633   4
   5  -6   6 233.022 259.553   1
  -5   6  -7 5395.37 964.221   7
   5  -6   7 7388.29 1294.98   4
   5  -6   7 5293.00 872.043   1
  -5   6  -8-511.887 301.584   7
   5  -6   8-304.776 297.047   1
  -5   6  -9 10205.5 1332.37   7
   5  -6   9 9186.20 1230.90   1
   5  -6   9 8087.53 1383.57   4
  -5   6  -9 12539.7 1661.85   6
   5  -6  10-1484.56 638.147   4
   5  -5 -10 857.158 417.699   4
   5  -5  -9 2310.15 590.074   4
  -5   5   8 275.886 271.116   2
   5  -5  -8 264.604 265.482   4
  -5   5   7 2103.62 642.117   2
   5  -5  -7 2353.36 606.133   4
  -5   5   6-85.6931 160.123   2
   5  -5  -6 230.517 263.414   4
   5  -5  -5 3354.16 726.842   4
  -5   5   5 4033.38 837.997   2
   5  -5  -4 203.067 288.723   4
  -5   5   4 507.156 382.981   2
   5  -5  -4-88.1658 118.695   3
   5  -5  -3 20618.7 1694.61   4
  -5   5   3 23053.1 1901.83   2
   5  -5  -3 17852.1 1307.26   3
   5  -5  -2 17770.0 1606.82   4
  -5   5   2 16808.0 1588.96   2
   5  -5  -2 15333.3 1124.14   3
  -5   5   1 1698.42 480.419   1
  -5   5   1 1756.76 553.657   7
   5  -5  -1 2039.52 593.183   4
  -5   5   1 1908.39 578.271   2
   5  -5  -1 1907.41 393.371   3
   5  -5  -1 2201.77 517.494   1
   5  -5   0 971.268 362.757   1
  -5   5   0 1179.52 402.106   1
  -5   5   0 1054.14 447.983   7
   5  -5   0 1189.74 497.570   4
   5  -5   0 1251.73 423.414   6
  -5   5   0 1843.07 563.733   2
   5  -5   0 1286.69 296.883   3
   5  -5   0 1163.77 360.081   5
   5  -5   1 13508.5 1208.54   1
   5  -5   1 11176.4 1299.40   4
  -5   5  -1 11762.1 1308.42   7
  -5   5  -1 12321.6 1299.19   2
   5  -5   1 12285.0 794.086   3
  -5   5  -1 12634.8 1214.29   1
   5  -5   2-212.511 183.701   3
   5  -5   2-205.688 273.029   1
  -5   5  -2 45.9649 289.953   7
  -5   5  -2 207.766 253.794   1
   5  -5   2 85.6273 339.417   4
  -5   5  -2-84.6340 223.445   2
   5  -5   2 35.5673 112.267   3
   5  -5   3 34547.5 2391.69   4
   5  -5   3 34378.1 1949.80   1
  -5   5  -3 38102.2 2182.10   2
  -5   5  -3 33326.9 2193.76   7
   5  -5   3 35154.6 1477.11   3
  -5   5  -3 34682.2 1952.30   1
   5  -5   4-141.527 217.853   3
  -5   5  -4 139.555 370.252   7
   5  -5   4 172.249 276.668   4
   5  -5   4-17.5841 277.521   1
  -5   5  -4 167.857 288.100   2
   5  -5   5 5609.62 848.540   1
  -5   5  -5 3724.04 765.138   7
   5  -5   5 5160.98 976.942   4
  -5   5  -5 4283.89 751.782   2
   5  -5   5 4928.77 606.432   3
   5  -5   6 441.586 227.767   3
  -5   5  -6-108.768 320.373   7
   5  -5   6 97.2508 231.307   1
  -5   5  -7 12395.1 1399.50   7
   5  -5   7 12345.4 1302.47   1
   5  -5   7 13520.5 1137.35   3
   5  -5   8 700.531 343.066   3
   5  -5   8 678.629 362.975   1
  -5   5  -8 282.734 279.212   7
  -5   5  -8 11.6503 258.773   6
  -5   5  -9 9866.98 1304.65   7
   5  -5   9 10141.2 1295.32   1
  -5   5  -9 9886.94 1429.91   6
   5  -5  10-38.0759 258.222   1
  -5   5 -10-144.375 348.263   7
   5  -5  11 3574.53 834.525   1
   5  -4 -10-469.561 309.766   4
  -5   4  10 227.739 237.200   3
   5  -4  -9 1931.18 511.399   4
  -5   4   9 1550.72 489.788   3
  -5   4   8 156.509 260.228   2
   5  -4  -8 38.6544 216.221   4
  -5   4   8-22.9467 173.306   3
  -5   4   7 5193.66 887.774   2
   5  -4  -7 5201.91 804.424   4
  -5   4   6 816.561 400.025   2
   5  -4  -6 859.645 243.706   5
   5  -4  -6 1040.07 431.532   4
   5  -4  -5 2268.61 545.113   3
  -5   4   5 1598.99 528.048   2
   5  -4  -5 2039.28 541.393   4
   5  -4  -4 2090.85 474.635   3
  -5   4   4 2024.95 599.939   2
   5  -4  -4 2876.81 603.796   4
   5  -4  -3 3779.09 589.778   3
   5  -4  -3 5278.91 835.396   4
  -5   4   3 3652.96 741.605   2
  -5   4   2 292.842 305.884   7
   5  -4  -2 400.930 311.454   4
   5  -4  -2-123.464 286.626   1
  -5   4   2-6.76489 203.337   2
   5  -4  -2 507.414 209.104   3
   5  -4  -1 27988.6 1745.93   1
   5  -4  -1 28450.5 1941.72   4
  -5   4   1 26567.2 1912.42   7
  -5   4   1 25759.1 1785.37   1
  -5   4   1 24080.6 1739.45   2
   5  -4  -1 23992.0 1205.71   3
   5  -4   0 943.951 365.981   1
  -5   4   0 976.487 368.795   1
  -5   4   0 577.541 338.566   7
   5  -4   0 1054.72 454.284   4
   5  -4   0 549.045 198.731   6
  -5   4   0 1045.99 421.192   2
   5  -4   0 1098.55 239.586   3
   5  -4   1 3991.62 681.959   1
  -5   4  -1 3515.19 730.367   7
   5  -4   1 2900.87 669.523   4
   5  -4   1 3840.81 397.893   3
  -5   4  -1 4061.56 676.154   1
   5  -4   1 3517.24 624.020   6
  -5   4  -1 4189.49 718.249   2
  -5   4  -2 3557.00 651.843   1
   5  -4   2 3452.09 636.580   1
  -5   4  -2 2464.01 621.979   7
   5  -4   2 2843.59 686.037   4
   5  -4   2 2598.88 290.984   3
   5  -4   2 3325.90 598.146   6
  -5   4  -2 3283.40 606.355   2
   5  -4   2 2852.86 351.421   3
  -5   4  -3 3569.38 751.392   7
   5  -4   3 3114.62 625.774   1
   5  -4   3 3928.21 793.122   4
  -5   4  -3 2915.87 565.499   2
   5  -4   3 4181.16 686.847   6
   5  -4   3 3201.83 374.622   3
  -5   4  -3 2882.18 569.661   1
   5  -4   4 746.067 259.771   2
   5  -4   4 481.395 187.779   3
  -5   4  -4 420.619 287.526   7
  -5   4  -4 569.222 266.132   1
  -5   4  -4 181.005 253.474   2
   5  -4   4 501.591 273.624   1
   5  -4   4 184.782 182.217   6
  -5   4  -5 39192.5 2007.56   2
  -5   4  -5 37404.2 2294.32   7
   5  -4   5 37223.2 2099.60   1
   5  -4   5 36015.1 1680.15   2
   5  -4   5 38870.9 1464.23   3
   5  -4   6 3044.19 664.974   1
   5  -4   6 2521.96 446.661   3
  -5   4  -6 2553.34 627.101   7
   5  -4   6 2059.74 416.489   2
   5  -4   7 9229.27 905.512   2
  -5   4  -7 10014.1 1231.33   7
   5  -4   7 10065.7 1184.41   1
  -5   4  -7 10071.6 1240.98   6
   5  -4   7 9536.41 868.760   3
   5  -4   8-216.586 221.896   3
   5  -4   8 111.262 228.736   1
  -5   4  -8-877.214 412.238   7
  -5   4  -8-563.239 358.137   6
   5  -4   9 6667.32 1066.78   1
  -5   4  -9 7136.80 1097.08   7
  -5   4  -9 8548.67 1256.22   6
   5  -4   9 7856.43 913.365   3
  -5   4 -10-1241.97 521.231   7
   5  -4  10-183.097 321.415   1
  -5   4 -10-580.154 372.991   6
  -5   4 -11 1576.74 548.732   7
   5  -4  11 2134.78 682.784   1
  -5   4 -11 2999.57 857.686   6
   5  -4  12-754.544 467.172   1
  -5   3  10-36.5643 200.978   3
   5  -3  -9 2854.09 592.703   4
  -5   3   9 1202.67 434.838   3
   5  -3  -8 1774.83 485.028   4
  -5   3   8 2639.70 600.053   3
   5  -3  -7 5147.91 771.018   4
  -5   3   7 4948.22 748.968   3
   5  -3  -7 5219.06 617.920   5
   5  -3  -6 893.340 276.931   5
   5  -3  -6 621.517 340.834   4
  -5   3   6 270.237 256.663   3
   5  -3  -5 11167.7 1093.94   4
  -5   3   5 10247.2 995.207   3
   5  -3  -5 11187.4 1142.68   3
   5  -3  -4 4560.59 675.534   3
  -5   3   4 4403.79 765.233   2
   5  -3  -4 4422.80 710.433   4
   5  -3  -3 12760.5 1201.51   4
  -5   3   3 10898.2 1180.28   7
  -5   3   3 12981.4 1265.90   2
   5  -3  -3 11632.1 983.649   3
  -5   3   2 1547.76 487.162   2
   5  -3  -2 1782.02 351.023   3
  -5   3   2 2553.22 609.043   7
   5  -3  -2 1385.97 451.680   4
   5  -3  -2 1674.97 503.451   1
   5  -3  -1 6995.84 890.659   1
   5  -3  -1 6333.75 872.527   4
  -5   3   1 6922.77 982.820   7
  -5   3   1 6655.92 907.349   1
  -5   3   1 6878.89 894.581   2
   5  -3  -1 6313.46 575.593   3
   5  -3   0 8167.77 958.604   1
   5  -3   0 6959.63 937.765   4
  -5   3   0 7487.05 1006.94   7
  -5   3   0 8192.01 929.444   2
  -5   3   0 8338.34 976.625   1
   5  -3   0 8383.02 564.846   3
   5  -3   1 6081.62 818.060   1
  -5   3  -1 5567.93 866.826   7
  -5   3  -1 5978.53 783.061   2
   5  -3   1 4994.93 816.016   4
  -5   3  -1 5723.12 784.734   1
   5  -3   1 6223.46 395.752   3
   5  -3   2 2524.68 560.652   1
  -5   3  -2 2781.49 658.845   7
   5  -3   2 2720.15 212.179   3
   5  -3   2 2943.82 223.867   3
  -5   3  -2 2855.44 521.685   2
  -5   3  -2 3441.87 605.688   1
   5  -3   3 29903.8 1813.00   1
  -5   3  -3 28543.2 1557.25   2
   5  -3   3 27817.3 610.174   3
   5  -3   3 28960.7 1599.61   6
   5  -3   3 29067.8 720.156   3
  -5   3  -3 30248.4 1822.31   1
  -5   3  -3 28953.8 1925.68   7
  -5   3  -4 2283.28 585.887   7
  -5   3  -4 2104.91 451.590   2
   5  -3   4 2550.07 268.909   3
   5  -3   4 3185.47 554.084   6
   5  -3   4 2470.98 581.625   1
  -5   3  -4 3366.57 604.259   1
  -5   3  -5 12646.5 1017.92   2
   5  -3   5 13187.6 1264.04   1
  -5   3  -5 11413.1 1257.72   7
   5  -3   5 12110.1 871.880   2
   5  -3   5 13524.5 1150.95   6
   5  -3   5 11848.7 672.143   3
   5  -3   6-123.980 239.545   1
  -5   3  -6-184.401 274.100   7
  -5   3  -6 208.676 313.005   6
   5  -3   6 247.424 150.454   6
   5  -3   6-53.7709 160.306   3
   5  -3   6 114.848 118.149   2
   5  -3   7 11107.8 879.513   2
  -5   3  -7 10012.0 1222.40   7
   5  -3   7 10840.3 1230.13   1
  -5   3  -7 10487.1 1168.90   6
   5  -3   7 12570.4 891.299   3
   5  -3   8-101.717 272.496   1
  -5   3  -8-188.290 290.531   7
  -5   3  -8 234.277 275.958   6
   5  -3   8-224.861 148.529   2
   5  -3   8 3.94019 194.598   3
  -5   3  -9 7989.51 1137.47   7
   5  -3   9 7453.25 1091.68   1
  -5   3  -9 7855.75 1135.79   6
   5  -3   9 8473.91 902.586   3
  -5   3 -10 497.657 344.221   7
  -5   3 -10 331.754 324.816   6
   5  -3  10 124.285 254.811   1
   5  -3  10 164.285 269.672   3
  -5   3 -11 5163.20 958.182   7
  -5   3 -11 5509.16 1096.32   6
   5  -3  11 6054.61 1088.94   1
  -5   3 -12 203.019 249.135   7
  -5   3 -12-89.4874 460.252   6
   5  -3  12-880.801 564.627   1
   5  -2 -11 1767.00 605.473   6
  -5   2  10 920.797 472.647   3
   5  -2  -9 2440.85 527.284   4
  -5   2   9 2536.48 632.122   3
   5  -2  -8 146.015 203.018   5
   5  -2  -8 244.167 205.694   4
  -5   2   8 380.763 284.982   3
   5  -2  -7 8797.78 936.185   4
  -5   2   7 9772.37 1045.88   3
   5  -2  -7 9645.11 918.594   5
   5  -2  -6 2257.32 454.215   5
   5  -2  -6 2267.19 480.316   4
  -5   2   6 3516.90 620.163   3
   5  -2  -5 2363.18 475.118   5
   5  -2  -5 2528.25 541.614   3
   5  -2  -5 2772.59 535.896   4
  -5   2   5 3211.00 556.729   3
   5  -2  -4 799.680 288.571   3
  -5   2   4 1144.11 459.571   7
   5  -2  -4 823.466 319.842   4
  -5   2   4 758.213 261.613   3
   5  -2  -3 18486.3 1538.75   7
   5  -2  -3 17180.4 1317.38   4
  -5   2   3 19174.4 1514.15   7
  -5   2   3 16462.7 1054.35   3
   5  -2  -3 16235.8 1112.19   3
   5  -2  -2 154.808 121.487   3
  -5   2   2 212.812 289.866   7
   5  -2  -2-39.4648 253.642   4
   5  -2  -2-281.470 208.126   7
   5  -2  -2 33.5238 259.260   1
   5  -2  -1 66440.1 2683.69   1
   5  -2  -1 63150.2 2577.93   4
  -5   2   1 65578.3 2779.19   7
   5  -2  -1 68418.7 2834.78   7
  -5   2   1 68980.1 2796.43   1
   5  -2  -1 64852.0 1667.39   3
  -5   2   0 2355.82 534.067   1
   5  -2   0 2358.17 555.263   1
  -5   2   0 2465.59 587.570   7
   5  -2   0 2046.68 499.264   7
   5  -2   0 1887.42 479.237   4
   5  -2   0 1536.28 339.050   6
   5  -2   0 2011.75 232.776   3
  -5   2   0 2031.22 476.258   2
   5  -2   1 22887.2 1546.32   1
  -5   2  -1 21741.2 1601.83   7
   5  -2   1 25279.9 1696.31   7
  -5   2  -1 22813.3 1363.82   2
  -5   2  -1 23464.0 1582.60   1
   5  -2   1 21698.4 1200.64   6
  -5   2  -2 55.4910 258.384   7
   5  -2   2 35.9860 261.257   1
   5  -2   2-10.3062 258.048   7
   5  -2   2 178.940 145.546   6
  -5   2  -2-104.709 229.941   1
  -5   2  -2 164.593 156.230   2
  -5   2  -3 124.448 182.500   1
  -5   2  -3 639.940 322.781   7
   5  -2   3 152.849 149.464   7
   5  -2   3 245.219 273.910   1
   5  -2   3 292.634 184.460   6
  -5   2  -3 261.715 204.567   2
  -5   2  -4 2238.11 517.466   1
  -5   2  -4 3097.82 455.270   2
  -5   2  -4 3823.53 722.789   7
   5  -2   4 2854.45 598.109   1
  -5   2  -5 9435.49 771.834   2
  -5   2  -5 8651.20 1068.04   7
   5  -2   5 9075.19 1058.01   1
   5  -2   5 9142.60 414.041   3
  -5   2  -5 9986.07 932.449   6
   5  -2   5 9107.45 841.415   6
  -5   2  -5 10493.8 1077.33   1
   5  -2   6-38.3584 88.7802   2
   5  -2   6 30.1279 281.127   1
  -5   2  -6 234.426 250.553   7
  -5   2  -6 44.1835 192.932   6
   5  -2   6 374.932 225.374   6
   5  -2   6-68.7613 150.419   3
  -5   2  -7 23185.7 1779.51   7
   5  -2   7 22706.1 1092.94   2
   5  -2   7 21705.9 1697.58   1
  -5   2  -7 23277.7 1625.55   6
   5  -2   7 24516.0 1109.07   3
   5  -2   7 23685.9 1454.92   6
  -5   2  -8 2138.09 615.972   7
   5  -2   8 2646.35 644.540   1
  -5   2  -8 1455.25 473.805   6
   5  -2   8 2110.54 356.478   2
   5  -2   8 2229.92 405.515   3
  -5   2  -9 32341.3 2222.94   7
   5  -2   9 31636.8 2202.19   1
   5  -2   9 31178.2 1562.37   3
  -5   2  -9 27988.6 2042.78   6
  -5   2 -10 323.407 315.471   7
  -5   2 -10-261.284 298.710   6
   5  -2  10 21.1431 184.584   3
   5  -2  10 379.785 287.067   1
   5  -2  11 3346.06 810.517   1
  -5   2 -11 1913.94 608.710   7
  -5   2 -11 2435.77 710.509   6
   5  -2  11 1889.05 487.734   3
  -5   2 -12 305.277 199.583   7
  -5   2 -12-312.903 369.337   6
  -5   2 -13 1507.00 667.601   6
   5  -1 -11 664.803 504.836   6
   5  -1 -10 388.630 303.548   6
  -5   1  10 738.714 393.990   3
   5  -1  -9 2929.53 740.410   6
  -5   1   9 4640.53 822.718   3
   5  -1  -9 4129.60 670.019   5
   5  -1  -8 382.534 233.984   5
   5  -1  -8 483.445 245.136   4
   5  -1  -8 115.734 273.520   6
  -5   1   8 443.773 313.150   3
   5  -1  -7 2026.83 463.410   5
   5  -1  -7 2834.65 501.959   4
  -5   1   7 2706.40 586.627   3
   5  -1  -6 10403.6 920.460   4
   5  -1  -6 11318.9 1203.61   7
  -5   1   6 11981.3 1109.30   3
   5  -1  -6 11108.0 1047.37   5
   5  -1  -5 27269.6 1490.10   4
   5  -1  -5 30560.3 1906.23   7
  -5   1   5 30381.7 1658.72   3
   5  -1  -5 26753.8 1717.86   3
   5  -1  -5 27365.9 1594.67   5
   5  -1  -4 10663.3 930.299   4
  -5   1   4 8479.10 958.965   7
   5  -1  -4 10438.5 1104.24   7
  -5   1   4 9969.32 898.300   3
   5  -1  -4 9892.26 960.054   3
   5  -1  -3 20031.4 1301.50   4
  -5   1   3 21181.9 1518.93   7
  -5   1   3 21285.4 1188.63   3
   5  -1  -3 20886.7 1261.27   3
   5  -1  -3 23015.3 1601.52   7
   5  -1  -2 2207.58 360.076   3
  -5   1   2 2070.13 520.476   7
   5  -1  -2 2657.04 503.853   4
   5  -1  -2 1738.00 435.985   7
  -5   1   2 1831.31 492.820   1
  -5   1   2 2019.03 346.356   3
   5  -1  -2 2394.74 559.529   1
   5  -1  -1 11155.1 1116.28   1
   5  -1  -1 10284.7 991.456   4
  -5   1   1 12502.8 1162.48   7
   5  -1  -1 11432.4 1103.30   7
  -5   1   1 10596.3 1090.61   1
  -5   1   1 9945.66 623.769   3
   5  -1  -1 9965.04 643.939   3
  -5   1   0 488.228 276.280   1
  -5   1   0 762.270 292.165   2
   5  -1   0 1165.18 176.298   3
   5  -1   0 951.834 387.602   1
  -5   1   0 1085.12 433.073   7
   5  -1   0 1122.66 393.166   7
   5  -1   0 570.991 185.858   6
   5  -1   1 27839.1 1706.31   1
   5  -1   1 28407.2 1725.10   7
  -5   1  -1 25817.8 1687.91   7
  -5   1  -1 26896.2 1373.09   2
  -5   1  -1 29220.3 1723.21   1
   5  -1   1 26241.7 1108.57   6
  -5   1  -2 1905.32 517.446   7
   5  -1   2 2045.16 521.436   1
   5  -1   2 2096.30 470.953   7
  -5   1  -2 2263.22 515.422   1
   5  -1   2 2231.72 324.535   6
  -5   1  -2 2135.22 378.555   2
   5  -1   3 36773.6 1985.88   1
  -5   1  -3 37359.2 2039.44   7
   5  -1   3 36691.1 1950.54   7
  -5   1  -3 37356.8 1415.43   2
   5  -1   3 36909.7 1330.23   6
  -5   1  -3 39559.6 2025.38   1
  -5   1  -4 58.6152 229.858   7
   5  -1   4 329.386 243.460   7
  -5   1  -4 74.0694 113.585   2
   5  -1   4 74.1209 122.666   6
   5  -1   4-59.4449 247.211   1
  -5   1  -4 107.542 182.613   1
  -5   1  -5 8731.81 629.650   2
  -5   1  -5 7957.43 986.386   7
   5  -1   5 8745.60 976.101   7
   5  -1   5 7991.51 990.983   1
  -5   1  -5 6434.89 682.495   6
   5  -1   5 6972.40 645.353   6
  -5   1  -5 7889.86 929.545   1
   5  -1   6 3384.95 685.937   1
  -5   1  -6 5045.27 804.072   7
   5  -1   6 3880.38 327.583   3
  -5   1  -6 4426.19 621.646   6
   5  -1   7 23142.6 975.188   3
  -5   1  -7 22749.1 1735.25   7
   5  -1   7 22652.6 879.096   2
   5  -1   7 21117.6 1660.88   1
  -5   1  -7 20432.3 1425.72   6
  -5   1  -7 20834.9 1009.88   3
  -5   1  -8 58.7840 102.578   3
  -5   1  -8-237.905 373.465   7
   5  -1   8-84.2245 284.175   1
  -5   1  -8-37.0115 206.136   6
   5  -1   8 16.7904 145.843   3
   5  -1   8-67.8449 112.426   2
  -5   1  -9 8634.40 1153.05   7
   5  -1   9 8539.41 774.962   3
  -5   1  -9 8546.86 1077.40   6
   5  -1   9 8837.76 1175.74   1
   5  -1  10-64.6282 351.524   1
  -5   1 -10 304.862 272.268   7
  -5   1 -10 346.735 347.004   6
   5  -1  10 98.3447 200.179   3
  -5   1 -11 12977.4 1488.59   7
   5  -1  11 12284.0 1111.16   3
  -5   1 -11 12964.3 1496.63   6
   5  -1  11 15127.8 1666.28   1
   5  -1  12 93.7203 353.454   1
  -5   1 -12 706.526 391.917   7
  -5   1 -12 519.346 472.740   6
   5  -1  12 405.881 260.902   3
   5  -1  13 2824.65 871.423   1
  -5   1 -13 1687.34 586.705   7
  -5   1 -13 2727.91 821.213   6
   5   0 -11 800.703 562.986   6
   5   0 -10 1802.96 596.522   6
  -5   0  10 1255.26 477.036   3
   5   0  -9 3364.96 796.770   6
  -5   0   9 3976.37 795.019   3
   5   0  -9 3285.00 689.473   5
   5   0  -8 1048.03 405.865   5
   5   0  -8 1185.87 407.863   6
  -5   0   8 938.583 436.598   3
   5   0  -7 10021.7 818.579   4
   5   0  -7 10829.5 1082.03   7
  -5   0   7 10529.4 1138.63   3
   5   0  -7 8349.59 1074.26   6
   5   0  -7 8836.72 1039.63   5
   5   0  -6 2157.22 528.118   5
   5   0  -6 2539.87 434.535   4
   5   0  -6 2599.22 549.253   7
   5   0  -6 2077.27 536.797   6
  -5   0   6 2655.79 580.843   3
   5   0  -5 1032.92 371.201   5
   5   0  -5 1197.38 381.681   3
   5   0  -5 1039.74 361.081   7
   5   0  -5 1393.48 341.350   4
  -5   0   5 1878.34 476.114   3
   5   0  -4 13774.4 965.882   4
   5   0  -4 15164.7 1241.60   7
  -5   0   4 15445.6 1235.46   7
  -5   0   4 13696.8 1073.00   3
   5   0  -4 12220.8 1099.73   3
   5   0  -4 13252.3 1166.96   5
   5   0  -3 9988.82 851.018   4
  -5   0   3 9447.56 983.175   7
   5   0  -3 10094.9 1002.04   7
  -5   0   3 10171.3 868.133   3
   5   0  -3 9403.49 872.254   3
   5   0  -2 91.7967 122.666   3
  -5   0   2 42.5588 270.868   7
   5   0  -2 128.701 163.337   4
   5   0  -2 315.251 218.952   7
  -5   0   2 32.7844 190.147   1
  -5   0   2 42.8452 192.325   3
   5   0  -2-139.363 315.986   1
   5   0  -1 56288.7 2476.38   1
   5   0  -1 55726.7 2112.39   4
  -5   0   1 54979.8 2389.18   7
   5   0  -1 57840.0 2382.22   7
  -5   0   1 57384.5 2475.84   1
  -5   0   1 57912.8 1652.41   3
   5   0  -1 54650.5 1605.63   3
   5   0   0 14166.3 1221.86   1
  -5   0   0 13292.9 1175.72   7
   5   0   0 13136.9 1121.08   7
  -5   0   0 12374.9 1148.01   1
   5   0   0 11744.5 606.117   6
  -5   0   0 12791.2 634.598   3
   5   0   1 62305.8 2509.70   1
  -5   0  -1 60929.0 2492.32   7
   5   0   1 62241.2 2427.50   7
  -5   0  -1 59590.6 2449.45   1
   5   0   1 59581.9 1182.17   6
   5   0   2 22004.7 1516.31   1
  -5   0  -2 21378.6 1492.97   7
   5   0   2 20428.4 1401.79   7
  -5   0  -2 20602.7 1026.42   2
  -5   0  -2 20418.9 1421.58   1
   5   0   2 19539.1 662.487   6
  -5   0  -3 12452.1 1159.65   7
   5   0   3 14321.6 1244.67   1
   5   0   3 14449.3 1196.10   7
  -5   0  -3 12560.0 718.876   2
  -5   0  -3 13368.5 1173.29   1
   5   0   3 13330.3 606.756   6
  -5   0  -4 3005.97 324.173   2
   5   0   4 4435.46 686.345   7
  -5   0  -4 4168.50 704.636   7
  -5   0  -4 3704.34 630.173   1
   5   0   4 2683.31 618.914   1
  -5   0  -5 23170.9 768.002   2
  -5   0  -5 23086.5 1621.44   7
   5   0   5 24050.1 1553.08   7
   5   0   5 22787.2 1626.88   1
  -5   0  -5 22492.4 1113.90   6
  -5   0  -5 20299.6 1464.00   1
  -5   0  -6 359.477 122.411   3
   5   0   6 152.146 276.712   1
  -5   0  -6 349.323 253.448   7
  -5   0  -6 201.928 162.777   6
  -5   0  -7 70.6848 122.208   3
  -5   0  -7 407.361 307.441   7
   5   0   7 221.715 260.763   1
  -5   0  -7 258.468 218.092   6
  -5   0  -8 1263.47 316.484   3
  -5   0  -8 1382.99 472.005   7
  -5   0  -8 771.646 343.063   6
   5   0   8 1178.94 426.557   1
   5   0   8 944.481 254.267   3
  -5   0  -9 26317.1 1963.53   7
   5   0   9 23403.2 663.085   2
   5   0   9 25899.0 1293.77   3
  -5   0  -9 24091.9 1682.29   6
   5   0   9 24427.1 1943.77   1
   5   0  10 126.291 263.260   1
  -5   0 -10 184.874 169.491   3
  -5   0 -10 111.111 303.148   7
  -5   0 -10 35.4173 237.446   6
   5   0  10 340.882 187.452   3
   5   0  11 7421.25 1174.68   1
  -5   0 -11 7068.39 1123.76   7
   5   0  11 7394.44 816.207   3
  -5   0 -11 5619.33 969.662   6
   5   0  12 796.463 465.952   1
  -5   0 -12 1526.43 559.799   7
  -5   0 -12 464.611 269.911   6
   5   0  12 341.617 271.452   3
   5   0  13 1300.35 542.608   1
  -5   0 -13 2125.72 627.145   7
  -5   0 -13 1770.14 670.626   6
   5   0  13 1947.90 517.704   3
  -5   0 -14-1915.83 606.928   7
  -5   0 -14-373.009 480.695   6
   5   1 -11 791.934 460.624   6
   5   1 -10 880.483 480.233   6
  -5  -1  10 931.981 482.312   3
   5   1 -10 1480.73 474.850   5
   5   1  -9 2412.84 691.566   6
  -5  -1   9 2302.95 640.121   3
   5   1  -9 1864.72 562.531   5
   5   1  -8 98.6635 271.639   5
   5   1  -8 232.450 249.138   6
  -5  -1   8-213.842 267.558   3
   5   1  -7 943.044 394.679   5
   5   1  -7 250.813 222.985   6
   5   1  -6 256.566 293.854   5
   5   1  -6-302.350 130.285   4
   5   1  -6 315.330 197.616   7
   5   1  -6 255.544 244.998   6
  -5  -1   6 166.925 219.349   3
   5   1  -5 19991.0 973.444   4
  -5  -1   5 18517.7 1258.05   7
   5   1  -5 18479.1 1299.63   7
  -5  -1   5 20728.2 1460.06   3
   5   1  -5 19139.5 1353.37   6
   5   1  -5 18576.7 1503.66   3
   5   1  -5 20664.9 1600.43   5
   5   1  -4 6956.28 609.241   4
  -5  -1   4 6679.64 786.042   7
   5   1  -4 6300.86 759.036   7
  -5  -1   4 6877.61 810.239   3
   5   1  -4 6236.90 703.292   6
   5   1  -4 6451.68 825.143   3
   5   1  -4 5784.79 851.616   5
   5   1  -3 35664.7 1435.98   4
  -5  -1   3 33751.5 1748.36   7
   5   1  -3 38384.6 1853.79   7
  -5  -1   3 36771.4 1677.51   3
   5   1  -3 37126.9 1480.14   6
   5   1  -3 34052.2 1726.28   3
  -5  -1   2 987.639 302.634   3
   5   1  -2 2395.43 420.827   3
  -5  -1   2 1359.81 433.916   7
   5   1  -2 1606.06 349.701   4
   5   1  -2 1479.61 380.451   7
  -5  -1   2 1593.42 447.114   1
   5   1  -2 1228.23 248.299   6
   5   1  -2 1433.02 435.419   1
   5   1  -1 9777.27 1052.77   1
  -5  -1   1 8716.66 925.364   7
  -5  -1   1 8617.16 977.163   1
   5   1  -1 8380.03 864.301   7
   5   1  -1 9153.72 501.963   6
  -5  -1   1 8754.35 690.451   3
   5   1   0 8758.74 989.069   1
  -5  -1   0 9874.66 983.763   7
   5   1   0 9484.98 925.081   7
  -5  -1   0 10256.9 1028.11   1
  -5  -1   0 9556.76 638.945   3
   5   1   1 18728.2 1401.67   1
  -5  -1  -1 17523.2 1305.19   7
   5   1   1 18513.3 1302.10   7
  -5  -1  -1 19997.2 1409.71   1
  -5  -1  -1 18706.6 732.307   3
   5   1   2 23908.8 1584.08   1
  -5  -1  -2 25031.8 1572.79   7
   5   1   2 23831.7 1487.36   7
  -5  -1  -2 24372.5 1534.03   1
  -5  -1  -2 23951.4 618.278   3
   5   1   3 70052.3 2732.49   1
  -5  -1  -3 74532.8 2729.20   7
   5   1   3 76969.3 2695.02   7
  -5  -1  -3 72643.4 1548.94   2
  -5  -1  -3 72254.0 2675.05   1
  -5  -1  -4 3938.78 285.220   2
  -5  -1  -4 4367.66 683.611   7
   5   1   4 3672.12 613.477   7
  -5  -1  -4 3936.81 229.050   3
  -5  -1  -4 4002.88 658.143   1
   5   1   4 4844.98 766.047   1
  -5  -1  -5 11140.5 1137.21   7
   5   1   5 12295.6 1114.71   7
   5   1   5 9855.45 1080.86   1
  -5  -1  -5 10949.1 688.259   6
  -5  -1  -5 11090.5 546.262   3
  -5  -1  -5 12319.4 1128.99   1
  -5  -1  -6 632.612 175.258   3
   5   1   6 232.376 223.763   1
  -5  -1  -6 512.761 340.867   7
  -5  -1  -6 458.955 207.505   6
  -5  -1  -7 9108.59 1122.25   7
   5   1   7 10177.5 1156.63   1
  -5  -1  -7 10593.7 888.400   6
  -5  -1  -7 10994.5 812.342   3
  -5  -1  -8 3804.35 528.568   3
  -5  -1  -8 4292.97 783.631   7
  -5  -1  -8 4514.17 654.589   6
   5   1   8 4059.70 785.824   1
  -5  -1  -9 7860.63 1076.95   7
  -5  -1  -9 6885.82 874.717   6
   5   1   9 8442.73 1163.53   1
  -5  -1 -10 748.759 332.727   3
   5   1  10 421.853 333.584   1
  -5  -1 -10 1292.52 497.668   7
  -5  -1 -10 743.139 364.745   6
   5   1  10 717.142 304.494   3
  -5  -1 -11 6777.80 1123.31   7
   5   1  11 6788.46 1149.89   1
   5   1  11 6599.04 772.099   3
  -5  -1 -11 6849.23 1031.73   6
   5   1  12 2172.29 665.310   1
  -5  -1 -12 2422.94 701.286   7
  -5  -1 -12 1625.04 576.971   6
   5   1  12 2555.52 522.675   3
  -5  -1 -13 3056.88 789.228   7
   5   1  13 4358.64 999.107   1
  -5  -1 -13 3561.87 853.072   6
   5   1  13 3091.43 619.073   3
  -5  -1 -14 243.589 233.444   7
  -5  -1 -14 343.536 400.900   6
   5   1  14 875.638 359.488   3
  -5  -1 -15-225.346 400.642   7
   5   2 -11-477.353 376.178   6
   5   2 -10-275.772 323.611   6
   5   2 -10 428.943 457.709   5
   5   2  -9 1611.64 538.904   6
  -5  -2   9 1933.10 625.583   3
   5   2  -9 1729.12 573.305   5
   5   2  -8 331.221 331.454   5
   5   2  -8 270.201 219.110   6
  -5  -2   8 198.996 262.723   3
   5   2  -7 9919.03 1168.65   6
  -5  -2   7 11108.6 1248.09   3
   5   2  -7 9363.86 1238.99   5
  -5  -2   6 846.184 385.288   3
   5   2  -6 935.947 420.222   5
   5   2  -6 519.157 257.498   6
  -5  -2   5 2227.63 538.049   3
   5   2  -5 2434.27 638.559   5
  -5  -2   5 2027.30 407.735   7
   5   2  -5 1466.20 376.228   6
  -5  -2   4-162.843 296.148   3
   5   2  -4-96.9055 340.310   5
   5   2  -4 256.686 124.334   4
  -5  -2   4 123.610 199.971   7
   5   2  -4-31.8611 165.700   6
  -5  -2   3 3206.16 556.089   3
   5   2  -3 4584.19 821.792   5
   5   2  -3 3494.47 397.608   4
  -5  -2   3 4229.10 618.358   7
   5   2  -3 3991.65 577.520   7
   5   2  -3 3905.30 499.195   6
   5   2  -2 14011.9 1267.93   1
   5   2  -2 12671.5 824.654   4
  -5  -2   2 14276.0 1257.45   1
  -5  -2   2 12992.1 1082.98   7
   5   2  -2 14074.6 1086.83   7
   5   2  -2 13224.1 757.774   6
  -5  -2   2 14038.3 1043.45   3
   5   2  -1 68938.4 2753.03   1
  -5  -2   1 65483.4 2423.92   7
  -5  -2   1 70070.8 2715.70   1
   5   2  -1 69135.8 2436.68   7
   5   2  -1 63289.3 1269.69   6
  -5  -2   1 67602.1 2055.59   3
  -5  -2   0 973.478 344.142   1
  -5  -2   0 646.857 221.433   3
   5   2   0 632.627 340.015   1
  -5  -2   0 545.725 297.011   7
   5   2   0 458.474 251.116   7
   5   2   1 21318.3 1498.74   1
  -5  -2  -1 18591.8 1309.51   7
   5   2   1 19979.4 1316.87   7
  -5  -2  -1 19717.6 1399.46   1
  -5  -2  -1 17776.5 881.810   3
  -5  -2  -2 4476.30 682.232   7
   5   2   2 3363.24 628.635   1
   5   2   2 3752.52 593.353   7
  -5  -2  -2 3665.00 626.461   1
  -5  -2  -2 3926.46 394.126   3
   5   2   3 31125.6 1838.39   1
   5   2   3 31341.0 1696.17   7
  -5  -2  -3 28562.5 1707.38   7
  -5  -2  -3 27764.9 1656.76   1
  -5  -2  -3 27761.1 970.693   3
   5   2   4-91.9290 168.832   4
  -5  -2  -4-35.1352 289.253   7
   5   2   4-294.668 263.969   7
  -5  -2  -4 48.7448 106.146   3
  -5  -2  -4 27.6901 143.184   1
  -5  -2  -4 36.1971 48.1278   2
   5   2   4 51.9212 264.019   1
   5   2   5 30300.1 1644.86   4
  -5  -2  -5 29473.8 1841.54   7
   5   2   5 33686.8 1813.47   7
   5   2   5 31112.8 1904.66   1
  -5  -2  -5 32113.1 1004.87   6
  -5  -2  -5 34904.2 1882.81   1
   5   2   6 2619.55 528.282   4
   5   2   6 2644.31 621.218   1
  -5  -2  -6 3359.50 669.774   7
  -5  -2  -6 2521.25 370.801   6
  -5  -2  -6 2573.93 419.007   3
  -5  -2  -7 18041.8 1533.85   7
   5   2   7 19482.0 1590.27   1
  -5  -2  -7 17792.6 1065.51   6
  -5  -2  -7 15597.9 1086.75   3
  -5  -2  -8 10731.1 1233.67   7
   5   2   8 11454.1 1265.43   1
  -5  -2  -8 8700.45 846.146   6
  -5  -2  -9 6705.08 1006.07   7
  -5  -2  -9 6032.83 782.034   6
   5   2   9 6904.18 1059.76   1
  -5  -2  -9 5715.37 825.722   3
  -5  -2 -10 2500.46 566.786   3
   5   2  10 2051.49 683.042   1
  -5  -2 -10 1795.66 572.786   7
  -5  -2 -10 1728.49 481.745   6
  -5  -2 -11 17427.9 1737.39   7
  -5  -2 -11 17948.6 1588.79   6
   5   2  11 16740.4 1772.38   1
  -5  -2 -12 76.1962 344.667   7
   5   2  12-10.2163 393.185   1
  -5  -2 -12 475.057 373.189   6
  -5  -2 -13 912.617 438.813   7
  -5  -2 -13 507.153 393.739   6
  -5  -2 -14 1105.36 498.454   7
  -5  -2 -14 878.153 515.721   6
   5   2  14 590.358 374.014   3
  -5  -2 -15 1542.50 616.185   7
  -5  -2 -15 1080.08 567.760   6
   5   3 -10-983.697 465.144   6
   5   3 -10-82.2843 320.435   5
   5   3  -9 1480.05 546.107   6
   5   3  -9 2602.22 753.729   5
  -5  -3   9 1650.43 606.261   3
  -5  -3   8 3102.05 793.696   3
   5   3  -8 3114.16 708.099   6
   5   3  -8 3245.31 795.356   5
   5   3  -7 1457.12 590.441   5
  -5  -3   7 595.931 350.131   3
   5   3  -7 769.063 357.630   6
   5   3  -6 142.662 256.594   5
  -5  -3   6 19.9298 310.394   3
   5   3  -6 107.504 269.635   6
   5   3  -5 1906.97 634.659   5
  -5  -3   5 1917.97 516.613   3
  -5  -3   5 1763.97 343.908   7
   5   3  -5 2125.25 397.022   7
   5   3  -5 1518.59 411.543   6
  -5  -3   4 16727.4 1084.46   7
   5   3  -4 17632.1 1206.77   6
  -5  -3   4 17581.8 1417.57   3
   5   3  -4 16923.2 1655.04   5
   5   3  -3 25579.0 761.523   4
   5   3  -3 27272.5 760.511   4
  -5  -3   3 27769.5 1466.13   7
   5   3  -3 28582.0 1377.48   6
  -5  -3   3 29347.1 1729.43   3
   5   3  -3 28127.7 2061.98   5
   5   3  -2 673.915 437.440   5
  -5  -3   2 270.088 248.235   3
   5   3  -2 483.864 160.737   4
  -5  -3   2 494.148 268.496   7
   5   3  -2 641.094 196.769   4
  -5  -3   2 1343.16 389.148   1
   5   3  -2 672.202 214.298   6
   5   3  -2 554.111 362.324   1
   5   3  -1 3478.80 662.656   1
   5   3  -1 3023.41 402.134   4
  -5  -3   1 3884.58 568.955   3
  -5  -3   1 2634.15 500.839   7
   5   3  -1 3036.60 508.361   7
   5   3  -1 3040.54 319.091   6
  -5  -3   1 2803.60 562.087   1
   5   3   0 4833.18 535.610   4
   5   3   0 4926.25 764.569   1
  -5  -3   0 5582.18 724.636   7
   5   3   0 5537.56 696.344   7
  -5  -3   0 5063.50 735.568   1
  -5  -3   0 5044.06 603.123   3
   5   3   1 62951.5 2588.74   1
  -5  -3  -1 58791.3 2302.07   7
   5   3   1 60402.9 2259.21   7
  -5  -3  -1 62345.4 2461.38   1
  -5  -3  -1 60308.0 1922.16   3
  -5  -3  -2 2820.96 414.716   3
   5   3   2 2150.50 509.215   1
  -5  -3  -2 1977.96 468.905   7
   5   3   2 2278.07 458.787   7
  -5  -3  -2 2931.25 549.063   1
   5   3   3 6758.64 723.949   4
   5   3   3 6185.07 833.909   1
  -5  -3  -3 8798.72 956.694   7
   5   3   3 7021.89 802.914   7
  -5  -3  -3 6533.12 810.755   1
   5   3   4 9371.68 885.753   4
  -5  -3  -4 10980.7 496.450   2
  -5  -3  -4 11063.6 1107.78   7
   5   3   4 11519.9 1156.97   1
  -5  -3  -4 9346.12 683.446   3
  -5  -3  -4 11924.3 1100.39   1
   5   3   5 56630.6 2226.99   4
  -5  -3  -5 62041.4 2656.72   7
   5   3   5 60470.3 2640.33   1
  -5  -3  -5 56627.7 1774.78   3
  -5  -3  -5 60926.3 1290.84   6
  -5  -3  -5 60556.9 2471.60   1
   5   3   6 514.570 341.818   1
  -5  -3  -6 238.727 389.776   7
  -5  -3  -6-27.4711 111.346   6
  -5  -3  -6 239.066 214.094   3
  -5  -3  -7 6821.07 982.198   7
   5   3   7 6030.60 899.919   1
  -5  -3  -7 6266.55 628.713   6
  -5  -3  -8 390.992 314.250   7
  -5  -3  -8 525.996 228.027   6
   5   3   8 444.423 347.015   1
  -5  -3  -8 334.018 250.399   3
  -5  -3  -9 20834.9 1784.21   7
   5   3   9 24540.4 1946.16   1
  -5  -3  -9 22102.3 1456.74   6
   5   3  10-6.43108 239.095   1
  -5  -3 -10 10.5647 213.144   7
  -5  -3 -10 169.641 193.618   6
  -5  -3 -11 5547.79 1010.51   7
   5   3  11 7006.65 1161.19   1
  -5  -3 -11 6041.03 925.481   6
  -5  -3 -12 2003.12 667.635   7
   5   3  12 1477.13 653.241   1
  -5  -3 -12 246.326 262.528   6
  -5  -3 -13 7022.27 1219.80   7
  -5  -3 -13 9774.57 1330.93   6
   5   3  13 7142.72 1291.83   1
  -5  -3 -14 1161.17 504.286   7
  -5  -3 -14 1474.36 623.443   6
  -5  -3 -15-319.726 378.601   6
   5   4  -9 1744.63 577.063   6
   5   4  -9 30.5748 234.161   5
  -5  -4   8 1254.54 562.383   3
   5   4  -8 696.460 346.117   6
   5   4  -8 1138.69 570.956   5
   5   4  -7 5035.77 1017.18   5
  -5  -4   7 3966.03 873.279   3
   5   4  -7 4625.49 836.785   6
   5   4  -6 4519.68 986.388   5
  -5  -4   6 4463.14 856.806   3
   5   4  -6 3627.60 702.847   6
  -5  -4   5 5990.31 935.012   3
  -5  -4   5 5408.43 524.093   7
   5   4  -5 4898.91 744.646   6
   5   4  -5 6958.35 1176.77   5
   5   4  -4 29.6086 285.908   5
  -5  -4   4-79.9477 288.813   3
  -5  -4   4 115.039 132.172   7
   5   4  -4-12.1043 166.093   6
   5   4  -3 3095.68 818.488   5
  -5  -4   3 2072.02 517.956   3
  -5  -4   3 1696.25 392.179   7
   5   4  -3 1508.48 345.356   6
   5   4  -2 3615.08 844.141   5
  -5  -4   2 3997.79 672.373   3
   5   4  -2 3067.24 300.261   4
   5   4  -2 3699.83 328.583   4
  -5  -4   2 3498.91 545.236   7
   5   4  -2 3725.67 488.639   6
   5   4  -1 48443.2 1525.58   4
   5   4  -1 56835.0 2535.88   1
  -5  -4   1 54609.7 2104.98   7
  -5  -4   1 54599.8 2386.95   1
  -5  -4   1 57271.6 2278.90   3
   5   4  -1 59447.8 3038.79   5
   5   4   0 12086.8 850.621   4
   5   4   0 13834.0 1236.66   1
  -5  -4   0 15541.7 1164.73   7
  -5  -4   0 14686.6 1215.00   1
  -5  -4   0 14939.2 1133.46   3
   5   4   1 6345.89 843.185   1
  -5  -4  -1 7007.29 820.568   7
  -5  -4  -1 6243.99 790.279   1
  -5  -4  -1 7113.05 754.318   3
  -5  -4  -2 3124.30 511.166   3
   5   4   2 2868.58 574.265   1
  -5  -4  -2 3153.17 574.692   7
  -5  -4  -2 3253.17 567.459   1
   5   4   3 32073.4 1597.14   4
  -5  -4  -3 36379.1 1341.31   2
   5   4   3 33620.1 1910.74   1
  -5  -4  -3 35972.6 1931.03   7
  -5  -4  -3 35299.8 1860.30   1
   5   4   4 298.012 208.649   4
  -5  -4  -4 597.844 322.352   1
  -5  -4  -4 581.302 380.059   7
  -5  -4  -4 494.743 149.803   2
  -5  -4  -4 397.833 93.6691   6
   5   4   4 366.324 295.351   1
   5   4   5 10761.8 986.415   4
  -5  -4  -5 9146.79 1077.75   7
  -5  -4  -5 9513.91 365.750   2
   5   4   5 9027.15 1037.72   1
  -5  -4  -5 10324.8 1021.51   1
   5   4   6 2356.09 593.301   1
  -5  -4  -6 1961.81 535.365   7
  -5  -4  -6 2407.86 347.272   6
  -5  -4  -7 19265.7 1641.53   7
   5   4   7 20771.1 1651.01   1
  -5  -4  -7 17566.2 1281.91   3
  -5  -4  -7 17975.6 1031.89   6
  -5  -4  -8 705.338 358.142   7
   5   4   8 1466.14 482.007   1
  -5  -4  -8 1197.74 336.071   6
  -5  -4  -8 1708.24 441.588   3
  -5  -4  -9 2092.54 627.679   7
  -5  -4  -9 2692.33 526.254   6
  -5  -4  -9 2598.21 581.873   3
   5   4   9 3366.41 769.731   1
  -5  -4 -10 6580.08 1059.51   7
   5   4  10 7574.41 1142.64   1
  -5  -4 -10 6355.52 849.989   6
  -5  -4 -11 20969.7 1960.16   7
  -5  -4 -11 18431.4 1546.25   6
   5   4  11 19814.1 1929.27   1
   5   4  12-301.816 283.283   1
  -5  -4 -12-541.991 382.137   7
  -5  -4 -12 238.620 316.775   6
  -5  -4 -13 5980.73 1154.69   7
   5   4  13 3817.30 886.705   1
  -5  -4 -13 4040.55 857.814   6
  -5  -4 -14 343.083 325.550   7
  -5  -4 -14-343.002 365.700   6
  -5  -4 -15 917.553 613.823   6
   5   5  -9 712.663 403.786   6
   5   5  -8 305.363 291.662   6
   5   5  -8 724.452 386.053   5
  -5  -5   7 3338.00 829.854   3
   5   5  -7 1863.28 574.923   6
   5   5  -7 3270.40 925.128   5
   5   5  -6-233.827 342.358   5
  -5  -5   6-338.132 350.446   3
   5   5  -6 592.864 304.692   6
   5   5  -5 3222.67 869.661   5
  -5  -5   5 2371.31 656.223   3
   5   5  -5 1825.50 499.564   6
   5   5  -4 2879.94 822.114   5
  -5  -5   4 4210.04 789.269   3
  -5  -5   4 2917.60 404.453   7
   5   5  -4 3138.18 608.646   6
  -5  -5   3 10521.0 843.409   7
   5   5  -3 9479.68 924.892   6
  -5  -5   3 10998.9 1193.72   3
   5   5  -3 10587.5 1458.04   5
  -5  -5   2 25215.8 1364.87   7
   5   5  -2 23702.6 1320.73   6
  -5  -5   2 24762.7 1713.77   3
   5   5  -2 25146.1 2180.25   5
  -5  -5   1 369.661 243.069   1
   5   5  -1 998.495 575.460   5
  -5  -5   1 577.457 358.057   3
   5   5  -1 262.098 167.308   4
  -5  -5   1 226.092 208.272   7
   5   5  -1 174.453 251.958   1
   5   5   0-46.7174 338.582   5
   5   5   0-2.82821 246.422   1
  -5  -5   0 273.564 252.323   3
  -5  -5   0 748.424 292.308   1
   5   5   0 212.887 166.811   4
  -5  -5   0 212.137 245.471   7
   5   5   1 26398.6 1695.08   1
  -5  -5  -1 27090.1 1600.72   7
  -5  -5  -1 23749.3 1504.32   1
  -5  -5  -1 24229.3 862.389   6
  -5  -5  -1 24117.1 1528.62   3
   5   5   2 3943.98 566.508   4
   5   5   2 2966.82 588.526   1
  -5  -5  -2 3912.87 648.165   7
  -5  -5  -2 4750.63 676.420   1
  -5  -5  -2 3487.30 322.772   6
   5   5   3 18242.9 1263.43   4
   5   5   3 19208.3 1463.66   1
  -5  -5  -3 17045.9 1026.27   2
  -5  -5  -3 20317.9 1501.64   7
  -5  -5  -3 18352.8 735.185   6
  -5  -5  -3 19763.5 1389.82   1
   5   5   4 10498.9 991.751   4
  -5  -5  -4 10667.1 714.504   2
   5   5   4 10452.7 1104.20   1
  -5  -5  -4 10161.4 1110.37   7
  -5  -5  -4 10496.8 613.513   6
  -5  -5  -4 12726.3 1110.48   1
   5   5   5 7525.34 856.238   4
  -5  -5  -5 7755.34 1015.68   7
  -5  -5  -5 7290.55 490.587   2
   5   5   5 7546.21 971.259   1
   5   5   6 36.4730 223.585   1
  -5  -5  -6-80.7077 299.751   7
  -5  -5  -6 65.4175 199.674   3
  -5  -5  -7 11375.5 1278.92   7
   5   5   7 12064.2 1270.86   1
  -5  -5  -7 10225.8 995.661   3
  -5  -5  -8 838.735 409.038   7
   5   5   8 901.127 456.825   1
  -5  -5  -8 1176.05 414.476   3
  -5  -5  -9 5338.91 938.919   7
   5   5   9 4220.00 810.228   1
   5   5  10-88.2620 260.997   1
  -5  -5 -10 24.1968 305.317   7
  -5  -5 -10-109.241 199.571   6
   5   5  11 6105.68 1117.34   1
  -5  -5 -11 5563.13 1002.35   7
  -5  -5 -11 4895.15 830.302   6
   5   5  12-111.965 319.015   1
  -5  -5 -12 724.239 386.862   7
  -5  -5 -12 184.806 240.039   6
   5   5  13 1895.65 662.701   1
  -5  -5 -13 3074.47 833.848   7
  -5  -5 -13 2178.06 622.967   6
  -5  -5 -14 138.825 307.696   6
  -5  -6   7 2220.27 664.223   3
   5   6  -7 920.428 427.303   6
  -5  -6   6 673.405 413.468   3
   5   6  -6 821.554 382.376   6
   5   6  -6 736.681 560.734   5
   5   6  -5 7490.03 1374.76   5
   5   6  -5 6434.99 927.613   6
  -5  -6   5 8329.57 1217.54   3
   5   6  -4 804.635 513.407   5
  -5  -6   4 1406.75 529.204   3
   5   6  -4 1686.55 451.507   6
   5   6  -3 1079.71 575.314   5
  -5  -6   3 1028.51 423.142   3
  -5  -6   3 1014.41 296.381   7
   5   6  -3 975.492 361.612   6
   5   6  -2 339.414 468.443   5
  -5  -6   2 260.298 284.464   3
  -5  -6   2-51.8240 175.392   7
   5   6  -1 2494.94 794.018   5
  -5  -6   1 2434.88 581.769   3
   5   6  -1 2936.94 406.284   4
  -5  -6   1 1908.33 446.506   1
  -5  -6   1 2152.75 452.922   7
  -5  -6   1 1687.81 328.766   6
   5   6   0 7109.98 1181.38   5
   5   6   0 7223.19 910.298   1
   5   6   0 7820.02 739.898   4
  -5  -6   0 6596.39 881.490   2
  -5  -6   0 7467.19 835.571   7
  -5  -6   0 7293.03 832.969   1
  -5  -6   0 7540.50 643.050   6
  -5  -6   0 8386.47 1004.84   3
   5   6   1 16082.4 1347.74   1
  -5  -6  -1 16963.0 1302.85   2
  -5  -6  -1 16333.6 1274.62   7
  -5  -6  -1 13249.8 1119.79   1
  -5  -6  -1 14692.6 863.580   6
  -5  -6  -1 14792.8 1306.57   3
   5   6   2 795.127 364.450   5
   5   6   2 2525.75 554.706   1
   5   6   2 1568.29 401.560   4
  -5  -6  -2 2402.14 496.798   1
  -5  -6  -2 2501.30 553.671   7
  -5  -6  -2 2121.94 443.489   2
  -5  -6  -2 1826.81 309.844   6
  -5  -6  -3 1911.22 435.986   1
   5   6   3 1960.13 499.064   1
  -5  -6  -3 1529.60 452.521   7
  -5  -6  -3 2232.43 350.915   6
   5   6   3 2267.29 483.803   4
   5   6   4 8486.28 954.379   4
   5   6   4 10650.3 1120.58   1
  -5  -6  -4 11375.2 1203.24   7
  -5  -6  -4 9106.94 694.692   6
  -5  -6  -4 10165.5 983.798   1
   5   6   5 26411.4 1778.45   1
  -5  -6  -5 25024.3 1810.58   7
  -5  -6  -5 23700.9 1064.97   2
  -5  -6  -5 21407.6 1111.85   6
  -5  -6  -6 11219.7 1264.69   7
   5   6   6 9610.49 1118.56   1
  -5  -6  -6 10509.8 621.306   2
  -5  -6  -6 9884.59 977.220   3
   5   6   7 4544.07 806.482   1
  -5  -6  -7 4250.96 818.660   7
   5   6   8 274.557 233.783   1
  -5  -6  -8-256.965 381.221   7
  -5  -6  -9 3474.65 794.928   7
   5   6   9 2686.95 659.435   1
  -5  -6 -10-140.944 242.982   7
   5   6  10-138.423 312.582   1
   5   6  11 1887.33 635.108   1
  -5  -6 -11 2349.49 717.602   7
   5   6  12 684.097 407.909   1
  -5  -6 -12 172.204 332.010   7
   5   6  13 3645.75 904.224   1
  -5  -6 -13 3493.55 727.066   6
  -5  -6 -14 545.997 309.835   6
   5   7  -6 572.500 314.055   6
   5   7  -5 892.225 562.309   5
  -5  -7   5 2211.86 677.255   3
   5   7  -5 1678.75 495.753   6
   5   7  -4-629.545 553.535   5
  -5  -7   4-283.371 348.712   3
   5   7  -3 5836.95 1236.40   5
  -5  -7   3 6169.40 1042.23   3
   5   7  -2 3107.45 900.439   5
  -5  -7   2 3359.62 744.672   3
  -5  -7   2 3747.70 535.524   7
   5   7  -1 5372.48 1134.56   5
  -5  -7   1 5997.97 943.304   3
  -5  -7   1 6368.12 749.551   7
   5   7   0-246.471 317.819   5
  -5  -7   0-558.057 354.722   3
  -5  -7   0-47.3598 254.665   7
  -5  -7   0 94.8130 128.239   1
   5   7   0-400.930 252.205   1
   5   7   1 140.564 249.474   1
   5   7   1-10.2824 362.542   5
  -5  -7  -1 420.732 243.193   1
  -5  -7  -1 266.499 228.667   3
  -5  -7  -1 694.846 328.808   7
   5   7   2 576.277 468.056   5
   5   7   2 297.385 257.099   1
   5   7   2 881.435 316.877   4
  -5  -7  -2 276.539 236.432   7
  -5  -7  -2 781.781 327.506   2
  -5  -7  -2 602.622 222.201   6
  -5  -7  -2 444.443 240.900   1
   5   7   3 14179.7 1283.81   4
   5   7   3 17159.4 1373.97   1
  -5  -7  -3 18399.9 1271.16   2
  -5  -7  -3 18606.8 1501.52   7
  -5  -7  -3 18759.8 1122.75   6
  -5  -7  -3 16894.9 1257.79   1
   5   7   3 15230.8 1658.54   5
   5   7   4 6093.77 1045.94   5
   5   7   4 7471.30 935.462   1
  -5  -7  -4 5528.93 666.231   2
  -5  -7  -4 6571.23 939.716   7
  -5  -7  -4 5387.90 625.299   6
  -5  -7  -5 2643.87 639.247   7
  -5  -7  -5 1909.00 379.608   6
   5   7   5 3268.88 645.953   1
  -5  -7  -6 3498.94 432.955   2
  -5  -7  -6 4038.64 790.790   7
   5   7   6 4184.73 737.328   1
  -5  -7  -7 9107.38 1209.16   7
   5   7   7 10904.9 1225.80   1
   5   7   8 206.498 234.268   1
  -5  -7  -8 252.082 358.217   7
   5   7   9 2869.27 701.747   1
  -5  -7  -9 4049.82 869.964   7
  -5  -7 -10 992.258 461.569   7
   5   7  10 550.937 344.485   1
  -5  -7 -11 3658.76 881.853   7
   5   7  11 4744.60 959.305   1
   5   7  12 712.358 377.842   1
   5   7  13 1819.12 642.852   1
  -5  -8   4 10.2994 257.944   3
   5   8  -3 3809.99 1036.98   5
  -5  -8   3 3182.94 813.006   3
   5   8  -2 10.1599 373.905   5
  -5  -8   2 912.851 458.515   3
   5   8  -1 2141.40 784.863   5
  -5  -8   1 2058.93 661.171   3
   5   8   0 2636.93 809.245   5
  -5  -8   0 1224.42 470.520   3
  -5  -8   0 3251.32 588.035   7
   5   8   1 5063.14 1107.88   5
   5   8   1 5521.00 772.662   1
  -5  -8  -1 5179.12 910.017   3
  -5  -8  -1 6291.05 859.227   7
   5   8   2-59.9666 219.406   5
   5   8   2 138.254 202.208   1
  -5  -8  -2 436.709 333.198   7
   5   8   3 3709.00 881.209   5
   5   8   3 3156.48 622.681   1
  -5  -8  -3 3223.10 680.577   7
   5   8   4 342.950 300.783   5
   5   8   4-85.5547 155.481   1
  -5  -8  -4 105.610 190.026   7
   5   8   5 4065.33 855.090   5
   5   8   5 6718.49 900.273   1
  -5  -8  -5 5087.23 865.184   7
   5   8   6-102.583 261.081   5
  -5  -8  -6 256.103 373.431   7
   5   8   6 411.952 221.178   1
   5   8   7 4599.86 852.765   5
  -5  -8  -7 5643.95 1004.89   7
   5   8   7 3911.34 749.924   1
   5   8   8 3152.62 689.162   1
  -5  -8  -8 2857.13 756.505   7
   5   8   9 2841.13 678.989   1
  -5  -8  -9 3096.40 778.783   7
   5   8  10 531.136 368.930   1
  -5  -8 -10 595.594 447.824   7
   5   8  11 1730.22 587.258   1
   5   8  12 453.439 433.851   1
  -5  -9   2 1079.84 468.551   3
   5   9  -1 2045.17 824.775   5
  -5  -9   1 2758.71 806.557   3
   5   9   0 406.996 329.839   5
  -5  -9   0-182.321 262.712   3
   5   9   1 2277.11 791.009   5
  -5  -9  -1 2989.60 757.891   3
  -5  -9  -1 2266.45 529.545   7
  -5  -9  -2-52.8847 202.700   3
  -5  -9  -2-10.0383 226.372   7
   5   9   3 4189.23 999.350   5
  -5  -9  -3 4547.35 817.352   7
   5   9   4 720.153 411.668   5
   5   9   4 1105.43 366.697   1
  -5  -9  -4 1303.29 525.527   7
   5   9   5 2660.43 718.790   5
   5   9   5 4295.81 710.292   1
  -5  -9  -5 3129.92 742.662   7
   5   9   6 862.759 472.269   5
  -5  -9  -6 1634.69 590.800   7
   5   9   6 1978.22 493.720   1
   5   9   7 2283.13 670.705   5
  -5  -9  -7 1436.31 583.959   7
   5   9   7 2872.31 643.845   1
   5   9   8 1012.08 411.673   5
  -5  -9  -8 257.699 375.044   7
   5   9   8 682.917 361.339   1
   5   9   9 758.838 363.637   5
   5   9   9 731.361 373.667   1
  -5  -9  -9-10.0889 281.231   7
   5   9  10-137.159 254.542   1
   5   9  11 2491.21 691.447   1
   5   9  12 181.192 205.031   1
   5  10   1 1290.38 663.076   5
  -5 -10  -1 1595.86 597.546   3
   5  10   2 1665.35 652.910   5
  -5 -10  -2 1180.09 545.972   3
  -5 -10  -2 1248.33 472.237   7
   5  10   3 1912.89 634.610   5
  -5 -10  -3 2053.22 565.317   7
   5  10   4 1521.65 604.666   5
  -5 -10  -4 1794.37 554.448   7
   5  10   5 2067.70 700.559   5
  -5 -10  -5 3066.99 682.299   4
  -5 -10  -5 2668.28 742.697   7
   5  10   6 1403.77 510.716   5
  -5 -10  -6 940.162 435.840   4
  -5 -10  -6 57.3969 274.345   7
   5  10   7 1015.52 453.113   5
  -5 -10  -7 1210.52 503.359   4
  -5 -10  -7 1605.57 579.014   7
   5  10   8-360.792 298.759   5
  -5 -10  -8-166.067 307.748   4
  -5 -10  -8-711.665 438.476   7
   5  11   3 2290.94 761.103   5
   5  11   4 722.520 407.380   5
  -5 -11  -4 550.315 432.684   7
   5  11   5 1189.14 518.817   5
  -5 -11  -5 177.200 308.281   7
   5  11   6 510.723 358.834   5
  -5 -11  -6 754.951 436.651   4
  -5 -11  -6 217.609 356.424   7
  -5 -11  -7 1802.47 601.131   4
  -6   8   1 3.23354 237.706   2
  -6   8   0 31.2764 181.647   2
  -6   8  -1-225.257 281.260   2
  -6   8  -2 8586.15 1387.82   2
  -6   8  -3 219.411 227.266   2
  -6   8  -4 720.410 401.191   2
   6  -7  -5 144.162 248.154   4
   6  -7  -4 3351.71 838.375   4
  -6   7   4 4386.90 1025.24   2
   6  -7  -3 848.647 422.457   4
  -6   7   3 185.067 269.692   2
  -6   7   2 3444.93 922.353   2
   6  -7  -2 4438.43 963.021   4
   6  -7  -1-877.970 494.890   4
  -6   7   1 491.777 400.942   2
   6  -7   0 3545.87 871.080   4
  -6   7   0 3466.70 867.784   2
   6  -7   0 3460.37 688.383   1
   6  -7   1 1525.66 628.169   4
  -6   7  -1 1674.44 588.910   2
   6  -7   1 970.312 462.178   1
   6  -7   2 1718.36 512.122   1
   6  -7   2 2082.08 738.737   4
   6  -7   3 80.9014 251.197   1
  -6   7  -3-508.125 395.264   7
   6  -7   3 150.748 320.144   4
  -6   7  -3 69.9166 203.406   2
  -6   7  -4 3194.87 806.129   7
   6  -7   4 4169.48 995.176   4
  -6   7  -4 2430.01 707.814   2
  -6   7  -5 534.836 302.195   7
   6  -7   5-122.641 315.746   4
  -6   7  -5 179.817 242.934   2
  -6   7  -6 2314.08 677.307   7
  -6   7  -7 566.543 353.269   7
   6  -6  -8 2430.02 698.369   4
   6  -6  -7 518.971 378.240   4
   6  -6  -6 2107.70 694.921   4
  -6   6   6 1865.43 668.147   2
   6  -6  -5 281.850 343.751   4
  -6   6   5 242.835 340.569   2
   6  -6  -4 5466.55 1004.97   4
  -6   6   4 5654.58 1133.51   2
   6  -6  -3 3030.92 736.753   4
  -6   6   3 1385.93 521.939   2
   6  -6  -2 9495.61 1328.39   4
  -6   6   2 8110.79 1273.56   2
   6  -6  -1 2372.40 671.799   4
  -6   6   1 4097.18 910.930   2
   6  -6   0 3182.69 796.981   4
  -6   6   0 2582.06 730.242   2
   6  -6   0 4696.98 806.959   1
   6  -6   1 1879.70 542.514   1
  -6   6  -1 1426.42 539.127   7
   6  -6   1 2419.45 744.409   4
  -6   6  -1 2149.11 665.803   2
   6  -6   2 14411.6 1375.61   1
   6  -6   2 14933.0 1720.51   4
  -6   6  -2 12684.0 1501.18   7
  -6   6  -2 13944.7 1537.98   2
   6  -6   3-309.426 283.622   1
  -6   6  -3 118.454 269.977   7
   6  -6   3-653.410 480.180   4
  -6   6  -3 201.295 322.756   2
   6  -6   4 7082.21 1021.05   1
  -6   6  -4 6272.22 1081.88   7
   6  -6   4 7837.00 1316.28   4
  -6   6  -4 5962.45 983.950   2
  -6   6  -5-223.749 259.919   7
   6  -6   5 419.141 292.412   1
   6  -6   5 381.562 311.350   4
  -6   6  -5-87.2109 191.045   2
  -6   6  -6 941.567 476.740   7
   6  -6   6 1258.94 662.781   4
   6  -6   6 645.182 341.386   1
  -6   6  -7-43.0972 199.113   7
   6  -6   7 392.885 395.897   4
  -6   6  -8 4700.86 974.350   7
   6  -6   8 5054.48 939.730   1
  -6   6  -9-42.9497 155.151   7
   6  -5  -9 574.192 311.885   4
   6  -5  -8 1702.87 581.404   4
  -6   5   7 270.694 236.352   2
   6  -5  -7 956.254 436.523   4
   6  -5  -6 2848.78 680.151   4
  -6   5   6 3020.09 784.608   2
   6  -5  -5 1277.37 467.960   4
  -6   5   5 1139.56 554.102   2
   6  -5  -4 4404.40 849.245   4
  -6   5   4 5133.47 1003.22   2
   6  -5  -3 2424.26 674.911   4
  -6   5   3 2091.03 633.801   2
   6  -5  -2 12223.1 1421.60   4
  -6   5   2 12940.4 1499.89   2
  -6   5   1 1282.64 532.739   7
   6  -5  -1 1269.36 505.526   4
  -6   5   1 864.789 478.910   2
   6  -5  -1 865.219 410.158   1
   6  -5   0 7780.83 1024.59   1
   6  -5   0 6517.51 1087.70   4
  -6   5   0 8377.99 1190.87   7
  -6   5   0 6060.86 994.044   2
   6  -5   1 212.863 254.562   1
  -6   5  -1 920.065 486.031   7
   6  -5   1 817.744 478.128   4
  -6   5  -1 390.586 324.677   2
   6  -5   2 8978.87 1105.20   1
   6  -5   2 9699.28 1367.56   4
  -6   5  -2 8766.43 1227.51   7
  -6   5  -2 8419.76 1126.85   2
   6  -5   3 13.6988 266.337   1
  -6   5  -3 76.7119 251.549   7
   6  -5   3-32.5975 267.226   4
  -6   5  -3 238.122 314.208   2
   6  -5   4 17375.2 1875.77   4
   6  -5   4 14727.6 1421.38   1
  -6   5  -4 15327.0 1442.64   2
  -6   5  -4 18320.3 1790.53   7
  -6   5  -5-118.668 295.877   7
   6  -5   5-70.2143 328.046   4
   6  -5   5 73.9388 255.207   1
  -6   5  -5-139.634 196.312   2
   6  -5   6 12142.8 1628.24   4
  -6   5  -6 10872.5 1427.06   7
   6  -5   6 11351.5 1315.32   1
  -6   5  -7-155.046 216.198   7
   6  -5   7 602.908 396.490   1
  -6   5  -8 942.020 441.707   7
   6  -5   8 1513.57 565.593   1
  -6   5  -9-528.023 388.611   7
   6  -5   9 316.669 385.683   1
   6  -5  10 1947.44 699.521   1
  -6   5 -10 1129.45 544.793   7
  -6   5 -10 816.144 511.261   6
   6  -4  -8 2911.63 643.338   4
  -6   4   7 178.171 270.758   2
   6  -4  -7 681.895 358.292   4
  -6   4   6 2398.66 650.730   2
   6  -4  -6 3725.51 747.096   4
  -6   4   5 311.424 282.268   2
   6  -4  -5 632.764 339.863   4
  -6   4   4 4368.32 832.992   2
   6  -4  -4 4548.80 813.577   4
   6  -4  -3-148.374 287.131   4
  -6   4   3-335.687 300.343   2
  -6   4   2 1900.79 582.221   7
   6  -4  -2 2832.48 686.332   4
   6  -4  -2 2842.33 637.460   1
  -6   4   2 1670.14 560.584   2
   6  -4  -1 11181.1 1219.57   1
   6  -4  -1 11945.5 1362.80   4
  -6   4   1 12109.3 1409.48   7
  -6   4   1 9556.32 1202.21   2
   6  -4  -1 10724.8 1151.81   6
   6  -4   0 8062.17 1052.17   1
   6  -4   0 11477.9 1358.68   4
  -6   4   0 9898.49 1273.44   7
  -6   4   0 9446.61 1185.19   2
   6  -4   0 10141.0 1094.39   6
   6  -4   1 7406.25 1011.60   1
  -6   4  -1 7670.10 1127.95   7
  -6   4  -1 7078.52 967.500   2
   6  -4   1 6874.89 1082.38   4
   6  -4   1 6350.17 865.790   6
   6  -4   1 6673.47 425.537   3
   6  -4   2 17188.7 1505.96   1
   6  -4   2 18275.2 1777.42   4
  -6   4  -2 17289.0 1684.13   7
  -6   4  -2 16238.9 1436.81   2
   6  -4   2 16312.5 1354.40   6
   6  -4   3 279.742 330.205   1
  -6   4  -3 615.151 408.741   7
   6  -4   3-89.1858 279.957   4
  -6   4  -3 739.934 339.368   2
   6  -4   3-186.081 291.957   6
   6  -4   4 19134.8 1877.27   4
   6  -4   4 19043.2 1636.47   1
  -6   4  -4 18085.4 1439.94   2
  -6   4  -4 17972.5 1728.23   7
  -6   4  -5 854.997 427.250   7
  -6   4  -5 589.316 305.484   2
   6  -4   5 1101.77 482.784   1
   6  -4   6 7039.96 1069.92   1
  -6   4  -6 6550.43 1070.61   7
  -6   4  -7 307.796 317.783   7
   6  -4   7 245.433 262.122   1
   6  -4   8 4860.52 930.161   1
  -6   4  -8 5203.94 1001.93   7
   6  -4   9-318.529 344.729   1
  -6   4  -9-66.7869 220.027   6
  -6   4 -10 1023.13 498.287   7
  -6   4 -10 2062.68 677.672   6
   6  -4  11 53.4451 212.825   1
  -6   4 -11 408.950 347.066   6
  -6   3  10 1134.27 437.949   3
  -6   3   9 643.575 385.797   3
   6  -3  -8 342.222 237.762   4
  -6   3   8 560.605 304.047   3
   6  -3  -7-342.445 269.622   4
  -6   3   7-167.222 218.627   3
   6  -3  -6 3334.14 572.682   5
   6  -3  -6 4671.92 783.911   4
  -6   3   6 2894.67 592.147   3
  -6   3   5 393.199 290.038   2
   6  -3  -5 119.696 221.389   4
  -6   3   4 2917.69 658.063   2
   6  -3  -4 1944.43 523.426   4
  -6   3   3 111.838 256.759   2
   6  -3  -3-632.802 229.557   3
  -6   3   3 250.053 341.355   7
   6  -3  -3-1.71674 184.074   4
   6  -3  -2 20153.4 1654.31   1
   6  -3  -2 20086.7 1654.57   4
  -6   3   2 21550.3 1793.07   7
   6  -3  -2 18521.0 1083.02   3
   6  -3  -1 2252.30 580.472   1
   6  -3  -1 2216.09 331.458   3
  -6   3   1 1861.31 587.069   7
   6  -3  -1 1848.04 553.833   4
   6  -3  -1 2170.57 479.927   6
  -6   3   1 2826.58 637.348   2
   6  -3   0 7382.97 1014.85   1
   6  -3   0 7355.40 1033.11   4
  -6   3   0 5963.53 965.090   7
  -6   3   0 6879.37 930.830   2
   6  -3   0 5659.24 726.907   6
   6  -3   0 5908.65 382.834   3
   6  -3   1 6450.96 934.331   1
   6  -3   1 6990.47 1038.75   4
  -6   3  -1 7148.84 928.370   2
  -6   3  -1 6134.42 975.226   7
   6  -3   1 6157.27 757.668   6
   6  -3   2 2943.90 688.149   1
  -6   3  -2 2445.50 637.908   7
   6  -3   2 1413.42 538.904   4
   6  -3   2 1948.13 405.659   6
  -6   3  -2 2432.30 527.956   2
  -6   3  -3 163.899 264.032   7
   6  -3   3 74.3191 306.421   1
  -6   3  -3 167.594 206.326   2
   6  -3   3 328.356 240.338   6
   6  -3   4 15379.9 1448.38   1
  -6   3  -4 15321.0 1207.81   2
  -6   3  -4 13131.6 1446.18   7
   6  -3   4 13417.9 1136.31   6
  -6   3  -5 1490.46 539.520   7
  -6   3  -5 1749.99 432.946   2
   6  -3   5 1345.96 501.803   1
   6  -3   5 2199.28 480.102   6
  -6   3  -6 23750.3 1987.40   7
   6  -3   6 25451.5 1954.44   1
   6  -3   6 22776.5 1543.01   6
   6  -3   7 1482.35 546.283   1
  -6   3  -7 970.602 496.514   7
  -6   3  -8 9461.78 1314.35   7
   6  -3   8 10369.9 1332.29   1
  -6   3  -8 10400.9 1212.76   6
   6  -3   9 845.429 443.052   1
  -6   3  -9 366.570 287.940   7
  -6   3  -9 535.482 406.285   6
   6  -3  10 2567.18 712.875   1
  -6   3 -10 4244.32 917.806   7
  -6   3 -10 3106.13 737.000   6
   6  -3  11-481.671 426.706   1
  -6   3 -11 240.804 286.903   7
  -6   3 -11 361.328 305.093   6
  -6   3 -12-208.600 217.940   7
  -6   3 -12 210.697 283.223   6
   6  -2 -10 754.470 425.837   6
  -6   2  10 651.162 330.357   3
  -6   2   9 24.1459 169.173   3
  -6   2   8 3434.24 696.955   3
   6  -2  -7 763.540 332.712   5
   6  -2  -7 498.220 265.658   4
  -6   2   7 453.149 265.756   3
   6  -2  -6 4946.24 726.257   5
   6  -2  -6 4767.52 725.618   4
  -6   2   6 4125.07 661.625   3
   6  -2  -5 1652.20 424.575   5
   6  -2  -5 1935.81 491.325   4
  -6   2   5 1670.83 438.764   3
   6  -2  -4 10740.7 1106.94   4
  -6   2   4 9799.44 1172.85   7
  -6   2   4 9968.21 913.863   3
   6  -2  -4 9888.77 977.608   3
   6  -2  -3 1175.72 331.683   3
  -6   2   3 908.510 435.464   7
   6  -2  -3 255.839 224.892   4
  -6   2   3 1016.47 293.329   3
  -6   2   2 287.503 214.646   2
   6  -2  -2 609.812 214.188   3
  -6   2   2 263.632 277.903   7
   6  -2  -2 741.055 357.692   4
   6  -2  -2 470.118 380.460   1
  -6   2   1-227.168 242.981   2
   6  -2  -1 75.5948 271.797   1
   6  -2  -1-4.29581 29.9702   3
  -6   2   1 319.167 343.422   7
   6  -2  -1 127.241 254.685   4
   6  -2   0 8985.42 1108.21   1
   6  -2   0 9432.80 1123.35   4
  -6   2   0 8676.91 1110.13   7
  -6   2   0 8285.66 976.587   2
   6  -2   0 8967.86 816.034   6
   6  -2   1 321.145 319.315   1
  -6   2  -1 793.282 449.092   7
   6  -2   1 233.374 305.200   4
   6  -2   1-307.078 186.540   6
  -6   2  -1 214.189 261.788   2
   6  -2   2 24157.1 1773.68   1
  -6   2  -2 20253.3 1714.91   7
  -6   2  -2 22354.6 1431.91   2
   6  -2   2 19437.1 1156.57   6
  -6   2  -3-165.276 273.113   7
   6  -2   3 117.624 336.158   1
  -6   2  -3-151.438 201.418   2
  -6   2  -4 11306.6 918.905   2
   6  -2   4 11878.7 1278.88   1
  -6   2  -4 11165.6 1288.01   7
  -6   2  -5 1256.02 490.809   7
  -6   2  -5 1408.77 330.794   2
   6  -2   5 1410.73 336.636   6
   6  -2   5 1170.37 444.446   1
  -6   2  -6 11842.4 1373.64   7
   6  -2   6 13096.1 1406.68   1
   6  -2   6 12235.7 1022.10   6
   6  -2   7 2366.42 677.894   1
  -6   2  -7 2801.29 687.922   7
  -6   2  -7 2330.64 525.358   6
   6  -2   7 2798.58 501.491   6
  -6   2  -8 19600.4 1856.44   7
   6  -2   8 22560.2 1938.20   1
  -6   2  -8 20397.3 1600.81   6
   6  -2   9 395.560 386.075   1
  -6   2  -9-155.314 285.956   6
   6  -2  10 2637.16 717.488   1
  -6   2 -10 2498.34 686.047   7
  -6   2 -10 4018.43 843.020   6
  -6   2 -11-887.893 462.446   7
   6  -2  11-41.4732 335.345   1
  -6   2 -11-123.124 279.132   6
  -6   2 -12 2107.07 733.590   7
   6  -2  12 2991.32 803.043   1
  -6   2 -12 1342.37 558.321   6
  -6   2 -13 508.950 403.399   7
  -6   2 -13-327.569 503.048   6
   6  -1 -10 2596.33 719.358   6
  -6   1  10 1328.94 486.278   3
   6  -1  -9 1815.22 588.801   6
  -6   1   9 1065.65 394.887   3
   6  -1  -8 1716.41 521.108   6
  -6   1   8 2200.35 588.888   3
   6  -1  -7 1448.30 453.255   5
   6  -1  -7 947.471 316.938   4
   6  -1  -7 1139.30 392.357   6
  -6   1   7 861.484 403.235   3
   6  -1  -6 1304.75 462.187   5
   6  -1  -6 2196.88 471.268   4
  -6   1   6 1718.51 456.921   3
   6  -1  -5 1116.05 429.483   5
   6  -1  -5 1486.38 423.706   4
  -6   1   5 1697.11 446.560   3
   6  -1  -4 2035.90 463.577   3
  -6   1   4 2865.49 644.387   7
   6  -1  -4 2225.33 502.416   4
  -6   1   4 2629.87 482.010   3
   6  -1  -3 73.4418 129.498   3
  -6   1   3 52.9505 265.277   7
   6  -1  -3-254.817 225.681   4
  -6   1   3 140.903 166.260   3
   6  -1  -2 25435.6 1875.50   1
   6  -1  -2 21620.6 1529.53   4
  -6   1   2 25231.8 1813.50   7
  -6   1   2 20300.8 1060.12   3
   6  -1  -2 23161.5 1195.50   3
   6  -1  -1-88.9862 310.808   1
   6  -1  -1 100.443 100.177   3
  -6   1   1 266.135 307.683   7
   6  -1  -1 280.188 296.684   4
   6  -1   0 15544.5 1446.01   1
   6  -1   0 17231.2 1430.32   4
  -6   1   0 15499.4 1457.29   7
  -6   1   0 11749.4 1055.57   2
   6  -1   0 15212.4 905.119   6
   6  -1   1 482.308 320.220   1
  -6   1  -1 1439.12 466.304   7
   6  -1   1 917.317 223.170   6
  -6   1  -1 1080.24 327.204   2
   6  -1   2 3489.98 712.900   1
  -6   1  -2 4031.12 788.809   7
   6  -1   2 3677.48 414.672   6
  -6   1  -2 2943.23 496.669   2
  -6   1  -3 235.231 257.881   7
   6  -1   3 369.345 309.049   1
   6  -1   3 392.750 160.122   6
  -6   1  -3 737.654 258.555   2
   6  -1   4 11983.2 1283.93   1
  -6   1  -4 11733.0 833.603   2
  -6   1  -4 11135.6 1278.62   7
   6  -1   4 11913.0 798.849   6
  -6   1  -5-3.72168 309.169   7
  -6   1  -5 65.9731 113.371   2
   6  -1   5 141.001 81.4996   6
   6  -1   5 14.2955 298.111   1
  -6   1  -6 11646.7 1330.35   7
   6  -1   6 14112.4 1447.48   1
   6  -1   7 295.534 324.338   1
  -6   1  -7 199.831 299.723   7
  -6   1  -7 149.765 180.607   6
  -6   1  -8 14578.8 1549.82   7
   6  -1   8 14389.7 1543.68   1
  -6   1  -8 13787.3 1240.10   6
   6  -1   9-113.679 386.470   1
  -6   1  -9-760.305 424.884   7
  -6   1  -9-76.1594 284.971   6
  -6   1 -10 14045.0 1629.91   7
   6  -1  10 12707.5 1560.02   1
  -6   1 -10 12745.1 1370.05   6
  -6   1 -11-98.9259 280.375   7
   6  -1  11 94.8696 344.176   1
  -6   1 -11 312.655 391.192   6
  -6   1 -12 2078.17 707.483   7
  -6   1 -12 1797.95 639.473   6
   6  -1  12 2680.42 795.943   1
  -6   1 -13-87.7054 183.583   7
  -6   1 -13 300.394 348.938   6
   6   0  -9 803.908 475.814   6
  -6   0   9 1950.36 632.841   3
   6   0  -8 1661.95 519.665   5
   6   0  -8 1099.47 465.907   6
  -6   0   8 895.782 371.642   3
   6   0  -7 60.1312 197.509   5
   6   0  -7 185.858 172.574   6
  -6   0   7 398.944 309.142   3
   6   0  -6 4679.86 821.057   5
   6   0  -6 5652.21 652.680   4
  -6   0   6 5727.33 846.833   3
   6   0  -6 5320.29 796.176   6
   6   0  -5 2309.15 598.378   5
   6   0  -5 2278.12 442.238   4
  -6   0   5 2510.41 580.247   7
   6   0  -5 2680.91 528.456   6
  -6   0   5 2299.60 510.962   3
   6   0  -4 18086.8 1224.03   4
  -6   0   4 15525.3 1367.81   7
  -6   0   4 18155.7 1267.60   3
   6   0  -4 17467.9 1170.73   6
   6   0  -4 16459.1 1323.47   3
   6   0  -4 17038.8 1459.50   5
   6   0  -3 6660.78 778.527   4
  -6   0   3 7037.19 961.091   7
  -6   0   3 7513.54 764.191   3
   6   0  -3 6721.58 781.389   3
  -6   0   2 4098.77 740.667   7
   6   0  -2 3557.87 601.859   4
  -6   0   2 4272.92 539.791   3
   6   0  -2 4229.00 557.991   3
   6   0  -2 4444.14 794.200   1
   6   0  -1-67.2981 282.626   1
  -6   0   1 265.751 305.047   7
   6   0  -1 230.135 242.642   4
  -6   0   1 199.756 179.315   3
   6   0   0 1663.15 537.676   1
  -6   0   0 1193.27 486.420   7
   6   0   0 1144.79 196.300   6
  -6   0   0 652.241 156.046   3
   6   0   1 30865.1 1997.80   1
  -6   0  -1 28243.4 1896.17   7
   6   0   1 28111.2 726.623   6
   6   0   2 35240.8 2143.61   1
  -6   0  -2 35668.8 2160.40   7
  -6   0  -2 35881.9 1550.25   2
   6   0   2 34986.5 755.047   6
  -6   0  -3-68.5913 267.350   7
   6   0   3-198.669 405.846   1
  -6   0  -3 46.5800 134.109   2
   6   0   4 9370.74 1139.49   1
  -6   0  -4 8219.80 1078.26   7
  -6   0  -4 8203.68 602.448   2
  -6   0  -5 1121.08 472.985   7
  -6   0  -5 879.791 191.619   2
   6   0   5 615.549 324.315   1
  -6   0  -6 10111.0 1216.24   7
   6   0   6 9275.41 1184.39   1
  -6   0  -6 7374.34 684.131   6
   6   0   7 656.047 394.943   1
  -6   0  -7 404.589 222.329   6
  -6   0  -8 7912.60 1137.27   7
   6   0   8 11521.5 1389.34   1
  -6   0  -8 9422.06 973.618   6
  -6   0  -8 9986.35 652.537   3
   6   0   9 605.339 467.376   1
  -6   0  -9 570.777 375.657   7
  -6   0  -9 262.261 262.100   6
  -6   0 -10 9193.72 1309.67   7
   6   0  10 11799.7 1502.81   1
  -6   0 -10 9341.54 1119.63   6
  -6   0 -11 7.62520 158.122   7
   6   0  11 433.004 405.623   1
  -6   0 -11-384.986 324.684   6
  -6   0 -12 1770.36 626.488   7
  -6   0 -12 2538.95 696.247   6
   6   0  12 472.153 302.842   1
  -6   0 -13 53.6125 184.151   7
  -6   0 -13 364.102 413.430   6
  -6   0 -14 2843.92 831.618   7
  -6   0 -14 3855.75 942.855   6
   6   1  -9 1455.90 522.990   6
  -6  -1   9 1073.07 510.427   3
   6   1  -9 1082.13 498.067   5
   6   1  -8 3076.85 738.828   5
   6   1  -8 3580.78 772.906   6
  -6  -1   8 3772.20 781.019   3
   6   1  -7-123.873 277.331   5
   6   1  -7 311.828 247.032   6
  -6  -1   7 279.003 351.981   3
   6   1  -6 2890.26 704.201   5
   6   1  -6 2979.84 570.120   6
  -6  -1   6 3524.05 679.160   3
   6   1  -5 3716.71 776.891   5
   6   1  -5 3983.96 494.682   4
  -6  -1   5 3480.96 622.430   7
   6   1  -5 4344.46 660.604   6
  -6  -1   5 4524.88 723.881   3
   6   1  -4 2525.82 634.253   5
   6   1  -4 2905.08 579.716   3
   6   1  -4 2682.74 423.067   4
  -6  -1   4 3051.78 614.659   7
   6   1  -4 2326.46 551.129   7
   6   1  -4 3301.04 518.496   6
  -6  -1   4 2963.26 560.018   3
   6   1  -3 1236.91 353.092   3
  -6  -1   3 758.110 347.762   7
   6   1  -3 1087.85 309.741   4
   6   1  -3 176.913 133.424   7
   6   1  -3 1008.32 276.353   6
  -6  -1   3 1217.38 388.590   3
   6   1  -2 17311.5 1546.19   1
   6   1  -2 16286.5 1166.09   4
  -6  -1   2 16167.6 1379.61   7
   6   1  -2 16675.2 1361.50   7
  -6  -1   2 17520.3 1119.93   3
   6   1  -2 17164.3 852.277   6
   6   1  -1 22385.1 1752.30   1
   6   1  -1 19174.6 1310.30   4
  -6  -1   1 19515.7 1524.17   7
   6   1  -1 22003.0 1577.21   7
  -6  -1   1 20412.0 1082.56   3
   6   1  -1 19199.1 658.783   6
   6   1   0 33481.2 2099.97   1
  -6  -1   0 31921.6 1949.10   7
   6   1   0 32388.7 1913.53   7
  -6  -1   0 33044.7 1203.54   3
   6   1   1 202.888 341.377   1
  -6  -1  -1 20.0137 254.458   7
  -6  -1  -1 318.007 131.995   3
   6   1   2 529.929 394.075   1
  -6  -1  -2 266.466 295.759   7
  -6  -1  -3 4259.57 464.401   2
  -6  -1  -3 3578.27 703.228   7
   6   1   3 4419.92 786.694   1
   6   1   4 35518.5 2198.09   1
  -6  -1  -4 32952.5 2062.09   7
  -6  -1  -4 33261.1 1035.00   2
  -6  -1  -5 3061.09 197.983   2
  -6  -1  -5 3153.40 690.347   7
   6   1   5 3610.39 781.392   1
   6   1   6 4376.69 833.009   1
  -6  -1  -6 3103.98 685.188   7
  -6  -1  -6 3798.21 445.609   6
  -6  -1  -7 8363.65 1143.49   7
   6   1   7 10026.5 1258.52   1
  -6  -1  -7 7489.80 708.292   6
  -6  -1  -7 8369.41 520.985   3
  -6  -1  -8 11855.4 1385.78   7
   6   1   8 12955.0 1442.96   1
  -6  -1  -8 10994.4 965.454   6
  -6  -1  -8 10255.3 728.300   3
  -6  -1  -9 1398.49 575.779   7
   6   1   9 716.422 374.218   1
  -6  -1  -9 1648.14 441.177   6
  -6  -1 -10 5147.81 998.518   7
   6   1  10 6569.77 1114.95   1
  -6  -1 -10 5553.06 830.880   6
  -6  -1 -11-194.985 364.796   7
  -6  -1 -11 101.642 226.703   6
   6   1  11-144.937 311.442   1
  -6  -1 -12 2084.54 723.109   7
  -6  -1 -12 2860.34 690.375   6
   6   1  12 1815.82 713.948   1
  -6  -1 -13-240.625 299.226   7
  -6  -1 -13 492.632 307.900   6
  -6  -1 -14 753.596 446.058   7
  -6  -1 -14 729.729 471.864   6
  -6  -2   9 162.151 275.424   3
   6   2  -9 1392.80 636.684   5
   6   2  -8 1709.95 597.701   5
   6   2  -8 1497.28 485.833   6
  -6  -2   8 851.408 433.758   3
   6   2  -7 2910.58 756.310   5
   6   2  -7 2175.87 550.381   6
  -6  -2   7 1342.62 573.461   3
   6   2  -6 2160.21 667.392   5
   6   2  -6 1530.92 423.939   6
  -6  -2   6 2040.21 543.693   3
   6   2  -5 157.958 372.480   5
  -6  -2   5 598.164 305.377   7
   6   2  -5 868.449 299.193   6
  -6  -2   5 441.748 293.552   3
   6   2  -4 9825.09 673.636   4
  -6  -2   4 9209.90 972.244   7
   6   2  -4 9337.06 995.899   7
   6   2  -4 9349.20 843.027   6
  -6  -2   4 8962.80 996.975   3
   6   2  -4 7318.29 1099.12   5
   6   2  -3 7103.61 651.645   4
  -6  -2   3 6951.73 861.020   7
   6   2  -3 6641.00 848.063   7
   6   2  -3 7828.43 672.546   6
  -6  -2   3 6983.18 820.030   3
   6   2  -3 7809.44 1121.10   5
   6   2  -2 27941.3 1970.10   1
   6   2  -2 24347.5 1321.06   4
  -6  -2   2 26265.9 1696.52   7
   6   2  -2 25073.3 1633.15   7
   6   2  -2 26091.3 1000.64   6
  -6  -2   2 25402.5 1461.59   3
   6   2  -1 4489.06 789.420   1
  -6  -2   1 3881.05 680.988   7
   6   2  -1 4254.51 666.677   7
  -6  -2   1 4223.55 557.152   3
  -6  -2   0 776.257 254.301   3
   6   2   0 549.697 360.469   1
  -6  -2   0 260.648 322.453   7
   6   2   0 1004.33 356.071   7
   6   2   1 5431.32 897.837   1
  -6  -2  -1 4379.20 764.309   7
   6   2   1 5315.99 767.084   7
  -6  -2  -1 4744.14 477.580   3
   6   2   2 40034.4 2298.36   1
  -6  -2  -2 37134.3 2100.31   7
  -6  -2  -2 34941.0 1122.76   3
   6   2   3 32219.6 2061.86   1
  -6  -2  -3 32557.0 2012.97   7
  -6  -2  -3 31601.8 934.226   3
  -6  -2  -3 31485.0 930.570   3
  -6  -2  -4 869.245 176.883   3
   6   2   4 570.911 350.373   1
  -6  -2  -4 514.741 139.098   3
  -6  -2  -4 750.123 162.563   2
  -6  -2  -5 1012.77 456.433   7
   6   2   5 446.451 352.225   1
  -6  -2  -5 744.430 167.784   3
  -6  -2  -6 18713.1 1633.90   7
   6   2   6 21448.4 1773.37   1
  -6  -2  -6 17414.3 773.157   6
  -6  -2  -6 18860.3 897.872   3
  -6  -2  -7 2711.13 400.937   3
   6   2   7 3170.69 752.752   1
  -6  -2  -7 2593.77 403.376   6
   6   2   8 3799.90 811.513   1
  -6  -2  -8 5387.88 948.340   7
  -6  -2  -8 5008.92 624.602   6
  -6  -2  -8 4055.64 539.341   3
   6   2   9 4666.11 920.918   1
  -6  -2  -9 5534.34 992.487   7
  -6  -2  -9 4422.12 645.513   6
  -6  -2 -10 9572.87 1354.94   7
   6   2  10 8408.45 1264.20   1
  -6  -2 -10 7641.60 925.318   6
  -6  -2 -11-138.677 237.537   7
  -6  -2 -11-10.0841 185.274   6
   6   2  11-455.214 426.437   1
  -6  -2 -12 472.629 424.475   7
  -6  -2 -12 1276.32 477.431   6
   6   2  12 1311.29 641.970   1
  -6  -2 -13 1480.62 603.864   7
  -6  -2 -13 1248.42 535.489   6
  -6  -2 -14 1169.61 560.807   6
   6   3  -9 285.791 540.321   5
   6   3  -8 824.207 463.163   5
  -6  -3   8 793.968 454.974   3
   6   3  -7 475.556 459.428   5
   6   3  -7 447.066 276.565   6
  -6  -3   7 1072.52 449.025   3
  -6  -3   6 1808.18 550.895   3
   6   3  -6 3494.88 837.882   5
   6   3  -6 2074.04 506.880   6
  -6  -3   5 638.725 331.997   3
  -6  -3   5 139.667 147.371   7
   6   3  -5 336.085 207.448   6
  -6  -3   4 3004.07 612.300   3
   6   3  -4 2015.84 702.718   5
  -6  -3   4 1686.65 429.706   7
   6   3  -4 2153.11 417.788   6
  -6  -3   3-54.7301 215.294   3
   6   3  -3-50.5551 97.7214   4
  -6  -3   3 192.367 199.062   7
   6   3  -3 99.8454 167.611   7
   6   3  -3 222.411 142.510   6
   6   3  -2 7496.39 635.352   4
   6   3  -2 7465.80 1042.76   1
   6   3  -2 6592.97 614.037   4
  -6  -3   2 7720.31 911.807   7
   6   3  -2 7147.51 859.318   7
   6   3  -2 7706.79 568.314   6
  -6  -3   2 6929.31 822.397   3
   6   3  -2 6741.40 1089.26   5
   6   3  -1 1800.20 568.414   1
  -6  -3   1 2382.87 471.481   3
   6   3  -1 1653.85 336.100   4
  -6  -3   1 1766.17 502.946   7
   6   3  -1 2674.84 539.284   7
   6   3   0 61158.2 2859.58   1
  -6  -3   0 57553.8 2525.95   7
   6   3   0 56802.5 2419.20   7
  -6  -3   0 57323.2 2030.20   3
   6   3   1 8195.17 809.904   4
   6   3   1 11070.4 1229.74   1
  -6  -3  -1 9998.29 1081.18   7
   6   3   1 9363.99 999.954   7
  -6  -3  -1 9952.79 810.554   3
  -6  -3  -2 269.644 170.641   3
   6   3   2 452.608 264.732   4
   6   3   2 143.660 285.089   1
  -6  -3  -2 340.041 257.613   7
  -6  -3  -3 464.354 191.963   3
   6   3   3 687.324 292.688   4
   6   3   3 381.130 331.691   1
  -6  -3  -3 839.867 387.724   7
   6   3   4 11971.1 1074.45   4
  -6  -3  -4 13645.9 651.615   2
   6   3   4 11938.1 1298.58   1
  -6  -3  -4 11614.0 1246.69   7
  -6  -3  -4 11843.3 750.131   3
  -6  -3  -4 12585.2 805.306   3
  -6  -3  -5 407.264 355.573   7
   6   3   5 131.653 268.923   1
  -6  -3  -5 201.576 122.427   3
  -6  -3  -6 14373.4 1439.92   7
   6   3   6 13435.0 1396.02   1
  -6  -3  -6 12887.4 565.790   6
   6   3   7 723.432 393.133   1
  -6  -3  -7 499.056 358.009   7
  -6  -3  -7 419.052 172.594   6
  -6  -3  -7 1052.67 311.862   3
   6   3   8 3690.31 828.358   1
  -6  -3  -8 3239.36 779.389   7
  -6  -3  -8 4346.24 548.634   6
   6   3   9 6529.83 1085.29   1
  -6  -3  -9 7167.49 1120.19   7
  -6  -3  -9 7635.09 812.065   6
  -6  -3 -10 10857.6 1414.38   7
   6   3  10 11947.1 1510.30   1
  -6  -3 -10 10305.3 1032.82   6
  -6  -3 -11 4153.11 948.074   7
  -6  -3 -11 3967.66 718.143   6
   6   3  11 4412.68 943.013   1
  -6  -3 -12 6054.48 1134.43   7
  -6  -3 -12 4459.40 824.448   6
   6   3  12 5758.80 1124.72   1
  -6  -3 -13 280.853 296.588   7
  -6  -3 -13-66.9852 364.792   6
   6   4  -7-180.425 337.259   5
  -6  -4   7-648.906 381.382   3
   6   4  -6 2698.31 809.682   5
  -6  -4   6 2453.52 668.513   3
   6   4  -5 2595.47 765.040   5
  -6  -4   5 1705.11 543.760   3
   6   4  -5 1257.89 407.035   6
   6   4  -4 2351.56 784.804   5
  -6  -4   4 3012.55 656.647   3
  -6  -4   4 2180.41 443.288   7
   6   4  -4 1930.25 409.663   6
   6   4  -3 3279.11 866.047   5
  -6  -4   3 3553.43 686.954   3
  -6  -4   3 3421.52 573.890   7
   6   4  -3 2656.92 438.105   6
   6   4  -2 5687.85 1062.69   5
   6   4  -2 5419.81 464.862   4
  -6  -4   2 6401.85 810.978   7
   6   4  -2 5983.24 769.550   7
   6   4  -2 6269.37 557.191   6
  -6  -4   2 6302.39 837.104   3
   6   4  -1 1756.39 597.965   5
  -6  -4   1 2132.24 471.626   3
   6   4  -1 1897.57 327.309   4
  -6  -4   1 2045.00 506.912   7
   6   4  -1 1981.89 449.460   7
   6   4  -1 1668.00 522.782   1
   6   4   0 9537.73 1150.75   1
  -6  -4   0 8744.42 977.060   7
   6   4   0 9291.39 984.923   7
  -6  -4   0 11497.9 1015.39   3
  -6  -4  -1 2438.23 463.832   3
   6   4   1 3564.97 710.966   1
   6   4   1 2746.59 478.402   4
  -6  -4  -1 3421.42 669.884   7
   6   4   2 18770.3 1252.84   4
   6   4   2 22661.2 1729.83   1
  -6  -4  -2 24525.9 1721.65   7
  -6  -4  -2 21805.5 1319.14   3
   6   4   3 9471.59 931.864   4
  -6  -4  -3 10566.5 776.356   2
   6   4   3 10544.1 1196.77   1
  -6  -4  -3 10961.6 1187.80   7
  -6  -4  -3 10744.7 889.435   3
   6   4   4 14308.9 1173.54   4
  -6  -4  -4 15593.1 792.373   2
   6   4   4 16859.5 1538.81   1
  -6  -4  -4 15628.5 1437.51   7
  -6  -4  -5-15.7090 271.601   7
  -6  -4  -5 53.2119 44.5482   2
  -6  -4  -6 1561.28 552.231   7
  -6  -4  -6 1518.17 186.536   6
   6   4   6 1178.91 451.909   1
   6   4   7 159.226 276.650   1
  -6  -4  -7 128.246 132.084   6
  -6  -4  -8 15295.3 1597.47   7
   6   4   8 14454.5 1545.62   1
  -6  -4  -8 11003.7 1096.22   3
  -6  -4  -8 13674.1 918.509   6
   6   4   9 4639.76 923.682   1
  -6  -4  -9 3797.18 848.090   7
  -6  -4  -9 4630.61 615.907   6
  -6  -4 -10 3861.63 856.789   7
   6   4  10 4481.87 932.198   1
  -6  -4 -10 5113.97 715.061   6
  -6  -4 -11 987.483 522.399   7
  -6  -4 -11 756.240 347.765   6
   6   4  11 68.7779 307.627   1
  -6  -4 -12 3633.97 883.943   7
  -6  -4 -12 3886.24 738.592   6
   6   4  12 5034.36 1025.36   1
  -6  -4 -13 219.620 284.746   7
  -6  -5   7 1634.92 631.360   3
   6   5  -6 2700.76 900.388   5
  -6  -5   6 1974.34 626.673   3
   6   5  -5 1277.13 671.335   5
  -6  -5   5 591.652 404.054   3
   6   5  -4 1641.15 726.091   5
  -6  -5   4 468.383 329.166   3
   6   5  -3 2151.39 758.082   5
  -6  -5   3 1318.41 459.872   3
  -6  -5   3 2380.76 480.441   7
   6   5  -3 1833.74 384.473   6
   6   5  -2 2229.82 732.245   5
  -6  -5   2 1787.84 489.427   3
  -6  -5   2 2199.95 491.607   7
  -6  -5   1 370.991 273.185   3
  -6  -5   1 1157.90 413.291   7
   6   5  -1 744.336 361.141   1
   6   5   0 7399.41 717.962   4
   6   5   0 6995.46 995.486   1
  -6  -5   0 9147.66 998.405   7
  -6  -5   0 9170.35 1000.30   3
   6   5   0 8769.58 1309.05   5
   6   5   1 5209.84 871.096   1
  -6  -5  -1 6063.70 864.464   7
  -6  -5  -1 6068.08 798.651   3
   6   5   2 20205.1 1345.99   4
   6   5   2 24406.2 1814.15   1
  -6  -5  -2 23727.8 1404.34   2
  -6  -5  -2 23862.7 1699.98   7
  -6  -5  -2 26023.5 1579.78   3
  -6  -5  -3 935.397 335.066   3
   6   5   3 1052.35 333.626   4
   6   5   3 1101.45 478.430   1
  -6  -5  -3 782.479 423.876   7
   6   5   4 1215.50 355.889   4
  -6  -5  -4 1267.55 456.606   7
   6   5   4 938.009 444.247   1
  -6  -5  -4 1263.04 272.505   2
  -6  -5  -5 1921.01 246.541   2
  -6  -5  -5 1900.63 568.974   7
   6   5   5 1618.25 489.421   1
  -6  -5  -6 19500.1 1708.35   7
   6   5   6 18281.2 1651.29   1
  -6  -5  -6 15158.3 1122.53   3
  -6  -5  -6 15453.7 667.947   6
   6   5   7-584.454 363.423   1
  -6  -5  -7-152.546 281.376   7
  -6  -5  -7 11.2218 71.4809   6
  -6  -5  -7 7.37367 190.524   3
   6   5   8 2417.25 659.655   1
  -6  -5  -8 2583.23 726.767   7
  -6  -5  -8 1280.89 293.389   6
  -6  -5  -8 981.341 338.474   3
   6   5   9-330.207 333.466   1
  -6  -5  -9-73.6120 341.436   7
  -6  -5  -9-31.2895 160.280   6
   6   5  10 5968.88 1085.39   1
  -6  -5 -10 7293.81 1206.22   7
  -6  -5 -10 5629.32 733.650   6
  -6  -5 -11 1180.63 563.947   7
  -6  -5 -11 516.408 221.475   6
  -6  -5 -12 3076.93 833.876   7
   6   5  12 4354.79 987.481   1
  -6  -6   6 621.714 443.774   3
   6   6  -5 1293.26 644.545   5
  -6  -6   5 562.324 385.778   3
   6   6  -4 4422.79 1123.95   5
  -6  -6   4 3828.56 808.021   3
   6   6  -3 2930.57 952.057   5
  -6  -6   3 1285.65 472.579   3
   6   6  -2 2053.92 738.305   5
  -6  -6   2 2070.95 564.631   3
  -6  -6   2 1543.11 406.643   7
   6   6  -1 2429.34 784.626   5
  -6  -6   1 1543.70 486.494   3
  -6  -6   1 1558.64 429.961   7
  -6  -6   0 3425.96 671.761   3
  -6  -6   0 4922.70 741.406   7
   6   6   0 3519.93 738.128   1
   6   6   1 614.877 412.721   5
   6   6   1 451.335 294.199   1
  -6  -6  -1 335.918 265.691   3
  -6  -6  -1 1052.62 367.841   7
  -6  -6  -1 1329.14 406.589   2
   6   6   2 3297.52 856.736   5
   6   6   2 3431.26 717.020   1
  -6  -6  -2 4024.59 696.424   3
   6   6   2 2638.70 517.246   4
  -6  -6  -2 2260.57 579.943   7
  -6  -6  -2 4052.08 623.266   2
   6   6   3 7880.57 926.211   4
   6   6   3 6488.03 941.345   1
  -6  -6  -3 7518.65 786.780   2
  -6  -6  -3 7670.81 1025.10   7
  -6  -6  -3 7687.90 927.774   3
   6   6   4 11351.0 1265.26   1
  -6  -6  -4 12527.0 1331.50   7
  -6  -6  -5 4047.50 821.542   7
   6   6   5 3161.65 702.389   1
  -6  -6  -6 4290.38 854.798   7
   6   6   6 4572.98 858.586   1
  -6  -6  -6 3088.47 542.684   3
  -6  -6  -7-228.660 308.641   7
   6   6   7-173.261 257.826   1
   6   6   8 5199.25 947.401   1
  -6  -6  -8 6290.88 1056.40   7
   6   6   9 117.442 344.036   1
  -6  -6  -9 230.665 339.007   7
   6   6  10 3070.77 770.985   1
  -6  -6 -10 2062.04 737.679   7
  -6  -6 -11 808.634 473.453   7
   6   6  11 928.274 510.467   1
   6   6  12 2930.37 790.195   1
  -6  -7   4 551.190 391.190   3
   6   7  -3 696.806 576.328   5
  -6  -7   3 637.469 380.710   3
   6   7  -2 2618.15 909.536   5
  -6  -7   2 2658.51 656.670   3
   6   7  -1 2576.58 894.594   5
  -6  -7   1 2071.51 576.246   3
  -6  -7   1 2953.20 571.707   7
   6   7   0 2608.11 843.160   5
  -6  -7   0 1295.51 467.118   3
  -6  -7   0 1073.05 393.453   7
   6   7   0 1367.41 465.843   1
   6   7   1 1057.23 469.755   1
   6   7   1 1591.81 629.660   5
  -6  -7  -1 2012.24 535.743   3
  -6  -7  -1 1328.81 436.983   7
   6   7   2 2555.58 743.872   5
   6   7   2 2885.17 595.867   1
  -6  -7  -2 4427.45 794.124   3
  -6  -7  -2 4448.58 760.296   7
   6   7   3 297.686 233.962   5
  -6  -7  -3 322.333 308.858   3
   6   7   3 487.176 338.615   1
  -6  -7  -3 835.146 396.544   7
   6   7   4 6935.65 993.040   1
  -6  -7  -4 6346.29 984.366   7
   6   7   5 764.695 352.889   1
  -6  -7  -5 604.007 413.810   7
  -6  -7  -6 2387.51 648.191   7
   6   7   6 2363.69 593.216   1
  -6  -7  -7 1250.30 568.060   7
   6   7   7 1591.90 561.020   1
   6   7   8 3621.09 801.680   1
  -6  -7  -8 2009.73 652.064   7
   6   7   9 1737.53 584.981   1
  -6  -7  -9 1342.96 580.363   7
   6   7  10 1899.17 645.455   1
  -6  -7 -10 3777.52 937.423   7
   6   7  11 494.361 446.416   1
   6   7  12 1096.93 499.128   1
  -6  -8   3 725.993 488.779   3
  -6  -8   2 1907.79 593.396   3
   6   8  -1-574.177 450.759   5
  -6  -8   1-588.590 348.320   3
   6   8   0 1434.83 638.604   5
  -6  -8   0 1809.16 583.542   3
   6   8   1 389.323 458.589   5
  -6  -8  -1 664.939 365.190   3
  -6  -8  -1 816.629 365.459   7
   6   8   1-235.528 254.889   1
   6   8   2 4816.90 813.771   1
   6   8   2 2454.61 813.622   5
  -6  -8  -2 4147.11 834.109   3
  -6  -8  -2 3315.83 710.932   7
   6   8   3 1495.59 584.000   5
   6   8   3 781.234 300.572   1
  -6  -8  -3 1057.62 461.980   3
  -6  -8  -3 1709.83 550.184   7
   6   8   4 1600.05 652.658   5
   6   8   4 772.940 376.108   1
  -6  -8  -4 1471.25 538.942   7
   6   8   5 367.689 251.465   5
  -6  -8  -5 336.478 249.245   7
   6   8   6 2319.40 663.019   5
  -6  -8  -6 2949.89 726.011   7
   6   8   6 2000.15 554.565   1
  -6  -8  -7 270.079 325.154   7
   6   8   7-548.552 353.365   1
  -6  -8  -8 2947.56 761.602   7
   6   8   8 1865.56 596.004   1
   6   8   9 456.027 397.018   1
  -6  -8  -9 547.401 395.512   7
   6   8  10 1094.83 506.059   1
   6   8  11 357.961 378.635   1
  -6  -9   1 1089.94 503.533   3
  -6  -9   0 2312.74 683.553   3
   6   9   1 1141.96 565.288   5
  -6  -9  -1 1057.64 499.638   3
   6   9   2 1645.34 774.354   5
  -6  -9  -2 671.156 356.393   3
  -6  -9  -2 590.005 375.897   7
   6   9   3 1108.83 718.622   5
  -6  -9  -3 2936.97 713.573   3
  -6  -9  -3 1371.18 501.403   7
   6   9   4 2172.14 719.060   5
  -6  -9  -4 2822.07 719.516   7
   6   9   5 164.667 210.177   1
  -6  -9  -5-360.086 368.571   7
   6   9   6 3368.10 846.619   5
   6   9   6 1998.31 523.718   1
  -6  -9  -6 3799.07 858.837   7
   6   9   7-27.5193 253.352   5
  -6  -9  -7 406.793 406.125   7
   6   9   7 575.303 297.058   1
  -6  -9  -8 935.621 519.768   7
   6   9   8 446.902 284.892   1
   6   9   9-156.363 224.340   5
   6   9   9 949.162 383.646   1
   6   9  10 2494.69 695.729   1
   6   9  10 747.275 374.988   5
   6   9  11 632.473 355.514   1
  -6 -10  -3 2882.06 801.474   3
  -6 -10  -3 2276.11 634.964   7
   6  10   4 1669.30 648.344   5
  -6 -10  -4 2688.32 711.056   7
   6  10   5 1727.65 658.688   5
  -6 -10  -5 794.456 441.616   7
   6  10   6 365.279 346.746   5
  -6 -10  -6 635.574 425.630   7
   6  10   7 948.877 557.445   5
   6  10   8 1240.49 555.514   5
  -7   7   1 825.045 458.751   2
  -7   7   0 939.073 571.872   2
  -7   7  -1 2502.22 737.173   2
   7  -7   1 2553.43 684.533   1
  -7   7  -2 352.844 276.021   2
  -7   7  -3 815.177 404.272   2
  -7   7  -4 1805.40 593.156   2
  -7   7  -5-361.190 328.464   2
   7  -6  -4-105.509 249.484   4
   7  -6  -3 2358.62 722.699   4
  -7   6   3 1516.13 595.334   2
   7  -6  -2 253.254 358.988   4
  -7   6   2 246.790 324.420   2
   7  -6  -1 2521.71 772.194   4
  -7   6   1 1992.33 631.830   2
   7  -6   0 681.053 425.079   4
  -7   6   0 374.408 314.108   2
   7  -6   0 1011.73 449.045   1
   7  -6   1 1688.30 574.818   1
  -7   6  -1 772.749 392.945   7
   7  -6   1 1489.61 596.672   4
  -7   6  -1 1458.32 485.096   2
   7  -6   2-703.914 399.266   1
  -7   6  -2 21.2722 328.006   7
  -7   6  -2-61.7885 141.081   2
   7  -6   3 4491.64 862.504   1
  -7   6  -3 4349.55 966.281   7
   7  -6   3 3848.22 967.709   4
  -7   6  -3 5081.31 952.510   2
   7  -6   4-438.656 337.711   1
  -7   6  -4-120.731 280.149   7
  -7   6  -4 352.970 332.031   2
   7  -6   5 1621.77 534.228   1
  -7   6  -5 2104.27 676.131   7
  -7   6  -5 1712.12 572.394   2
   7  -6   6-724.564 363.389   1
  -7   6  -6-34.4221 124.504   7
   7  -5  -7 1652.40 527.268   4
   7  -5  -6 1143.35 452.207   4
   7  -5  -5 755.980 362.162   4
   7  -5  -4-403.237 352.708   4
  -7   5   4 758.195 443.549   2
   7  -5  -3 3126.81 779.029   4
  -7   5   3 1067.42 558.114   2
   7  -5  -2 2034.58 649.098   4
  -7   5   2 1375.83 538.236   2
  -7   5   1 4491.27 936.171   7
   7  -5  -1 3174.01 823.018   4
  -7   5   1 3420.68 821.493   2
   7  -5  -1 3858.19 793.408   1
   7  -5   0 1147.66 492.129   1
  -7   5   0 1776.06 691.952   7
   7  -5   0 1094.05 525.639   4
  -7   5   0 967.172 490.432   2
   7  -5   1 8268.98 1149.71   1
   7  -5   1 9475.74 1398.00   4
  -7   5  -1 10679.7 1428.46   7
  -7   5  -1 8784.17 1260.37   2
   7  -5   2 669.397 392.760   1
  -7   5  -2 600.066 345.026   7
   7  -5   2-604.279 393.216   4
  -7   5  -2 589.202 428.979   2
   7  -5   3 4239.77 855.284   1
  -7   5  -3 4394.91 991.070   7
   7  -5   3 4498.87 1047.80   4
  -7   5  -3 3022.00 696.418   2
   7  -5   4-457.903 388.481   1
  -7   5  -4-443.286 356.393   7
   7  -5   4 566.713 456.968   4
  -7   5  -4-188.673 210.947   2
   7  -5   5 2648.03 700.563   1
  -7   5  -5 1674.85 618.910   7
   7  -5   5 2593.46 836.241   4
  -7   5  -5 2175.23 557.445   2
  -7   5  -6 282.577 338.251   7
   7  -5   6 401.402 330.138   1
   7  -5   6-181.132 461.153   4
  -7   5  -7 1661.04 638.597   7
   7  -5   7 1767.36 638.524   1
  -7   5  -8 82.0827 215.049   7
   7  -5   8-655.868 392.723   1
   7  -5   9 1594.34 625.471   1
   7  -4  -7-50.5315 212.506   4
   7  -4  -6 536.285 350.789   4
  -7   4   5 5855.90 1084.96   2
   7  -4  -5 4280.86 847.902   4
   7  -4  -4 156.925 283.188   4
  -7   4   4 971.170 488.062   2
   7  -4  -3 4087.74 843.878   4
  -7   4   3 1622.37 575.473   2
  -7   4   2 5021.77 998.311   7
   7  -4  -2 4970.35 941.845   4
  -7   4   2 2271.63 633.636   2
   7  -4  -1 7723.74 1140.16   1
   7  -4  -1 7229.00 1156.55   4
  -7   4   1 8363.74 1256.61   7
  -7   4   1 7297.18 1139.78   2
   7  -4   0 3558.53 781.448   1
  -7   4   0 2851.62 775.659   7
   7  -4   0 4592.18 941.904   4
  -7   4   0 3186.18 750.178   2
   7  -4   1 1747.75 573.088   1
  -7   4  -1 1873.80 637.913   7
   7  -4   1 2262.67 676.285   4
  -7   4  -1 1236.75 449.126   2
   7  -4   2 146.627 298.584   1
  -7   4  -2 310.074 307.286   7
   7  -4   2-693.430 463.381   4
  -7   4  -2 250.481 240.195   2
   7  -4   3 9720.50 1250.14   1
  -7   4  -3 8068.34 1243.84   7
  -7   4  -3 7103.65 974.355   2
   7  -4   3 7428.55 1255.71   4
   7  -4   4-369.659 454.877   1
  -7   4  -4 260.787 324.807   7
   7  -4   4-720.280 455.177   4
  -7   4  -4 414.885 291.196   2
   7  -4   5 11411.0 1604.58   4
  -7   4  -5 10126.2 1095.73   2
   7  -4   5 10699.4 1357.55   1
  -7   4  -5 11577.6 1510.57   7
  -7   4  -6 208.304 335.605   7
  -7   4  -6 276.204 198.506   2
   7  -4   6 360.350 398.477   1
  -7   4  -7 1849.14 685.675   7
   7  -4   7 2276.52 674.589   1
  -7   4  -8-886.528 510.427   7
   7  -4   8 658.822 401.149   1
  -7   4  -9 447.320 348.012   7
   7  -4   9 2033.28 681.139   1
  -7   4 -10 292.998 295.409   7
   7  -4  10 1223.56 602.068   1
  -7   3   6 2379.56 676.260   2
   7  -3  -6 2369.83 587.546   4
  -7   3   5 2682.78 693.796   2
   7  -3  -5 3224.37 710.866   4
  -7   3   4-26.0849 243.551   2
   7  -3  -4 1418.44 514.986   4
  -7   3   3 2247.55 625.563   2
  -7   3   3 1974.98 602.985   7
   7  -3  -3 1990.26 598.239   4
  -7   3   2 993.048 466.730   7
   7  -3  -2 422.591 360.286   4
   7  -3  -2 278.631 370.331   1
  -7   3   2 267.255 231.851   2
  -7   3   1 3130.40 773.680   7
   7  -3  -1 2876.31 728.944   4
  -7   3   1 2018.64 572.559   2
   7  -3  -1 3180.39 756.576   1
   7  -3   0 4578.83 894.379   1
  -7   3   0 6084.70 1068.87   7
   7  -3   0 4597.60 902.629   4
  -7   3   0 5381.05 902.368   2
   7  -3   1 19652.7 1776.55   1
   7  -3   1 19965.0 1869.60   4
  -7   3  -1 17934.4 1781.07   7
  -7   3  -1 16396.2 1480.85   2
   7  -3   2 1821.06 589.900   1
  -7   3  -2 2407.33 667.313   7
   7  -3   2 2915.28 780.770   4
  -7   3  -2 1889.74 496.657   2
   7  -3   3 11575.6 1366.39   1
  -7   3  -3 8353.85 985.248   2
  -7   3  -3 7833.87 1191.07   7
   7  -3   3 7710.65 1217.31   4
   7  -3   4 226.847 310.341   1
  -7   3  -4 521.409 374.703   7
  -7   3  -4 397.934 256.626   2
  -7   3  -5 2557.07 716.327   7
   7  -3   5 2962.24 768.997   1
  -7   3  -5 2200.85 469.012   2
  -7   3  -6 7119.63 801.387   2
   7  -3   6 7618.38 1158.25   1
  -7   3  -6 5089.77 993.744   7
   7  -3   7 8721.01 1292.05   1
  -7   3  -7 7452.01 1227.18   7
  -7   3  -8-632.637 496.498   7
   7  -3   8 257.297 320.595   1
  -7   3  -9 1166.04 524.495   7
   7  -3   9 1173.48 577.135   1
   7  -3  10-436.239 401.169   1
  -7   3 -10 283.156 333.226   7
  -7   3 -10-13.4752 155.330   6
  -7   3 -11 73.2879 207.846   7
   7  -2  -6 262.087 203.765   4
   7  -2  -5 1810.44 518.345   5
   7  -2  -5 1725.24 488.456   4
  -7   2   5 1949.23 450.488   3
  -7   2   4-39.3599 276.049   7
   7  -2  -4 426.545 307.098   4
   7  -2  -3 6833.70 969.835   4
  -7   2   3 8539.68 1192.29   7
  -7   2   3 7311.52 1036.59   2
  -7   2   2-178.568 186.681   2
  -7   2   2 504.875 448.893   7
   7  -2  -2 203.702 256.341   4
   7  -2  -2-144.564 356.890   1
  -7   2   1 5573.96 882.306   2
   7  -2  -1 9293.07 1239.05   1
   7  -2  -1 9550.75 1218.66   4
  -7   2   1 9158.09 1225.64   7
   7  -2   0 3149.42 730.256   1
  -7   2   0 4443.24 895.154   7
   7  -2   0 4521.67 871.167   4
  -7   2   0 4229.43 765.944   2
   7  -2   1 5370.39 939.960   1
  -7   2  -1 4438.04 901.188   7
   7  -2   1 3541.77 804.466   4
  -7   2  -1 4488.91 733.157   2
   7  -2   2-82.0618 327.686   1
  -7   2  -2 45.7630 309.947   7
   7  -2   2-63.1129 267.703   4
  -7   2  -2 367.269 251.518   2
   7  -2   3 6005.70 997.488   1
  -7   2  -3 6082.76 773.752   2
  -7   2  -3 4710.97 948.459   7
  -7   2  -4 4962.43 664.804   2
  -7   2  -4 5311.41 984.937   7
   7  -2   4 4395.96 882.140   1
  -7   2  -5 17680.7 1177.35   2
   7  -2   5 17424.6 1722.81   1
  -7   2  -5 18682.0 1861.66   7
  -7   2  -6 1839.35 621.247   7
  -7   2  -6 1238.49 298.031   2
   7  -2   6 2442.86 684.338   1
  -7   2  -7 2899.95 759.579   7
   7  -2   7 3216.93 813.104   1
  -7   2  -8 846.692 527.406   7
   7  -2   8 910.461 481.999   1
   7  -2   9 6212.20 1131.57   1
  -7   2  -9 5043.48 1093.53   7
  -7   2  -9 5041.90 841.386   6
   7  -2  10 463.998 515.010   1
  -7   2 -10 553.971 436.399   7
  -7   2 -10 602.817 316.719   6
  -7   2 -11 2163.84 731.813   7
  -7   1   7 1879.87 466.008   3
   7  -1  -6 17.9802 196.570   5
  -7   1   6 401.878 271.872   3
   7  -1  -5 3403.40 721.524   5
   7  -1  -5 4241.31 700.038   4
  -7   1   5 3917.66 613.604   3
  -7   1   4 501.918 407.076   7
   7  -1  -4 422.512 266.940   4
  -7   1   4 488.849 208.290   3
  -7   1   3 1662.29 566.926   7
   7  -1  -3 1721.50 469.571   4
  -7   1   3 1527.86 337.863   3
  -7   1   2 393.042 270.003   7
   7  -1  -2 713.505 334.883   4
  -7   1   2 839.400 226.631   3
   7  -1  -2 1358.22 529.489   1
   7  -1  -1-38.7216 386.287   1
  -7   1   1 156.634 210.666   2
  -7   1   1 636.243 374.683   7
   7  -1  -1 221.525 157.494   4
  -7   1   0-93.7120 195.219   2
   7  -1   0 30.2445 329.666   1
  -7   1   0 20.1896 338.255   7
   7  -1   0 391.335 373.944   4
   7  -1   1 10775.2 1307.25   1
   7  -1   1 11192.0 1283.68   4
  -7   1  -1 11650.4 1383.22   7
  -7   1  -1 9887.13 1015.27   2
   7  -1   1 9768.85 658.868   6
   7  -1   2 5470.09 956.169   1
  -7   1  -2 6072.38 756.448   2
  -7   1  -2 5694.66 979.862   7
   7  -1   2 5541.61 478.103   6
   7  -1   3 31593.2 2225.79   1
  -7   1  -3 32260.3 2315.75   7
  -7   1  -3 30268.7 1559.73   2
   7  -1   3 29069.7 1114.69   6
  -7   1  -4 4783.31 587.570   2
  -7   1  -4 3823.47 823.206   7
   7  -1   4 3637.79 788.140   1
  -7   1  -5 1581.14 589.900   7
  -7   1  -5 1965.64 366.381   2
   7  -1   5 2023.73 677.323   1
  -7   1  -6 569.470 374.531   7
   7  -1   6 1210.72 526.136   1
  -7   1  -7 14954.3 1674.68   7
   7  -1   7 13727.2 1575.05   1
   7  -1   8 3074.38 795.414   1
  -7   1  -8 1852.00 624.953   7
   7  -1   9 5151.14 1040.09   1
  -7   1  -9 5211.04 1046.04   7
  -7   1  -9 3622.56 668.001   6
   7  -1  10-307.511 358.604   1
  -7   1 -10 16.8781 346.366   7
  -7   1 -10 581.206 308.280   6
   7  -1  11 2531.80 829.543   1
  -7   1 -11 2577.24 809.533   7
  -7   1 -12 135.369 310.701   7
  -7   0   8 99.9744 336.112   3
   7   0  -7 1622.44 569.397   5
  -7   0   7 940.117 376.495   3
   7   0  -6-291.481 333.792   5
  -7   0   6 160.359 226.109   3
   7   0  -5 1465.25 523.757   5
  -7   0   5 1333.71 410.488   3
   7   0  -4 1353.57 486.134   5
  -7   0   4 1931.87 574.599   7
   7   0  -4 1335.20 410.304   4
  -7   0   4 2559.62 499.743   3
  -7   0   3 4756.54 871.420   7
   7   0  -3 3816.48 657.023   4
  -7   0   3 4682.58 606.385   3
   7   0  -3 3675.17 484.952   6
  -7   0   2 750.249 416.338   7
   7   0  -2 460.225 311.552   4
   7   0  -2 195.349 144.118   6
  -7   0   2-73.1366 110.228   3
   7   0  -2 162.019 273.594   1
   7   0  -1 5651.69 984.166   1
  -7   0   1 4898.33 880.794   7
   7   0  -1 5234.80 826.557   4
  -7   0   1 4760.81 461.615   3
   7   0  -1 4121.84 354.574   6
  -7   0   0 4570.91 858.138   7
   7   0   0 4954.07 814.685   4
   7   0   0 4213.22 240.840   6
   7   0   0 4257.84 226.458   6
   7   0   1 5020.36 936.343   1
  -7   0  -1 3703.85 841.972   7
  -7   0  -1 5325.18 716.127   2
   7   0   2 172.894 376.140   1
  -7   0  -2 520.458 433.493   7
  -7   0  -2 471.487 267.036   2
   7   0   3 3443.89 755.265   1
  -7   0  -3 3209.36 765.190   7
  -7   0  -3 2425.36 432.689   2
  -7   0  -4-176.972 312.875   7
   7   0   4-10.2641 277.287   1
  -7   0  -4 77.3006 139.803   2
  -7   0  -5 35195.8 1206.67   2
   7   0   5 37655.3 2508.12   1
  -7   0  -5 37594.7 2507.57   7
  -7   0  -6 2649.84 721.250   7
   7   0   6 3558.02 852.335   1
  -7   0  -7 2556.26 706.557   7
   7   0   7 2768.72 766.856   1
   7   0   8-2.40514 316.755   1
  -7   0  -8-174.526 295.978   7
  -7   0  -8 69.3813 152.041   6
   7   0   9 6742.08 1205.54   1
  -7   0  -9 6892.94 1178.45   7
  -7   0  -9 7872.18 900.793   6
   7   0  10 754.467 453.159   1
  -7   0 -10 95.3628 306.260   7
   7   0  11 3165.03 902.308   1
  -7   0 -11 2441.91 775.610   7
  -7   0 -12-43.7526 143.876   7
  -7  -1   8 871.115 396.269   3
   7   1  -7 1641.82 607.477   5
  -7  -1   7 2165.22 627.757   3
   7   1  -6-80.5149 324.833   5
  -7  -1   6 1001.61 414.031   3
   7   1  -5 1839.70 632.504   5
  -7  -1   5 1958.81 533.861   7
  -7  -1   5 1965.84 513.052   3
   7   1  -4 1487.89 579.623   5
  -7  -1   4 755.956 371.327   7
  -7  -1   4 1281.55 413.732   3
  -7  -1   3 6045.24 916.423   7
   7   1  -3 4387.11 638.939   4
  -7  -1   3 5116.64 674.147   3
  -7  -1   2-59.2680 299.500   7
   7   1  -2 479.721 272.128   4
   7   1  -2 596.744 295.085   1
  -7  -1   2 694.804 260.401   3
   7   1  -1 3497.70 771.081   1
  -7  -1   1 2854.70 653.875   7
   7   1  -1 2968.37 596.745   4
  -7  -1   1 3112.54 433.327   3
   7   1   0 192.453 229.767   1
  -7  -1   0 1201.11 419.983   7
  -7  -1   0 909.691 209.662   3
   7   1   1-352.157 470.848   1
  -7  -1  -1 230.429 283.229   7
  -7  -1  -1 94.0897 46.8029   3
   7   1   2 11727.5 1378.71   1
  -7  -1  -2 9807.61 1259.18   7
  -7  -1  -2 10791.3 893.456   2
  -7  -1  -3 18826.9 1700.63   7
  -7  -1  -3 16806.6 1005.89   2
  -7  -1  -4 4336.01 437.708   2
  -7  -1  -4 3065.23 751.011   7
   7   1   4 4554.13 898.428   1
  -7  -1  -5 3414.64 288.935   2
  -7  -1  -5 4071.33 851.326   7
   7   1   5 4519.14 902.465   1
  -7  -1  -6 694.883 440.624   7
   7   1   6 788.116 408.597   1
  -7  -1  -7 10623.5 1377.06   7
   7   1   7 12010.5 1481.55   1
   7   1   8 3565.61 891.563   1
  -7  -1  -8 3270.61 831.234   7
   7   1   9 7806.02 1246.11   1
  -7  -1  -9 6315.84 1114.38   7
   7   1  10 459.438 411.342   1
  -7  -1 -10-220.628 418.803   7
   7   1  11 1340.13 565.418   1
  -7  -1 -11 813.445 516.102   7
  -7  -1 -12-262.817 323.816   7
  -7  -2   8 854.124 388.944   3
   7   2  -7 910.908 515.142   5
  -7  -2   7 552.437 360.350   3
   7   2  -6 74.4827 280.478   5
  -7  -2   6 465.155 295.805   3
   7   2  -5 2601.25 751.677   5
  -7  -2   5 2556.76 576.734   7
  -7  -2   5 3407.44 675.741   3
   7   2  -4 273.938 358.782   5
  -7  -2   4 340.720 208.823   7
  -7  -2   4 409.540 261.035   3
   7   2  -3 5480.82 1036.97   5
   7   2  -3 5224.36 632.666   4
  -7  -2   3 4435.69 772.503   7
  -7  -2   3 5041.15 723.533   3
   7   2  -2 4288.84 628.591   4
  -7  -2   2 3967.40 743.808   7
  -7  -2   2 4266.29 611.229   3
   7   2  -2 3426.93 768.256   1
   7   2  -1 9389.95 1270.39   1
   7   2  -1 7292.97 851.449   4
  -7  -2   1 7804.31 1036.15   7
  -7  -2   1 7690.77 743.650   3
   7   2   0 1506.82 525.835   1
  -7  -2   0 2358.44 619.849   7
  -7  -2   0 2697.74 416.210   3
   7   2   1 3342.51 755.077   1
  -7  -2  -1 2773.46 686.090   7
  -7  -2  -1 2855.38 360.004   3
   7   2   2 6768.30 1038.42   1
  -7  -2  -2 8353.78 1133.99   7
  -7  -2  -2 7726.14 465.282   3
  -7  -2  -3-79.8060 179.537   2
   7   2   3 541.392 412.581   1
  -7  -2  -3-139.006 398.549   7
  -7  -2  -4-375.681 373.380   7
   7   2   4 215.718 230.787   1
  -7  -2  -4 13.0099 96.8083   2
   7   2   5 13736.0 1507.55   1
  -7  -2  -5 13793.8 1495.36   7
  -7  -2  -6 7082.42 1093.92   7
   7   2   6 8273.34 1223.49   1
  -7  -2  -7 11716.2 1437.07   7
   7   2   7 10222.9 1365.62   1
   7   2   8 3919.70 890.052   1
  -7  -2  -8 3395.64 823.360   7
   7   2   9 1306.40 573.014   1
  -7  -2  -9 2169.43 665.600   7
   7   2  10 334.562 314.989   1
  -7  -2 -10 195.549 241.958   7
   7   2  11 4257.00 1017.05   1
  -7  -2 -11 4427.99 993.614   7
  -7  -2 -12 609.668 410.529   7
   7   3  -7 1739.74 714.487   5
  -7  -3   7 1424.28 541.899   3
   7   3  -6 679.262 472.118   5
  -7  -3   6 623.949 385.004   3
   7   3  -5 1433.43 614.881   5
  -7  -3   5 2500.05 592.219   3
  -7  -3   4 2019.06 513.966   3
   7   3  -4 1737.07 627.476   5
  -7  -3   4 2169.29 528.674   7
  -7  -3   3 2940.31 608.478   3
   7   3  -3 3371.89 906.472   5
  -7  -3   3 1864.87 490.060   7
  -7  -3   2 69.0166 199.107   3
   7   3  -2-164.209 342.409   5
  -7  -3   2 66.3205 241.014   7
   7   3  -2 22.9938 153.138   4
   7   3  -2-25.8995 256.613   1
  -7  -3   1 3422.28 556.285   3
   7   3  -1 4204.92 614.786   4
  -7  -3   1 4464.87 810.838   7
   7   3  -1 4607.49 893.536   1
  -7  -3   0 1060.07 310.598   3
   7   3   0 866.547 415.429   1
   7   3   0 1165.66 312.478   4
  -7  -3   0 616.982 346.208   7
   7   3   1 6365.73 777.016   4
   7   3   1 7771.63 1114.19   1
  -7  -3  -1 7398.77 1027.26   7
  -7  -3  -1 7103.08 679.980   3
  -7  -3  -2 977.166 259.916   3
   7   3   2 1255.05 352.042   4
   7   3   2 1172.42 463.675   1
  -7  -3  -2 1176.30 441.582   7
  -7  -3  -3 1693.69 284.412   3
   7   3   3 1280.85 510.563   1
  -7  -3  -3 2237.11 606.607   7
   7   3   4 6556.74 1063.31   1
  -7  -3  -4 6728.61 1029.02   7
  -7  -3  -4 5607.70 446.572   2
  -7  -3  -4 5667.19 468.911   3
  -7  -3  -4 5685.82 474.051   3
   7   3   5 7802.72 1146.84   1
  -7  -3  -5 7720.19 1126.57   7
  -7  -3  -5 6687.02 495.430   3
  -7  -3  -6 53.6834 83.0171   3
   7   3   6-208.193 320.958   1
  -7  -3  -7 3200.03 799.684   7
   7   3   7 2258.82 662.480   1
   7   3   8 6112.90 1091.42   1
  -7  -3  -8 6865.02 1128.66   7
  -7  -3  -9 8508.38 1293.47   7
   7   3   9 8700.50 1340.60   1
   7   3  10 3028.18 812.853   1
  -7  -3 -10 3231.53 840.100   7
   7   3  11 1111.65 480.030   1
  -7  -3 -11 1434.15 582.040   7
  -7  -4   6 79.9513 249.690   3
  -7  -4   5 2779.68 694.272   3
   7   4  -5 1498.75 671.606   5
  -7  -4   4 420.333 275.765   3
   7   4  -4 181.496 342.802   5
  -7  -4   3 627.470 300.344   3
  -7  -4   3 1129.01 400.848   7
  -7  -4   2 1881.40 519.986   3
   7   4  -2 2158.97 768.524   5
  -7  -4   2 1123.77 408.351   7
   7   4  -1 6671.88 1200.08   5
   7   4  -1 8613.89 1203.66   1
   7   4  -1 6441.85 695.336   4
  -7  -4   1 7501.78 988.144   7
  -7  -4   1 8680.02 958.647   3
   7   4   0 1472.90 523.630   1
  -7  -4   0 1290.49 377.272   3
  -7  -4   0 1114.35 454.671   7
   7   4   1 5431.15 947.367   1
   7   4   1 4135.32 611.035   4
  -7  -4  -1 4623.61 815.530   7
  -7  -4  -1 5254.74 671.371   3
  -7  -4  -2 711.147 249.999   3
   7   4   2 1537.25 576.895   1
   7   4   2 1102.15 333.327   4
  -7  -4  -2 571.029 323.199   7
   7   4   3 5038.05 923.336   1
  -7  -4  -3 4630.96 844.461   7
  -7  -4  -3 5511.74 625.138   3
  -7  -4  -4 867.221 258.065   3
   7   4   4 524.408 337.183   1
  -7  -4  -4 500.485 362.241   7
  -7  -4  -5 854.835 263.483   3
  -7  -4  -5 1487.85 568.644   7
   7   4   5 1296.98 554.142   1
  -7  -4  -6 1318.41 552.719   7
   7   4   6 819.449 408.876   1
  -7  -4  -7 8842.51 1251.99   7
   7   4   7 9757.33 1340.45   1
   7   4   8 1193.60 545.800   1
  -7  -4  -8 1868.21 681.264   7
   7   4   9 1660.68 611.635   1
  -7  -4  -9 2076.62 649.726   7
   7   4  10 2144.47 709.421   1
  -7  -4 -10 1747.96 644.727   7
   7   4  11 3318.51 845.249   1
  -7  -4 -11 4109.58 917.524   7
  -7  -5   6 1377.21 543.925   3
  -7  -5   5 471.837 348.291   3
   7   5  -4 1216.42 701.465   5
  -7  -5   4 1077.59 449.479   3
   7   5  -3 2800.36 922.792   5
  -7  -5   3 3426.54 731.329   3
   7   5  -2 522.893 370.393   5
  -7  -5   2 1694.92 501.808   3
  -7  -5   2 1019.33 363.703   7
   7   5  -1 697.578 465.806   5
  -7  -5   1 1171.42 404.422   3
  -7  -5   1 1663.00 488.419   7
   7   5  -1 564.157 367.807   1
   7   5   0 113.101 377.105   1
   7   5   0 315.920 413.063   5
  -7  -5   0 227.388 209.370   3
  -7  -5   0-207.007 254.989   7
   7   5   1 4649.91 888.689   1
  -7  -5  -1 5152.06 865.722   7
  -7  -5  -1 4705.57 707.744   3
  -7  -5  -2 3503.23 594.422   3
   7   5   2 4507.09 865.038   1
  -7  -5  -2 3261.82 722.692   7
  -7  -5  -3 4028.26 603.051   3
   7   5   3 3313.21 764.573   1
  -7  -5  -3 4909.36 894.927   7
  -7  -5  -4 1452.68 383.867   3
   7   5   4 1272.98 527.780   1
  -7  -5  -4 1732.85 555.336   7
  -7  -5  -5 3526.42 563.794   3
  -7  -5  -5 4708.26 925.332   7
   7   5   5 4256.84 863.575   1
  -7  -5  -6 384.788 327.657   7
   7   5   6-704.984 402.858   1
  -7  -5  -7 4871.57 967.000   7
   7   5   7 5124.33 964.280   1
  -7  -5  -8 16.9407 339.338   7
   7   5   8 841.505 474.162   1
   7   5   9 2388.27 720.440   1
  -7  -5  -9 2574.84 782.210   7
   7   5  10 1056.56 521.224   1
  -7  -5 -10 761.934 447.061   7
   7   5  11 1996.08 645.189   1
  -7  -6   4-142.225 265.244   3
  -7  -6   3 1070.42 461.797   3
   7   6  -2 96.0127 334.270   5
  -7  -6   2 1654.24 458.892   3
   7   6  -1 2095.84 820.843   5
  -7  -6   1 2782.59 642.805   3
  -7  -6   1 2801.17 604.669   7
   7   6   0 3401.19 970.804   5
  -7  -6   0 2230.63 566.712   3
  -7  -6   0 2770.10 595.436   7
   7   6   0 2137.48 620.038   1
   7   6   1 2500.41 664.166   1
   7   6   1 3272.31 941.528   5
  -7  -6  -1 2510.04 570.945   3
  -7  -6  -1 2940.42 661.099   7
   7   6   2 608.958 452.971   5
   7   6   2 756.153 396.531   1
  -7  -6  -2 167.997 210.803   3
  -7  -6  -2 140.158 240.344   7
  -7  -6  -3 3357.70 625.174   3
   7   6   3 4803.41 939.225   1
  -7  -6  -3 4140.63 811.546   7
  -7  -6  -4 494.362 274.800   3
   7   6   4 792.130 396.130   1
  -7  -6  -4 1213.52 499.477   7
   7   6   5 6390.44 1077.52   1
  -7  -6  -5 4968.29 925.708   7
  -7  -6  -6 798.592 396.548   7
   7   6   6 1264.92 518.529   1
  -7  -6  -7 1552.95 586.282   7
   7   6   7 1638.93 551.041   1
  -7  -6  -8 1315.65 555.041   7
   7   6   8 2532.10 726.729   1
   7   6   9 3286.91 848.398   1
  -7  -6  -9 3856.71 921.466   7
   7   6  10 1196.78 627.935   1
   7   6  11 2807.98 854.041   1
  -7  -7   3 1907.25 624.465   3
  -7  -7   2 576.173 365.320   3
  -7  -7   1 2372.19 607.126   3
   7   7   0 539.722 440.051   5
  -7  -7   0 173.291 185.093   3
   7   7   0-528.054 351.215   1
   7   7   1 3325.16 977.040   5
  -7  -7  -1 2081.53 561.665   3
  -7  -7  -1 2284.78 566.859   7
   7   7   1 2322.46 660.521   1
   7   7   2 543.712 455.864   5
   7   7   2 630.050 418.386   1
  -7  -7  -2 1592.18 502.629   3
  -7  -7  -2 960.504 428.879   7
   7   7   3 1374.77 604.517   5
   7   7   3 1740.06 570.627   1
  -7  -7  -3 1552.82 465.600   3
  -7  -7  -3 2883.84 732.169   7
  -7  -7  -4 1687.12 483.605   3
   7   7   4 1265.02 486.937   1
  -7  -7  -4 1026.58 440.171   7
   7   7   5 1677.43 604.998   1
  -7  -7  -5 1052.20 503.614   7
  -7  -7  -6 366.513 361.929   7
   7   7   6 215.367 188.333   1
  -7  -7  -7 2305.28 711.559   7
   7   7   7 2905.62 696.661   1
  -7  -7  -8 1718.38 687.157   7
   7   7   8 1360.90 575.678   1
  -7  -7  -9 3634.71 940.687   7
   7   7   9 3777.90 864.159   1
   7   7  10 44.3916 185.766   1
  -7  -8   1 1931.87 628.544   3
  -7  -8   0 976.455 436.963   3
  -7  -8  -1 372.205 308.105   3
   7   8   1 1359.73 473.729   1
   7   8   2 1197.36 520.557   1
   7   8   2 645.005 490.991   5
  -7  -8  -2 369.452 270.768   3
  -7  -8  -2-190.413 276.244   7
   7   8   3 1850.99 715.924   5
   7   8   3 1417.72 523.588   1
  -7  -8  -3 2017.99 598.469   3
  -7  -8  -3 1551.08 529.481   7
   7   8   4 598.739 422.299   5
   7   8   4 1242.54 472.700   1
  -7  -8  -4 546.294 315.366   3
  -7  -8  -4 179.926 308.101   7
   7   8   5 1001.46 530.706   5
   7   8   5 1589.88 502.746   1
  -7  -8  -5 2358.26 695.338   7
   7   8   6-758.584 412.531   1
  -7  -8  -6 48.9118 395.796   7
  -7  -8  -7 3095.35 849.134   7
   7   8   7 2018.18 645.822   1
   7   8   8 406.807 339.061   1
   7   8   9 1262.25 568.712   1
   7   8  10 1278.84 537.353   1
  -7  -9  -1 1074.18 489.278   3
  -7  -9  -2 1265.52 560.787   3
  -7  -9  -3 827.210 409.033   3
  -7  -9  -3 780.840 481.590   7
  -7  -9  -4 1126.92 442.012   3
  -7  -9  -4 1129.80 485.369   7
  -7  -9  -5 985.074 476.774   7
  -7  -9  -6 499.235 357.827   7
   7   9   7-1468.81 570.592   5
   7   9   8-599.060 380.598   5
  -8   6   0 1746.50 638.968   2
   8  -6   0 810.436 437.632   1
  -8   6  -1 280.631 310.546   2
   8  -6   1 313.319 274.134   1
   8  -6   2 2269.85 708.543   1
  -8   6  -2 2110.61 696.245   2
   8  -6   3-815.261 486.349   1
  -8   6  -3 318.145 253.102   2
   8  -6   4 955.306 515.608   1
  -8   5   2 383.546 326.175   2
  -8   5   1 498.477 438.810   2
  -8   5   0 1073.77 468.535   2
   8  -5   0 1702.72 618.251   1
   8  -5   1 318.603 406.842   1
  -8   5  -1 114.470 285.696   2
   8  -5   2 623.474 423.184   1
  -8   5  -2 691.730 360.945   2
   8  -5   3-113.588 304.954   1
  -8   5  -3 451.918 304.500   2
   8  -5   4 2937.02 772.309   1
   8  -5   5-7.63540 265.763   1
   8  -5   6 1391.85 582.903   1
   8  -4  -5 1840.31 566.218   4
   8  -4  -4 287.772 266.185   4
   8  -4  -3-895.267 465.349   4
  -8   4   3-211.008 265.442   2
   8  -4  -2 2187.65 697.843   4
  -8   4   2 1003.65 489.939   2
  -8   4   1 277.121 369.940   7
  -8   4   1 93.4488 257.080   2
   8  -4  -1-90.0262 222.275   1
  -8   4   0 4384.02 1003.56   7
   8  -4   0 3096.07 871.739   4
  -8   4   0 2620.94 689.185   2
   8  -4   0 3950.00 899.355   1
   8  -4   1-36.1079 275.526   1
  -8   4  -1-116.460 337.877   7
   8  -4   1 722.507 488.086   4
  -8   4  -1 135.023 230.905   2
   8  -4   2 3779.05 868.012   1
  -8   4  -2 4588.06 1018.13   7
   8  -4   2 4548.97 996.643   4
  -8   4  -2 3695.85 782.693   2
   8  -4   3-95.5048 313.431   1
  -8   4  -3 794.039 470.014   7
   8  -4   3 275.292 362.866   4
  -8   4  -3-171.114 298.310   2
   8  -4   4 664.096 420.193   1
  -8   4  -4-89.9384 219.275   7
   8  -4   4 598.946 486.595   4
   8  -4   5 625.681 460.509   1
   8  -4   6 1992.79 691.347   1
   8  -4   7 114.344 237.190   1
   8  -3  -5 912.566 411.431   4
  -8   3   4 3524.86 833.028   2
   8  -3  -4 1525.92 505.035   4
  -8   3   3 376.430 416.889   7
   8  -3  -3 479.883 415.946   4
  -8   3   3 116.767 184.479   2
  -8   3   2 3461.20 845.294   7
   8  -3  -2 2725.76 746.511   4
  -8   3   2 2039.47 626.666   2
  -8   3   1 632.185 471.314   7
   8  -3  -1 1276.64 540.137   4
  -8   3   1 1475.20 543.704   2
   8  -3  -1 1258.89 541.412   1
   8  -3   0 2341.64 749.578   1
  -8   3   0 4048.53 953.196   7
   8  -3   0 3260.72 817.712   4
  -8   3   0 2335.09 641.359   2
   8  -3   1 2389.82 712.492   1
  -8   3  -1 2194.43 701.381   7
   8  -3   1 2507.55 731.171   4
  -8   3  -1 1603.12 532.234   2
   8  -3   2 2384.28 716.729   1
  -8   3  -2 2578.18 791.023   7
   8  -3   2 2570.90 789.259   4
  -8   3  -2 1757.44 531.473   2
   8  -3   3-46.2091 433.187   1
  -8   3  -3 19.0229 204.996   7
   8  -3   3 215.446 293.839   4
  -8   3  -3 301.686 216.004   2
   8  -3   4 2760.75 811.437   1
  -8   3  -4 1924.34 695.205   7
   8  -3   4 3238.21 859.770   4
  -8   3  -4 1691.65 454.461   2
   8  -3   5 3602.68 848.967   1
  -8   3  -5 3817.25 921.722   7
  -8   3  -6 2201.03 780.441   7
   8  -3   6 4121.99 933.338   1
   8  -3   7-114.139 384.085   1
   8  -3   8-16.9710 367.425   1
  -8   2   4 1532.86 501.726   2
   8  -2  -4 865.929 384.551   4
  -8   2   3 785.391 359.400   2
  -8   2   3 245.736 336.223   7
   8  -2  -3 1040.31 413.067   4
  -8   2   2 902.413 397.191   2
  -8   2   2 2030.40 649.719   7
   8  -2  -2 1503.40 499.052   4
   8  -2  -2 1047.35 532.025   1
  -8   2   1 1898.15 641.495   7
   8  -2  -1 1490.34 548.690   4
   8  -2  -1 1859.27 626.969   1
  -8   2   1 2193.53 641.511   2
   8  -2   0 4491.29 931.240   1
  -8   2   0 3203.99 800.178   7
   8  -2   0 3037.82 748.929   4
  -8   2   0 2693.26 650.579   2
   8  -2   1 1757.29 671.838   1
  -8   2  -1 788.963 527.141   7
   8  -2   1 1018.59 456.526   4
  -8   2  -1 881.278 364.483   2
   8  -2   2 8849.42 1313.49   1
   8  -2   2 9779.53 1380.89   4
  -8   2  -2 8698.61 1326.74   7
  -8   2  -2 8950.00 1051.88   2
   8  -2   3 1447.71 560.230   1
  -8   2  -3 1336.78 586.291   7
   8  -2   3 1233.72 549.254   4
  -8   2  -3 1054.97 372.172   2
   8  -2   4 4141.95 911.880   1
  -8   2  -4 3387.97 896.436   7
  -8   2  -4 2538.98 498.497   2
   8  -2   5 1007.91 550.756   1
  -8   2  -5-57.6643 330.421   7
  -8   2  -6-407.648 361.064   7
   8  -2   6-425.684 427.265   1
  -8   2  -7 4873.57 1057.31   7
   8  -2   7 4483.19 1012.96   1
  -8   2  -8 6872.35 1265.30   7
   8  -2   8 5630.83 1125.47   1
   8  -1  -5 1023.79 487.482   5
  -8   1   4 2738.84 727.651   7
  -8   1   3 844.797 518.468   7
   8  -1  -3 1193.10 435.395   4
  -8   1   2 1426.63 449.591   2
  -8   1   2 2116.89 645.882   7
   8  -1  -2 1732.13 543.853   4
   8  -1  -2 3196.95 799.523   1
  -8   1   1-14.7324 149.207   2
   8  -1  -1 426.480 235.590   4
   8  -1  -1 31.5308 206.801   1
   8  -1   0 3236.04 802.879   1
  -8   1   0 3444.87 812.551   7
   8  -1   0 3277.14 768.319   4
  -8   1   0 3843.40 731.265   2
   8  -1   1 746.223 450.394   1
  -8   1  -1 518.909 446.710   7
   8  -1   1 614.488 444.379   4
  -8   1  -1 356.950 317.402   2
   8  -1   2 8743.53 1297.46   1
   8  -1   2 7626.14 1202.92   4
  -8   1  -2 7365.79 895.425   2
  -8   1  -2 7394.22 1226.42   7
   8  -1   3-311.444 410.844   1
  -8   1  -3 48.0517 360.368   7
  -8   1  -3-176.012 153.732   2
   8  -1   4 4482.54 965.933   1
  -8   1  -4 4210.35 969.470   7
  -8   1  -5 1932.98 690.434   7
   8  -1   5 2073.13 658.167   1
  -8   1  -6 4969.11 1082.30   7
   8  -1   6 4408.60 947.313   1
  -8   1  -7 4553.54 1005.21   7
   8  -1   7 3459.52 853.570   1
  -8   1  -8 149.406 299.684   7
   8  -1   8 454.910 379.881   1
   8   0  -5 18.2067 341.826   5
   8   0  -4-292.234 272.656   5
  -8   0   4 1024.52 449.347   7
  -8   0   3 1172.71 534.264   7
   8   0  -3 1220.70 396.643   4
  -8   0   2 3526.61 820.536   7
   8   0  -2 2680.24 613.136   4
   8   0  -2 3205.67 844.550   1
  -8   0   1 270.372 322.016   7
   8   0  -1-114.604 322.841   4
   8   0  -1-298.788 351.324   1
  -8   0   0 1881.61 508.138   2
   8   0   0 3017.38 774.538   1
  -8   0   0 2301.63 714.855   7
   8   0   0 2641.93 654.217   4
  -8   0  -1 1433.68 434.384   2
  -8   0  -1 2977.42 797.552   7
   8   0   1 2617.14 656.005   4
   8   0   2 9202.85 1337.22   1
  -8   0  -2 8733.32 1301.21   7
  -8   0  -2 6409.99 791.978   2
   8   0   3-124.350 373.980   1
  -8   0  -3 304.466 352.821   7
  -8   0  -3 262.765 178.177   2
   8   0   4 13852.1 1641.75   1
  -8   0  -4 12628.6 1579.99   7
  -8   0  -5-50.9852 338.956   7
   8   0   5-342.633 384.146   1
  -8   0  -6 1454.70 582.585   7
   8   0   6 1824.73 660.478   1
  -8   0  -7-518.699 439.326   7
   8   0   7 244.685 261.401   1
  -8   0  -8 3786.51 933.522   7
   8   0   8 4133.77 989.455   1
  -8   0  -9 896.852 521.760   7
   8   0   9 784.444 527.405   1
   8   1  -6 168.487 288.604   5
   8   1  -5-632.214 431.866   5
   8   1  -4 3417.92 868.008   5
  -8  -1   4 3204.59 763.940   7
   8   1  -3-35.1618 435.590   5
  -8  -1   3 104.885 283.819   7
  -8  -1   2 2091.99 612.768   7
   8   1  -2 1505.05 448.603   4
   8   1  -2 2244.98 709.637   1
  -8  -1   1 1674.55 588.738   7
   8   1  -1 1988.81 526.224   4
   8   1  -1 2345.06 703.982   1
   8   1   0 1748.29 588.880   1
  -8  -1   0 1568.26 606.105   7
   8   1   0 1957.89 539.349   4
  -8  -1  -1 409.375 263.725   2
   8   1   1 503.110 385.557   1
  -8  -1  -1-154.879 286.135   7
  -8  -1  -2 2434.44 472.651   2
   8   1   2 1918.57 627.226   1
  -8  -1  -2 1757.63 626.753   7
   8   1   3 167.450 232.879   1
  -8  -1  -3 576.699 440.533   7
  -8  -1  -3 976.852 296.642   2
   8   1   4 11747.9 1500.18   1
  -8  -1  -4 10668.3 1436.14   7
  -8  -1  -5-158.757 469.579   7
   8   1   5 57.0271 370.204   1
   8   1   6 10212.0 1463.24   1
  -8  -1  -6 10709.7 1490.20   7
  -8  -1  -7 1404.29 531.577   7
   8   1   7 3039.94 843.184   1
  -8  -1  -8 2668.81 757.792   7
   8   1   8 3269.89 869.316   1
  -8  -1  -9 905.265 437.589   7
   8   1   9 642.353 553.285   1
   8   2  -5 250.730 402.156   5
   8   2  -4-584.653 407.041   5
   8   2  -3 1652.75 613.680   5
  -8  -2   3 658.283 359.856   7
  -8  -2   2 1412.15 502.518   7
   8   2  -2 1406.46 511.248   1
  -8  -2   1 140.167 343.906   7
   8   2  -1 283.792 238.135   4
   8   2  -1 757.478 402.815   1
   8   2   0 2269.33 680.481   1
  -8  -2   0 2403.51 655.029   7
   8   2   0 1691.20 460.104   4
   8   2   1 1672.41 635.417   1
  -8  -2  -1 3431.60 799.371   7
   8   2   2 5825.95 1070.46   1
  -8  -2  -2 4741.21 938.359   7
  -8  -2  -3 1544.90 337.715   2
   8   2   3 1813.17 601.124   1
  -8  -2  -3 2363.50 717.432   7
   8   2   4 4337.01 950.996   1
  -8  -2  -4 3599.86 855.281   7
  -8  -2  -5 219.607 367.149   7
   8   2   5 908.903 493.167   1
   8   2   6 8530.43 1294.73   1
  -8  -2  -6 5349.88 1057.63   7
  -8  -2  -7 1319.17 539.081   7
   8   2   7 1202.37 591.803   1
  -8  -2  -8 2114.95 681.813   7
   8   2   8 1985.21 706.142   1
  -8  -2  -9 687.370 527.930   7
   8   2   9 854.301 488.892   1
   8   3  -4 271.799 392.756   5
   8   3  -3 1605.70 657.883   5
   8   3  -2 1033.74 562.285   5
  -8  -3   2 405.323 253.606   7
  -8  -3   1 507.231 359.062   7
   8   3  -1 109.281 235.206   1
   8   3   0 4257.63 923.560   1
  -8  -3   0 3194.00 753.885   7
   8   3   1 260.956 344.865   1
  -8  -3  -1 1786.94 592.711   7
   8   3   2 1335.57 552.861   1
  -8  -3  -2 354.897 380.012   7
   8   3   3 666.982 416.060   1
  -8  -3  -3-6.76794 199.972   7
   8   3   4 3296.18 804.967   1
  -8  -3  -4 2428.17 698.901   7
   8   3   5 3658.11 874.555   1
  -8  -3  -5 2854.38 801.175   7
  -8  -3  -6 3858.86 899.764   7
   8   3   6 4582.61 975.178   1
  -8  -3  -7 1689.18 646.954   7
   8   3   7 2239.99 721.516   1
  -8  -3  -8 2828.20 856.298   7
   8   3   8 4940.33 1073.30   1
  -8  -3  -9 459.993 402.892   7
   8   3   9 628.466 483.317   1
   8   4  -2 1503.85 645.741   5
  -8  -4   2 834.336 419.642   7
   8   4  -1 900.990 569.082   5
  -8  -4   1 708.080 401.333   7
   8   4  -1 1532.61 612.884   1
   8   4   0 822.249 489.051   1
  -8  -4   0 562.195 418.258   7
   8   4   1 559.510 342.472   1
  -8  -4  -1 1815.50 648.086   7
   8   4   2 2589.21 733.095   1
  -8  -4  -2 1884.72 610.377   7
   8   4   3 2323.71 689.140   1
  -8  -4  -3 1539.09 505.615   7
   8   4   4 2204.88 690.583   1
  -8  -4  -4 1844.74 639.094   7
   8   4   5-67.8470 326.664   1
  -8  -4  -5-173.710 369.205   7
  -8  -4  -6 3084.21 769.516   7
   8   4   6 3034.63 827.189   1
  -8  -4  -7 1088.16 570.744   7
   8   4   7 1258.92 522.012   1
  -8  -4  -8 2850.36 889.935   7
   8   4   8 1471.26 615.071   1
   8   4   9 312.619 388.575   1
   8   5  -1 255.760 315.209   1
   8   5   0 1338.48 681.535   5
  -8  -5   0 614.361 365.574   7
   8   5   0 1269.65 511.200   1
   8   5   1 314.922 350.626   1
  -8  -5  -1 474.602 364.791   7
   8   5   2 1233.16 568.768   1
  -8  -5  -2 1617.57 523.906   7
   8   5   3 1958.83 653.431   1
  -8  -5  -3 1353.01 470.159   7
   8   5   4 1740.39 635.170   1
  -8  -5  -4 2485.58 718.131   7
   8   5   5 1130.41 462.720   1
  -8  -5  -5 1056.21 485.181   7
  -8  -5  -6 3246.86 834.064   7
   8   5   6 1611.66 571.749   1
  -8  -5  -7 1872.30 716.201   7
   8   5   7 1231.87 561.519   1
  -8  -5  -8 1668.01 696.093   7
   8   5   8 1430.24 566.062   1
   8   5   9-11.7518 215.427   1
   8   6   0-28.1944 148.989   1
   8   6   1 1416.47 542.823   1
  -8  -6  -1 1143.73 462.596   7
   8   6   2 898.341 508.721   5
   8   6   2 655.618 397.292   1
  -8  -6  -2 1247.91 489.231   7
   8   6   3 1458.81 549.556   1
  -8  -6  -3 1111.95 547.152   7
   8   6   4 1100.77 538.512   1
  -8  -6  -4 1242.69 574.044   7
   8   6   5 163.654 243.517   1
  -8  -6  -5 423.921 376.445   7
   8   6   6 763.572 383.484   1
  -8  -6  -6 2396.79 769.258   7
  -8  -6  -7 2123.26 718.271   7
   8   6   7 1244.13 533.063   1
   8   6   8 1009.51 563.479   1
   8   7   1 508.532 368.941   1
   8   7   2-20.5805 94.3650   1
  -8  -7  -2 649.975 379.765   7
   8   7   3 152.692 209.396   1
  -8  -7  -3-185.320 333.663   7
   8   7   4 2094.40 664.781   1
  -8  -7  -4 2872.77 756.435   7
   8   7   5 527.182 414.526   1
  -8  -7  -5 707.757 515.877   7
   8   7   6 732.286 416.546   1
  -8  -7  -6 750.275 510.562   7
   8   7   7 903.257 457.017   1
   8   7   8 1705.74 597.283   1
   8   8   3 651.374 361.554   1
  -8  -8  -3 1043.90 419.004   7
   8   8   4 1599.48 626.271   1
  -8  -8  -4 1242.11 561.559   7
   8   8   5 1084.06 511.370   1
  -8  -8  -5-240.168 338.837   7
   8   8   6 411.980 293.822   1
   8   8   7-328.727 318.581   1
  -9   3   1 1209.05 499.609   2
  -9   3   0-172.718 237.782   2
   9  -2  -2-1178.88 521.835   4
  -9   2   2-34.4827 88.4876   2
   9  -2  -1 650.007 437.296   4
  -9   2   1 711.411 378.425   2
   9  -2   0 1640.24 636.882   4
  -9   2   0 1413.73 470.012   2
   9  -2   1 1951.35 646.659   4
   9  -2   2 862.443 579.290   4
   9  -2   3 1145.70 522.315   4
  -9   1   3 254.501 213.462   2
  -9   1   2 1357.23 492.347   2
   9  -1  -1 2066.01 616.206   4
  -9   1   1 2566.41 638.162   2
  -9   1   0 146.306 443.711   7
   9  -1   0-270.478 261.080   4
  -9   1   0 314.953 262.361   2
  -9   1  -1 1982.44 662.285   7
   9  -1   1 1481.33 552.480   4
   9  -1   2 2491.80 703.702   4
   9  -1   3 2831.04 802.852   4
  -9   0   3 1129.38 567.276   7
  -9   0   2-391.694 247.751   2
  -9   0   2 312.195 458.119   7
  -9   0   1 375.179 232.776   2
  -9   0   1 806.820 582.086   7
   9   0  -1 1078.29 496.785   4
  -9   0   0 863.477 382.048   2
  -9   0   0 1470.44 564.612   7
   9   0   0 408.685 320.240   4
  -9   0  -1 1802.88 654.041   7
   9   0   1 1855.37 611.652   4
  -9   0  -2 1357.87 601.461   7
   9   0   2 676.488 430.090   4
   9   0   3 2839.04 828.604   1
  -9   0  -3 1660.02 684.364   7
   9   0   4-358.521 424.879   1
  -9   0  -4-927.612 513.729   7
  -9  -1   3 1082.39 513.120   7
  -9  -1   2 115.700 316.722   7
  -9  -1   1 2239.15 723.128   7
  -9  -1   0 784.814 486.455   7
   9   1   0 498.012 284.925   4
  -9  -1  -1 2096.33 744.119   7
   9   1   1 1261.86 462.262   4
   9   1   2-68.0229 331.090   1
  -9  -1  -2 641.173 470.203   7
   9   1   3 3657.21 950.522   1
  -9  -1  -3 4764.70 1015.45   7
   9   1   4-2.84762 322.120   1
  -9  -1  -4 105.291 491.255   7
  -9  -1  -5 1687.03 703.488   7
  -9  -2   2 773.213 467.160   7
  -9  -2   1 933.693 501.882   7
  -9  -2   0-89.7145 346.343   7
  -9  -2  -1 3565.09 923.172   7
   9   2   1 3779.39 792.624   4
   9   2   2 726.280 509.147   1
  -9  -2  -2 1398.10 567.650   7
   9   2   3 2204.23 740.846   1
  -9  -2  -3 1021.80 553.840   7
   9   2   4 387.861 397.933   1
  -9  -2  -4 799.637 524.749   7
  -9  -2  -5 3757.25 926.294   7
  -9  -3   1 1194.75 550.454   7
  -9  -3   0 2761.04 753.706   7
  -9  -3  -1 2090.32 700.351   7
  -9  -3  -2 1219.27 613.756   7
   9   3   3 4104.93 988.323   1
  -9  -3  -3 5145.87 1057.69   7
   9   3   4 163.461 272.739   1
  -9  -3  -4 82.4370 332.870   7
  -9  -3  -5 975.269 571.271   7
  -9  -4   0 662.468 501.754   7
  -9  -4  -1 2955.25 786.421   7
  -9  -4  -2 469.136 429.943   7
  -9  -4  -3 2754.91 817.151   7
  -9  -4  -4 801.580 367.676   7
  -9  -4  -5 1719.52 673.698   7
  -9  -5  -1 267.402 327.677   7
  -9  -5  -2 1479.02 558.990   7
  -9  -5  -3 1557.53 600.885   7
  -9  -5  -4-759.478 520.652   7
  -9  -6  -2-391.259 328.164   7
  -9  -6  -3-204.639 333.451   7
   0   0   0    0.00    0.00   0

TITL exp_1221 in P-1
REM P-1 (#2 in standard setting)
CELL 0.71073   7.203433   9.132551  11.537054  77.6097  76.9950  84.1896
ZERR    2.00   0.000461   0.000544   0.000696   0.0051   0.0053   0.0051
LATT  1
SFAC C H F Fe
UNIT 32.00 20.00 12.00 2.00
TREF
HKLF 4
END
;
_shelx_hkl_checksum              14759
_olex2_date_sample_data_collection 2018-10-25
_olex2_exptl_crystal_mounting_method
'Crystal sealed in 1 mm X-ray glass capillary with excess solvent removed'
_olex2_submission_special_instructions 'No special instructions were received'
_oxdiff_exptl_absorpt_empirical_details
;
Empirical correction (ABSPACK) includes:
- Absorption correction using spherical harmonics
- Frame scaling
;
_oxdiff_exptl_absorpt_empirical_full_max 1.418
_oxdiff_exptl_absorpt_empirical_full_min 0.872
loop_
_space_group_symop_operation_xyz
'x, y, z'
'-x, -y, -z'
loop_
_atom_site_label
_atom_site_type_symbol
_atom_site_fract_x
_atom_site_fract_y
_atom_site_fract_z
_atom_site_U_iso_or_equiv
_atom_site_adp_type
_atom_site_occupancy
_atom_site_site_symmetry_order
_atom_site_calc_flag
Fe1 Fe 0.23986(4) 0.49619(3) 0.25219(2) 0.03544(12) Uani 1 1 d
C7 C 0.3161(4) 0.6792(3) 0.1207(3) 0.0630(8) Uani 1 1 d
H7 H 0.434(4) 0.712(3) 0.097(2) 0.077(9) Uiso 1 1 d
C8 C 0.2426(4) 0.5729(3) 0.0731(2) 0.0565(7) Uani 1 1 d
H8 H 0.307(4) 0.523(3) 0.013(2) 0.069(8) Uiso 1 1 d
C9 C 0.0557(4) 0.5499(3) 0.1376(2) 0.0511(6) Uani 1 1 d
H9 H -0.021(3) 0.482(3) 0.126(2) 0.058(7) Uiso 1 1 d
C10 C 0.0129(4) 0.6408(3) 0.2252(2) 0.0524(6) Uani 1 1 d
H10 H -0.102(3) 0.642(2) 0.284(2) 0.056(7) Uiso 1 1 d
C11 C 0.1732(4) 0.7202(3) 0.2151(3) 0.0573(7) Uani 1 1 d
H11 H 0.185(3) 0.788(3) 0.265(2) 0.064(8) Uiso 1 1 d
C12 C 0.4736(4) 0.4076(3) 0.3186(3) 0.0627(8) Uani 1 1 d
H12 H 0.593(4) 0.446(3) 0.290(2) 0.070(8) Uiso 1 1 d
C13 C 0.4056(4) 0.3021(3) 0.2675(3) 0.0577(7) Uani 1 1 d
H13 H 0.472(3) 0.260(3) 0.201(2) 0.066(8) Uiso 1 1 d
C14 C 0.2181(4) 0.2748(3) 0.3300(2) 0.0494(6) Uani 1 1 d
H14 H 0.134(4) 0.213(3) 0.312(2) 0.070(8) Uiso 1 1 d
C15 C 0.1696(4) 0.3627(3) 0.4197(2) 0.0469(6) Uani 1 1 d
H15 H 0.054(3) 0.368(3) 0.472(2) 0.061(7) Uiso 1 1 d
C16 C 0.3267(4) 0.4460(3) 0.4131(2) 0.0538(6) Uani 1 1 d
H16 H 0.335(4) 0.514(3) 0.457(2) 0.067(8) Uiso 1 1 d
F1 F 0.3718(2) 0.99950(18) -0.11355(15) 0.0748(5) Uani 1 1 d
F2 F 0.1369(2) 0.81320(16) -0.15670(13) 0.0661(4) Uani 1 1 d
F3 F -0.2333(2) 0.81285(18) -0.04254(16) 0.0779(5) Uani 1 1 d
C1 C 0.1874(3) 1.0002(3) -0.0578(2) 0.0476(6) Uani 1 1 d
C2 C 0.0692(3) 0.9057(2) -0.0798(2) 0.0449(5) Uani 1 1 d
C3 C -0.1181(3) 0.9056(2) -0.0218(2) 0.0473(5) Uani 1 1 d
F4 F 0.7999(2) 0.1517(2) 0.50444(17) 0.0852(5) Uani 1 1 d
F5 F 0.4544(2) 0.20664(17) 0.64230(14) 0.0747(5) Uani 1 1 d
F6 F 0.1535(2) 0.05537(18) 0.63696(14) 0.0733(5) Uani 1 1 d
C4 C 0.6516(3) 0.0768(3) 0.5018(2) 0.0485(6) Uani 1 1 d
C5 C 0.4765(3) 0.1043(2) 0.5724(2) 0.0475(5) Uani 1 1 d
C6 C 0.3255(3) 0.0273(3) 0.5698(2) 0.0470(6) Uani 1 1 d
loop_
_atom_site_aniso_label
_atom_site_aniso_U_11
_atom_site_aniso_U_22
_atom_site_aniso_U_33
_atom_site_aniso_U_23
_atom_site_aniso_U_13
_atom_site_aniso_U_12
Fe1 0.03885(19) 0.03256(18) 0.03485(19) -0.00449(13) -0.01119(13) 0.00153(12)
C7 0.0549(16) 0.0526(16) 0.0706(19) 0.0184(14) -0.0161(14) -0.0111(13)
C8 0.0706(17) 0.0571(16) 0.0336(13) -0.0025(12) -0.0085(12) 0.0153(13)
C9 0.0598(15) 0.0498(14) 0.0498(14) -0.0061(12) -0.0300(12) 0.0017(12)
C10 0.0510(14) 0.0548(15) 0.0483(14) -0.0092(12) -0.0138(11) 0.0164(12)
C11 0.0814(19) 0.0346(13) 0.0625(17) -0.0083(12) -0.0340(15) 0.0064(12)
C12 0.0437(14) 0.0663(17) 0.0717(19) 0.0094(15) -0.0228(13) 0.0010(13)
C13 0.0613(16) 0.0493(15) 0.0537(16) -0.0063(13) -0.0096(13) 0.0239(12)
C14 0.0646(16) 0.0333(12) 0.0502(14) -0.0026(11) -0.0185(12) 0.0006(11)
C15 0.0524(14) 0.0440(13) 0.0397(13) -0.0016(11) -0.0088(11) 0.0019(11)
C16 0.0716(17) 0.0471(14) 0.0498(15) -0.0062(12) -0.0334(13) 0.0024(12)
F1 0.0486(8) 0.0822(11) 0.0818(11) -0.0148(9) 0.0087(7) -0.0027(7)
F2 0.0883(11) 0.0538(8) 0.0554(9) -0.0237(7) -0.0086(8) 0.0118(7)
F3 0.0752(10) 0.0741(10) 0.0947(12) -0.0286(9) -0.0202(9) -0.0218(8)
C1 0.0443(12) 0.0454(13) 0.0456(13) -0.0010(11) -0.0040(10) 0.0025(10)
C2 0.0588(14) 0.0347(11) 0.0377(12) -0.0048(10) -0.0093(10) 0.0075(10)
C3 0.0533(14) 0.0397(12) 0.0487(14) -0.0048(11) -0.0135(11) -0.0041(10)
F4 0.0679(10) 0.0882(12) 0.1079(14) -0.0195(10) -0.0238(9) -0.0305(9)
F5 0.1074(13) 0.0579(9) 0.0671(10) -0.0287(8) -0.0244(9) 0.0054(8)
F6 0.0554(9) 0.0812(11) 0.0653(10) -0.0041(8) 0.0074(7) 0.0122(7)
C4 0.0469(13) 0.0443(13) 0.0544(15) -0.0015(11) -0.0160(11) -0.0079(10)
C5 0.0648(15) 0.0359(12) 0.0430(13) -0.0079(10) -0.0165(11) 0.0039(11)
C6 0.0444(12) 0.0441(13) 0.0437(13) 0.0013(11) -0.0050(10) 0.0076(10)
loop_
_atom_type_symbol
_atom_type_description
_atom_type_scat_dispersion_real
_atom_type_scat_dispersion_imag
_atom_type_scat_source
C C 0.0033 0.0016 'International Tables Vol C Tables 4.2.6.8 and 6.1.1.4'
H H 0.0000 0.0000 'International Tables Vol C Tables 4.2.6.8 and 6.1.1.4'
F F 0.0171 0.0103 'International Tables Vol C Tables 4.2.6.8 and 6.1.1.4'
Fe Fe 0.3463 0.8444 'International Tables Vol C Tables 4.2.6.8 and 6.1.1.4'
loop_
_exptl_crystal_face_index_h
_exptl_crystal_face_index_k
_exptl_crystal_face_index_l
_exptl_crystal_face_perp_dist
7 -1 -9 0.2475
0 7 15 0.1066
2 -6 -14 0.2082
-3 11 -1 0.4054
-10 3 -4 0.3295
-9 -4 0 0.1656
6 -8 7 0.2830
9 -4 7 0.2603
-6 2 10 0.1065
9 6 4 0.2740
3 -11 3 0.3186
1 -7 -15 0.2183
5 -10 3 0.3136
10 4 0 0.2672
6 -3 12 0.2858
1 8 -10 0.4177
-6 4 -12 0.4437
0 13 1 0.3778
6 8 12 0.2410
2 -10 8 0.3067
10 -2 3 0.2746
8 8 2 0.3048
-6 -8 -12 0.1936
loop_
_geom_angle_atom_site_label_1
_geom_angle_atom_site_label_2
_geom_angle_atom_site_label_3
_geom_angle
_geom_angle_site_symmetry_1
_geom_angle_site_symmetry_3
C7 Fe1 C8 40.64(11) . .
C7 Fe1 C9 67.85(11) . .
C7 Fe1 C10 67.84(11) . .
C7 Fe1 C13 122.49(12) . .
C7 Fe1 C14 157.71(12) . .
C7 Fe1 C15 160.56(12) . .
C7 Fe1 C16 124.28(12) . .
C8 Fe1 C9 40.22(10) . .
C8 Fe1 C10 67.97(10) . .
C8 Fe1 C13 107.52(11) . .
C8 Fe1 C14 121.85(11) . .
C8 Fe1 C15 157.45(11) . .
C8 Fe1 C16 160.64(11) . .
C9 Fe1 C10 40.46(10) . .
C9 Fe1 C13 123.44(12) . .
C9 Fe1 C14 107.73(10) . .
C9 Fe1 C15 122.44(10) . .
C9 Fe1 C16 157.82(12) . .
C10 Fe1 C13 159.76(12) . .
C10 Fe1 C14 123.94(11) . .
C10 Fe1 C15 108.25(10) . .
C10 Fe1 C16 122.38(11) . .
C11 Fe1 C7 40.56(11) . .
C11 Fe1 C8 68.24(11) . .
C11 Fe1 C9 67.87(10) . .
C11 Fe1 C10 40.17(10) . .
C11 Fe1 C13 158.45(12) . .
C11 Fe1 C14 160.08(12) . .
C11 Fe1 C15 124.20(11) . .
C11 Fe1 C16 108.12(11) . .
C12 Fe1 C7 108.28(11) . .
C12 Fe1 C8 124.00(12) . .
C12 Fe1 C9 159.89(12) . .
C12 Fe1 C10 158.28(12) . .
C12 Fe1 C11 122.95(12) . .
C12 Fe1 C13 40.59(12) . .
C12 Fe1 C14 67.91(11) . .
C12 Fe1 C15 67.85(10) . .
C12 Fe1 C16 40.74(11) . .
C13 Fe1 C14 40.27(10) . .
C13 Fe1 C15 67.88(10) . .
C13 Fe1 C16 68.47(11) . .
C14 Fe1 C15 40.38(10) . .
C14 Fe1 C16 68.17(10) . .
C16 Fe1 C15 40.35(10) . .
Fe1 C7 H7 124.5(17) . .
C8 C7 Fe1 69.74(14) . .
C8 C7 H7 125.7(19) . .
C11 C7 Fe1 69.71(14) . .
C11 C7 H7 126.4(19) . .
C11 C7 C8 107.9(2) . .
Fe1 C8 H8 123.3(16) . .
C7 C8 Fe1 69.62(15) . .
C7 C8 H8 126.7(16) . .
C9 C8 Fe1 69.90(13) . .
C9 C8 C7 107.7(2) . .
C9 C8 H8 125.5(16) . .
Fe1 C9 H9 123.5(15) . .
C8 C9 Fe1 69.88(14) . .
C8 C9 H9 124.6(15) . .
C8 C9 C10 108.3(2) . .
C10 C9 Fe1 69.80(13) . .
C10 C9 H9 127.0(15) . .
Fe1 C10 H10 123.0(14) . .
C9 C10 Fe1 69.74(13) . .
C9 C10 H10 125.1(15) . .
C11 C10 Fe1 69.80(14) . .
C11 C10 C9 108.1(2) . .
C11 C10 H10 126.6(15) . .
Fe1 C11 H11 124.2(15) . .
C7 C11 Fe1 69.73(14) . .
C7 C11 H11 125.9(15) . .
C10 C11 Fe1 70.03(14) . .
C10 C11 C7 108.0(2) . .
C10 C11 H11 126.0(15) . .
Fe1 C12 H12 123.8(16) . .
C13 C12 Fe1 69.84(14) . .
C13 C12 H12 123.6(17) . .
C13 C12 C16 108.3(2) . .
C16 C12 Fe1 69.94(14) . .
C16 C12 H12 128.1(17) . .
Fe1 C13 H13 124.1(15) . .
C12 C13 Fe1 69.56(14) . .
C12 C13 H13 126.6(15) . .
C14 C13 Fe1 69.97(13) . .
C14 C13 C12 107.8(2) . .
C14 C13 H13 125.5(16) . .
Fe1 C14 H14 123.1(15) . .
C13 C14 Fe1 69.76(14) . .
C13 C14 H14 126.4(16) . .
C13 C14 C15 108.2(2) . .
C15 C14 Fe1 69.91(13) . .
C15 C14 H14 125.3(16) . .
Fe1 C15 H15 124.6(15) . .
C14 C15 Fe1 69.71(13) . .
C14 C15 H15 126.4(16) . .
C16 C15 Fe1 69.79(14) . .
C16 C15 C14 108.5(2) . .
C16 C15 H15 125.0(16) . .
Fe1 C16 H16 124.0(16) . .
C12 C16 Fe1 69.32(15) . .
C12 C16 H16 124.4(17) . .
C15 C16 Fe1 69.86(13) . .
C15 C16 C12 107.2(2) . .
C15 C16 H16 128.4(17) . .
F1 C1 C2 119.7(2) . .
F1 C1 C3 120.0(2) . 2_575
C2 C1 C3 120.3(2) . 2_575
F2 C2 C1 120.3(2) . .
F2 C2 C3 120.1(2) . .
C3 C2 C1 119.6(2) . .
F3 C3 C1 120.2(2) . 2_575
F3 C3 C2 119.7(2) . .
C2 C3 C1 120.1(2) . 2_575
F4 C4 C5 119.6(2) . .
F4 C4 C6 120.2(2) . 2_656
C6 C4 C5 120.2(2) 2_656 .
F5 C5 C4 120.1(2) . .
F5 C5 C6 120.5(2) . .
C6 C5 C4 119.5(2) . .
F6 C6 C4 119.9(2) . 2_656
F6 C6 C5 119.8(2) . .
C5 C6 C4 120.4(2) . 2_656
loop_
_geom_bond_atom_site_label_1
_geom_bond_atom_site_label_2
_geom_bond_distance
_geom_bond_site_symmetry_2
Fe1 C7 2.029(2) .
Fe1 C8 2.031(2) .
Fe1 C9 2.031(2) .
Fe1 C10 2.032(2) .
Fe1 C11 2.029(2) .
Fe1 C12 2.029(2) .
Fe1 C13 2.032(2) .
Fe1 C14 2.035(2) .
Fe1 C15 2.038(2) .
Fe1 C16 2.037(2) .
C7 H7 0.89(3) .
C7 C8 1.410(4) .
C7 C11 1.407(4) .
C8 H8 0.92(3) .
C8 C9 1.397(4) .
C9 H9 0.92(2) .
C9 C10 1.405(4) .
C10 H10 0.95(2) .
C10 C11 1.395(4) .
C11 H11 0.95(3) .
C12 H12 0.93(3) .
C12 C13 1.409(4) .
C12 C16 1.415(4) .
C13 H13 0.94(3) .
C13 C14 1.400(4) .
C14 H14 0.95(3) .
C14 C15 1.406(3) .
C15 H15 0.91(2) .
C15 C16 1.405(3) .
C16 H16 0.90(3) .
F1 C1 1.339(2) .
F2 C2 1.335(3) .
F3 C3 1.334(3) .
C1 C2 1.369(3) .
C1 C3 1.371(3) 2_575
C2 C3 1.365(3) .
C3 C1 1.371(3) 2_575
F4 C4 1.334(3) .
F5 C5 1.336(3) .
F6 C6 1.338(2) .
C4 C5 1.370(3) .
C4 C6 1.364(3) 2_656
C5 C6 1.362(3) .
C6 C4 1.364(3) 2_656
loop_
_geom_torsion_atom_site_label_1
_geom_torsion_atom_site_label_2
_geom_torsion_atom_site_label_3
_geom_torsion_atom_site_label_4
_geom_torsion
_geom_torsion_site_symmetry_1
_geom_torsion_site_symmetry_4
Fe1 C7 C8 C9 59.78(16) . .
Fe1 C7 C11 C10 -59.81(17) . .
Fe1 C8 C9 C10 59.43(16) . .
Fe1 C9 C10 C11 59.47(16) . .
Fe1 C10 C11 C7 59.62(17) . .
Fe1 C12 C13 C14 -59.75(16) . .
Fe1 C12 C16 C15 59.88(16) . .
Fe1 C13 C14 C15 -59.58(16) . .
Fe1 C14 C15 C16 -59.17(16) . .
Fe1 C15 C16 C12 -59.54(17) . .
C7 C8 C9 Fe1 -59.60(17) . .
C7 C8 C9 C10 -0.2(3) . .
C8 C7 C11 Fe1 59.52(17) . .
C8 C7 C11 C10 -0.3(3) . .
C8 C9 C10 Fe1 -59.48(16) . .
C8 C9 C10 C11 0.0(3) . .
C9 C10 C11 Fe1 -59.44(16) . .
C9 C10 C11 C7 0.2(3) . .
C11 C7 C8 Fe1 -59.50(17) . .
C11 C7 C8 C9 0.3(3) . .
C12 C13 C14 Fe1 59.50(17) . .
C12 C13 C14 C15 -0.1(3) . .
C13 C12 C16 Fe1 -59.51(17) . .
C13 C12 C16 C15 0.4(3) . .
C13 C14 C15 Fe1 59.49(16) . .
C13 C14 C15 C16 0.3(3) . .
C14 C15 C16 Fe1 59.12(16) . .
C14 C15 C16 C12 -0.4(3) . .
C16 C12 C13 Fe1 59.58(17) . .
C16 C12 C13 C14 -0.2(3) . .
F1 C1 C2 F2 -0.1(3) . .
F1 C1 C2 C3 179.29(19) . .
F2 C2 C3 F3 -0.2(3) . .
F2 C2 C3 C1 179.52(19) . 2_575
C1 C2 C3 F3 -179.5(2) . .
C1 C2 C3 C1 0.1(4) . 2_575
C3 C1 C2 F2 -179.52(19) 2_575 .
C3 C1 C2 C3 -0.1(4) 2_575 .
F4 C4 C5 F5 0.7(3) . .
F4 C4 C5 C6 -179.8(2) . .
F5 C5 C6 F6 0.5(3) . .
F5 C5 C6 C4 179.8(2) . 2_656
C4 C5 C6 F6 -178.91(19) . .
C4 C5 C6 C4 0.4(4) . 2_656
C6 C4 C5 F5 -179.8(2) 2_656 .
C6 C4 C5 C6 -0.4(4) 2_656 .
loop_
_exptl_oxdiff_crystal_face_indexfrac_h
_exptl_oxdiff_crystal_face_indexfrac_k
_exptl_oxdiff_crystal_face_indexfrac_l
_exptl_oxdiff_crystal_face_x
_exptl_oxdiff_crystal_face_y
_exptl_oxdiff_crystal_face_z
7.1817 -0.8856 -8.6171 -0.3328 -0.9430 -0.0025
-0.4485 6.6531 14.6957 -0.4471 0.8942 0.0217
1.9578 -5.8192 -14.1281 0.3016 -0.9531 -0.0248
-3.2049 11.4664 -1.3765 -0.1399 0.2743 0.9514
-9.5088 3.1462 -3.6697 0.6318 0.4665 0.6190
-9.4574 -4.0303 0.4162 0.8030 0.5956 -0.0206
6.1528 -7.5909 7.1981 -0.3019 -0.1106 -0.9469
8.6543 -3.8987 7.2938 -0.6074 -0.2257 -0.7616
-6.4855 1.7677 9.8303 0.2324 0.9726 0.0063
9.3812 6.0474 3.6158 -0.9356 -0.3510 0.0388
3.2498 -11.1399 2.8332 0.1005 -0.1955 -0.9755
0.5191 -6.8660 -14.5489 0.4468 -0.8936 -0.0435
5.2862 -9.7359 3.4084 -0.1021 -0.2818 -0.9540
9.5164 3.8580 -0.3066 -0.8032 -0.5957 0.0032
6.3988 -3.2612 12.3075 -0.5547 0.1980 -0.8081
0.9749 7.9982 -9.8844 -0.1729 -0.4965 0.8507
-6.2538 3.7888 -12.0301 0.5217 -0.1864 0.8325
0.2978 12.6538 0.5426 -0.4624 0.1608 0.8720
6.3416 8.2983 12.1702 -0.9429 0.3327 0.0181
1.6497 -9.5099 8.0105 0.0700 0.2058 -0.9761
9.7366 -2.3538 3.2648 -0.6681 -0.4937 -0.5568
8.1099 8.3700 1.8136 -0.8935 -0.3360 0.2979
-6.2899 -8.4458 -12.0704 0.9425 -0.3326 -0.0332
