#------------------------------------------------------------------------------
#$Date: 2020-02-04 05:13:16 +0200 (Tue, 04 Feb 2020) $
#$Revision: 247531 $
#$URL: file:///home/coder/svn-repositories/cod/cif/4/13/39/4133977.cif $
#------------------------------------------------------------------------------
#
# This file is available in the Crystallography Open Database (COD),
# http://www.crystallography.net/
#
# All data on this site have been placed in the public domain by the
# contributors.
#
data_4133977
loop_
_publ_author_name
'Bear, Joseph C.'
'Cockcroft, Jeremy K.'
'Williams, Jeffrey H.'
_publ_section_title
;
 Influence of Solvent in Crystal Engineering: A Significant Change to the
 Order-Disorder Transition in Ferrocene.
;
_journal_issue                   4
_journal_name_full               'Journal of the American Chemical Society'
_journal_page_first              1731
_journal_page_last               1734
_journal_paper_doi               10.1021/jacs.9b11895
_journal_volume                  142
_journal_year                    2020
_chemical_formula_moiety         '0.5(C20 H20 Fe2), C6 F6'
_chemical_formula_sum            'C16 H10 F6 Fe'
_chemical_formula_weight         372.09
_chemical_name_systematic        Ferrocene:hexafluorobenzene
_space_group_crystal_system      triclinic
_space_group_IT_number           2
_space_group_name_Hall           '-B 1'
_space_group_name_H-M_alt        'B -1'
_atom_sites_solution_hydrogens   geom
_atom_sites_solution_primary     direct
_audit_creation_date             2019-08-29
_audit_creation_method
;
Olex2 1.2
(compiled 2018.05.29 svn.r3508 for OlexSys, GUI svn.r5506)
;
_cell_angle_alpha                76.621(6)
_cell_angle_beta                 77.687(6)
_cell_angle_gamma                83.786(5)
_cell_formula_units_Z            2
_cell_length_a                   7.1670(4)
_cell_length_b                   9.2494(6)
_cell_length_c                   11.8880(10)
_cell_measurement_reflns_used    3097
_cell_measurement_temperature    300
_cell_measurement_theta_max      26.4150
_cell_measurement_theta_min      4.6670
_cell_volume                     747.60(9)
_computing_cell_refinement       'CrysAlisPro 1.171.39.46 (Rigaku OD, 2018)'
_computing_data_collection       'CrysAlisPro 1.171.39.46 (Rigaku OD, 2018)'
_computing_data_reduction        'CrysAlisPro 1.171.39.46 (Rigaku OD, 2018)'
_computing_molecular_graphics    'Olex2 (Dolomanov et al., 2009)'
_computing_publication_material  'Olex2 (Dolomanov et al., 2009)'
_computing_structure_refinement  'ShelXL (Sheldrick, 2015)'
_computing_structure_solution    'ShelXT (Sheldrick, 2015)'
_diffrn_ambient_environment      C6F6
_diffrn_ambient_temperature      300
_diffrn_detector                 'CCD plate'
_diffrn_detector_area_resol_mean 5.2031
_diffrn_detector_type            Atlas
_diffrn_measured_fraction_theta_full 0.998
_diffrn_measured_fraction_theta_max 0.998
_diffrn_measurement_details
;
List of Runs (angles in degrees, time in seconds):

  # Type    Start    End  Width  t~exp~   \w     \q     \k     \f   Frames
--------------------------------------------------------------------------
  1  \w     18.00  88.00   1.00    2.00    --   11.17-156.00 148.20   70
  2  \w    -10.00  19.00   1.00    2.00    --   11.17  57.00-180.00   29
  3  \w    -13.00  85.00   1.00    2.00    --   11.17  38.00  90.00   98
  4  \w    -17.00  84.00   1.00    2.00    --   11.17  57.00 -60.00  101
  5  \w    -17.00  52.00   1.00    2.00    --   11.17 -99.00 -90.00   69
  6  \w     -9.00  85.00   1.00    2.00    --   11.17  38.00-150.00   94
  7  \w    -44.00  36.00   1.00    2.00    --   11.17 -38.00 120.00   80
  8  \w     10.00  69.00   1.00    2.00    --   11.17-128.00  23.16   59
;
_diffrn_measurement_device       'four-circle diffractometer'
_diffrn_measurement_device_type  'SuperNova, Dual, Cu at home/near, Atlas'
_diffrn_measurement_method       '\w scans'
_diffrn_orient_matrix_type
'CrysAlisPro convention (1999,Acta A55,543-557)'
_diffrn_orient_matrix_UB_11      0.0214813000
_diffrn_orient_matrix_UB_12      -0.0756339000
_diffrn_orient_matrix_UB_13      0.0254180000
_diffrn_orient_matrix_UB_21      -0.0297598000
_diffrn_orient_matrix_UB_22      0.0153672000
_diffrn_orient_matrix_UB_23      0.0571188000
_diffrn_orient_matrix_UB_31      -0.0946233000
_diffrn_orient_matrix_UB_32      -0.0167544000
_diffrn_orient_matrix_UB_33      0.0008568000
_diffrn_radiation_monochromator  mirror
_diffrn_radiation_probe          x-ray
_diffrn_radiation_type           MoK\a
_diffrn_radiation_wavelength     0.71073
_diffrn_reflns_av_R_equivalents  0.0330
_diffrn_reflns_av_unetI/netI     0.0264
_diffrn_reflns_Laue_measured_fraction_full 0.998
_diffrn_reflns_Laue_measured_fraction_max 0.998
_diffrn_reflns_limit_h_max       8
_diffrn_reflns_limit_h_min       -8
_diffrn_reflns_limit_k_max       10
_diffrn_reflns_limit_k_min       -10
_diffrn_reflns_limit_l_max       13
_diffrn_reflns_limit_l_min       -13
_diffrn_reflns_number            5238
_diffrn_reflns_point_group_measured_fraction_full 0.998
_diffrn_reflns_point_group_measured_fraction_max 0.998
_diffrn_reflns_theta_full        24.702
_diffrn_reflns_theta_max         24.702
_diffrn_reflns_theta_min         3.502
_diffrn_source                   'micro-focus sealed X-ray tube'
_diffrn_source_type              'SuperNova (Mo) X-ray Source'
_exptl_absorpt_coefficient_mu    1.067
_exptl_absorpt_correction_T_max  1.000
_exptl_absorpt_correction_T_min  0.367
_exptl_absorpt_correction_type   gaussian
_exptl_absorpt_process_details
;
CrysAlisPro 1.171.39.46 (Rigaku Oxford Diffraction, 2018)
Numerical absorption correction based on gaussian integration over
			a multifaceted crystal model
Empirical absorption correction using spherical harmonics,
 implemented in SCALE3 ABSPACK scaling algorithm.
;
_exptl_crystal_colour            'clear dark orange'
_exptl_crystal_colour_lustre     clear
_exptl_crystal_colour_modifier   dark
_exptl_crystal_colour_primary    orange
_exptl_crystal_density_diffrn    1.653
_exptl_crystal_description       block
_exptl_crystal_F_000             372
_exptl_crystal_preparation       'Ferrocene dissolved in hot C6F6'
_exptl_crystal_recrystallization_method
'Crystals grown using C6F6 as solvent in an NMR tube stood in hot water'
_exptl_crystal_size_max          0.722
_exptl_crystal_size_mid          0.389
_exptl_crystal_size_min          0.2
_refine_diff_density_max         0.269
_refine_diff_density_min         -0.211
_refine_diff_density_rms         0.058
_refine_ls_extinction_coef       0.039(4)
_refine_ls_extinction_expression Fc^*^=kFc[1+0.001xFc^2^\l^3^/sin(2\q)]^-1/4^
_refine_ls_extinction_method     'SHELXL-2014/7 (Sheldrick 2014'
_refine_ls_goodness_of_fit_ref   1.044
_refine_ls_hydrogen_treatment    constr
_refine_ls_matrix_type           full
_refine_ls_number_parameters     152
_refine_ls_number_reflns         1271
_refine_ls_number_restraints     190
_refine_ls_restrained_S_all      1.329
_refine_ls_R_factor_all          0.0377
_refine_ls_R_factor_gt           0.0368
_refine_ls_shift/su_max          0.001
_refine_ls_shift/su_mean         0.000
_refine_ls_structure_factor_coef Fsqd
_refine_ls_weighting_details
'w=1/[\s^2^(Fo^2^)+(0.0582P)^2^+0.4392P] where P=(Fo^2^+2Fc^2^)/3'
_refine_ls_weighting_scheme      calc
_refine_ls_wR_factor_gt          0.0994
_refine_ls_wR_factor_ref         0.1004
_reflns_Friedel_coverage         0.000
_reflns_number_gt                1237
_reflns_number_total             1271
_reflns_threshold_expression     'I > 2\s(I)'
_cod_data_source_file            ja9b11895_si_002.cif
_cod_data_source_block           exp_1340
_cod_depositor_comments
'Adding full bibliography for 4133967--4133980.cif.'
_cod_original_sg_number          -1
_cod_original_sg_symbol_H-M      '-B 1'
_cod_database_code               4133977
_shelx_shelxl_version_number     2014/7
_chemical_oxdiff_formula         'Fe C16 H10 F6'
_chemical_oxdiff_usercomment     'In capillary'
_shelx_space_group_comment
;
The symmetry employed for this shelxl refinement is uniquely defined
by the following loop, which should always be used as a source of
symmetry information in preference to the above space-group names.
They are only intended as comments.
;
_shelx_estimated_absorpt_t_max   0.815
_shelx_estimated_absorpt_t_min   0.513
_reflns_odcompleteness_completeness 49.75
_reflns_odcompleteness_iscentric 1
_reflns_odcompleteness_theta     26.32
_olex2_refinement_description
;
1. Fixed Uiso
 At 1.2 times of:
  All C(H) groups
2. Restrained distances
 C7-C9A \\sim C7-C10A \\sim C8-C10A \\sim C8-C11A \\sim C9-C11A \\sim C9-C7A
\\sim C10-C7A \\sim C10-C8A ~
 C11-C8A \\sim C11-C9A
 with sigma of 0.02
 C7-C7A \\sim C8-C8A \\sim C9-C9A \\sim C10-C10A \\sim C11-C11A
 with sigma of 0.02
 Fe1-C7 \\sim Fe1-C7A \\sim Fe1-C8 \\sim Fe1-C8A \\sim Fe1-C9 \\sim Fe1-C9A
\\sim Fe1-C10 \\sim Fe1-C10A ~
 Fe1-C11 \\sim Fe1-C11A
 with sigma of 0.02
3. Rigid bond restraints
 Fe1, C7, Fe1, C8, Fe1, C9, Fe1, C10, Fe1, C11, Fe1, C7A, Fe1, C8A, Fe1, C9A,
 Fe1, C10A, Fe1, C11A
 with sigma for 1-2 distances of 0.01 and sigma for 1-3 distances of 0.01
4. Rigid body (RIGU) restrains
 C7, C9A, C7, C10A, C8, C10A, C8, C11A, C9, C11A, C9, C7A, C10, C7A, C10, C8A,
 C11, C8A, C11, C9A
 with sigma for 1-2 distances of 0.004 and sigma for 1-3 distances of 0.004
5. Others
 Fixed Sof: C7(0.5) H7(0.5) C8(0.5) H8(0.5) C9(0.5) H9(0.5) C10(0.5) H10(0.5)
 C11(0.5) H11(0.5) C7A(0.5) H7A(0.5) C8A(0.5) H8A(0.5) C9A(0.5) H9A(0.5)
 C10A(0.5) H10A(0.5) C11A(0.5) H11A(0.5)
6.a Aromatic/amide H refined with riding coordinates:
 C7(H7), C8(H8), C9(H9), C10(H10), C11(H11), C7A(H7A), C8A(H8A), C9A(H9A),
 C10A(H10A), C11A(H11A)
;
_shelx_res_file
;
    exp_1340.res created by SHELXL-2014/7

TITL exp_1340 in -B 1 #-1
CELL 0.71073 7.167037 9.249421 11.888003 76.6212 77.6869 83.786
ZERR 2 0.000436 0.000578 0.000959 0.0061 0.006 0.0051
LATT 6
SFAC C H F Fe
UNIT 32 20 12 2
SADI C7 C9A C7 C10A C8 C10A C8 C11A C9 C11A C9 C7A C10 C7A C10 C8A C11 C8A =
 C11 C9A
SADI C7 C7A C8 C8A C9 C9A C10 C10A C11 C11A
SADI Fe1 C7 Fe1 C7A Fe1 C8 Fe1 C8A Fe1 C9 Fe1 C9A Fe1 C10 Fe1 C10A Fe1 C11 =
 FE1 C11A
DELU Fe1 C7 Fe1 C8 Fe1 C9 Fe1 C10 Fe1 C11 Fe1 C7A Fe1 C8A Fe1 C9A Fe1 C10A =
 FE1 C11A
RIGU C7 C9A C7 C10A C8 C10A C8 C11A C9 C11A C9 C7A C10 C7A C10 C8A C11 C8A =
 C11 C9A

L.S. 20 0 0
PLAN  1
SIZE 0.2 0.389 0.722
CONN 20 1.24 Fe1
BOND $H
CONF
list 4
fmap 2 53
acta
SHEL 50 0.85
REM <olex2.extras>
REM <HklSrc "%.\\exp_1340.hkl">
REM </olex2.extras>

WGHT    0.058200    0.439200
EXTI    0.039317
FVAR       8.40757
FE1   4    0.250000    0.500000    0.250000    10.50000    0.07395    0.05267 =
         0.05780   -0.00470   -0.02163    0.00369
PART 1
C7    1    0.315578    0.690456    0.128850    10.50000    0.10461    0.07117 =
         0.08991    0.00804   -0.01562   -0.00977
AFIX  43
H7    2    0.433614    0.732446    0.107605    10.50000   -1.20000
AFIX   0
C8    1    0.256146    0.584778    0.076545    10.50000    0.09595    0.08516 =
         0.05725   -0.00248   -0.01401    0.01105
AFIX  43
H8    2    0.328280    0.544632    0.014906    10.50000   -1.20000
AFIX   0
C9    1    0.069264    0.551732    0.134410    10.50000    0.08638    0.07810 =
         0.05951   -0.01744   -0.02683    0.01376
AFIX  43
H9    2   -0.004646    0.485772    0.117542    10.50000   -1.20000
AFIX   0
C10   1    0.012279    0.634858    0.222107    10.50000    0.08604    0.06299 =
         0.07467   -0.02015   -0.03466    0.01493
AFIX  43
H10   2   -0.105313    0.633772    0.273681    10.50000   -1.20000
AFIX   0
C11   1    0.165341    0.720011    0.217747    10.50000    0.09795    0.05319 =
         0.08550   -0.00921   -0.03138    0.00858
AFIX  43
H11   2    0.166186    0.785493    0.266347    10.50000   -1.20000
AFIX   0

PART 0
F1    3    0.360730    0.981528   -0.120069    11.00000    0.09450    0.17257 =
         0.13076    0.01622    0.01262    0.02241
F2    3    0.101504    0.812002   -0.148378    11.00000    0.22921    0.10240 =
         0.10101   -0.04582   -0.04856    0.04510
F3    3   -0.259592    0.828915   -0.027231    11.00000    0.16351    0.12587 =
         0.19534   -0.00953   -0.08700   -0.05285
C1    1    0.181045    0.990902   -0.061470    11.00000    0.07748    0.08466 =
         0.07424    0.01024   -0.00712    0.01653
C2    1    0.048627    0.905438   -0.074792    11.00000    0.11862    0.06110 =
         0.06925   -0.01243   -0.03043    0.01622
C3    1   -0.130589    0.914613   -0.014120    11.00000    0.09627    0.06856 =
         0.09283    0.00354   -0.04011   -0.01055

PART 2
C7A   1    0.019041    0.584034    0.178357    10.50000    0.06949    0.09577 =
         0.08561   -0.00591   -0.02422    0.00644
AFIX  43
H7A   2   -0.099588    0.543075    0.198160    10.50000   -1.20000
AFIX   0
C8A   1    0.079791    0.690597    0.232839    10.50000    0.07960    0.06748 =
         0.07595   -0.00651   -0.01242    0.01760
AFIX  43
H8A   2    0.007690    0.731238    0.294223    10.50000   -1.20000
AFIX   0
C9A   1    0.268002    0.721035    0.175579    10.50000    0.08765    0.05424 =
         0.05637   -0.01115   -0.00939    0.00614
AFIX  43
H9A   2    0.342520    0.785967    0.193173    10.50000   -1.20000
AFIX   0
C10A  1    0.325823    0.639405    0.088714    10.50000    0.08602    0.04820 =
         0.05862   -0.01186   -0.01923   -0.00822
AFIX  43
H10A  2    0.444707    0.640745    0.038451    10.50000   -1.20000
AFIX   0
C11A  1    0.173756    0.553773    0.089346    10.50000    0.07574    0.06901 =
         0.06032   -0.00359   -0.02563   -0.00854
AFIX  43
H11A  2    0.175213    0.488910    0.039894    10.50000   -1.20000
AFIX   0
HKLF 4

REM  exp_1340 in -B 1 #-1
REM R1 =  0.0368 for    1237 Fo > 4sig(Fo)  and  0.0377 for all    1271 data
REM    152 parameters refined using    190 restraints

END

WGHT      0.0582      0.4392

REM Highest difference peak  0.269,  deepest hole -0.211,  1-sigma level  0.058
Q1    1  -0.0549  0.8040 -0.0971  11.00000  0.05    0.27
;
_shelx_res_checksum              69721
_shelx_hkl_file
;
   0   0  -2 7959.34 347.694   4
   0   0  -2 8921.53 372.179   3
   0   0  -4 7368.40 430.022   4
   0   0   4 7873.59 444.037   4
   0   0   4 7758.66 482.373   3
   0   0  -4 8383.70 465.856   3
   0   0   6 60925.8 2116.41   4
   0   0  -6 65033.3 2107.66   3
   0   0  -6 62891.1 2058.55   4
   0   0  -8 25836.7 1214.29   3
   0   0   8 26357.6 1383.82   3
   0   0  -8 21663.3 1333.06   6
   0   0   8 23613.8 1237.37   4
   0   0 -10 11780.4 870.790   3
   0   0  10 11263.3 918.221   4
   0   0  12 5539.06 750.650   4
   0   0 -12 6599.27 713.051   3
   0   0 -14 305.371 245.281   3
   0   0  14 92.8592 272.262   4
   0  -1  14 793.029 362.840   4
   0   1 -14 769.967 324.496   3
   0   1 -12 3505.54 546.706   3
   0  -1  12 3560.37 582.572   4
   0   1 -10 5874.94 626.979   3
   0  -1  10 4390.85 559.892   4
   0   1  -8 842.922 238.533   3
   0   1  -8 870.707 273.856   6
   0  -1   8 1449.03 319.564   3
   0  -1   8 795.332 214.262   4
   0  -1   6 44132.0 1627.43   4
   0   1  -6 49952.0 1762.87   3
   0  -1   6 45643.1 1818.77   3
   0   1  -4 30366.0 1144.04   3
   0  -1   4 28209.8 1027.11   4
   0  -1   4 30447.3 1194.95   3
   0  -1   2 477854. 12671.1   7
   0   1  -2 510013. 12713.8   3
   0  -1   2 512167. 12760.2   6
   0  -1   2 493901. 12739.6   3
   0  -1  -2 498930. 12193.0   3
   0   1   2 485318. 12331.2   4
   0   1   4 223714. 5889.35   3
   0  -1  -4 229560. 5837.83   3
   0   1   4 220946. 5986.18   4
   0  -1  -4 207404. 5889.54   4
   0  -1  -6 98603.9 2881.05   3
   0  -1  -6 91581.9 2934.97   4
   0   1   6 92196.7 3030.81   4
   0  -1  -8 65311.9 2263.04   3
   0  -1  -8 62933.9 2294.99   4
   0   1   8 67049.8 2511.46   3
   0   1   8 61067.1 2433.91   4
   0  -1 -10 4491.82 519.637   3
   0   1  10 4239.12 617.840   4
   0  -1 -10 4014.43 492.010   4
   0  -1 -12 2780.87 487.051   3
   0   1  12 3127.98 594.757   4
   0  -1 -14 2144.09 467.324   3
   0   1  14 2401.55 589.254   4
   0  -2  12 1983.46 419.962   4
   0   2 -12 1825.94 411.228   3
   0   2 -10 6488.33 682.916   3
   0  -2  10 5733.93 606.259   4
   0  -2   8 8896.50 667.902   4
   0   2  -8 9732.72 775.954   3
   0  -2   8 11306.4 922.128   3
   0  -2   8 9844.69 815.170   7
   0  -2   6 65105.9 2132.40   4
   0   2  -6 69970.3 2355.68   3
   0  -2   6 64528.5 1763.91   8
   0  -2   6 69291.6 2481.28   3
   0  -2   4 54713.4 1910.11   7
   0   2  -4 59284.3 1964.72   3
   0  -2   4 56728.2 2012.84   3
   0  -2   2 376078. 9584.74   3
   0   2  -2 356819. 9555.26   6
   0  -2   2 373378. 9500.65   7
   0   2  -2 377606. 9562.04   3
   0   2  -2 374151. 9463.24   7
   0  -2   2 363582. 9561.73   6
   0   2   0 248005. 6070.29   1
   0   2   0 240172. 6236.26   6
   0  -2   0 243457. 6236.93   6
   0   2   0 253906. 6246.91   7
   0  -2   0 242232. 6225.98   7
   0  -2   0 255105. 6070.22   1
   0  -2   0 228898. 6305.27   4
   0  -2  -2 489816. 11450.8   5
   0  -2  -2 475613. 11468.3   2
   0   2   2 457996. 11757.7   4
   0   2   2 465268. 11390.3   5
   0   2   2 453124. 11450.0   2
   0  -2  -4 792.143 137.431   5
   0  -2  -4 794.079 222.945   4
   0   2   4 865.994 266.116   4
   0  -2  -6 155450. 4759.99   4
   0   2   6 161977. 4922.82   4
   0  -2  -6 168324. 4634.20   3
   0   2   8 15510.2 1108.93   4
   0  -2  -8 16664.3 1020.89   4
   0   2   8 15640.2 1019.75   3
   0  -2  -8 15299.1 914.379   3
   0  -2 -10 4605.21 264.702   8
   0  -2 -10 4642.18 552.837   3
   0  -2 -10 4315.03 530.895   4
   0   2  10 4070.56 640.911   4
   0   2  12 5272.17 774.329   4
   0  -2 -12 5709.35 668.508   3
   0   2  14 1526.48 539.762   4
   0  -2 -14 2065.65 445.697   3
   0  -3  12 1890.58 401.152   4
   0   3 -12 2149.13 444.776   3
   0  -3  10 5890.55 603.212   4
   0   3 -10 7147.48 755.851   3
   0  -3   8 12079.0 766.044   4
   0  -3   8 11738.1 923.110   7
   0   3  -8 12062.2 901.127   3
   0  -3   8 11268.0 394.020   8
   0  -3   6 8793.53 750.557   3
   0  -3   6 8429.82 432.040   8
   0   3  -6 8149.15 677.105   3
   0   3  -6 8606.91 752.854   6
   0  -3   6 8864.10 586.228   4
   0  -3   6 8802.66 694.548   7
   0   3  -4 58867.5 2080.51   3
   0  -3   4 59396.9 2128.68   3
   0  -3   4 53151.7 2072.94   6
   0  -3   4 55847.3 2004.59   7
   0  -3   2 18384.8 846.358   7
   0   3  -2 18655.4 910.750   3
   0  -3   2 18114.8 891.810   6
   0  -3   2 19027.5 742.824   1
   0   3  -2 19791.9 858.589   7
   0  -3   0 70855.0 1872.60   1
   0   3   0 70316.7 2116.98   7
   0  -3   0 70878.5 2094.54   7
   0   3   0 68881.5 1873.50   1
   0  -3   0 71453.4 2123.90   6
   0   3   0 69168.2 2099.75   6
   0  -3   0 69006.2 2216.74   4
   0   3   2 29958.2 935.875   5
   0  -3  -2 30484.0 974.142   5
   0   3   2 28998.6 986.292   2
   0   3   2 29041.3 1261.88   4
   0  -3  -2 29669.9 1076.68   6
   0   3   4 95517.8 3093.28   4
   0  -3  -4 90010.6 2663.02   2
   0  -3  -4 91429.4 2644.54   5
   0  -3  -6 3210.34 447.504   4
   0  -3  -6 3308.21 340.030   5
   0   3   6 3278.32 545.266   4
   0   3   8 27151.8 1578.85   4
   0  -3  -8 25393.1 1420.18   4
   0   3   8 28875.9 1419.79   3
   0  -3  -8 28660.2 1225.57   5
   0   3  10 13395.7 1156.69   4
   0  -3 -10 12852.5 850.585   5
   0  -3 -12 3210.70 477.274   5
   0   3  12 3477.52 665.031   4
   0  -3 -12 3612.54 263.582   8
   0   3  14-157.180 319.262   4
   0  -3 -14 848.720 292.554   5
   0   3  16-40.8843 275.124   4
   0   4 -12 788.397 322.983   3
   0  -4  12 1272.28 448.272   1
   0   4 -10 8765.13 865.967   3
   0  -4  10 9471.17 769.429   4
   0  -4  10 11132.5 1077.54   1
   0   4  -8 6042.83 666.152   3
   0  -4   8 6141.29 675.884   7
   0  -4   8 7012.12 734.807   1
   0  -4   8 5162.17 502.400   4
   0  -4   8 5706.98 355.216   8
   0   4  -6 17730.0 1109.06   3
   0  -4   6 18812.2 831.946   8
   0   4  -6 19695.4 1246.25   6
   0  -4   6 20098.7 1165.75   7
   0  -4   6 19479.2 1230.86   3
   0  -4   6 19065.7 1108.69   1
   0   4  -4 49054.5 1905.28   3
   0   4  -4 45311.9 1723.79   7
   0  -4   4 44856.3 1643.73   1
   0  -4   4 41976.3 1874.14   6
   0   4  -4 44854.1 1878.06   6
   0  -4   2 102370. 3278.59   6
   0   4  -2 105127. 3255.11   6
   0   4  -2 107269. 3338.34   3
   0  -4   2 106618. 2969.92   1
   0   4  -2 107186. 3208.14   7
   0  -4   2 108464. 3210.89   7
   0   4   0 75731.3 2377.31   7
   0  -4   0 76929.5 2385.58   6
   0   4   0 74687.6 2347.31   6
   0  -4   0 74260.5 2504.56   4
   0   4   0 72792.8 2031.45   1
   0  -4   0 78960.0 2341.02   7
   0   4   2 103811. 3235.94   4
   0   4   2 95426.6 2720.46   5
   0   4   2 100041. 3000.02   7
   0  -4  -2 102000. 2980.82   6
   0   4   4 1521.06 366.236   4
   0   4   4 1910.77 183.487   5
   0  -4  -4 1748.25 236.787   5
   0  -4  -6 23231.6 1381.71   4
   0  -4  -6 26657.4 1126.67   5
   0   4   6 25921.3 1475.67   4
   0  -4  -6 26521.5 1133.88   2
   0   4   8 32905.1 1866.31   4
   0  -4  -8 35287.6 1460.20   5
   0   4   8 36418.5 1630.50   3
   0  -4  -8 34301.8 1456.35   2
   0  -4  -8 35172.5 1797.47   4
   0  -4 -10 5175.85 524.042   5
   0   4  10 3547.99 681.340   4
   0   4  12 306.541 354.914   4
   0  -4 -12 633.721 167.965   8
   0  -4 -12 472.551 232.242   5
   0   4  14 1298.05 483.967   4
   0  -4 -14 1104.28 322.997   5
   0  -5  12 1306.13 430.831   1
   0  -5  10 2293.96 498.122   1
   0   5 -10 2451.49 483.339   3
   0  -5  10 1938.63 359.988   4
   0   5  -8 13376.7 1043.38   3
   0  -5   8 11551.4 808.462   4
   0  -5   8 12435.3 984.465   1
   0  -5   8 11675.8 641.250   8
   0  -5   6 10052.3 843.001   7
   0  -5   6 9480.63 625.748   8
   0  -5   6 9696.90 741.843   1
   0   5  -6 10619.1 873.743   3
   0  -5   4 40118.9 1708.94   7
   0   5  -4 38136.1 1637.42   7
   0  -5   4 37162.2 1795.60   6
   0   5  -4 39043.2 1770.34   6
   0  -5   4 39918.8 1505.60   1
   0   5  -4 40217.1 1809.60   3
   0   5  -2 32912.3 1421.96   7
   0   5  -2 35878.5 1586.55   3
   0  -5   2 32995.8 1168.12   1
   0   5  -2 33821.5 1457.39   6
   0  -5   2 32563.6 1479.71   6
   0  -5   0 16338.1 847.910   7
   0   5   0 18282.8 915.800   6
   0  -5   0 18164.3 960.910   6
   0   5   0 17683.4 928.331   7
   0   5   0 16952.4 615.473   1
   0   5   2 81877.9 2684.58   7
   0   5   2 85236.1 2924.19   4
   0   5   2 80588.0 2536.16   6
   0  -5  -2 83028.4 2648.26   6
   0   5   2 78186.9 2294.65   1
   0   5   2 79232.0 2339.39   5
   0  -5  -4 127079. 3804.36   6
   0   5   4 121417. 3540.95   2
   0  -5  -4 116525. 3525.52   5
   0   5   4 124673. 3361.24   5
   0  -5  -6 26313.7 1174.80   5
   0  -5  -6 27125.4 1186.22   2
   0  -5  -6 23954.7 1495.63   4
   0   5   6 27008.3 1577.57   4
   0  -5  -8 1843.18 315.239   5
   0  -5  -8 2370.46 355.943   2
   0   5   8 2893.32 620.117   4
   0   5  10 973.750 448.655   4
   0  -5 -10 1294.88 310.064   5
   0  -5 -10 1507.17 308.358   2
   0  -5 -12 2537.11 430.338   5
   0  -5 -12 2649.60 426.790   2
   0   5  12 2698.21 631.830   4
   0   5  14 1425.72 487.186   4
   0  -5 -14 889.510 330.222   2
   0  -5 -14 805.583 296.489   5
   0  -6  12 713.441 308.886   1
   0  -6  10 2323.14 469.868   1
   0   6 -10 1315.91 405.883   3
   0  -6  10 1879.94 360.924   4
   0  -6   8 6629.60 698.427   1
   0  -6   8 6559.87 625.897   4
   0  -6   8 6360.68 511.321   8
   0   6  -8 6457.73 773.894   3
   0  -6   6 13795.9 898.193   1
   0  -6   6 14941.7 871.850   8
   0  -6   6 13120.0 1025.31   7
   0   6  -6 13411.7 1075.96   3
   0  -6   4 3835.27 554.816   6
   0   6  -4 4543.52 552.891   6
   0   6  -4 4027.09 478.059   7
   0  -6   4 4934.44 542.918   7
   0   6  -4 4459.79 595.077   3
   0  -6   4 3483.70 370.504   1
   0  -6   2 3971.37 444.387   7
   0  -6   2 4390.57 525.497   6
   0  -6   2 4313.35 544.949   4
   0   6  -2 3251.31 469.180   3
   0  -6   2 3797.11 306.930   1
   0   6  -2 4308.68 494.038   6
   0   6  -2 4055.12 465.603   7
   0   6   0 50772.8 2014.66   7
   0  -6   0 54013.8 2080.53   6
   0   6   0 50678.9 1959.35   6
   0  -6   0 53632.1 2235.14   4
   0   6   2 82908.0 2392.50   1
   0   6   2 81725.3 2473.74   5
   0   6   2 83652.3 2878.62   7
   0   6   2 82064.3 2698.79   6
   0  -6  -2 84533.6 2827.70   6
   0  -6  -2 81401.3 3089.64   4
   0   6   4 28595.6 1044.19   5
   0   6   4 27313.1 1171.71   2
   0  -6  -4 30421.7 1698.33   4
   0  -6  -4 30746.6 1445.68   6
   0   6   4 27845.0 1417.58   7
   0   6   4 32413.0 1714.79   4
   0   6   6 3726.52 628.799   4
   0  -6  -6 3726.90 399.854   5
   0  -6  -6 4324.00 532.941   6
   0  -6  -6 3497.57 586.244   4
   0   6   8 5775.91 825.705   4
   0  -6  -8 6489.68 593.933   5
   0   6  10 10763.6 1132.54   4
   0  -6 -10 9430.02 739.936   2
   0  -6 -10 8758.59 746.735   5
   0  -6 -12 1426.47 318.202   2
   0   6  12 1456.16 515.874   4
   0  -6 -12 535.838 231.800   5
   0   6  14 422.913 332.724   4
   0  -6 -14 571.347 264.931   5
   0   7 -10 535.137 251.434   3
   0   7  -8 2750.59 543.320   3
   0  -7   8 2306.36 412.025   1
   0  -7   6 5232.31 551.261   8
   0  -7   6 5069.07 533.904   1
   0  -7   6 3975.90 659.854   6
   0   7  -6 5188.10 701.381   3
   0  -7   4 16575.9 1242.79   6
   0  -7   4 16402.1 1196.28   4
   0   7  -4 17610.1 1248.84   3
   0   7  -4 15682.1 1065.29   7
   0  -7   4 15983.2 1087.35   7
   0  -7   4 16639.3 881.539   1
   0  -7   2 10416.6 881.392   6
   0   7  -2 11220.0 868.252   6
   0   7  -2 10512.5 832.671   7
   0   7  -2 10243.1 929.291   3
   0  -7   2 9471.98 504.204   1
   0  -7   2 10104.3 918.348   4
   0  -7   2 10324.7 796.781   7
   0  -7   0 11236.8 868.648   6
   0   7   0 10428.9 834.388   7
   0   7   0 11876.1 834.456   6
   0  -7   0 11738.7 996.158   4
   0   7   2 4326.08 532.124   7
   0   7   2 4629.62 396.273   5
   0   7   2 5432.40 524.061   6
   0  -7  -2 4916.50 547.087   6
   0   7   2 4576.03 324.952   1
   0  -7  -2 4246.26 621.538   4
   0  -7  -4 8547.60 744.217   6
   0   7   4 8940.29 798.050   7
   0  -7  -4 8175.08 902.155   4
   0   7   4 8572.75 608.923   2
   0   7   4 7420.24 840.894   4
   0   7   4 7898.21 475.635   5
   0  -7  -6 12284.5 951.993   6
   0  -7  -6 11442.0 730.896   5
   0   7   6 13362.9 1206.18   4
   0  -7  -8 13127.8 1080.31   6
   0  -7  -8 12815.9 871.823   5
   0   7   8 15944.0 1383.35   4
   0   7  10 2265.68 635.161   4
   0  -7 -10 1909.66 374.696   5
   0   7  12 833.060 424.976   4
   0  -7 -12 624.912 258.196   5
   0  -7 -12 724.305 211.334   2
   0   8  -8 272.084 248.158   3
   0  -8   6 6527.20 868.721   6
   0  -8   6 7978.27 747.900   8
   0  -8   6 7344.27 632.736   1
   0   8  -6 7317.50 884.345   3
   0   8  -4 7125.52 739.363   7
   0  -8   4 6768.57 514.808   1
   0   8  -4 8702.54 915.640   3
   0  -8   4 7536.01 886.258   6
   0  -8   2 10121.9 922.187   6
   0   8  -2 9317.63 833.709   7
   0  -8   2 9017.18 782.440   7
   0   8  -2 10133.3 990.705   3
   0  -8   0 4263.26 580.844   6
   0   8   0 4140.98 515.880   6
   0   8   0 3872.16 449.876   5
   0   8   0 2897.26 473.758   7
   0   8   2 5613.15 339.760   1
   0   8   2 6764.67 724.814   7
   0   8   2 6354.28 608.852   6
   0   8   2 5915.23 483.578   5
   0  -8  -2 6605.13 682.072   6
   0   8   4 10345.1 927.228   7
   0   8   4 10170.6 719.202   2
   0   8   4 9708.30 604.604   1
   0  -8  -4 9930.48 872.057   6
   0   8   4 10161.8 573.144   5
   0   8   6 6716.57 786.404   7
   0  -8  -6 7053.21 766.097   6
   0   8   6 6817.23 925.130   4
   0  -8  -8 1042.51 261.127   5
   0   8   8 1690.78 511.246   4
   0  -8  -8 1261.28 376.107   6
   0   8  10 1105.90 470.508   4
   0  -8 -10 692.502 242.319   5
   0  -8 -10 1386.29 402.206   6
   0  -8 -12 840.983 329.500   6
   0   8  12 216.391 318.751   4
   0  -9   6 369.199 207.161   8
   0   9  -6 220.253 225.773   3
   0  -9   4 5831.44 829.823   6
   0   9  -4 6189.29 850.039   3
   0   9  -4 4945.48 656.634   7
   0  -9   2 5809.39 770.008   6
   0   9  -2 5463.53 689.115   7
   0   9  -2 6186.72 825.312   3
   0   9   0 4484.34 518.805   5
   0   9   0 5056.80 667.489   7
   0  -9   0 5331.88 698.685   6
   0   9   2 14586.3 1155.85   7
   0  -9  -2 16996.3 1219.18   6
   0  -9  -4 4715.75 635.955   6
   0   9   4 4869.08 524.611   2
   0   9   4 4773.61 391.961   5
   0   9   4 4894.68 676.546   7
   0  -9  -6 185.039 193.112   6
   0   9   6 549.024 281.872   7
   0   9   6 892.408 400.130   4
   0   9   6 530.331 189.781   2
   0   9   8 1697.04 538.639   4
   0   9   8 1452.48 422.618   7
   0  -9  -8 1465.03 404.597   6
   0  -9 -10 942.384 334.279   6
   0   9  10 1704.43 568.717   4
   0  -9 -12 803.115 346.657   6
   0  10  -4 1137.44 356.532   7
   0  10  -4 1300.74 451.718   3
   0 -10   4 432.582 291.081   6
   0 -10   2 1334.33 422.289   6
   0  10  -2 1460.50 457.785   3
   0  10  -2 1685.44 408.613   7
   0 -10   0 8156.01 913.623   6
   0  10   0 6022.80 766.575   7
   0 -10  -2 2381.20 505.498   6
   0  10   2 2035.32 454.524   7
   0 -10  -4 3173.44 584.000   6
   0  10   4 4119.31 658.340   7
   0 -10  -6 2065.45 499.973   6
   0  10   6 1587.47 446.519   7
   0 -10  -8 1121.50 385.621   6
   0  10   8 1369.71 438.256   7
   0  10   8 1264.29 530.829   4
   0  10  10 605.299 334.503   7
   0 -10 -10 173.331 203.350   6
   0 -10 -12-142.357 223.351   6
   0 -11   4 216.575 221.571   8
   0 -11   4 51.1329 261.290   6
   0  11  -2 1605.85 416.501   7
   0  11  -2 1898.83 531.265   3
   0 -11   2 2838.63 623.910   6
   0 -11   0-65.4736 216.911   6
   0  11   0 134.384 215.591   7
   0  11   0 122.034 271.340   3
   0 -11  -2 1483.21 429.742   6
   0  11   2 1590.37 425.858   7
   0  11   4 2034.32 506.981   7
   0 -11  -4 1952.12 469.012   6
   0  11   6 1485.61 472.334   7
   0 -11  -6 1041.52 385.229   6
   0 -11  -8 1377.75 442.348   6
   0  11   8 1133.58 426.008   7
   0  12   0 400.571 259.096   7
   0 -12   0 686.612 349.621   6
   0 -12  -2-94.2500 147.479   6
   0  12   2 297.782 234.056   7
   0  12   4 845.921 378.684   7
   0 -12  -4 456.390 302.078   6
   0  12   6 542.066 306.769   7
   0 -12  -6 334.471 231.913   6
   1 -12  -7 437.678 272.176   6
   1 -12  -5 613.919 364.690   6
  -1  12   3 81.3894 189.525   7
   1 -12  -3 429.033 308.260   6
   1 -12  -1 6.88088 220.321   6
  -1  12   1 144.342 162.932   7
  -1  12  -1 77.7810 212.751   7
   1 -11  -9 67.4771 215.310   6
   1 -11  -7 664.139 363.411   6
  -1  11   7 845.976 402.245   7
   1 -11  -5 632.937 314.908   6
  -1  11   5 1076.42 387.101   7
  -1  11   3 550.756 323.450   7
   1 -11  -3 754.923 334.066   6
  -1  11   1 236.269 244.131   7
   1 -11  -1 582.999 370.640   6
  -1  11  -1 1426.64 463.377   3
  -1  11  -1 1268.74 389.428   7
   1 -11   1 1830.47 521.314   6
  -1  11  -3 531.378 318.831   7
   1 -11   3-136.243 229.830   6
   1 -10 -11 678.694 360.469   6
  -1  10   9 618.178 354.834   7
   1 -10  -9 293.666 230.371   6
   1 -10  -7 912.841 425.535   6
  -1  10   7 949.790 383.625   7
   1 -10  -5 852.832 360.290   6
  -1  10   5 1260.03 419.694   7
   1 -10  -3 4085.40 698.661   6
  -1  10   3 5072.59 768.020   7
   1 -10  -1 2567.02 571.759   6
  -1  10   1 3224.73 614.243   7
  -1  10  -1 1495.75 444.336   3
   1 -10   1 1352.99 408.161   6
  -1  10  -1 1642.35 442.517   7
  -1  10  -3 1410.08 403.445   7
   1 -10   3 1844.77 488.582   6
  -1  10  -3 1277.00 408.427   3
  -1  10  -5 487.766 281.087   7
  -1  10  -5 647.899 318.323   3
   1 -10   5 1122.90 449.738   6
   1  -9 -11 170.066 210.217   6
   1  -9  -9 663.705 331.818   6
  -1   9   9 742.750 368.833   7
  -1   9   9 603.844 429.644   4
   1  -9  -7 1530.96 458.437   6
  -1   9   7 885.259 388.890   7
   1  -9  -5 8309.97 930.313   6
  -1   9   5 8067.38 929.218   7
  -1   9   3 5439.41 745.634   7
   1  -9  -3 5314.69 732.155   6
  -1   9   1 3560.73 349.650   5
   1  -9  -1 3857.67 625.806   6
  -1   9   1 3477.11 593.175   7
  -1   9  -1 4713.27 704.885   3
   1  -9   1 5355.15 753.377   6
  -1   9  -1 4922.08 697.144   7
  -1   9  -3 8510.14 913.071   7
  -1   9  -3 7852.31 923.641   3
   1  -9   3 7463.41 915.308   6
  -1   9  -5 1518.39 444.801   3
  -1   9  -5 2019.54 450.584   7
   1  -9   5 1685.05 490.706   6
  -1   9  -7 916.260 339.442   3
   1  -8 -13 208.517 205.729   6
  -1   8  11 790.500 392.606   4
   1  -8 -11 718.146 348.887   6
   1  -8  -9 1527.21 429.224   6
  -1   8   9 2446.05 645.481   4
  -1   8   7 6226.76 818.108   7
   1  -8  -7 7708.66 888.895   6
  -1   8   7 8305.35 1050.21   4
   1  -8  -5 3025.13 533.403   6
  -1   8   5 2275.07 474.352   7
  -1   8   5 2275.88 384.361   2
  -1   8   3 1481.47 155.413   5
  -1   8   3 1700.86 132.306   1
  -1   8   3 1649.21 134.998   1
  -1   8   3 1384.64 294.005   2
  -1   8   3 1917.40 439.801   7
   1  -8  -3 1625.48 382.008   6
  -1   8   1 4429.47 624.109   7
  -1   8   1 4513.81 379.134   5
   1  -8  -1 4802.68 639.940   6
  -1   8  -1 17710.4 1268.71   7
   1  -8   1 17931.4 1306.23   6
  -1   8  -3 11997.0 1038.60   7
  -1   8  -3 11381.5 1046.25   3
   1  -8   3 13053.0 1121.06   6
   1  -8   5 6711.72 872.638   6
  -1   8  -5 5576.82 723.978   7
  -1   8  -5 5797.09 755.299   3
   1  -8   7 442.517 312.270   6
  -1   8  -7 1701.01 434.998   3
  -1   8  -9 1056.29 361.242   3
  -1   7  13 171.218 240.479   4
   1  -7 -13 144.679 199.388   2
  -1   7  11 1523.82 519.000   4
   1  -7 -11 1423.35 325.289   5
   1  -7 -11 1346.70 331.761   2
   1  -7  -9 4764.04 490.376   5
   1  -7  -9 4181.00 669.590   6
  -1   7   9 5094.10 804.752   4
   1  -7  -7 955.449 337.380   6
  -1   7   7 489.601 340.137   4
   1  -7  -7 947.395 200.118   5
  -1   7   5 4559.94 491.238   2
  -1   7   5 4757.44 645.853   7
   1  -7  -5 4917.40 638.829   6
  -1   7   3 19964.2 1090.90   2
  -1   7   3 20921.5 1324.32   7
  -1   7   3 20496.6 786.189   1
   1  -7  -3 23696.5 1377.40   6
  -1   7   3 22098.2 730.847   5
   1  -7  -1 16775.9 1130.35   6
  -1   7   1 18529.0 1091.50   6
  -1   7   1 18649.7 1198.26   7
  -1   7   1 16166.7 751.658   5
   1  -7  -1 16434.2 1242.64   4
   1  -7   1 3048.77 436.714   7
   1  -7   1 2281.82 461.142   4
  -1   7  -1 2754.62 468.872   7
  -1   7  -1 3114.75 454.960   6
   1  -7   1 2787.45 475.542   6
   1  -7   3 8771.04 348.446   1
   1  -7   3 10516.9 930.397   6
  -1   7  -3 8291.21 808.371   7
  -1   7  -3 8309.73 849.148   3
  -1   7  -5 7819.48 820.256   3
  -1   7  -5 7899.62 810.731   7
   1  -7   5 7472.08 524.319   1
   1  -7   5 7608.13 881.775   6
   1  -7   7 5396.75 531.926   1
   1  -7   7 4885.51 751.617   6
  -1   7  -7 6590.80 770.511   3
  -1   7  -9 1546.48 396.354   3
   1  -7   9 862.585 282.653   4
  -1   6  13 270.469 390.114   4
   1  -6 -13 605.061 283.623   2
   1  -6 -13 240.455 190.156   5
   1  -6 -11 1475.98 316.181   5
  -1   6  11 1905.72 570.778   4
   1  -6 -11 1547.56 360.348   2
  -1   6   9 1579.59 508.823   4
   1  -6  -9 1628.82 304.270   5
   1  -6  -9 1445.31 339.062   2
   1  -6  -7 8230.19 828.426   6
  -1   6   7 10668.4 1063.98   4
   1  -6  -7 8754.84 613.252   5
   1  -6  -5 56662.4 2284.24   6
  -1   6   5 49426.4 2199.20   7
   1  -6  -5 49239.4 2375.93   4
   1  -6  -5 49160.7 1599.29   5
  -1   6   5 57137.8 2532.23   4
  -1   6   3 57723.5 2290.36   7
   1  -6  -3 58399.3 2305.62   6
  -1   6   3 53254.2 1979.01   2
   1  -6  -3 52734.0 2355.89   4
  -1   6   3 54219.6 1503.92   5
  -1   6   1 432.653 120.338   5
   1  -6  -1 362.975 198.410   6
  -1   6   1 295.328 199.061   7
   1  -6  -1 242.389 207.299   4
  -1   6   1 336.068 160.003   6
   1  -6   1 20663.8 1261.84   4
  -1   6  -1 18073.4 1089.71   6
   1  -6   1 19644.7 1200.49   6
   1  -6   1 20089.6 1120.32   7
  -1   6  -1 20170.6 1183.33   7
   1  -6   3 19904.0 739.322   1
   1  -6   3 20022.0 1194.02   7
  -1   6  -3 20503.8 1223.46   6
  -1   6  -3 18551.9 1180.17   7
  -1   6  -3 19674.7 1220.49   3
   1  -6   3 20559.0 1269.95   6
  -1   6  -5 7458.86 738.586   3
   1  -6   5 6860.64 506.649   1
   1  -6   5 7013.89 740.377   7
   1  -6   5 8183.05 849.052   6
  -1   6  -5 5953.05 656.983   7
   1  -6   7 6343.85 586.431   1
   1  -6   7 7214.20 858.617   6
  -1   6  -7 6964.11 745.081   3
  -1   6  -9 3506.11 565.517   3
   1  -6   9 3447.29 503.849   1
   1  -6   9 3201.66 487.863   4
   1  -6  11 457.963 214.124   4
   1  -6  11 474.951 240.898   1
  -1   6 -11 360.534 218.040   3
  -1   5  15 181.416 278.869   4
   1  -5 -13 931.906 286.902   5
   1  -5 -13 731.612 268.508   2
  -1   5  13 822.575 393.320   4
   1  -5 -11 1072.18 277.236   5
  -1   5  11 685.033 381.659   4
   1  -5 -11 886.525 296.174   2
   1  -5  -9 12908.5 923.308   2
  -1   5   9 13013.1 1179.30   4
   1  -5  -9 11743.2 765.415   5
   1  -5  -7 26576.6 1326.34   2
   1  -5  -7 25674.6 1127.83   5
   1  -5  -7 23763.8 1548.44   4
  -1   5   7 27164.1 1671.74   4
  -1   5   5 23188.2 1418.47   4
   1  -5  -5 21247.3 1364.92   4
  -1   5   5 23353.8 1113.00   3
   1  -5  -5 22466.4 886.122   5
   1  -5  -5 21068.4 1222.41   6
  -1   5   3 17796.6 917.868   2
  -1   5   3 18832.3 1089.03   7
   1  -5  -3 21162.6 1118.44   6
   1  -5  -1 149060. 4380.01   6
  -1   5   1 136117. 4328.80   7
  -1   5   1 143006. 3789.65   5
  -1   5   1 145081. 4243.48   6
   1  -5   1 24364.9 1251.74   6
  -1   5  -1 24650.9 1239.10   7
  -1   5  -1 24111.4 1194.64   6
   1  -5   3 88691.6 3068.33   7
  -1   5  -3 88788.3 3079.81   6
   1  -5   3 89843.4 2520.96   1
  -1   5  -3 87757.4 3043.43   7
  -1   5  -3 86818.9 3041.53   3
   1  -5   3 96144.0 3196.06   6
   1  -5   5 24864.9 1504.70   6
  -1   5  -5 26641.1 1411.77   7
   1  -5   5 29328.3 1180.86   1
  -1   5  -5 26921.3 1412.59   3
   1  -5   5 27811.6 1491.19   7
  -1   5  -7 1858.57 372.253   3
   1  -5   7 1560.33 391.277   6
   1  -5   7 2208.68 361.355   1
   1  -5   9 6284.69 688.746   1
   1  -5   9 4984.36 597.880   4
  -1   5  -9 6323.14 717.029   3
   1  -5  11 2487.86 520.747   1
  -1   5 -11 1992.53 436.785   3
   1  -5  11 2463.29 434.618   4
   1  -5  13 291.787 235.350   1
   1  -4 -15 83.1229 170.082   5
  -1   4  15 486.873 316.573   4
  -1   4  13 238.207 304.634   4
   1  -4 -13 1180.27 288.990   5
  -1   4  11 3480.16 635.901   4
   1  -4 -11 2631.40 382.590   5
  -1   4   9 10828.2 1022.16   4
   1  -4  -9 10496.9 681.706   5
  -1   4   7 5709.72 695.251   4
  -1   4   7 5733.28 567.648   3
   1  -4  -7 5063.21 638.340   4
   1  -4  -7 5761.78 434.892   5
   1  -4  -7 5763.41 577.646   2
   1  -4  -5 471.389 191.738   2
   1  -4  -5 610.132 140.710   5
  -1   4   5 717.611 310.128   4
   1  -4  -5 799.713 294.632   4
   1  -4  -3 215262. 5822.83   6
  -1   4   3 201091. 5620.72   2
   1  -4  -3 201532. 5230.57   5
  -1   4   3 200933. 5793.01   7
  -1   4   1 32425.5 975.260   5
  -1   4   1 32803.2 1378.09   7
  -1   4   1 33560.9 1320.74   6
   1  -4  -1 35141.7 1411.66   6
  -1   4  -1 141378. 4138.34   7
   1  -4   1 133274. 4063.60   7
   1  -4   1 144211. 4159.54   6
  -1   4  -3 227463. 6614.92   7
  -1   4  -3 231321. 6585.75   3
   1  -4   5 11706.5 924.585   6
  -1   4  -5 13071.6 866.808   3
  -1   4  -5 12924.7 862.860   7
  -1   4  -5 13656.6 953.659   6
   1  -4   5 13768.3 941.159   7
   1  -4   7 21020.3 1313.11   7
   1  -4   7 18502.0 1292.60   6
   1  -4   7 19823.5 1255.82   3
  -1   4  -7 21402.5 1214.88   3
   1  -4   9 11593.0 882.446   4
   1  -4   9 11638.4 492.544   8
  -1   4 -11 2981.84 514.529   3
   1  -4  11 2849.96 464.345   4
  -1   4 -13 607.983 268.067   3
   1  -4  13 998.391 321.948   4
   1  -3 -15 193.739 209.826   5
  -1   3  15 97.1863 271.347   4
   1  -3 -13 931.668 355.233   3
  -1   3  13 1254.80 441.713   4
   1  -3 -11 1219.23 337.969   3
  -1   3  11 920.371 378.708   4
  -1   3   9 1061.56 396.001   4
   1  -3  -9 1732.72 343.387   4
  -1   3   7 9915.37 769.736   3
  -1   3   7 10687.4 896.183   4
   1  -3  -7 10056.6 826.106   4
  -1   3   5 48475.9 1977.70   4
   1  -3  -5 47749.5 1762.40   2
   1  -3  -5 43860.5 1932.52   4
   1  -3  -3 45350.3 1606.27   2
   1  -3  -3 45238.5 1306.43   5
  -1   3   3 45066.5 1776.69   4
  -1   3   1 158967. 4451.64   7
  -1   3   1 155537. 4384.91   6
  -1   3   1 158033. 4316.29   2
   1  -3  -1 162734. 4463.55   6
   1  -3   1 3259.75 323.836   7
  -1   3  -1 3470.73 345.226   7
   1  -3   1 2714.76 318.987   6
  -1   3  -3 6239.73 509.796   7
   1  -3   3 6715.25 546.271   6
   1  -3   3 6287.15 520.283   7
  -1   3  -3 6354.02 483.028   3
   1  -3   5 444083. 11790.5   7
   1  -3   5 427844. 11805.4   6
   1  -3   5 438442. 11696.5   3
  -1   3  -5 450554. 11606.9   3
   1  -3   7 20329.4 1203.93   3
  -1   3  -7 18956.9 1248.51   6
   1  -3   7 19987.4 1085.89   4
   1  -3   7 20084.0 1231.68   7
  -1   3  -7 20047.9 1108.35   3
  -1   3  -9 7954.07 722.887   3
   1  -3   9 7972.61 692.235   4
  -1   3 -11 6780.66 717.137   3
   1  -3  11 6460.17 693.078   4
  -1   3 -13 818.202 305.719   3
   1  -3  13 267.812 235.254   4
   1  -2 -13 2073.33 455.940   3
  -1   2  13 1871.48 495.398   4
  -1   2  11 209.694 276.106   4
   1  -2 -11 466.792 95.9385   8
   1  -2 -11 34.3103 227.257   3
  -1   2   9 9404.13 891.032   4
   1  -2  -9 9728.47 785.028   4
   1  -2  -9 9643.00 790.252   3
  -1   2   7 65996.3 2561.89   4
   1  -2  -7 69063.2 2379.72   3
   1  -2  -7 65975.9 2448.82   4
  -1   2   5 40206.8 1667.41   4
   1  -2  -5 38542.7 1640.61   4
   1  -2  -5 40490.3 1508.14   3
  -1   2   3 5675.28 404.430   3
  -1   2   3 5759.66 506.311   4
   1  -2  -3 5884.46 492.164   4
   1  -2  -3 5902.01 434.502   2
  -1   2   1 26024.1 791.921   1
   1  -2  -1 24501.9 954.014   6
  -1   2   1 23851.2 958.341   7
  -1   2   1 24922.1 911.091   2
   1  -2   1 311504. 8116.28   6
  -1   2  -1 313068. 8127.24   7
  -1   2  -3 474195. 12334.0   7
   1  -2   3 460945. 12243.0   3
   1  -2   3 470806. 12379.0   7
  -1   2  -3 475015. 12234.4   3
   1  -2   5 8545.83 605.192   3
   1  -2   5 7041.13 618.522   6
  -1   2  -5 8537.35 575.903   3
  -1   2  -7 15430.7 1067.55   6
  -1   2  -7 17633.2 966.613   3
   1  -2   7 18047.0 1112.01   7
   1  -2   7 17834.7 1056.63   3
   1  -2   7 16401.2 937.051   4
   1  -2   9 10556.9 909.710   3
  -1   2  -9 11743.5 841.144   3
   1  -2   9 10679.2 821.888   4
  -1   2 -11 6676.86 683.601   3
   1  -2  11 6323.89 689.709   4
  -1   2 -13 1689.77 397.817   3
   1  -2  13 1030.46 371.162   4
   1  -1 -13 1066.99 363.232   3
  -1   1  13 1176.39 441.731   4
   1  -1 -11 11791.2 938.514   3
  -1   1  11 10591.6 990.762   4
   1  -1 -11 9868.59 813.733   4
   1  -1  -9 10093.5 747.345   4
   1  -1  -9 10459.6 796.051   3
   1  -1  -9 9907.29 435.999   8
  -1   1   9 10427.7 886.112   4
   1  -1  -7 36724.3 1490.76   3
   1  -1  -7 34677.4 1458.89   4
  -1   1   7 34837.3 1601.21   4
  -1   1   5 1253.19 310.664   4
   1  -1  -5 1190.09 230.596   4
   1  -1  -5 1222.04 229.558   3
  -1   1   3 107052. 3108.31   3
   1  -1  -3 114811. 3078.64   3
  -1   1   3 109913. 3156.53   4
   1  -1  -3 105623. 3179.03   4
   1  -1  -1 394511. 10301.7   2
  -1   1   1 411360. 10269.3   7
  -1   1   1 386702. 10200.0   3
  -1   1  -1 434847. 11238.0   7
   1  -1   1 454218. 11222.6   6
  -1   1  -3 922731. 20387.3   6
   1  -1   3 999999. 20410.3   6
  -1   1  -5 62645.6 1987.57   3
   1  -1   5 61840.8 2039.32   4
   1  -1   5 60980.5 2053.97   3
  -1   1  -7 54568.2 2217.97   6
   1  -1   7 55864.9 2101.41   3
   1  -1   7 55864.6 2182.31   7
  -1   1  -7 56459.7 1985.25   3
   1  -1   7 53741.5 2016.15   4
   1  -1   9 2535.44 404.300   4
   1  -1   9 3687.70 509.705   3
  -1   1  -9 3500.22 433.812   3
   1  -1  11 8385.81 831.834   4
  -1   1 -11 11631.4 872.281   3
  -1   1 -13 882.004 302.348   3
   1  -1  13 1119.39 389.735   4
   1  -1  15 146.088 268.535   4
   1   0 -13 5190.54 691.299   3
  -1   0  13 3844.28 647.105   4
  -1   0  11 3461.00 551.804   4
   1   0 -11 3385.55 522.976   3
   1   0  -9 3074.39 384.810   4
  -1   0   9 3140.90 480.040   4
   1   0  -9 3187.49 452.777   3
   1   0  -7 26318.3 1136.71   4
  -1   0   7 26050.9 1272.46   4
   1   0  -7 27763.8 866.930   8
   1   0  -7 28411.6 1293.32   3
   1   0  -5 201743. 5422.61   4
  -1   0   5 204546. 5573.96   4
   1   0  -5 208067. 5588.13   3
   1   0  -5 201896. 5236.57   8
  -1   0   3 198502. 5040.37   4
   1   0  -3 187704. 4903.54   8
   1   0  -3 197741. 5087.50   3
   1   0  -3 182786. 4951.61   4
  -1   0   1 395651. 11437.0   3
   1   0  -1 411817. 11431.9   3
   1   0   3 74992.1 2117.47   4
   1   0   3 82769.5 2155.24   6
  -1   0  -3 68385.3 1958.59   3
   1   0   3 65734.1 1983.05   3
  -1   0  -3 75420.3 2130.65   6
   1   0   3 69422.4 1898.94   8
  -1   0  -5 128701. 3604.45   3
   1   0   5 130236. 3703.56   3
   1   0   5 129983. 3754.17   4
   1   0   5 132175. 3314.17   8
  -1   0  -5 122868. 3822.67   6
  -1   0  -7 15521.4 992.546   6
  -1   0  -7 16509.0 827.466   3
   1   0   7 14759.9 886.371   4
   1   0   7 16264.8 915.129   3
   1   0   9 14475.8 1004.86   4
   1   0   9 16521.8 1069.07   3
  -1   0  -9 14471.3 886.652   3
  -1   0  -9 13916.5 1069.66   6
  -1   0 -11 1808.24 356.879   3
   1   0  11 1592.39 425.579   4
  -1   0 -13 2190.28 432.225   3
   1   0  13 1846.12 484.510   4
  -1   0 -15 289.108 236.655   3
   1   0  15 130.225 264.523   4
   1   1 -13 202.108 262.924   3
   1   1 -11 7317.61 752.796   3
  -1  -1  11 6251.76 702.864   4
   1   1  -9 11478.3 875.614   3
  -1  -1   9 11116.1 829.180   4
   1   1  -7 31997.7 1458.33   3
  -1  -1   7 30596.3 1316.30   4
  -1  -1   7 31864.5 1570.90   3
  -1  -1   5 112019. 3253.97   4
   1   1  -5 122482. 3536.20   3
   1   1  -5 116051. 3082.12   8
  -1  -1   3 3536.62 231.525   8
  -1  -1   3 4026.59 223.979   4
   1   1  -3 3781.74 339.223   3
   1   1  -3 3375.76 227.669   8
   1   1  -1 309050. 7830.98   3
   1   1  -1 290183. 7740.29   8
  -1  -1   1 303103. 7738.22   8
  -1  -1   1 306860. 7843.08   3
  -1  -1  -1 541926. 14176.5   4
  -1  -1  -1 601937. 14217.1   8
  -1  -1  -3 270261. 7133.92   5
  -1  -1  -3 274596. 6996.28   8
   1   1   3 268186. 6975.97   8
   1   1   3 266664. 7040.66   3
   1   1   5 50400.4 1860.92   4
  -1  -1  -5 54580.1 1555.49   8
  -1  -1  -5 56466.5 1767.03   3
   1   1   5 55767.2 1797.52   3
   1   1   7 137789. 4079.37   3
  -1  -1  -7 138295. 3915.25   3
  -1  -1  -7 135997. 3487.10   8
  -1  -1  -7 131806. 4031.03   4
   1   1   7 123402. 4094.10   4
  -1  -1  -9 472.921 180.368   4
  -1  -1  -9 378.554 185.373   3
  -1  -1  -9 835.632 279.471   6
   1   1   9 314.684 253.267   4
   1   1   9 593.635 195.496   3
  -1  -1 -11 6163.27 619.549   3
   1   1  11 4950.97 685.624   4
   1   1  13 4048.10 692.330   4
  -1  -1 -13 3791.24 551.631   3
  -1  -1 -15 393.478 241.751   3
   1   1  15 1077.03 442.798   4
  -1  -2  13 1850.64 576.817   1
   1   2 -13 808.932 333.495   3
   1   2 -11 3665.99 560.573   3
  -1  -2  11 3553.88 507.238   4
  -1  -2  11 3816.21 787.896   1
   1   2  -9 2213.05 418.298   3
  -1  -2   9 2509.48 382.117   4
   1   2  -7 19393.6 1109.16   3
  -1  -2   7 18666.6 1201.06   3
   1   2  -7 16814.2 1164.27   6
  -1  -2   7 17091.2 858.732   4
   1   2  -5 26401.4 1225.10   3
  -1  -2   5 27514.1 1356.00   1
  -1  -2   5 24227.2 869.363   8
  -1  -2   5 25154.4 934.028   4
   1   2  -3 128625. 4001.32   6
   1   2  -3 149972. 4067.52   3
  -1  -2   3 136110. 3817.00   7
  -1  -2   3 143761. 3760.53   8
  -1  -2   3 141033. 4039.05   1
  -1  -2   1 18414.4 762.311   1
  -1  -2   1 18970.5 636.341   7
   1   2  -1 19744.0 631.438   7
  -1  -2   1 18579.2 673.306   4
   1   2  -1 19047.9 823.801   3
  -1  -2   1 20340.7 760.392   8
   1   2  -1 17920.5 738.200   1
  -1  -2  -1 434917. 11187.9   8
   1   2   1 458642. 11176.1   5
  -1  -2  -1 455567. 11191.9   5
  -1  -2  -1 420914. 11243.1   4
   1   2   1 430766. 11266.6   4
  -1  -2  -3 121785. 3438.95   5
  -1  -2  -3 116732. 3354.62   8
   1   2   3 117776. 3341.43   5
   1   2   5 60856.7 1944.47   3
   1   2   5 59121.1 2154.03   4
  -1  -2  -5 55879.9 1964.71   5
  -1  -2  -5 61704.1 1819.15   8
   1   2   7 27768.8 1437.79   4
  -1  -2  -7 26856.3 1258.36   5
   1   2   7 29786.0 1316.03   3
  -1  -2  -7 30200.0 1269.67   3
  -1  -2  -7 30578.2 1056.62   8
  -1  -2  -7 30359.9 1403.33   4
  -1  -2  -9 42053.4 1795.04   5
  -1  -2  -9 45748.4 1792.24   3
   1   2   9 46551.2 1984.52   3
  -1  -2  -9 43659.5 1925.52   4
  -1  -2  -9 44368.5 1376.48   8
   1   2   9 43088.1 2057.59   4
  -1  -2 -11 8314.96 750.527   5
   1   2  11 9204.91 960.345   4
  -1  -2 -11 8816.83 752.628   3
   1   2  13 2152.71 562.111   4
  -1  -2 -13 2405.93 465.035   5
  -1  -2 -13 1996.89 408.552   3
   1   2  15 247.313 331.675   4
  -1  -2 -15 271.786 234.318   5
  -1  -2 -15 510.160 296.390   3
  -1  -3  13 689.450 407.146   1
   1   3 -11 1903.01 440.385   3
  -1  -3  11 2353.28 598.290   1
  -1  -3  11 1454.17 338.530   4
   1   3  -9 9743.89 874.537   3
  -1  -3   9 9487.07 1030.58   1
  -1  -3   9 9399.47 693.502   4
  -1  -3   7 443.044 274.596   1
   1   3  -7 70.7278 147.350   3
  -1  -3   7 341.146 170.814   7
  -1  -3   7 119.882 79.6843   8
  -1  -3   7 37.0664 99.7406   4
   1   3  -5 36995.6 1571.12   3
  -1  -3   5 33513.0 1168.11   4
  -1  -3   5 31311.4 1364.14   7
   1   3  -5 32451.7 1549.27   6
  -1  -3   5 34501.3 1570.11   1
  -1  -3   5 33244.2 1182.52   8
  -1  -3   3 58598.1 2044.70   1
   1   3  -3 57625.8 2081.01   6
  -1  -3   3 61544.2 1941.38   7
   1   3  -3 61081.2 2162.64   3
  -1  -3   3 62354.3 1907.49   8
   1   3  -1 190231. 4930.99   7
   1   3  -1 184410. 5073.30   6
   1   3  -1 186282. 5021.35   1
  -1  -3   1 185346. 5061.01   4
   1   3  -1 193051. 5246.19   3
  -1  -3   1 194640. 5068.75   1
  -1  -3   1 185872. 4925.38   7
  -1  -3   1 183268. 5096.23   6
  -1  -3   1 198954. 5112.96   8
   1   3   1 50075.7 1618.82   5
   1   3   1 50846.7 1600.07   1
   1   3   1 51729.7 1737.49   4
   1   3   1 50884.0 1513.90   7
  -1  -3  -1 49697.6 1767.23   4
   1   3   1 51334.1 1485.20   6
  -1  -3  -1 50274.7 1491.84   6
  -1  -3  -3 4717.91 468.522   4
   1   3   3 3945.72 301.291   5
   1   3   3 4910.95 502.969   4
   1   3   3 4608.93 222.948   2
  -1  -3  -3 3681.99 339.212   5
   1   3   5 30710.9 1474.68   4
   1   3   5 28594.8 1149.41   3
  -1  -3  -5 29875.9 993.009   2
  -1  -3  -5 29132.1 1227.95   5
   1   3   7 122187. 3630.03   3
  -1  -3  -7 118520. 3389.65   8
  -1  -3  -7 110743. 3591.41   5
  -1  -3  -7 116290. 3821.42   4
   1   3   7 117048. 3977.79   4
   1   3   9 27503.8 1424.42   3
  -1  -3  -9 28018.7 1373.49   5
  -1  -3  -9 28416.8 1526.68   4
   1   3   9 26374.4 1638.86   4
  -1  -3  -9 29304.3 1141.15   8
  -1  -3 -11 2339.75 244.326   8
   1   3  11 2644.05 592.092   4
  -1  -3 -11 2928.29 462.441   5
   1   3  13 852.234 420.703   4
  -1  -3 -13 1595.32 386.774   5
  -1  -3 -15 1011.15 346.416   5
   1   3  15 651.625 417.709   4
   1   4 -11 2326.97 485.675   3
  -1  -4  11 2750.84 634.022   1
   1   4  -9 2239.38 445.362   3
  -1  -4   9 1992.41 480.547   1
  -1  -4   9 1923.07 303.451   4
   1   4  -7 8860.29 803.512   3
  -1  -4   7 7483.42 477.130   8
  -1  -4   7 6917.63 668.180   7
  -1  -4   7 8818.25 856.254   1
  -1  -4   7 7718.80 530.284   4
  -1  -4   5 18412.2 869.373   8
  -1  -4   5 17207.9 1063.83   1
   1   4  -5 17928.7 1114.54   6
   1   4  -5 20972.9 1181.55   3
  -1  -4   5 20431.4 1244.20   3
  -1  -4   3 51621.9 1738.45   8
   1   4  -3 47528.9 1877.69   6
   1   4  -3 53071.0 1996.97   3
  -1  -4   3 48020.9 1716.54   7
  -1  -4   3 46691.6 1750.44   1
   1   4  -1 28639.7 1075.92   1
  -1  -4   1 29977.1 1204.76   6
  -1  -4   1 27931.3 1052.28   7
   1   4  -1 29235.3 1080.80   7
  -1  -4   1 27971.9 1211.46   4
   1   4  -1 31092.7 1338.39   3
   1   4  -1 29126.0 1161.44   6
  -1  -4   1 29856.2 1116.29   1
   1   4   1 36766.7 1422.01   4
  -1  -4  -1 32875.9 1433.89   4
   1   4   1 33255.6 1167.27   6
  -1  -4  -1 34023.4 1188.79   6
   1   4   1 32671.9 1194.04   1
   1   4   1 33802.8 1262.56   5
   1   4   1 34632.2 1210.80   7
  -1  -4  -3 175053. 5070.69   5
   1   4   3 173887. 4977.63   5
   1   4   3 191208. 4812.08   2
  -1  -4  -3 186433. 4955.73   6
   1   4   5 36126.2 1296.82   5
  -1  -4  -5 38980.8 1516.41   5
   1   4   5 40621.6 1844.43   4
   1   4   7 8338.20 853.370   4
   1   4   7 8058.94 615.428   3
  -1  -4  -7 8754.25 779.310   4
  -1  -4  -7 7895.61 645.736   5
  -1  -4  -7 7849.58 494.922   2
   1   4   9 3729.51 681.227   4
  -1  -4  -9 4737.14 447.676   8
   1   4   9 4734.36 521.736   3
  -1  -4  -9 4388.95 522.727   5
  -1  -4 -11 3667.99 514.269   5
  -1  -4 -11 3474.72 371.903   8
   1   4  11 3867.11 711.095   4
  -1  -4 -13 4145.96 598.524   5
   1   4  13 4366.77 799.844   4
   1   4  15 160.965 346.015   4
  -1  -4 -15 360.573 208.043   5
  -1  -5  11 798.044 352.180   1
   1   5 -11 291.980 209.259   3
   1   5  -9 8026.63 854.496   3
  -1  -5   9 7371.02 868.562   1
  -1  -5   9 8648.06 655.932   4
  -1  -5   7 6687.64 741.856   1
   1   5  -7 7771.60 802.399   3
  -1  -5   7 7622.44 731.377   7
  -1  -5   7 8156.92 552.479   8
  -1  -5   7 8118.79 567.041   4
   1   5  -5 2910.85 451.842   6
  -1  -5   5 2868.16 408.747   1
  -1  -5   5 3132.05 361.104   8
   1   5  -5 2672.44 457.179   3
   1   5  -3 2954.53 341.974   7
  -1  -5   3 2928.77 412.000   6
  -1  -5   3 3743.78 404.853   8
  -1  -5   3 3435.85 371.127   7
  -1  -5   3 3440.77 383.844   1
   1   5  -3 3122.28 409.038   6
   1   5  -3 2741.41 422.981   3
  -1  -5   3 3513.00 422.425   4
   1   5  -1 83608.4 2526.01   7
   1   5  -1 78513.6 2402.36   1
  -1  -5   1 80278.7 2466.79   1
  -1  -5   1 76252.8 2446.07   7
   1   5  -1 79143.2 2566.56   6
  -1  -5   1 80538.8 2642.74   6
   1   5  -1 83929.2 2847.36   3
  -1  -5   1 80712.9 2750.01   4
   1   5   1 164761. 4562.67   1
  -1  -5  -1 167255. 4649.68   6
   1   5   1 168740. 4657.53   7
  -1  -5  -1 150677. 4955.07   4
   1   5   1 171402. 4937.55   4
   1   5   1 167956. 4610.73   6
   1   5   1 168755. 4705.99   5
   1   5   3 59272.7 1998.48   5
  -1  -5  -3 62752.7 2028.21   6
  -1  -5  -5 2282.75 329.703   5
   1   5   5 2222.58 254.412   5
   1   5   5 1753.92 424.629   4
  -1  -5  -5 2384.96 320.786   6
  -1  -5  -7 7155.77 648.504   5
  -1  -5  -7 7680.32 777.905   4
   1   5   7 8152.83 911.785   4
   1   5   7 7132.26 587.784   3
  -1  -5  -9 12307.6 728.850   2
   1   5   9 12438.0 1197.09   4
  -1  -5  -9 10729.3 840.818   5
  -1  -5 -11 5944.05 663.419   5
   1   5  11 6832.22 941.375   4
  -1  -5 -11 6315.37 570.097   2
  -1  -5 -11 7121.90 601.768   8
   1   5  13 984.442 477.122   4
  -1  -5 -13 560.246 267.581   5
  -1  -5 -13 884.690 237.736   2
  -1  -5 -15 46.1147 225.329   5
   1   5  15 1196.46 503.708   4
  -1  -6  11 683.815 333.301   1
  -1  -6   9 1317.28 366.085   1
   1   6  -9 1741.25 419.444   3
   1   6  -7 6992.20 785.410   3
  -1  -6   7 6123.97 676.487   1
  -1  -6   7 6872.62 549.738   4
  -1  -6   7 6216.60 536.663   8
  -1  -6   7 5163.98 629.767   7
  -1  -6   5 5877.65 546.414   8
  -1  -6   5 5736.78 581.278   1
   1   6  -5 5581.20 680.443   3
  -1  -6   5 5680.72 582.135   7
   1   6  -3 20583.2 1173.10   6
  -1  -6   3 21307.0 1130.52   8
  -1  -6   3 20520.4 1042.45   1
  -1  -6   3 19239.8 1193.18   6
   1   6  -3 20066.2 1289.28   3
   1   6  -3 19717.1 1035.77   7
   1   6  -1 5902.21 512.189   7
   1   6  -1 6500.06 556.285   6
  -1  -6   1 5670.79 439.108   1
  -1  -6   1 5922.35 478.918   7
   1   6  -1 6333.66 659.867   3
   1   6  -1 6129.51 437.960   1
  -1  -6   1 5866.69 562.878   6
   1   6   1 48519.5 1805.43   7
   1   6   1 47254.8 1729.05   6
  -1  -6  -1 47669.0 1790.14   6
   1   6   1 45220.4 1608.39   1
   1   6   3 20166.2 1264.42   4
   1   6   3 16687.5 868.078   5
  -1  -6  -3 19857.4 965.901   6
   1   6   3 17622.1 881.233   1
   1   6   3 19269.3 1032.72   7
  -1  -6  -5 22709.1 1134.88   5
   1   6   5 22184.1 970.862   5
   1   6   5 23692.6 1481.69   4
  -1  -6  -5 23427.4 1476.60   4
  -1  -6  -5 23563.9 1137.79   6
   1   6   5 20602.4 889.996   2
   1   6   7 26844.0 1696.67   4
  -1  -6  -7 26586.4 1341.63   6
  -1  -6  -7 27004.3 1375.89   5
  -1  -6  -9 10097.0 860.470   5
   1   6   9 10272.1 1100.04   4
  -1  -6 -11 345.532 143.254   2
  -1  -6 -11 810.346 243.106   8
   1   6  11 7.61552 359.086   4
  -1  -6 -11 1207.44 321.001   5
  -1  -6 -13 931.863 312.990   5
   1   6  13 276.487 346.056   4
  -1  -6 -15-152.764 205.916   5
   1   7  -9 1232.44 384.227   3
  -1  -7   9 350.413 208.968   1
   1   7  -7 3342.03 591.232   3
  -1  -7   7 3346.62 428.956   8
  -1  -7   7 2244.17 420.735   1
  -1  -7   5 14687.9 1134.98   4
  -1  -7   5 16133.3 1026.50   8
   1   7  -5 17593.5 1299.84   3
  -1  -7   5 13932.7 993.304   7
  -1  -7   5 14944.6 989.410   1
  -1  -7   3 569.408 228.182   8
  -1  -7   3 464.603 167.559   7
   1   7  -3 739.656 218.737   7
  -1  -7   3 438.434 149.724   1
  -1  -7   3 520.399 241.775   4
   1   7  -3 420.842 261.022   3
  -1  -7   3 386.094 234.134   6
   1   7  -3 290.893 173.397   6
   1   7  -1 11538.6 979.042   3
   1   7  -1 9534.74 723.021   7
  -1  -7   1 9630.51 591.416   1
  -1  -7   1 11129.5 852.044   6
   1   7  -1 9726.30 757.229   6
  -1  -7   1 9182.10 887.910   4
   1   7   1 6744.43 599.199   7
   1   7   1 5861.90 445.421   1
  -1  -7  -1 7243.87 799.932   4
  -1  -7  -1 6143.39 585.287   6
   1   7   1 6142.51 537.620   6
   1   7   3 18382.4 1295.65   4
   1   7   3 19818.4 1118.16   7
   1   7   3 16686.8 899.755   1
  -1  -7  -3 17732.5 1003.00   6
   1   7   5 22551.9 1286.95   7
   1   7   5 25877.7 1646.19   4
   1   7   5 22719.6 997.882   2
  -1  -7  -5 22558.6 1205.61   6
  -1  -7  -7 8234.72 726.962   6
  -1  -7  -7 7280.45 677.455   5
   1   7   7 8230.06 982.403   4
   1   7   9 2816.23 614.655   4
  -1  -7  -9 2975.38 477.951   6
  -1  -7  -9 3159.66 496.541   5
  -1  -7 -11 2004.01 407.277   8
   1   7  11 2685.50 641.187   4
  -1  -7 -11 2101.51 423.771   5
  -1  -7 -13 1271.16 367.458   5
  -1  -7 -13 734.718 245.014   8
   1   7  13 1656.36 547.377   4
  -1  -7 -15 327.261 205.448   5
  -1  -8   7 2100.15 412.714   1
   1   8  -7 1338.59 439.627   3
  -1  -8   5 2181.23 403.843   8
  -1  -8   5 2784.33 419.586   1
   1   8  -5 2898.72 573.180   3
  -1  -8   3 9686.14 784.988   7
  -1  -8   3 11600.5 750.872   1
  -1  -8   3 10567.5 1042.41   4
   1   8  -3 11684.6 858.966   7
  -1  -8   3 9234.64 936.063   6
   1   8  -3 11127.7 1060.79   3
  -1  -8   3 11140.7 958.015   8
   1   8  -1 2405.16 401.761   6
   1   8  -1 2562.53 403.687   7
  -1  -8   1 2496.71 443.454   6
  -1  -8   1 1129.20 376.285   4
   1   8  -1 2543.23 505.712   3
  -1  -8  -1 5676.88 619.318   6
   1   8   1 6199.49 582.557   6
  -1  -8  -1 6146.64 808.877   4
   1   8   1 5773.27 450.120   1
   1   8   1 6462.03 612.733   5
   1   8   1 6142.11 625.802   7
   1   8   3 22013.1 1122.30   5
   1   8   3 22194.9 1072.74   1
   1   8   3 23492.8 1334.10   7
  -1  -8  -3 24261.8 1280.97   6
   1   8   5 21.8750 102.638   5
   1   8   5-92.3380 133.323   2
   1   8   5 196.762 132.946   1
   1   8   5 102.213 321.895   4
   1   8   5-16.8060 194.962   7
  -1  -8  -5 12.1869 180.653   6
  -1  -8  -7 1758.65 336.259   5
  -1  -8  -7 2265.67 417.081   6
   1   8   7 1628.92 242.351   5
   1   8   9 3936.32 757.002   4
  -1  -8  -9 2997.28 478.048   5
  -1  -8  -9 3753.57 566.350   6
  -1  -8 -11 1632.94 392.164   6
  -1  -8 -11 1865.50 415.597   5
   1   8  11 1587.38 598.793   4
  -1  -8 -13 286.073 218.147   5
  -1  -8 -13 522.122 250.397   8
  -1  -9   5 2209.79 444.925   8
   1   9  -5 2497.98 562.537   3
  -1  -9   3 3292.68 593.547   6
  -1  -9   3 4312.41 636.897   8
  -1  -9   3 3992.30 409.072   1
   1   9  -3 4777.59 578.603   7
   1   9  -3 4079.19 684.937   3
   1   9  -1 3582.46 656.284   3
  -1  -9   1 3121.68 535.855   6
   1   9  -1 2949.42 460.679   7
   1   9   1 15309.2 754.724   1
   1   9   1 15258.7 1009.78   5
   1   9   1 16416.2 1117.37   7
   1   9   1 14029.2 987.123   6
  -1  -9  -1 14912.3 1098.12   6
   1   9   3 969.416 215.071   1
   1   9   3 857.417 224.823   5
   1   9   3 1370.34 360.973   7
  -1  -9  -3 873.439 277.279   6
   1   9   5 2931.48 371.299   2
   1   9   5 2719.48 375.861   1
   1   9   5 3102.87 365.761   5
   1   9   5 3101.28 655.892   4
   1   9   5 3555.45 579.668   7
  -1  -9  -5 3254.12 482.072   6
  -1  -9  -7 2079.95 421.149   6
   1   9   7 1644.05 529.621   4
   1   9   7 1475.43 232.108   5
   1   9   7 1164.92 355.763   7
  -1  -9  -9 1804.30 406.759   5
  -1  -9  -9 2382.04 481.940   6
   1   9   9 2939.50 689.833   4
   1   9  11 1061.85 510.740   4
  -1  -9 -11 609.487 308.962   6
  -1  -9 -13 139.209 203.979   8
  -1 -10   5 568.165 299.516   8
   1  10  -3 1849.67 382.646   7
   1  10  -3 1499.78 458.235   3
  -1 -10   3 1203.53 434.888   6
  -1 -10   3 1282.68 383.041   8
   1  10  -1 3965.92 563.547   7
  -1 -10   1 4322.34 662.881   6
   1  10  -1 5641.21 846.487   3
   1  10   1 233.175 198.839   7
  -1 -10  -1 263.140 230.604   6
   1  10   3 10508.6 975.397   7
  -1 -10  -3 11826.1 1010.78   6
   1  10   5 2955.37 544.360   7
  -1 -10  -5 3557.56 542.010   6
   1  10   7 1646.15 543.041   4
  -1 -10  -7 1383.36 359.380   6
   1  10   7 785.716 346.509   7
  -1 -10  -9 1584.44 408.738   6
   1  10   9 1287.95 415.383   7
   1  10   9 206.933 302.288   4
  -1 -10 -11 80.8415 167.750   8
  -1 -11   3 1102.92 422.948   8
  -1 -11   3 1184.49 414.963   6
  -1 -11   1 52.4478 188.508   6
   1  11  -1 303.562 286.430   3
  -1 -11   1-189.640 255.390   8
   1  11   1 1617.78 415.307   7
   1  11   1 2267.44 563.764   3
  -1 -11  -1 1891.90 465.369   6
   1  11   3 1737.95 424.722   7
  -1 -11  -3 1423.15 393.763   6
   1  11   5 897.182 339.586   7
  -1 -11  -5 1853.80 430.141   6
  -1 -11  -7 1052.45 335.666   6
   1  11   7 1057.17 389.017   7
   1  11   9 181.028 265.059   7
  -1 -12   1 546.421 308.952   6
   1  12   3-32.5762 198.512   7
   1  12   5 156.458 203.741   7
   1  12   7-252.331 240.372   7
   2 -11  -6 137.103 193.987   6
  -2  11   4 879.595 397.955   7
   2 -11  -4 218.899 211.982   6
   2 -11  -2 1832.07 540.528   6
  -2  11   2 878.069 362.023   7
  -2  11   0 661.822 344.222   7
   2 -11   0 937.664 401.778   6
  -2  11  -2-16.5140 192.028   3
  -2  11  -2 374.302 282.772   7
   2 -10  -8 824.100 360.704   6
  -2  10   8 876.478 351.330   7
  -2  10   6 1103.90 418.529   7
   2 -10  -6 982.624 405.671   6
  -2  10   4 4478.03 783.358   7
   2 -10  -4 3259.77 698.950   6
   2 -10  -2 1021.99 384.256   6
  -2  10   2 1693.70 479.218   7
   2 -10   0 1625.28 491.953   6
  -2  10   0 2204.10 531.160   7
   2 -10   2 1419.21 437.292   6
  -2  10  -2 1542.45 467.989   7
  -2  10  -2 1675.74 459.811   3
   2 -10   4 981.120 411.044   6
  -2  10  -4 1081.47 395.913   3
  -2  10  -4 1516.88 445.758   7
  -2  10  -6 80.6194 198.166   3
  -2  10  -6 195.110 197.750   7
   2  -9 -10 542.588 329.942   6
  -2   9   8 1384.68 480.371   7
   2  -9  -8 1123.04 398.361   6
   2  -9  -6 3899.05 719.214   6
  -2   9   6 3427.69 673.224   7
  -2   9   4 750.004 358.011   7
   2  -9  -4 510.992 301.324   6
  -2   9   2 3587.92 640.645   7
   2  -9  -2 2016.06 510.331   6
  -2   9   0 8605.93 972.114   7
   2  -9   0 9262.08 1016.02   6
  -2   9  -2 8300.01 963.210   7
  -2   9  -2 8957.90 960.751   3
   2  -9   2 10041.8 1093.84   6
  -2   9  -4 767.362 326.677   3
  -2   9  -4 1547.14 431.928   7
   2  -9   4 1448.20 441.334   6
  -2   9  -6 1239.10 398.989   3
   2  -9   6 2131.87 567.345   6
  -2   9  -6 1408.15 430.036   7
  -2   9  -8 451.595 265.045   3
  -2   8  10 623.198 301.241   7
   2  -8 -10 1222.72 408.130   6
  -2   8   8 1538.34 453.170   7
   2  -8  -8 322.298 230.796   6
  -2   8   6 900.765 217.789   1
  -2   8   6 692.750 321.460   7
   2  -8  -6 649.184 317.791   6
  -2   8   4 5328.68 343.090   1
   2  -8  -4 6391.83 809.256   6
  -2   8   4 6843.23 843.267   7
  -2   8   2 9433.91 967.690   7
   2  -8  -2 8715.44 929.405   6
   2  -8   0 10406.3 1007.38   6
  -2   8   0 11454.1 1053.49   7
  -2   8   0 9325.85 523.371   5
  -2   8  -2 5544.67 747.530   7
   2  -8   2 5188.09 742.117   6
  -2   8  -2 5833.66 728.507   3
  -2   8  -4 8570.45 884.623   3
  -2   8  -4 9612.01 999.053   7
   2  -8   4 8858.93 990.032   6
  -2   8  -6 3786.26 603.993   3
   2  -8   6 4827.27 793.630   6
  -2   8  -6 3372.45 605.910   7
  -2   8  -8 1040.43 379.440   3
  -2   7  12 602.707 394.036   4
   2  -7 -12 170.902 217.432   2
   2  -7 -10 939.640 387.563   6
  -2   7  10 188.294 293.528   4
   2  -7 -10 456.411 267.808   2
   2  -7  -8 2153.44 508.847   6
   2  -7  -8 1030.09 171.427   5
  -2   7   8 1741.46 474.346   7
  -2   7   6 6464.36 820.888   7
   2  -7  -6 7628.56 869.062   6
  -2   7   4 12208.5 1091.98   7
  -2   7   4 14046.4 689.220   1
   2  -7  -4 13884.0 1139.51   6
  -2   7   2 1796.81 416.674   7
   2  -7  -2 2519.36 486.500   6
  -2   7   0 258.606 183.469   7
   2  -7   0 355.456 241.868   6
  -2   7  -2 24316.3 1520.99   7
   2  -7   2 25085.2 1585.05   6
  -2   7  -2 24961.9 1421.90   3
   2  -7   4 3611.18 608.925   6
  -2   7  -4 3247.07 507.431   3
  -2   7  -4 4185.58 608.140   7
  -2   7  -6 4207.88 608.749   3
  -2   7  -6 4888.74 678.234   7
   2  -7   6 4809.96 395.362   1
  -2   7  -8 7248.62 794.751   3
   2  -7   8 8347.55 1034.74   6
  -2   7 -10 803.935 306.310   3
   2  -7  10 409.205 226.174   4
   2  -6 -14 412.034 272.963   2
  -2   6  14-246.624 299.666   4
  -2   6  12 362.844 258.649   4
   2  -6 -12 161.066 212.836   2
   2  -6 -10 2022.68 424.116   2
   2  -6 -10 2020.90 312.719   5
  -2   6  10 1415.41 493.459   4
   2  -6  -8 7230.34 521.381   5
  -2   6   8 6762.06 885.458   4
   2  -6  -8 7037.86 735.237   2
  -2   6   6 6049.74 734.800   7
   2  -6  -6 6417.43 338.159   5
  -2   6   4 9419.15 581.282   1
  -2   6   4 8296.46 705.761   2
  -2   6   4 10317.6 910.100   7
   2  -6  -4 9305.60 872.650   6
  -2   6   2 3809.37 453.022   2
   2  -6  -2 3833.47 531.549   6
   2  -6  -2 3649.03 546.644   4
  -2   6   2 3854.00 534.156   7
  -2   6   2 3394.19 195.382   1
   2  -6   0 23642.2 1453.89   4
  -2   6   0 24588.7 1406.17   7
   2  -6   0 22466.1 1272.13   7
  -2   6   0 24007.9 1284.92   6
   2  -6   0 23418.1 1379.15   6
  -2   6  -2 7854.14 766.126   7
   2  -6   2 6823.09 684.383   7
   2  -6   2 7172.78 763.261   6
  -2   6  -2 6478.68 668.581   6
   2  -6   4 9811.28 451.920   1
  -2   6  -4 10047.0 906.769   7
   2  -6   4 9930.25 933.867   6
  -2   6  -4 9586.23 798.276   3
  -2   6  -6 2152.85 401.167   3
   2  -6   6 3242.72 340.040   1
  -2   6  -6 2163.27 454.946   7
   2  -6   6 3554.86 610.187   6
   2  -6   8 588.570 304.407   6
  -2   6  -8 1016.13 311.842   3
   2  -6   8 1082.72 251.004   1
  -2   6 -10 5017.19 653.229   3
   2  -6  10 4533.49 588.287   1
   2  -6  10 4410.06 634.162   4
   2  -6  12 597.455 281.739   4
  -2   6 -12 567.576 249.470   3
  -2   5  14 1022.04 405.006   4
   2  -5 -14 237.134 277.988   2
   2  -5 -12 712.901 220.699   5
  -2   5  12 874.067 432.449   4
   2  -5 -12 1123.61 370.517   2
   2  -5 -10 3763.47 405.062   5
  -2   5  10 4191.25 692.898   4
   2  -5 -10 2858.58 504.312   2
   2  -5  -8 11396.5 903.263   2
   2  -5  -8 9211.85 587.547   5
  -2   5   8 9633.14 1012.18   4
   2  -5  -6 2813.51 508.559   4
  -2   5   6 2858.15 533.879   4
   2  -5  -6 4483.95 541.006   2
  -2   5   6 3788.99 453.985   3
   2  -5  -6 3373.52 286.022   5
  -2   5   4 24626.9 1145.41   3
  -2   5   4 22832.7 1349.53   7
  -2   5   4 25025.5 1084.89   1
   2  -5  -4 24914.4 1386.27   6
   2  -5  -4 22950.4 1385.86   4
  -2   5   2 91839.8 2573.01   1
  -2   5   2 94609.2 3247.11   7
  -2   5   2 94184.9 3024.88   2
   2  -5  -2 95021.7 3277.03   6
  -2   5   0 20741.7 1102.66   6
  -2   5   0 18840.4 1133.85   7
   2  -5   0 19487.6 1155.97   6
  -2   5  -2 65525.5 2546.70   7
   2  -5   2 64782.4 2543.89   6
   2  -5   2 66636.0 2491.70   7
  -2   5  -2 65282.0 2463.30   6
   2  -5   4 18370.0 1234.89   6
   2  -5   4 19231.5 1199.98   7
  -2   5  -4 18560.5 1173.70   7
  -2   5  -4 19268.5 1197.46   6
  -2   5  -4 17933.1 1048.80   3
  -2   5  -6 5766.13 606.330   3
   2  -5   6 7404.27 814.259   6
  -2   5  -6 5741.10 662.018   7
  -2   5  -8 16429.4 1091.83   3
   2  -5   8 15490.4 1286.19   6
  -2   5 -10 2139.00 418.401   3
   2  -5  10 1699.00 403.573   4
  -2   5 -12 685.153 276.787   3
   2  -5  12 88.0778 170.421   4
  -2   4  14 58.5820 216.086   4
   2  -4 -14 349.599 208.174   5
  -2   4  12 1932.82 493.861   4
  -2   4  10 2883.68 569.111   4
   2  -4 -10 3335.51 530.142   2
   2  -4  -8 5640.92 704.577   4
  -2   4   8 5031.12 691.875   4
   2  -4  -8 6232.71 662.904   2
  -2   4   6 24826.6 1460.52   4
   2  -4  -6 23768.2 1316.10   2
   2  -4  -6 23651.5 1423.61   4
  -2   4   6 24531.7 1267.08   3
   2  -4  -4 82551.5 2223.42   5
   2  -4  -4 77124.7 2910.31   4
  -2   4   4 87449.8 2722.19   3
  -2   4   4 81083.6 2889.91   7
   2  -4  -4 86395.6 2887.83   2
   2  -4  -4 80663.5 2918.01   6
  -2   4   2 100656. 3144.37   2
  -2   4   2 100024. 2837.06   1
  -2   4   2 101722. 3313.43   7
   2  -4  -2 103499. 3338.79   6
   2  -4   0 21285.8 1149.07   6
  -2   4   0 22925.3 685.329   5
  -2   4   0 20793.0 1122.99   7
  -2   4  -2 70868.5 2548.95   7
   2  -4   2 73608.0 2569.96   6
   2  -4   2 69450.0 1886.27   1
  -2   4  -4 84357.2 3054.60   7
  -2   4  -4 89747.9 2887.66   3
   2  -4   4 88245.9 3117.70   6
   2  -4   4 92561.6 3152.52   7
  -2   4  -6 86267.2 3031.39   3
   2  -4   6 90066.1 3364.31   7
  -2   4  -8 818.484 251.340   3
   2  -4   8 385.004 292.927   6
  -2   4 -10 4979.77 604.767   3
   2  -4  10 5154.39 646.297   4
  -2   4 -12 1054.80 307.954   3
   2  -4  12 1277.91 376.202   4
  -2   3  14 715.214 359.109   4
  -2   3  12 352.864 254.947   4
   2  -3 -12 256.186 249.578   3
   2  -3 -10-52.5440 176.698   4
  -2   3  10-127.938 240.361   4
   2  -3 -10-140.680 209.333   3
   2  -3  -8 37035.2 1823.12   4
   2  -3  -8 38555.0 1719.60   3
  -2   3   8 38680.7 1902.21   4
   2  -3  -6 27275.3 1467.41   4
   2  -3  -6 27227.9 1373.62   2
  -2   3   6 26239.3 1449.13   4
  -2   3   6 29481.7 1390.21   3
   2  -3  -4 10846.6 744.654   2
   2  -3  -4 9036.90 722.709   4
  -2   3   4 11293.9 821.310   4
  -2   3   2 8696.05 492.619   1
   2  -3  -2 8194.34 631.852   6
  -2   3   2 9216.46 523.282   3
  -2   3   2 8795.74 642.315   7
   2  -3  -2 9023.94 663.465   4
   2  -3  -2 10348.7 674.286   2
  -2   3   0 101723. 3117.00   7
  -2   3   0 98511.7 2569.12   5
  -2   3   0 100190. 2648.55   1
   2  -3   0 96814.5 2622.59   1
   2  -3   0 104947. 3133.88   6
  -2   3  -2 122881. 3721.02   7
   2  -3   2 119767. 3215.53   1
   2  -3   2 121922. 3705.51   6
  -2   3  -4 482438. 12538.3   3
   2  -3   4 488338. 12859.9   6
  -2   3  -4 486799. 12813.6   7
   2  -3   6 3794.52 506.658   7
  -2   3  -6 3606.82 412.067   3
   2  -3   6 2861.55 386.989   3
   2  -3   6 3926.95 532.889   6
  -2   3  -6 3242.70 465.185   6
  -2   3  -8 14785.6 932.745   3
   2  -3   8 15943.8 1052.77   4
   2  -3   8 16247.1 1059.34   3
   2  -3   8 13606.8 1092.34   6
  -2   3 -10 11858.8 886.541   3
   2  -3  10 11778.5 962.884   4
  -2   3 -12 2158.80 406.145   3
   2  -3  12 1565.93 398.592   4
   2  -3  14 334.600 233.134   4
  -2   3 -14 888.481 312.438   3
  -2   2  12 452.346 271.429   4
   2  -2 -12 995.075 348.460   3
  -2   2  10 6278.71 724.288   4
   2  -2 -10 6694.72 504.420   8
   2  -2 -10 6951.00 724.730   3
   2  -2 -10 6511.63 662.001   4
  -2   2   8 1896.41 395.663   4
   2  -2  -8 1512.57 330.657   3
   2  -2  -8 1077.51 274.978   4
   2  -2  -6 5593.69 518.809   3
  -2   2   6 6003.84 590.326   4
   2  -2  -6 6156.31 585.188   4
  -2   2   6 5280.85 554.496   3
  -2   2   4 5393.90 461.136   3
   2  -2  -4 4984.07 499.310   4
  -2   2   4 5195.53 508.551   4
  -2   2   4 5881.43 551.056   1
   2  -2  -4 5561.45 455.259   3
  -2   2   2 210857. 5724.85   3
  -2   2   2 218142. 5897.84   7
   2  -2  -2 221981. 5945.15   2
  -2   2   2 218509. 5778.51   1
   2  -2  -2 211542. 5898.09   4
   2  -2   0 84461.1 2423.37   1
  -2   2   0 86825.2 2332.25   5
   2  -2   0 90131.2 2311.81   5
  -2   2   0 88782.7 2454.98   1
   2  -2   0 86586.9 2663.64   7
   2  -2   0 91866.8 2732.07   6
  -2   2   0 89127.8 2705.66   7
   2  -2   2 211.924 142.176   6
  -2   2  -2 188.209 109.112   5
  -2   2  -2 353.908 129.020   7
  -2   2  -2 171.839 70.3426   3
   2  -2   4 25301.9 1005.14   3
  -2   2  -4 23840.4 1153.34   7
  -2   2  -4 25265.9 979.617   3
   2  -2   4 24335.0 1155.46   6
   2  -2   6 194170. 5784.89   3
  -2   2  -6 198419. 5672.57   3
  -2   2  -6 213999. 6114.25   6
  -2   2  -8 20917.0 1081.08   3
   2  -2   8 21211.1 764.562   8
  -2   2  -8 20337.0 1317.02   6
   2  -2   8 20385.5 1169.49   3
   2  -2   8 22554.6 1234.77   4
   2  -2  10 9035.69 827.868   4
  -2   2 -10 8034.64 701.971   3
  -2   2 -12 7208.94 719.414   3
   2  -2  12 6779.70 796.445   4
  -2   2 -14 102.324 170.176   3
   2  -2  14 347.037 264.553   4
   2  -1 -12 5342.82 701.107   3
  -2   1  12 4005.73 595.173   4
  -2   1  12 4587.94 834.575   1
   2  -1 -10 428.857 126.409   8
  -2   1  10 227.573 279.889   4
   2  -1 -10 601.731 283.299   3
   2  -1 -10 249.250 145.686   4
   2  -1  -8 8668.19 666.621   4
   2  -1  -8 9368.84 752.406   3
   2  -1  -8 9935.68 578.560   8
  -2   1   8 10780.4 809.624   4
   2  -1  -6 63764.3 2147.58   3
  -2   1   6 60602.8 2292.33   3
   2  -1  -6 58246.4 2091.53   4
  -2   1   6 56357.7 2132.01   4
   2  -1  -4 28699.7 1220.62   4
  -2   1   4 29414.1 1251.22   3
  -2   1   4 28393.8 1211.08   4
  -2   1   4 30348.0 1392.70   1
   2  -1  -4 30713.1 1184.92   3
   2  -1  -2 48754.9 1457.68   3
  -2   1   2 44170.3 1460.59   3
  -2   1   2 45505.8 1559.56   1
   2  -1  -2 41106.9 1474.05   4
   2  -1   0 662.943 147.395   6
  -2   1   0 968.762 144.890   1
   2  -1   0 1011.05 178.850   2
  -2   1   0 1200.15 199.824   2
   2  -1   0 1061.70 151.527   1
   2  -1   0 1051.90 162.617   7
  -2   1   0 925.083 101.742   3
  -2   1   0 957.489 162.473   7
  -2   1   0 896.460 122.254   5
   2  -1   0 1021.53 126.935   5
  -2   1  -2 250.135 95.2136   6
  -2   1  -2 267.139 117.513   7
  -2   1  -2 234.395 106.601   5
   2  -1   2 456.206 135.340   7
  -2   1  -2 504.536 68.3553   3
   2  -1   2 334.240 122.226   6
   2  -1   4 41752.8 1577.49   6
  -2   1  -4 43923.2 1342.06   3
   2  -1   4 44593.0 1417.34   3
  -2   1  -4 42127.2 1589.74   6
  -2   1  -4 41274.5 1541.04   5
  -2   1  -6 97966.5 2964.52   3
   2  -1   6 98163.9 3086.29   3
   2  -1   6 115894. 3401.24   6
   2  -1   6 98355.0 2814.43   8
   2  -1   6 112327. 3301.98   4
  -2   1  -8 6499.33 676.737   6
   2  -1   8 7105.28 616.425   3
   2  -1   8 6867.46 314.394   8
   2  -1   8 8304.58 777.648   7
  -2   1  -8 6634.57 527.060   3
   2  -1   8 7640.36 679.909   4
  -2   1 -10 15735.7 941.322   3
   2  -1  10 14884.9 1075.91   4
   2  -1  10 13843.7 1040.27   3
  -2   1 -12 2982.06 452.439   3
   2  -1  12 2999.95 537.319   4
   2  -1  14 851.207 348.851   4
  -2   1 -14 832.015 284.908   3
  -2   1 -14 1438.88 449.287   5
  -2   0  12 966.586 321.526   4
   2   0 -12 570.197 308.176   3
   2   0 -10 10842.4 906.787   3
  -2   0  10 9526.00 803.733   4
   2   0 -10 10092.9 453.021   8
  -2   0  10 9821.17 1161.61   1
   2   0  -8 12636.8 875.540   3
   2   0  -8 11254.4 684.008   4
  -2   0   8 11611.9 806.937   4
  -2   0   8 9406.28 1034.22   1
   2   0  -8 11399.8 590.040   8
   2   0  -6 18925.2 991.185   3
  -2   0   6 17521.2 897.954   4
   2   0  -6 17876.4 784.603   8
   2   0  -6 17861.9 802.626   4
   2   0  -4 72549.6 2249.56   8
   2   0  -4 78450.5 2392.73   3
  -2   0   4 80450.8 2699.62   1
   2   0  -4 73629.9 2231.29   4
  -2   0   4 74051.1 2256.28   4
  -2   0   2 206.094 97.7553   3
   2   0  -2 286.544 97.1143   8
  -2   0   2-19.0197 124.790   1
   2   0  -2 344.067 128.753   1
   2   0  -2 147.022 93.8233   3
   2   0  -2 245.152 100.561   4
   2   0   0 269568. 6962.59   5
   2   0   0 259402. 6799.90   3
   2   0   0 272227. 6960.93   6
   2   0   0 274675. 7028.34   2
  -2   0   0 262791. 6827.18   3
  -2   0   0 279014. 6934.20   7
  -2   0   0 283806. 7059.40   1
   2   0   0 273016. 6922.30   7
   2   0   0 279198. 7048.71   1
  -2   0  -2 604.245 116.748   6
  -2   0  -2 1026.92 136.123   2
  -2   0  -2 966.714 169.181   5
   2   0   2 675.655 122.982   6
   2   0   2 716.533 138.137   5
   2   0   2 780.721 129.411   8
  -2   0  -2 659.612 142.293   7
   2   0   2 850.631 149.108   7
  -2   0  -4 94847.9 2861.34   5
   2   0   4 95774.4 2808.10   6
  -2   0  -4 94542.5 2554.74   3
   2   0   4 98716.3 2871.46   4
  -2   0  -4 92419.1 2795.22   6
   2   0   4 91645.8 2583.44   3
   2   0   4 92349.1 2633.26   8
  -2   0  -6 51694.6 1651.43   3
  -2   0  -6 44292.3 1845.90   5
   2   0   6 47654.9 1705.45   3
   2   0   6 49453.3 1518.03   8
  -2   0  -6 54146.0 1927.73   6
  -2   0  -8 7004.26 532.004   3
  -2   0  -8 6673.36 641.763   6
   2   0   8 6887.80 583.191   3
   2   0   8 8338.58 749.034   7
   2   0   8 7164.25 662.435   4
   2   0  10 709.924 290.458   4
  -2   0 -10 522.477 207.030   3
   2   0  10 116.943 144.319   3
  -2   0 -12 8270.87 870.795   5
   2   0  12 6531.52 775.928   4
  -2   0 -12 8244.28 742.385   3
  -2   0 -14 1659.91 435.954   5
  -2   0 -14 1266.16 346.655   3
   2   0  14 919.597 395.883   4
   2   1 -12 2234.33 468.514   3
  -2  -1  12 4438.57 867.205   1
  -2  -1  10 2851.52 662.429   1
  -2  -1  10 3044.35 437.040   4
   2   1 -10 2817.38 491.562   3
   2   1  -8 5342.61 590.923   3
  -2  -1   8 4425.27 751.515   1
  -2  -1   8 5202.72 505.484   4
   2   1  -8 5325.66 356.858   8
  -2  -1   6 92831.4 2801.88   4
  -2  -1   6 93677.9 3261.08   3
   2   1  -6 97378.4 2753.19   8
   2   1  -4 16003.2 860.305   3
  -2  -1   4 17155.4 1029.73   1
   2   1  -4 16355.0 731.681   8
  -2  -1   4 15491.7 606.540   4
   2   1  -4 15948.9 542.355   4
  -2  -1   2 71225.6 2355.94   1
   2   1  -2 77637.9 2292.08   3
  -2  -1   2 73562.8 2202.66   8
  -2  -1   2 74763.7 2327.35   3
   2   1  -2 72821.9 2211.81   8
   2   1   0 101288. 2691.21   7
  -2  -1   0 101863. 2859.06   3
   2   1   0 103594. 2738.71   4
   2   1   0 108804. 2864.54   3
  -2  -1   0 107692. 2944.18   8
  -2  -1   0 103962. 2991.73   1
   2   1   0 101263. 2957.49   5
  -2  -1   0 105695. 2703.43   7
  -2  -1  -2 293796. 7341.98   5
   2   1   2 282496. 7052.95   6
  -2  -1  -2 281207. 7255.90   8
   2   1   2 276128. 7248.92   4
  -2  -1  -2 277324. 7055.24   6
   2   1   2 275780. 7196.58   7
   2   1   2 278472. 7265.86   8
   2   1   2 278608. 7055.23   2
   2   1   4 38418.7 1197.97   3
  -2  -1  -4 39158.5 1441.79   5
  -2  -1  -4 36834.9 1240.93   8
   2   1   4 36191.2 1241.12   8
   2   1   4 37728.0 1409.28   4
  -2  -1  -4 35289.3 1255.78   6
  -2  -1  -6 30832.3 1150.84   3
   2   1   6 29374.1 1163.65   3
  -2  -1  -6 28032.6 1327.12   5
   2   1   6 28222.8 1012.92   8
  -2  -1  -6 29959.7 1265.93   6
  -2  -1  -6 28911.0 1034.84   8
   2   1   8 24560.4 1168.45   3
  -2  -1  -8 19551.5 1183.01   5
   2   1   8 22200.1 1236.64   4
  -2  -1  -8 21112.7 1192.93   6
  -2  -1  -8 23517.5 1073.63   3
   2   1  10 9971.07 838.480   3
  -2  -1 -10 11629.4 795.777   3
   2   1  10 10846.4 949.584   4
  -2  -1 -10 10597.8 919.124   6
  -2  -1 -10 12950.7 977.421   5
  -2  -1 -12 3503.54 558.434   5
  -2  -1 -12 2666.38 443.881   3
   2   1  12 3426.93 612.735   4
  -2  -1 -14 1054.80 321.438   3
  -2  -1 -14 389.884 305.176   5
   2   1  14 419.475 284.025   4
  -2  -2  12 528.703 336.405   1
   2   2 -12 929.181 347.118   3
  -2  -2  10 4995.77 530.777   4
  -2  -2  10 4023.18 779.542   1
   2   2 -10 5011.97 642.639   3
   2   2  -8 9370.00 829.624   3
  -2  -2   8 9181.79 1030.95   1
  -2  -2   8 8656.44 611.947   4
   2   2  -6 3944.97 489.071   3
  -2  -2   6 3880.85 518.998   3
  -2  -2   6 4322.06 618.392   1
   2   2  -6 4419.00 348.904   8
  -2  -2   6 4060.99 327.974   4
   2   2  -4 135674. 4025.80   3
  -2  -2   4 133049. 3719.22   8
   2   2  -4 127856. 3711.47   8
  -2  -2   4 138950. 4214.41   1
  -2  -2   2 184881. 5156.85   1
  -2  -2   2 181948. 4951.22   8
   2   2  -2 186206. 5098.24   3
  -2  -2   2 188350. 5180.89   3
   2   2  -2 176795. 4940.55   8
  -2  -2   0 42364.4 1257.91   4
  -2  -2   0 45120.9 1491.07   8
   2   2   0 43970.1 1473.16   3
  -2  -2   0 41954.0 1504.10   1
   2   2   0 41495.2 1497.40   1
   2   2   0 43957.6 1465.49   8
   2   2   0 44730.3 1350.13   4
   2   2   2 1416.64 216.256   4
  -2  -2  -2 1396.55 224.597   5
  -2  -2  -2 1583.15 200.105   4
   2   2   2 1490.31 213.147   1
   2   2   2 1327.16 185.391   8
  -2  -2  -2 1645.18 223.351   8
  -2  -2  -4 35642.4 1250.83   8
  -2  -2  -4 34393.8 1371.67   5
   2   2   4 33078.6 1353.39   4
  -2  -2  -4 32740.4 1097.96   6
   2   2   4 33362.4 1197.17   8
   2   2   6 222696. 6433.48   3
  -2  -2  -6 236093. 6744.25   5
  -2  -2  -6 227443. 6375.85   8
   2   2   8 52305.1 1996.54   3
  -2  -2  -8 51438.0 2168.81   5
   2   2   8 54305.0 2262.79   4
  -2  -2  -8 55752.5 2167.65   4
  -2  -2  -8 55440.7 1745.64   8
  -2  -2 -10 3121.82 258.454   8
  -2  -2 -10 2596.32 467.309   5
   2   2  10 2732.00 524.267   4
   2   2  10 3443.80 478.303   3
  -2  -2 -10 2793.18 391.166   3
  -2  -2 -10 2889.56 465.869   6
  -2  -2 -12 1333.18 325.247   3
  -2  -2 -12 2011.28 448.760   5
   2   2  12 2601.87 569.493   4
   2   2  14 1071.86 441.990   4
  -2  -2 -14 1529.67 441.537   5
   2   3 -12 865.354 336.947   3
  -2  -3  12 458.364 377.403   1
  -2  -3  10 2599.48 637.062   1
   2   3 -10 1424.95 365.822   3
  -2  -3   8 950.790 371.355   1
   2   3  -8 864.160 276.236   3
  -2  -3   8 1174.27 236.142   4
  -2  -3   8 1233.92 285.161   7
   2   3  -6 27107.4 1441.88   3
  -2  -3   6 26390.3 971.389   4
  -2  -3   6 27794.1 1612.11   1
  -2  -3   6 28591.9 1104.45   8
   2   3  -6 28440.7 1531.38   6
  -2  -3   6 27369.6 1567.58   3
  -2  -3   4 68419.0 2539.87   1
  -2  -3   4 67784.3 2133.96   7
  -2  -3   4 65888.4 2151.46   8
  -2  -3   4 66769.7 1819.42   4
   2   3  -4 60821.2 2392.72   6
   2   3  -4 70731.5 2480.26   3
  -2  -3   4 71284.0 1917.54   4
  -2  -3   2 17772.2 653.608   7
   2   3  -2 16650.4 854.626   6
   2   3  -2 17335.5 948.338   3
   2   3  -2 17013.2 859.630   1
  -2  -3   2 17421.1 841.284   8
  -2  -3   2 19288.1 650.814   4
  -2  -3   2 17490.4 926.305   1
  -2  -3   0 37943.4 1356.10   8
   2   3   0 35286.0 1206.19   4
   2   3   0 34268.2 1349.27   3
  -2  -3   0 33281.1 1307.41   1
  -2  -3   0 33692.8 1169.46   4
   2   3   0 32519.1 1105.48   6
   2   3   0 33495.2 1313.06   1
  -2  -3  -2 67784.2 2124.15   8
  -2  -3  -2 62365.5 2066.61   4
   2   3   2 62326.1 2089.85   1
  -2  -3  -2 61696.8 2103.03   5
   2   3   2 66609.9 2198.62   4
   2   3   4 86661.1 2938.16   4
  -2  -3  -4 91472.2 2872.19   5
   2   3   4 87035.1 2691.34   5
  -2  -3  -4 93241.9 2786.21   8
  -2  -3  -6 53175.8 2094.47   5
  -2  -3  -6 53668.8 1878.81   8
   2   3   6 51292.1 1843.44   3
  -2  -3  -8 14720.0 1018.60   4
  -2  -3  -8 14001.6 985.971   5
   2   3   8 14620.6 863.455   3
   2   3   8 16185.6 1159.04   4
  -2  -3  -8 15166.1 795.681   8
  -2  -3 -10 6345.30 697.605   5
  -2  -3 -10 7323.79 501.636   8
  -2  -3 -10 6176.48 671.565   6
   2   3  10 6617.94 837.603   4
   2   3  10 6801.30 658.701   3
  -2  -3 -12 5684.53 374.612   8
  -2  -3 -12 6108.71 744.877   5
   2   3  12 6484.31 896.934   4
  -2  -3 -14 2034.92 471.285   5
   2   3  14 1241.52 478.757   4
  -2  -4  12 383.574 347.157   1
   2   4 -10 2263.32 480.341   3
  -2  -4  10 1524.49 498.085   1
   2   4  -8 4793.84 654.495   3
  -2  -4   8 6058.57 807.442   1
  -2  -4   8 5091.30 416.802   4
  -2  -4   8 5455.99 603.921   7
  -2  -4   6 1152.13 205.819   8
  -2  -4   6 919.823 146.299   4
  -2  -4   6 1366.02 370.477   1
   2   4  -6 1190.46 326.420   3
  -2  -4   4 7003.60 643.682   1
  -2  -4   4 6265.51 498.747   8
   2   4  -4 5803.26 609.180   3
  -2  -4   4 6679.97 488.342   7
  -2  -4   4 7147.77 702.093   3
   2   4  -4 6593.72 614.503   6
  -2  -4   4 6879.42 451.567   4
  -2  -4   2 75875.0 2573.26   1
  -2  -4   2 77601.0 2337.65   4
   2   4  -2 77056.2 2476.43   1
   2   4  -2 77769.6 2688.03   3
  -2  -4   2 73333.3 2180.12   7
  -2  -4   2 80843.1 2530.04   8
   2   4  -2 73667.5 2465.35   6
  -2  -4   0 204367. 5779.57   4
  -2  -4   0 217906. 5897.84   8
   2   4   0 218836. 5979.56   3
   2   4   0 210124. 5421.23   7
  -2  -4   0 212010. 5815.13   1
   2   4   0 214299. 5716.64   4
   2   4   0 206461. 5580.59   6
   2   4   0 210444. 5811.92   1
   2   4   2 5496.74 450.634   5
  -2  -4  -2 5560.38 285.499   6
  -2  -4  -2 5243.01 488.479   4
   2   4   2 5492.61 461.060   1
  -2  -4  -2 5872.63 502.379   8
   2   4   2 6707.39 596.020   4
   2   4   2 5742.80 274.751   6
  -2  -4  -4 17815.3 956.502   5
   2   4   4 17160.5 850.301   5
   2   4   4 17836.4 1111.43   4
  -2  -4  -4 18129.2 939.632   8
  -2  -4  -4 17152.2 638.668   6
  -2  -4  -6 6547.00 552.287   8
  -2  -4  -6 6923.03 632.273   5
   2   4   8 21029.1 1069.85   3
  -2  -4  -8 19559.9 767.858   2
  -2  -4  -8 19972.8 1205.07   5
   2   4   8 17116.3 1331.82   4
  -2  -4  -8 19996.6 1026.08   8
  -2  -4  -8 20778.2 1289.61   4
   2   4  10 12917.8 1199.88   4
  -2  -4 -10 13285.4 1026.40   5
  -2  -4 -10 14274.8 843.643   8
  -2  -4 -12 3846.65 604.129   5
   2   4  12 4250.43 773.500   4
  -2  -4 -12 4183.06 416.492   8
  -2  -4 -14 627.301 320.914   5
   2   4  14 1005.00 485.812   4
   2   5 -10 882.309 345.728   3
  -2  -5  10 768.113 377.934   1
  -2  -5   8 2219.76 504.815   1
   2   5  -8 3279.50 547.824   3
  -2  -5   8 1950.94 274.789   8
  -2  -5   8 2303.54 402.973   7
  -2  -5   8 1955.55 250.551   4
  -2  -5   6 6040.49 688.524   1
  -2  -5   6 6744.14 543.190   8
   2   5  -6 7646.23 779.754   3
  -2  -5   6 6429.12 400.717   4
   2   5  -4 7369.01 732.914   3
  -2  -5   4 7246.01 571.230   4
  -2  -5   4 8319.72 636.433   8
  -2  -5   4 7395.64 684.968   1
  -2  -5   4 6489.10 508.484   7
   2   5  -4 6670.45 647.127   6
   2   5  -2 51602.0 1903.06   1
   2   5  -2 56033.0 2222.46   3
  -2  -5   2 56372.3 2064.45   8
  -2  -5   2 52477.2 1695.65   7
  -2  -5   2 53882.8 2026.86   1
  -2  -5   2 52090.4 1955.59   4
   2   5  -2 53473.7 1997.05   6
   2   5   0 15884.4 851.101   1
   2   5   0 16572.8 700.794   7
  -2  -5   0 14297.6 775.037   6
  -2  -5   0 17332.4 972.372   8
  -2  -5   0 16113.2 948.104   4
   2   5   0 17119.7 1027.77   3
  -2  -5   0 15043.3 843.934   1
   2   5   0 15668.3 760.222   6
  -2  -5  -2 108079. 3355.08   8
   2   5   2 102623. 3193.03   1
   2   5   2 99665.4 2831.72   6
  -2  -5  -2 99733.0 2868.62   6
  -2  -5  -2 103656. 3432.54   4
   2   5   2 111633. 3439.55   4
   2   5   2 102228. 2980.24   7
  -2  -5  -4 2491.95 382.046   5
   2   5   4 2479.92 179.093   2
   2   5   4 2674.21 478.669   4
  -2  -5  -4 2663.91 373.144   8
  -2  -5  -4 2226.48 216.296   6
   2   5   6 29156.0 1325.39   5
  -2  -5  -6 32861.1 1521.39   8
   2   5   6 41544.3 1989.04   4
  -2  -5  -6 44444.0 1911.15   4
  -2  -5  -6 35529.6 1625.85   5
  -2  -5  -8 26706.4 1505.11   5
  -2  -5  -8 26699.7 1347.58   8
   2   5   8 27635.1 1744.38   4
   2   5   8 27043.8 1303.97   3
  -2  -5 -10 1935.53 329.035   8
  -2  -5 -10 1464.67 208.429   2
  -2  -5 -10 1539.48 385.336   5
   2   5  10 2142.00 579.296   4
  -2  -5 -12 932.029 238.720   8
  -2  -5 -12 629.300 284.254   5
  -2  -5 -12 1161.42 230.388   2
   2   5  12 971.202 469.129   4
  -2  -5 -14 1294.10 388.136   5
   2   5  14 1168.49 528.342   4
  -2  -6  10 264.297 222.772   1
   2   6  -8 2351.80 494.587   3
  -2  -6   8 2640.17 525.542   1
  -2  -6   6 4836.64 529.358   7
   2   6  -6 6017.78 739.673   3
  -2  -6   6 4926.53 378.990   4
  -2  -6   6 4744.34 494.923   8
  -2  -6   6 5125.39 640.633   1
   2   6  -4 10510.9 937.320   3
  -2  -6   4 7691.24 597.002   7
  -2  -6   4 9921.14 804.749   1
   2   6  -4 8864.54 792.225   6
  -2  -6   4 8502.61 729.014   4
  -2  -6   4 10172.6 757.125   8
   2   6  -2 329.724 125.963   7
  -2  -6   2 306.140 172.503   1
   2   6  -2 231.397 218.660   3
  -2  -6   2 188.497 99.5396   7
   2   6  -2 515.108 173.821   1
  -2  -6   2 550.982 240.032   4
   2   6  -2 379.894 156.419   6
  -2  -6   2 54.3604 149.781   8
   2   6   0 61749.3 2363.83   5
   2   6   0 62226.3 2184.71   1
   2   6   0 67909.4 2587.18   3
  -2  -6   0 62684.9 2491.11   4
  -2  -6   0 71002.6 2513.54   8
  -2  -6   0 61010.3 2184.99   1
   2   6   0 60389.2 2128.46   6
   2   6   0 66222.8 2071.12   7
  -2  -6   0 62114.2 2212.52   6
   2   6   2 15570.0 898.007   1
  -2  -6  -2 18387.8 1114.10   8
   2   6   2 16609.0 963.773   5
   2   6   2 15932.2 829.839   7
  -2  -6  -2 15890.7 781.913   6
   2   6   2 17075.5 763.302   6
   2   6   2 18327.2 1118.99   4
   2   6   4 24388.4 1182.14   5
  -2  -6  -4 27112.8 1400.20   8
   2   6   4 26967.7 1535.47   4
   2   6   4 23804.8 1187.85   1
  -2  -6  -4 25521.2 1490.14   4
  -2  -6  -4 24989.6 997.174   6
  -2  -6  -6 56906.3 2307.90   5
  -2  -6  -6 61426.0 2025.03   6
   2   6   6 54003.6 2046.67   5
   2   6   6 64733.2 2799.00   4
  -2  -6  -6 53540.5 2317.92   8
  -2  -6  -8 3222.98 519.269   5
   2   6   8 4109.83 748.115   4
  -2  -6  -8 3265.59 475.017   8
  -2  -6 -10 2568.95 419.456   8
   2   6  10 2641.72 634.928   4
  -2  -6 -10 2134.78 437.028   5
   2   6  12 1844.13 555.792   4
  -2  -6 -12 2290.68 470.723   5
  -2  -6 -12 2283.14 383.882   8
  -2  -6 -14 1195.38 396.473   5
   2   6  14 467.748 421.167   4
  -2  -7  10 97.2367 157.358   1
  -2  -7   8 509.804 264.968   1
   2   7  -8 926.590 340.167   3
  -2  -7   6 3263.92 454.111   8
   2   7  -6 3013.95 557.900   3
  -2  -7   6 3082.95 516.796   1
  -2  -7   4 4693.63 558.551   8
  -2  -7   4 3240.21 475.830   1
   2   7  -4 4088.02 636.152   3
   2   7  -2 7667.31 827.317   3
  -2  -7   2 6356.40 683.738   8
   2   7  -2 6883.49 525.113   7
  -2  -7   2 6742.53 613.580   1
  -2  -7   2 5482.18 462.455   7
   2   7  -2 6348.43 606.684   6
   2   7   0 6541.00 638.005   5
   2   7   0 6319.57 538.100   1
  -2  -7   0 6823.18 712.769   8
  -2  -7   0 6173.24 729.141   4
   2   7   0 7332.68 773.806   3
  -2  -7   0 5677.71 568.216   6
   2   7   0 6659.70 560.691   6
   2   7   0 6256.86 515.378   7
   2   7   2 16495.9 1009.05   5
   2   7   2 16072.9 901.297   7
  -2  -7  -2 16280.6 1144.79   8
  -2  -7  -2 16841.0 1237.07   4
  -2  -7  -2 16363.9 873.461   6
   2   7   2 15962.5 925.544   1
   2   7   2 14896.7 797.141   6
   2   7   2 17932.3 1183.38   4
  -2  -7  -4 25978.1 1614.12   4
   2   7   4 25261.8 1247.41   5
  -2  -7  -4 26025.9 1522.03   8
   2   7   4 25137.5 1577.06   4
   2   7   4 25531.4 1270.95   7
  -2  -7  -4 25937.0 1109.31   6
   2   7   4 23436.7 1231.63   1
  -2  -7  -6 25.7459 139.904   6
  -2  -7  -6 67.1447 196.202   5
   2   7   6 179.727 157.150   5
  -2  -7  -6 143.625 236.833   8
  -2  -7  -8 16340.9 1197.71   5
   2   7   8 16862.7 911.338   5
  -2  -7  -8 17996.9 1234.76   8
   2   7   8 18407.0 1479.42   4
  -2  -7  -8 17916.3 1055.57   6
  -2  -7 -10 4852.21 663.399   5
   2   7  10 3473.67 725.203   4
  -2  -7 -10 4387.66 577.808   8
  -2  -7 -12 1122.79 361.827   5
  -2  -7 -12 1261.17 319.657   8
   2   7  12 1331.26 526.059   4
  -2  -7 -14 1226.48 400.970   5
  -2  -8   8 246.644 186.874   1
  -2  -8   6 1290.86 330.922   1
  -2  -8   6 936.225 262.731   8
   2   8  -6 1330.17 401.755   3
  -2  -8   4 4249.72 585.191   8
   2   8  -4 5203.26 748.794   3
  -2  -8   4 4262.02 552.055   1
   2   8  -2 5037.25 587.098   6
  -2  -8   2 5123.02 645.506   8
   2   8  -2 5419.62 759.957   3
   2   8  -2 4923.95 485.261   7
  -2  -8   2 4605.65 506.467   1
  -2  -8   2 4497.11 685.837   4
   2   8   0 2696.94 392.750   6
   2   8   0 2525.75 348.793   1
  -2  -8   0 2813.74 508.507   8
   2   8   0 2818.39 376.281   7
  -2  -8   0 2812.22 554.465   4
  -2  -8   0 2977.67 465.043   6
   2   8   0 2615.02 527.547   3
   2   8   2 14985.1 1005.52   5
  -2  -8  -2 16045.1 1261.32   8
   2   8   2 16039.2 946.119   1
  -2  -8  -2 14221.1 1269.22   4
   2   8   2 16021.0 971.745   7
  -2  -8  -2 14849.1 921.276   6
   2   8   2 15937.4 875.045   6
   2   8   4 834.986 231.439   1
   2   8   4 908.992 253.169   5
  -2  -8  -4 790.378 322.831   8
   2   8   4 922.059 401.180   4
   2   8   4 941.060 276.702   7
  -2  -8  -4 1389.88 270.915   6
   2   8   6 8959.04 689.200   5
  -2  -8  -6 10083.3 999.983   8
   2   8   6 8650.03 743.905   1
  -2  -8  -6 10723.4 745.218   6
   2   8   6 10767.0 1116.15   4
  -2  -8  -8 4834.58 645.158   5
   2   8   8 4858.95 467.038   5
  -2  -8  -8 5696.01 744.651   8
   2   8   8 5968.14 868.169   4
  -2  -8  -8 5068.08 565.470   6
  -2  -8 -10 1787.02 381.685   6
  -2  -8 -10 1419.83 419.454   5
  -2  -8 -10 2341.37 479.962   8
   2   8  10 1957.00 582.164   4
  -2  -8 -12 796.023 286.005   6
  -2  -8 -12 123.996 235.838   5
  -2  -8 -12 645.464 260.911   8
   2   8  12 869.276 475.415   4
  -2  -8 -14 270.518 202.650   5
  -2  -9   6 99.2546 162.294   8
  -2  -9   4 1608.55 334.700   1
  -2  -9   4 2354.89 454.684   8
   2   9  -4 1841.01 515.320   3
  -2  -9   2 1667.40 319.563   1
   2   9  -2 2072.27 342.826   7
  -2  -9   2 2197.07 474.788   8
   2   9  -2 2885.91 589.954   3
   2   9   0 5988.73 820.484   3
   2   9   0 5201.54 547.514   7
  -2  -9   0 6253.79 813.629   8
  -2  -9   0 5190.18 637.684   6
   2   9   0 5346.14 592.052   6
   2   9   2 1576.89 287.262   6
   2   9   2 964.048 233.405   1
   2   9   2 1075.18 277.484   7
  -2  -9  -2 998.451 388.003   8
  -2  -9  -2 1464.35 322.041   6
   2   9   4 6441.34 633.449   5
  -2  -9  -4 8577.94 702.752   6
  -2  -9  -4 6718.91 890.231   8
   2   9   4 7644.50 737.754   7
   2   9   4 6486.83 627.953   1
   2   9   4 7693.53 928.562   4
   2   9   6 268.700 151.787   1
   2   9   6 417.595 174.391   5
   2   9   6 751.498 270.642   7
  -2  -9  -6 523.090 300.086   8
   2   9   6 217.545 311.280   4
  -2  -9  -6 605.092 212.253   6
  -2  -9  -8 1061.41 351.789   8
   2   9   8 904.336 457.521   4
  -2  -9  -8 1500.00 312.860   6
  -2  -9 -10 1019.83 299.841   6
  -2  -9 -10 466.828 257.182   5
  -2  -9 -10 1422.25 425.515   8
   2   9  10 1019.76 461.851   4
  -2  -9 -12 199.152 213.786   5
  -2  -9 -12 577.164 267.748   8
  -2 -10   4 264.355 181.367   8
  -2 -10   2 1225.96 376.347   8
   2  10  -2 631.371 358.271   3
  -2 -10   0 1025.24 407.848   8
   2  10   0 1257.49 300.801   7
   2  10   0 732.947 381.933   3
  -2 -10   0 687.147 291.005   6
  -2 -10  -2 7638.57 1008.27   8
   2  10   2 5509.43 628.908   7
  -2 -10  -2 6563.31 712.725   6
   2  10   4 2371.56 438.305   7
  -2 -10  -4 1777.83 521.954   8
  -2 -10  -4 2244.46 415.837   6
  -2 -10  -6 238.399 248.383   8
   2  10   6 685.216 415.120   4
   2  10   6 689.930 282.920   7
  -2 -10  -6 448.043 237.698   6
   2  10   8 1314.25 390.459   7
   2  10   8 731.686 430.265   4
  -2 -10  -8 2038.58 556.005   8
  -2 -10 -10 902.837 374.878   8
   2  10  10 272.541 373.238   4
  -2 -10 -12 478.335 301.889   8
  -2 -11   4 223.411 171.238   8
  -2 -11   2 566.966 326.780   8
  -2 -11   0 192.618 300.941   8
  -2 -11   0 934.194 325.997   6
   2  11   0 401.609 297.022   3
  -2 -11  -2 776.586 298.017   6
  -2 -11  -2 1397.70 492.842   8
  -2 -11  -4 953.656 471.024   8
   2  11   4 1672.90 398.611   7
  -2 -11  -6 851.882 421.592   8
   2  11   6 859.574 324.454   7
   2  11   8 876.036 355.731   7
  -2 -11  -8 263.688 273.181   8
   2  11   8 1418.76 549.765   4
   2  11  10 894.654 371.611   7
   2  12   8 725.015 314.084   7
  -3  11  -1 714.109 330.889   3
  -3  11  -3 540.570 311.134   3
   3 -10  -7 831.900 402.903   6
  -3  10   5 556.496 374.823   7
   3 -10  -5 1443.98 486.126   6
  -3  10   3 616.068 372.480   7
   3 -10  -3 1005.16 433.899   6
  -3  10   1 1957.16 517.094   7
   3 -10  -1 2063.57 559.432   6
  -3  10  -1 1326.14 434.304   7
   3 -10   1 1530.33 507.402   6
  -3  10  -1 1173.52 375.826   3
  -3  10  -3 463.253 286.572   7
  -3  10  -3 120.654 183.643   3
  -3  10  -5 86.5372 134.583   3
   3  -9  -9 391.483 304.505   6
   3  -9  -7 1204.99 455.728   6
  -3   9   7 356.993 323.044   7
   3  -9  -5 1961.93 540.220   6
  -3   9   5 2301.30 564.942   7
  -3   9   3 4902.33 789.867   7
   3  -9  -3 3306.90 681.356   6
   3  -9  -1 4443.83 752.495   6
  -3   9   1 5028.78 780.457   7
  -3   9  -1 4917.13 786.404   7
   3  -9   1 5383.44 818.529   6
  -3   9  -3 1607.88 465.223   7
  -3   9  -3 1486.50 400.730   3
   3  -9   3 917.520 359.595   6
  -3   9  -5 2705.06 591.783   7
   3  -9   5 1720.82 491.396   6
  -3   9  -5 2220.71 474.808   3
  -3   9  -7 821.621 313.453   3
   3  -8  -9 891.244 382.003   6
  -3   8   9 635.186 242.771   1
  -3   8   9 735.207 395.621   7
   3  -8  -7 2063.48 539.646   6
  -3   8   7 1255.16 293.603   1
  -3   8   7 1647.56 496.962   7
   3  -8  -5 5384.79 820.982   6
  -3   8   5 4563.81 739.753   7
  -3   8   5 4609.26 427.023   1
  -3   8   3 4040.36 693.463   7
   3  -8  -3 5611.18 813.867   6
  -3   8   1 2545.30 540.845   7
   3  -8  -1 3030.39 585.386   6
  -3   8  -1 8371.59 949.052   7
  -3   8  -1 8384.36 418.326   5
   3  -8   1 8366.31 960.509   6
  -3   8  -3 13862.1 1246.85   7
  -3   8  -3 13014.5 1063.55   3
   3  -8   3 13535.7 1276.47   6
  -3   8  -5 2033.06 427.329   3
   3  -8   5 3591.66 675.589   6
  -3   8  -5 3058.35 601.550   7
   3  -8   7 4756.91 834.544   6
  -3   8  -7 4724.52 742.698   7
  -3   8  -7 4283.48 621.879   3
  -3   8  -9 1076.77 323.743   3
  -3   7  11 162.801 194.749   1
   3  -7 -11 363.735 246.006   2
  -3   7   9 1167.83 325.214   1
   3  -7  -9 1997.30 516.168   6
   3  -7  -9 980.480 353.172   2
  -3   7   9 981.591 404.821   7
   3  -7  -7 1359.76 444.142   6
  -3   7   7 1157.80 293.551   1
  -3   7   7 1549.40 448.884   7
   3  -7  -5 3696.94 646.463   6
  -3   7   5 3248.18 384.719   1
  -3   7   5 3949.61 649.658   7
   3  -7  -3 2444.39 529.868   6
  -3   7   3 2274.91 513.547   7
  -3   7   3 1716.23 190.752   1
  -3   7   1 4908.80 689.926   7
   3  -7  -1 3705.60 607.450   6
  -3   7  -1 20141.9 754.938   5
   3  -7   1 21625.8 1479.87   6
  -3   7  -1 19910.2 1418.12   7
  -3   7  -3 7230.92 727.579   3
  -3   7  -3 7768.19 865.262   7
   3  -7   3 7091.81 864.829   6
  -3   7  -5 5626.50 654.788   3
  -3   7  -5 6404.94 822.840   7
   3  -7   5 6746.03 866.536   6
  -3   7  -7 8207.03 808.959   3
  -3   7  -7 8449.35 952.125   7
   3  -7   7 9879.37 1131.36   6
  -3   7  -9 2573.06 471.359   3
   3  -6 -13 207.321 229.179   2
   3  -6 -11 33.7682 250.399   2
  -3   6  11 520.549 275.529   1
   3  -6  -9 903.430 355.987   2
  -3   6   9 1843.82 426.050   1
  -3   6   9 2037.47 491.304   7
   3  -6  -7 768.473 351.378   6
   3  -6  -7 906.064 296.074   2
   3  -6  -7 852.640 113.010   5
  -3   6   7 358.008 189.417   1
  -3   6   7 1081.88 374.285   7
   3  -6  -5 278.399 284.208   6
  -3   6   5 260.907 238.118   7
  -3   6   5 82.8748 137.750   1
  -3   6   3 16477.7 1240.03   7
   3  -6  -3 16940.6 1271.10   6
  -3   6   3 16902.2 796.247   1
  -3   6   3 16794.6 934.922   3
  -3   6   1 10909.3 966.148   7
   3  -6  -1 12749.8 1038.36   6
  -3   6  -1 5301.89 314.608   5
  -3   6  -1 4822.56 637.719   7
   3  -6   1 5735.47 703.540   6
  -3   6  -3 8442.90 710.662   3
  -3   6  -3 6769.95 772.305   7
   3  -6   3 7429.59 841.603   6
   3  -6   5 627.727 120.749   1
  -3   6  -5 452.170 255.181   7
  -3   6  -5 563.182 215.859   3
   3  -6   5 1181.80 392.450   6
  -3   6  -7 3381.27 580.474   7
  -3   6  -7 2994.11 460.874   3
   3  -6   7 1919.39 487.690   6
  -3   6  -9 19184.1 1265.46   3
   3  -6   9 25608.1 1840.82   6
  -3   6 -11 350.160 209.349   3
   3  -6  11-127.975 202.849   4
  -3   5  13 25.7023 259.999   4
   3  -5 -13 378.013 298.128   2
   3  -5 -11 1079.80 384.059   2
  -3   5  11 887.609 363.144   4
  -3   5  11 503.273 318.124   1
   3  -5  -9 3059.85 541.600   2
  -3   5   9 2326.71 485.308   1
   3  -5  -9 1785.32 260.737   5
   3  -5  -7 1107.46 348.345   2
   3  -5  -7 1130.16 175.515   5
  -3   5   7 1148.98 364.487   7
  -3   5   7 918.023 310.310   1
  -3   5   5 24721.4 1266.18   3
  -3   5   5 23400.4 1241.94   1
   3  -5  -5 22442.4 1451.05   4
  -3   5   5 25246.3 1543.93   7
   3  -5  -5 24731.0 1558.28   6
   3  -5  -5 25798.2 1460.24   2
  -3   5   3 15951.0 1045.76   2
   3  -5  -3 17655.4 1200.80   4
  -3   5   3 17389.0 1185.32   7
   3  -5  -3 16301.7 1172.63   6
  -3   5   3 17577.6 862.731   1
  -3   5   3 17417.2 931.612   3
   3  -5  -1 4339.92 569.525   4
  -3   5   1 4166.73 491.582   2
  -3   5   1 4399.23 294.699   1
   3  -5  -1 4528.16 571.501   6
  -3   5   1 4551.16 581.315   7
  -3   5  -1 2100.68 358.571   6
  -3   5  -1 2242.53 199.357   5
  -3   5  -1 2202.07 364.966   2
  -3   5  -1 2043.70 394.613   7
   3  -5   1 2513.16 403.715   7
   3  -5   1 2715.77 464.935   6
  -3   5  -3 23833.2 1431.38   7
  -3   5  -3 26682.8 1051.67   5
  -3   5  -3 24811.0 1205.52   3
   3  -5   3 24336.0 827.408   1
   3  -5   3 23383.2 1443.99   6
  -3   5  -5 1176.15 332.662   7
  -3   5  -5 1279.16 270.283   3
   3  -5   5 850.662 311.580   6
  -3   5  -7 3344.19 452.570   3
   3  -5   7 4172.65 667.030   6
  -3   5  -9 306.616 182.421   3
   3  -5   9 1666.60 480.905   6
  -3   5 -11 3879.95 560.994   3
   3  -5  11 3749.26 638.877   4
   3  -4 -13 360.962 291.314   2
  -3   4  13 524.585 306.121   4
  -3   4  11 1017.65 407.564   1
   3  -4 -11 590.269 292.988   2
  -3   4  11 800.167 344.245   4
   3  -4  -9 6061.51 726.796   2
  -3   4   9 4063.79 670.290   1
  -3   4   9 4479.01 674.046   4
   3  -4  -7 36035.1 1785.96   2
   3  -4  -7 29931.2 1760.57   4
  -3   4   7 33386.9 1769.20   1
  -3   4   5 303.642 205.333   1
   3  -4  -5 202.752 235.222   2
  -3   4   5 373.293 179.487   3
  -3   4   5 289.710 250.239   7
   3  -4  -5 290.744 254.143   4
  -3   4   3 13548.4 781.179   1
  -3   4   3 14317.7 1000.32   7
   3  -4  -3 13686.9 980.367   4
   3  -4  -3 15454.8 1044.62   6
   3  -4  -3 15092.0 1007.26   2
  -3   4   1 36147.1 1678.10   7
  -3   4   1 35830.2 1266.90   1
   3  -4  -1 36397.9 1719.72   4
   3  -4  -1 37982.1 1723.29   6
  -3   4  -1 62100.8 1781.65   5
   3  -4   1 59375.0 1757.99   1
   3  -4   1 60945.8 2383.20   6
  -3   4  -1 61315.6 2389.90   7
  -3   4  -3 66306.4 2544.90   7
  -3   4  -3 68251.8 2087.58   5
   3  -4   3 65173.5 2518.26   7
   3  -4   3 60887.5 1934.28   1
   3  -4   3 68590.1 2571.79   6
  -3   4  -3 64316.3 2457.90   6
  -3   4  -3 63728.2 2160.84   3
  -3   4  -5 11513.9 724.533   3
  -3   4  -5 11240.1 922.698   7
   3  -4   5 11453.8 958.860   6
  -3   4  -7 4070.00 442.100   3
   3  -4   7 3526.69 560.377   6
  -3   4  -9 9459.54 761.498   3
   3  -4   9 10142.6 968.504   4
   3  -4   9 11368.5 1101.84   6
  -3   4 -11 3009.40 445.658   3
   3  -4  11 2231.06 517.594   4
  -3   4 -13 341.348 208.937   3
   3  -4  13 101.777 202.330   4
  -3   3  11 861.315 351.138   4
  -3   3  11 2209.79 565.974   1
   3  -3 -11 1421.54 386.475   3
  -3   3   9 8122.82 848.441   4
  -3   3   9 7033.68 909.401   1
   3  -3  -9 7308.56 760.976   4
   3  -3  -9 9265.55 809.128   3
   3  -3  -7 948.657 299.735   3
  -3   3   7 1177.61 408.664   1
   3  -3  -7 1442.12 402.905   2
   3  -3  -7 1030.78 344.362   4
  -3   3   5 26517.8 1312.70   3
   3  -3  -5 26497.6 1424.94   2
  -3   3   5 25578.0 1374.59   1
   3  -3  -5 24077.3 1356.77   4
   3  -3  -3 86869.6 2910.25   2
   3  -3  -3 79292.1 2308.36   5
  -3   3   3 79936.6 2648.49   1
   3  -3  -3 78645.2 2811.55   4
  -3   3   3 85298.0 2876.17   7
   3  -3  -3 84868.3 2944.68   6
   3  -3  -1 85804.4 2227.00   5
  -3   3   1 82276.6 2844.50   7
   3  -3  -1 77381.4 2713.94   7
   3  -3  -1 85750.6 2900.70   6
  -3   3   1 81973.2 2535.06   1
  -3   3   1 85519.1 2521.48   3
  -3   3  -1 48998.4 1478.59   5
  -3   3  -1 49168.2 1936.13   7
   3  -3   1 48783.5 1920.21   6
   3  -3   1 45267.6 1506.13   1
  -3   3  -3 48864.1 1636.52   5
  -3   3  -3 47667.6 1567.73   3
   3  -3   3 45157.2 1559.78   1
   3  -3   3 44864.1 1905.61   6
  -3   3  -3 47786.7 1948.60   7
  -3   3  -5 67292.1 2353.60   5
  -3   3  -5 65451.8 2559.69   6
  -3   3  -5 70743.5 2209.48   3
  -3   3  -5 71165.8 2615.25   7
   3  -3   5 68328.0 2677.55   7
   3  -3   5 66003.8 2574.84   6
  -3   3  -7 13221.6 777.465   3
   3  -3   7 13276.2 1054.79   6
  -3   3  -9 5666.87 547.191   3
   3  -3   9 7452.37 832.626   6
   3  -3   9 5495.68 422.999   8
   3  -3   9 5611.94 616.113   3
   3  -3   9 5559.71 682.996   4
  -3   3 -11 3557.52 467.977   3
   3  -3  11 4048.75 612.591   4
  -3   3 -13 1141.53 405.218   5
  -3   3 -13 995.285 293.678   3
   3  -3  13 319.111 247.402   4
  -3   2  11 194.546 255.691   1
   3  -2 -11 175.502 228.179   3
  -3   2  11 372.156 275.308   4
   3  -2  -9 170.461 163.446   4
  -3   2   9 261.105 282.161   1
   3  -2  -9 68.1746 194.713   3
  -3   2   9 271.501 225.224   4
   3  -2  -9 44.8411 96.9781   8
  -3   2   7 33073.2 1933.14   1
   3  -2  -7 36172.5 1700.67   4
   3  -2  -7 41398.2 1736.48   3
  -3   2   7 39207.9 1823.41   4
  -3   2   5 22009.1 1185.78   3
  -3   2   5 21307.3 1272.13   1
   3  -2  -5 19725.2 1135.70   4
   3  -2  -5 22209.6 1083.68   3
  -3   2   3 4112.01 436.442   1
  -3   2   3 3974.43 388.723   3
   3  -2  -3 4535.65 517.857   2
   3  -2  -3 4158.84 444.847   4
  -3   2   3 4277.63 453.351   7
   3  -2  -3 4869.78 408.189   3
   3  -2  -1 169388. 4657.38   2
  -3   2   1 154809. 4291.12   3
   3  -2  -1 154120. 4203.70   5
   3  -2  -1 159233. 4373.14   1
  -3   2   1 162907. 4596.15   7
   3  -2  -1 151807. 4487.55   7
  -3   2   1 159105. 4438.20   1
   3  -2  -1 163564. 4654.94   6
  -3   2  -1 19710.6 777.222   5
   3  -2   1 19958.9 748.695   5
  -3   2  -1 19645.1 962.121   6
  -3   2  -1 19701.5 1006.70   7
   3  -2   1 18449.7 958.874   7
   3  -2   1 18254.6 813.533   1
   3  -2   1 21381.3 1028.86   6
   3  -2   3 120367. 3466.02   1
  -3   2  -3 123829. 3488.38   5
  -3   2  -3 120216. 3230.44   3
   3  -2   3 115172. 3699.15   6
  -3   2  -3 120294. 3753.14   7
  -3   2  -5 87803.5 2463.41   3
  -3   2  -5 83391.1 2770.76   5
   3  -2   5 80425.8 2874.39   6
  -3   2  -5 81699.5 2871.79   6
  -3   2  -5 82671.6 2909.21   7
  -3   2  -7 32530.6 1623.10   6
  -3   2  -7 32399.4 1258.82   3
  -3   2  -7 28159.2 1486.44   5
   3  -2   7 31756.4 1227.70   8
   3  -2   7 30986.0 1352.93   3
   3  -2   7 29293.5 1581.64   6
   3  -2   7 34708.9 1655.71   4
   3  -2   7 31864.5 1703.72   7
  -3   2  -9 9364.51 659.720   3
   3  -2   9 9251.91 527.660   8
   3  -2   9 10057.3 888.240   4
   3  -2   9 8044.24 715.276   3
  -3   2 -11 11021.3 796.981   3
   3  -2  11 9345.18 938.263   4
  -3   2 -13 572.378 234.403   3
   3  -2  13 435.384 307.657   4
  -3   2 -13 694.141 315.652   5
  -3   2 -15 514.531 244.484   3
   3  -1 -11 486.048 263.433   3
  -3   1  11 793.719 288.112   4
   3  -1  -9 5161.05 605.305   3
  -3   1   9 5062.87 582.678   4
   3  -1  -9 4680.95 490.471   4
  -3   1   9 3847.74 723.545   1
   3  -1  -7 2264.23 365.139   3
  -3   1   7 3043.11 432.716   4
  -3   1   7 1821.89 455.471   1
   3  -1  -7 2211.22 333.362   4
   3  -1  -5 5079.91 474.343   3
   3  -1  -5 4340.64 456.338   4
  -3   1   5 5330.00 534.392   3
  -3   1   5 4291.30 577.481   1
   3  -1  -3 70184.9 2123.49   3
  -3   1   3 67888.0 2361.51   1
  -3   1   3 68139.6 2212.26   3
   3  -1  -3 61888.6 2135.62   4
  -3   1   3 62926.4 2195.42   7
   3  -1  -1 3603.79 311.092   5
   3  -1  -1 3875.05 417.633   2
  -3   1   1 3957.33 294.561   3
   3  -1  -1 3487.75 341.336   1
  -3   1   1 3623.68 359.001   7
  -3   1   1 4143.46 389.172   1
   3  -1  -1 3495.86 383.480   6
   3  -1  -1 4176.93 297.871   3
  -3   1  -1 136390. 3781.58   2
  -3   1  -1 129902. 3606.06   5
  -3   1  -1 128903. 3311.04   3
   3  -1   1 127872. 3593.51   5
  -3   1  -1 134458. 3710.00   1
  -3   1  -1 130851. 3793.12   7
   3  -1   1 126013. 3735.99   7
   3  -1   1 127860. 3688.38   1
   3  -1   1 132665. 3780.14   6
  -3   1  -1 127764. 3721.29   6
  -3   1  -3 64661.6 2017.34   5
  -3   1  -3 60831.2 2124.09   7
   3  -1   3 57991.1 2110.48   7
   3  -1   3 61954.1 2022.75   1
   3  -1   3 60579.4 2068.75   6
  -3   1  -3 57548.1 2027.04   6
  -3   1  -5 102752. 2831.40   3
  -3   1  -5 111150. 3365.87   5
   3  -1   5 103909. 2937.58   3
   3  -1   5 106740. 3071.06   8
  -3   1  -7 10758.6 589.438   3
  -3   1  -7 9731.30 808.053   5
   3  -1   7 10438.3 662.042   3
   3  -1   7 10395.6 586.986   8
   3  -1   7 10852.3 884.076   7
   3  -1   7 11615.3 860.589   4
  -3   1  -7 9891.45 785.783   6
   3  -1   7 9057.65 769.803   6
  -3   1  -9 8283.71 595.623   3
  -3   1  -9 6885.58 754.462   5
   3  -1   9 8048.88 678.289   3
   3  -1   9 8147.50 464.182   8
  -3   1 -11 9347.35 728.643   3
   3  -1  11 10688.7 1015.09   4
  -3   1 -13 4555.91 564.127   3
  -3   1 -13 3695.41 661.578   5
   3  -1  13 3409.80 622.673   4
  -3   1 -15 306.729 203.402   3
   3  -1  15 351.967 318.509   4
  -3   0  11 2367.50 654.182   1
   3   0 -11 1838.43 412.987   3
   3   0  -9 617.935 173.512   8
  -3   0   9 1014.80 443.681   1
   3   0  -9 425.969 255.728   3
  -3   0   9 690.488 241.950   4
   3   0  -9 576.746 164.453   4
   3   0  -7 16425.8 997.336   3
   3   0  -7 14380.5 728.629   4
  -3   0   7 14702.5 854.507   4
   3   0  -7 14644.5 823.265   8
   3   0  -5 29066.9 1277.21   3
  -3   0   5 29212.7 1604.06   1
   3   0  -5 28206.3 1204.63   8
  -3   0   5 26790.1 1351.73   3
   3   0  -5 25667.3 1069.28   4
  -3   0   3 13139.2 864.566   1
   3   0  -3 15130.1 736.987   3
  -3   0   3 12179.3 723.714   3
   3   0  -3 12613.7 727.986   8
   3   0  -3 13037.1 633.781   4
   3   0  -1 83647.0 2616.49   5
   3   0  -1 88949.4 2456.96   3
   3   0  -1 85257.4 2683.12   1
  -3   0   1 85499.0 2511.32   3
  -3   0   1 85730.4 2731.13   1
  -3   0   1 86393.8 2536.15   7
   3   0   1 193326. 5302.58   2
   3   0   1 194728. 4942.39   3
  -3   0  -1 201096. 5334.77   5
   3   0   1 197605. 5305.43   5
  -3   0  -1 196194. 4983.31   3
  -3   0  -1 198478. 5403.86   1
  -3   0  -1 198951. 5308.31   7
   3   0   1 193604. 5275.98   7
   3   0   1 200508. 5412.95   1
   3   0   1 196567. 5290.76   6
  -3   0  -3 45259.0 1578.03   2
   3   0   3 48336.8 1721.49   1
  -3   0  -3 50517.7 1729.38   5
   3   0   3 48882.1 1623.48   5
   3   0   3 46598.1 1635.35   8
  -3   0  -3 49928.8 1703.64   7
   3   0   3 45663.2 1696.63   7
   3   0   3 48966.6 1626.65   6
  -3   0  -3 44861.7 1585.07   6
  -3   0  -5 15815.5 908.874   5
   3   0   5 15195.7 616.166   3
   3   0   5 14730.2 737.929   8
   3   0   5 15259.8 914.581   7
   3   0   5 15236.3 886.271   4
   3   0   5 14120.4 799.994   6
  -3   0  -5 13899.1 784.121   6
  -3   0  -5 15084.2 607.129   3
  -3   0  -7 17643.1 783.607   3
  -3   0  -7 14493.8 1026.13   5
   3   0   7 15895.2 795.393   3
   3   0   7 14956.6 734.211   8
   3   0   7 16802.3 1040.20   4
   3   0   7 12570.8 882.430   6
   3   0   7 17423.6 1095.02   7
  -3   0  -7 15338.1 952.418   6
  -3   0  -9 12461.9 744.536   3
  -3   0  -9 11002.2 976.124   5
   3   0   9 10968.9 776.203   3
   3   0   9 11544.9 565.647   8
  -3   0  -9 12110.9 947.682   6
  -3   0 -11 9462.28 749.686   3
  -3   0 -11 10636.5 1036.37   5
   3   0  11 9360.25 828.637   3
   3   0  11 11100.4 1002.19   4
  -3   0 -13 2820.23 572.318   5
  -3   0 -13 2267.56 403.394   3
   3   0  13 2183.01 521.060   4
  -3   0 -15 780.879 307.960   3
   3   0  15 646.906 346.237   4
  -3  -1  11 3046.16 787.803   1
   3   1 -11 2078.07 454.277   3
  -3  -1   9 3596.47 402.471   4
   3   1  -9 4224.31 573.271   3
  -3  -1   9 2666.01 636.393   1
   3   1  -9 3541.38 367.078   8
  -3  -1   7 2842.62 599.816   1
   3   1  -7 3707.39 380.127   8
   3   1  -7 3966.49 501.472   3
   3   1  -5 18151.8 908.326   8
   3   1  -5 18019.4 1017.58   3
  -3  -1   5 17267.0 1222.78   1
  -3  -1   5 17410.8 1072.86   3
   3   1  -5 16626.6 570.202   4
  -3  -1   3 84570.9 2927.56   1
   3   1  -3 86929.4 2688.91   3
   3   1  -3 84773.2 2238.36   4
   3   1  -3 78943.5 2632.06   8
   3   1  -1 28873.4 1065.65   3
   3   1  -1 29381.2 1173.26   8
  -3  -1   1 25902.5 915.446   7
  -3  -1   1 27155.2 1226.85   1
  -3  -1   1 27205.9 1094.83   3
  -3  -1  -1 1588.30 251.791   5
   3   1   1 1968.54 255.382   5
   3   1   1 1815.11 179.953   3
   3   1   1 1835.18 237.001   2
  -3  -1  -1 1929.84 254.818   8
  -3  -1  -1 1734.51 275.495   1
  -3  -1  -1 1997.27 205.350   7
   3   1   1 1987.61 201.686   6
   3   1   1 1800.14 186.830   7
   3   1   1 1655.95 195.004   4
  -3  -1  -3 87608.8 2725.06   5
  -3  -1  -3 88442.3 2492.24   2
   3   1   3 85326.4 2449.50   6
  -3  -1  -3 86569.3 2634.42   8
   3   1   3 88290.0 2653.82   8
   3   1   3 84626.8 2610.70   7
   3   1   3 88532.8 2659.47   4
  -3  -1  -3 80541.4 2432.47   6
   3   1   5 150318. 4026.18   3
  -3  -1  -5 159987. 4557.04   5
   3   1   5 153015. 4498.90   4
  -3  -1  -5 152803. 4256.47   8
   3   1   5 155405. 4260.16   8
   3   1   5 158304. 4493.38   7
   3   1   5 143134. 4226.93   6
  -3  -1  -5 143411. 4209.25   6
   3   1   7 33907.2 1329.84   3
  -3  -1  -7 37273.7 1735.28   5
   3   1   7 34180.9 1289.57   8
   3   1   7 36792.9 1657.70   4
   3   1   7 38276.1 1706.19   7
   3   1   9 4994.08 494.786   3
  -3  -1  -9 4352.86 612.584   5
  -3  -1  -9 5134.92 578.223   6
   3   1   9 5049.17 625.122   4
  -3  -1  -9 5171.43 472.307   3
  -3  -1 -11 3128.96 575.064   5
   3   1  11 2293.19 403.043   3
   3   1  11 2200.40 487.409   4
  -3  -1 -11 2407.30 369.077   3
  -3  -1 -13 1890.42 378.171   3
  -3  -1 -13 2746.98 589.600   5
   3   1  13 2219.28 544.313   4
   3   1  15 910.566 474.247   4
   3   2 -11 1157.42 374.190   3
  -3  -2  11 752.498 415.686   1
   3   2  -9 1802.88 398.872   3
  -3  -2   9 1385.52 205.022   4
  -3  -2   9 2422.55 598.999   1
   3   2  -7 13310.9 978.453   3
  -3  -2   7 11929.2 1191.25   1
   3   2  -7 12627.1 742.876   8
  -3  -2   5 42264.5 2097.45   1
   3   2  -5 47789.2 1901.52   3
  -3  -2   5 42368.1 1967.02   3
   3   2  -3 11941.0 764.552   3
  -3  -2   3 12100.4 704.048   8
   3   2  -3 12133.7 716.340   8
  -3  -2   3 12107.9 869.120   1
  -3  -2   1 605.714 218.101   1
  -3  -2   1 679.693 182.458   8
   3   2  -1 760.763 178.006   8
  -3  -2   1 729.829 77.1511   7
   3   2  -1 960.029 200.668   3
   3   2  -1 933.726 125.653   4
  -3  -2   1 1324.93 224.705   3
  -3  -2  -1 51012.7 1763.10   8
   3   2   1 50456.1 1629.48   3
   3   2   1 47713.8 1565.52   4
  -3  -2  -1 49381.2 1794.27   1
   3   2   1 48710.5 1404.55   7
  -3  -2  -3 165458. 4647.42   5
   3   2   3 158857. 4493.94   4
   3   2   3 164374. 4383.10   7
  -3  -2  -3 166816. 4537.39   8
   3   2   3 164704. 4530.12   8
  -3  -2  -3 159486. 4453.75   4
   3   2   3 157066. 4087.68   6
  -3  -2  -3 157303. 4092.13   6
   3   2   3 154668. 4134.17   2
  -3  -2  -5 42775.8 1291.77   2
   3   2   5 44417.1 1570.61   8
  -3  -2  -5 46354.5 1825.62   5
  -3  -2  -5 44043.2 1591.00   8
  -3  -2  -5 41239.6 1407.82   6
   3   2   5 40616.0 1698.11   4
   3   2   5 44009.4 1419.84   3
   3   2   7 40189.7 1474.47   3
  -3  -2  -7 40095.0 1846.22   5
   3   2   7 38924.8 1439.12   8
  -3  -2  -7 38810.9 1540.48   6
   3   2   7 38928.4 1783.85   4
  -3  -2  -7 39647.0 1488.71   8
   3   2   9 4326.55 468.409   3
  -3  -2  -9 4619.68 635.217   5
  -3  -2  -9 5212.17 539.413   6
   3   2   9 5472.47 676.516   4
  -3  -2  -9 4665.70 406.443   8
  -3  -2 -11 5694.40 755.165   5
   3   2  11 5173.01 589.307   3
   3   2  11 4350.24 693.337   4
  -3  -2 -13 2963.17 621.970   5
   3   2  13 5545.61 868.791   4
   3   2  15 1769.04 568.833   4
   3   3 -11 879.074 325.192   3
  -3  -3  11 554.140 373.838   1
  -3  -3   9 3375.29 733.656   1
   3   3  -9 3234.21 544.771   3
  -3  -3   7 2380.92 544.686   1
   3   3  -7 2501.14 438.944   3
  -3  -3   5 6094.03 724.955   1
   3   3  -5 6782.42 661.315   3
  -3  -3   5 6471.38 522.414   8
  -3  -3   5 7104.13 733.413   3
  -3  -3   5 6837.06 485.186   7
   3   3  -5 6870.92 675.309   6
   3   3  -3 59086.5 2201.16   3
  -3  -3   3 57888.9 2041.75   8
   3   3  -3 58698.5 2147.44   1
  -3  -3   3 59783.0 2309.94   3
  -3  -3   3 57419.4 1706.54   7
  -3  -3   3 57423.8 2299.19   1
   3   3  -1 49511.9 1887.10   1
   3   3  -1 54772.9 1925.65   3
  -3  -3   1 51313.4 1856.67   8
   3   3  -1 48488.7 1441.17   4
  -3  -3   1 52731.5 1958.84   1
   3   3   1 49396.9 1736.65   3
   3   3   1 54097.7 1732.05   4
  -3  -3  -1 48938.3 1803.45   1
  -3  -3  -1 47345.2 1528.92   4
   3   3   1 44096.5 1367.70   6
  -3  -3  -1 50024.5 1814.90   8
  -3  -3  -3 9395.48 701.889   5
   3   3   3 9145.99 386.668   2
  -3  -3  -3 10734.3 690.337   8
   3   3   3 8677.84 649.251   4
  -3  -3  -3 8785.87 578.378   4
  -3  -3  -5 116971. 3631.90   5
   3   3   5 107786. 3556.40   4
   3   3   5 109006. 3323.35   8
  -3  -3  -5 105994. 2959.07   6
  -3  -3  -5 119045. 3443.53   8
   3   3   7 14410.7 776.581   3
  -3  -3  -7 13489.9 741.664   6
  -3  -3  -7 14120.0 1028.17   5
   3   3   7 14566.1 827.055   5
  -3  -3  -7 13979.8 838.035   8
   3   3   7 14006.8 1042.12   4
  -3  -3  -7 16184.1 1006.47   4
   3   3   9 13069.7 839.466   3
  -3  -3  -9 13468.2 1083.15   5
  -3  -3  -9 13148.3 792.250   8
  -3  -3 -11 12981.4 1127.21   5
   3   3  11 13574.6 1227.89   4
  -3  -3 -11 12822.1 730.673   8
  -3  -3 -13 1457.58 432.640   5
   3   3  13 1921.53 545.294   4
  -3  -3 -15 254.440 230.475   5
   3   3  15 872.541 472.793   4
  -3  -4  11 425.555 317.667   1
  -3  -4   9 558.491 335.683   1
   3   4  -9 504.745 243.019   3
   3   4  -7 5074.84 654.914   3
  -3  -4   7 5166.41 755.523   1
  -3  -4   7 5025.82 463.615   8
   3   4  -5 11712.2 921.946   3
  -3  -4   5 11113.6 653.701   7
   3   4  -5 9644.28 842.638   6
  -3  -4   5 10938.2 726.283   8
  -3  -4   5 10922.0 973.807   1
   3   4  -3 10495.4 815.148   3
  -3  -4   3 9404.12 706.867   8
   3   4  -3 11522.7 784.127   1
  -3  -4   3 10120.7 464.257   7
   3   4  -3 10755.5 762.488   6
  -3  -4   3 11005.4 850.718   1
   3   4  -1 72099.3 2576.85   1
  -3  -4   1 73289.8 2100.50   4
  -3  -4   1 74909.1 2631.12   1
   3   4  -1 69528.3 2330.20   6
   3   4  -1 79342.6 2674.14   3
   3   4  -1 77691.8 2521.91   8
  -3  -4   1 78286.6 2591.12   8
   3   4   1 306.916 156.339   1
  -3  -4  -1 31.7131 161.938   8
  -3  -4  -1 90.0381 122.383   1
   3   4   1 310.392 195.808   4
  -3  -4  -1 211.151 101.650   4
   3   4   1 294.477 77.3431   6
   3   4   1 77.7243 136.365   3
  -3  -4  -3 46417.1 1883.45   5
  -3  -4  -3 51965.6 1900.18   8
   3   4   3 47135.4 1872.04   1
   3   4   3 48835.5 1955.04   4
  -3  -4  -5 4609.65 531.968   5
   3   4   5 4420.38 445.231   5
  -3  -4  -5 3939.29 198.701   6
  -3  -4  -5 4796.17 488.612   8
  -3  -4  -5 4059.01 469.693   4
   3   4   5 3370.28 528.856   4
  -3  -4  -7 26675.8 1478.05   5
   3   4   7 26554.3 1191.49   5
  -3  -4  -7 26301.6 1268.79   8
  -3  -4  -7 26516.9 1431.11   4
   3   4   7 25628.0 1515.84   4
  -3  -4  -7 22502.5 1000.26   6
   3   4   7 24255.3 1099.82   3
   3   4   9 14438.4 927.491   3
  -3  -4  -9 18363.0 584.736   2
  -3  -4  -9 17234.1 1258.06   5
  -3  -4  -9 15663.8 971.587   8
  -3  -4 -11 914.590 371.402   5
  -3  -4 -11 707.981 216.793   8
   3   4  11 1191.53 520.494   4
  -3  -4 -11 455.716 201.718   6
  -3  -4 -13 2163.20 521.894   5
   3   4  13 3120.99 737.785   4
  -3  -4 -15 909.011 369.298   5
   3   4  15 1094.56 480.156   4
  -3  -5   9 472.646 301.751   1
   3   5  -9 725.955 299.279   3
  -3  -5   7 2085.11 313.243   8
   3   5  -7 2614.46 498.374   3
  -3  -5   7 1853.35 450.737   1
   3   5  -5 5537.33 668.319   3
  -3  -5   5 5662.09 458.637   7
  -3  -5   5 5463.76 538.394   8
  -3  -5   5 5990.56 715.549   1
   3   5  -3 14473.3 904.223   1
   3   5  -3 11875.2 954.215   3
  -3  -5   3 14175.9 896.163   8
  -3  -5   3 12224.8 484.986   4
  -3  -5   3 12994.0 557.589   7
   3   5  -3 13081.9 871.800   6
  -3  -5   3 12893.1 983.165   1
   3   5  -1 10995.8 791.571   1
   3   5  -1 13946.7 964.368   3
  -3  -5   1 12320.5 635.201   4
  -3  -5   1 11377.3 834.117   1
   3   5  -1 11508.3 703.669   6
  -3  -5   1 11321.6 827.765   8
   3   5   1 52890.4 2115.78   3
   3   5   1 51612.1 2097.11   5
  -3  -5  -1 55123.4 2113.64   8
  -3  -5  -1 49040.1 1857.88   4
   3   5   1 52909.7 1486.50   7
   3   5   1 53772.4 1979.72   4
   3   5   1 50794.8 1598.35   6
   3   5   1 54114.7 2056.31   1
  -3  -5  -1 51003.8 1988.17   1
   3   5   3 6959.32 694.431   4
   3   5   3 6867.00 603.449   5
  -3  -5  -3 8189.96 691.647   8
   3   5   3 7741.49 657.117   1
  -3  -5  -5 19397.6 1173.24   5
   3   5   5 19557.9 1042.38   5
   3   5   5 19054.1 1285.72   4
   3   5   5 17972.6 1068.48   1
  -3  -5  -5 18451.4 1121.04   4
  -3  -5  -5 20951.0 1162.09   8
  -3  -5  -7 32977.6 1739.06   5
   3   5   7 33670.0 1437.28   5
  -3  -5  -7 34166.4 1595.44   8
  -3  -5  -7 35554.4 1748.66   4
  -3  -5  -7 28875.9 1153.19   6
   3   5   7 34936.0 1905.98   4
  -3  -5  -9 976.745 296.797   8
  -3  -5  -9 737.105 290.046   5
   3   5   9 572.173 208.469   3
  -3  -5  -9 378.109 166.096   6
  -3  -5 -11 3339.15 594.648   5
  -3  -5 -11 3842.73 481.903   8
   3   5  11 3348.72 737.080   4
  -3  -5 -11 2378.96 409.915   6
  -3  -5 -13 2893.28 573.701   5
  -3  -5 -13 2028.22 339.811   8
   3   5  13 2233.99 620.525   4
  -3  -5 -15 1156.35 434.050   5
  -3  -6   9 354.467 311.426   1
  -3  -6   7 3352.78 428.953   8
  -3  -6   7 3890.96 661.272   1
   3   6  -7 3818.55 626.987   3
  -3  -6   5 3486.13 465.243   8
  -3  -6   5 4307.09 400.685   7
  -3  -6   5 3771.65 582.573   1
   3   6  -5 4614.79 656.640   3
   3   6  -3 5742.50 697.588   3
  -3  -6   3 5580.28 590.304   8
  -3  -6   3 5234.07 353.242   7
  -3  -6   3 5096.96 400.922   4
  -3  -6   3 5428.50 620.095   1
   3   6  -3 4379.78 520.215   6
   3   6  -1 9535.12 743.342   1
   3   6  -1 9507.85 878.504   3
  -3  -6   1 9552.83 801.984   8
  -3  -6   1 8659.99 741.970   1
  -3  -6   1 9315.91 655.665   4
   3   6  -1 9255.60 652.443   6
   3   6   1 35966.7 1719.84   5
   3   6   1 37336.7 1786.80   3
   3   6   1 37776.6 1629.01   4
  -3  -6  -1 39889.4 1790.66   8
  -3  -6  -1 33256.8 1555.26   4
   3   6   1 36747.4 1212.43   7
   3   6   1 36047.9 1300.08   6
   3   6   1 34923.3 1624.20   1
   3   6   3 8346.57 706.364   5
  -3  -6  -3 8524.90 777.329   8
   3   6   3 9433.68 844.806   4
  -3  -6  -3 8924.34 771.529   4
   3   6   3 8390.99 541.022   7
   3   6   3 9226.30 741.345   1
  -3  -6  -5 30485.5 1593.70   5
   3   6   5 31710.3 1458.19   5
   3   6   5 30471.1 1775.56   4
  -3  -6  -5 31718.3 1602.77   8
   3   6   5 28612.2 1460.92   1
  -3  -6  -5 31165.3 1624.74   4
  -3  -6  -5 30137.0 902.826   6
  -3  -6  -7 1373.21 217.363   6
  -3  -6  -7 2041.18 464.392   5
   3   6   7 2270.13 346.906   5
  -3  -6  -7 1813.27 400.174   8
   3   6   7 1655.45 505.618   4
  -3  -6  -9 12583.8 1103.12   5
  -3  -6  -9 13792.5 1012.80   8
  -3  -6 -11 1482.98 436.901   5
  -3  -6 -11 853.125 276.394   8
   3   6  11 631.508 429.125   4
  -3  -6 -13 752.020 343.151   5
  -3  -6 -13 511.912 216.361   8
  -3  -6 -15 698.098 354.677   5
  -3  -7   9 715.661 337.570   1
  -3  -7   7-213.435 205.930   1
   3   7  -7 96.0485 233.574   3
  -3  -7   7 82.0742 132.078   8
   3   7  -5 6599.48 833.776   3
  -3  -7   5 5868.86 636.058   8
  -3  -7   5 5545.10 709.748   1
  -3  -7   3 4134.64 459.278   4
   3   7  -3 4483.23 671.772   3
  -3  -7   3 4041.24 544.878   8
  -3  -7   3 4013.00 550.474   1
   3   7  -3 3302.54 473.124   6
  -3  -7   1 8978.97 749.283   4
   3   7  -1 9419.41 754.289   1
   3   7  -1 9789.47 957.010   3
  -3  -7   1 9626.90 865.146   8
  -3  -7   1 9620.24 794.204   1
   3   7  -1 10059.9 717.529   6
  -3  -7  -1 3463.32 536.161   8
   3   7   1 4033.91 347.182   7
   3   7   1 4179.03 513.101   4
   3   7   1 4319.83 392.013   6
   3   7   1 4134.88 590.713   3
   3   7   1 4350.77 513.682   1
   3   7   3 14848.3 1008.67   5
   3   7   3 16083.7 1176.94   4
  -3  -7  -3 15728.0 1145.89   8
  -3  -7  -3 14744.2 1087.58   4
   3   7   3 16004.5 837.383   7
   3   7   3 15948.6 1021.92   1
  -3  -7  -3 13748.1 664.873   6
   3   7   5 648.436 107.373   2
   3   7   5 1073.99 272.403   5
  -3  -7  -5 607.990 300.186   8
   3   7   5 813.959 468.735   4
   3   7   5 724.108 228.895   1
  -3  -7  -5 1077.40 331.465   4
  -3  -7  -5 874.733 138.318   6
  -3  -7  -7 28298.7 1669.09   5
  -3  -7  -7 30644.0 1671.62   8
   3   7   7 27644.3 1835.44   4
  -3  -7  -7 27693.8 1096.92   6
  -3  -7  -9 4580.06 684.682   5
  -3  -7  -9 5501.58 690.938   8
   3   7   9 5871.90 885.986   4
  -3  -7  -9 5579.73 507.994   6
  -3  -7 -11 588.602 326.773   5
  -3  -7 -11 453.892 218.588   8
   3   7  11 648.259 441.873   4
  -3  -7 -13 1322.28 426.920   5
  -3  -7 -13 912.470 312.428   8
   3   7  13 875.023 500.461   4
  -3  -8   7 836.532 327.514   1
  -3  -8   5 584.899 251.461   8
  -3  -8   5 777.893 285.029   1
   3   8  -5 930.958 378.984   3
   3   8  -3 4955.67 748.728   3
  -3  -8   3 4852.51 645.710   8
  -3  -8   3 4240.28 574.376   1
   3   8  -1 1588.99 337.521   1
  -3  -8   1 2082.76 446.672   8
  -3  -8   1 2563.13 418.572   1
  -3  -8   1 2058.42 421.081   4
   3   8  -1 1786.96 481.144   3
   3   8  -1 2164.42 357.722   6
   3   8   1 5131.11 564.110   1
  -3  -8  -1 5979.80 736.289   8
   3   8   1 7367.78 855.853   3
   3   8   1 6696.22 503.669   7
   3   8   1 5984.48 506.654   6
  -3  -8  -1 5690.72 710.134   4
   3   8   3 1502.79 323.156   1
  -3  -8  -3 2742.91 530.044   8
   3   8   3 1810.00 429.222   4
   3   8   3 1853.91 294.963   7
  -3  -8  -3 2179.91 458.202   4
  -3  -8  -3 1759.47 264.158   6
  -3  -8  -5 5913.85 752.491   8
   3   8   5 5573.42 581.726   7
   3   8   5 5303.02 621.080   1
   3   8   5 5020.57 776.505   4
  -3  -8  -5 5529.01 397.454   6
   3   8   5 5408.18 368.218   2
  -3  -8  -7 3725.83 574.898   5
   3   8   7 4774.62 777.933   4
  -3  -8  -7 3194.52 325.888   6
  -3  -8  -7 4330.57 646.957   8
  -3  -8  -9 2500.67 359.463   6
  -3  -8  -9 3127.75 602.496   5
  -3  -8  -9 2770.67 529.866   8
   3   8   9 3479.57 715.357   4
  -3  -8 -11 1067.69 366.861   5
   3   8  11 879.297 458.484   4
  -3  -8 -11 892.457 334.888   8
  -3  -8 -13 819.894 398.922   5
  -3  -8 -13 334.542 206.720   8
  -3  -9   5 326.900 223.243   8
  -3  -9   5 492.512 263.509   1
  -3  -9   3 1400.69 394.210   8
  -3  -9   3 2287.57 433.517   1
   3   9  -3 1993.62 540.893   3
  -3  -9   1 2102.06 485.885   8
   3   9  -1 1395.21 440.666   3
  -3  -9  -1 3606.19 637.363   8
   3   9   1 3257.50 372.697   7
  -3  -9  -1 3334.16 605.091   4
   3   9   1 4114.75 700.168   3
  -3  -9  -3 3673.12 651.757   8
   3   9   3 3235.46 593.807   4
   3   9   3 2750.72 387.559   7
  -3  -9  -3 3831.36 430.010   6
   3   9   3 3690.92 503.136   1
  -3  -9  -5 1134.97 386.873   8
   3   9   5 849.938 373.298   4
   3   9   5 787.318 241.817   7
  -3  -9  -5 753.771 183.801   6
  -3  -9  -7 163.827 189.337   8
   3   9   7 483.347 242.499   7
  -3  -9  -9 1896.30 496.803   5
  -3  -9  -9 1911.17 466.692   8
   3   9   9 2790.64 669.190   4
  -3  -9 -11 329.616 287.686   5
  -3  -9 -11 361.842 229.336   8
  -3  -9 -13 268.857 241.239   5
  -3  -9 -13 657.276 285.073   8
  -3 -10   3 136.925 192.408   8
  -3 -10   1 1841.78 484.076   8
   3  10  -1 2026.27 536.424   3
  -3 -10  -1 1104.13 391.137   8
   3  10   1 1686.58 507.603   3
  -3 -10  -3 2403.14 587.979   8
   3  10   3 2637.34 403.572   7
  -3 -10  -5 806.608 337.203   8
   3  10   5 472.734 346.332   4
   3  10   5 574.306 225.570   7
  -3 -10  -7 1509.88 481.487   8
   3  10   7 1993.73 601.299   4
   3  10   7 1335.07 343.673   7
  -3 -10  -9 94.1875 226.444   8
   3  10   9 562.184 386.356   4
  -3 -10 -11 206.537 243.035   5
  -3 -10 -11 215.643 193.505   8
  -3 -11   1 136.919 254.703   8
  -3 -11  -1 199.263 287.571   8
   3  11   1 388.273 301.078   3
  -3 -11  -3 347.218 301.432   8
  -3 -11  -5 1009.84 431.584   8
  -3 -11  -7 733.039 378.968   8
   3  11   7 641.338 408.183   4
   3  11   7 508.928 248.242   7
   3  11   9 956.044 370.153   7
   3  11  11 290.887 269.943   7
  -4  10  -2 259.997 208.079   3
   4  -9  -6 824.687 428.813   6
  -4   9   6 990.718 473.970   7
  -4   9   4 1219.47 425.142   7
   4  -9  -4 1156.05 450.534   6
  -4   9   2 1294.79 441.293   7
   4  -9  -2 1525.59 482.232   6
  -4   9   0 1133.96 435.828   7
   4  -9   0 1415.11 472.224   6
  -4   9  -2 1612.64 486.241   7
  -4   9  -2 2132.82 453.980   3
   4  -9   2 2650.46 627.013   6
  -4   9  -4 975.124 409.980   7
  -4   9  -4 925.130 305.184   3
   4  -8  -8 147.244 274.344   6
  -4   8   8 178.101 233.183   7
   4  -8  -6 1672.96 529.618   6
  -4   8   6 2483.98 616.390   7
   4  -8  -4 4318.65 747.337   6
  -4   8   4 3287.44 680.086   7
  -4   8   2 1113.36 416.335   7
   4  -8  -2 1339.39 465.080   6
  -4   8   0 8433.99 1015.20   7
   4  -8   0 9582.94 1071.16   6
  -4   8  -2 6639.89 720.029   3
   4  -8   2 6183.53 889.812   6
  -4   8  -2 5997.24 854.824   7
  -4   8  -4 1245.62 414.482   7
  -4   8  -4 1302.61 333.530   3
   4  -8   4 1625.56 505.698   6
  -4   8  -6 3207.64 623.790   7
  -4   8  -6 2496.77 452.083   3
   4  -8   6 3584.89 715.008   6
   4  -7 -10 438.428 304.103   2
  -4   7  10-355.071 272.059   1
   4  -7  -8 1594.26 490.067   6
  -4   7   8 1246.01 330.440   1
  -4   7   8 1601.16 454.885   7
   4  -7  -6 803.848 398.467   6
  -4   7   6 1629.18 483.639   7
  -4   7   6 1030.78 272.004   1
   4  -7  -4 3294.09 642.848   6
  -4   7   4 2496.40 539.139   7
  -4   7   4 2900.59 356.286   1
  -4   7   2 19080.0 1468.16   7
   4  -7  -2 18331.1 1470.78   6
  -4   7   0 3818.70 652.666   7
   4  -7   0 3371.16 599.530   6
  -4   7  -2 6470.03 661.350   3
  -4   7  -2 7045.81 426.178   5
  -4   7  -2 7376.13 888.528   7
   4  -7   2 7843.89 948.263   6
  -4   7  -4 6210.92 523.972   5
  -4   7  -4 5816.12 623.415   3
  -4   7  -4 6484.71 861.507   7
   4  -7   4 5673.22 828.332   6
  -4   7  -6 5528.09 568.084   5
  -4   7  -6 4061.29 531.462   3
  -4   7  -6 5042.49 766.994   7
   4  -7   6 5297.33 830.278   6
  -4   7  -8 5271.33 633.173   5
  -4   7  -8 5730.96 632.654   3
   4  -7   8 5953.32 913.177   6
  -4   7 -10 1214.34 372.440   5
   4  -6 -10 1046.78 402.823   6
   4  -6 -10 462.018 273.213   2
  -4   6  10 290.275 237.001   7
  -4   6  10 577.322 308.810   1
   4  -6  -8 774.355 369.788   6
   4  -6  -8 221.141 235.096   2
  -4   6   8 742.630 359.096   7
  -4   6   8 348.785 218.864   1
   4  -6  -6 1100.70 414.397   6
  -4   6   6 802.825 245.046   1
  -4   6   6 747.533 337.093   7
  -4   6   4 14001.2 1234.34   7
  -4   6   4 14978.9 912.679   1
   4  -6  -4 16741.8 1363.92   6
   4  -6  -2 766.682 372.831   6
  -4   6   2 365.152 160.680   3
  -4   6   2 186.661 267.941   7
  -4   6   2 346.425 119.752   1
  -4   6   0 4484.31 648.095   7
   4  -6   0 4572.82 663.471   6
  -4   6  -2 14788.3 691.516   5
  -4   6  -2 14253.2 1197.29   7
   4  -6   2 13321.4 1158.40   6
  -4   6  -4 8364.96 613.456   5
  -4   6  -4 8331.70 907.907   7
  -4   6  -4 8345.28 679.388   3
   4  -6   4 9532.22 1000.26   6
   4  -6   4 8003.97 373.414   1
  -4   6  -6 5393.83 555.112   5
  -4   6  -6 5640.81 568.190   3
  -4   6  -6 4767.10 708.598   7
   4  -6   6 5521.31 794.420   6
  -4   6  -8 10280.3 817.180   3
  -4   6  -8 9783.19 880.311   5
   4  -6   8 11863.2 1235.21   6
  -4   6 -10 1647.28 424.377   5
   4  -6  10 2599.24 594.230   4
  -4   5  12 69.2245 202.107   1
  -4   5  10 734.288 338.126   1
   4  -5 -10 325.120 267.607   2
  -4   5  10 84.5176 194.434   7
   4  -5  -8 2337.98 489.364   2
  -4   5   8 2302.12 542.047   7
  -4   5   8 2224.50 479.490   1
   4  -5  -6 2290.76 518.047   6
   4  -5  -6 1931.57 194.666   5
   4  -5  -6 1918.90 157.043   5
   4  -5  -6 1935.08 439.404   2
  -4   5   6 1527.65 330.095   1
  -4   5   6 1991.89 472.153   7
   4  -5  -4 1233.79 395.405   6
  -4   5   4 1173.30 266.883   3
  -4   5   4 701.014 301.347   7
  -4   5   4 891.873 245.887   1
  -4   5   2 19742.4 1012.49   3
  -4   5   2 20053.6 1350.81   7
  -4   5   2 17969.0 938.201   1
   4  -5  -2 20806.8 1406.69   6
  -4   5   0 10764.3 945.771   7
   4  -5   0 9666.63 920.233   6
  -4   5  -2 7249.00 466.010   5
   4  -5   2 7384.11 411.440   1
  -4   5  -2 8137.59 845.450   7
   4  -5   2 7941.48 828.741   6
  -4   5  -4 10353.1 680.781   5
  -4   5  -4 10332.5 696.299   3
  -4   5  -4 9783.95 948.320   7
   4  -5   4 9524.06 548.493   1
   4  -5   4 9349.97 946.034   6
   4  -5   6 545.493 156.079   1
  -4   5  -6 323.865 164.452   5
  -4   5  -6 842.269 330.580   7
  -4   5  -6 718.694 186.801   3
   4  -5   6 410.556 221.768   6
  -4   5  -8 4589.44 499.463   3
  -4   5  -8 4404.95 575.631   5
   4  -5   8 4500.36 725.999   6
  -4   5 -10 8913.20 751.315   3
  -4   5 -10 6817.41 822.390   5
   4  -5  10 8130.79 966.374   4
   4  -5  10 7933.78 1034.92   6
  -4   4  10 1048.42 408.300   1
   4  -4 -10 1466.17 448.006   2
  -4   4   8 2657.24 515.874   7
   4  -4  -8 1536.33 443.821   2
  -4   4   8 1902.81 450.933   1
   4  -4  -6 24.3668 259.625   2
  -4   4   6-34.7528 207.343   1
  -4   4   6 410.345 289.997   7
   4  -4  -6 216.458 255.988   4
   4  -4  -4 23371.7 1419.35   2
  -4   4   4 23057.5 1230.09   3
   4  -4  -4 22898.2 838.923   5
   4  -4  -4 20155.0 1323.35   4
  -4   4   4 22450.2 1421.10   7
   4  -4  -4 22842.6 1509.13   6
  -4   4   4 23041.9 1254.44   1
  -4   4   2 14824.7 1058.04   7
  -4   4   2 12219.3 774.148   1
   4  -4  -2 13007.6 1035.42   6
   4  -4  -2 13709.8 1012.47   4
   4  -4   0 924.873 279.988   6
  -4   4   0 1335.02 304.172   2
   4  -4   0 1360.91 207.669   1
  -4   4   0 1339.35 211.255   3
  -4   4   0 991.270 190.074   1
  -4   4   0 1109.60 312.951   7
   4  -4   0 1301.82 279.789   7
  -4   4  -2 17041.7 1068.85   2
  -4   4  -2 18766.3 821.365   5
  -4   4  -2 18163.8 1196.98   7
   4  -4   2 17717.1 1138.11   7
   4  -4   2 16617.2 1139.26   6
  -4   4  -2 16817.3 1075.59   6
   4  -4   2 17004.8 797.859   1
  -4   4  -4 5224.30 472.541   5
  -4   4  -4 5166.19 415.508   3
  -4   4  -4 5276.67 645.048   7
   4  -4   4 4463.87 399.870   1
   4  -4   4 5005.02 653.343   6
  -4   4  -6 4235.39 399.243   3
  -4   4  -6 3725.97 477.360   5
  -4   4  -6 3946.18 585.874   7
   4  -4   6 3147.99 547.593   6
  -4   4  -8 3381.21 397.963   3
  -4   4  -8 3276.61 526.392   5
   4  -4   8 3190.96 590.102   6
  -4   4 -10 4617.95 498.662   3
  -4   4 -10 4028.83 648.350   5
   4  -4  10 4194.44 707.730   6
   4  -4  10 4087.93 679.982   4
  -4   4 -12 1224.02 406.356   5
   4  -4  12 750.417 318.394   4
   4  -3 -12 698.311 358.240   2
   4  -3 -10 634.482 291.618   3
  -4   3  10 108.305 216.425   1
   4  -3 -10 681.700 358.495   2
   4  -3  -8 5592.28 724.314   2
   4  -3  -8 4109.72 585.587   4
  -4   3   8 3594.14 667.588   1
   4  -3  -8 5226.19 601.611   3
   4  -3  -6 20041.0 1333.71   2
  -4   3   6 17827.6 1289.00   1
  -4   3   6 18556.4 1252.06   7
   4  -3  -6 16376.6 1172.45   4
   4  -3  -4 2449.33 495.036   6
   4  -3  -4 1903.30 265.766   5
   4  -3  -4 1820.81 419.307   2
  -4   3   4 2457.54 372.266   3
   4  -3  -4 2162.46 391.005   4
  -4   3   4 2116.73 418.071   7
  -4   3   4 2080.48 379.039   1
  -4   3   2 20595.4 1010.08   3
   4  -3  -2 21486.6 839.646   5
  -4   3   2 21915.7 1240.37   7
   4  -3  -2 20253.6 1188.58   4
  -4   3   2 19804.4 1064.46   1
   4  -3  -2 23194.7 1326.94   6
   4  -3  -2 24450.2 1314.08   2
  -4   3   0 57328.2 1872.11   3
  -4   3   0 62424.0 2315.51   2
   4  -3   0 60882.1 1768.52   5
   4  -3   0 57868.6 1973.66   1
  -4   3   0 58719.7 2032.63   1
  -4   3   0 57491.8 2322.60   7
   4  -3   0 57685.0 2225.19   7
   4  -3   0 61082.3 2382.55   6
  -4   3  -2 77.7120 125.377   6
  -4   3  -2 36.0751 106.334   2
  -4   3  -2 99.2975 117.361   5
   4  -3   2-16.3927 73.3073   1
  -4   3  -2 96.6192 194.507   7
   4  -3   2 21.6793 140.350   7
   4  -3   2 65.6571 161.678   6
  -4   3  -4 34092.6 1388.14   5
  -4   3  -4 31462.8 1105.52   3
  -4   3  -4 33426.4 1658.33   7
   4  -3   4 29846.0 1305.43   1
   4  -3   4 31386.3 1619.04   7
   4  -3   4 32020.6 1628.91   6
  -4   3  -4 32467.8 1576.48   6
  -4   3  -6 9936.54 563.246   3
  -4   3  -6 10560.0 806.102   5
  -4   3  -6 8251.83 822.965   7
   4  -3   6 9529.96 877.336   6
  -4   3  -8 5910.64 478.377   3
  -4   3  -8 5351.72 658.077   5
   4  -3   8 5450.95 506.140   8
   4  -3   8 4809.33 686.948   6
  -4   3 -10 3413.35 414.387   3
  -4   3 -10 3579.91 606.178   5
   4  -3  10 3620.22 642.071   6
   4  -3  10 3956.10 637.755   4
  -4   3 -12 1023.03 331.191   5
  -4   3 -12 1367.74 301.711   3
   4  -3  12 1109.14 406.292   4
  -4   2  10 1422.85 479.413   1
   4  -2 -10 1098.94 351.370   3
   4  -2  -8 3234.46 442.065   8
  -4   2   8 4022.29 707.846   1
   4  -2  -8 3678.91 494.932   4
   4  -2  -8 4999.13 594.199   3
  -4   2   6 5582.35 745.400   1
   4  -2  -6 5927.86 744.705   2
  -4   2   6 6481.96 678.823   3
   4  -2  -6 5537.46 602.067   4
   4  -2  -6 6045.74 586.528   3
  -4   2   4 23825.0 1345.68   1
   4  -2  -4 23868.6 1413.56   2
  -4   2   4 24529.0 1241.33   3
   4  -2  -4 21727.6 1181.61   4
  -4   2   4 22259.5 1286.51   7
   4  -2  -4 24202.1 1121.23   3
   4  -2  -2 48515.8 2013.96   2
   4  -2  -2 46262.6 1641.57   5
  -4   2   2 47441.6 1714.79   3
  -4   2   2 48923.1 1927.06   7
   4  -2  -2 48457.7 1900.82   4
  -4   2   2 47220.3 1884.82   1
   4  -2  -2 48527.9 2054.31   6
   4  -2   0 8005.32 578.816   1
  -4   2   0 9319.08 488.718   3
   4  -2   0 9982.28 552.249   5
  -4   2   0 11263.6 790.236   2
  -4   2   0 9783.03 726.913   7
  -4   2   0 9768.57 656.574   1
   4  -2   0 9628.10 689.507   7
   4  -2   0 8754.47 712.520   6
   4  -2   0 10683.0 764.876   2
  -4   2  -2 66566.7 2378.13   2
  -4   2  -2 69492.4 1797.28   3
  -4   2  -2 66816.8 2159.56   5
   4  -2   2 67248.6 2097.38   5
  -4   2  -2 66400.6 1809.09   3
  -4   2  -2 66875.3 2479.22   7
   4  -2   2 66425.4 2415.79   7
   4  -2   2 64025.4 2216.63   1
   4  -2   2 66187.8 2453.74   6
  -4   2  -2 63179.1 2342.19   6
  -4   2  -4 34255.8 981.135   3
  -4   2  -4 36053.6 1446.58   5
  -4   2  -4 33294.6 1606.64   7
   4  -2   4 31801.8 1583.12   7
   4  -2   4 33316.8 1416.09   1
   4  -2   4 35308.7 1615.37   6
  -4   2  -4 29938.4 1494.01   6
  -4   2  -4 32712.9 1482.71   2
  -4   2  -6 11784.0 554.401   3
  -4   2  -6 11778.0 883.423   5
   4  -2   6 11977.0 753.402   8
   4  -2   6 12038.9 970.716   7
   4  -2   6 10625.2 880.124   6
  -4   2  -6 11461.0 883.684   6
  -4   2  -8 4617.77 390.974   3
   4  -2   8 4097.30 423.612   8
  -4   2  -8 4072.63 593.806   5
   4  -2   8 4118.49 594.974   6
   4  -2   8 4612.23 611.794   4
  -4   2 -10 11604.6 748.469   3
  -4   2 -10 9829.57 1015.52   5
   4  -2  10 9002.20 777.915   3
   4  -2  10 10918.1 1028.72   4
  -4   2 -12 2817.45 591.466   5
  -4   2 -12 2575.24 403.715   3
   4  -2  12 3417.62 642.624   4
   4  -1 -10 993.853 329.715   3
  -4   1  10 482.809 256.921   1
   4  -1  -8 2992.00 410.537   8
   4  -1  -8 2998.28 378.472   4
   4  -1  -8 2657.26 445.775   3
  -4   1   8 1798.95 531.209   1
   4  -1  -6 10683.5 780.469   3
  -4   1   6 12573.1 1120.12   1
   4  -1  -6 11520.0 784.332   4
  -4   1   6 10121.3 873.984   3
   4  -1  -6 11149.0 796.141   8
  -4   1   4 998.086 303.264   1
   4  -1  -4 1638.45 302.032   8
   4  -1  -4 1669.19 272.859   3
   4  -1  -4 2067.44 328.908   4
  -4   1   4 1565.39 288.761   3
  -4   1   4 1512.67 319.643   7
   4  -1  -2 23406.5 968.210   3
   4  -1  -2 21515.2 1058.39   5
   4  -1  -2 24601.4 1292.36   2
  -4   1   2 21660.1 990.025   3
   4  -1  -2 23537.0 1125.73   1
  -4   1   2 21483.9 1084.38   7
  -4   1   2 20554.2 1152.23   1
   4  -1   0 171122. 4970.28   2
   4  -1   0 168716. 4741.47   5
  -4   1   0 168151. 4500.33   3
  -4   1   0 175988. 4926.77   7
   4  -1   0 166177. 4836.50   7
  -4   1   0 168170. 4935.82   1
   4  -1   0 174782. 4956.88   6
  -4   1  -2 50589.2 1790.09   5
   4  -1   2 53732.9 1789.50   5
  -4   1  -2 52890.0 1957.05   7
   4  -1   2 49133.0 1905.99   7
   4  -1   2 48746.8 1849.25   1
   4  -1   2 51037.8 1910.34   6
  -4   1  -4 2496.05 351.353   5
   4  -1   4 2561.61 332.399   8
   4  -1   4 2963.43 402.781   7
  -4   1  -4 2372.52 369.324   7
   4  -1   4 2056.77 342.610   6
  -4   1  -6 9560.30 794.537   5
   4  -1   6 8664.59 721.421   6
   4  -1   6 9056.66 638.231   8
   4  -1   6 9996.26 849.515   7
   4  -1   6 9240.46 800.162   4
  -4   1  -6 9635.00 753.162   6
  -4   1  -6 10080.3 473.023   3
  -4   1  -8 22716.9 965.299   3
  -4   1  -8 21740.2 1393.23   5
   4  -1   8 20977.0 1017.71   3
   4  -1   8 20661.8 1031.21   8
   4  -1   8 22104.7 1368.07   4
   4  -1   8 21991.9 1330.84   6
  -4   1  -8 20018.2 1250.55   6
  -4   1 -10 11311.1 731.718   3
  -4   1 -10 7733.48 934.906   5
   4  -1  10 9063.64 588.468   8
   4  -1  10 9365.85 746.159   3
   4  -1  10 10949.6 1011.44   4
  -4   1 -12 3695.23 698.717   5
  -4   1 -12 5173.76 561.583   3
  -4   1 -14 524.153 229.541   3
   4  -1  14 277.161 297.489   4
   4   0 -10 1479.25 381.071   3
  -4   0  10 259.483 308.302   1
   4   0  -8 532.751 185.112   8
   4   0  -8 196.472 203.429   3
  -4   0   8 140.319 256.673   1
   4   0  -6 3604.49 464.616   3
  -4   0   6 3860.62 629.820   1
   4   0  -6 3821.56 449.542   8
   4   0  -6 3084.89 316.088   4
   4   0  -4 26833.8 1183.68   3
  -4   0   4 27924.9 1329.19   3
   4   0  -4 27511.5 1284.19   8
   4   0  -4 24070.3 1066.77   4
  -4   0   4 23220.7 1159.17   7
  -4   0   4 22145.1 1414.19   1
   4   0  -2 21334.2 1105.05   5
   4   0  -2 24729.4 989.640   3
  -4   0   2 22835.6 1048.11   3
   4   0  -2 22572.6 1148.97   1
   4   0  -2 23510.7 1148.90   8
  -4   0   2 21610.5 1012.85   7
  -4   0   2 21753.4 1213.95   1
   4   0   0 13661.4 564.685   3
   4   0   0 14134.7 843.735   2
   4   0   0 13356.2 767.603   5
  -4   0   0 12481.0 611.940   3
  -4   0   0 13527.5 732.099   7
   4   0   0 12179.8 673.178   7
  -4   0   0 12499.3 809.710   1
   4   0   0 12813.6 758.569   6
  -4   0  -2 39480.4 1547.97   5
   4   0   2 39764.1 1525.38   5
  -4   0  -2 43005.8 1590.73   7
   4   0   2 39187.5 1529.05   7
   4   0   2 41944.1 1545.68   6
  -4   0  -4 67136.9 2297.15   2
  -4   0  -4 71406.0 2473.25   5
   4   0   4 71184.6 2328.80   5
   4   0   4 69259.5 2357.54   8
  -4   0  -4 73301.8 2458.73   7
   4   0   4 71707.2 2501.21   7
   4   0   4 74586.9 2513.06   4
   4   0   4 68777.2 2345.41   6
  -4   0  -4 66185.1 2294.67   6
  -4   0  -6 32841.9 1569.43   5
   4   0   6 31039.7 1050.83   3
   4   0   6 31412.5 1568.80   7
   4   0   6 33288.6 1556.70   4
   4   0   6 28540.3 1378.01   6
   4   0   6 30004.8 1316.98   8
  -4   0  -8 1085.24 376.416   5
   4   0   8 874.223 195.375   8
   4   0   8 603.375 151.354   3
   4   0   8 911.509 287.558   6
   4   0   8 553.706 290.340   4
  -4   0  -8 1420.71 290.707   6
  -4   0 -10 8605.39 992.618   5
   4   0  10 8025.83 676.293   3
   4   0  10 8687.85 563.591   8
   4   0  10 9781.97 957.870   4
  -4   0 -10 10019.7 687.610   3
  -4   0 -12 4060.46 720.422   5
   4   0  12 5419.01 787.775   4
  -4   0 -12 4325.61 511.916   3
  -4   0 -14 253.438 252.446   5
   4   0  14 692.641 387.334   4
  -4  -1  10 228.052 284.449   1
   4   1 -10 1086.57 323.475   3
   4   1  -8 4440.81 580.658   3
   4   1  -8 3905.81 461.658   8
  -4  -1   6 10466.7 1078.47   1
   4   1  -6 9623.29 784.254   3
   4   1  -6 10059.0 745.067   8
   4   1  -4 1860.31 313.321   8
   4   1  -4 1854.40 153.333   4
   4   1  -4 2070.82 330.753   3
  -4  -1   4 1712.74 325.111   3
  -4  -1   4 1865.53 396.348   1
  -4  -1   2 1840.15 360.055   1
   4   1  -2 1804.00 295.050   8
   4   1  -2 1601.70 192.474   4
   4   1  -2 2051.33 275.995   3
  -4  -1   2 1673.77 222.976   7
  -4  -1   2 1889.20 287.729   3
   4   1   0 51200.6 1942.55   5
   4   1   0 51986.3 1947.34   2
   4   1   0 54199.7 1683.73   3
  -4  -1   0 52090.7 1745.35   3
  -4  -1   0 54625.7 1718.79   7
  -4  -1   0 52854.5 2042.27   1
   4   1   0 49873.7 1795.94   6
   4   1   2 66814.1 2133.69   2
  -4  -1  -2 66906.2 2346.18   5
   4   1   2 64891.6 2281.10   5
   4   1   2 67826.5 1880.61   3
  -4  -1  -2 69393.3 2155.03   7
   4   1   2 63065.2 2122.10   7
   4   1   2 68880.8 2211.08   4
   4   1   2 68134.9 2108.66   6
   4   1   4 111841. 2896.17   3
  -4  -1  -4 111331. 3574.35   5
  -4  -1  -4 106810. 3297.33   2
   4   1   4 114715. 3464.43   5
   4   1   4 116780. 3490.54   8
   4   1   4 116555. 3623.48   1
   4   1   4 116547. 3501.14   7
   4   1   4 114376. 3507.14   4
   4   1   4 112926. 3276.48   6
  -4  -1  -4 105659. 3221.25   6
  -4  -1  -6 739.050 176.209   2
  -4  -1  -6 866.884 290.776   5
   4   1   6 1196.53 240.910   5
   4   1   6 1015.57 263.691   7
   4   1   6 1062.14 142.633   3
   4   1   6 915.298 214.646   6
   4   1   6 1555.22 337.877   4
  -4  -1  -6 920.578 203.064   6
   4   1   6 1291.52 241.686   8
  -4  -1  -8 14482.3 1113.03   5
   4   1   8 12726.0 701.883   3
   4   1   8 12924.4 1020.70   7
   4   1   8 12607.5 1004.14   4
  -4  -1  -8 12704.3 861.629   6
   4   1   8 12646.0 759.517   8
   4   1  10 5360.15 519.765   3
  -4  -1 -10 3283.61 626.931   5
   4   1  10 5090.74 419.997   8
  -4  -1 -10 4170.90 553.587   6
   4   1  10 3077.17 536.821   4
  -4  -1 -12 3581.41 685.041   5
   4   1  12 3706.28 672.191   4
  -4  -1 -14 1647.86 546.502   5
   4   1  14 1945.70 559.970   4
  -4  -2  10 1069.22 456.753   1
   4   2 -10 1262.64 360.128   3
  -4  -2   8 482.107 356.773   1
   4   2  -8 1365.06 266.139   8
   4   2  -8 606.983 264.218   3
  -4  -2   6 1660.93 436.676   1
   4   2  -6 2217.82 344.280   8
   4   2  -6 2113.78 390.568   3
   4   2  -4 19811.9 1100.83   3
   4   2  -4 17991.3 1032.54   8
  -4  -2   4 18568.7 1160.84   3
  -4  -2   4 16694.6 1233.10   1
   4   2  -2 34240.6 1400.51   3
  -4  -2   2 32469.9 1413.98   8
   4   2  -2 31655.9 1424.95   8
  -4  -2   2 29934.2 1033.79   7
  -4  -2   2 31531.4 1582.80   1
   4   2   0 1718.44 305.047   5
  -4  -2   0 2316.82 334.503   8
  -4  -2   0 1850.88 169.339   7
   4   2   0 1823.10 211.974   4
   4   2   0 1414.71 238.506   3
  -4  -2   0 1286.76 289.110   1
  -4  -2  -2 61816.4 2317.36   5
   4   2   2 66128.6 2085.72   2
   4   2   2 63832.5 2293.57   5
   4   2   2 66246.9 2025.02   3
  -4  -2  -2 69599.8 2339.74   8
  -4  -2  -2 67359.6 2361.11   1
   4   2   2 64513.8 2149.85   4
   4   2   2 62946.5 1990.46   7
   4   2   2 64930.9 1933.71   6
  -4  -2  -4 16023.7 1000.43   5
  -4  -2  -4 16972.5 940.024   8
   4   2   4 19333.7 989.477   8
   4   2   4 17856.1 903.547   7
   4   2   4 16159.6 929.756   4
   4   2   4 16558.1 686.383   6
  -4  -2  -4 16224.0 683.327   6
   4   2   6 70513.4 2164.98   3
  -4  -2  -6 70221.8 2175.94   2
  -4  -2  -6 77012.3 2821.06   5
   4   2   6 75100.3 2500.52   5
   4   2   6 73608.8 2475.61   8
   4   2   6 75971.2 2645.06   7
   4   2   6 71546.7 2687.62   4
  -4  -2  -6 70511.9 2271.81   6
  -4  -2  -6 75593.2 2509.23   8
   4   2   8 3752.83 368.424   3
  -4  -2  -8 3494.44 570.580   5
  -4  -2  -8 3631.70 411.864   8
   4   2   8 3725.19 392.286   8
   4   2   8 4231.53 545.151   7
   4   2   8 3523.86 523.737   4
  -4  -2 -10 6617.62 840.092   5
   4   2  10 6789.47 603.900   3
   4   2  10 8615.43 910.381   4
  -4  -2 -10 7630.69 725.599   6
  -4  -2 -12 9723.60 1106.72   5
   4   2  12 11281.6 1165.81   4
  -4  -2 -14 267.444 299.681   5
   4   2  14-131.875 321.586   4
  -4  -3  10-134.387 341.098   1
   4   3 -10 213.342 212.491   3
  -4  -3   8 2511.62 640.207   1
   4   3  -8 2659.55 495.069   3
   4   3  -6 6126.07 674.511   3
   4   3  -6 6269.58 590.595   8
  -4  -3   6 5982.44 844.183   1
   4   3  -4 3327.94 419.585   8
  -4  -3   4 3076.94 397.031   8
  -4  -3   4 3035.95 529.939   1
   4   3  -4 3549.13 484.662   3
  -4  -3   4 3159.64 484.230   3
   4   3  -2 12481.3 824.906   3
   4   3  -2 12182.4 861.732   1
   4   3  -2 12404.0 826.194   8
  -4  -3   2 10521.1 765.489   8
  -4  -3   2 11642.5 840.079   3
  -4  -3   2 10615.2 881.865   1
   4   3   0 41836.7 1656.61   3
  -4  -3   0 42862.6 1735.07   8
   4   3   0 43059.5 1740.81   8
   4   3   0 40372.2 1454.42   4
  -4  -3   0 41855.9 1813.72   1
   4   3   2 679.755 93.4340   6
  -4  -3  -2 618.361 243.965   1
   4   3   2 788.075 124.609   7
   4   3   2 675.081 200.948   4
   4   3   2 592.905 172.540   3
  -4  -3  -2 812.925 245.901   8
  -4  -3  -4 55086.0 2180.79   5
  -4  -3  -4 55000.5 2088.64   8
   4   3   4 56154.2 2043.13   8
   4   3   4 50709.7 2033.43   4
   4   3   4 52587.8 1852.02   7
  -4  -3  -6 27992.9 1501.20   5
   4   3   6 28590.3 1322.53   5
  -4  -3  -6 27618.8 1315.61   8
   4   3   6 27101.1 1253.26   8
   4   3   6 25052.0 1266.19   7
   4   3   6 23729.2 1359.35   4
  -4  -3  -6 27285.1 1351.28   4
  -4  -3  -6 25646.9 958.026   6
   4   3   6 25324.6 1022.91   3
   4   3   8 9461.98 619.787   3
  -4  -3  -8 8525.18 400.494   2
  -4  -3  -8 9155.55 905.497   5
  -4  -3  -8 9657.87 716.902   8
   4   3   8 9108.68 644.846   8
   4   3   8 8542.23 864.468   4
  -4  -3  -8 9460.84 630.769   6
   4   3  10 12503.5 845.146   3
  -4  -3 -10 14352.1 1249.31   5
  -4  -3 -10 14893.3 897.578   8
   4   3  10 15215.5 1259.43   4
  -4  -3 -10 13436.1 930.502   6
  -4  -3 -12 1491.43 472.843   5
   4   3  12 2606.72 598.729   4
  -4  -3 -14 1370.55 490.180   5
   4   3  14 2153.21 629.576   4
  -4  -4  10 438.731 342.959   1
   4   4  -8 1005.27 346.570   3
  -4  -4   8 1121.81 457.420   1
  -4  -4   6 1384.13 227.411   7
   4   4  -6 1143.34 345.689   3
  -4  -4   6 1039.93 379.990   1
   4   4  -4 9448.36 829.870   3
  -4  -4   4 9050.98 722.064   8
   4   4  -4 9264.20 739.187   8
  -4  -4   4 9253.68 427.867   7
   4   4  -4 9032.97 782.258   6
  -4  -4   4 9522.82 920.822   1
   4   4  -2 6643.66 650.069   1
   4   4  -2 5485.90 591.375   3
  -4  -4   2 6578.49 610.693   8
   4   4  -2 6796.06 609.220   8
  -4  -4   2 6625.53 710.415   1
   4   4  -2 5533.59 516.476   6
   4   4   0 13908.7 971.934   5
   4   4   0 13104.7 885.103   3
  -4  -4   0 12538.4 882.083   8
   4   4   0 13750.8 883.115   8
   4   4   0 13054.7 697.104   4
  -4  -4   0 13054.8 933.711   1
   4   4   0 12266.7 654.696   6
   4   4   0 12925.4 912.198   1
   4   4   2 8750.66 693.687   4
  -4  -4  -2 8599.20 729.507   8
   4   4   2 8626.56 669.380   3
   4   4   2 8725.58 367.767   7
  -4  -4  -2 8138.29 551.667   4
   4   4   2 7635.82 694.457   1
   4   4   4 26583.2 854.345   2
  -4  -4  -4 27242.6 1468.85   5
   4   4   4 27579.1 1358.28   5
  -4  -4  -4 29883.8 1436.05   8
   4   4   4 28807.8 1338.32   8
   4   4   4 26497.2 1405.87   4
   4   4   4 26052.4 1088.49   7
   4   4   4 28138.9 1454.31   1
  -4  -4  -6 11270.3 938.815   5
   4   4   6 10622.7 777.404   5
   4   4   6 11161.0 868.522   1
  -4  -4  -6 11809.9 853.444   8
   4   4   6 10724.0 751.189   8
   4   4   6 10838.3 915.426   4
  -4  -4  -6 10898.7 824.435   4
   4   4   8 11486.6 719.914   3
  -4  -4  -8 12603.9 1083.69   5
  -4  -4  -8 11688.5 854.979   8
   4   4   8 11294.8 1043.09   4
  -4  -4  -8 11258.7 647.294   6
  -4  -4 -10 54.6324 149.602   8
  -4  -4 -10 18.0183 230.229   5
   4   4  10 129.267 136.799   3
   4   4  10 219.054 414.641   4
  -4  -4 -12 10706.7 1158.48   5
  -4  -4 -12 9473.58 746.453   8
  -4  -4 -14 828.204 368.791   5
   4   4  14 1474.33 553.614   4
   4   5  -8 460.782 290.391   3
  -4  -5   8 670.262 367.638   1
   4   5  -6 8164.75 861.539   3
  -4  -5   6 7356.27 667.514   8
  -4  -5   6 6698.69 879.734   1
  -4  -5   4 207.166 221.096   1
  -4  -5   4 72.5817 159.637   8
   4   5  -4 60.3155 191.017   3
   4   5  -4 82.1486 122.412   6
   4   5  -2 9017.21 824.930   3
  -4  -5   2 8692.92 751.141   8
  -4  -5   2 8295.90 810.207   1
   4   5  -2 8172.34 644.167   6
   4   5   0 6531.10 655.545   1
   4   5   0 6938.37 716.311   5
   4   5   0 7207.24 702.777   3
  -4  -5   0 7326.07 703.307   8
   4   5   0 6764.16 506.286   4
  -4  -5   0 6740.82 691.679   1
  -4  -5   0 7035.34 444.070   4
   4   5   0 7533.82 490.807   6
   4   5   2 30367.8 1533.62   5
  -4  -5  -2 33862.2 1623.06   8
   4   5   2 30105.4 1485.66   4
  -4  -5  -2 28849.9 1273.11   4
   4   5   2 30272.5 1507.82   3
   4   5   2 30614.7 1562.88   1
  -4  -5  -4 717.295 269.704   5
   4   5   4 738.063 228.018   5
  -4  -5  -4 597.547 248.285   8
   4   5   4 569.531 332.208   4
   4   5   4 559.230 237.164   1
  -4  -5  -4 909.409 248.500   4
  -4  -5  -6 21478.7 1377.19   5
  -4  -5  -6 23809.4 1338.09   8
   4   5   6 21167.7 1429.18   4
   4   5   6 21385.4 1293.80   1
  -4  -5  -6 21833.9 1277.19   4
  -4  -5  -8 101.151 259.630   5
  -4  -5  -8 173.930 182.987   8
   4   5   8 248.099 142.033   3
   4   5   8-301.953 435.433   4
  -4  -5  -8 258.148 93.6534   6
  -4  -5 -10 4611.81 742.472   5
  -4  -5 -10 5239.82 602.531   8
  -4  -5 -10 4699.09 472.459   6
   4   5  10 5307.31 841.653   4
  -4  -5 -12 1868.37 488.825   5
  -4  -5 -12 1701.03 360.632   8
   4   5  12 2387.56 621.404   4
  -4  -5 -14 1175.79 440.661   5
   4   5  14 752.319 436.882   4
  -4  -6   8 418.210 325.100   1
   4   6  -8 717.644 344.337   3
  -4  -6   6 285.828 266.353   1
  -4  -6   6 700.466 241.956   8
   4   6  -6 390.874 279.483   3
   4   6  -4 11193.2 1024.91   3
  -4  -6   4 10109.3 858.875   8
  -4  -6   4 9215.15 962.588   1
  -4  -6   2 409.952 211.068   8
  -4  -6   2 518.178 82.3693   4
   4   6  -2 298.953 168.507   6
  -4  -6   2 667.260 260.636   1
   4   6   0 9536.09 814.927   1
  -4  -6   0 10959.1 892.312   8
  -4  -6   0 10088.7 857.266   1
  -4  -6   0 9203.53 586.013   4
   4   6   0 9855.60 606.892   6
   4   6   0 11130.2 941.148   3
  -4  -6  -2 3136.67 498.592   8
   4   6   2 3419.90 490.110   1
   4   6   2 3109.35 180.113   7
   4   6   2 3670.84 504.007   4
   4   6   2 3015.36 158.239   6
   4   6   2 2589.13 458.166   3
  -4  -6  -4 13112.1 1032.38   8
   4   6   4 12967.7 1073.23   4
  -4  -6  -4 13465.2 931.229   4
   4   6   4 12920.6 991.775   1
  -4  -6  -6 7554.84 834.438   5
  -4  -6  -6 7473.32 759.615   4
  -4  -6  -6 7175.47 755.312   8
   4   6   6 8078.67 924.522   4
  -4  -6  -8 9307.72 954.497   5
  -4  -6  -8 9482.62 850.679   8
   4   6   8 10153.5 1095.60   4
  -4  -6  -8 8173.72 347.889   6
  -4  -6  -8 8355.06 350.878   6
  -4  -6 -10 463.069 291.964   5
  -4  -6 -10-46.2151 187.308   8
   4   6  10 573.129 407.658   4
  -4  -6 -12 407.244 266.444   5
  -4  -6 -12 1158.35 312.959   8
  -4  -6 -14 365.554 337.866   5
  -4  -7   8-245.214 266.366   1
  -4  -7   6 2165.43 520.240   1
  -4  -7   6 2413.08 423.422   8
   4   7  -6 3023.07 589.723   3
  -4  -7   4 1732.92 452.673   1
  -4  -7   4 2121.73 428.548   8
   4   7  -4 1586.56 437.720   3
  -4  -7   2 3860.51 577.235   8
   4   7  -2 4766.53 683.890   3
  -4  -7   2 3185.32 531.265   1
   4   7  -2 3198.64 438.401   6
  -4  -7   0 2731.22 339.769   4
  -4  -7   0 3444.14 511.711   1
   4   7   0 3663.46 378.614   6
   4   7   0 4659.25 659.811   3
  -4  -7   0 3121.51 531.811   8
   4   7   2 4378.01 625.878   3
  -4  -7  -2 3949.23 468.076   4
   4   7   2 4030.52 253.514   7
   4   7   2 4251.60 551.366   4
   4   7   2 4195.71 255.502   6
  -4  -7  -2 4044.92 587.521   8
  -4  -7  -4 7241.29 804.050   8
   4   7   4 8262.77 862.894   4
  -4  -7  -4 6820.44 683.701   4
   4   7   4 6518.84 490.417   7
  -4  -7  -6 6801.04 811.698   5
  -4  -7  -6 8124.90 861.565   8
   4   7   6 8433.95 972.345   4
  -4  -7  -8 4924.42 743.717   5
  -4  -7  -8 4529.39 639.167   8
   4   7   8 5710.83 846.227   4
  -4  -7 -10 161.056 208.874   5
  -4  -7 -10 1277.06 348.830   8
   4   7  10 767.324 448.554   4
  -4  -7 -12 1596.83 487.841   5
  -4  -7 -12 1027.09 321.123   8
   4   7  12 1452.46 578.348   4
  -4  -7 -14 336.251 262.318   5
  -4  -8   6 57.4551 158.303   1
  -4  -8   4 1809.36 409.703   8
   4   8  -4 1743.47 486.294   3
  -4  -8   4 1666.80 452.007   1
  -4  -8   2 3924.71 605.050   8
  -4  -8   2 3479.78 556.625   1
   4   8  -2 3765.88 677.650   3
  -4  -8   0 1286.55 342.210   1
  -4  -8   0 771.946 321.756   8
   4   8   0 618.799 305.054   3
   4   8   2 6897.52 724.687   4
  -4  -8  -2 6575.34 809.761   8
   4   8   2 5406.50 744.880   3
  -4  -8  -2 5568.66 629.468   4
   4   8   2 5430.78 345.603   7
   4   8   4 1555.19 434.789   4
  -4  -8  -4 1099.02 372.363   8
   4   8   4 1146.44 226.022   7
  -4  -8  -6 3574.56 613.542   8
   4   8   6 2964.87 649.146   4
  -4  -8  -8 2614.68 566.827   5
  -4  -8  -8 2268.48 495.261   8
   4   8   8 1969.76 552.640   4
  -4  -8 -10 1640.53 512.170   5
  -4  -8 -10 1992.94 470.095   8
   4   8  10 1937.17 623.994   4
  -4  -8 -12 825.037 391.901   5
  -4  -8 -12 901.101 343.981   8
   4   8  12 775.097 461.633   4
  -4  -9   6 351.989 253.783   1
  -4  -9   4 382.331 236.401   8
  -4  -9   4 578.484 269.600   1
  -4  -9   2 969.299 352.522   8
  -4  -9   2 762.215 290.223   1
   4   9  -2 581.178 324.182   3
  -4  -9   0 3303.88 611.204   8
   4   9   0 2647.14 593.141   3
  -4  -9  -2 948.366 356.001   8
   4   9   2 686.462 296.628   3
  -4  -9  -4 1271.84 436.327   8
   4   9   4 2034.94 501.410   4
   4   9   4 1552.75 272.296   7
  -4  -9  -6 1266.62 413.732   8
   4   9   6 833.395 403.968   4
   4   9   6 766.669 238.380   7
  -4  -9  -8 1681.75 460.244   8
   4   9   8 1371.18 497.546   4
  -4  -9 -10 392.523 285.003   5
  -4  -9 -10 58.0627 167.085   8
   4   9  10 602.988 383.170   4
  -4  -9 -12 578.442 357.402   5
  -4  -9 -12 76.4725 229.184   8
  -4 -10   4 494.950 269.987   8
  -4 -10   2 1190.38 374.203   8
  -4 -10   0 1034.32 408.611   8
   4  10   0 312.601 264.783   3
  -4 -10  -2 1393.88 456.315   8
   4  10   2 988.319 418.557   3
  -4 -10  -4 1664.03 504.749   8
   4  10   4 1325.20 409.862   4
  -4 -10  -6 1552.48 503.597   8
   4  10   6 439.563 384.547   4
  -4 -10  -8 331.991 283.734   8
   4  10   8 1006.07 440.712   4
   4  10   8 830.477 301.310   7
  -4 -10 -10 536.048 276.483   8
   4  10  10 472.388 382.811   4
  -4 -10 -12 13.4788 245.219   5
   4  11   6 15.4008 291.739   4
   4  11   8 1461.11 557.025   4
   5  -8  -5 1027.69 458.324   6
  -5   8   5 601.807 386.311   7
  -5   8   3 980.446 423.116   7
   5  -8  -3 999.662 454.578   6
  -5   8   1 2497.83 586.357   7
   5  -8  -1 2616.55 622.580   6
  -5   8  -1 822.147 385.933   7
   5  -8   1 687.648 335.288   6
  -5   8  -3 1477.89 450.034   7
   5  -8   3 1238.27 427.382   6
   5  -7  -7 139.379 278.124   6
  -5   7   7 846.871 387.327   7
   5  -7  -5 3528.03 723.309   6
  -5   7   5 3221.64 661.717   7
   5  -7  -3 5446.45 855.873   6
  -5   7   3 4798.33 815.334   7
  -5   7   1 185.017 206.531   7
   5  -7  -1-250.563 299.289   6
  -5   7  -1 8727.72 1018.10   7
   5  -7   1 7284.48 946.878   6
  -5   7  -3 4158.47 497.791   3
  -5   7  -3 3133.74 617.659   7
   5  -7   3 3957.51 717.547   6
  -5   7  -5 1469.23 458.218   7
   5  -7   5 1070.07 390.248   6
  -5   6   9 223.258 163.755   1
   5  -6  -9 452.294 295.192   2
  -5   6   9 429.513 285.969   7
   5  -6  -7 1668.78 531.411   6
   5  -6  -7 804.361 363.432   2
  -5   6   7 611.891 342.145   7
  -5   6   7 947.978 312.352   1
   5  -6  -5 1200.14 417.325   6
  -5   6   5 996.616 294.748   1
  -5   6   5 656.153 311.453   7
   5  -6  -3 2868.09 633.343   6
  -5   6   3 2663.00 411.618   3
  -5   6   3 1793.57 471.921   7
  -5   6   3 2072.68 341.208   1
  -5   6   1 14113.5 889.659   3
  -5   6   1 13845.3 1237.98   7
   5  -6  -1 16850.2 1371.72   6
  -5   6  -1 3837.72 653.341   7
  -5   6  -1 3047.08 363.168   3
   5  -6   1 3506.94 627.078   6
  -5   6  -3 5748.05 466.577   5
  -5   6  -3 6384.21 557.320   3
  -5   6  -3 6470.59 833.481   7
   5  -6   3 6714.02 870.974   6
  -5   6  -5 6573.71 598.063   5
  -5   6  -5 6722.77 573.908   3
  -5   6  -5 7595.77 920.326   7
   5  -6   5 5988.20 867.092   6
  -5   6  -7 3120.94 477.585   5
  -5   6  -7 2073.41 534.660   7
   5  -6   7 3143.44 633.456   6
  -5   6  -9 3598.72 584.459   5
  -5   5   9 345.325 222.276   1
   5  -5  -9 131.029 246.125   2
  -5   5   9 482.083 312.617   7
   5  -5  -7 132.693 257.290   6
   5  -5  -7-124.458 276.060   2
  -5   5   7 274.145 232.496   7
  -5   5   7 23.9174 180.886   1
   5  -5  -5 1891.50 507.548   6
   5  -5  -5 1361.76 403.028   2
  -5   5   5 1152.02 310.871   1
  -5   5   5 642.281 315.363   7
  -5   5   3 8949.34 746.338   3
  -5   5   3 10257.0 1013.31   7
  -5   5   3 8891.35 729.900   1
   5  -5  -3 9195.77 1028.62   6
   5  -5  -1 1724.58 441.721   6
  -5   5   1 1668.30 276.059   1
  -5   5   1 1244.03 376.301   7
   5  -5   1 5473.77 433.854   1
  -5   5  -1 5142.99 701.434   7
   5  -5   1 6178.13 775.459   6
  -5   5  -1 5789.40 459.793   3
   5  -5   3 15079.4 789.769   1
  -5   5  -3 16025.6 847.259   5
  -5   5  -3 17788.8 867.576   3
  -5   5  -3 16187.1 1285.13   7
  -5   5  -5 2590.96 304.373   3
  -5   5  -5 3138.50 416.436   5
  -5   5  -5 3207.32 597.190   7
   5  -5   5 2891.80 572.815   6
  -5   5  -7 6687.35 719.838   5
  -5   5  -7 7605.25 565.923   3
  -5   5  -7 8415.85 949.274   7
   5  -5   7 7363.83 911.281   6
  -5   5  -9 4201.32 639.411   5
   5  -5   9 5140.07 817.076   6
  -5   5 -11 1230.17 417.449   5
  -5   4  11 110.568 171.551   7
  -5   4   9 31.2283 227.173   1
   5  -4  -9 572.768 328.712   2
  -5   4   9-65.8685 223.307   7
  -5   4   7 1409.28 408.523   1
   5  -4  -7 2629.83 610.219   6
   5  -4  -7 2132.19 519.581   2
  -5   4   7 1281.28 411.793   7
   5  -4  -5 993.586 336.823   6
   5  -4  -5 1429.20 433.645   2
  -5   4   5 937.794 292.311   1
  -5   4   5 1006.82 333.624   7
   5  -4  -3 1963.71 487.650   6
   5  -4  -3 1436.73 363.818   2
  -5   4   3 1570.78 339.628   1
   5  -4  -3 1560.23 176.713   5
  -5   4   3 1680.81 320.625   3
  -5   4   3 1808.39 428.758   7
  -5   4   1 8812.02 872.276   7
  -5   4   1 9491.51 709.400   1
   5  -4  -1 9865.60 956.379   6
  -5   4  -1 3726.92 336.767   3
  -5   4  -1 3242.71 307.453   5
   5  -4   1 3561.12 380.435   1
  -5   4  -1 2995.71 510.069   7
   5  -4   1 2992.16 530.337   6
  -5   4  -3 1943.82 281.848   5
  -5   4  -3 2334.59 241.027   3
   5  -4   3 1459.71 244.075   1
  -5   4  -3 1715.71 417.907   7
   5  -4   3 1576.27 409.511   6
  -5   4  -5 19783.9 1110.40   5
  -5   4  -5 19822.8 819.389   3
  -5   4  -5 19868.5 1401.92   7
   5  -4   5 19068.8 1388.13   6
  -5   4  -7 4428.67 382.535   3
  -5   4  -7 4446.19 580.748   5
  -5   4  -7 4969.41 708.078   7
   5  -4   7 4211.23 505.533   1
   5  -4   7 3858.65 637.919   6
  -5   4  -9 3542.98 591.064   5
   5  -4   9 3181.28 626.969   6
   5  -4   9 3581.81 658.879   4
  -5   4 -11 707.050 297.808   5
   5  -4  11 1530.28 504.415   6
   5  -4  11 911.749 370.021   4
  -5   3  11-40.5850 155.871   7
  -5   3   9 796.372 325.554   1
   5  -3  -9 211.641 281.211   2
  -5   3   9 504.272 253.217   7
  -5   3   7 1421.12 439.851   1
   5  -3  -7 1875.84 485.752   2
  -5   3   7 1852.51 449.103   7
   5  -3  -5 3050.59 593.305   6
   5  -3  -5 3456.82 428.594   5
   5  -3  -5 4078.72 646.007   2
  -5   3   5 3074.86 480.151   3
   5  -3  -5 2952.92 487.211   4
  -5   3   5 3681.47 597.234   7
  -5   3   5 3445.84 544.805   1
   5  -3  -3 6122.66 715.995   2
   5  -3  -3 4712.46 418.610   5
  -5   3   3 5920.32 573.070   3
   5  -3  -3 4518.52 571.455   4
  -5   3   3 5475.31 662.922   7
  -5   3   3 5305.45 618.212   1
   5  -3  -3 5004.30 686.161   6
   5  -3  -1 3276.05 524.777   6
  -5   3   1 2824.39 327.693   3
   5  -3  -1 2768.38 290.357   5
   5  -3  -1 2878.99 372.502   1
  -5   3   1 2232.13 417.848   7
  -5   3   1 2784.11 413.709   1
  -5   3  -1 3816.87 364.681   5
  -5   3  -1 3781.74 293.701   3
   5  -3   1 3814.78 497.919   7
  -5   3  -1 3676.60 525.502   7
   5  -3   1 3426.66 517.741   6
  -5   3  -3 17750.4 568.016   3
  -5   3  -3 17650.0 930.826   5
  -5   3  -3 17402.0 567.472   3
  -5   3  -3 16081.7 1153.83   7
   5  -3   3 17462.8 1184.20   6
  -5   3  -3 15859.2 1073.78   6
  -5   3  -5 5983.57 275.941   3
  -5   3  -5 5504.83 569.852   5
  -5   3  -5 5140.77 663.619   7
   5  -3   5 6304.36 583.975   1
   5  -3   5 5259.03 692.320   6
  -5   3  -7 6882.97 420.518   3
  -5   3  -7 7681.19 756.881   5
   5  -3   7 6891.19 646.247   8
   5  -3   7 6857.81 660.547   1
   5  -3   7 6256.34 764.364   6
  -5   3  -9 4750.64 425.214   3
  -5   3  -9 4047.49 647.685   5
   5  -3   9 3467.69 642.855   6
   5  -3   9 3947.73 649.541   4
  -5   3 -11 1796.35 494.868   5
   5  -3  11 2407.90 568.271   6
   5  -3  11 2846.09 594.001   4
  -5   2   9 722.943 345.314   1
   5  -2  -9 859.209 302.538   3
  -5   2   9 566.667 276.744   7
   5  -2  -9 599.928 299.495   2
  -5   2   7 3273.42 626.864   1
   5  -2  -7 3352.93 633.881   2
   5  -2  -7 2803.85 448.011   3
  -5   2   7 2741.21 504.332   7
   5  -2  -5 1430.70 303.776   5
   5  -2  -5 1918.30 512.598   2
   5  -2  -5 1792.39 328.105   3
  -5   2   5 1955.65 373.952   3
  -5   2   5 2468.57 448.542   7
   5  -2  -5 1645.42 350.394   4
  -5   2   5 2477.04 493.081   1
   5  -2  -3 7121.01 772.176   2
   5  -2  -3 6407.84 562.250   5
  -5   2   3 6338.89 577.935   3
   5  -2  -3 5568.02 590.193   4
  -5   2   3 6725.35 680.461   7
  -5   2   3 6503.90 692.176   1
   5  -2  -3 7380.39 798.607   6
   5  -2  -1 36885.8 1759.79   2
   5  -2  -1 34253.7 1405.84   5
  -5   2   1 35197.1 1355.01   3
   5  -2  -1 35922.0 1551.68   1
  -5   2   1 35543.8 1675.80   7
  -5   2   1 34573.1 1612.44   1
   5  -2  -1 34955.7 1765.70   6
  -5   2  -1 11395.4 692.265   5
  -5   2  -1 12224.3 911.951   2
   5  -2   1 12978.6 725.767   5
  -5   2  -1 12527.3 508.843   3
  -5   2  -1 11367.6 800.213   1
  -5   2  -1 10404.4 849.728   7
   5  -2   1 12323.4 863.199   7
   5  -2   1 11687.2 901.076   6
   5  -2   1 11879.6 791.874   1
  -5   2  -3 289.059 163.234   6
   5  -2   3 273.218 141.260   1
  -5   2  -3 111.922 138.088   5
  -5   2  -3 241.718 173.417   2
  -5   2  -3 384.673 200.933   7
   5  -2   3 547.113 212.541   7
   5  -2   3 274.322 188.539   6
  -5   2  -5 5928.49 612.980   2
  -5   2  -5 5839.35 607.798   5
   5  -2   5 7854.19 661.285   8
  -5   2  -5 6216.34 684.884   7
   5  -2   5 6914.69 630.688   1
   5  -2   5 6431.86 686.829   6
  -5   2  -5 5206.25 593.601   6
  -5   2  -7 13030.4 1010.29   5
   5  -2   7 10827.5 806.227   8
   5  -2   7 11909.6 895.296   1
   5  -2   7 11711.5 986.323   6
  -5   2  -7 11955.6 516.304   3
  -5   2  -9 11983.6 1119.58   5
   5  -2   9 13248.3 887.215   8
   5  -2   9 13461.8 1173.41   4
   5  -2   9 13447.3 1167.65   6
  -5   2  -9 14704.2 772.111   3
  -5   2 -11 1426.88 480.259   5
   5  -2  11 1076.36 405.263   4
  -5   1   9 307.823 307.365   1
   5  -1  -9 800.673 320.587   3
  -5   1   7 486.633 325.991   1
   5  -1  -7 1029.16 309.366   3
  -5   1   7 1142.92 323.994   7
   5  -1  -5 10842.1 788.122   3
   5  -1  -5 13341.4 1121.24   2
  -5   1   5 10729.9 889.505   3
   5  -1  -5 11334.1 810.047   4
  -5   1   5 10830.5 894.106   7
  -5   1   5 10777.3 1049.73   1
   5  -1  -3 16526.9 866.018   3
   5  -1  -3 14947.9 979.265   5
   5  -1  -3 16858.7 1180.74   2
  -5   1   3 14501.3 898.479   3
   5  -1  -3 13576.9 972.143   8
   5  -1  -3 12704.0 846.810   4
  -5   1   3 14596.3 957.424   7
  -5   1   3 13150.3 1044.06   1
   5  -1  -1 5630.05 622.134   2
   5  -1  -1 5513.49 516.845   5
   5  -1  -1 5405.97 551.546   1
  -5   1   1 5581.10 441.796   3
   5  -1  -1 6156.39 605.763   8
  -5   1   1 5559.82 546.324   7
  -5   1   1 5546.27 597.531   1
   5  -1  -1 5213.76 587.757   6
   5  -1  -1 6078.01 414.356   3
   5  -1   1 13331.8 793.725   5
   5  -1   1 14925.4 953.776   8
  -5   1  -1 14157.2 541.364   3
  -5   1  -1 13318.2 911.735   1
  -5   1  -1 14137.5 915.881   7
   5  -1   1 14025.2 876.748   7
   5  -1   1 14456.0 936.925   6
   5  -1   1 13620.7 886.399   1
   5  -1   1 15205.9 950.859   2
  -5   1  -3 19993.3 1070.96   5
  -5   1  -3 22505.2 1206.80   2
   5  -1   3 22422.9 1070.44   5
   5  -1   3 22678.3 1189.84   8
  -5   1  -3 21925.8 1218.11   7
   5  -1   3 19990.1 1157.22   7
   5  -1   3 19940.8 1135.05   1
   5  -1   3 20753.2 1154.34   6
  -5   1  -3 22316.1 1142.92   6
  -5   1  -5 5041.98 542.859   2
  -5   1  -5 5426.57 572.044   5
   5  -1   5 4464.14 492.544   8
  -5   1  -5 5152.87 587.683   7
   5  -1   5 5237.99 606.935   7
   5  -1   5 5418.99 583.520   1
   5  -1   5 5619.94 597.793   6
  -5   1  -5 4833.22 526.482   6
  -5   1  -7 11795.9 978.643   5
   5  -1   7 11856.2 817.854   8
   5  -1   7 12081.1 990.593   4
   5  -1   7 11375.9 909.547   6
  -5   1  -7 10832.4 878.014   6
   5  -1   7 11515.5 888.929   1
  -5   1  -7 10756.4 840.077   2
  -5   1  -9 5281.24 734.082   5
   5  -1   9 4123.80 478.983   8
   5  -1   9 5245.52 728.142   4
   5  -1   9 3564.98 571.085   6
  -5   1 -11 5693.96 882.974   5
   5  -1  11 4883.12 757.897   4
  -5   1 -13 300.278 282.086   5
   5  -1  13 1696.86 524.598   4
  -5   0   9 132.892 278.100   1
   5   0  -9 273.989 203.736   3
   5   0  -7 4359.40 536.736   3
  -5   0   7 3367.78 481.331   7
  -5   0   7 3648.12 735.572   1
   5   0  -5 970.222 260.940   3
   5   0  -5 353.562 169.684   8
  -5   0   5 1322.72 293.348   7
  -5   0   5 1241.31 399.949   1
   5   0  -5 887.307 211.769   4
  -5   0   5 1119.99 297.568   3
   5   0  -3 3877.41 397.031   3
   5   0  -3 4383.57 527.604   5
   5   0  -3 3829.31 484.976   8
  -5   0   3 4044.60 473.084   3
   5   0  -3 2928.50 349.934   4
  -5   0   3 3920.55 568.427   1
  -5   0   3 3750.07 440.048   7
   5   0  -1 30251.2 1104.26   3
   5   0  -1 26592.6 1362.11   5
   5   0  -1 30418.3 1525.70   2
   5   0  -1 27659.2 1395.60   1
  -5   0   1 27246.3 1185.04   3
   5   0  -1 28310.4 1415.55   8
  -5   0   1 26435.9 1244.32   7
  -5   0   1 27526.0 1474.33   1
   5   0  -1 27348.6 1398.18   6
   5   0   1 36772.1 1593.37   2
   5   0   1 37091.1 1582.21   5
   5   0   1 36826.4 1654.33   8
  -5   0  -1 34459.7 1653.12   1
  -5   0  -1 37972.7 1563.06   7
   5   0   1 35617.8 1492.67   7
   5   0   1 38250.8 1596.72   6
   5   0   1 37334.6 1673.77   1
   5   0   1 39419.3 1156.81   3
  -5   0  -3 10585.8 752.555   5
   5   0   3 9913.98 699.510   5
   5   0   3 10258.4 754.189   8
  -5   0  -3 9210.87 723.447   7
   5   0   3 9264.10 705.652   7
   5   0   3 10946.1 810.274   1
   5   0   3 9454.56 685.177   6
  -5   0  -5 13178.6 936.811   5
   5   0   5 13309.0 831.550   5
   5   0   5 14487.8 911.537   8
   5   0   5 14144.7 982.393   1
   5   0   5 15055.2 1006.38   7
   5   0   5 13661.1 964.302   4
   5   0   5 14841.4 915.509   6
  -5   0  -7 223.452 142.155   6
  -5   0  -7 287.499 182.493   2
  -5   0  -7 320.131 233.220   5
   5   0   7 91.3493 113.701   8
   5   0   7 212.439 185.041   6
   5   0   7 223.611 224.659   4
  -5   0  -9 12899.0 1165.19   5
   5   0   9 11634.0 669.369   3
   5   0   9 11979.0 819.132   8
   5   0   9 13696.8 1141.03   4
   5   0   9 10261.3 895.047   6
  -5   0  -9 11146.8 922.374   6
  -5   0 -11 1965.25 563.745   5
   5   0  11 4525.53 720.699   4
  -5   0 -13 1469.55 526.337   5
   5   0  13 449.829 313.333   4
  -5  -1   9 234.313 303.957   1
   5   1  -9 781.870 286.247   3
   5   1  -7 524.441 247.482   3
  -5  -1   7-38.0754 242.241   1
   5   1  -5 7358.81 663.601   3
   5   1  -5 6928.98 687.596   8
  -5  -1   5 6979.86 607.148   7
  -5  -1   5 6935.28 887.091   1
   5   1  -3 13179.3 968.519   5
   5   1  -3 13597.3 819.922   3
  -5  -1   3 12599.2 884.216   3
   5   1  -3 15175.8 993.081   8
   5   1  -3 12448.7 622.248   4
  -5  -1   3 12948.6 758.664   7
  -5  -1   3 11654.2 1044.79   1
   5   1  -1 5909.23 609.686   5
   5   1  -1 7355.00 502.242   3
   5   1  -1 6105.40 623.391   1
   5   1  -1 7658.76 730.143   2
   5   1  -1 7047.14 648.452   8
  -5  -1   1 5979.20 518.431   3
  -5  -1   1 6572.77 490.773   7
  -5  -1   1 6085.10 658.606   1
   5   1   1 13364.3 842.685   2
   5   1   1 12481.7 852.205   5
   5   1   1 13419.3 588.317   3
   5   1   1 13310.8 895.795   8
  -5  -1  -1 12951.0 728.837   7
  -5  -1  -1 11683.0 878.096   1
   5   1   1 12070.0 693.483   7
   5   1   1 12508.1 733.900   4
   5   1   1 12980.2 768.859   6
   5   1   1 13146.3 920.556   1
  -5  -1  -3 43566.4 1833.66   5
   5   1   3 40091.3 1715.22   5
   5   1   3 43290.6 1811.44   8
  -5  -1  -3 44244.0 1669.17   7
   5   1   3 39689.5 1628.25   7
   5   1   3 42259.4 1716.51   4
   5   1   3 41965.5 1869.97   1
   5   1   3 41816.1 1582.06   6
  -5  -1  -5 5428.81 610.177   5
  -5  -1  -5 4978.31 483.665   2
   5   1   5 6190.75 565.237   5
   5   1   5 6203.20 587.281   8
   5   1   5 5237.58 554.345   7
   5   1   5 6256.88 651.726   1
   5   1   5 5270.49 580.718   4
   5   1   5 5714.60 498.398   6
  -5  -1  -5 5315.94 463.430   6
  -5  -1  -7 6448.03 552.800   2
  -5  -1  -7 6386.14 732.442   5
   5   1   7 6371.68 353.456   3
   5   1   7 6521.13 598.877   8
   5   1   7 6884.72 711.443   7
   5   1   7 7244.42 747.988   4
   5   1   7 6534.90 585.816   6
   5   1   9 3992.29 377.282   3
  -5  -1  -9 5151.24 739.841   5
   5   1   9 4858.39 509.375   8
   5   1   9 5205.36 713.679   4
  -5  -1  -9 3859.51 500.585   6
  -5  -1 -11 2524.78 618.966   5
   5   1  11 2886.26 604.977   4
  -5  -1 -13 1065.90 505.151   5
   5   1  13 1346.32 470.559   4
   5   2  -9 67.8181 185.569   3
  -5  -2   9 193.442 310.639   1
   5   2  -7 3530.94 529.502   3
  -5  -2   7 2987.13 680.327   1
   5   2  -5 773.746 249.063   8
  -5  -2   5 1193.06 392.880   1
   5   2  -5 1046.07 282.441   3
  -5  -2   5 1265.16 246.137   7
  -5  -2   3 3331.96 565.434   1
   5   2  -3 4354.27 524.119   8
  -5  -2   3 4255.74 526.719   3
  -5  -2   3 3551.08 329.095   7
   5   2  -3 3160.48 421.635   3
   5   2  -1 32051.5 1641.73   5
   5   2  -1 31972.9 1616.97   1
   5   2  -1 33100.6 1378.84   3
   5   2  -1 35493.6 1630.71   8
  -5  -2   1 32592.4 1130.63   7
   5   2  -1 33347.5 1173.98   4
  -5  -2   1 30213.8 1646.79   1
   5   2   1 9662.38 772.457   5
   5   2   1 9467.64 708.142   2
   5   2   1 9511.31 569.018   3
   5   2   1 9413.92 760.104   8
  -5  -2  -1 9695.60 517.933   7
  -5  -2  -1 8705.23 769.119   1
   5   2   1 8739.80 588.364   4
   5   2   1 8290.92 484.112   7
   5   2   1 9170.79 581.128   6
   5   2   1 8513.17 758.312   1
  -5  -2  -3 17531.4 1093.11   5
   5   2   3 16021.2 997.085   5
   5   2   3 16162.9 705.464   3
  -5  -2  -3 15627.4 988.601   8
   5   2   3 17033.3 1030.07   8
   5   2   3 14969.9 912.675   4
   5   2   3 15824.8 836.421   7
   5   2   3 15563.9 1063.47   1
   5   2   3 16096.7 746.667   6
   5   2   3 16214.0 809.576   2
  -5  -2  -5 20430.7 1249.31   5
   5   2   5 19813.8 1120.50   5
   5   2   5 21889.4 1192.67   8
   5   2   5 20094.2 1111.92   7
   5   2   5 20975.5 1198.56   4
   5   2   5 21956.6 1304.06   1
   5   2   5 19193.0 892.541   6
  -5  -2  -5 19590.1 883.948   6
   5   2   5 20342.3 738.103   3
   5   2   7 9710.82 514.755   3
  -5  -2  -7 10181.6 946.079   5
  -5  -2  -7 9466.84 615.162   2
   5   2   7 10382.8 779.224   8
   5   2   7 10984.7 874.184   7
   5   2   7 10640.9 911.063   4
  -5  -2  -7 9181.39 642.688   6
  -5  -2  -9 3059.26 360.573   2
   5   2   9 3371.77 351.769   3
  -5  -2  -9 3619.22 646.324   5
   5   2   9 3196.97 418.263   8
  -5  -2  -9 3408.34 429.155   6
   5   2   9 2952.56 559.041   4
  -5  -2 -11 6095.65 906.588   5
   5   2  11 6743.26 890.213   4
  -5  -2 -13-43.4813 212.310   5
   5   2  13 12.3732 295.344   4
   5   3  -9 544.994 287.348   3
  -5  -3   9 51.9055 236.894   1
   5   3  -7 392.054 220.272   3
  -5  -3   7 417.098 310.203   1
  -5  -3   5 1380.26 417.280   1
   5   3  -5 1260.65 327.484   3
  -5  -3   5 1370.26 215.229   7
   5   3  -3 14808.2 977.010   3
  -5  -3   3 14874.0 1055.78   3
  -5  -3   3 12334.0 460.299   7
  -5  -3   3 13792.6 1143.38   1
  -5  -3   1 1714.33 368.979   8
   5   3  -1 1301.58 296.883   8
   5   3  -1 1597.12 301.241   3
   5   3  -1 1599.57 211.702   4
  -5  -3   1 859.978 311.914   1
   5   3   1 30081.6 1544.05   5
   5   3   1 29022.6 1306.79   3
  -5  -3  -1 30980.8 1516.50   8
   5   3   1 30691.9 1524.31   8
   5   3   1 30270.1 1279.78   4
  -5  -3  -1 31886.5 1597.21   1
   5   3   1 28529.1 1118.74   6
   5   3   1 30658.9 1583.23   1
   5   3   3 7397.38 502.728   2
  -5  -3  -3 6562.10 677.742   5
   5   3   3 7270.05 675.305   5
  -5  -3  -3 7465.71 697.289   8
   5   3   3 7288.40 535.809   3
   5   3   3 7079.30 660.456   8
   5   3   3 5963.91 570.709   4
   5   3   3 7486.92 493.644   7
   5   3   3 6396.07 682.966   1
   5   3   3 7890.71 390.409   6
  -5  -3  -5 34442.6 1727.49   5
   5   3   5 31609.3 1527.59   5
  -5  -3  -5 33435.7 1608.92   8
   5   3   5 33890.7 1586.40   8
   5   3   5 29222.2 1541.93   4
   5   3   5 32618.0 1443.19   7
   5   3   7 2582.16 275.831   3
  -5  -3  -7 3474.02 572.554   5
  -5  -3  -7 2289.87 394.485   8
   5   3   7 2356.25 374.058   8
   5   3   7 2691.52 415.423   7
   5   3   7 1983.59 443.153   4
  -5  -3  -7 2585.46 280.697   6
   5   3   9 7592.62 556.364   3
  -5  -3  -9 7058.54 876.541   5
  -5  -3  -9 8449.19 735.506   8
   5   3   9 7257.64 644.693   8
   5   3   9 7380.88 859.659   4
  -5  -3  -9 7096.26 585.851   6
  -5  -3 -11 2596.59 605.926   5
   5   3  11 2828.60 634.404   4
  -5  -3 -13 3924.06 800.177   5
   5   3  13 2985.82 710.286   4
  -5  -4   7 1829.42 586.378   1
   5   4  -7 1577.40 412.470   3
  -5  -4   5 1860.37 494.340   1
   5   4  -5 1996.77 421.072   3
  -5  -4   3 172.763 209.213   1
  -5  -4   3 413.505 230.528   8
   5   4  -3 450.562 259.734   3
   5   4  -1 30248.8 1514.00   3
  -5  -4   1 31022.7 1554.37   8
   5   4  -1 28113.6 895.765   4
  -5  -4   1 28598.2 1656.40   1
   5   4   1 4744.25 531.044   3
  -5  -4  -1 4691.55 579.811   8
  -5  -4  -1 4487.14 589.081   1
   5   4   1 5321.94 522.860   4
   5   4   3 17692.6 863.300   2
  -5  -4  -3 19216.1 1190.59   8
   5   4   3 18922.2 1050.33   3
   5   4   3 17183.5 1080.70   4
   5   4   3 19005.1 780.752   7
  -5  -4  -5 4233.78 616.651   5
  -5  -4  -5 3654.14 516.192   8
   5   4   5 4655.94 451.476   7
   5   4   5 3975.31 577.039   4
  -5  -4  -7 9697.19 940.934   5
  -5  -4  -7 8341.10 770.763   8
   5   4   7 8046.17 850.456   4
   5   4   7 7982.27 704.922   7
   5   4   7 7386.87 522.370   3
  -5  -4  -9 3070.28 593.759   5
  -5  -4  -9 1903.59 388.062   8
   5   4   9 1642.84 276.046   3
   5   4   9 1886.18 482.571   4
  -5  -4  -9 2356.34 293.108   6
  -5  -4 -11 7068.18 974.326   5
  -5  -4 -11 6608.64 667.267   8
   5   4  11 6972.60 953.704   4
  -5  -4 -13 1287.60 515.482   5
   5   4  13 948.589 463.471   4
  -5  -5   7 880.709 437.339   1
   5   5  -7 651.479 315.358   3
  -5  -5   5 783.143 346.548   1
  -5  -5   5 353.594 213.018   8
   5   5  -5 633.711 288.584   3
  -5  -5   3 4587.31 675.241   1
  -5  -5   3 4505.04 579.895   8
   5   5  -3 4452.28 603.687   3
   5   5  -3 4484.52 553.483   6
  -5  -5   1 221.292 226.505   8
   5   5  -1 266.835 211.445   3
  -5  -5   1 105.509 239.152   1
   5   5  -1 53.6534 96.4291   6
   5   5   1 12648.3 946.816   3
  -5  -5  -1 11085.8 947.060   8
   5   5   1 11823.6 818.331   4
  -5  -5  -1 10862.6 954.518   1
   5   5   1 11744.5 563.251   6
  -5  -5  -3 7133.13 753.056   8
   5   5   3 7569.38 687.771   3
   5   5   3 7087.97 365.364   7
  -5  -5  -3 7496.15 601.679   4
   5   5   3 7821.88 776.541   4
  -5  -5  -5 7203.71 805.974   5
  -5  -5  -5 5608.64 673.876   8
   5   5   5 6070.93 493.491   7
  -5  -5  -5 5733.26 592.951   4
   5   5   5 5690.72 720.123   4
  -5  -5  -7 6428.99 810.591   5
  -5  -5  -7 6104.26 697.393   8
   5   5   7 6952.57 844.835   4
   5   5   7 5664.31 565.604   7
  -5  -5  -9 935.053 373.546   5
  -5  -5  -9 1595.21 360.989   8
   5   5   9 1352.73 264.076   3
   5   5   9 1338.48 471.270   4
  -5  -5  -9 1348.80 166.477   6
  -5  -5 -11 1886.59 534.857   5
  -5  -5 -11 1885.59 392.027   8
   5   5  11 1689.34 548.775   4
  -5  -5 -13 1632.52 550.039   5
  -5  -5 -13 1642.60 343.946   8
   5   5  13 1616.01 643.724   4
  -5  -6   7 445.502 265.655   1
   5   6  -7 470.331 291.499   3
  -5  -6   5 1907.98 505.896   1
  -5  -6   5 2017.56 407.079   8
   5   6  -5 2183.26 480.735   3
  -5  -6   3 168.446 218.231   1
  -5  -6   3 134.857 191.024   8
   5   6  -3 399.325 254.874   3
  -5  -6   1 1524.93 399.080   8
  -5  -6   1 1683.46 410.915   1
   5   6  -1 1264.91 347.159   3
   5   6  -1 1592.09 273.439   6
   5   6   1 6503.55 728.573   3
  -5  -6  -1 6893.40 761.949   8
   5   6   1 6865.48 601.977   4
  -5  -6  -1 5718.42 695.025   1
  -5  -6  -1 6423.65 489.255   4
   5   6   1 6014.78 368.006   6
  -5  -6  -3 1374.48 375.003   8
   5   6   3 983.235 356.552   4
  -5  -6  -3 1728.91 297.222   4
   5   6   3 1264.03 331.563   3
  -5  -6  -5 11812.4 1008.46   8
   5   6   5 12068.6 1091.42   4
   5   6   5 9452.08 610.228   7
  -5  -6  -5 10295.8 833.395   4
  -5  -6  -7 1657.84 447.207   5
  -5  -6  -7 1815.85 443.684   8
   5   6   7 2738.60 624.381   4
  -5  -6  -9 1174.97 349.815   8
  -5  -6  -9 1945.27 521.019   5
   5   6   9 635.211 420.457   4
  -5  -6 -11 88.0461 256.464   5
  -5  -6 -11 852.308 294.388   8
   5   6  11 527.868 382.584   4
  -5  -6 -13 361.809 319.783   5
  -5  -6 -13 707.663 257.554   8
  -5  -7   5 107.359 216.095   1
  -5  -7   5 821.248 290.432   8
   5   7  -5 324.974 291.244   3
  -5  -7   3 1686.77 419.498   8
   5   7  -3 1569.81 446.448   3
  -5  -7   3 1267.19 400.061   1
  -5  -7   1 1773.42 430.069   8
  -5  -7   1 1467.89 391.336   1
   5   7  -1 1759.90 436.618   3
  -5  -7  -1-9.61841 197.881   8
   5   7   1 143.038 165.480   4
   5   7   1 467.975 248.027   3
  -5  -7  -3 7042.62 830.531   8
   5   7   3 7555.25 784.121   4
   5   7   3 7478.33 815.812   3
  -5  -7  -3 7007.35 638.752   4
   5   7   5 851.832 82.6709   2
  -5  -7  -5 1257.15 386.730   8
   5   7   5 1076.59 410.025   4
  -5  -7  -7 2727.94 571.251   5
  -5  -7  -7 3846.48 615.042   8
   5   7   7 3996.37 736.995   4
  -5  -7  -9 1634.06 473.302   5
  -5  -7  -9 890.141 322.584   8
   5   7   9 1122.10 500.626   4
  -5  -7 -11 614.271 361.010   5
  -5  -7 -11 871.942 300.707   8
   5   7  11 1517.89 531.634   4
  -5  -7 -13 441.371 314.153   5
  -5  -7 -13 332.519 270.210   8
  -5  -8   5 240.934 201.350   8
  -5  -8   5 499.469 274.031   1
  -5  -8   3 977.542 339.696   8
  -5  -8   3 1310.85 386.887   1
   5   8  -3 1135.86 395.129   3
  -5  -8   1 1435.23 410.572   8
  -5  -8   1 804.532 314.652   1
   5   8  -1 1397.29 420.811   3
  -5  -8  -1 1922.56 472.241   8
   5   8   1 2104.31 501.118   3
  -5  -8  -3 915.944 343.031   8
   5   8   3 860.628 326.647   4
  -5  -8  -3 562.537 205.389   4
   5   8   3 926.940 346.477   3
  -5  -8  -5 2169.00 496.001   8
   5   8   5 1391.48 405.624   4
   5   8   5 1761.72 266.166   7
  -5  -8  -7 1771.73 450.499   8
   5   8   7 1445.15 496.058   4
  -5  -8  -9 1399.01 481.453   5
  -5  -8  -9 799.682 331.138   8
   5   8   9 1349.10 553.512   4
  -5  -8 -11 643.453 413.876   5
  -5  -8 -11 704.191 320.422   8
   5   8  11 1168.35 544.814   4
  -5  -8 -13 75.7946 149.613   8
  -5  -9   3 293.260 276.884   8
  -5  -9   3 391.650 257.212   1
  -5  -9   1 868.653 339.417   8
  -5  -9   1 679.874 312.693   1
   5   9  -1 927.989 382.755   3
  -5  -9  -1 785.575 336.396   8
   5   9   1 761.001 398.438   3
  -5  -9  -3 960.636 344.822   8
   5   9   3 915.366 323.822   4
   5   9   3 536.591 304.311   3
  -5  -9  -5 1268.31 425.915   8
   5   9   5 1869.47 493.210   4
  -5  -9  -7 534.085 255.675   8
   5   9   7 108.768 334.756   4
  -5  -9  -9 306.989 276.861   5
  -5  -9  -9 189.070 252.340   8
   5   9   9-177.467 350.977   4
  -5  -9 -11-86.4346 238.420   5
  -5  -9 -11 154.744 194.662   8
  -5 -10   1 533.632 328.154   8
  -5 -10  -1 312.710 278.713   8
   5  10   1 690.134 375.679   3
  -5 -10  -3 736.986 345.697   8
   5  10   3 533.425 316.280   3
  -5 -10  -5 512.569 318.006   8
   5  10   5 909.936 401.964   4
  -5 -10  -7 455.568 312.373   8
   5  10   7 413.955 355.182   4
   5  10   9 113.935 306.393   4
   5  11   7 167.606 301.743   4
   6  -7  -4 75.8596 252.046   6
  -6   7   4 594.124 344.327   7
  -6   7   2 919.649 420.841   7
   6  -7  -2 1151.44 446.900   6
  -6   7   0 1959.70 516.827   7
   6  -7   0 1153.54 453.019   6
  -6   7  -2 471.284 287.401   7
   6  -7   2 886.995 400.281   6
  -6   7  -4 1194.00 418.581   7
   6  -7   4 1223.62 459.274   6
   6  -6  -6 138.190 282.609   6
  -6   6   6 180.776 217.215   7
   6  -6  -4 2254.42 606.755   6
  -6   6   4 1359.44 441.131   7
   6  -6  -2 2791.36 644.701   6
  -6   6   2 2588.70 583.362   7
  -6   6   0 1124.23 399.920   7
   6  -6   0 1413.79 475.817   6
  -6   6  -2 4028.86 709.307   7
   6  -6   2 4755.26 762.801   6
  -6   6  -4 2355.59 545.202   7
   6  -6   4 2794.21 601.748   6
  -6   6  -6 363.589 299.954   7
   6  -6   6 372.331 303.816   6
  -6   5   8 260.464 269.750   1
  -6   5   8-8.45996 212.649   7
   6  -5  -6 1236.83 482.695   6
   6  -5  -6 1033.15 411.429   2
  -6   5   6 522.613 264.170   1
  -6   5   6 571.965 313.253   7
   6  -5  -4 1445.92 481.077   6
  -6   5   4 1044.99 302.034   1
  -6   5   4 1145.83 412.145   7
  -6   5   2 3190.40 608.340   7
  -6   5   2 3335.80 464.158   1
  -6   5   0 2563.79 550.459   7
   6  -5   0 3400.50 635.240   6
  -6   5  -2 3283.39 331.145   5
  -6   5  -2 3525.51 333.308   3
  -6   5  -2 3459.79 613.071   7
   6  -5   2 4036.47 661.877   6
  -6   5  -4 5657.05 533.194   5
  -6   5  -4 5992.01 832.722   7
   6  -5   4 6001.20 836.193   6
  -6   5  -6 4507.52 557.456   5
  -6   5  -6 4240.85 708.207   7
   6  -5   6 4214.85 740.137   6
  -6   5  -8 834.741 299.885   5
   6  -5   8 1088.72 419.547   6
  -6   5 -10 798.854 294.480   5
   6  -4  -8 855.421 429.563   6
   6  -4  -8 968.956 380.680   2
  -6   4   8 815.282 383.760   1
  -6   4   8 467.004 298.319   7
   6  -4  -6 504.664 355.133   6
   6  -4  -6 664.999 355.225   2
  -6   4   6 330.515 230.712   1
  -6   4   6 1017.57 379.042   7
   6  -4  -4 1264.87 451.667   6
  -6   4   4 1643.30 400.196   1
   6  -4  -4 1472.02 452.479   2
  -6   4   4 1451.19 420.291   7
   6  -4  -2 1253.56 432.388   6
  -6   4   2 1178.35 274.019   3
  -6   4   2 1700.85 438.272   7
  -6   4   2 1501.18 336.624   1
   6  -4   0 4082.20 664.601   6
  -6   4   0 4079.88 398.546   3
   6  -4   0 3518.14 437.789   1
  -6   4   0 4713.10 672.430   7
  -6   4  -2 7448.17 557.672   5
   6  -4   2 7521.61 625.643   1
  -6   4  -2 7696.56 402.151   3
  -6   4  -2 7420.09 390.739   3
  -6   4  -2 6886.69 829.956   7
   6  -4   2 7330.03 848.699   6
  -6   4  -4 7786.88 653.726   5
  -6   4  -4 8142.64 906.324   7
   6  -4   4 8372.92 916.319   6
   6  -4   4 7255.34 627.034   1
  -6   4  -6 3850.39 527.029   5
  -6   4  -6 3575.11 638.855   7
   6  -4   6 3316.91 618.595   6
  -6   4  -8 3013.71 523.414   5
   6  -4   8 2499.01 585.902   6
  -6   4 -10 451.040 278.076   5
   6  -4  10 944.636 406.520   6
  -6   3  10 208.380 189.188   7
  -6   3   8 143.500 168.369   7
  -6   3   8 137.005 213.332   1
   6  -3  -6 1012.14 406.651   6
   6  -3  -6 680.610 351.100   2
  -6   3   6 576.005 315.728   1
  -6   3   6 387.158 309.154   7
   6  -3  -4 1596.36 484.393   6
  -6   3   4 997.810 305.576   1
   6  -3  -4 682.275 293.928   2
  -6   3   4 600.415 299.812   7
  -6   3   4 623.109 233.609   3
   6  -3  -2 6739.65 529.099   5
  -6   3   2 6143.48 742.292   7
  -6   3   2 5076.50 622.518   1
   6  -3  -2 6349.72 827.672   6
   6  -3  -2 7340.35 825.255   2
   6  -3   0 4115.00 620.786   6
   6  -3   0 3361.81 341.549   5
  -6   3   0 3308.22 322.656   3
   6  -3   0 3022.64 419.182   1
  -6   3   0 2866.13 426.563   1
  -6   3   0 2758.16 496.940   7
   6  -3   2 744.781 207.917   1
  -6   3  -2 1163.65 243.674   5
   6  -3   2 634.186 285.167   6
  -6   3  -4 5857.63 583.243   5
  -6   3  -4 6099.55 737.291   7
   6  -3   4 5613.51 721.840   6
   6  -3   4 5717.77 589.967   1
  -6   3  -6 9732.10 849.634   5
  -6   3  -6 9692.15 978.155   7
   6  -3   6 9090.58 803.609   1
   6  -3   6 9581.81 984.195   6
  -6   3  -8 3544.31 565.135   5
   6  -3   8 3389.08 605.069   6
   6  -3   8 3958.08 674.646   4
  -6   3 -10 781.356 342.184   5
   6  -3  10 1764.68 494.157   6
   6  -3  10 1341.40 428.242   4
  -6   2  10 53.7129 150.037   7
   6  -2  -8 722.085 364.866   2
   6  -2  -8 472.703 248.250   3
  -6   2   8 201.435 185.613   7
  -6   2   8 75.0664 239.883   1
   6  -2  -6 2192.38 531.168   2
   6  -2  -6 1806.99 344.680   3
  -6   2   6 1300.53 416.692   1
  -6   2   6 1154.83 353.374   7
   6  -2  -4 4232.13 710.568   6
   6  -2  -4 4234.40 528.832   5
  -6   2   4 4081.32 537.662   3
  -6   2   4 3884.45 628.875   1
   6  -2  -4 4298.38 698.489   2
   6  -2  -4 4295.13 563.126   4
  -6   2   4 4450.93 602.100   7
  -6   2   2 511.146 240.764   1
   6  -2  -2 587.994 293.296   6
   6  -2  -2 301.536 264.787   2
   6  -2  -2 404.796 172.559   5
   6  -2  -2 531.861 218.290   4
  -6   2   2 438.449 222.631   7
   6  -2   0 2219.41 449.932   6
  -6   2   0 2763.89 278.884   3
   6  -2   0 2526.77 347.888   5
  -6   2   0 3134.55 466.682   1
  -6   2   0 2727.58 461.246   7
   6  -2   0 2600.60 410.368   1
  -6   2  -2 7403.27 611.135   5
   6  -2   2 7820.63 588.099   5
  -6   2  -2 7473.38 761.710   7
   6  -2   2 6086.30 721.630   6
   6  -2   2 6976.47 651.616   1
  -6   2  -4 5179.05 557.384   5
  -6   2  -4 6183.83 699.840   7
   6  -2   4 5670.06 609.276   1
   6  -2   4 5538.67 673.046   6
  -6   2  -6 7261.58 732.646   5
  -6   2  -6 6744.26 763.720   7
   6  -2   6 6066.53 691.859   1
   6  -2   6 6767.47 777.502   6
  -6   2  -8 8144.27 878.280   5
   6  -2   8 8226.38 934.000   4
   6  -2   8 7050.62 832.009   6
  -6   2 -10 1502.45 461.008   5
   6  -2  10 968.494 360.950   6
   6  -2  10 1240.12 413.558   4
  -6   2 -12 506.100 317.653   5
   6  -1  -8 444.272 309.097   2
   6  -1  -8 433.714 244.201   3
  -6   1   8 628.924 247.254   7
  -6   1   8 251.172 210.348   1
   6  -1  -6 2003.42 524.707   2
   6  -1  -6 1163.44 309.281   3
  -6   1   6 1291.05 343.720   7
   6  -1  -4 565.454 233.577   5
  -6   1   4 796.382 323.619   1
   6  -1  -4 832.983 381.189   2
   6  -1  -4 629.013 209.530   3
   6  -1  -4 844.901 256.606   4
  -6   1   4 481.049 220.710   7
  -6   1   4 378.733 189.948   3
   6  -1  -2 7838.31 873.366   2
   6  -1  -2 8751.32 772.135   5
   6  -1  -2 9089.06 744.429   4
  -6   1   2 8777.19 770.971   7
  -6   1   2 8279.56 850.678   1
   6  -1  -2 9571.46 911.804   6
   6  -1  -2 9464.08 611.546   3
   6  -1   0 6003.29 576.567   5
   6  -1   0 5781.77 618.513   1
  -6   1   0 6500.07 442.993   3
  -6   1   0 5624.64 644.708   1
  -6   1   0 7019.58 682.023   7
   6  -1   0 6302.45 686.052   6
   6  -1   0 5599.83 649.579   2
  -6   1  -2 2363.15 361.343   5
   6  -1   2 2257.87 350.534   5
  -6   1  -2 3038.76 456.698   7
   6  -1   2 2994.56 427.302   7
   6  -1   2 2347.00 397.466   1
   6  -1   2 2697.86 435.524   6
  -6   1  -4 6186.62 616.905   5
  -6   1  -4 6566.09 673.526   2
   6  -1   4 5939.35 547.236   5
  -6   1  -4 6264.98 673.206   7
   6  -1   4 6724.87 698.693   7
   6  -1   4 6106.40 652.958   1
   6  -1   4 6419.61 669.826   6
  -6   1  -4 6393.57 626.858   6
  -6   1  -6 4030.22 553.211   2
  -6   1  -6 6615.00 698.891   5
   6  -1   6 6005.82 720.128   4
   6  -1   6 6033.93 683.969   6
  -6   1  -6 5580.78 612.411   6
  -6   1  -8 5787.19 760.019   5
   6  -1   8 5380.77 730.558   4
   6  -1   8 5154.20 672.024   6
  -6   1 -10 3851.61 705.593   5
   6  -1  10 3562.84 607.843   6
   6  -1  10 5460.87 794.537   4
  -6   1 -12-480.978 338.434   5
   6  -1  12 349.455 296.033   4
   6   0  -8 415.713 242.787   3
  -6   0   8 788.309 439.390   1
  -6   0   8 344.631 212.706   7
   6   0  -6 808.623 266.273   3
  -6   0   6 969.808 386.263   1
  -6   0   6 1217.08 335.946   7
   6   0  -4 6139.69 565.120   3
   6   0  -4 7799.24 909.739   2
  -6   0   4 6030.45 678.842   3
  -6   0   4 6459.87 645.966   7
  -6   0   4 7435.31 894.841   1
   6   0  -2 1509.03 369.366   6
  -6   0   2 1272.61 367.297   1
   6   0  -2 1202.08 300.334   5
   6   0  -2 2095.93 471.947   2
   6   0  -2 1494.49 248.885   3
   6   0  -2 1235.51 260.054   4
  -6   0   2 1762.58 332.108   7
   6   0   0 2146.85 385.237   6
   6   0   0 2050.19 411.364   2
   6   0   0 1127.81 281.371   5
  -6   0   0 1980.85 259.193   3
  -6   0   0 2198.44 361.277   7
  -6   0   0 1970.59 416.084   1
   6   0   0 2636.24 264.421   3
   6   0   2 13225.2 901.589   5
  -6   0  -2 16278.1 992.558   7
   6   0   2 13560.4 903.970   7
   6   0   2 14271.3 944.847   6
   6   0   2 14500.4 1040.00   1
   6   0   4 3482.45 452.817   5
  -6   0  -4 3084.43 460.689   5
  -6   0  -4 3382.61 476.057   7
   6   0   4 3872.41 499.595   7
   6   0   4 3422.04 455.622   6
   6   0   4 2362.55 416.885   4
  -6   0  -6 3907.71 524.908   2
  -6   0  -6 4904.70 622.924   5
   6   0   6 4487.84 537.300   6
  -6   0  -6 4891.71 531.948   6
   6   0   6 4084.83 564.941   4
  -6   0  -8 4934.54 589.314   2
  -6   0  -8 5949.96 768.857   5
   6   0   8 5804.96 757.540   4
   6   0   8 5019.15 619.884   6
  -6   0  -8 4732.23 586.411   6
  -6   0 -10 3651.53 693.453   5
   6   0  10 4468.32 714.083   4
  -6   0 -12 576.990 380.881   5
   6   0  12 728.884 370.081   4
   6   1  -8 524.775 268.570   3
  -6  -1   8 57.6228 243.935   1
  -6  -1   6 978.601 419.686   1
   6   1  -6 947.731 305.411   3
  -6  -1   6 747.912 248.436   7
  -6  -1   4 626.076 320.064   1
   6   1  -4 733.712 222.687   3
  -6  -1   4 1354.01 278.142   7
   6   1  -4 843.689 121.356   4
   6   1  -2 7212.30 563.409   3
   6   1  -2 8908.58 910.783   2
   6   1  -2 7097.25 535.415   4
  -6  -1   2 6650.78 630.122   3
  -6  -1   2 6762.47 557.050   7
   6   1  -2 6835.11 468.598   4
  -6  -1   2 8638.09 889.970   1
   6   1   0 11429.8 608.184   3
   6   1   0 12206.3 936.446   2
   6   1   0 10971.3 899.147   5
  -6  -1   0 11590.8 734.952   7
  -6  -1   0 10974.6 953.561   1
   6   1   0 10687.7 682.563   4
   6   1   0 10472.4 795.873   6
   6   1   2 91.4875 155.829   6
   6   1   2 4.01259 234.609   2
   6   1   2 456.508 195.287   5
   6   1   2 179.407 71.6262   3
  -6  -1  -2 526.654 189.909   7
   6   1   2 58.5453 106.402   7
   6   1   2-10.2385 161.397   4
  -6  -1  -4 17324.4 1158.99   5
   6   1   4 16089.0 1014.19   7
   6   1   4 15612.5 1034.38   4
   6   1   4 18134.0 987.235   6
  -6  -1  -6 1970.05 434.585   5
   6   1   6 2379.17 423.142   7
   6   1   6 1359.82 361.873   4
   6   1   6 2422.72 359.826   6
  -6  -1  -8 4490.46 531.465   2
  -6  -1  -8 5445.43 763.683   5
   6   1   8 4625.26 697.127   4
   6   1   8 4004.23 519.938   6
  -6  -1  -8 4888.99 546.497   6
  -6  -1 -10 2276.22 576.919   5
   6   1  10 2391.93 559.417   4
  -6  -1 -12 409.486 314.714   5
   6   1  12 345.521 304.154   4
   6   2  -8 208.501 216.050   3
  -6  -2   8-365.533 337.172   1
  -6  -2   6 695.171 400.113   1
   6   2  -6 633.562 258.026   3
  -6  -2   4 2991.19 615.121   1
  -6  -2   4 2435.83 309.858   7
   6   2  -4 3079.34 442.161   3
   6   2  -2 8101.50 650.447   3
   6   2  -2 6902.92 424.939   4
  -6  -2   2 6395.62 653.053   3
   6   2  -2 6819.10 404.343   4
  -6  -2   2 7454.07 482.088   7
  -6  -2   2 8757.67 910.551   1
   6   2   0 450.665 220.456   6
   6   2   0 109.642 260.362   2
  -6  -2   0 203.418 107.112   7
   6   2   0 65.5343 109.264   3
  -6  -2   0 271.686 272.920   1
   6   2   0 185.711 151.824   4
   6   2   2 17810.9 1049.86   2
   6   2   2 20804.1 845.745   3
  -6  -2  -2 20750.4 1309.54   1
   6   2   2 18960.7 1062.39   4
   6   2   2 19027.1 928.480   7
   6   2   2 19909.8 986.030   6
  -6  -2  -4 778.315 315.217   5
   6   2   4 486.243 177.695   7
   6   2   4 692.936 103.488   3
   6   2   4 388.354 234.266   4
   6   2   4 716.998 191.798   6
  -6  -2  -6 8714.71 874.023   5
   6   2   6 7151.76 281.302   3
   6   2   6 7566.39 304.617   3
   6   2   6 8222.81 820.637   4
   6   2   6 7474.54 720.397   7
   6   2   6 7543.67 575.221   6
  -6  -2  -6 8146.93 571.306   6
   6   2   8 1942.28 189.697   3
  -6  -2  -8 1279.63 416.154   5
   6   2   8 1634.03 459.933   4
  -6  -2 -10 4080.73 732.017   5
   6   2  10 2769.79 590.767   4
  -6  -2 -12 780.857 411.687   5
   6   2  12 107.823 315.857   4
   6   3  -8 46.0883 167.633   3
  -6  -3   6 542.634 344.027   1
   6   3  -6 493.101 230.485   3
  -6  -3   4 1259.60 418.365   1
   6   3  -4 212.573 154.432   3
  -6  -3   2 2494.72 526.306   1
   6   3  -2 2857.94 421.559   3
   6   3   0 24180.2 1196.57   3
   6   3   0 23813.2 1091.99   4
  -6  -3   0 21928.7 1459.71   1
   6   3   0 23389.2 1144.18   6
   6   3   2 102.773 112.170   6
   6   3   2-142.143 206.929   2
  -6  -3  -2 211.363 221.643   8
  -6  -3  -2 165.997 248.178   1
   6   3   2 106.165 86.5876   7
   6   3   2-27.4119 107.665   3
   6   3   2-94.7428 181.392   4
  -6  -3  -4 6827.88 756.607   5
   6   3   4 6792.25 485.864   3
  -6  -3  -4 6849.85 732.144   8
   6   3   4 5832.48 619.326   4
   6   3   4 6031.71 520.528   7
   6   3   4 6456.43 407.382   6
  -6  -3  -6 4427.79 645.956   5
  -6  -3  -6 4228.82 561.559   8
   6   3   6 5372.43 407.643   3
   6   3   6 4739.15 621.205   4
   6   3   6 4611.27 530.605   7
   6   3   6 4071.76 314.128   3
  -6  -3  -8 2731.75 572.847   5
   6   3   8 2092.37 489.415   4
  -6  -3  -8 2555.71 313.681   6
  -6  -3 -10 4619.47 793.482   5
   6   3  10 3431.86 673.092   4
  -6  -3 -12 724.470 419.702   5
   6   3  12 1464.62 495.420   4
  -6  -4   6 743.444 392.127   1
   6   4  -6 238.874 227.840   3
  -6  -4   4 877.923 364.144   1
   6   4  -4 727.869 271.939   3
   6   4  -2 3028.08 456.628   3
  -6  -4   2 2537.11 549.782   1
  -6  -4   0 3830.24 554.969   8
   6   4   0 3789.31 407.515   4
  -6  -4   0 2711.61 522.012   1
   6   4   0 3448.22 465.910   3
   6   4   2 8819.55 711.510   2
   6   4   2 8889.15 702.374   3
  -6  -4  -2 8842.67 848.152   8
   6   4   2 9473.89 775.624   4
   6   4   2 7983.33 450.239   6
  -6  -4  -4 5894.87 694.894   8
   6   4   4 5834.81 537.172   3
   6   4   4 5210.64 639.627   4
   6   4   4 5403.79 443.389   7
   6   4   4 5111.98 429.871   2
  -6  -4  -6 1332.94 422.907   5
  -6  -4  -6 1284.54 352.094   8
   6   4   6 1009.17 238.468   7
   6   4   6 1015.85 339.086   4
  -6  -4  -8 4992.96 760.775   5
  -6  -4  -8 4702.04 636.908   8
   6   4   8 4047.45 547.277   7
   6   4   8 4432.87 693.863   4
  -6  -4 -10 1661.35 515.072   5
  -6  -4 -10 2399.68 447.377   8
   6   4  10 1198.86 436.851   4
  -6  -4 -12 1386.37 531.123   5
   6   4  12 2174.66 611.119   4
  -6  -5   6 588.563 336.493   1
   6   5  -6 273.542 217.490   3
  -6  -5   4 462.800 296.381   1
   6   5  -4 491.434 257.084   3
  -6  -5   2 711.481 296.425   8
   6   5  -2 1210.65 346.945   3
  -6  -5   2 532.836 293.886   1
   6   5   0 3449.21 336.046   4
  -6  -5   0 4016.59 596.175   8
  -6  -5   0 4460.20 657.871   1
   6   5   0 3518.24 514.059   3
   6   5   2 7347.65 717.956   3
  -6  -5  -2 7478.74 809.143   8
   6   5   2 8258.28 765.146   4
   6   5   4 900.789 183.476   2
  -6  -5  -4 762.419 306.196   8
   6   5   4 582.951 134.409   7
   6   5   4 410.622 300.591   4
   6   5   4 706.660 240.486   3
  -6  -5  -6 6434.62 842.279   5
  -6  -5  -6 7345.25 796.768   8
   6   5   6 7331.26 857.907   4
   6   5   6 6159.38 564.264   7
  -6  -5  -8 485.947 308.706   5
  -6  -5  -8 643.950 269.098   8
   6   5   8 531.002 349.384   4
  -6  -5 -10 1457.97 491.424   5
  -6  -5 -10 2205.60 448.114   8
   6   5  10 1436.34 507.290   4
  -6  -5 -12 838.977 437.843   5
  -6  -5 -12 1114.13 321.224   8
   6   5  12 1701.51 635.914   4
  -6  -6   4 1058.19 328.586   8
   6   6  -4 1160.48 367.305   3
  -6  -6   4 547.635 315.940   1
  -6  -6   2 951.398 313.009   8
   6   6  -2 165.314 181.568   3
  -6  -6   2 532.749 268.126   1
  -6  -6   0 1585.27 408.430   8
  -6  -6   0 1714.26 437.235   1
   6   6   0 1361.54 359.062   3
  -6  -6  -2 2427.29 477.321   8
   6   6   2 1308.40 362.222   4
   6   6   2 2013.00 434.320   3
   6   6   4 4037.70 363.813   2
   6   6   4 4451.28 577.077   3
  -6  -6  -4 3984.42 627.188   8
   6   6   4 4774.22 712.715   4
  -6  -6  -6 834.783 323.537   5
  -6  -6  -6 1138.10 366.030   8
   6   6   6 1836.62 514.150   4
  -6  -6  -8 2162.59 553.991   5
  -6  -6  -8 1677.75 429.413   8
   6   6   8 959.272 481.290   4
  -6  -6 -10 1018.84 404.358   5
  -6  -6 -10 1218.89 365.382   8
   6   6  10 938.519 462.549   4
  -6  -6 -12 524.849 353.690   5
  -6  -6 -12 502.434 247.588   8
  -6  -7   4 330.619 230.770   8
   6   7  -4 391.739 277.243   3
  -6  -7   4 304.639 250.720   1
  -6  -7   2 1099.09 356.889   8
  -6  -7   2 792.854 313.065   1
   6   7  -2 357.793 248.847   3
  -6  -7   0 346.422 253.188   8
  -6  -7   0 590.237 288.627   1
   6   7   0 663.415 326.741   3
  -6  -7  -2 803.399 367.671   8
   6   7   2 760.431 270.296   4
   6   7   2 841.914 317.396   3
  -6  -7  -4 2201.38 496.843   8
   6   7   4 1104.30 390.449   4
   6   7   4 1383.08 378.986   3
  -6  -7  -6 932.703 371.628   8
   6   7   6 417.474 357.415   4
  -6  -7  -8 1507.25 485.402   5
  -6  -7  -8 1408.29 408.977   8
   6   7   8 1025.44 430.429   4
  -6  -7 -10 1357.67 475.324   5
  -6  -7 -10 1382.46 415.630   8
   6   7  10 73.6090 367.009   4
  -6  -7 -12 328.214 210.976   8
  -6  -8   4-175.979 185.316   8
  -6  -8   2 667.286 312.784   8
  -6  -8   2 417.311 300.311   1
   6   8  -2 317.819 269.307   3
  -6  -8   0 461.233 275.665   8
  -6  -8   0 760.832 334.134   1
   6   8   0 128.044 223.621   3
  -6  -8  -2 1500.45 440.825   8
   6   8   2 1352.80 404.237   3
  -6  -8  -4 120.528 239.835   8
   6   8   4 788.316 355.717   4
   6   8   4 468.148 278.421   3
  -6  -8  -6 752.307 351.338   8
   6   8   6 1549.81 511.333   4
  -6  -8  -8 228.381 232.678   8
   6   8   8 520.059 415.349   4
  -6  -8 -10 542.284 347.400   5
  -6  -8 -10 452.118 266.643   8
   6   8  10 239.963 351.461   4
  -6  -8 -12 555.272 306.863   8
  -6  -9   2 116.927 181.981   1
  -6  -9   0 503.207 309.075   8
   6   9   0 576.359 253.237   3
  -6  -9  -2 876.434 380.620   8
   6   9   2 313.847 196.184   3
  -6  -9  -4 306.309 246.501   8
   6   9   4 181.232 210.331   3
  -6  -9  -6 1035.66 411.376   8
   6   9   6 523.634 358.884   4
  -6  -9  -8 138.310 215.302   8
   6   9   8 253.318 271.657   4
   6   9  10 545.994 448.372   4
   6  10   2 165.957 236.667   3
   6  10   4 625.289 327.907   3
   6  10   6 457.783 343.825   4
   6  10   6-111.533 213.757   3
   6  10   8 1152.95 464.931   4
  -7   6   3 384.308 326.082   7
  -7   6   1 400.031 309.782   7
   7  -6  -1 1277.79 474.830   6
  -7   6  -1 130.361 199.664   7
   7  -6   1-438.348 308.120   6
  -7   6  -3 1612.71 492.155   7
   7  -6   3 841.778 366.874   6
  -7   5   5 307.287 206.627   1
  -7   5   5 285.165 262.948   7
   7  -5  -3 532.160 374.941   6
  -7   5   3 880.210 369.305   7
  -7   5   3 389.973 227.094   1
   7  -5  -1 1568.87 524.254   6
  -7   5   1 1472.03 480.530   7
  -7   5  -1 2172.59 528.556   7
   7  -5   1 2218.65 550.638   6
  -7   5  -3 1862.02 498.380   7
   7  -5   3 1222.34 433.063   6
  -7   5  -5 759.591 314.112   7
   7  -5   5 1413.50 456.312   6
   7  -5   7 583.951 355.752   6
  -7   4   7-209.977 309.865   1
  -7   4   7-58.9302 185.622   7
   7  -4  -5 712.361 379.650   6
  -7   4   5 324.079 302.663   1
   7  -4  -5 196.870 286.576   2
  -7   4   5 649.363 304.959   7
   7  -4  -3 934.992 406.752   6
  -7   4   3 607.412 329.109   7
  -7   4   3 1360.67 364.736   1
   7  -4  -1 2704.43 588.683   6
  -7   4   1 2303.10 429.510   1
  -7   4   1 2659.01 550.300   7
  -7   4  -1 737.889 308.685   7
   7  -4   1 432.930 293.908   6
  -7   4  -3 2568.23 360.249   5
  -7   4  -3 3469.25 624.235   7
   7  -4   3 2223.61 508.604   6
  -7   4  -5 2419.56 400.011   5
  -7   4  -5 2355.78 544.628   7
   7  -4   5 2449.26 539.849   6
  -7   4  -7 989.747 317.495   5
  -7   4  -7 601.628 300.756   7
   7  -4   7 1147.53 397.923   6
  -7   4  -9 804.596 303.389   5
   7  -4   9 133.964 237.915   6
  -7   3   7 362.727 301.243   1
  -7   3   7 17.5176 218.027   7
   7  -3  -5 895.679 428.200   6
  -7   3   5 168.951 202.161   1
   7  -3  -5 455.287 356.329   2
  -7   3   5 256.638 239.699   7
   7  -3  -3 616.911 330.018   6
   7  -3  -3 481.602 345.574   2
  -7   3   3 628.367 288.524   7
  -7   3   3 381.348 244.548   1
   7  -3  -1 499.916 297.646   6
  -7   3   1 413.295 253.215   1
  -7   3   1 330.847 250.226   7
  -7   3  -1 5456.83 726.818   7
   7  -3   1 5387.62 755.455   6
  -7   3  -3 2954.32 411.782   5
  -7   3  -3 2459.95 505.158   7
   7  -3   3 3248.52 586.682   6
  -7   3  -5 1785.08 367.109   5
  -7   3  -5 1210.14 365.986   7
   7  -3   5 997.118 394.203   6
  -7   3  -7 2189.62 435.327   5
   7  -3   7 2567.11 540.810   6
  -7   3  -9 491.509 269.040   5
   7  -3   9 280.277 216.418   6
   7  -2  -7 130.556 267.763   6
  -7   2   7 47.2987 167.319   1
  -7   2   7 217.424 191.262   7
   7  -2  -5 683.094 399.358   6
  -7   2   5 511.784 286.461   1
   7  -2  -5 782.834 374.693   2
  -7   2   5 309.826 238.619   7
   7  -2  -3 1183.35 399.919   6
   7  -2  -3 1231.97 389.474   2
  -7   2   3 763.107 307.377   7
  -7   2   3 986.394 379.770   1
   7  -2  -1 3998.27 649.638   6
   7  -2  -1 3744.11 626.474   2
  -7   2   1 2883.13 507.244   7
  -7   2   1 3183.58 532.305   1
   7  -2   1 1196.17 267.458   5
  -7   2  -1 910.329 298.235   7
   7  -2   1 812.566 317.308   6
  -7   2  -3 3119.34 448.886   5
  -7   2  -3 2780.98 492.389   7
   7  -2   3 3225.23 537.125   6
  -7   2  -5 5337.04 623.894   5
  -7   2  -5 5582.69 715.578   7
   7  -2   5 5776.42 756.308   6
  -7   2  -7 944.866 336.529   5
   7  -2   7 1009.56 355.276   6
   7  -2   7 1007.38 380.675   4
  -7   2  -9 1455.32 434.955   5
   7  -2   9 2021.68 500.204   6
   7  -2   9 1338.61 434.363   4
  -7   2 -11 536.478 324.773   5
   7  -2  11 487.629 326.776   6
  -7   1   7 846.326 362.609   1
   7  -1  -7 86.1266 171.914   3
   7  -1  -5 138.454 232.910   6
  -7   1   5 476.704 310.795   1
   7  -1  -5 663.565 375.990   2
   7  -1  -5 953.046 257.384   3
  -7   1   5 807.463 290.018   7
  -7   1   3 1007.51 376.337   1
   7  -1  -3 1490.05 444.247   6
   7  -1  -3 1078.78 400.484   2
   7  -1  -3 995.513 239.743   3
  -7   1   3 782.194 291.970   7
   7  -1  -1 576.749 270.246   6
   7  -1  -1 124.623 265.852   2
  -7   1   1 398.899 222.294   7
  -7   1   1 177.374 202.421   1
   7  -1   1 4293.11 593.447   6
   7  -1   1 3835.02 489.598   5
  -7   1  -1 3887.96 571.765   1
  -7   1  -1 4241.57 572.208   7
  -7   1  -3 8030.72 737.594   5
  -7   1  -3 8534.69 838.759   7
   7  -1   3 7734.88 802.887   6
  -7   1  -5 688.320 293.933   5
  -7   1  -5 449.367 255.812   7
   7  -1   5 774.328 317.545   6
   7  -1   5 721.483 312.149   4
  -7   1  -7 4915.43 692.027   5
   7  -1   7 5182.90 722.009   4
   7  -1   7 4580.68 654.600   6
  -7   1  -9 1534.97 442.560   5
   7  -1   9 1405.77 422.879   6
   7  -1   9 1571.03 469.083   4
  -7   1 -11 245.686 283.047   5
   7  -1  11 655.584 329.122   6
  -7   0   7-373.943 347.337   1
   7   0  -7 167.393 191.860   3
  -7   0   5 499.926 309.497   1
   7   0  -5 912.064 405.097   2
   7   0  -5 346.325 186.255   3
  -7   0   5 101.127 160.089   7
  -7   0   3 1702.71 451.032   1
   7   0  -3 742.693 328.257   6
   7   0  -3 1273.50 449.202   2
   7   0  -3 1547.26 291.460   3
  -7   0   3 1452.87 327.878   7
   7   0  -1 1534.13 381.870   6
   7   0  -1 1577.93 412.021   2
   7   0  -1 1760.24 257.529   3
  -7   0   1 1554.98 321.803   7
  -7   0   1 1561.87 417.317   1
   7   0   1 1913.55 404.178   6
   7   0   1 2135.69 414.483   2
  -7   0  -1 2025.80 443.063   1
  -7   0  -1 1619.73 334.033   7
  -7   0  -3 1410.28 328.975   7
   7   0   3 1470.68 323.656   7
   7   0   3 550.772 233.122   4
   7   0   3 1140.87 301.598   6
  -7   0  -5 13534.8 1064.15   5
   7   0   5 12024.0 1000.82   4
   7   0   5 13658.5 1007.77   6
  -7   0  -7 1185.85 370.935   5
   7   0   7 1182.70 374.983   4
   7   0   7 771.742 282.638   6
  -7   0  -9 2915.41 601.820   5
   7   0   9 2134.05 462.415   6
   7   0   9 3531.50 637.506   4
  -7   0 -11 174.888 274.792   5
   7   0  11 827.600 383.323   4
   7   1  -7 102.246 164.122   3
  -7  -1   5 401.254 316.095   1
   7   1  -5 597.333 338.505   2
   7   1  -5 656.807 220.016   3
  -7  -1   3 798.110 338.466   1
   7   1  -3 1262.75 362.104   6
   7   1  -3 947.347 408.826   2
   7   1  -3 1146.32 262.730   3
  -7  -1   3 1027.07 247.067   7
   7   1  -1 665.386 263.807   6
   7   1  -1 784.652 316.476   2
   7   1  -1 960.887 196.554   3
  -7  -1   1 655.109 203.156   7
  -7  -1   1 1079.96 347.465   1
   7   1  -1 594.341 186.637   4
   7   1   1 406.437 221.577   6
   7   1   1 283.133 214.903   2
   7   1   1 387.659 118.655   3
  -7  -1  -1 609.856 305.911   1
  -7  -1  -1 193.918 145.467   7
   7   1   1 237.986 152.556   4
   7   1   3 8683.79 768.312   4
   7   1   3 7870.82 686.113   7
   7   1   3 8574.13 723.070   6
  -7  -1  -5 744.250 291.822   5
   7   1   5 1074.74 293.750   7
   7   1   5 647.312 280.994   4
   7   1   5 1603.50 332.720   6
  -7  -1  -7 3323.65 620.712   5
   7   1   7 4303.90 528.802   6
   7   1   7 3831.32 610.137   4
  -7  -1  -9 2106.12 546.356   5
   7   1   9 1763.61 480.172   4
   7   1   9 1913.84 409.174   6
  -7  -1 -11 1478.31 501.357   5
   7   1  11 1365.49 461.634   4
   7   2  -7 527.884 269.698   3
  -7  -2   5 599.905 338.029   1
   7   2  -5 252.446 181.885   3
  -7  -2   3 1332.76 434.087   1
   7   2  -3 1828.75 515.473   2
   7   2  -3 1328.85 287.589   3
   7   2  -1 1677.27 366.641   6
   7   2  -1 1811.05 476.583   2
   7   2  -1 2205.35 319.561   3
  -7  -2   1 1926.42 251.799   7
  -7  -2   1 2050.23 482.454   1
   7   2  -1 2126.59 294.216   4
   7   2   1 1021.73 251.908   6
   7   2   1 1364.90 357.759   2
  -7  -2  -1 1295.41 376.284   1
   7   2   1 1121.15 193.547   3
   7   2   1 1434.24 288.892   4
   7   2   3-20.6888 122.850   2
   7   2   3 40.0063 50.1608   3
   7   2   3-31.8569 122.747   7
   7   2   3 86.5815 172.199   4
  -7  -2  -5 4843.86 686.275   5
   7   2   5 4907.96 633.483   4
   7   2   5 5507.56 596.316   7
   7   2   5 4839.16 488.443   6
  -7  -2  -7 3205.56 602.916   5
   7   2   7 2406.40 503.331   4
   7   2   7 2850.18 398.333   6
  -7  -2  -9 704.849 335.315   5
   7   2   9 1113.25 412.778   4
  -7  -2 -11 1425.41 535.436   5
   7   2  11 565.463 368.334   4
   7   3  -7 104.155 210.713   3
  -7  -3   5 614.546 339.418   1
   7   3  -5 597.591 237.230   3
   7   3  -3 528.318 223.185   3
  -7  -3   3 1096.80 413.232   1
   7   3  -1 752.620 235.545   6
   7   3  -1 764.816 332.489   2
   7   3  -1 1212.05 278.755   3
  -7  -3   1 1301.43 404.109   1
   7   3   1 1266.28 259.249   6
   7   3   1 1696.74 390.795   2
  -7  -3  -1 1567.39 416.706   1
   7   3   1 1602.01 272.755   3
   7   3   1 1280.51 278.119   4
   7   3   3 728.381 207.625   2
   7   3   3 935.640 186.542   3
   7   3   3 743.375 276.157   4
   7   3   3 884.033 185.192   6
  -7  -3  -5 1859.98 458.693   5
   7   3   5 2095.14 206.591   3
   7   3   5 1976.09 344.388   7
   7   3   5 2686.38 282.763   6
   7   3   5 2113.89 412.274   4
  -7  -3  -7 897.212 377.585   5
   7   3   7 407.858 295.491   4
  -7  -3  -9 2476.25 577.344   5
   7   3   9 2802.58 614.344   4
  -7  -3 -11 822.375 442.423   5
   7   3  11 860.745 446.512   4
   7   4  -5 553.870 268.886   3
   7   4  -3 259.315 204.623   3
  -7  -4   3 91.6754 270.640   1
   7   4  -1 2043.68 339.520   6
   7   4  -1 2406.90 414.176   3
  -7  -4   1 2041.88 522.128   1
   7   4   1 1213.78 222.118   6
   7   4   1 1609.95 402.296   2
  -7  -4  -1 1370.58 400.335   1
   7   4   1 1066.01 257.434   3
   7   4   1 1371.21 311.960   4
   7   4   3 1493.11 294.743   2
  -7  -4  -3 1611.26 425.410   8
   7   4   3 1274.46 257.323   3
   7   4   3 1413.06 366.204   4
  -7  -4  -5 724.458 316.044   8
   7   4   5 477.260 157.873   3
   7   4   5 249.156 245.164   4
  -7  -4  -7 3293.92 647.810   5
   7   4   7 2627.09 536.146   4
  -7  -4  -9 242.638 272.635   5
   7   4   9 865.241 377.605   4
  -7  -4 -11 1459.81 555.213   5
   7   4  11 1060.55 449.584   4
   7   5  -5 138.476 218.034   3
   7   5  -3 608.038 271.794   3
  -7  -5   3 1320.98 466.225   1
  -7  -5   1 773.273 325.112   1
   7   5  -1 489.458 191.483   3
  -7  -5  -1 2215.79 477.541   8
  -7  -5  -1 1523.57 424.582   1
   7   5   1 1832.70 371.017   3
   7   5   3 1139.79 280.586   2
  -7  -5  -3 1774.12 456.426   8
   7   5   3 1802.61 422.362   4
   7   5   3 1332.87 299.146   3
  -7  -5  -5 1185.21 378.494   8
   7   5   5 1694.10 436.970   4
   7   5   5 1069.61 262.685   3
  -7  -5  -7 735.854 344.214   5
  -7  -5  -7 1087.27 347.566   8
   7   5   7 646.473 371.967   4
   7   5   7 806.932 229.769   3
  -7  -5  -9 776.053 394.126   5
  -7  -5  -9 638.979 342.499   8
   7   5   9 845.550 410.936   4
  -7  -5 -11 515.506 348.773   5
   7   5  11 392.545 421.326   4
   7   6  -3 710.938 306.770   3
  -7  -6   3 171.050 199.176   1
  -7  -6   1 420.396 269.423   8
  -7  -6   1 1250.60 421.745   1
   7   6  -1 778.979 326.892   3
  -7  -6  -1 1292.67 398.239   8
   7   6   1 767.413 287.939   3
   7   6   3 507.566 214.269   2
  -7  -6  -3 1004.76 356.414   8
   7   6   3 629.794 336.298   4
   7   6   3 621.524 260.797   3
  -7  -6  -5 2018.86 484.289   8
   7   6   5 1814.88 486.296   4
   7   6   5 1325.39 324.022   3
  -7  -6  -7 298.198 270.430   5
  -7  -6  -7 1190.49 361.993   8
   7   6   7 1026.00 395.934   4
   7   6   7 424.080 203.827   3
  -7  -6  -9-154.652 287.661   5
  -7  -6  -9 617.835 313.343   8
  -7  -6 -11 295.561 239.196   8
   7   6  11 310.107 423.570   4
  -7  -7   3 518.284 261.527   8
   7   7  -3 601.107 338.971   3
  -7  -7   1 292.684 234.748   8
  -7  -7   1 319.105 232.964   1
   7   7  -1 29.0816 208.211   3
  -7  -7  -1 292.087 238.809   8
   7   7   1 868.854 331.080   3
  -7  -7  -3 729.955 313.779   8
   7   7   3 926.310 308.168   3
  -7  -7  -5 615.688 310.631   8
   7   7   5 672.492 354.476   4
   7   7   5 715.668 270.131   3
  -7  -7  -7 588.455 308.672   8
   7   7   7 100.836 297.569   4
   7   7   7 357.690 205.209   3
  -7  -7  -9 1168.97 432.875   5
  -7  -7  -9 692.599 295.455   8
   7   7   9 1000.07 501.187   4
  -7  -7 -11 176.090 236.295   8
   7   8  -1 441.573 279.961   3
  -7  -8  -1 82.0087 177.877   8
   7   8   1 280.490 251.808   3
  -7  -8  -3 693.252 329.772   8
   7   8   3 331.945 219.760   3
  -7  -8  -5 198.483 254.107   8
   7   8   5 493.387 256.371   3
  -7  -8  -7 665.059 323.104   8
   7   8   7 89.8029 294.102   4
   7   8   7 156.628 187.288   3
   7   8   9 328.198 368.295   4
   7   9   1-375.622 286.466   3
   7   9   3-147.165 210.853   3
   7   9   5-130.406 194.927   3
   7   9   7 629.707 364.176   4
   7   9   7 86.4432 153.924   3
   7   9   9 278.934 291.699   4
  -8   5   2 401.708 281.478   7
  -8   5   0 2.11289 249.110   7
  -8   5  -2 89.2897 182.933   7
   8  -5   2 850.021 383.502   6
  -8   4   4 185.393 224.493   7
  -8   4   4 314.532 240.590   1
   8  -4  -2 327.380 299.523   6
  -8   4   2-3.02318 156.245   1
  -8   4   2 523.957 327.119   7
  -8   4   0 533.727 304.783   7
   8  -4   0 82.2961 213.065   6
  -8   4  -2 599.908 316.150   7
   8  -4   2 556.230 328.467   6
  -8   4  -4 467.463 267.005   7
   8  -4   4 207.582 232.175   6
   8  -4   6 180.898 179.363   6
   8  -3  -4 891.793 454.436   6
  -8   3   4 816.438 334.102   7
  -8   3   4 57.5506 198.247   1
   8  -3  -2 461.085 327.422   6
  -8   3   2 584.595 247.034   1
  -8   3   2 811.816 333.448   7
  -8   3   0 781.198 337.280   7
   8  -3   0 885.802 378.235   6
  -8   3  -2 458.844 257.246   7
   8  -3   2 384.317 209.531   6
  -8   3  -4 585.545 249.010   5
  -8   3  -4 310.859 245.740   7
   8  -3   4 649.490 325.686   6
  -8   3  -6 1217.26 339.869   5
  -8   3  -6 1025.51 380.656   7
   8  -3   6 624.392 316.339   6
  -8   3  -8 381.274 244.046   5
   8  -3   8-43.1550 240.765   6
   8  -2  -4 215.241 284.526   6
  -8   2   4 87.4470 169.961   7
  -8   2   4-131.211 201.155   1
   8  -2  -2 792.710 357.376   6
   8  -2  -2 296.258 255.737   2
  -8   2   2 596.761 268.026   7
  -8   2   2 668.635 288.271   1
   8  -2   0 1214.48 417.666   6
  -8   2   0 903.482 332.082   1
  -8   2   0 1072.29 362.211   7
  -8   2  -2 2359.09 492.770   7
   8  -2   2 2085.68 479.341   6
  -8   2  -4 610.324 254.654   5
  -8   2  -4 782.959 318.198   7
   8  -2   4 446.903 277.542   6
  -8   2  -6-150.797 151.019   5
   8  -2   6-98.4473 238.980   6
   8  -2   6-161.307 239.170   4
  -8   2  -8 2069.60 500.451   5
   8  -2   8 1247.76 406.015   6
  -8   2 -10-195.544 224.107   5
   8  -2  10 194.516 222.310   6
   8  -1  -4 661.425 356.651   6
   8  -1  -4 712.358 420.902   2
  -8   1   4 89.1139 230.211   1
   8  -1  -2 150.349 187.805   6
   8  -1  -2 486.801 316.049   2
  -8   1   2 446.269 240.798   7
  -8   1   2 300.951 296.838   1
   8  -1   0 701.413 315.993   6
  -8   1   0 601.955 288.702   1
  -8   1   0 481.459 227.166   7
  -8   1  -2 1304.16 347.272   7
   8  -1   2 2300.88 460.110   6
  -8   1  -4 871.307 298.893   5
  -8   1  -4 1218.81 382.746   7
   8  -1   4 651.982 296.958   4
   8  -1   4 609.064 283.785   6
  -8   1  -6 1303.17 375.214   5
   8  -1   6 782.191 309.246   6
   8  -1   6 1213.37 396.101   4
  -8   1  -8-6.77742 180.299   5
   8  -1   8 47.1539 185.133   6
   8  -1   8 401.412 295.342   4
  -8   1 -10 780.456 333.518   5
   8   0  -6 50.9836 219.071   6
   8   0  -4-255.192 276.029   6
   8   0  -4 214.995 283.943   2
  -8   0   4-118.836 266.730   1
   8   0  -2 371.678 276.696   6
   8   0  -2 773.523 377.559   2
  -8   0   2 826.378 359.267   1
   8   0   0 978.783 320.922   6
   8   0   0 796.715 354.694   2
  -8   0   0 665.239 291.682   1
  -8   0   0 1233.61 306.054   7
   8   0   0 882.915 257.959   4
  -8   0  -2 2577.84 441.031   7
   8   0   2 1718.53 374.392   4
   8   0   2 2289.26 464.278   6
   8   0   4 2610.75 474.365   4
   8   0   4 2856.81 471.483   6
  -8   0  -6 234.999 251.365   5
   8   0   6 520.892 281.625   4
   8   0   6 593.969 270.718   6
  -8   0  -8 972.353 355.003   5
   8   0   8 1218.20 418.642   4
   8   0   8 750.401 292.061   6
  -8   0 -10 872.954 396.692   5
   8   1  -4 130.109 264.418   6
   8   1  -4 120.294 316.749   2
  -8  -1   4 504.537 323.997   1
   8   1  -2 433.659 291.164   6
   8   1  -2 675.319 362.155   2
  -8  -1   2 228.261 231.076   1
   8   1   0 1044.39 322.682   6
   8   1   0 997.837 372.393   2
  -8  -1   0 843.820 351.790   1
  -8  -1   0 597.402 207.472   7
   8   1   0 453.473 186.031   4
  -8  -1  -2 1135.52 276.146   7
   8   1   2 748.365 242.183   4
   8   1   2 518.795 226.759   6
   8   1   4 2229.39 433.752   4
   8   1   4 2040.65 373.942   6
  -8  -1  -6 1892.73 475.656   5
   8   1   6 1492.77 396.460   4
   8   1   6 1556.52 324.596   6
  -8  -1  -8 651.366 333.015   5
   8   1   8 1257.67 410.371   4
  -8  -1 -10 363.898 304.529   5
   8   2  -4 283.410 237.620   6
   8   2  -4 64.0605 299.013   2
   8   2  -2 750.620 282.583   6
   8   2  -2 167.777 208.733   2
  -8  -2   2 648.004 349.382   1
   8   2   0 273.491 180.400   6
   8   2   0 115.108 199.746   2
  -8  -2   0 537.823 285.991   1
   8   2   2 1585.70 369.040   2
   8   2   2 904.085 278.961   4
   8   2   2 1067.74 283.789   6
   8   2   4 881.380 296.160   4
  -8  -2  -6 1660.05 438.934   5
   8   2   6 1718.32 421.003   4
  -8  -2  -8 486.128 302.964   5
   8   2   8 268.584 267.456   4
  -8  -2 -10 563.495 326.117   5
   8   2  10 1104.06 403.792   4
   8   3  -4 404.332 330.286   2
   8   3  -2 428.535 324.542   2
  -8  -3   2-79.1213 247.056   1
   8   3   0 1157.69 382.640   2
  -8  -3   0 954.256 373.330   1
   8   3   2 32.3436 150.856   2
   8   3   2 280.260 208.696   4
   8   3   4 1106.89 325.930   4
  -8  -3  -6 801.963 333.624   5
   8   3   6 185.216 200.216   4
  -8  -3  -8 1123.98 422.739   5
   8   3   8 826.743 354.966   4
   8   3  10 305.174 318.607   4
   8   4  -4 114.629 181.801   3
   8   4  -2 388.940 270.929   2
   8   4  -2 100.302 170.427   3
   8   4   0 342.745 322.732   2
  -8  -4   0-154.039 220.541   1
   8   4   2 826.763 283.890   2
   8   4   4 1041.44 340.375   4
   8   4   6 305.887 300.578   4
  -8  -4  -8 514.237 320.720   5
   8   4   8 423.140 305.883   4
   8   4  10 258.883 353.222   4
   8   5  -2-57.7065 153.537   3
   8   5   0 541.696 298.184   2
  -8  -5   0-7.95717 167.463   1
   8   5   2 90.5502 164.818   2
   8   5   4 364.792 278.636   4
   8   5   6 660.945 341.599   4
  -8  -5  -8 710.118 384.243   5
   8   5   8-199.511 293.353   4
   8   5  10-2.24862 287.827   4
   8   6  -2-337.818 222.798   3
  -8  -6  -2 238.563 282.451   8
  -8  -6  -4 846.513 352.929   8
  -8  -6  -6 287.392 286.150   8
   8   6   6 947.937 431.626   4
  -8  -6  -8-79.7819 194.050   8
   8   6   8-2.14785 318.279   4
   8   6  10 225.602 404.625   4
   8   7   8 187.192 355.611   4
  -9   3   1 401.116 275.256   7
  -9   3  -1 225.941 266.888   7
   9  -3   1 418.794 272.968   6
  -9   3  -3 346.505 264.617   7
   9  -3   3 1.98427 174.174   6
   9  -3   5 6.11065 184.649   6
   9  -2  -1 302.655 217.098   6
  -9   2   1-146.638 199.511   1
  -9   2  -1 405.562 246.346   7
   9  -2   1 417.862 286.604   6
  -9   2  -3 282.470 191.053   7
   9  -2   3-72.5721 241.994   6
  -9   2  -5-171.374 183.264   7
   9  -2   5-140.031 209.816   6
   9  -2   5-74.0962 203.151   4
   9  -1  -3 128.017 243.264   6
   9  -1  -1 458.556 285.691   6
  -9   1   1 220.784 246.516   1
   9  -1   1 164.433 176.478   4
   9  -1   1 260.525 230.155   6
  -9   1  -3 784.865 286.027   7
   9  -1   3 698.312 319.401   4
   9  -1   3 409.885 256.562   6
   9  -1   5 47.0963 221.281   4
  -9   1  -7 437.068 288.345   5
   9   0  -3 222.087 272.224   6
   9   0  -1-675.800 357.833   2
  -9   0   1 36.0477 198.014   1
   9   0   1-3.04920 183.875   6
   9   0   3 587.159 267.831   4
   9   0   5 277.495 216.503   4
  -9   0  -7-316.381 241.131   5
   9   0   7 495.423 335.105   4
   9   1  -1 1046.34 450.238   2
   9   1   3 598.939 250.449   4
   9   1   5 405.614 257.601   4
  -9  -1  -7-106.248 211.097   5
   9   1   7 392.900 261.984   4
   9   2  -1 50.9146 264.977   2
   9   2   1 411.399 241.454   2
   9   2   5 944.700 357.950   4
  -9  -2  -7 488.961 304.289   5
   9   2   7-234.340 288.069   4
   9   3  -1 185.126 210.270   2
   9   3   1 295.137 256.857   2
   9   3   5 547.413 303.163   4
   9   3   7 276.816 230.733   4
   9   4  -1 22.6966 212.309   2
   9   4   7 194.438 253.534   4
   0   0   0    0.00    0.00   0

TITL exp_1340 in P-1
REM P-1 (#2 in standard setting)
CELL 0.71073   7.167037   9.249421  11.888003  76.6212  77.6869  83.7860
ZERR    2.00   0.000436   0.000578   0.000959   0.0061   0.0060   0.0051
LATT  1
SFAC C H F Fe
UNIT 32.00 20.00 12.00 2.00
TREF
HKLF 4
END
;
_shelx_hkl_checksum              4569
_olex2_date_sample_data_collection 2018-12-13
_olex2_exptl_crystal_mounting_method 'Inside 1.0 mm X-ray capillary'
_olex2_submission_special_instructions 'No special instructions were received'
_oxdiff_exptl_absorpt_empirical_details
;
Empirical correction (ABSPACK) includes:
- Absorption correction using spherical harmonics
- Frame scaling
;
_oxdiff_exptl_absorpt_empirical_full_max 2.016
_oxdiff_exptl_absorpt_empirical_full_min 0.792
loop_
_space_group_symop_operation_xyz
'x, y, z'
'x+1/2, y, z+1/2'
'-x, -y, -z'
'-x+1/2, -y, -z+1/2'
loop_
_atom_site_label
_atom_site_type_symbol
_atom_site_fract_x
_atom_site_fract_y
_atom_site_fract_z
_atom_site_U_iso_or_equiv
_atom_site_adp_type
_atom_site_occupancy
_atom_site_site_symmetry_order
_atom_site_calc_flag
_atom_site_refinement_flags_posn
_atom_site_refinement_flags_adp
_atom_site_refinement_flags_occupancy
_atom_site_disorder_assembly
_atom_site_disorder_group
Fe1 Fe 0.2500 0.5000 0.2500 0.0619(3) Uani 1 2 d DS TU P . .
C7 C 0.3156(14) 0.6905(11) 0.1288(9) 0.093(3) Uani 0.5 1 d D U . A 1
H7 H 0.4336 0.7324 0.1076 0.112 Uiso 0.5 1 calc R . . A 1
C8 C 0.2561(15) 0.5848(12) 0.0765(7) 0.083(3) Uani 0.5 1 d D U . A 1
H8 H 0.3283 0.5446 0.0149 0.100 Uiso 0.5 1 calc R . . A 1
C9 C 0.0693(15) 0.5517(10) 0.1344(8) 0.074(2) Uani 0.5 1 d D U . A 1
H9 H -0.0046 0.4858 0.1175 0.088 Uiso 0.5 1 calc R . . A 1
C10 C 0.0123(12) 0.6349(10) 0.2221(8) 0.072(2) Uani 0.5 1 d D U . A 1
H10 H -0.1053 0.6338 0.2737 0.087 Uiso 0.5 1 calc R . . A 1
C11 C 0.1653(16) 0.7200(9) 0.2177(9) 0.079(2) Uani 0.5 1 d D U . A 1
H11 H 0.1662 0.7855 0.2663 0.095 Uiso 0.5 1 calc R . . A 1
F1 F 0.3607(3) 0.9815(4) -0.1201(3) 0.1483(11) Uani 1 1 d . . . . .
F2 F 0.1015(5) 0.8120(3) -0.1484(2) 0.1419(10) Uani 1 1 d . . . . .
F3 F -0.2596(5) 0.8289(3) -0.0272(3) 0.1544(11) Uani 1 1 d . . . . .
C1 C 0.1810(5) 0.9909(4) -0.0615(3) 0.0861(10) Uani 1 1 d . . . . .
C2 C 0.0486(6) 0.9054(3) -0.0748(3) 0.0831(9) Uani 1 1 d . . . . .
C3 C -0.1306(5) 0.9146(4) -0.0141(3) 0.0856(9) Uani 1 1 d . . . . .
C7A C 0.0190(11) 0.5840(13) 0.1784(10) 0.085(3) Uani 0.5 1 d D U . A 2
H7A H -0.0996 0.5431 0.1982 0.102 Uiso 0.5 1 calc R . . A 2
C8A C 0.0798(14) 0.6906(11) 0.2328(9) 0.078(2) Uani 0.5 1 d D U . A 2
H8A H 0.0077 0.7312 0.2942 0.094 Uiso 0.5 1 calc R . . A 2
C9A C 0.2680(14) 0.7210(8) 0.1756(7) 0.0677(19) Uani 0.5 1 d D U . A 2
H9A H 0.3425 0.7860 0.1932 0.081 Uiso 0.5 1 calc R . . A 2
C10A C 0.3258(11) 0.6394(8) 0.0887(6) 0.0631(17) Uani 0.5 1 d D U . A 2
H10A H 0.4447 0.6407 0.0385 0.076 Uiso 0.5 1 calc R . . A 2
C11A C 0.1738(15) 0.5538(10) 0.0893(8) 0.068(2) Uani 0.5 1 d D U . A 2
H11A H 0.1752 0.4889 0.0399 0.081 Uiso 0.5 1 calc R . . A 2
loop_
_atom_site_aniso_label
_atom_site_aniso_U_11
_atom_site_aniso_U_22
_atom_site_aniso_U_33
_atom_site_aniso_U_23
_atom_site_aniso_U_13
_atom_site_aniso_U_12
Fe1 0.0740(4) 0.0527(4) 0.0578(4) -0.0047(2) -0.0216(3) 0.0037(2)
C7 0.105(5) 0.071(9) 0.090(10) 0.008(4) -0.016(4) -0.010(5)
C8 0.096(7) 0.085(9) 0.057(4) -0.002(4) -0.014(5) 0.011(5)
C9 0.086(6) 0.078(4) 0.060(7) -0.017(4) -0.027(4) 0.014(5)
C10 0.086(4) 0.063(6) 0.075(5) -0.020(3) -0.035(3) 0.015(3)
C11 0.098(8) 0.053(4) 0.085(7) -0.009(5) -0.031(5) 0.009(6)
F1 0.0945(15) 0.173(3) 0.131(2) 0.0162(18) 0.0126(14) 0.0224(15)
F2 0.229(3) 0.1024(17) 0.1010(17) -0.0458(14) -0.0486(18) 0.0451(18)
F3 0.164(2) 0.126(2) 0.195(3) -0.0095(19) -0.087(2) -0.0528(19)
C1 0.077(2) 0.085(2) 0.074(2) 0.0102(17) -0.0071(16) 0.0165(17)
C2 0.119(3) 0.0611(17) 0.0693(19) -0.0124(14) -0.0304(18) 0.0162(18)
C3 0.096(2) 0.0686(19) 0.093(2) 0.0035(17) -0.040(2) -0.0105(17)
C7A 0.069(4) 0.096(9) 0.086(9) -0.006(4) -0.024(4) 0.006(4)
C8A 0.080(6) 0.067(8) 0.076(4) -0.007(4) -0.012(5) 0.018(4)
C9A 0.088(5) 0.054(3) 0.056(6) -0.011(3) -0.009(4) 0.006(4)
C10A 0.086(4) 0.048(5) 0.059(4) -0.012(3) -0.019(3) -0.008(3)
C11A 0.076(6) 0.069(4) 0.060(5) -0.004(4) -0.026(4) -0.009(5)
loop_
_atom_type_symbol
_atom_type_description
_atom_type_scat_dispersion_real
_atom_type_scat_dispersion_imag
_atom_type_scat_source
C C 0.0033 0.0016 'International Tables Vol C Tables 4.2.6.8 and 6.1.1.4'
H H 0.0000 0.0000 'International Tables Vol C Tables 4.2.6.8 and 6.1.1.4'
F F 0.0171 0.0103 'International Tables Vol C Tables 4.2.6.8 and 6.1.1.4'
Fe Fe 0.3463 0.8444 'International Tables Vol C Tables 4.2.6.8 and 6.1.1.4'
loop_
_exptl_crystal_face_index_h
_exptl_crystal_face_index_k
_exptl_crystal_face_index_l
_exptl_crystal_face_perp_dist
0 2 16 0.1688
-2 -11 3 0.3527
-2 10 12 0.1016
1 -7 -15 0.1000
0 11 -6 0.1527
-1 7 15 0.1000
-7 7 -8 0.1653
8 -2 10 0.2091
2 -8 10 0.2361
-5 2 -14 0.1401
1 6 -12 0.1415
0 -5 13 0.2332
-5 10 1 0.1680
8 0 12 0.2066
1 -9 -13 0.1120
3 -12 -3 0.2141
3 -11 5 0.2285
6 -9 6 0.2201
-8 5 -7 0.1646
7 6 -6 0.2193
2 13 4 0.1666
loop_
_geom_angle_atom_site_label_1
_geom_angle_atom_site_label_2
_geom_angle_atom_site_label_3
_geom_angle
_geom_angle_site_symmetry_1
_geom_angle_site_symmetry_3
C7 Fe1 C7 180.0 4_565 .
C7 Fe1 C9 68.2(4) . .
C7 Fe1 C9 111.8(4) . 4_565
C7 Fe1 C9 111.8(4) 4_565 .
C7 Fe1 C9 68.2(4) 4_565 4_565
C7 Fe1 C10 112.0(4) 4_565 .
C7 Fe1 C10 68.0(4) . .
C7 Fe1 C10 112.0(4) . 4_565
C7 Fe1 C10 68.0(4) 4_565 4_565
C7 Fe1 C11 139.9(3) 4_565 .
C7 Fe1 C11 40.1(3) 4_565 4_565
C7 Fe1 C11 139.9(3) . 4_565
C7 Fe1 C11 40.1(3) . .
C8 Fe1 C7 41.0(4) 4_565 4_565
C8 Fe1 C7 139.0(4) . 4_565
C8 Fe1 C7 41.0(4) . .
C8 Fe1 C7 139.0(4) 4_565 .
C8 Fe1 C8 180.0 4_565 .
C8 Fe1 C9 40.4(3) . .
C8 Fe1 C9 139.6(3) 4_565 .
C8 Fe1 C9 139.6(3) . 4_565
C8 Fe1 C9 40.4(3) 4_565 4_565
C8 Fe1 C10 111.9(4) 4_565 .
C8 Fe1 C10 68.1(4) . .
C8 Fe1 C10 68.1(4) 4_565 4_565
C8 Fe1 C10 111.9(4) . 4_565
C8 Fe1 C11 68.0(4) . .
C8 Fe1 C11 68.0(4) 4_565 4_565
C8 Fe1 C11 112.0(4) . 4_565
C8 Fe1 C11 112.0(4) 4_565 .
C9 Fe1 C9 180.0(4) 4_565 .
C9 Fe1 C10 139.7(3) . 4_565
C9 Fe1 C10 139.7(3) 4_565 .
C9 Fe1 C10 40.3(3) 4_565 4_565
C9 Fe1 C10 40.3(3) . .
C9 Fe1 C11 67.7(4) 4_565 4_565
C9 Fe1 C11 67.7(4) . .
C9 Fe1 C11 112.3(4) . 4_565
C9 Fe1 C11 112.3(4) 4_565 .
C10 Fe1 C10 180.0 . 4_565
C11 Fe1 C10 139.7(3) 4_565 .
C11 Fe1 C10 40.3(3) . .
C11 Fe1 C10 40.3(3) 4_565 4_565
C11 Fe1 C10 139.7(3) . 4_565
C11 Fe1 C11 180.0(6) 4_565 .
C7A Fe1 C7A 180.0 4_565 .
C7A Fe1 C8A 41.8(4) . .
C7A Fe1 C8A 138.2(4) 4_565 .
C7A Fe1 C8A 41.8(4) 4_565 4_565
C7A Fe1 C8A 138.2(4) . 4_565
C7A Fe1 C9A 111.4(4) . 4_565
C7A Fe1 C9A 68.6(4) . .
C7A Fe1 C9A 68.6(4) 4_565 4_565
C7A Fe1 C9A 111.4(4) 4_565 .
C7A Fe1 C10A 68.3(4) . .
C7A Fe1 C10A 111.7(4) . 4_565
C7A Fe1 C10A 111.7(4) 4_565 .
C7A Fe1 C10A 68.3(4) 4_565 4_565
C7A Fe1 C11A 40.8(3) . .
C7A Fe1 C11A 139.2(3) . 4_565
C7A Fe1 C11A 40.8(3) 4_565 4_565
C7A Fe1 C11A 139.2(3) 4_565 .
C8A Fe1 C8A 180.0(7) 4_565 .
C8A Fe1 C9A 139.7(3) 4_565 .
C8A Fe1 C9A 40.3(3) 4_565 4_565
C8A Fe1 C9A 139.7(3) . 4_565
C8A Fe1 C9A 40.3(3) . .
C8A Fe1 C10A 112.2(3) 4_565 .
C8A Fe1 C10A 112.2(3) . 4_565
C8A Fe1 C10A 67.8(3) . .
C8A Fe1 C10A 67.8(3) 4_565 4_565
C8A Fe1 C11A 69.0(4) . .
C8A Fe1 C11A 69.0(4) 4_565 4_565
C8A Fe1 C11A 111.0(4) 4_565 .
C8A Fe1 C11A 111.0(4) . 4_565
C9A Fe1 C9A 180.0(5) 4_565 .
C9A Fe1 C10A 140.4(3) . 4_565
C9A Fe1 C10A 39.6(3) . .
C9A Fe1 C10A 140.4(3) 4_565 .
C9A Fe1 C10A 39.6(3) 4_565 4_565
C10A Fe1 C10A 180.0 4_565 .
C11A Fe1 C9A 112.2(3) . 4_565
C11A Fe1 C9A 112.2(3) 4_565 .
C11A Fe1 C9A 67.8(3) . .
C11A Fe1 C9A 67.8(3) 4_565 4_565
C11A Fe1 C10A 40.5(3) . .
C11A Fe1 C10A 139.5(3) . 4_565
C11A Fe1 C10A 139.5(3) 4_565 .
C11A Fe1 C10A 40.5(3) 4_565 4_565
C11A Fe1 C11A 180.0 . 4_565
Fe1 C7 H7 126.0 . .
C8 C7 Fe1 69.3(5) . .
C8 C7 H7 126.2 . .
C11 C7 Fe1 70.1(5) . .
C11 C7 H7 126.2 . .
C11 C7 C8 107.6(8) . .
Fe1 C8 H8 125.6 . .
C7 C8 Fe1 69.8(5) . .
C7 C8 H8 126.2 . .
C9 C8 Fe1 70.0(4) . .
C9 C8 C7 107.6(7) . .
C9 C8 H8 126.2 . .
Fe1 C9 H9 126.0 . .
C8 C9 Fe1 69.5(5) . .
C8 C9 H9 125.8 . .
C8 C9 C10 108.5(8) . .
C10 C9 Fe1 70.2(4) . .
C10 C9 H9 125.8 . .
Fe1 C10 H10 126.3 . .
C9 C10 Fe1 69.4(4) . .
C9 C10 H10 126.3 . .
C9 C10 C11 107.4(8) . .
C11 C10 Fe1 69.5(4) . .
C11 C10 H10 126.3 . .
Fe1 C11 H11 126.1 . .
C7 C11 Fe1 69.8(5) . .
C7 C11 C10 108.9(8) . .
C7 C11 H11 125.6 . .
C10 C11 Fe1 70.1(4) . .
C10 C11 H11 125.6 . .
F1 C1 C2 120.5(4) . .
F1 C1 C3 119.8(4) . 3_575
C2 C1 C3 119.7(3) . 3_575
F2 C2 C1 118.8(4) . .
C3 C2 F2 121.3(4) . .
C3 C2 C1 119.8(3) . .
F3 C3 C1 120.2(4) . 3_575
F3 C3 C2 119.3(4) . .
C2 C3 C1 120.5(3) . 3_575
Fe1 C7A H7A 125.7 . .
C8A C7A Fe1 69.3(5) . .
C8A C7A H7A 126.4 . .
C11A C7A Fe1 70.1(4) . .
C11A C7A H7A 126.4 . .
C11A C7A C8A 107.1(7) . .
Fe1 C8A H8A 126.0 . .
C7A C8A Fe1 68.8(5) . .
C7A C8A H8A 126.5 . .
C9A C8A Fe1 70.2(4) . .
C9A C8A C7A 107.0(7) . .
C9A C8A H8A 126.5 . .
Fe1 C9A H9A 126.2 . .
C8A C9A Fe1 69.5(5) . .
C8A C9A H9A 125.3 . .
C10A C9A Fe1 70.6(4) . .
C10A C9A C8A 109.4(7) . .
C10A C9A H9A 125.3 . .
Fe1 C10A H10A 126.9 . .
C9A C10A Fe1 69.7(4) . .
C9A C10A H10A 125.8 . .
C9A C10A C11A 108.5(7) . .
C11A C10A Fe1 69.2(4) . .
C11A C10A H10A 125.8 . .
Fe1 C11A H11A 126.2 . .
C7A C11A Fe1 69.1(5) . .
C7A C11A H11A 126.0 . .
C10A C11A Fe1 70.3(4) . .
C10A C11A C7A 108.0(7) . .
C10A C11A H11A 126.0 . .
loop_
_geom_bond_atom_site_label_1
_geom_bond_atom_site_label_2
_geom_bond_distance
_geom_bond_site_symmetry_2
Fe1 C7 2.029(8) .
Fe1 C7 2.029(8) 4_565
Fe1 C8 2.022(8) 4_565
Fe1 C8 2.022(8) .
Fe1 C9 2.029(8) .
Fe1 C9 2.029(8) 4_565
Fe1 C10 2.039(7) 4_565
Fe1 C10 2.039(7) .
Fe1 C11 2.032(8) .
Fe1 C11 2.032(8) 4_565
Fe1 C7A 2.021(8) 4_565
Fe1 C7A 2.021(8) .
Fe1 C8A 2.028(8) .
Fe1 C8A 2.028(8) 4_565
Fe1 C9A 2.037(7) .
Fe1 C9A 2.037(7) 4_565
Fe1 C10A 2.049(7) .
Fe1 C10A 2.049(7) 4_565
Fe1 C11A 2.035(8) 4_565
Fe1 C11A 2.035(8) .
C7 H7 0.9300 .
C7 C8 1.417(12) .
C7 C11 1.391(12) .
C8 H8 0.9300 .
C8 C9 1.400(11) .
C9 H9 0.9300 .
C9 C10 1.402(10) .
C10 H10 0.9300 .
C10 C11 1.404(11) .
C11 H11 0.9300 .
F1 C1 1.331(4) .
F2 C2 1.339(4) .
F3 C3 1.336(4) .
C1 C2 1.355(5) .
C1 C3 1.363(5) 3_575
C2 C3 1.337(5) .
C3 C1 1.363(5) 3_575
C7A H7A 0.9300 .
C7A C8A 1.445(12) .
C7A C11A 1.413(11) .
C8A H8A 0.9300 .
C8A C9A 1.401(11) .
C9A H9A 0.9300 .
C9A C10A 1.385(9) .
C10A H10A 0.9300 .
C10A C11A 1.413(10) .
C11A H11A 0.9300 .
loop_
_geom_torsion_atom_site_label_1
_geom_torsion_atom_site_label_2
_geom_torsion_atom_site_label_3
_geom_torsion_atom_site_label_4
_geom_torsion
_geom_torsion_site_symmetry_1
_geom_torsion_site_symmetry_4
Fe1 C7 C8 C9 60.1(6) . .
Fe1 C7 C11 C10 -59.5(6) . .
Fe1 C8 C9 C10 59.6(6) . .
Fe1 C9 C10 C11 59.4(6) . .
Fe1 C10 C11 C7 59.3(6) . .
Fe1 C7A C8A C9A 60.1(6) . .
Fe1 C7A C11A C10A -59.8(6) . .
Fe1 C8A C9A C10A 59.5(6) . .
Fe1 C9A C10A C11A 58.5(6) . .
Fe1 C10A C11A C7A 59.0(6) . .
C7 C8 C9 Fe1 -59.9(6) . .
C7 C8 C9 C10 -0.2(10) . .
C8 C7 C11 Fe1 59.4(6) . .
C8 C7 C11 C10 -0.1(10) . .
C8 C9 C10 Fe1 -59.2(6) . .
C8 C9 C10 C11 0.2(10) . .
C9 C10 C11 Fe1 -59.3(6) . .
C9 C10 C11 C7 -0.1(10) . .
C11 C7 C8 Fe1 -59.9(6) . .
C11 C7 C8 C9 0.2(10) . .
F1 C1 C2 F2 -0.3(5) . .
F1 C1 C2 C3 179.1(3) . .
F2 C2 C3 F3 -0.1(5) . .
F2 C2 C3 C1 179.2(3) . 3_575
C1 C2 C3 F3 -179.5(3) . .
C1 C2 C3 C1 -0.2(5) . 3_575
C3 C1 C2 F2 -179.2(3) 3_575 .
C3 C1 C2 C3 0.2(5) 3_575 .
C7A C8A C9A Fe1 -59.3(6) . .
C7A C8A C9A C10A 0.2(10) . .
C8A C7A C11A Fe1 59.7(6) . .
C8A C7A C11A C10A -0.1(10) . .
C8A C9A C10A Fe1 -58.8(6) . .
C8A C9A C10A C11A -0.3(10) . .
C9A C10A C11A Fe1 -58.8(6) . .
C9A C10A C11A C7A 0.2(9) . .
C11A C7A C8A Fe1 -60.2(6) . .
C11A C7A C8A C9A -0.1(10) . .
loop_
_exptl_oxdiff_crystal_face_indexfrac_h
_exptl_oxdiff_crystal_face_indexfrac_k
_exptl_oxdiff_crystal_face_indexfrac_l
_exptl_oxdiff_crystal_face_x
_exptl_oxdiff_crystal_face_y
_exptl_oxdiff_crystal_face_z
-0.2686 2.3142 16.2646 0.2326 0.9726 0.0006
-2.3171 -11.4787 3.4347 0.9057 0.0887 0.4145
-1.5710 10.0117 11.7178 -0.4931 0.8699 -0.0090
1.0583 -7.2680 -14.6455 0.2002 -0.9797 0.0091
0.3919 10.8243 -5.8249 -0.9583 -0.1780 -0.2234
-1.0583 7.2680 14.6455 -0.2002 0.9797 -0.0091
-6.5258 6.7262 -8.0051 -0.8524 -0.1597 0.4979
8.3870 -2.3006 9.8500 0.6045 0.2777 -0.7466
1.7194 -8.0616 10.3378 0.9094 0.4154 -0.0188
-5.4931 2.1471 -14.0868 -0.6385 -0.6081 0.4717
1.4474 5.5371 -12.4381 -0.7039 -0.6684 -0.2404
0.2367 -4.9595 13.4864 0.7230 0.6871 0.0723
-5.4180 10.1821 0.7090 -0.8685 0.3582 0.3427
7.9371 -0.0535 12.2859 0.4868 0.4647 -0.7396
0.5511 -9.3606 -13.2918 0.3820 -0.9195 0.0933
3.2162 -11.8266 -2.8979 0.8899 -0.4430 -0.1087
2.8729 -10.7198 4.8494 0.9958 0.0268 -0.0881
5.5526 -8.7743 5.6806 0.9273 0.0244 -0.3735
-8.2507 4.8523 -6.8016 -0.7171 -0.0684 0.6936
6.7252 6.2261 -6.1860 -0.4837 -0.4578 -0.7460
2.0871 12.9699 3.7033 -0.8420 0.3487 -0.4116
