#------------------------------------------------------------------------------
#$Date: 2019-11-26 07:04:47 +0200 (Tue, 26 Nov 2019) $
#$Revision: 242904 $
#$URL: file:///home/coder/svn-repositories/cod/cif/4/13/30/4133057.cif $
#------------------------------------------------------------------------------
#
# This file is available in the Crystallography Open Database (COD),
# http://www.crystallography.net/
#
# All data on this site have been placed in the public domain by the
# contributors.
#
data_4133057
loop_
_publ_author_name
'Hua, Xiu-Ni'
'Liao, Wei-Qiang'
'Tang, Yuan-Yuan'
'Li, Peng-Fei'
'Shi, Ping-Ping'
'Zhao, Dewei'
'Xiong, Ren-Gen'
_publ_section_title
;
 A Room-Temperature Hybrid Lead Iodide Perovskite Ferroelectric.
;
_journal_issue                   38
_journal_name_full               'Journal of the American Chemical Society'
_journal_page_first              12296
_journal_page_last               12302
_journal_paper_doi               10.1021/jacs.8b08286
_journal_volume                  140
_journal_year                    2018
_chemical_formula_moiety         '(C H3)4 N, PbI3'
_chemical_formula_sum            'C4 H12 I3 N Pb'
_chemical_formula_weight         662.04
_space_group_crystal_system      hexagonal
_space_group_IT_number           176
_space_group_name_Hall           '-P 6c'
_space_group_name_H-M_alt        'P 63/m'
_atom_sites_solution_hydrogens   difmap
_audit_creation_method           SHELXL-2014/7
_cell_angle_alpha                90
_cell_angle_beta                 90
_cell_angle_gamma                120
_cell_formula_units_Z            2
_cell_length_a                   9.8122(2)
_cell_length_b                   9.8122(2)
_cell_length_c                   7.9417(2)
_cell_measurement_reflns_used    5413
_cell_measurement_temperature    298(2)
_cell_measurement_theta_max      31.1400
_cell_measurement_theta_min      3.4910
_cell_volume                     662.18(3)
_computing_structure_refinement  'SHELXL-2014/7 (Sheldrick, 2014)'
_diffrn_ambient_temperature      298(2)
_diffrn_measured_fraction_theta_full 0.995
_diffrn_measured_fraction_theta_max 0.912
_diffrn_measurement_device_type  'XtaLAB Synergy R, DW system, HyPix'
_diffrn_radiation_type           MoK\a
_diffrn_radiation_wavelength     0.71073
_diffrn_reflns_av_R_equivalents  0.0259
_diffrn_reflns_av_unetI/netI     0.0118
_diffrn_reflns_Laue_measured_fraction_full 0.995
_diffrn_reflns_Laue_measured_fraction_max 0.912
_diffrn_reflns_limit_h_max       13
_diffrn_reflns_limit_h_min       -14
_diffrn_reflns_limit_k_max       13
_diffrn_reflns_limit_k_min       -13
_diffrn_reflns_limit_l_max       10
_diffrn_reflns_limit_l_min       -10
_diffrn_reflns_number            8891
_diffrn_reflns_point_group_measured_fraction_full 0.995
_diffrn_reflns_point_group_measured_fraction_max 0.912
_diffrn_reflns_theta_full        25.242
_diffrn_reflns_theta_max         31.500
_diffrn_reflns_theta_min         2.397
_exptl_absorpt_coefficient_mu    19.681
_exptl_absorpt_correction_T_max  0.013
_exptl_absorpt_correction_T_min  0.008
_exptl_absorpt_correction_type   multi-scan
_exptl_crystal_colour            'light yellow'
_exptl_crystal_density_diffrn    3.320
_exptl_crystal_description       block
_exptl_crystal_F_000             568
_exptl_crystal_size_max          0.26
_exptl_crystal_size_mid          0.24
_exptl_crystal_size_min          0.22
_refine_diff_density_max         1.600
_refine_diff_density_min         -1.299
_refine_diff_density_rms         0.146
_refine_ls_extinction_coef       0.0068(8)
_refine_ls_extinction_expression Fc^*^=kFc[1+0.001xFc^2^\l^3^/sin(2\q)]^-1/4^
_refine_ls_extinction_method     'SHELXL-2014/7 (Sheldrick 2014'
_refine_ls_goodness_of_fit_ref   1.013
_refine_ls_hydrogen_treatment    constr
_refine_ls_matrix_type           full
_refine_ls_number_parameters     27
_refine_ls_number_reflns         718
_refine_ls_number_restraints     23
_refine_ls_restrained_S_all      1.042
_refine_ls_R_factor_all          0.0302
_refine_ls_R_factor_gt           0.0258
_refine_ls_shift/su_max          0.000
_refine_ls_shift/su_mean         0.000
_refine_ls_structure_factor_coef Fsqd
_refine_ls_weighting_details
'w=1/[\s^2^(Fo^2^)+(0.0532P)^2^+1.0717P] where P=(Fo^2^+2Fc^2^)/3'
_refine_ls_weighting_scheme      calc
_refine_ls_wR_factor_gt          0.0804
_refine_ls_wR_factor_ref         0.0819
_reflns_Friedel_coverage         0.000
_reflns_number_gt                630
_reflns_number_total             718
_reflns_threshold_expression     'I > 2\s(I)'
_cod_data_source_file            ja8b08286_si_002.cif
_cod_data_source_block           P63M
_cod_depositor_comments
;
The following automatic conversions were performed:

data item '_exptl_absorpt_correction_type' value 'Multi-scan' was
changed to 'multi-scan' in accordance with the
/home/saulius/struct/COD-crude-data/automatic-downloads/DataCite-retrospective/ACS/depositions/lib/dictionaries/cif_core.dic
dictionary named 'cif_core.dic' version 2.4.2 last updated on
2011-04-26.

Automatic conversion script
Id: cif_fix_values 6909 2019-04-08 15:41:33Z antanas 
;
_cod_database_code               4133057
_shelx_shelxl_version_number     2014/7
_shelx_space_group_comment
;
The symmetry employed for this shelxl refinement is uniquely defined
by the following loop, which should always be used as a source of
symmetry information in preference to the above space-group names.
They are only intended as comments.
;
_shelx_res_file
;

    P63M.res created by SHELXL-2014/7


TITL P63M in P6(3)/m
CELL 0.71073   9.8122   9.8122   7.9417  90.000  90.000 120.000
ZERR    2.00   0.0002   0.0002   0.0002   0.000   0.000   0.000
LATT 1
SYMM -Y, X-Y, Z
SYMM -X+Y, -X, Z
SYMM -X, -Y, 0.5+Z
SYMM Y, -X+Y, 0.5+Z
SYMM X-Y, X, 0.5+Z
SFAC C  H  N  I  Pb
UNIT 8 24 2 6 2
L.S. 4
OMIT 0 1 1
OMIT 0 1 3
ACTA
BOND
CONF
FMAP 2
DFIX 1.6 0.02 N1 C1
DFIX 1.6 0.02 N1 C2
SIMU 0.02 N1 C1 C2
DELU 0.02 N1 C1 C2
PLAN 20
TEMP 25
WGHT    0.053200    1.071700
EXTI    0.006762
FVAR       0.12199
C2    1    0.415071    0.659451    0.083596    10.16667    0.05392    0.08146 =
         0.07986   -0.00993    0.01467    0.03666
AFIX   3
H2A   2    0.360321    0.666361   -0.013294    10.16667   -1.50000
H2B   2    0.521441    0.745581    0.082846    10.16667   -1.50000
H2C   2    0.415451    0.561831    0.080796    10.16667   -1.50000
AFIX   0
C1    1    0.479391    0.649408    0.250000    10.50000    0.08481    0.11540 =
         0.11865    0.00000    0.00000    0.05378
AFIX   3
H1A   2    0.509571    0.644978    0.363960    10.50000   -1.50000
H1B   2    0.457531    0.554757    0.191990    10.50000   -1.50000
H1C   2    0.563531    0.738507    0.194050    10.50000   -1.50000
AFIX   0
N1    3    0.333333    0.666667    0.250000    10.16667    0.04704    0.04704 =
         0.05182    0.00000    0.00000    0.02352
PB1   5    1.000000    1.000000    0.000000    10.16667    0.05167    0.05167 =
         0.02834    0.00000    0.00000    0.02584
I1    4    0.873064    0.700863    0.250000    10.50000    0.06769    0.04624 =
         0.05302    0.00000    0.00000    0.02590

HKLF 4

REM  P63M in P6(3)/m
REM R1 =  0.0258 for     630 Fo > 4sig(Fo)  and  0.0302 for all     718 data
REM     27 parameters refined using     23 restraints

END

WGHT      0.0364      1.5656

REM Highest difference peak  1.600,  deepest hole -1.299,  1-sigma level  0.146
Q1    1   0.7984  0.7008  0.2500  10.50000  0.05    1.60
Q2    1   0.8508  0.6435  0.1863  11.00000  0.05    0.58
Q3    1   1.0290  1.0600  0.0689  11.00000  0.05    0.50
Q4    1   1.0000  1.0000  0.2500  10.16667  0.05    0.48
Q5    1   0.3402  0.6277  0.0854  11.00000  0.05    0.37
Q6    1   0.3416  0.4001  0.2500  10.50000  0.05    0.32
Q7    1   0.9759  0.6666  0.2500  10.50000  0.05    0.32
Q8    1   1.0176  1.1039  0.0050  11.00000  0.05    0.31
Q9    1   1.0681  0.9358  0.2500  10.50000  0.05    0.29
Q10   1   0.9382  0.9321  0.2500  10.50000  0.05    0.28
Q11   1   0.9210  0.7649  0.1264  11.00000  0.05    0.24
Q12   1   0.4994  0.6453 -0.0823  11.00000  0.05    0.23
Q13   1   0.9186  1.0038  0.1662  11.00000  0.05    0.22
Q14   1   0.7461  0.8388  0.2500  10.50000  0.05    0.22
Q15   1   0.3246  0.4891  0.2500  10.50000  0.05    0.22
Q16   1   0.9658  0.8325  0.1101  11.00000  0.05    0.21
Q17   1   0.5339  0.7355 -0.1258  11.00000  0.05    0.20
Q18   1   0.4604  0.6992 -0.0403  11.00000  0.05    0.20
Q19   1   0.3633  0.4686  0.1336  11.00000  0.05    0.19
Q20   1   0.9974  0.7799  0.0155  11.00000  0.05    0.19
;
_shelx_res_checksum              59690
_shelx_hkl_file
;
   0   0 -10    0.69    0.53
   0   0  -9    0.41    0.44
   0   0  -8  183.06    4.85
   0   0  -8  183.42    4.73
   0   0  -8  186.36    5.17
   0   0  -7   -0.02    0.23
   0   0  -7   -0.12    0.28
   0   0  -7   -0.12    0.32
   0   0  -7    0.05    0.25
   0   0  -6   23.01    0.71
   0   0  -6   23.45    0.97
   0   0  -6   23.21    0.86
   0   0  -6   22.62    0.94
   0   0  -5    0.13    0.09
   0   0  -5    0.21    0.17
   0   0  -5    0.02    0.16
   0   0  -5    0.17    0.19
   0   0  -4 1010.02   22.95
   0   0  -4  994.02   23.18
   0   0  -4  966.95   23.15
   0   0  -4  997.24   23.07
   0   0  -4  996.09   23.30
   0   0  -3    0.06    0.05
   0   0  -3    0.03    0.08
   0   0  -3    0.08    0.11
   0   0  -3    0.24    0.12
   0   0  -3    0.13    0.12
   0   0  -2  296.18    6.77
   0   0  -2  282.56    6.65
   0   0  -2  285.08    6.69
   0   0  -2  283.08    6.60
   0   0  -1    0.10    0.03
   0   0  -1    0.03    0.03
   0   0  -1    0.02    0.04
   0   0   1    0.02    0.05
   0   0   2  277.36    6.43
   0   0   3    0.02    0.07
   0   0   3    0.10    0.09
   0   0   3    0.10    0.06
   0   0   4  992.23   23.34
   0   0   4 1014.08   23.19
   0   0   5    0.17    0.10
   0   1 -10   10.17    0.96
   1   0 -10   11.06    0.97
  -1   1 -10    9.61    0.97
   1  -1 -10    8.59    0.90
  -1   0 -10    9.61    0.96
   0  -1 -10   10.49    0.98
   0   1  -9    1.22    0.47
   0  -1  -9    1.00    0.47
   0   1  -9    1.15    0.36
  -1   1  -9    1.44    0.53
  -1   0  -9    0.92    0.47
   1  -1  -9    1.02    0.48
   1   0  -9    0.60    0.44
  -1   1  -9    1.86    0.41
   1   0  -8   72.33    2.31
  -1   0  -8   65.64    2.32
   0  -1  -8   68.94    2.32
   1   0  -8   62.46    1.91
   1   0  -8   63.42    1.49
   1  -1  -8   66.51    2.26
  -1   1  -8   56.50    1.44
   0  -1  -8   61.96    2.04
  -1   0  -8   66.09    2.06
  -1   0  -8   66.11    1.71
  -1   0  -8   63.94    1.86
  -1   1  -8   66.00    1.99
  -1   1  -8   55.14    1.44
   0   1  -8   67.85    1.91
   0  -1  -8   61.78    1.88
  -1   1  -8   63.71    1.86
   0   1  -8   64.95    1.96
   1  -1  -8   64.66    2.04
   0  -1  -8   67.76    1.67
   1   0  -8   64.89    1.99
   0   1  -8   67.72    2.29
  -1   1  -8   67.83    2.32
   0  -1  -7    2.34    0.22
   1   0  -7    2.61    0.33
   0   1  -7    2.49    0.32
   1   0  -7    1.97    0.39
   1   0  -7    3.02    0.38
   0  -1  -7    1.92    0.36
   0  -1  -7    2.42    0.38
   1  -1  -7    2.55    0.39
   1  -1  -7    2.90    0.46
  -1   1  -7    2.38    0.30
  -1   0  -7    3.11    0.41
  -1   1  -7    2.31    0.45
   0   1  -7    1.83    0.36
  -1   0  -7    2.56    0.25
   1  -1  -7    2.40    0.37
  -1   0  -7    2.55    0.45
   0   1  -7    2.61    0.43
   0  -1  -7    2.10    0.42
  -1   1  -7    2.77    0.39
   1   0  -7    2.69    0.16
  -1   0  -7    1.91    0.27
   0  -1  -7    2.34    0.33
  -1   0  -7    2.07    0.37
   0   1  -7    2.59    0.35
  -1   1  -7    2.57    0.35
   1  -1  -7    2.32    0.18
   1   0  -7    3.15    0.41
   1  -1  -7    1.56    0.32
   0   1  -6   38.63    1.45
   0  -1  -6   36.17    1.06
  -1   0  -6   38.58    1.49
   0  -1  -6   36.95    1.33
   1   0  -6   36.10    1.32
   1  -1  -6   38.00    1.33
   1  -1  -6   35.61    1.21
   0  -1  -6   39.20    1.34
   1   0  -6   37.04    1.27
   0  -1  -6   36.81    1.45
  -1   1  -6   37.42    1.27
  -1   0  -6   38.40    1.11
   1  -1  -6   36.72    1.42
   1  -1  -6   35.85    1.31
  -1   0  -6   40.14    1.36
   1   0  -6   36.48    1.41
   1   0  -6   35.92    1.22
   1  -1  -6   36.70    1.00
   0   1  -6   36.12    1.24
   1   0  -6   38.29    0.98
  -1   1  -6   39.40    1.50
  -1   0  -6   36.39    1.31
   0   1  -6   38.17    1.34
  -1   0  -6   34.88    1.16
   0   1  -6   36.99    1.20
   0  -1  -6   35.71    1.19
  -1   1  -6   37.74    1.34
  -1   1  -6   37.15    1.17
   1  -1  -5    8.76    0.50
  -1   1  -5    8.82    0.38
   1   0  -5    9.25    0.56
  -1   0  -5   10.02    0.62
   1  -1  -5    8.68    0.31
  -1   1  -5    9.58    0.53
  -1   0  -5    8.10    0.38
   1  -1  -5    9.34    0.51
  -1   0  -5    8.19    0.41
   0   1  -5    8.68    0.56
   1   0  -5    8.80    0.51
   1  -1  -5    8.30    0.56
   1   0  -5    7.80    0.46
   1   0  -5   10.29    0.49
   1   0  -5    8.78    0.30
   0  -1  -5    9.09    0.59
   1  -1  -5    8.15    0.44
   0  -1  -5    8.85    0.52
   0   1  -5    8.50    0.46
   0   1  -5    7.96    0.43
   0   1  -5    7.84    0.49
  -1   1  -5    8.82    0.59
  -1   1  -5    8.00    0.40
  -1   0  -5    8.77    0.51
   0  -1  -5    8.36    0.49
  -1   1  -5    8.27    0.47
   0  -1  -5    8.48    0.36
   0  -1  -5    7.55    0.42
   1   0  -4  336.81    7.89
   1  -1  -4  331.61    7.80
  -1   0  -4  329.32    7.74
   1   0  -4  325.75    7.97
   1  -1  -4  339.71    8.00
  -1   0  -4  318.46    7.88
   0   1  -4  328.94    7.78
   0  -1  -4  329.23    7.78
  -1   0  -4  343.89    8.06
   0  -1  -4  327.04    7.90
   0   1  -4  332.74    7.89
   1  -1  -4  326.01    7.88
   0   1  -4  332.81    7.98
   0  -1  -4  332.43    7.69
   0  -1  -4  328.98    8.02
   0   1  -4  324.77    7.79
   1   0  -4  329.70    7.81
  -1   1  -4  319.51    7.82
  -1   0  -4  327.33    7.72
  -1   1  -4  335.46    7.70
   1   0  -4  313.34    7.61
  -1   1  -4  332.99    7.73
   1   0  -4  326.10    7.84
   1  -1  -4  323.08    7.62
  -1   1  -4  333.11    8.04
  -1   1  -4  334.19    7.89
   1  -1  -4  338.33    7.87
  -1   1  -3   30.14    1.00
   1   0  -3   27.94    0.87
  -1   0  -3   27.77    0.91
  -1   0  -3   30.13    1.02
   1  -1  -3   28.43    0.86
   1  -1  -3   28.09    0.89
  -1   1  -3   28.22    0.81
   0   1  -3   28.63    0.85
   0  -1  -3   29.54    0.81
   1  -1  -3   28.79    0.75
   1   0  -3   28.89    0.75
   0  -1  -3   28.37    0.93
   0  -1  -3   28.66    0.85
   0   1  -3   29.07    0.92
   0   1  -3   29.79    0.96
   1   0  -3   29.48    0.92
   0  -1  -3   29.14    0.98
   1  -1  -3   29.06    0.92
   1   0  -3   29.24    0.88
  -1   0  -3   28.98    0.82
  -1   1  -3   28.45    0.81
  -1   1  -3   28.82    0.87
   0   1  -3   28.74    0.84
  -1   0  -3   28.92    0.81
   0   1  -2   74.19    1.92
  -1   1  -2   73.80    1.85
   0  -1  -2   76.39    1.94
  -1   0  -2   76.83    2.00
  -1   1  -2   73.91    1.87
   1   0  -2   75.29    1.80
  -1   0  -2   76.16    1.86
  -1   0  -2   75.17    1.93
   1  -1  -2   75.12    1.89
   0   1  -2   76.60    1.94
   0  -1  -2   75.57    1.84
  -1   0  -2   72.67    1.83
   0   1  -2   75.15    1.83
   1  -1  -2   77.05    1.88
  -1   1  -2   77.70    2.00
  -1   1  -2   74.46    1.82
   1  -1  -2   75.34    1.93
   0  -1  -2   78.66    1.87
   1   0  -2   73.43    1.92
   1   0  -1    8.76    0.26
   0  -1  -1    9.24    0.32
   0   1  -1    9.16    0.30
  -1   1  -1    8.99    0.28
   1   0  -1    8.49    0.31
   0  -1  -1    8.53    0.28
   1   0  -1    8.38    0.31
  -1   0  -1    8.26    0.29
   1  -1  -1    9.01    0.29
  -1   1  -1    8.50    0.25
   1  -1  -1    8.83    0.29
  -1   0  -1    8.44    0.32
   1  -1  -1    8.51    0.27
   1   0   0  455.01   10.48
   0   1   1    8.62    0.28
  -1   1   1    8.82    0.28
  -1   0   1    8.57    0.30
   1   0   1    8.71    0.33
   0   1   1    8.45    0.31
   0  -1   1    8.22    0.30
   1  -1   2   73.20    1.84
  -1   1   2   73.33    1.87
   1   0   2   75.93    1.97
   1   0   2   75.68    1.82
   1  -1   2   75.51    1.85
   0  -1   2   75.32    1.92
   1  -1   3   29.25    0.83
   1   0   3   28.44    0.82
   1  -1   3   27.11    0.84
   1   0   3   29.18    0.99
   1   0   3   29.35    0.91
   0  -1   3   28.63    0.95
   0  -1   3   28.93    0.77
   1  -1   4  330.60    7.93
   1   0   4  332.34    7.89
   1   0   4  333.13    7.89
   1   0   4  332.66    7.99
   0  -1   4  335.63    7.80
   0   1   4  336.62    7.93
   0   1   4  333.83    8.03
   1   0   4  331.81    8.15
   1  -1   4  342.71    7.88
   1  -1   5    9.27    0.40
   1   0   5    9.42    0.43
   1  -1   5    8.73    0.44
   0   1   5    8.16    0.48
   1  -1   5    8.00    0.54
   0  -1   5    8.49    0.33
   0   1   5    8.52    0.45
  -1   1   5    8.27    0.45
   1   0   5    8.97    0.41
   1   0   5    9.57    0.49
   0   1   6   35.09    1.19
   1  -1   6   34.40    1.18
   0  -1   6   37.15    1.02
   1   0   6   36.55    1.16
   1  -1   6   37.09    1.10
   1   0   6   38.59    1.14
   1   0   6   37.81    1.26
   1   0   7    2.46    0.33
   1  -1   7    2.47    0.25
   0  -1   7    2.39    0.20
   1   1 -10   24.72    1.41
   2  -1 -10   20.06    1.19
  -2   1 -10   23.55    1.44
   1  -2 -10   24.36    1.42
  -1   2 -10   25.82    1.47
   2  -1 -10   21.95    1.33
   1   1 -10   22.79    1.26
  -1  -1 -10   24.74    1.47
   2  -1  -9    0.42    0.37
  -2   1  -9    0.28    0.27
   1   1  -9    0.75    0.34
   1  -2  -9    0.67    0.43
  -1  -1  -9    1.15    0.52
   1   1  -9    0.64    0.43
  -2   1  -9    0.73    0.49
   2  -1  -9    0.65    0.46
  -1   2  -9    1.06    0.54
  -1   2  -8   20.25    1.15
   2  -1  -8   17.62    0.61
  -1   2  -8   18.79    0.81
   1   1  -8   17.06    0.85
  -1   2  -8   19.27    0.86
  -1  -1  -8   18.35    0.83
   1   1  -8   18.42    0.85
  -2   1  -8   17.36    0.77
  -1  -1  -8   18.71    0.72
   2  -1  -8   18.93    0.94
  -2   1  -8   18.65    1.15
  -2   1  -8   17.57    0.92
   1   1  -8   19.13    1.07
   1  -2  -8   17.12    1.06
  -1  -1  -8   19.49    1.13
  -1  -1  -8   17.05    0.95
   2  -1  -8   18.65    1.07
   1  -2  -8   18.95    0.64
   2  -1  -8   17.57    0.98
   1   1  -7    2.58    0.39
   2  -1  -7    2.57    0.34
  -1  -1  -7    1.97    0.30
  -1  -1  -7    2.52    0.47
  -1   2  -7    2.27    0.32
   1  -2  -7    1.82    0.35
   2  -1  -7    2.80    0.21
   1   1  -7    2.00    0.42
  -2   1  -7    2.62    0.29
  -1  -1  -7    2.87    0.40
   1  -2  -7    1.91    0.35
  -2   1  -7    2.31    0.45
  -2   1  -7    3.29    0.39
   2  -1  -7    3.32    0.40
   2  -1  -7    2.56    0.44
  -1  -1  -7    2.63    0.38
   1  -2  -7    2.00    0.40
  -1  -1  -7    2.40    0.26
   1   1  -7    2.38    0.33
  -2   1  -7    2.18    0.39
  -2   1  -7    2.84    0.28
   1  -2  -7    2.30    0.32
   1   1  -7    2.78    0.34
  -1   2  -7    3.32    0.50
   1  -2  -7    2.48    0.21
   2  -1  -7    2.65    0.40
  -1   2  -7    2.26    0.29
  -1   2  -6  142.48    3.72
  -2   1  -6  148.55    3.64
   1  -2  -6  148.14    3.86
  -2   1  -6  149.22    3.90
  -1   2  -6  152.50    4.08
  -1  -1  -6  152.03    4.11
  -1  -1  -6  139.66    3.68
   2  -1  -6  145.42    4.00
   1   1  -6  148.84    3.88
   1   1  -6  141.31    3.74
  -2   1  -6  152.53    4.14
   1  -2  -6  144.08    4.03
  -1  -1  -6  141.14    3.89
   2  -1  -6  143.31    3.85
   1   1  -6  148.30    3.98
  -1   2  -6  140.35    3.67
  -1  -1  -6  146.94    3.62
   1  -2  -6  144.53    3.90
   2  -1  -6  146.26    3.53
  -2   1  -6  143.25    3.84
   1   1  -6  150.40    3.76
   1  -2  -6  142.48    3.53
   2  -1  -6  144.45    3.77
   2  -1  -6  143.52    3.83
  -2   1  -6  142.54    3.62
   1  -2  -6  142.91    3.73
   1  -2  -5    7.46    0.49
  -2   1  -5    7.66    0.47
   2  -1  -5    7.10    0.46
  -2   1  -5    7.04    0.56
   1  -2  -5    7.06    0.46
  -1  -1  -5    7.74    0.38
   1   1  -5    7.09    0.47
   1  -2  -5    7.03    0.32
  -1  -1  -5    7.48    0.40
   1  -2  -5    6.75    0.52
  -1  -1  -5    7.48    0.50
  -1   2  -5    8.32    0.57
   1   1  -5    7.79    0.52
  -2   1  -5    7.70    0.39
   1   1  -5    7.51    0.43
   2  -1  -5    7.02    0.43
   2  -1  -5    7.20    0.47
   1   1  -5    7.26    0.42
  -2   1  -5    6.61    0.35
  -1   2  -5    7.46    0.39
  -1   2  -5    6.89    0.40
   2  -1  -5    6.98    0.32
   2  -1  -4   44.92    1.19
  -1  -1  -4   43.52    1.39
  -2   1  -4   44.96    1.25
   2  -1  -4   43.69    1.34
   1   1  -4   44.87    1.31
   1  -2  -4   43.88    1.28
  -1   2  -4   45.38    1.24
  -2   1  -4   42.02    1.34
   1  -2  -4   43.11    1.38
  -2   1  -4   44.35    1.51
   1   1  -4   43.46    1.27
  -1  -1  -4   42.39    1.25
   1  -2  -4   43.74    1.18
  -1   2  -4   43.39    1.45
   1   1  -4   44.81    1.37
   2  -1  -4   44.78    1.31
   1  -2  -4   41.77    1.31
   2  -1  -4   44.76    1.35
   2  -1  -4   46.66    1.42
  -2   1  -4   42.50    1.18
  -1   2  -4   43.74    1.24
  -1  -1  -4   43.74    1.24
   1   1  -4   44.37    1.39
   1   1  -3   16.51    0.64
   1   1  -3   16.60    0.62
  -1   2  -3   15.69    0.53
  -1   2  -3   16.36    0.69
   2  -1  -3   17.37    0.61
   2  -1  -3   17.04    0.62
  -2   1  -3   16.55    0.72
   1  -2  -3   16.89    0.65
   1  -2  -3   16.08    0.57
  -1  -1  -3   16.89    0.66
  -1  -1  -3   17.23    0.57
   2  -1  -3   15.90    0.51
  -2   1  -3   16.08    0.49
   2  -1  -3   16.47    0.65
  -2   1  -3   16.28    0.57
  -1  -1  -3   16.26    0.55
  -2   1  -3   15.51    0.62
   2  -1  -2  482.05   11.24
   1   1  -2  480.58   11.38
   2  -1  -2  491.51   11.43
  -2   1  -2  504.71   11.38
  -1   2  -2  491.65   11.28
  -1  -1  -2  477.33   11.45
  -2   1  -2  489.07   11.44
   1  -2  -2  501.82   11.37
  -1  -1  -2  497.43   11.37
   1  -2  -2  482.36   11.44
   2  -1  -2  484.68   11.40
   2  -1  -2  489.46   11.33
   1   1  -2  471.80   11.44
   2  -1  -2  502.27   11.39
  -2   1  -1   26.37    0.72
   2  -1  -1   26.39    0.72
  -1  -1  -1   23.92    0.76
  -1  -1  -1   24.54    0.72
  -2   1  -1   25.97    0.73
   1  -2  -1   25.47    0.64
   2  -1  -1   26.16    0.73
   2  -1  -1   25.52    0.67
   1   1   0  122.88    2.90
  -2   1   0  120.25    2.87
   2  -1   0  120.48    2.87
   2  -1   0  115.21    2.85
  -1  -1   1   25.37    0.74
   1  -2   1   24.05    0.69
   1   1   1   25.33    0.73
   1   1   1   25.85    0.77
   2  -1   1   25.35    0.72
  -1   2   1   25.82    0.70
  -1  -1   1   24.59    0.72
  -2   1   2  459.03   11.56
   2  -1   2  474.48   11.59
   1   1   2  477.94   11.63
   1  -2   2  505.49   11.44
   1  -2   2  503.34   11.43
  -1  -1   2  498.64   11.45
   2  -1   2  477.56   11.68
   2  -1   2  510.59   11.44
   1  -2   2  479.64   11.61
  -1   2   2  527.66   11.57
   1   1   2  484.76   11.65
  -1  -1   2  481.30   11.62
  -1  -1   3   16.04    0.64
   1  -2   3   15.61    0.50
   2  -1   3   16.91    0.70
   1   1   3   16.79    0.58
   1  -2   3   16.86    0.66
   1   1   3   16.04    0.55
   2  -1   3   16.54    0.49
   2  -1   3   16.96    0.58
   2  -1   3   17.46    0.61
   1  -2   3   16.49    0.54
  -2   1   3   16.80    0.62
   2  -1   4   43.97    1.32
  -1  -1   4   44.42    1.09
   1   1   4   48.26    1.28
   2  -1   4   44.67    1.20
   2  -1   4   45.03    1.29
   1  -2   4   44.09    1.22
   1   1   4   42.81    1.37
   1  -2   4   42.20    1.39
   1   1   4   45.51    1.29
   1  -2   4   44.53    1.21
  -1  -1   4   43.45    1.39
   2  -1   5    7.65    0.40
  -1   2   5    7.12    0.42
   1  -2   5    7.23    0.50
   2  -1   5    8.11    0.44
   1   1   5    8.03    0.49
  -1  -1   5    7.47    0.24
   1   1   5    6.86    0.38
   1  -2   5    7.05    0.34
   2  -1   6  138.70    3.74
   2  -1   6  152.61    3.69
   1  -2   6  147.97    3.59
   1   1   6  143.64    3.68
  -1   2   6  139.98    3.75
   1   1   6  143.13    3.85
   1   1   7    2.48    0.37
   2  -1   7    2.45    0.28
  -1   2   7    2.17    0.33
   1  -2   7    1.83    0.21
   1   1   7    1.89    0.28
   2  -1   8   18.49    0.86
   2  -1   8   18.48    0.77
   1  -2   8   18.35    0.67
   2   0 -10   29.14    1.52
   0   2 -10   31.14    1.59
  -2   2 -10   29.39    1.58
  -2   0 -10   29.56    1.61
   0  -2 -10   26.85    1.52
   2  -2 -10   29.26    1.52
   2   0 -10   27.10    1.37
   2  -2  -9   13.19    0.99
  -2   2  -9   12.45    0.77
   2  -2  -9   13.08    0.55
   0   2  -9   16.27    1.07
  -2   2  -9   13.49    1.05
   2   0  -9   12.19    0.89
   2  -2  -9   11.26    0.83
   0  -2  -9   14.36    1.03
   2   0  -9   13.60    0.97
  -2   0  -9   12.43    1.02
  -2   2  -9   11.98    0.65
   0  -2  -8   10.20    0.81
   0   2  -8    9.77    0.78
  -2   0  -8    9.06    0.54
   0   2  -8    8.14    0.54
   2   0  -8    8.21    0.70
   2   0  -8    9.12    0.75
  -2   0  -8    8.09    0.78
   2  -2  -8    9.45    0.77
   2  -2  -8    9.26    0.69
   0   2  -8    8.95    0.57
  -2   0  -8    9.37    0.70
  -2   0  -8    9.44    0.50
   0  -2  -8    8.94    0.45
  -2   2  -8    8.71    0.60
   2   0  -8    8.74    0.63
  -2   2  -8    8.33    0.51
   0  -2  -7   55.53    1.56
   2   0  -7   54.69    1.95
  -2   0  -7   56.01    1.64
   2   0  -7   55.05    1.93
   2  -2  -7   56.87    1.85
  -2   2  -7   55.22    1.76
   2  -2  -7   56.15    1.40
   0   2  -7   54.67    1.70
   0   2  -7   53.56    1.68
   0  -2  -7   55.62    1.88
   0  -2  -7   56.72    1.86
  -2   2  -7   53.97    1.61
  -2   0  -7   57.01    1.62
   2   0  -7   56.82    1.86
   2   0  -7   55.37    1.75
  -2   2  -7   54.38    1.34
   0  -2  -7   54.43    1.70
   0   2  -7   57.15    1.86
   2  -2  -7   53.27    1.97
   2   0  -7   56.78    1.78
   0  -2  -7   54.18    2.02
   2  -2  -7   55.66    1.74
  -2   2  -7   60.46    2.12
  -2   0  -7   59.05    2.10
   0   2  -7   56.13    1.99
   2   0  -7   54.77    1.39
   2  -2  -7   56.24    1.86
  -2   0  -7   54.84    1.86
   0   2  -6  214.47    5.47
  -2   2  -6  208.51    5.06
   2  -2  -6  207.45    4.89
   2   0  -6  208.74    5.41
   0   2  -6  205.39    5.16
  -2   2  -6  208.04    4.86
   2  -2  -6  209.94    5.21
  -2   0  -6  205.74    5.34
   2   0  -6  211.63    5.32
   2   0  -6  205.49    4.90
   2  -2  -6  205.46    5.47
   2   0  -6  209.63    5.41
   2   0  -6  206.88    5.22
  -2   0  -6  213.08    5.59
  -2   2  -6  202.57    5.22
   2  -2  -6  210.09    5.30
   0  -2  -6  203.06    5.49
   0   2  -6  208.71    5.13
   0  -2  -6  202.98    5.04
  -2   0  -6  203.97    5.09
   2  -2  -6  210.34    5.33
   2   0  -6  209.30    5.24
   0  -2  -6  206.20    5.16
  -2   0  -6  208.73    5.09
   0  -2  -6  208.56    5.36
  -2   2  -6  217.61    5.59
   2   0  -5  164.84    4.19
  -2   0  -5  162.95    4.09
  -2   0  -5  163.29    4.29
  -2   2  -5  161.58    4.17
   2   0  -5  167.60    4.19
   0   2  -5  166.42    4.36
   0  -2  -5  163.48    4.29
   2  -2  -5  169.69    4.17
   0  -2  -5  163.20    4.13
   2  -2  -5  167.50    4.23
  -2   0  -5  164.04    4.06
   0  -2  -5  167.16    4.05
  -2   2  -5  162.87    3.90
   0   2  -5  164.62    4.13
  -2   0  -5  175.19    4.50
  -2   2  -5  172.00    4.49
   2   0  -5  169.58    4.35
   2  -2  -5  164.69    3.92
   2   0  -5  168.51    4.33
  -2   2  -5  165.31    4.02
   2  -2  -5  164.08    4.27
   2   0  -5  165.95    3.93
   2   0  -5  167.12    4.27
   0   2  -5  161.07    4.08
   0  -2  -4    8.75    0.43
  -2   2  -4    8.91    0.45
   2   0  -4    9.78    0.47
   2   0  -4    9.79    0.54
  -2   0  -4    9.00    0.42
  -2   2  -4    9.32    0.32
   2  -2  -4    8.55    0.49
   0   2  -4    9.46    0.52
   2   0  -4    9.23    0.49
  -2   0  -4    8.85    0.38
   0  -2  -4    9.28    0.51
   2  -2  -4    9.68    0.48
  -2   2  -4    8.77    0.36
   2  -2  -4    9.25    0.33
  -2   2  -4    9.65    0.59
   2   0  -4    9.71    0.34
  -2   0  -4    9.52    0.52
   2  -2  -4    9.10    0.45
   0  -2  -4    9.04    0.40
  -2   2  -3  357.46    8.35
  -2   0  -3  333.65    8.23
  -2   0  -3  350.30    8.12
   2  -2  -3  352.35    8.19
  -2   2  -3  337.74    8.12
   2  -2  -3  343.08    8.22
   0  -2  -3  343.87    8.23
   2   0  -3  344.67    8.21
   2   0  -3  349.97    8.01
   0  -2  -3  352.13    8.12
   2   0  -3  344.57    8.25
   2  -2  -3  331.48    8.12
  -2   2  -3  344.80    7.99
   0  -2  -3  347.54    8.08
  -2   2  -3  338.04    7.99
   0   2  -3  338.37    8.01
   0   2  -3  352.34    8.21
   2  -2  -3  337.05    8.13
  -2   2  -2  675.80   15.43
   0  -2  -2  657.04   15.59
  -2   0  -2  671.27   15.53
   0   2  -2  666.52   15.38
   2   0  -2  649.41   15.57
  -2   0  -2  652.51   15.61
   0   2  -2  633.33   15.54
   2   0  -2  662.89   15.59
   2  -2  -2  641.06   15.49
   2  -2  -2  659.29   15.52
  -2   2  -2  703.37   15.38
  -2   2  -1  601.21   13.64
  -2   0  -1  589.43   13.75
   2   0  -1  583.47   13.71
   2  -2  -1  587.49   13.60
   2   0  -1  587.90   13.61
  -2   0  -1  594.01   13.69
   2  -2   0    3.39    0.14
   0  -2   0    4.41    0.15
   2   0   0    4.60    0.20
   0   2   0    3.37    0.18
  -2   2   0    3.98    0.15
   0   2   0    3.39    0.14
  -2   2   1  607.21   13.70
  -2   2   1  596.56   13.63
  -2   0   1  585.94   13.66
   0  -2   1  593.07   13.66
  -2   2   1  607.46   13.68
   0   2   1  589.41   13.77
  -2   0   1  576.54   13.74
   0  -2   1  582.34   13.74
   2   0   1  578.09   13.80
   2   0   1  573.92   13.78
   2   0   1  605.38   13.74
   0  -2   2  658.98   15.58
  -2   2   2  682.29   15.60
  -2   0   2  661.95   15.52
   2   0   2  646.36   15.71
   0  -2   2  678.12   15.67
   0   2   2  666.45   15.67
  -2   0   2  638.97   15.63
   2  -2   2  648.69   15.56
   2   0   2  703.47   15.52
  -2   0   2  685.50   15.45
   0  -2   3  337.57    8.27
   2   0   3  345.95    8.19
   2   0   3  355.16    8.09
   2  -2   3  345.43    8.16
   0  -2   3  343.31    8.22
   2  -2   3  348.62    8.13
   2   0   3  340.01    8.35
   0   2   3  330.96    8.27
  -2   2   3  354.75    8.21
   2   0   4    9.39    0.38
   2   0   4    9.60    0.50
   0  -2   4    9.38    0.34
   0  -2   4    9.37    0.50
   2   0   4    9.42    0.44
   2  -2   4    8.32    0.40
   2  -2   4    9.30    0.40
   0   2   4    8.57    0.42
   2   0   4    8.65    0.54
   2  -2   5  165.67    4.11
   2  -2   5  165.71    4.11
   2  -2   5  161.38    4.36
   0   2   5  164.18    4.16
   2   0   5  170.68    4.16
   2   0   5  169.88    4.45
   2   0   5  161.36    4.25
   0   2   5  163.89    4.31
   0  -2   5  169.57    3.99
   2   0   5  167.35    4.08
   2   0   6  203.32    5.10
   2   0   6  213.18    5.19
   2   0   6  205.60    5.29
   2  -2   6  206.09    5.14
   0   2   6  206.40    5.36
   2  -2   6  214.07    5.12
   0  -2   6  211.70    4.97
   0   2   6  203.53    5.19
   2  -2   6  209.24    5.45
   2   0   7   53.42    1.62
   0  -2   7   55.97    1.45
   0   2   7   52.36    1.69
   2  -2   7   55.22    1.61
   2   0   7   58.75    1.69
   2  -2   7   54.81    1.66
   2   0   7   54.94    1.79
   2  -2   8    9.63    0.51
   0   2   8    8.49    0.57
   2   0   8    9.22    0.63
   2  -2   9   14.85    0.65
   1  -3 -10   15.95    1.18
  -1   3 -10   20.57    1.28
   2   1 -10   17.74    1.18
   3  -2 -10   15.47    1.03
  -3   2 -10   19.02    1.31
   2   1 -10   17.88    1.12
  -2  -1 -10   17.66    1.27
   3  -2 -10   18.62    1.22
   3  -2  -9    5.57    0.67
  -3   2  -9    6.81    0.79
   2   1  -9    5.39    0.66
   2   1  -9    5.62    0.64
  -3   2  -9    4.25    0.52
   1  -3  -9    6.69    0.75
  -1   3  -9    5.55    0.71
  -2  -1  -9    5.37    0.77
   3  -2  -9    3.44    0.52
   2   1  -8   20.25    1.08
  -1   3  -8   18.79    0.81
   2   1  -8   20.66    0.89
   1  -3  -8   19.66    0.70
  -3   2  -8   17.87    0.74
   3  -2  -8   18.21    0.70
  -1   3  -8   19.52    1.13
   1  -3  -8   18.80    1.11
  -2  -1  -8   20.02    0.80
   3  -2  -8   18.48    1.00
  -3   2  -8   18.70    0.93
   3  -2  -8   21.10    1.14
   2   1  -8   19.88    1.08
  -1   3  -8   19.63    0.84
  -3   2  -8   17.71    0.57
  -3   2  -8   20.80    1.22
  -3   2  -7   18.48    0.88
   2   1  -7   17.68    0.96
   3  -2  -7   18.44    0.90
  -1   3  -7   17.83    0.75
   3  -2  -7   18.15    0.95
  -1   3  -7   18.13    0.77
   1  -3  -7   18.60    0.69
   3  -2  -7   18.39    0.90
   2   1  -7   18.29    0.92
   2   1  -7   17.57    0.80
  -1   3  -7   19.73    0.93
   1  -3  -7   19.62    0.92
   3  -2  -7   19.53    0.69
   2   1  -7   20.00    1.00
   3  -2  -7   19.75    0.87
  -3   2  -7   18.11    0.70
   1  -3  -7   19.04    0.96
   2   1  -7   18.21    0.84
  -2  -1  -7   19.20    0.76
   1  -3  -7   19.90    1.06
  -3   2  -7   19.69    1.12
   3  -2  -7   18.51    1.01
  -1   3  -7   19.90    1.07
  -2  -1  -7   19.10    0.96
   1  -3  -7   18.36    0.83
  -3   2  -7   17.91    0.60
  -2  -1  -6  114.79    2.99
  -3   2  -6  112.42    2.89
  -2  -1  -6  111.12    3.23
   3  -2  -6  114.15    3.19
   3  -2  -6  113.20    3.15
  -3   2  -6  110.83    2.82
  -1   3  -6  121.32    3.37
  -3   2  -6  122.16    3.49
   2   1  -6  120.07    3.27
   1  -3  -6  114.53    2.91
   2   1  -6  117.58    3.22
   1  -3  -6  114.45    3.06
   1  -3  -6  115.45    3.23
  -3   2  -6  123.53    3.22
   3  -2  -6  116.83    2.92
   1  -3  -6  119.04    3.17
  -3   2  -6  111.87    3.13
   3  -2  -6  111.68    3.23
  -1   3  -6  109.39    2.94
   2   1  -6  114.12    3.10
  -3   2  -6  115.82    2.99
  -1   3  -6  116.15    3.17
   3  -2  -6  118.45    3.12
   2   1  -6  112.85    3.05
   2   1  -6  115.37    3.29
  -1   3  -6  114.14    3.00
   3  -2  -5   58.19    1.56
   2   1  -5   57.37    1.70
  -1   3  -5   57.25    1.61
   3  -2  -5   56.49    1.79
   3  -2  -5   58.60    1.70
   3  -2  -5   56.36    1.36
  -1   3  -5   57.03    1.86
  -3   2  -5   55.40    1.73
   3  -2  -5   56.82    1.72
   1  -3  -5   56.46    1.79
   1  -3  -5   55.54    1.65
   2   1  -5   58.57    1.84
   3  -2  -5   54.93    1.75
   2   1  -5   57.27    1.77
   2   1  -5   58.55    1.79
  -3   2  -5   58.19    1.62
  -3   2  -5   57.67    1.95
  -2  -1  -5   53.97    1.79
  -2  -1  -5   56.53    1.62
  -1   3  -5   55.42    1.54
  -1   3  -5   58.14    1.75
   2   1  -5   57.03    1.64
  -3   2  -5   54.75    1.49
   1  -3  -5   56.91    1.56
  -3   2  -5   56.06    1.49
   3  -2  -4   58.63    1.70
   3  -2  -4   56.14    1.53
  -2  -1  -4   54.23    1.72
  -1   3  -4   57.13    1.66
   2   1  -4   55.44    1.73
   2   1  -4   58.45    1.67
   3  -2  -4   55.51    1.63
  -1   3  -4   59.62    1.77
  -2  -1  -4   55.69    1.58
   3  -2  -4   57.35    1.63
  -3   2  -4   57.36    1.66
  -3   2  -4   55.21    1.42
   1  -3  -4   56.25    1.70
   1  -3  -4   56.45    1.60
  -3   2  -4   58.08    1.59
   1  -3  -4   56.71    1.53
  -3   2  -4   56.81    1.48
  -1   3  -4   51.58    1.44
   2   1  -4   55.55    1.69
  -2  -1  -3  140.12    3.47
  -2  -1  -3  139.16    3.63
   1  -3  -3  137.03    3.55
  -1   3  -3  142.32    3.50
   3  -2  -3  139.30    3.48
  -2  -1  -3  137.08    3.58
  -3   2  -3  140.15    3.52
  -3   2  -3  139.47    3.38
   2   1  -3  140.70    3.55
  -1   3  -3  135.77    3.26
   1  -3  -3  139.81    3.45
  -3   2  -3  139.26    3.46
   3  -2  -3  140.52    3.52
   3  -2  -3  140.51    3.41
  -3   2  -2  366.47    8.52
   3  -2  -2  363.18    8.54
  -3   2  -2  370.28    8.58
  -2  -1  -2  356.33    8.66
  -2  -1  -2  359.83    8.57
   3  -2  -2  359.84    8.57
  -1   3  -2  364.35    8.57
   3  -2  -2  359.33    8.54
  -2  -1  -2  373.41    8.66
  -3   2  -1  228.46    5.28
  -1   3  -1  222.02    5.21
   3  -2  -1  220.93    5.25
  -2  -1  -1  219.89    5.27
  -3   2  -1  223.13    5.25
   3  -2  -1  217.18    5.21
  -2  -1  -1  213.33    5.26
   3  -2  -1  221.17    5.22
   3  -2   0   64.64    1.70
   2   1   0   67.69    1.77
   1  -3   0   65.44    1.64
   3  -2   0   66.70    1.60
   3  -2   0   63.62    1.68
  -3   2   0   66.05    1.69
  -2  -1   1  212.29    5.20
  -3   2   1  226.49    5.24
   2   1   1  227.68    5.37
   1  -3   1  224.34    5.11
   3  -2   1  218.66    5.27
  -2  -1   1  221.14    5.26
   2   1   1  223.18    5.29
   2   1   1  212.88    5.27
  -1   3   1  230.35    5.25
  -3   2   1  212.60    5.18
  -1   3   1  218.87    5.29
   1  -3   1  218.63    5.23
   3  -2   2  370.78    8.49
   1  -3   2  359.49    8.47
   1  -3   2  343.97    8.48
   2   1   2  373.30    8.59
   3  -2   2  356.30    8.58
  -3   2   2  354.80    8.43
  -2  -1   2  358.09    8.51
  -1   3   2  367.51    8.46
  -1   3   2  365.23    8.55
   2   1   2  354.57    8.55
  -3   2   2  363.23    8.46
  -2  -1   2  356.75    8.54
  -2  -1   2  354.95    8.34
  -2  -1   3  132.81    3.53
  -2  -1   3  138.95    3.30
   1  -3   3  137.76    3.24
   2   1   3  142.97    3.48
   3  -2   3  137.03    3.45
  -2  -1   3  139.93    3.25
   2   1   3  140.80    3.38
   1  -3   3  133.76    3.50
  -1   3   3  138.14    3.56
  -1   3   3  132.19    3.43
   3  -2   3  141.30    3.46
  -3   2   3  139.12    3.45
   1  -3   3  138.24    3.49
   2   1   3  136.22    3.59
   2   1   4   57.26    1.61
   3  -2   4   53.39    1.57
   3  -2   4   56.57    1.59
   2   1   4   54.69    1.76
   1  -3   4   55.44    1.50
   2   1   4   55.44    1.51
   1  -3   4   54.49    1.64
   2   1   5   55.79    1.78
   3  -2   5   58.57    1.67
  -1   3   5   54.17    1.66
   2   1   5   58.11    1.60
   3  -2   5   57.55    1.66
   1  -3   5   55.07    1.54
   1  -3   5   56.52    1.77
   2   1   5   61.16    1.71
   1  -3   6  115.05    2.88
   2   1   6  113.16    3.18
   3  -2   6  114.16    3.02
   2   1   6  111.24    2.96
   3  -2   6  113.10    3.02
  -1   3   6  116.68    3.07
   3  -2   7   19.24    0.82
   2   1   7   19.35    0.94
   3  -2   7   19.58    0.80
  -1   3   7   17.22    0.82
   3  -2   7   17.97    1.01
   2   1   7   18.42    0.77
   1  -3   7   19.07    0.68
   3  -2   8   17.05    0.81
   2   1   8   18.62    0.96
   2   1   8   18.05    0.81
   1  -3   8   18.03    0.66
  -1   3   8   19.30    0.89
   3  -2   8   18.99    0.80
   3  -2   9    5.50    0.45
   2   1   9    6.15    0.59
   1  -3   9    5.42    0.33
   2  -3 -10   10.32    0.80
   2  -3 -10   13.33    1.05
  -1  -2 -10   13.80    1.11
  -2   3 -10   12.25    1.05
   1   2 -10   12.01    0.94
  -3   1 -10   14.95    1.18
   3  -1 -10   13.01    1.02
   3  -1 -10   14.00    0.98
   1   2 -10   13.35    1.03
   3  -1  -9    1.00    0.41
  -2   3  -9    0.98    0.51
   1   2  -9    1.30    0.49
  -3   1  -9    0.53    0.44
   3  -1  -9    0.88    0.45
   2  -3  -9    0.91    0.38
   1   2  -9    1.08    0.42
   2  -3  -9    1.19    0.47
  -2   3  -8   33.02    1.13
  -2   3  -8   31.81    1.18
   1   2  -8   34.86    1.49
   1   2  -8   31.29    1.16
   3  -1  -8   31.28    0.95
   3  -1  -8   31.57    1.40
  -3   1  -8   31.78    1.09
   2  -3  -8   29.36    1.29
  -3   1  -8   34.58    1.62
  -3   1  -8   32.05    1.34
   2  -3  -8   33.34    0.95
   3  -1  -8   32.57    1.46
  -2   3  -8   33.18    1.55
  -3   1  -8   33.21    1.13
   2  -3  -8   31.78    1.48
  -1  -2  -8   31.67    1.08
   3  -1  -8   32.97    1.30
  -2   3  -7    3.13    0.31
  -2   3  -7    3.34    0.34
  -1  -2  -7    2.62    0.34
   3  -1  -7    3.49    0.46
   3  -1  -7    3.01    0.41
  -3   1  -7    2.85    0.29
   3  -1  -7    3.44    0.39
   3  -1  -7    3.16    0.45
   3  -1  -7    3.11    0.24
   1   2  -7    3.67    0.47
   2  -3  -7    2.79    0.36
   2  -3  -7    3.77    0.47
  -2   3  -7    3.43    0.52
  -1  -2  -7    3.23    0.44
  -3   1  -7    2.66    0.40
   3  -1  -7    3.00    0.39
   2  -3  -7    2.66    0.23
  -3   1  -7    3.08    0.30
   2  -3  -7    3.60    0.49
   1   2  -7    3.51    0.39
   1   2  -7    2.88    0.33
  -3   1  -7    3.67    0.56
   2  -3  -7    3.03    0.39
  -1  -2  -7    3.00    0.30
  -2   3  -7    3.39    0.45
   1   2  -6   69.69    2.16
  -3   1  -6   70.79    1.92
   1   2  -6   68.61    2.09
   3  -1  -6   65.58    2.03
   3  -1  -6   67.27    1.77
   1   2  -6   67.73    1.90
  -2   3  -6   66.92    2.26
  -2   3  -6   77.70    2.13
  -3   1  -6   65.51    2.08
   1   2  -6   67.32    1.98
   3  -1  -6   66.06    2.00
  -3   1  -6   73.77    2.38
   2  -3  -6   65.40    1.96
  -1  -2  -6   65.18    1.92
  -2   3  -6   67.46    1.85
  -2   3  -6   65.31    1.91
   2  -3  -6   68.51    2.23
  -1  -2  -6   69.20    2.13
   3  -1  -6   66.43    2.14
   3  -1  -6   68.62    2.17
  -3   1  -6   63.38    1.81
   2  -3  -6   68.63    1.77
   2  -3  -6   65.56    2.03
  -1  -2  -6   66.53    1.88
   2  -3  -6   65.20    2.09
   3  -1  -6   65.81    2.06
  -1  -2  -5    9.15    0.46
   3  -1  -5    9.19    0.51
  -3   1  -5    9.18    0.67
   3  -1  -5    9.43    0.55
   3  -1  -5    9.85    0.60
  -3   1  -5    9.24    0.57
   2  -3  -5    9.70    0.53
  -1  -2  -5    9.07    0.57
   3  -1  -5    9.75    0.40
   2  -3  -5    9.86    0.58
  -2   3  -5    9.25    0.46
  -3   1  -5    9.81    0.49
   1   2  -5   10.01    0.58
   1   2  -5    9.61    0.57
  -2   3  -5    9.81    0.55
  -2   3  -5    9.64    0.42
   1   2  -5    9.42    0.45
   2  -3  -5    9.43    0.50
   2  -3  -5    9.01    0.39
   3  -1  -5    9.01    0.53
  -2   3  -5    9.43    0.64
   2  -3  -4  135.30    3.38
  -3   1  -4  138.08    3.67
   2  -3  -4  134.37    3.38
  -1  -2  -4  133.31    3.34
  -2   3  -4  141.09    3.44
  -2   3  -4  131.74    3.24
  -2   3  -4  127.86    3.28
   3  -1  -4  136.06    3.51
  -1  -2  -4  132.44    3.50
  -3   1  -4  127.53    3.48
   1   2  -4  134.49    3.45
   3  -1  -4  134.61    3.46
  -1  -2  -4  132.92    3.57
   3  -1  -4  133.45    3.26
  -3   1  -4  129.02    3.35
   2  -3  -4  135.73    3.50
   3  -1  -4  130.76    3.41
   1   2  -4  130.05    3.27
   3  -1  -3   24.77    0.85
   1   2  -3   26.25    0.84
   3  -1  -3   25.15    0.77
   2  -3  -3   24.94    0.80
   2  -3  -3   25.86    0.82
   2  -3  -3   25.77    0.91
  -3   1  -3   25.11    0.83
   3  -1  -3   25.59    0.91
   2  -3  -3   24.33    0.81
   3  -1  -3   24.91    0.87
  -1  -2  -3   24.35    0.81
  -1  -2  -3   26.92    0.95
  -3   1  -3   27.52    0.94
  -2   3  -3   24.33    0.83
  -1  -2  -3   25.62    0.91
   3  -1  -3   25.65    0.64
   1   2  -2  174.95    4.15
   3  -1  -2  174.15    4.27
   2  -3  -2  170.07    4.13
   3  -1  -2  173.15    4.18
   3  -1  -2  173.84    4.08
  -1  -2  -2  169.35    4.21
   2  -3  -2  173.07    4.13
  -3   1  -2  176.19    4.23
  -1  -2  -2  182.01    4.29
  -2   3  -2  174.35    4.19
  -3   1  -1   33.52    0.98
  -1  -2  -1   33.89    0.95
   1   2  -1   34.04    0.97
   3  -1  -1   33.99    0.97
  -2   3  -1   33.57    0.90
   3  -1  -1   34.35    0.91
   1   2  -1   34.75    0.95
  -1  -2   0  254.31    5.93
  -3   1   0  246.50    6.00
   3  -1   0  250.32    5.97
  -2   3   0  255.59    5.92
  -1  -2   0  254.35    5.99
   1   2   0  255.28    6.01
  -2   3   1   35.09    0.95
  -2   3   1   33.88    0.86
  -1  -2   1   33.27    0.96
   3  -1   1   33.47    0.98
  -3   1   1   34.32    0.93
   1   2   1   34.43    1.04
   2  -3   2  173.39    4.19
  -3   1   2  180.87    4.32
   3  -1   2  175.70    4.43
   1   2   2  181.96    4.41
   2  -3   2  178.56    4.17
  -2   3   2  179.52    4.29
  -3   1   2  172.17    4.25
  -1  -2   2  180.19    4.38
  -2   3   3   25.55    0.84
   3  -1   3   25.32    0.85
   2  -3   3   26.37    0.91
   2  -3   3   24.12    0.80
   1   2   3   25.39    0.81
   2  -3   3   25.81    0.70
  -1  -2   3   25.07    0.91
   1   2   3   24.78    0.92
   3  -1   3   25.31    0.69
   3  -1   3   25.61    0.89
   3  -1   3   24.27    0.95
   2  -3   3   25.49    0.71
  -3   1   3   25.33    0.87
   3  -1   4  131.81    3.43
   2  -3   4  144.42    3.22
   2  -3   4  130.95    3.48
   3  -1   4  130.99    3.57
   1   2   4  130.56    3.32
   3  -1   4  132.00    3.20
   2  -3   4  134.71    3.32
  -3   1   4  133.76    3.43
   3  -1   4  133.85    3.38
   3  -1   5    9.10    0.39
   3  -1   5    9.27    0.50
   3  -1   5    8.77    0.61
   2  -3   5    9.99    0.46
   3  -1   5    9.92    0.54
   1   2   5    9.10    0.46
   2  -3   5    8.89    0.40
  -1  -2   5   10.18    0.33
   2  -3   5    9.36    0.58
  -3   1   5    9.32    0.55
  -1  -2   5    9.63    0.59
  -2   3   6   66.43    2.00
   3  -1   6   69.13    1.97
   2  -3   6   67.08    1.87
  -1  -2   6   69.55    1.65
   1   2   6   68.19    2.12
   3  -1   6   64.03    1.99
   1   2   6   66.78    1.93
   2  -3   6   63.15    2.10
   3  -1   6   66.25    2.21
   2  -3   6   69.13    1.84
   3  -1   6   66.19    1.82
  -2   3   7    3.72    0.40
   3  -1   7    3.24    0.38
   2  -3   7    2.95    0.29
   1   2   7    2.97    0.33
   2  -3   7    3.07    0.45
   1   2   7    2.84    0.42
   3  -1   7    2.97    0.34
   1   2   8   31.38    1.20
   1   2   8   35.11    1.40
   3  -1   8   32.54    1.27
   2  -3   8   32.41    1.08
   3  -1   8   35.26    1.22
   2  -3   9    1.04    0.26
   3  -1   9    0.87    0.34
   1   2   9    1.04    0.36
   3   0 -10   20.22    1.23
   3  -3 -10   17.83    1.21
   0   3 -10   17.89    1.21
   3   0 -10   17.67    1.10
   3  -3 -10   14.72    0.97
   3  -3  -9    2.04    0.44
   3   0  -9    2.72    0.58
   3   0  -9    2.52    0.53
   0   3  -9    3.33    0.60
  -3   0  -9    3.05    0.63
   3  -3  -9    3.21    0.60
   3  -3  -9    3.12    0.33
  -3   3  -8   14.36    0.62
   3  -3  -8   14.90    0.96
   3   0  -8   13.81    0.89
   3   0  -8   14.11    0.76
   3   0  -8   15.59    0.94
   3  -3  -8   14.01    0.85
   0   3  -8   15.84    1.00
   0   3  -8   14.05    0.65
   0  -3  -8   15.92    0.65
  -3   0  -8   15.55    0.69
  -3   0  -8   15.58    1.07
   0   3  -8   15.61    0.75
   3  -3  -8   14.57    0.63
  -3   3  -8   13.63    0.74
  -3   0  -7   10.54    0.57
   3   0  -7   11.43    0.71
   3  -3  -7    9.55    0.67
   3   0  -7   10.20    0.73
   3   0  -7   10.77    0.63
  -3   0  -7    9.31    0.69
  -3   3  -7   10.53    0.49
   0   3  -7    9.83    0.51
  -3   3  -7   12.35    0.72
  -3   3  -7    9.75    0.60
   0   3  -7   10.27    0.60
   3  -3  -7   10.41    0.76
   3  -3  -7   11.82    0.72
   3   0  -7   11.02    0.75
   3   0  -7    9.93    0.62
   0  -3  -7    9.69    0.59
   3  -3  -7   11.17    0.68
   0  -3  -7   10.61    0.53
   0   3  -7   11.25    0.78
   3  -3  -7   10.52    0.36
   0  -3  -7   10.98    0.72
   3   0  -6  108.14    3.10
   3  -3  -6  113.29    3.21
  -3   0  -6  113.97    3.02
  -3   0  -6  114.65    3.27
   3   0  -6  117.11    3.32
   3   0  -6  113.56    3.21
   3   0  -6  112.23    3.12
  -3   3  -6  128.90    3.25
   0   3  -6  117.60    3.31
  -3   3  -6  111.38    3.07
   0   3  -6  117.53    3.08
   3  -3  -6  115.96    3.23
   0  -3  -6  116.86    3.26
   3  -3  -6  114.75    2.79
   0  -3  -6  114.46    3.06
   3  -3  -6  115.27    3.16
  -3   3  -6  114.90    2.76
   3   0  -6  114.15    3.26
   3  -3  -6  118.57    3.12
   0   3  -6  113.68    2.93
   0  -3  -6  116.86    2.98
  -3   3  -6  113.65    2.89
   3   0  -5   30.90    1.09
   3  -3  -5   31.34    1.08
   3   0  -5   29.95    1.14
  -3   3  -5   30.30    0.84
   3  -3  -5   30.24    0.86
   0  -3  -5   28.60    1.15
  -3   0  -5   28.80    1.16
   3  -3  -5   30.53    1.15
   0  -3  -5   30.78    1.23
   0  -3  -5   29.24    1.02
  -3   3  -5   30.17    0.88
   3   0  -5   29.95    1.19
   0  -3  -5   29.91    0.98
  -3   0  -5   29.87    1.02
   0   3  -5   29.96    1.16
  -3   3  -5   29.84    1.04
   0   3  -5   29.88    0.91
   3  -3  -5   30.66    1.12
   3  -3  -5   31.71    1.07
  -3   3  -5   34.39    1.15
   0  -3  -4   38.09    1.16
   0   3  -4   38.19    1.27
   3  -3  -4   39.20    1.30
   3   0  -4   37.85    1.32
   0   3  -4   40.16    1.30
  -3   3  -4   36.59    1.18
   3  -3  -4   37.65    1.20
  -3   3  -4   39.30    1.05
   0   3  -4   38.69    1.05
  -3   3  -4   38.30    1.02
   3  -3  -4   40.53    1.26
  -3   3  -4   42.06    1.26
  -3   0  -4   39.55    1.34
   3   0  -4   40.69    1.30
  -3   0  -4   39.39    1.20
   0  -3  -4   39.69    1.37
   3  -3  -4   37.60    1.20
   0  -3  -4   39.84    1.32
   0  -3  -3   68.15    1.93
   0   3  -3   64.99    1.83
  -3   3  -3   66.11    1.59
   3   0  -3   64.87    1.90
   0   3  -3   66.47    1.86
  -3   0  -3   66.21    1.93
   3  -3  -3   62.99    1.75
   0   3  -3   67.34    1.59
   3   0  -3   66.34    1.88
   3  -3  -3   65.26    1.80
  -3   3  -3   65.33    1.68
  -3   0  -3   66.54    1.81
   3  -3  -2  398.73    9.12
  -3   0  -2  391.92    9.19
   3  -3  -2  382.69    9.08
   3   0  -2  381.93    9.24
  -3   0  -2  383.79    9.30
   0   3  -2  384.79    9.20
  -3   3  -2  398.13    9.09
   3   0  -2  387.24    9.03
  -3   3  -1  100.86    2.35
   3  -3  -1   99.60    2.45
   3   0  -1   98.33    2.45
   0  -3  -1   99.11    2.52
   0   3  -1  104.00    2.47
   0   3  -1   97.00    2.40
   3   0   0   53.04    1.45
   0   3   0   53.81    1.44
  -3   3   0   55.59    1.38
   0  -3   0   55.07    1.42
   0  -3   0   56.69    1.37
   3  -3   0   53.92    1.36
   3  -3   1   95.01    2.46
   0   3   1  100.06    2.54
  -3   3   1   97.64    2.44
  -3   3   1  100.13    2.42
  -3   0   1   96.41    2.48
   3   0   1   94.98    2.54
  -3   3   1  101.01    2.34
  -3   0   1  100.54    2.51
   3   0   1  101.81    2.62
   0  -3   1   99.97    2.37
  -3   0   1   98.13    2.43
   0  -3   1   97.24    2.50
   3   0   1   99.99    2.51
  -3   0   2  391.30    9.17
   0  -3   2  387.86    9.27
  -3   3   2  394.79    9.16
   3  -3   2  396.08    9.16
   3  -3   2  401.93    9.17
   0   3   2  383.86    9.21
   0   3   2  387.16    9.31
  -3   0   2  390.06    9.08
  -3   3   2  395.69    9.21
  -3   0   2  388.61    9.25
   3   0   2  380.54    9.34
   0  -3   2  390.16    9.14
   3  -3   3   63.77    1.79
   0   3   3   64.14    1.90
  -3   0   3   65.67    1.69
  -3   0   3   66.57    1.57
  -3   3   3   64.62    1.80
   3   0   3   62.67    1.94
   0  -3   3   66.75    1.88
   3   0   3   65.96    1.68
   3  -3   3   65.19    1.72
   0  -3   3   65.94    1.77
   3  -3   4   40.03    1.34
  -3   0   4   37.10    1.27
   3   0   4   37.46    1.08
   0   3   4   37.08    1.31
   3   0   4   39.06    1.23
   3   0   4   38.82    1.38
   0  -3   4   40.22    1.22
   3  -3   4   39.18    1.12
   3  -3   4   38.41    1.19
  -3   3   4   39.61    1.23
   0   3   4   35.28    1.17
   3   0   4   39.74    1.31
   0  -3   4   38.77    1.30
   3   0   5   30.43    1.24
   3  -3   5   27.72    1.15
  -3   0   5   29.73    1.14
   0   3   5   29.77    1.02
   0  -3   5   28.93    1.14
   3   0   5   30.40    1.13
   3  -3   5   29.75    1.01
   3  -3   5   29.85    0.95
   0  -3   5   30.09    0.88
   3   0   5   30.33    0.93
   3   0   5   30.18    1.05
   0   3   6  116.30    3.08
   3   0   6  112.00    3.20
   3  -3   6  116.70    3.03
   0  -3   6  117.36    2.85
  -3   0   6  106.87    3.19
   3  -3   6  116.46    2.98
   3   0   6  120.10    3.41
   0   3   6  110.15    3.24
   3   0   6  120.18    3.12
   3   0   6  113.71    2.95
   3  -3   6  113.00    3.28
   0   3   7   10.57    0.61
   3   0   7    9.91    0.65
   3   0   7   10.01    0.52
   3  -3   7   10.40    0.54
   3   0   7   10.96    0.62
   3  -3   7    9.75    0.72
   0  -3   7   10.65    0.42
   3  -3   7   10.37    0.55
   3  -3   8   14.47    0.69
   3   0   8   14.11    0.82
   0  -3   8   15.13    0.51
   0   3   8   15.19    0.78
   3  -3   8   15.36    0.71
   3   0   8   14.79    0.69
   3  -3   9    2.14    0.32
   3   0   9    2.99    0.49
   0   3   9    2.89    0.43
   3  -3  10   18.48    0.80
   3   1 -10   11.39    0.96
   4  -3 -10   10.65    0.84
   4  -3  -9    0.71    0.46
   3   1  -9    0.46    0.43
   3   1  -9    0.46    0.43
   4  -3  -9    0.46    0.41
   4  -3  -8   22.33    1.13
   4  -3  -8   22.36    1.21
   1  -4  -8   22.39    0.84
  -4   3  -8   21.95    0.79
   4  -3  -8   22.05    0.84
  -1   4  -8   22.29    0.92
   3   1  -8   24.13    1.19
   3   1  -8   21.68    0.94
  -1   4  -8   23.62    1.23
   3   1  -8   24.98    1.22
  -4   3  -8   21.69    1.00
  -3  -1  -8   20.93    0.90
   1  -4  -7    2.38    0.37
  -1   4  -7    2.25    0.45
  -4   3  -7    2.21    0.20
   3   1  -7    2.31    0.42
  -4   3  -7    2.22    0.36
   4  -3  -7    1.58    0.36
  -4   3  -7    2.07    0.23
   4  -3  -7    1.57    0.37
  -1   4  -7    2.47    0.31
  -3  -1  -7    2.07    0.32
   3   1  -7    2.62    0.45
   4  -3  -7    1.80    0.40
  -1   4  -7    1.75    0.22
  -3  -1  -7    1.89    0.39
   3   1  -7    1.92    0.33
  -3  -1  -7    2.70    0.50
   1  -4  -7    2.44    0.28
   4  -3  -7    2.84    0.29
   4  -3  -6   63.18    1.52
  -4   3  -6   60.82    1.65
   1  -4  -6   60.20    1.87
  -4   3  -6   62.29    1.93
  -3  -1  -6   67.04    2.26
   1  -4  -6   67.10    2.08
  -1   4  -6   66.02    2.00
  -1   4  -6   59.66    1.66
   3   1  -6   64.78    2.02
   3   1  -6   63.40    1.95
  -4   3  -6   60.18    1.64
   3   1  -6   61.80    1.85
   4  -3  -6   62.93    1.52
   4  -3  -6   63.21    1.79
  -3  -1  -6   64.88    2.09
  -1   4  -6   65.64    2.11
   1  -4  -6   61.61    2.13
   4  -3  -6   65.06    2.03
   1  -4  -6   62.11    1.77
  -1   4  -6   64.45    1.84
   3   1  -6   66.58    2.04
   4  -3  -6   62.39    2.02
   3   1  -6   63.81    2.10
   4  -3  -6   64.07    1.93
  -4   3  -6   71.74    2.04
  -3  -1  -6   63.17    1.86
   4  -3  -6   64.19    1.97
  -1   4  -5    6.36    0.28
  -4   3  -5    6.76    0.34
   4  -3  -5    6.24    0.49
   4  -3  -5    6.25    0.44
  -3  -1  -5    8.06    0.63
   1  -4  -5    6.32    0.53
   3   1  -5    6.92    0.50
   1  -4  -5    6.28    0.50
   4  -3  -5    7.14    0.52
   1  -4  -5    6.75    0.44
  -1   4  -5    7.27    0.49
   3   1  -5    7.00    0.48
   3   1  -5    8.46    0.56
   4  -3  -5    7.32    0.48
   1  -4  -5    7.37    0.40
  -3  -1  -5    7.13    0.55
  -3  -1  -5    6.64    0.43
   4  -3  -5    7.57    0.41
   4  -3  -4   82.39    2.16
  -4   3  -4   78.07    2.07
   4  -3  -4   79.86    2.21
  -3  -1  -4   78.81    2.35
  -1   4  -4   83.45    2.26
   1  -4  -4   77.00    2.31
   3   1  -4   79.74    2.34
  -3  -1  -4   82.86    2.44
   3   1  -4   79.12    2.30
  -3  -1  -4   79.66    2.20
   4  -3  -4   81.83    2.27
   4  -3  -3   16.21    0.65
  -3  -1  -3   18.19    0.77
  -3  -1  -3   16.63    0.74
  -3  -1  -3   16.04    0.65
  -1   4  -3   16.41    0.67
   4  -3  -3   16.09    0.62
  -4   3  -3   16.70    0.58
   4  -3  -3   15.96    0.62
  -4   3  -2  171.16    4.14
  -1   4  -2  168.67    4.18
  -3  -1  -2  170.23    4.21
   1  -4  -2  169.71    4.24
   4  -3  -2  171.64    4.19
   4  -3  -2  169.94    4.15
  -3  -1  -2  170.06    4.32
   4  -3  -1   23.50    0.70
   4  -3  -1   22.37    0.73
   4  -3  -1   23.05    0.77
   1  -4  -1   24.89    0.78
  -4   3  -1   22.52    0.75
  -1   4   0  167.15    3.83
  -1   4   0  160.57    3.97
   3   1   0  171.71    4.03
  -4   3   0  160.48    4.02
  -3  -1   0  158.74    4.00
   4  -3   0  158.31    4.01
   1  -4   0  168.06    3.95
   4  -3   0  163.77    3.88
   3   1   0  161.56    4.12
   3   1   1   23.41    0.88
   4  -3   1   22.84    0.79
   1  -4   1   23.02    0.64
  -4   3   1   26.86    0.69
   1  -4   1   24.10    0.76
   4  -3   1   23.26    0.60
  -1   4   1   23.52    0.80
   3   1   1   23.18    0.79
   3   1   1   24.28    0.80
  -3  -1   1   22.99    0.73
  -3  -1   1   23.46    0.78
  -3  -1   2  170.86    4.06
  -4   3   2  168.97    4.15
   1  -4   2  174.34    4.22
   3   1   2  166.09    4.21
  -1   4   2  167.60    4.27
  -4   3   2  167.98    4.09
   3   1   2  176.72    4.36
   3   1   2  164.94    4.26
  -1   4   2  171.92    4.19
   4  -3   2  173.05    4.21
  -3  -1   2  167.72    4.21
   1  -4   2  168.34    4.13
   1  -4   3   16.43    0.69
  -1   4   3   15.03    0.71
  -3  -1   3   16.82    0.56
   4  -3   3   14.66    0.64
  -4   3   3   16.42    0.64
   1  -4   3   17.24    0.64
   3   1   3   16.05    0.73
  -1   4   3   16.20    0.64
   3   1   3   17.13    0.59
  -3  -1   3   16.09    0.50
  -4   3   3   15.96    0.60
   4  -3   3   16.20    0.64
   4  -3   4   80.81    2.19
   3   1   4   81.15    2.12
  -3  -1   4   78.74    2.03
  -3  -1   4   81.82    1.92
   1  -4   4   76.79    2.21
   1  -4   4   82.97    1.92
  -1   4   4   79.82    2.37
   1  -4   4   78.28    2.31
   3   1   4   82.90    2.28
   3   1   4   76.16    2.38
   4  -3   4   76.82    2.21
   1  -4   5    7.46    0.49
   3   1   5    7.87    0.49
   3   1   5    7.16    0.54
   4  -3   5    7.23    0.45
   3   1   5    7.50    0.40
   4  -3   5    7.15    0.42
   1  -4   5    6.74    0.37
   3   1   5    6.94    0.56
   1  -4   6   63.78    1.73
   4  -3   6   63.25    1.83
   3   1   6   63.83    2.05
   4  -3   6   60.00    2.06
   4  -3   6   61.21    1.86
   3   1   6   61.98    1.77
  -1   4   6   63.00    1.90
  -3  -1   7    2.11    0.40
   3   1   7    2.45    0.30
   4  -3   7    2.18    0.33
   4  -3   7    2.30    0.32
   3   1   7    1.73    0.38
  -1   4   7    2.03    0.33
   1  -4   7    2.73    0.26
   3   1   8   22.43    0.90
   4  -3   8   22.51    0.93
   3   1   8   22.73    1.11
   1  -4   8   22.62    0.78
  -1   4   8   22.01    1.00
   4  -3   8   23.67    0.98
   1  -4   9    0.54    0.19
   4  -3   9    1.08    0.30
   4  -3   9    0.56    0.26
   3   1   9    0.63    0.39
  -1   4   9    0.57    0.37
   3   1   9    0.61    0.31
   3   1  10   10.98    0.84
   4  -3  10   13.06    0.72
   2  -4 -10    1.57    0.43
   4  -2 -10    1.36    0.51
   2   2 -10    1.60    0.57
   4  -2 -10    1.82    0.56
   2   2  -9    0.23    0.38
   4  -2  -9    0.10    0.45
   4  -2  -9   -0.18    0.39
   2  -4  -9    0.16    0.45
   2  -4  -9    0.07    0.32
   2  -4  -8   88.98    2.33
  -4   2  -8   87.14    2.70
   4  -2  -8   91.85    2.36
   2   2  -8   97.08    2.55
   4  -2  -8   87.03    2.88
  -4   2  -8   83.80    2.28
  -2   4  -8   86.94    2.45
   2   2  -8   92.45    2.85
  -2   4  -8   86.83    2.42
   4  -2  -8   85.29    2.79
  -2  -2  -8   93.39    3.06
   2  -4  -8   88.78    2.94
  -2  -2  -8   92.51    2.49
   2  -4  -8   80.92    2.62
   2   2  -8   91.72    2.86
  -2   4  -7   -0.04    0.19
  -2  -2  -7    0.10    0.20
   2  -4  -7    0.20    0.26
  -2   4  -7    0.11    0.18
  -4   2  -7   -0.08    0.20
   2   2  -7    0.10    0.32
  -2  -2  -7    0.14    0.35
   4  -2  -7   -0.10    0.17
   4  -2  -7   -0.06    0.27
   2   2  -7    0.72    0.29
   4  -2  -7    0.06    0.28
   4  -2  -7   -0.22    0.30
   2   2  -7    0.33    0.33
  -4   2  -7    0.31    0.30
   2   2  -7   -0.02    0.20
  -4   2  -7    0.03    0.15
   2  -4  -6    1.84    0.22
  -2  -2  -6    1.77    0.28
   4  -2  -6    1.38    0.30
   2  -4  -6    1.40    0.29
  -4   2  -6    1.97    0.22
  -2   4  -6    1.36    0.23
   4  -2  -6    2.28    0.35
   2  -4  -6    2.03    0.31
   2  -4  -6    2.34    0.38
   2   2  -6    2.61    0.29
  -2   4  -6    0.97    0.30
  -4   2  -6    1.85    0.34
   2   2  -6    2.56    0.37
  -2   4  -6    1.87    0.23
   2   2  -6    2.30    0.33
   2   2  -6    2.16    0.35
   4  -2  -6    1.94    0.36
  -2  -2  -6    2.07    0.38
  -2  -2  -6    1.74    0.40
   4  -2  -6    1.99    0.32
  -4   2  -6    1.82    0.28
   4  -2  -6    1.80    0.22
  -4   2  -5    0.13    0.19
   2   2  -5    0.16    0.20
  -2  -2  -5   -0.04    0.18
   2   2  -5    0.46    0.17
  -4   2  -5    0.09    0.14
   4  -2  -5    0.49    0.24
  -2   4  -5   -0.04    0.15
  -2  -2  -5    0.73    0.28
   2   2  -5    0.10    0.22
  -4   2  -5    0.28    0.23
  -2   4  -5    0.13    0.21
   2  -4  -5    0.03    0.21
  -2  -2  -5    0.47    0.28
   4  -2  -5    0.22    0.23
   4  -2  -5    1.19    0.24
   4  -2  -5    0.42    0.15
   2  -4  -5    0.48    0.21
  -2   4  -5    0.08    0.11
   2  -4  -5    0.02    0.18
  -4   2  -4  490.22   11.92
   4  -2  -4  512.43   11.72
   4  -2  -4  502.26   12.07
  -2   4  -4  525.18   12.06
   2  -4  -4  515.53   11.97
   4  -2  -4  504.09   12.13
   2  -4  -4  503.30   12.14
  -2  -2  -4  508.81   12.18
   2   2  -4  504.89   12.02
  -2  -2  -4  526.62   12.26
  -4   2  -4  500.62   12.13
   2  -4  -4  506.26   12.00
  -4   2  -4  517.87   12.02
   2   2  -4  497.45   12.12
   4  -2  -4  509.74   11.93
  -2  -2  -4  503.07   12.00
  -2  -2  -3   -0.04    0.12
  -4   2  -3    0.04    0.12
  -4   2  -3    0.17    0.15
   2   2  -3    0.23    0.11
  -2   4  -3    0.16    0.13
   4  -2  -3    0.02    0.06
   2  -4  -3    0.20    0.10
   4  -2  -3    0.03    0.11
  -2  -2  -3    0.06    0.17
   4  -2  -3    0.48    0.16
   4  -2  -2   31.65    0.98
  -4   2  -2   31.13    0.98
   4  -2  -2   32.24    0.89
   4  -2  -2   32.49    0.98
  -2  -2  -2   32.44    1.03
   2   2  -2   31.95    1.04
  -4   2  -2   30.87    1.00
  -2   4  -2   32.76    0.96
   2  -4  -2   32.37    0.83
   2   2  -2   32.50    0.87
  -2  -2  -2   30.84    0.99
  -2  -2  -1    0.38    0.11
   2  -4  -1    0.54    0.13
   4  -2  -1    0.51    0.11
   2   2  -1    0.53    0.13
   4  -2  -1    0.70    0.12
  -2  -2  -1    0.36    0.14
   2   2  -1    0.40    0.12
   4  -2  -1    0.42    0.10
  -2   4  -1    0.58    0.10
  -4   2  -1    0.53    0.12
   2  -4   0  916.89   21.15
   2   2   0  938.09   21.39
   2  -4   0  957.18   21.24
   2   2   0  895.33   21.14
   4  -2   0  923.62   21.29
  -4   2   0  894.16   21.31
   4  -2   0  933.28   21.32
  -2  -2   0  931.17   21.26
  -2   4   1    0.86    0.13
   4  -2   1    0.56    0.13
   2  -4   1    0.41    0.09
   2   2   1    0.80    0.13
   2   2   2   29.43    1.00
  -2  -2   2   31.41    1.01
  -4   2   2   32.14    0.99
  -2   4   2   32.24    0.98
  -4   2   2   31.57    0.96
   2  -4   2   30.48    0.95
   4  -2   2   32.64    1.05
   2   2   2   32.54    1.10
   2  -4   2   31.35    0.79
  -2  -2   2   32.56    1.05
  -2  -2   3    0.16    0.15
   4  -2   3    0.17    0.17
   2   2   3    0.12    0.12
   2  -4   3   -0.07    0.15
   2  -4   3    0.10    0.07
   4  -2   3    0.20    0.15
  -4   2   3    0.17    0.13
   4  -2   3    0.05    0.05
  -4   2   3    0.02    0.14
  -2   4   3    0.08    0.12
   2   2   4  515.21   11.96
   2  -4   4  502.03   11.97
   2  -4   4  498.30   12.09
  -2  -2   4  507.11   11.77
  -4   2   4  496.75   12.04
  -2   4   4  514.40   12.04
   4  -2   4  507.16   12.07
   4  -2   4  499.17   12.24
   4  -2   4  519.64   12.06
  -2  -2   4  506.43   12.19
   4  -2   4  514.59   11.76
   2  -4   5    0.02    0.15
  -4   2   5    0.11    0.19
  -2  -2   5    0.49    0.07
   4  -2   5    0.28    0.27
   2  -4   5    0.14    0.21
   2   2   5    0.08    0.16
   4  -2   5    0.17    0.18
  -2  -2   5    0.09    0.06
  -2  -2   5   -0.03    0.21
   4  -2   5    0.37    0.19
   4  -2   6    1.88    0.30
   2  -4   6    1.97    0.25
   2   2   6    1.68    0.25
   4  -2   6    1.84    0.29
   2   2   6    2.06    0.35
   2  -4   6    1.68    0.33
  -2  -2   6    1.42    0.33
   2  -4   7    0.02    0.19
   2  -4   7    0.03    0.33
   2   2   7   -0.14    0.30
   4  -2   7   -0.02    0.24
   2   2   7    0.34    0.22
   4  -2   7    0.05    0.24
  -2   4   7    0.16    0.24
   2   2   8   84.99    2.74
   2   2   8   85.43    2.48
   2  -4   8   88.65    2.37
   4  -2   8   88.52    2.56
   4  -2   8   90.39    2.54
  -2   4   8   85.41    2.60
   2  -4   9    0.10    0.22
   2   2   9    0.32    0.39
   4  -2   9    0.06    0.31
   4  -2   9   -0.24    0.30
   2   2   9    0.08    0.31
   4  -2  10    1.44    0.39
   4  -1 -10    4.11    0.71
   1   3 -10    4.83    0.70
   3  -4 -10    3.63    0.57
   1   3  -9   -0.09    0.42
   3  -4  -9    0.16    0.42
   3  -4  -9    0.11    0.33
  -4   1  -9   -0.06    0.48
   4  -1  -9   -0.05    0.43
  -1  -3  -9   -0.06    0.47
  -4   1  -8   63.17    1.89
  -1  -3  -8   68.94    2.41
  -1  -3  -8   61.95    1.84
   1   3  -8   60.92    1.80
   1   3  -8   63.66    2.21
   4  -1  -8   64.84    2.24
  -3   4  -8   61.38    1.77
   4  -1  -8   62.76    2.21
  -3   4  -8   58.79    1.84
   3  -4  -8   55.94    2.00
  -4   1  -8   65.35    2.44
   3  -4  -8   61.88    2.27
  -3   4  -7    0.21    0.21
   4  -1  -7    0.33    0.26
   4  -1  -7    0.49    0.34
   3  -4  -7    0.29    0.29
  -1  -3  -7    0.22    0.20
   1   3  -7    0.15    0.26
   4  -1  -7   -0.03    0.29
   4  -1  -7    0.07    0.14
   1   3  -7    0.18    0.33
  -1  -3  -7    0.04    0.34
   3  -4  -7    0.03    0.25
   3  -4  -7   -0.08    0.30
   3  -4  -7    0.04    0.14
  -4   1  -7    0.50    0.38
   1   3  -7    0.18    0.19
  -4   1  -7    0.07    0.32
  -3   4  -7    0.16    0.17
  -4   1  -7    0.15    0.23
   4  -1  -6    5.86    0.48
   4  -1  -6    6.17    0.34
  -4   1  -6    5.60    0.53
  -3   4  -6    5.97    0.34
  -1  -3  -6    6.67    0.60
   3  -4  -6    5.97    0.47
   4  -1  -6    6.06    0.48
   1   3  -6    6.37    0.36
  -1  -3  -6    5.66    0.54
   3  -4  -6    5.91    0.47
  -3   4  -6    5.46    0.37
   3  -4  -6    5.70    0.45
  -4   1  -6    6.74    0.45
   4  -1  -6    6.44    0.52
  -3   4  -6    6.01    0.50
   3  -4  -6    5.88    0.51
  -1  -3  -6    5.68    0.40
   1   3  -6    5.63    0.50
   3  -4  -6    5.84    0.32
   4  -1  -6    5.18    0.51
  -3   4  -5    0.31    0.13
   4  -1  -5    0.22    0.22
  -1  -3  -5    0.45    0.19
   3  -4  -5    0.21    0.18
   3  -4  -5    0.97    0.21
  -4   1  -5    0.17    0.18
  -3   4  -5    0.47    0.22
   1   3  -5    0.16    0.23
   1   3  -5    0.31    0.22
  -1  -3  -5    0.22    0.25
  -1  -3  -5    0.28    0.25
   3  -4  -5    0.32    0.19
   3  -4  -5    0.14    0.23
   4  -1  -5    0.03    0.23
  -4   1  -5    0.53    0.26
   4  -1  -5    0.02    0.20
   1   3  -5    0.26    0.13
   4  -1  -5    0.37    0.15
  -4   1  -4  316.38    7.58
   3  -4  -4  299.71    7.51
   1   3  -4  300.64    7.37
  -1  -3  -4  316.00    7.71
  -3   4  -4  313.91    7.36
   4  -1  -4  325.92    7.47
  -4   1  -4  312.16    7.73
   4  -1  -4  303.16    7.65
  -1  -3  -4  327.97    7.78
   4  -1  -4  316.27    7.72
   1   3  -4  323.09    7.70
   3  -4  -4  326.73    7.72
   1   3  -4  314.01    7.58
  -3   4  -4  326.44    7.60
   3  -4  -4  307.13    7.54
  -1  -3  -4  309.66    7.54
   4  -1  -4  320.07    7.63
  -1  -3  -3    1.06    0.21
  -1  -3  -3    0.71    0.17
   1   3  -3    0.83    0.19
   1   3  -3    1.27    0.17
  -4   1  -3    0.53    0.16
  -4   1  -3    1.10    0.24
  -3   4  -3    1.55    0.19
   4  -1  -3    0.88    0.20
   4  -1  -3    0.83    0.09
   3  -4  -3    0.66    0.13
   4  -1  -3    0.92    0.15
   3  -4  -3    1.11    0.15
   3  -4  -2    3.25    0.18
  -1  -3  -2    2.86    0.25
   1   3  -2    3.36    0.26
  -1  -3  -2    3.10    0.25
   1   3  -2    3.72    0.22
   3  -4  -2    2.89    0.23
   4  -1  -2    3.01    0.18
  -4   1  -2    3.47    0.26
   3  -4  -1    2.60    0.19
  -3   4  -1    2.02    0.13
   1   3  -1    2.20    0.18
   4  -1  -1    2.20    0.17
  -3   4  -1    2.20    0.14
   1   3  -1    2.07    0.18
  -1  -3  -1    1.93    0.17
  -1  -3   0  585.77   13.56
  -3   4   0  601.23   13.64
   4  -1   0  588.71   13.73
  -1  -3   0  591.29   13.65
  -1  -3   0  592.11   13.73
  -4   1   0  590.24   13.74
  -4   1   0  572.07   13.77
   1   3   0  587.94   13.76
   4  -1   1    2.08    0.20
   1   3   1    2.39    0.24
  -1  -3   1    2.37    0.19
  -3   4   1    1.91    0.13
  -3   4   1    2.37    0.19
  -4   1   1    2.32    0.19
   4  -1   2    2.95    0.25
  -4   1   2    2.66    0.22
  -1  -3   2    3.37    0.28
   4  -1   2    3.00    0.30
  -4   1   2    3.15    0.25
   1   3   2    2.97    0.29
  -3   4   2    2.95    0.23
   3  -4   2    3.40    0.21
  -4   1   2    2.90    0.19
   4  -1   3    0.65    0.21
  -4   1   3    1.30    0.17
   3  -4   3    1.02    0.13
   4  -1   3    0.72    0.20
  -1  -3   3    0.58    0.18
  -4   1   3    0.72    0.17
   1   3   3    1.18    0.19
   4  -1   3    0.94    0.11
   1   3   3    0.99    0.22
   3  -4   3    0.87    0.17
   3  -4   3    0.63    0.20
   3  -4   3    0.82    0.11
  -3   4   3    0.86    0.17
   4  -1   4  312.99    7.87
  -1  -3   4  320.47    7.34
  -1  -3   4  315.53    7.79
   4  -1   4  314.08    7.42
  -3   4   4  313.60    7.65
   3  -4   4  310.42    7.43
   4  -1   4  323.48    7.75
   1   3   4  321.97    7.61
   1   3   4  312.59    7.81
   3  -4   4  307.64    7.74
  -4   1   4  320.21    7.71
   4  -1   4  322.04    7.68
   3  -4   4  315.40    7.61
   4  -1   5    0.20    0.20
   4  -1   5    0.42    0.28
  -1  -3   5    0.20    0.22
  -4   1   5    0.47    0.22
   4  -1   5    0.23    0.12
   3  -4   5   -0.03    0.22
   4  -1   5    0.12    0.20
   3  -4   5    0.18    0.11
   3  -4   5    0.28    0.18
  -3   4   5    0.39    0.21
   1   3   5    0.68    0.21
   3  -4   6    5.15    0.49
   4  -1   6    6.09    0.34
   4  -1   6    5.68    0.48
  -4   1   6    5.65    0.49
  -1  -3   6    6.63    0.28
  -1  -3   6    5.02    0.50
   1   3   6    7.68    0.47
   4  -1   6    6.30    0.58
   3  -4   6    5.35    0.32
   4  -1   6    5.68    0.46
   3  -4   6    6.03    0.40
   4  -1   7    0.08    0.25
   3  -4   7    0.43    0.21
   4  -1   7    0.03    0.26
  -1  -3   7    0.11    0.09
   3  -4   7    0.34    0.31
   1   3   7    0.05    0.22
   1   3   7   -0.15    0.30
   4  -1   7    0.07    0.19
  -3   4   7    0.14    0.27
   4  -1   8   60.18    1.91
   1   3   8   57.96    1.86
   1   3   8   61.90    2.12
   4  -1   8   60.13    1.98
   3  -4   8   57.72    1.76
   3  -4   9    0.53    0.26
   4  -1   9    0.06    0.31
   1   3   9    0.26    0.30
   4  -1   9    0.30    0.36
   4  -1  10    3.37    0.48
   1   3  10    3.20    0.48
   0   4 -10   15.61    1.07
   4   0 -10   14.66    1.07
   4  -4 -10   13.02    0.90
   4  -4  -9    5.42    0.62
   4  -4  -9    5.47    0.70
   4   0  -9    6.84    0.74
   0   4  -9    6.14    0.68
   0  -4  -9    5.40    0.74
   4   0  -9    5.39    0.68
   4  -4  -9    6.16    0.46
   0  -4  -8   10.53    0.88
   4   0  -8    8.87    0.62
   4  -4  -8   10.13    0.57
   4   0  -8    9.22    0.77
  -4   0  -8   10.51    0.63
   0  -4  -8   12.25    0.60
   4   0  -8    9.97    0.77
   4  -4  -8   10.09    0.73
   4  -4  -8    9.23    0.80
   0   4  -8    9.62    0.79
   0   4  -7   20.70    1.07
   4  -4  -7   20.26    0.97
   4   0  -7   23.32    1.14
   0  -4  -7   21.98    1.16
   0   4  -7   20.74    0.73
   0  -4  -7   21.90    0.86
   4  -4  -7   24.45    1.06
   4   0  -7   21.51    0.95
   4  -4  -7   21.08    0.64
   4   0  -7   22.92    1.09
  -4   0  -7   20.46    1.07
  -4   4  -7   20.18    0.71
   4  -4  -7   22.21    0.87
   0   4  -7   22.53    0.94
  -4   0  -7   22.20    0.91
  -4   0  -6  104.05    2.78
   0   4  -6  105.64    2.93
   4   0  -6   98.02    2.91
   4   0  -6  100.27    3.02
   4   0  -6  102.36    2.86
   0  -4  -6  101.34    3.08
   4  -4  -6  101.28    2.89
  -4   4  -6  111.80    2.93
   4  -4  -6  100.35    2.81
   0   4  -6  105.18    2.98
   4  -4  -6  101.80    2.83
   0  -4  -6  102.51    2.98
   4  -4  -6   99.37    2.51
   0  -4  -6  101.64    2.71
   4  -4  -6  105.03    2.97
  -4   0  -6  100.53    3.00
  -4   4  -6   97.42    2.50
   4   0  -6  105.08    2.97
  -4   0  -6  108.24    3.23
   0   4  -6   97.10    2.52
   0  -4  -5   62.72    2.03
   4  -4  -5   63.09    1.89
   4   0  -5   65.29    1.95
  -4   0  -5   74.74    2.26
  -4   4  -5   61.84    1.61
   0  -4  -5   61.30    1.82
   4  -4  -5   64.05    1.94
   4   0  -5   65.92    2.02
   4  -4  -5   67.23    2.05
   0   4  -5   66.64    2.00
   0   4  -5   67.04    1.99
   4   0  -5   66.11    2.09
  -4   0  -5   65.84    2.08
  -4   4  -5   71.01    1.98
   0  -4  -5   66.80    2.12
  -4   0  -5   65.36    1.89
   0   4  -5   63.06    1.60
   0   4  -4   19.46    0.81
  -4   0  -4   19.00    0.77
  -4   4  -4   19.04    0.51
   4   0  -4   20.14    0.89
  -4   0  -4   20.08    0.90
   4  -4  -4   19.78    0.76
   0  -4  -4   17.69    0.72
  -4   4  -4   21.12    0.80
   0  -4  -4   17.80    0.85
   4  -4  -4   18.01    0.72
   4   0  -3  145.26    3.73
   4  -4  -3  146.07    3.56
   4  -4  -3  140.03    3.56
  -4   0  -3  142.86    3.76
   4  -4  -3  140.43    3.51
  -4   0  -3  138.86    3.62
   0   4  -3  142.26    3.65
   0   4  -2  342.58    7.85
   0   4  -2  323.89    7.63
   0  -4  -2  333.36    7.92
  -4   0  -2  331.14    7.89
   4  -4  -2  324.44    7.80
   4   0  -2  334.72    7.73
   0   4  -1  198.89    4.82
   4   0  -1  205.66    4.87
   0  -4  -1  205.08    4.73
  -4   4  -1  200.63    4.73
   0  -4  -1  200.87    4.93
   4  -4  -1  208.43    4.96
   4  -4  -1  198.62    4.83
   0   4  -1  203.93    4.85
  -4   4   0   20.19    0.62
   0  -4   0   20.73    0.68
   4   0   0   22.23    0.72
  -4   0   0   19.82    0.70
   4  -4   0   20.61    0.61
   0   4   1  195.30    4.96
  -4   0   1  201.89    4.93
   4  -4   1  203.63    4.90
  -4   4   1  201.28    4.85
  -4   0   1  202.29    4.94
  -4   0   1  198.62    4.86
   0  -4   1  200.47    4.78
   4   0   1  208.08    5.09
   4   0   1  201.92    4.94
  -4   4   1  203.55    4.69
   0  -4   1  203.26    4.93
   0   4   2  318.63    7.91
   0  -4   2  327.01    7.65
  -4   4   2  326.07    7.78
   4   0   2  333.74    7.85
   4   0   2  314.02    7.92
  -4   0   2  326.77    7.78
   0  -4   2  333.55    7.87
  -4   4   2  324.29    7.71
  -4   0   2  329.40    7.68
   4  -4   2  331.13    7.76
   0   4   2  330.72    7.82
  -4   0   2  324.16    7.84
   0  -4   3  139.95    3.64
  -4   0   3  133.15    3.60
   0  -4   3  136.36    3.42
   4  -4   3  141.18    3.43
   4  -4   3  136.89    3.56
  -4   0   3  142.56    3.33
  -4   0   3  138.31    3.58
   0   4   3  140.55    3.70
   4  -4   3  133.34    3.64
   4   0   3  134.65    3.69
   4  -4   3  142.59    3.45
  -4   4   3  140.17    3.54
  -4   0   3  135.80    3.44
   4   0   4   19.20    0.64
   4  -4   4   19.14    0.77
  -4   0   4   19.86    0.84
  -4   0   4   18.83    0.65
   4   0   4   19.41    0.91
   0   4   4   18.98    0.88
   4   0   4   19.44    0.87
   4  -4   4   19.36    0.68
  -4   4   4   21.29    0.81
   0  -4   4   18.41    0.85
   0  -4   4   18.46    0.72
   4   0   4   18.43    0.79
   4  -4   4   19.75    0.88
   4   0   5   67.05    2.15
   4  -4   5   62.65    1.88
   4   0   5   64.35    2.04
   4   0   5   66.81    1.75
  -4   0   5   62.18    2.00
   0   4   5   66.24    2.10
   0   4   5   67.12    1.91
   4  -4   5   60.44    2.03
   0  -4   5   61.68    2.04
   4   0   5   66.76    1.96
   4  -4   5   64.47    1.77
  -4   4   5   63.39    1.94
   4   0   6  100.73    3.10
   4  -4   6  100.69    2.77
  -4   0   6   98.06    2.95
   0  -4   6  100.85    2.58
   4  -4   6  104.04    2.67
  -4   4   6  101.58    2.87
   4  -4   6   96.10    2.96
   4   0   6  102.95    2.97
   0   4   6   99.57    2.80
   4   0   6  102.96    2.64
   4   0   6  108.67    2.90
   4  -4   7   20.57    0.80
   4   0   7   19.30    0.99
   0  -4   7   21.91    0.70
   0   4   7   19.68    1.05
   4   0   7   19.61    0.78
   0   4   7   20.43    0.91
  -4   0   7   19.52    1.01
   4   0   7   21.45    0.96
   4  -4   7   22.74    0.90
   4  -4   8    9.79    0.54
   4   0   8    9.34    0.70
   0   4   8    9.73    0.64
   4  -4   8    9.70    0.59
   4   0   8   10.11    0.69
   0  -4   8    9.58    0.41
   4   0   8   10.27    0.55
   0   4   9    4.83    0.52
   4   0   9    5.22    0.59
   4  -4   9    5.39    0.48
   0   4  10   15.39    0.91
   4  -4  10   15.22    0.75
   4   0  10   13.98    0.92
   5  -4 -10   13.48    0.92
   4   1 -10   15.05    1.06
  -4  -1  -9    5.82    0.82
   5  -4  -9    4.67    0.43
   1  -5  -9    5.03    0.70
   4   1  -9    4.75    0.61
   5  -4  -9    5.30    0.71
   4   1  -9    4.51    0.65
   5  -4  -9    4.43    0.59
   4   1  -8    8.03    0.69
   4   1  -8    6.51    0.69
   1  -5  -8    7.22    0.47
   5  -4  -8    6.01    0.62
  -4  -1  -8    7.47    0.83
   1  -5  -8    6.55    0.71
   5  -4  -8    6.91    0.48
  -1   5  -8    6.68    0.52
   4   1  -8    6.35    0.51
   5  -4  -7   18.25    0.92
   5  -4  -7   19.59    0.82
   1  -5  -7   18.52    0.78
   4   1  -7   19.46    1.07
   1  -5  -7   20.47    1.12
   4   1  -7   18.53    0.84
   5  -4  -7   17.52    0.96
  -5   4  -7   18.96    0.65
   4   1  -7   20.04    0.99
  -4  -1  -7   17.56    0.84
  -1   5  -7   19.38    0.84
  -5   4  -6  103.93    2.74
  -4  -1  -6   93.29    2.83
   4   1  -6   94.09    2.84
   4   1  -6   92.86    2.69
   5  -4  -6   91.33    2.53
   5  -4  -6   89.80    2.70
  -4  -1  -6   97.93    3.01
   4   1  -6   91.00    2.68
   5  -4  -6   91.81    2.74
   5  -4  -6   87.13    2.26
   1  -5  -6   88.50    2.48
   1  -5  -6   93.56    2.79
  -4  -1  -6   96.26    2.60
  -5   4  -6   90.39    2.35
   5  -4  -6   92.08    2.64
   1  -5  -6   92.45    2.87
  -1   5  -6   95.50    2.71
   4   1  -5   52.92    1.82
  -4  -1  -5   54.82    1.85
   5  -4  -5   52.76    1.71
   5  -4  -5   54.42    1.61
   5  -4  -5   53.66    1.66
  -4  -1  -5   54.33    1.66
  -4  -1  -5   56.88    1.93
  -1   5  -5   57.21    1.74
   1  -5  -5   50.26    1.56
  -5   4  -5   49.12    1.46
   4   1  -5   50.96    1.67
   1  -5  -5   54.53    1.84
  -1   5  -4   13.76    0.66
   5  -4  -4   12.72    0.60
   5  -4  -4   12.47    0.60
  -5   4  -4   12.62    0.53
   5  -4  -4   14.31    0.67
  -4  -1  -4   14.28    0.78
   5  -4  -4   13.16    0.62
  -4  -1  -4   12.82    0.74
   5  -4  -3  113.55    2.93
   1  -5  -3  112.63    3.01
   5  -4  -3  110.92    2.89
  -4  -1  -3  110.76    3.09
  -1   5  -3  116.11    2.95
  -5   4  -3  108.57    2.84
  -4  -1  -3  108.51    2.94
  -4  -1  -2  281.08    6.84
  -5   4  -2  278.61    6.77
   5  -4  -2  283.19    6.83
   5  -4  -2  285.42    6.74
  -4  -1  -2  271.76    6.96
   1  -5  -2  291.65    6.86
   5  -4  -1  173.03    4.38
   5  -4  -1  176.63    4.29
  -1   5  -1  184.15    4.28
   5  -4  -1  179.32    4.43
   1  -5  -1  176.86    4.39
  -5   4  -1  176.88    4.39
   5  -4   0   12.35    0.43
   4   1   0   14.13    0.57
   4   1   0   13.42    0.65
  -1   5   0   14.22    0.54
   1  -5   0   13.28    0.49
  -4  -1   0   12.60    0.54
   5  -4   0   12.23    0.55
  -4  -1   1  174.99    4.34
   5  -4   1  172.22    4.42
   1  -5   1  173.39    4.37
   5  -4   1  180.16    4.41
  -1   5   1  180.70    4.44
   1  -5   1  176.74    4.22
  -4  -1   1  178.29    4.41
   4   1   1  181.53    4.59
   5  -4   1  179.67    4.15
   4   1   1  180.45    4.44
  -5   4   1  176.45    4.22
   4   1   1  177.13    4.42
   1  -5   2  279.86    6.80
   5  -4   2  290.59    6.76
  -5   4   2  284.30    6.72
   1  -5   2  274.48    6.66
   4   1   2  287.40    6.84
  -4  -1   2  281.60    6.81
   5  -4   2  259.95    6.80
   4   1   2  303.07    7.03
   4   1   2  265.20    6.86
  -1   5   2  288.44    6.81
  -1   5   2  272.05    6.88
  -4  -1   2  282.36    6.66
  -5   4   2  281.88    6.62
  -4  -1   3  108.34    2.97
   4   1   3  108.36    3.05
  -5   4   3  108.38    2.87
  -5   4   3  115.01    2.81
   4   1   3  114.05    3.13
   1  -5   3  111.31    3.00
  -1   5   3  106.91    3.06
  -4  -1   3  112.97    2.83
   5  -4   3  113.65    2.92
   1  -5   3  108.75    2.83
  -1   5   3  110.58    2.94
  -4  -1   3  111.20    2.74
  -4  -1   4   12.68    0.51
  -1   5   4   13.97    0.75
   1  -5   4   11.83    0.57
   4   1   4   12.98    0.74
  -4  -1   4   13.75    0.43
   4   1   4   13.54    0.56
   1  -5   4   13.95    0.72
   5  -4   4   12.22    0.63
   4   1   4   12.59    0.66
   4   1   5   52.30    1.84
   4   1   5   55.48    1.73
   5  -4   5   53.43    1.57
   4   1   5   53.10    1.82
   4   1   5   53.47    1.51
   1  -5   5   49.57    1.73
   5  -4   5   49.94    1.77
   5  -4   5   49.70    1.62
   1  -5   5   50.20    1.59
  -4  -1   6   86.00    2.72
   5  -4   6   90.41    2.78
  -1   5   6   91.33    2.60
   4   1   6   92.08    2.79
   5  -4   6   87.85    2.47
   4   1   6   90.58    2.44
   4   1   6   97.85    2.70
   1  -5   6   90.37    2.42
   4   1   6   94.10    2.88
   5  -4   6   88.94    2.57
   4   1   7   18.53    0.77
  -1   5   7   18.07    0.88
   4   1   7   18.53    0.99
   5  -4   7   18.06    0.78
   1  -5   7   19.22    0.72
  -4  -1   7   18.57    1.00
   5  -4   7   19.07    0.88
   1  -5   8    7.09    0.41
   5  -4   8    6.97    0.49
   4   1   8    7.84    0.51
   4   1   8    7.50    0.67
   5  -4   8    6.03    0.51
  -1   5   8    7.28    0.60
   4   1   9    4.49    0.60
  -1   5   9    4.67    0.55
   4   1   9    4.47    0.44
   5  -4   9    5.58    0.51
   5  -4   9    4.39    0.44
   5  -4  10   14.75    0.80
   2  -5 -10    3.54    0.50
   3   2 -10    3.72    0.68
   5  -3 -10    4.03    0.64
   5  -3  -9   -0.27    0.43
   2  -5  -9    0.88    0.36
  -3  -2  -9    0.73    0.56
   3   2  -9    0.31    0.41
   3   2  -9    0.05    0.41
   5  -3  -9    0.41    0.46
   3   2  -8   37.94    1.59
   5  -3  -8   35.69    1.53
  -5   3  -8   35.08    1.41
   5  -3  -8   35.82    1.20
   5  -3  -8   36.10    1.61
  -2   5  -8   36.55    1.24
  -3  -2  -8   41.61    1.81
   3   2  -8   37.74    1.52
   2  -5  -8   32.40    1.32
  -2   5  -7    0.62    0.22
   5  -3  -7    0.16    0.30
  -5   3  -7    0.11    0.17
   3   2  -7    0.36    0.32
   5  -3  -7    0.32    0.23
   2  -5  -7    0.27    0.20
   2  -5  -7    0.08    0.27
   2  -5  -7    0.18    0.23
   3   2  -7    0.27    0.22
   2  -5  -7    0.17    0.34
  -3  -2  -7    0.39    0.25
   5  -3  -7    0.45    0.34
  -3  -2  -7    0.34    0.41
  -3  -2  -6   16.33    0.96
   5  -3  -6   14.65    0.78
   2  -5  -6   14.67    0.63
   5  -3  -6   16.48    0.84
  -2   5  -6   15.52    0.67
  -5   3  -6   15.05    0.60
   5  -3  -6   15.06    0.67
  -3  -2  -6   15.45    0.73
  -2   5  -6   15.52    0.79
   3   2  -6   17.70    0.87
   5  -3  -6   15.22    0.84
  -3  -2  -6   15.39    0.87
   2  -5  -6   16.27    0.87
   5  -3  -6   15.54    0.77
   3   2  -6   16.15    0.79
   2  -5  -6   15.50    0.73
   2  -5  -6   15.06    0.74
   3   2  -6   14.78    0.67
   2  -5  -6   14.00    0.69
   3   2  -5    1.16    0.25
   5  -3  -5    1.00    0.26
  -2   5  -5    1.19    0.28
   2  -5  -5    1.32    0.22
  -5   3  -5    1.35    0.20
   5  -3  -5    1.10    0.11
  -3  -2  -5    1.71    0.28
   5  -3  -5    1.38    0.22
   2  -5  -5    1.41    0.31
  -5   3  -5    1.24    0.26
  -3  -2  -5    1.19    0.32
   5  -3  -5    1.35    0.30
  -3  -2  -5    1.02    0.35
   2  -5  -5    1.12    0.24
  -5   3  -4  169.22    4.24
   2  -5  -4  169.37    4.19
   5  -3  -4  173.26    4.42
  -3  -2  -4  171.07    4.51
   5  -3  -4  172.52    4.29
   3   2  -4  167.42    4.27
   5  -3  -4  172.08    4.09
  -5   3  -4  174.99    4.35
  -2   5  -4  174.85    4.36
  -3  -2  -4  165.42    4.33
  -3  -2  -4  174.61    4.55
   5  -3  -3    2.16    0.18
   5  -3  -3    2.40    0.25
  -2   5  -3    2.72    0.27
  -5   3  -3    2.65    0.28
   3   2  -3    2.29    0.21
   5  -3  -3    2.12    0.25
  -3  -2  -3    2.35    0.32
   2  -5  -3    3.14    0.18
   2  -5  -3    2.34    0.28
  -5   3  -3    2.47    0.25
  -3  -2  -3    2.63    0.29
  -3  -2  -3    2.61    0.30
  -3  -2  -2   29.42    0.98
   5  -3  -2   26.91    0.87
   5  -3  -2   27.89    0.95
  -5   3  -2   28.24    0.97
  -5   3  -2   27.99    0.94
   3   2  -2   30.37    1.02
   5  -3  -2   28.60    0.92
  -3  -2  -2   27.48    0.96
  -2   5  -2   30.78    0.92
   2  -5  -2   28.77    0.98
   5  -3  -1    1.78    0.21
   5  -3  -1    1.99    0.18
   2  -5  -1    2.37    0.22
  -5   3  -1    1.75    0.21
   3   2  -1    1.29    0.20
   5  -3  -1    1.76    0.19
  -3  -2  -1    1.79    0.25
   5  -3   0  286.53    6.80
  -5   3   0  285.67    6.78
   5  -3   0  284.88    6.62
   2  -5   0  294.03    6.68
  -3  -2   0  285.42    6.73
   3   2   0  289.93    6.91
   3   2   0  266.39    6.62
   2  -5   0  276.55    6.62
   5  -3   0  280.52    6.76
  -3  -2   0  280.68    6.75
  -3  -2   1    1.76    0.19
   2  -5   1    1.99    0.14
  -3  -2   1    1.97    0.22
   5  -3   1    1.75    0.11
   3   2   1    2.09    0.20
   3   2   1    1.76    0.25
   2  -5   1    1.93    0.18
   5  -3   1    1.59    0.20
  -3  -2   2   28.37    1.02
  -5   3   2   27.48    0.88
   5  -3   2   26.91    0.96
  -5   3   2   29.14    0.94
  -3  -2   2   29.73    0.97
   3   2   2   28.76    1.09
   5  -3   2   29.58    1.02
   2  -5   2   27.02    0.91
   3   2   2   26.40    0.95
  -2   5   2   28.63    0.94
  -3  -2   2   27.87    0.86
  -5   3   3    2.60    0.27
  -3  -2   3    2.46    0.31
   5  -3   3    2.51    0.28
   2  -5   3    2.36    0.26
   3   2   3    2.42    0.30
  -5   3   3    2.41    0.23
  -2   5   3    2.18    0.25
   5  -3   3    1.78    0.31
   3   2   3    2.42    0.32
   2  -5   3    2.23    0.25
  -3  -2   3    2.29    0.18
  -3  -2   4  168.11    4.50
  -3  -2   4  171.93    4.16
  -2   5   4  171.06    4.38
  -3  -2   4  175.02    4.11
   5  -3   4  168.03    4.38
   2  -5   4  169.68    4.38
   3   2   4  174.18    4.30
  -5   3   4  167.87    4.33
   2  -5   4  179.22    4.10
   5  -3   4  167.16    4.39
   5  -3   4  165.40    4.56
   5  -3   5    1.66    0.28
  -3  -2   5    1.22    0.10
  -5   3   5    0.98    0.24
   2  -5   5    1.51    0.28
  -3  -2   5    1.32    0.14
  -3  -2   5    1.01    0.29
   5  -3   5    1.34    0.24
   2  -5   5    1.05    0.21
   3   2   5    1.02    0.23
   2  -5   6   13.85    0.63
   5  -3   6   14.14    0.72
   3   2   6   15.77    0.88
   3   2   6   15.68    0.68
   5  -3   6   15.12    0.72
   2  -5   6   13.62    0.74
   3   2   7    0.38    0.24
   5  -3   7    0.18    0.27
   2  -5   7    0.40    0.19
   2  -5   7    0.27    0.34
   3   2   7    0.75    0.33
   5  -3   7    0.59    0.27
  -2   5   7    0.62    0.29
  -2   5   8   34.21    1.38
   3   2   8   36.62    1.53
   5  -3   8   36.03    1.31
   3   2   8   36.57    1.29
   2  -5   8   36.39    1.18
   5  -3   8   35.82    1.33
   5  -3   9    0.31    0.33
   2  -5   9   -0.02    0.23
   3   2   9    0.09    0.39
   5  -3   9   -0.06    0.30
  -2   5   9   -0.07    0.37
   3   2   9    0.53    0.34
   5  -3  10    6.04    0.55
   5  -3  10    5.29    0.52
   3   2  10    4.16    0.52
   2   3 -10    2.10    0.60
   3  -5 -10    0.92    0.39
  -2  -3  -9    0.12    0.48
   5  -2  -9    0.15    0.43
   5  -2  -9   -0.14    0.44
   3  -5  -9   -0.27    0.34
   2   3  -9    1.12    0.47
   3  -5  -9   -0.05    0.44
   5  -2  -8   68.15    1.86
   5  -2  -8   66.00    2.35
   5  -2  -8   63.71    2.30
  -2  -3  -8   65.69    1.98
  -2  -3  -8   72.91    2.53
   2   3  -8   68.20    2.27
   5  -2  -7    0.95    0.33
  -5   2  -7   -0.17    0.31
  -3   5  -7    0.03    0.18
   3  -5  -7   -0.11    0.27
   2   3  -7    0.30    0.33
  -5   2  -7   -0.03    0.18
  -5   2  -7    0.02    0.24
  -2  -3  -7    0.16    0.25
  -2  -3  -7   -0.14    0.38
   3  -5  -7    0.32    0.24
   2   3  -7   -0.03    0.20
   3  -5  -7    0.01    0.17
   5  -2  -7   -0.12    0.34
   5  -2  -7    0.07    0.19
   3  -5  -6    0.91    0.20
  -2  -3  -6    1.30    0.27
   5  -2  -6    1.03    0.32
   3  -5  -6    0.99    0.27
  -5   2  -6    0.71    0.25
  -3   5  -6    1.40    0.32
  -3   5  -6    1.25    0.19
   5  -2  -6    1.38    0.23
   2   3  -6    1.14    0.32
  -5   2  -6    1.38    0.35
   3  -5  -6    0.87    0.24
  -5   2  -6    1.27    0.22
   2   3  -6    0.92    0.20
   3  -5  -6    1.22    0.37
  -2  -3  -6    1.04    0.38
  -2  -3  -6    0.51    0.31
   5  -2  -6    0.97    0.35
   5  -2  -6    1.20    0.32
   3  -5  -6    1.24    0.30
  -2  -3  -5    0.03    0.25
   5  -2  -5   -0.03    0.22
  -5   2  -5    0.04    0.20
   3  -5  -5    0.25    0.18
  -3   5  -5   -0.02    0.23
   3  -5  -5    0.11    0.17
  -5   2  -5    0.15    0.17
  -2  -3  -5    0.10    0.20
   5  -2  -5    0.10    0.16
   2   3  -5    0.29    0.26
  -2  -3  -5   -0.03    0.27
   3  -5  -5    0.11    0.24
   3  -5  -5    0.02    0.19
  -3   5  -5   -0.02    0.13
   5  -2  -5    0.24    0.25
   2   3  -5    0.09    0.19
   2   3  -4  358.65    8.51
   2   3  -4  350.30    8.30
  -5   2  -4  353.50    8.39
  -5   2  -4  335.36    8.30
   5  -2  -4  342.11    8.30
   5  -2  -4  349.47    8.52
  -2  -3  -4  350.13    8.53
  -2  -3  -4  358.28    8.58
  -3   5  -4  356.45    8.37
   3  -5  -4  348.31    8.24
  -2  -3  -4  343.83    8.36
   3  -5  -4  337.91    8.27
   5  -2  -4  345.14    8.06
   3  -5  -3    0.16    0.10
   5  -2  -3    0.14    0.14
  -3   5  -3    0.32    0.16
  -5   2  -3   -0.03    0.15
  -5   2  -3    0.13    0.16
  -2  -3  -3    0.13    0.20
   2   3  -3   -0.02    0.17
   2   3  -3    0.39    0.11
   5  -2  -3    0.17    0.09
   5  -2  -3    0.16    0.18
  -2  -3  -3    0.47    0.18
  -5   2  -2   13.31    0.58
  -5   2  -2   13.25    0.60
  -2  -3  -2   14.86    0.65
   3  -5  -2   15.36    0.63
   3  -5  -2   13.30    0.43
   5  -2  -2   13.73    0.57
   2   3  -2   13.94    0.60
   2   3  -2   12.60    0.55
  -2  -3  -2   13.33    0.58
  -2  -3  -2   14.99    0.60
   5  -2  -2   13.40    0.57
   5  -2  -2   13.12    0.49
  -3   5  -2   14.51    0.52
  -5   2  -1    0.13    0.13
   5  -2  -1    0.29    0.11
   5  -2  -1    0.19    0.12
  -3   5  -1    0.66    0.10
   2   3  -1    0.21    0.13
  -2  -3  -1    0.12    0.15
  -2  -3   0  681.64   15.90
   2   3   0  686.30   16.06
  -5   2   0  671.05   16.01
  -2  -3   0  688.65   15.99
  -3   5   0  692.17   15.90
   5  -2   0  678.92   15.96
  -5   2   0  690.44   15.99
  -2  -3   1    0.36    0.14
   5  -2   1    0.23    0.13
  -3   5   1    0.27    0.06
  -3   5   1    0.21    0.12
  -5   2   1    0.36    0.13
   2   3   1    0.21    0.16
   5  -2   2   14.04    0.67
  -2  -3   2   14.03    0.65
  -5   2   2   13.17    0.57
   2   3   2   14.98    0.71
  -3   5   2   14.34    0.58
  -5   2   2   14.35    0.58
   5  -2   2   13.55    0.60
   5  -2   3    0.03    0.06
  -2  -3   3   -0.07    0.16
  -5   2   3    0.02    0.17
   2   3   3    0.12    0.15
  -5   2   3    0.02    0.14
  -3   5   3    0.02    0.14
   3  -5   3    0.10    0.10
   2   3   3    0.11    0.19
   3  -5   3    0.45    0.08
   5  -2   3   -0.03    0.21
   5  -2   3    0.05    0.17
   5  -2   4  343.66    8.44
  -2  -3   4  348.40    8.14
   3  -5   4  356.40    8.15
   5  -2   4  344.83    8.09
   5  -2   4  354.44    8.49
   3  -5   4  351.24    8.06
  -3   5   4  340.58    8.40
  -5   2   4  347.77    8.42
  -2  -3   4  344.45    8.54
   2   3   4  354.32    8.36
   2   3   4  347.90    8.63
   5  -2   4  333.54    8.60
   3  -5   4  339.95    8.45
   3  -5   4  343.33    8.37
   5  -2   5    0.08    0.20
  -5   2   5    0.41    0.23
   3  -5   5    0.19    0.20
  -3   5   5    0.39    0.21
  -2  -3   5    0.07    0.07
   2   3   5    0.08    0.19
   5  -2   5    0.07    0.28
  -2  -3   5    0.12    0.25
   5  -2   5    0.18    0.10
   3  -5   5   -0.08    0.23
   3  -5   5    0.03    0.08
   5  -2   5    0.12    0.21
  -2  -3   6    1.14    0.12
  -5   2   6    0.78    0.28
   3  -5   6    0.86    0.23
  -2  -3   6    1.01    0.31
   5  -2   6    1.07    0.28
   5  -2   6    0.90    0.29
  -2  -3   6    1.28    0.12
   2   3   6    1.18    0.27
   5  -2   6    0.83    0.34
  -2  -3   7   -0.15    0.30
   2   3   7    0.12    0.34
   5  -2   7    0.35    0.27
   5  -2   7    0.08    0.27
   2   3   7   -0.09    0.25
   3  -5   7   -0.16    0.32
   3  -5   7    0.08    0.21
   5  -2   8   67.04    2.07
   5  -2   8   63.50    2.07
   2   3   8   66.06    2.01
   3  -5   8   63.37    1.90
  -3   5   8   65.17    2.12
   2   3   8   64.43    2.27
   5  -2   9   -0.09    0.32
   3  -5   9   -0.16    0.25
   2   3   9   -0.18    0.43
   5  -2   9   -0.03    0.32
   2   3   9   -0.03    0.32
   5  -2  10    1.60    0.40
   5  -2  10    1.30    0.41
   2   3  10    1.19    0.39
   1   4 -10    7.38    0.81
   5  -1 -10    7.51    0.82
   4  -5 -10    6.54    0.65
   5  -1  -9    0.53    0.44
   4  -5  -9    0.08    0.29
   1   4  -9    0.31    0.42
   1   4  -9    0.23    0.43
   4  -5  -9    0.11    0.33
   5  -1  -9    0.34    0.42
   4  -5  -9    0.32    0.43
  -1  -4  -9    0.46    0.52
  -1  -4  -8   21.21    0.89
  -1  -4  -8   22.75    1.27
   1   4  -8   23.03    1.14
   1   4  -8   20.64    1.12
   5  -1  -8   21.23    1.14
   4  -5  -8   18.78    1.14
   5  -1  -8   20.39    1.15
   4  -5  -8   18.87    0.97
   1   4  -7    0.29    0.16
   4  -5  -7    0.33    0.28
  -1  -4  -7    0.18    0.35
  -4   5  -7    0.26    0.16
   1   4  -7    0.40    0.35
   5  -1  -7    0.20    0.28
  -5   1  -7    0.12    0.26
   4  -5  -7   -0.03    0.26
  -1  -4  -7    0.33    0.24
   5  -1  -7    0.25    0.34
   1   4  -7    0.68    0.31
   1   4  -7    0.52    0.33
   4  -5  -7    0.11    0.15
   1   4  -6   37.14    1.42
   1   4  -6   34.61    1.37
   5  -1  -6   34.85    1.46
   1   4  -6   37.62    1.39
   4  -5  -6   34.68    1.29
   4  -5  -6   37.89    1.30
   5  -1  -6   36.89    1.34
   4  -5  -6   39.80    1.46
  -1  -4  -6   38.95    1.54
   1   4  -6   36.29    1.05
  -1  -4  -6   37.14    1.45
  -4   5  -6   35.39    1.03
   4  -5  -6   37.16    1.31
  -5   1  -6   35.90    1.45
  -1  -4  -6   36.00    1.25
  -5   1  -6   40.09    1.32
  -4   5  -6   42.13    1.40
  -1  -4  -5    0.79    0.23
  -5   1  -5    1.54    0.27
  -4   5  -5    0.82    0.26
   4  -5  -5    0.58    0.20
   1   4  -5    0.67    0.24
   1   4  -5    0.97    0.28
   1   4  -5    1.04    0.29
  -1  -4  -5    1.21    0.34
   4  -5  -5    0.97    0.29
   1   4  -5    1.07    0.14
  -1  -4  -5    0.65    0.29
   4  -5  -5    1.06    0.23
   5  -1  -5    0.73    0.26
   5  -1  -5    0.71    0.30
  -5   1  -5    0.50    0.29
  -4   5  -5    0.66    0.12
   4  -5  -4   79.91    2.17
  -5   1  -4   81.27    2.29
   1   4  -4   82.45    2.35
  -1  -4  -4   79.58    2.25
  -1  -4  -4   84.43    2.42
  -4   5  -4   81.67    1.99
   1   4  -4   76.63    2.03
   4  -5  -4   81.04    2.19
   5  -1  -4   87.46    2.45
  -4   5  -4   87.34    2.27
  -1  -4  -3    1.97    0.27
  -4   5  -3    1.92    0.23
  -1  -4  -3    1.84    0.25
   1   4  -3    1.61    0.16
   4  -5  -3    1.58    0.17
  -5   1  -3    2.22    0.26
   1   4  -3    1.69    0.24
  -1  -4  -3    1.50    0.27
   5  -1  -3    1.60    0.15
   4  -5  -3    1.63    0.23
   5  -1  -2   94.22    2.35
   4  -5  -2   91.28    2.23
   1   4  -2   92.10    2.34
  -1  -4  -2   97.98    2.47
   1   4  -2   99.84    2.48
  -1  -4  -2   96.87    2.55
   4  -5  -2   93.22    2.41
  -4   5  -2   98.97    2.36
  -1  -4  -1    1.80    0.17
  -5   1  -1    1.70    0.22
  -4   5  -1    1.94    0.14
   1   4  -1    2.17    0.21
   1   4  -1    2.36    0.20
  -1  -4  -1    2.01    0.16
  -4   5  -1    2.05    0.14
   4  -5  -1    2.12    0.19
  -1  -4  -1    1.83    0.22
   5  -1  -1    2.26    0.20
  -1  -4   0  135.37    3.38
  -1  -4   0  134.73    3.30
   1   4   0  134.86    3.44
   5  -1   0  134.86    3.40
  -4   5   0  132.95    3.30
  -1  -4   0  138.20    3.19
  -5   1   0  131.18    3.40
  -5   1   1    2.22    0.24
   5  -1   1    1.49    0.26
   1   4   1    2.31    0.27
  -4   5   1    2.35    0.21
  -5   1   1    2.46    0.22
  -4   5   1    2.43    0.17
   5  -1   1    2.56    0.24
  -5   1   1    2.03    0.24
   4  -5   1    2.18    0.22
   5  -1   2   95.58    2.67
  -4   5   2   91.69    2.37
   1   4   2   93.86    2.67
  -4   5   2   91.27    2.50
   4  -5   2   97.61    2.48
  -1  -4   2   90.53    2.59
  -5   1   2   92.94    2.51
  -5   1   2   94.16    2.57
  -5   1   2   99.27    2.44
   1   4   3    1.59    0.27
   4  -5   3    1.64    0.23
   4  -5   3    1.57    0.27
  -5   1   3    2.03    0.26
  -5   1   3    1.49    0.21
   5  -1   3    1.83    0.31
  -4   5   3    2.15    0.25
  -1  -4   3    1.31    0.25
   4  -5   3    1.61    0.17
   4  -5   3    1.73    0.20
   5  -1   3    1.50    0.29
   5  -1   4   81.12    2.42
  -5   1   4   83.38    2.36
   1   4   4   79.30    2.46
   4  -5   4   84.31    2.09
   5  -1   4   81.09    2.50
   4  -5   4   81.53    2.39
   5  -1   4   81.85    2.06
   1   4   4   83.73    2.29
  -4   5   4   78.70    2.29
   4  -5   4   78.92    2.28
   5  -1   4   83.66    2.36
  -1  -4   4   81.11    2.44
   5  -1   5    0.28    0.23
   5  -1   5    0.49    0.30
   1   4   5    0.85    0.31
   4  -5   5    1.15    0.29
   4  -5   5    0.74    0.16
   5  -1   5    1.06    0.29
   1   4   5    0.90    0.23
  -5   1   5    1.30    0.28
  -1  -4   5    0.86    0.06
  -4   5   5    1.51    0.27
   5  -1   5    0.60    0.14
  -1  -4   5    0.82    0.28
   4  -5   5    0.60    0.22
  -1  -4   6   37.12    1.46
   5  -1   6   35.40    1.32
   4  -5   6   36.12    1.06
  -1  -4   6   37.19    1.04
  -4   5   6   37.14    1.33
   4  -5   6   34.71    1.38
   5  -1   6   35.93    1.07
   1   4   6   35.13    1.26
   5  -1   6   34.36    1.48
  -5   1   6   36.31    1.37
   5  -1   6   35.67    1.37
   4  -5   6   35.15    1.23
  -5   1   7    0.24    0.30
   5  -1   7    0.23    0.29
   4  -5   7    0.43    0.23
  -1  -4   7    0.26    0.13
   4  -5   7    0.34    0.18
   5  -1   7    0.62    0.32
   5  -1   7    0.51    0.21
   1   4   7    0.36    0.28
   5  -1   8   20.64    0.97
   1   4   8   20.35    1.12
   5  -1   8   20.14    0.99
   1   4   8   20.75    0.92
   4  -5   8   20.78    0.85
   1   4   9   -0.03    0.34
   5  -1   9    0.20    0.37
   5  -1   9   -0.22    0.39
   4  -5   9    0.35    0.30
   1   4  10    7.15    0.63
   5  -1  10    7.61    0.72
   5  -5 -10   10.64    0.82
   5   0 -10   14.26    1.05
   5   0  -9    2.94    0.57
   0  -5  -9    2.32    0.62
   0   5  -9    1.82    0.49
   5  -5  -9    1.37    0.54
   5  -5  -9    1.94    0.36
   5   0  -9    1.44    0.55
   5  -5  -9    1.86    0.46
   0   5  -8    7.97    0.71
   5  -5  -8    6.52    0.52
   0  -5  -8    6.94    0.76
   5   0  -8    6.13    0.68
   5   0  -8    6.81    0.66
   5  -5  -8    6.47    0.58
   0  -5  -8    6.91    0.50
   5  -5  -7    7.07    0.57
   0   5  -7    8.42    0.67
   5   0  -7    7.76    0.66
   5  -5  -7    8.34    0.55
   0  -5  -7    8.45    0.73
   5   0  -7    7.83    0.69
   0  -5  -7    8.09    0.53
   5  -5  -7    7.84    0.35
   5   0  -7    7.42    0.55
   5  -5  -7    8.10    0.59
   0   5  -6   79.74    2.43
   5  -5  -6   79.29    2.28
   0  -5  -6   78.40    2.54
   0   5  -6   80.89    2.40
   5   0  -6   77.99    2.52
   0  -5  -6   75.75    2.21
   5  -5  -6   72.76    2.30
  -5   0  -6   76.57    2.50
   5  -5  -6   74.23    2.27
  -5   5  -6   86.15    2.39
  -5   0  -6   77.17    2.28
  -5   5  -5   23.67    0.93
   0   5  -5   21.85    0.95
   0   5  -5   21.56    0.94
   5  -5  -5   20.96    0.86
   5  -5  -5   22.64    0.90
   0  -5  -5   21.81    1.02
   5  -5  -5   21.71    0.99
   5   0  -5   20.68    1.02
   5  -5  -5   21.12    0.88
   5  -5  -5   19.55    0.86
  -5   0  -5   21.42    1.03
   0  -5  -5   20.89    0.85
  -5   0  -5   20.62    0.89
   0  -5  -4   11.36    0.66
   5  -5  -4    9.75    0.50
   0  -5  -4    9.38    0.54
   0  -5  -4   11.58    0.66
  -5   5  -4   11.40    0.56
   5   0  -4   10.93    0.67
   5  -5  -4   10.69    0.55
   0   5  -4   12.30    0.63
  -5   0  -4   12.39    0.72
  -5   0  -4   11.19    0.59
  -5   5  -3   45.13    1.29
  -5   0  -3   42.42    1.37
   5  -5  -3   43.01    1.37
   0   5  -3   41.44    1.33
   0  -5  -3   41.83    1.41
   5  -5  -3   41.09    1.29
   0  -5  -3   43.46    1.41
   5  -5  -2  243.11    5.84
   5   0  -2  233.53    5.68
   0   5  -2  235.67    5.55
   5  -5  -2  232.16    5.70
   0   5  -2  242.17    5.75
   0  -5  -2  238.47    5.84
   0  -5  -1   60.87    1.57
   0   5  -1   68.11    1.69
   0  -5  -1   63.72    1.78
   5  -5  -1   66.23    1.83
  -5   5  -1   63.16    1.59
   5  -5  -1   63.05    1.68
   0   5  -1   63.77    1.69
   5   0  -1   63.53    1.73
  -5   0   0   15.16    0.63
  -5   5   0   18.19    0.62
   0   5   0   13.86    0.61
   0  -5   0   15.70    0.60
   5  -5   0   20.09    0.58
   5   0   0   14.54    0.62
  -5   0   1   63.88    1.81
   5  -5   1   60.50    1.82
   5  -5   1   64.81    1.79
   0  -5   1   63.34    1.80
  -5   5   1   63.86    1.71
   0   5   1   63.06    1.84
  -5   0   1   62.08    1.79
   0  -5   1   64.49    1.64
   5   0   1   61.87    1.96
   5   0   1   62.64    1.81
  -5   0   1   62.95    1.74
   0  -5   2  235.98    5.78
   5   0   2  238.50    5.77
  -5   0   2  234.25    5.70
   5  -5   2  236.53    5.69
  -5   5   2  230.58    5.60
  -5   0   2  232.89    5.76
   0   5   2  230.37    5.86
  -5   5   2  230.71    5.68
   0  -5   2  231.47    5.49
   5   0   2  230.77    5.94
  -5   0   2  239.53    5.80
  -5   0   2  236.23    5.61
   5   0   2  224.48    5.83
   0  -5   3   42.34    1.18
  -5   0   3   44.75    1.44
  -5   5   3   41.63    1.25
   5  -5   3   42.47    1.26
  -5   0   3   42.06    1.39
  -5   0   3   41.47    1.27
  -5   5   3   41.20    1.33
   0   5   3   42.10    1.48
   5  -5   3   38.68    1.35
   5   0   3   40.22    1.46
  -5   0   3   43.62    1.18
   0  -5   3   43.19    1.43
   5  -5   3   43.83    1.28
   5  -5   4   10.06    0.58
  -5   0   4   10.53    0.63
   5  -5   4   10.44    0.66
   5   0   4   10.57    0.60
   0  -5   4   10.33    0.65
  -5   5   4    9.93    0.57
  -5   0   4   11.68    0.38
  -5   0   4   11.46    0.50
   0   5   4   10.78    0.69
   5   0   4   11.66    0.71
   5   0   4   10.19    0.66
   5  -5   4   11.68    0.51
   5   0   4   10.98    0.47
  -5   0   5   22.04    0.99
   0  -5   5   20.37    0.53
   0  -5   5   20.90    0.99
   5   0   5   22.04    1.06
   5  -5   5   20.80    0.88
  -5   5   5   21.22    0.91
   0   5   5   23.55    1.08
   5   0   5   20.56    0.93
   0   5   5   22.99    0.92
   5   0   5   20.76    1.01
   5  -5   5   20.86    0.76
   5   0   5   21.29    0.74
   5  -5   5   19.65    0.97
   0  -5   5   20.74    0.53
   0  -5   6   75.91    2.04
   0  -5   6   74.84    2.43
   5   0   6   75.92    2.33
   0   5   6   74.55    2.47
   5  -5   6   76.18    2.07
   5   0   6   77.50    2.43
   5  -5   6   77.09    2.42
   5  -5   6   73.04    2.22
   0   5   6   76.35    2.26
   5   0   6   76.14    2.05
  -5   0   6   73.98    2.38
   0  -5   7    7.83    0.41
   5  -5   7    7.57    0.43
   5   0   7    7.54    0.45
   5   0   7    8.39    0.67
   0   5   7    7.91    0.58
  -5   0   7    7.27    0.63
   5   0   7    9.11    0.65
   5  -5   7    7.27    0.53
   5   0   8    6.41    0.61
   5   0   8    7.55    0.64
   0   5   8    7.15    0.59
   5   0   8    6.40    0.45
   5  -5   8    6.53    0.43
   5  -5   8    6.36    0.53
   0  -5   8    6.76    0.36
   5  -5   9    1.77    0.38
   5   0   9    2.05    0.48
   0   5   9    1.40    0.41
   5  -5  10   12.86    0.73
   1  -6  -9    0.23    0.51
   5   1  -9    0.30    0.44
   6  -5  -9    0.69    0.47
  -1   6  -9    0.50    0.46
   6  -5  -9    0.33    0.41
   1  -6  -8   15.40    1.05
   5   1  -8   16.01    0.94
   6  -5  -8   15.30    0.77
   5   1  -8   14.19    0.99
   6  -5  -8   14.96    0.91
   6  -5  -7    0.50    0.13
   5   1  -7    0.97    0.34
   1  -6  -7    0.37    0.25
   6  -5  -7    0.57    0.32
   6  -5  -7    0.30    0.25
   6  -5  -7    0.82    0.35
   5   1  -7    0.30    0.36
   1  -6  -7    0.54    0.44
   5   1  -6   24.91    1.06
   6  -5  -6   24.47    1.00
   6  -5  -6   25.00    1.03
   6  -5  -6   24.22    0.79
   1  -6  -6   23.20    0.95
   6  -5  -6   23.89    1.07
  -6   5  -6   27.82    1.11
   5   1  -6   28.73    1.27
   1  -6  -6   27.96    1.26
   6  -5  -5    2.66    0.24
   1  -6  -5    2.04    0.30
   6  -5  -5    1.49    0.29
  -1   6  -5    1.78    0.35
  -5  -1  -5    1.85    0.31
   1  -6  -5    1.61    0.37
   1  -6  -5    1.39    0.36
  -5  -1  -5    1.88    0.41
   6  -5  -5    1.52    0.32
  -5  -1  -4   55.36    1.77
   1  -6  -4   58.00    1.86
   6  -5  -4   59.10    1.74
   6  -5  -4   57.77    1.76
  -5  -1  -4   57.71    1.93
   1  -6  -3    3.42    0.37
   6  -5  -3    3.48    0.31
  -5  -1  -3    3.64    0.35
  -1   6  -3    4.26    0.34
   6  -5  -3    3.82    0.35
  -1   6  -2   61.01    1.63
   6  -5  -2   58.45    1.74
   6  -5  -2   54.72    1.66
   1  -6  -2   59.61    1.74
   6  -5  -2   56.85    1.61
   6  -5  -1    4.13    0.34
  -1   6  -1    4.88    0.26
  -5  -1  -1    3.89    0.34
   1  -6  -1    4.50    0.32
   6  -5  -1    4.56    0.27
   6  -5  -1    3.83    0.32
  -5  -1   0   92.52    2.45
   1  -6   0   90.60    2.34
   5   1   0   88.38    2.62
   6  -5   0   91.92    2.25
   6  -5   0   87.00    2.46
   5   1   0   90.58    2.46
  -1   6   0   90.12    2.40
   5   1   1    4.56    0.36
   1  -6   1    4.78    0.33
  -6   5   1    4.09    0.21
   6  -5   1    3.98    0.33
   6  -5   1    3.24    0.32
  -5  -1   1    3.63    0.30
  -5  -1   1    3.78    0.33
   1  -6   1    4.13    0.24
   5   1   1    3.98    0.41
  -1   6   1    4.18    0.35
   5   1   1    4.38    0.35
  -6   5   2   57.62    1.64
   6  -5   2   55.70    1.76
  -5  -1   2   60.22    1.71
  -5  -1   2   56.85    1.61
  -5  -1   2   56.22    1.73
   1  -6   2   59.55    1.57
  -1   6   2   58.30    1.82
   5   1   2   55.84    1.77
   5   1   2   60.27    1.94
  -1   6   2   57.64    1.74
   6  -5   2   60.24    1.71
   1  -6   2   57.51    1.72
   5   1   2   56.11    1.76
  -6   5   2   57.51    1.51
  -6   5   3    3.79    0.31
   1  -6   3    4.12    0.38
   5   1   3    3.91    0.41
  -5  -1   3    3.41    0.36
  -1   6   3    3.47    0.39
   5   1   3    4.97    0.49
  -5  -1   3    3.81    0.32
   1  -6   3    3.65    0.28
   6  -5   3    3.93    0.35
  -1   6   3    3.82    0.36
  -6   5   3    4.19    0.26
   5   1   3    3.47    0.39
  -5  -1   3    5.15    0.30
  -5  -1   4   56.95    1.89
  -1   6   4   56.03    1.95
   1  -6   4   56.24    1.86
   5   1   4   56.89    1.92
   1  -6   4   56.35    1.64
  -5  -1   4   59.50    1.65
   6  -5   4   56.33    1.72
  -1   6   4   58.98    1.81
   5   1   4   59.69    1.67
  -5  -1   4   60.27    1.53
   6  -5   4   54.86    1.80
   6  -5   5    1.25    0.29
   1  -6   5    1.61    0.35
  -5  -1   5    1.95    0.38
   1  -6   5    1.45    0.13
   6  -5   5    1.25    0.35
   5   1   5    2.03    0.36
   5   1   5    1.83    0.27
  -5  -1   5    1.57    0.22
   1  -6   5    1.69    0.28
   5   1   5    1.75    0.40
   6  -5   5    2.48    0.30
   5   1   5    1.46    0.37
   1  -6   6   25.05    0.92
   5   1   6   25.76    1.14
   6  -5   6   23.94    1.04
   5   1   6   26.13    1.22
   6  -5   6   23.72    0.93
  -1   6   6   24.52    1.05
   5   1   6   25.25    0.91
  -5  -1   6   23.14    1.13
   1  -6   7    0.35    0.23
   5   1   7    0.74    0.38
   6  -5   7    0.54    0.24
  -1   6   7    0.22    0.31
  -5  -1   7    0.55    0.37
   5   1   7    0.57    0.24
   6  -5   7    0.60    0.30
  -1   6   8   15.01    0.85
  -5  -1   8   15.15    0.96
   6  -5   8   14.33    0.69
   5   1   8   15.86    0.97
   5   1   8   14.48    0.72
   1  -6   8   14.89    0.64
   6  -5   8   13.75    0.80
   6  -5   9    0.39    0.36
   6  -5   9    0.20    0.29
   5   1   9    0.13    0.41
   5   1   9    0.39    0.32
  -1   6   9    0.54    0.42
   6  -5  10    6.15    0.61
   6  -4  -9    1.06    0.52
   2  -6  -9    1.41    0.34
  -4  -2  -9    1.43    0.57
   4   2  -9    1.03    0.50
   4   2  -9    1.48    0.47
   6  -4  -9    0.66    0.43
   2  -6  -9    1.71    0.55
   2  -6  -8    6.51    0.74
   2  -6  -8    4.90    0.46
   6  -4  -8    5.70    0.48
   4   2  -8    5.68    0.68
   6  -4  -8    6.39    0.65
   4   2  -8    6.93    0.63
  -4  -2  -8    6.56    0.79
   2  -6  -7    5.50    0.62
   6  -4  -7    5.80    0.55
   6  -4  -7    5.44    0.43
  -4  -2  -7    6.30    0.71
  -6   4  -7    5.13    0.34
   2  -6  -7    5.35    0.41
  -2   6  -7    4.57    0.42
   4   2  -7    4.95    0.42
   4   2  -7    6.08    0.55
   6  -4  -7    6.64    0.61
   2  -6  -7    4.59    0.41
   2  -6  -7    4.40    0.46
  -4  -2  -6   78.98    2.48
   6  -4  -6   65.23    2.09
   2  -6  -6   60.78    1.90
  -6   4  -6   66.72    1.87
   6  -4  -6   69.42    2.21
  -4  -2  -6   70.63    2.08
   6  -4  -6   69.46    2.01
   2  -6  -6   64.35    1.93
  -2   6  -6   70.62    2.14
   4   2  -6   69.36    2.09
   6  -4  -6   68.04    1.67
  -2   6  -5   18.24    0.83
   2  -6  -5   14.83    0.62
  -4  -2  -5   18.53    0.98
  -6   4  -5   16.43    0.67
   6  -4  -5   17.59    0.80
   6  -4  -5   17.03    0.85
  -4  -2  -5   15.92    0.90
   6  -4  -5   16.43    0.57
  -4  -2  -5   16.42    0.78
   4   2  -5   16.15    0.74
   6  -4  -4    9.46    0.53
  -6   4  -4    8.52    0.46
  -2   6  -4    9.60    0.55
  -4  -2  -4    9.09    0.62
   2  -6  -4    9.40    0.60
   6  -4  -4    9.69    0.54
  -4  -2  -4    9.17    0.64
   6  -4  -4    9.52    0.41
   2  -6  -4    8.59    0.37
  -4  -2  -4    8.98    0.54
   4   2  -4    9.55    0.48
   6  -4  -3   35.36    1.10
   6  -4  -3   36.77    1.19
   6  -4  -3   36.32    1.22
   2  -6  -3   36.93    1.28
  -6   4  -3   35.20    1.16
   4   2  -3   40.43    1.35
  -4  -2  -3   36.26    1.23
  -2   6  -3   39.24    1.21
   6  -4  -2  203.79    5.12
  -6   4  -2  209.38    5.19
   6  -4  -2  215.95    5.25
   2  -6  -2  220.58    5.26
   6  -4  -2  217.77    5.15
  -4  -2  -2  197.70    5.21
   2  -6  -1   58.08    1.61
   6  -4  -1   56.06    1.68
   6  -4  -1   53.47    1.61
  -6   4  -1   57.13    1.65
   6  -4  -1   57.26    1.53
   4   2  -1   54.50    1.74
   2  -6   0   12.63    0.48
  -6   4   0   12.66    0.58
   6  -4   0   12.89    0.58
  -2   6   0   13.12    0.36
   2  -6   0   13.36    0.51
  -4  -2   0   12.88    0.55
   4   2   0   11.98    0.66
   6  -4   0   12.11    0.44
   4   2   0   12.40    0.49
  -4  -2   0   13.04    0.58
   2  -6   1   56.82    1.56
   6  -4   1   54.15    1.65
   6  -4   1   54.52    1.65
  -4  -2   1   54.97    1.62
   4   2   1   54.13    1.58
   2  -6   1   57.32    1.45
   6  -4   1   55.56    1.38
   4   2   1   58.40    1.82
  -2   6   1   56.16    1.64
  -4  -2   1   55.34    1.59
  -4  -2   2  217.03    5.34
  -6   4   2  215.55    5.09
   4   2   2  205.79    5.24
  -4  -2   2  209.40    5.24
  -6   4   2  203.84    5.18
   2  -6   2  208.31    5.20
   4   2   2  217.43    5.47
   2  -6   2  210.22    4.88
  -4  -2   2  213.67    5.12
  -2   6   2  214.12    5.24
   6  -4   2  202.52    5.25
   2  -6   3   36.57    1.16
  -4  -2   3   36.93    1.33
   4   2   3   35.60    1.28
  -4  -2   3   36.69    1.08
  -4  -2   3   38.37    1.15
  -6   4   3   35.50    1.18
   4   2   3   35.62    1.40
   6  -4   3   37.93    1.28
  -2   6   3   36.41    1.23
   2  -6   3   35.62    1.24
  -6   4   3   37.08    1.13
  -4  -2   3   34.47    1.24
   4   2   4   10.64    0.66
  -4  -2   4    9.26    0.43
   2  -6   4   10.49    0.40
   2  -6   4    8.19    0.55
   2  -6   4    8.62    0.50
   6  -4   4    8.77    0.53
  -2   6   4    9.16    0.55
  -6   4   4    9.62    0.54
   4   2   4    9.82    0.51
   4   2   4    8.81    0.65
  -6   4   4    8.58    0.48
  -4  -2   4    9.11    0.38
   6  -4   4    8.80    0.64
   6  -4   4    7.57    0.52
   2  -6   5   16.76    0.50
  -4  -2   5   16.57    0.59
   2  -6   5   16.42    0.75
   6  -4   5   17.65    0.78
  -2   6   5   15.37    0.77
   4   2   5   16.64    0.72
   6  -4   5   15.77    0.79
  -4  -2   5   17.13    0.51
   2  -6   6   69.43    1.98
   6  -4   6   67.58    2.12
   4   2   6   69.42    2.34
   6  -4   6   68.33    2.04
   4   2   6   69.87    1.99
   2  -6   6   65.56    2.06
   2  -6   7    5.81    0.51
   4   2   7    5.48    0.61
  -2   6   7    5.73    0.53
   6  -4   7    5.34    0.46
   4   2   7    5.46    0.44
   6  -4   7    5.18    0.50
   2  -6   7    4.97    0.40
   6  -4   8    5.17    0.47
  -2   6   8    5.18    0.56
   4   2   8    5.87    0.66
   6  -4   8    6.16    0.56
   4   2   8    5.41    0.47
   2  -6   8    6.60    0.44
   6  -4   9    1.44    0.40
   2  -6   9    1.28    0.28
   4   2   9    1.30    0.48
   6  -4   9    1.22    0.35
  -2   6   9    1.12    0.43
   4   2   9    1.76    0.37
   4   2  10   12.37    0.76
   6  -4  10   11.13    0.75
   3   3  -9    0.92    0.45
   6  -3  -9    1.19    0.52
   3  -6  -9    0.96    0.35
   6  -3  -9    0.99    0.47
  -3  -3  -9    1.21    0.59
   3  -6  -8   11.67    0.91
   6  -3  -8   13.07    0.64
   3  -6  -8   10.80    0.65
  -3  -3  -8   13.54    1.03
   6  -3  -8   10.47    0.84
   3   3  -8   11.06    0.78
   3  -6  -7    4.03    0.44
  -6   3  -7    3.47    0.32
   3  -6  -7    3.64    0.39
   6  -3  -7    3.74    0.37
   3   3  -7    3.73    0.35
  -3   6  -7    3.63    0.33
  -3  -3  -7    3.88    0.58
   3   3  -7    3.51    0.45
   6  -3  -7    4.10    0.55
   3  -6  -7    3.68    0.33
  -3   6  -6   47.39    1.57
  -6   3  -6   47.32    1.52
  -3  -3  -6   46.16    1.78
  -3  -3  -6   43.48    1.48
   6  -3  -6   46.12    1.43
  -6   3  -6   43.72    1.37
   3  -6  -6   43.37    1.46
   3  -6  -6   40.31    1.37
   3   3  -6   45.31    1.67
   3   3  -6   43.49    1.35
   6  -3  -6   44.95    1.67
   3   3  -6   44.00    1.51
  -3   6  -6   45.63    1.35
  -6   3  -5   11.79    0.58
   6  -3  -5   13.94    0.63
  -6   3  -5   11.85    0.66
   6  -3  -5   11.39    0.38
   3  -6  -5   10.99    0.52
   3   3  -5   11.47    0.72
  -3   6  -5   13.27    0.67
   3   3  -5   13.00    0.62
   6  -3  -5   11.30    0.72
  -3  -3  -5   12.45    0.77
  -3  -3  -5   10.66    0.61
  -3  -3  -5   13.44    0.79
   3  -6  -5   11.98    0.59
   6  -3  -5   12.69    0.67
  -6   3  -4   38.01    1.27
   6  -3  -4   37.36    1.21
   6  -3  -4   34.35    1.01
   3  -6  -4   33.28    1.10
  -6   3  -4   34.85    1.17
   3   3  -4   38.77    1.35
   3  -6  -4   37.79    1.32
   6  -3  -4   35.96    1.24
   3  -6  -4   35.52    1.03
  -3   6  -4   37.71    1.23
   3   3  -4   36.47    1.12
  -3  -3  -4   34.56    1.22
  -3  -3  -4   37.73    1.37
  -6   3  -3   26.12    0.99
   6  -3  -3   25.55    0.95
  -6   3  -3   24.77    0.94
   6  -3  -3   28.25    0.98
   3  -6  -3   26.76    1.02
  -3   6  -3   29.52    0.95
   3   3  -3   26.80    1.03
   3   3  -3   25.75    0.79
   6  -3  -3   25.89    0.83
  -3  -3  -3   28.78    1.04
  -3  -3  -3   26.41    0.98
   6  -3  -2  121.72    3.25
  -6   3  -2  123.32    3.25
   6  -3  -2  131.86    3.22
  -3  -3  -2  127.63    3.21
   3  -6  -2  129.02    3.29
  -3  -3  -2  126.69    3.36
   3   3  -2  122.95    3.27
  -6   3  -2  126.81    3.29
  -3  -3  -2  119.30    3.25
   6  -3  -2  120.93    3.13
  -3   6  -2  125.38    3.13
   6  -3  -1   30.79    1.04
  -6   3  -1   33.84    1.12
   6  -3  -1   34.60    1.03
   3  -6  -1   33.52    1.08
   3   3  -1   32.10    1.15
   6  -3  -1   33.01    1.12
  -3  -3   0   52.97    1.58
  -6   3   0   53.78    1.60
   6  -3   0   56.64    1.46
   3  -6   0   55.24    1.50
  -3  -3   0   53.98    1.53
   6  -3   0   52.37    1.56
   3   3   0   53.46    1.69
  -3   6   0   54.03    1.53
   3  -6   0   53.59    1.37
  -3   6   1   31.61    1.04
  -3  -3   1   32.42    1.05
   3  -6   1   34.28    0.93
   3   3   1   32.82    1.21
   3  -6   1   30.73    0.93
  -3  -3   1   32.42    1.04
   6  -3   1   30.44    1.06
  -3  -3   2  123.31    3.26
  -6   3   2  123.86    3.25
   3  -6   2  123.47    2.98
   6  -3   2  124.28    3.29
   3   3   2  129.45    3.47
  -3  -3   2  126.33    3.37
  -6   3   2  123.11    3.24
  -3   6   2  128.28    3.25
   6  -3   2  127.94    3.39
  -3  -3   2  127.04    3.18
  -6   3   2  125.16    3.19
  -3  -3   3   26.83    1.07
  -6   3   3   24.75    0.91
   3  -6   3   24.31    0.94
  -6   3   3   25.88    0.97
   3  -6   3   29.18    0.87
   6  -3   3   25.45    1.09
   3   3   3   27.28    1.14
  -3   6   3   26.37    0.96
   6  -3   3   25.57    1.03
  -3  -3   3   25.56    0.85
  -3  -3   4   35.77    1.37
   3  -6   4   37.53    1.05
  -6   3   4   39.79    1.30
  -3  -3   4   37.32    1.07
  -3  -3   4   36.88    1.07
   3   3   4   37.92    1.47
  -6   3   4   36.58    1.23
   6  -3   4   35.00    1.28
  -3   6   4   34.77    1.24
   6  -3   4   35.51    1.30
   3   3   4   37.22    1.22
   3  -6   4   33.80    1.23
   6  -3   4   36.20    1.40
   3  -6   5   11.81    0.61
   3   3   5   11.43    0.60
  -3  -3   5   12.13    0.44
  -3  -3   5   12.25    0.44
   3   3   5   11.75    0.78
  -3   6   5   11.75    0.64
   3  -6   5   11.98    0.65
   6  -3   5   11.25    0.65
   6  -3   5    9.67    0.71
  -6   3   5   12.02    0.64
   6  -3   5   10.79    0.65
  -3  -3   5   12.47    0.76
  -3  -3   6   43.93    1.68
   3  -6   6   44.93    1.46
   3  -6   6   42.32    1.53
  -3  -3   6   45.40    1.13
  -6   3   6   44.73    1.54
  -3   6   6   43.30    1.54
   6  -3   6   46.12    1.55
   3   3   6   44.72    1.46
  -3  -3   6   44.84    1.12
   6  -3   6   45.85    1.58
  -3  -3   7    3.29    0.50
   6  -3   7    4.23    0.46
   3  -6   7    3.94    0.38
   3   3   7    3.63    0.40
   3   3   7    4.49    0.56
   6  -3   7    2.99    0.41
  -3   6   8   11.45    0.77
   3   3   8   12.72    0.90
   6  -3   8   11.19    0.71
   3   3   8   12.37    0.71
  -3  -3   8   11.46    0.86
   6  -3   8   11.79    0.75
   3  -6   8   12.45    0.64
   3  -6   9    0.82    0.28
   3   3   9    0.82    0.49
   6  -3   9    1.35    0.38
  -3   6   9    0.55    0.38
   3   3   9    1.04    0.36
   6  -3   9    0.86    0.38
   3   3  10    8.22    0.66
   6  -3  10    6.75    0.62
   6  -3  10    8.28    0.68
   2   4  -9    2.31    0.53
  -2  -4  -9    2.69    0.64
   2   4  -9    2.38    0.55
   4  -6  -9    1.74    0.41
   6  -2  -9    1.37    0.54
   6  -2  -9    1.77    0.52
   4  -6  -8    7.20    0.58
   2   4  -8    8.34    0.74
   2   4  -8    8.72    0.71
   6  -2  -8    7.66    0.75
   6  -2  -8    8.74    0.80
  -2  -4  -8    8.66    0.84
   4  -6  -7    6.57    0.52
   2   4  -7    7.93    0.61
  -6   2  -7    7.33    0.47
   2   4  -7    7.10    0.65
   4  -6  -7    6.74    0.51
   6  -2  -7    7.49    0.69
  -4   6  -7    6.79    0.38
  -2  -4  -7    8.81    0.77
   4  -6  -7    6.63    0.40
  -6   2  -6   56.63    1.81
   2   4  -6   58.28    1.95
   4  -6  -6   52.35    1.69
   2   4  -6   57.00    1.56
  -6   2  -6   53.82    1.69
  -4   6  -6   57.17    1.54
   6  -2  -6   58.45    2.02
  -2  -4  -6   62.81    2.10
  -2  -4  -6   57.67    1.78
   2   4  -6   56.12    1.81
   4  -6  -6   54.94    1.76
  -4   6  -6   61.53    1.86
  -2  -4  -5   21.75    0.91
  -6   2  -5   23.30    0.96
  -4   6  -5   22.69    0.72
   4  -6  -5   22.03    0.83
  -2  -4  -5   22.25    1.06
   6  -2  -5   24.39    1.10
  -2  -4  -5   24.51    1.11
   4  -6  -5   21.96    0.86
  -6   2  -5   23.09    0.90
   2   4  -5   22.66    1.01
   2   4  -5   24.03    0.91
  -4   6  -5   22.89    0.92
   2   4  -4   19.47    0.87
  -6   2  -4   18.78    0.79
   6  -2  -4   19.29    0.84
   2   4  -4   19.70    0.70
  -2  -4  -4   20.22    0.91
   2   4  -4   17.67    0.67
  -4   6  -4   19.62    0.77
   4  -6  -4   18.46    0.77
  -6   2  -4   19.85    0.84
  -2  -4  -4   18.02    0.79
   6  -2  -4   18.70    0.59
   4  -6  -4   18.67    0.69
  -6   2  -3   49.61    1.57
  -6   2  -3   48.33    1.53
   6  -2  -3   52.79    1.57
  -2  -4  -3   48.25    1.54
   2   4  -3   51.81    1.60
  -2  -4  -3   51.15    1.65
  -2  -4  -3   52.14    1.59
   2   4  -3   46.82    1.42
   4  -6  -3   50.68    1.50
  -4   6  -3   52.31    1.47
   4  -6  -3   51.99    1.63
   6  -2  -3   51.36    1.38
   4  -6  -3   47.86    1.34
   6  -2  -2  171.36    4.21
  -4   6  -2  178.72    4.18
  -6   2  -2  162.93    4.33
   4  -6  -2  174.59    4.38
  -2  -4  -2  174.20    4.28
   2   4  -2  177.78    4.34
   2   4  -2  162.82    4.26
  -2  -4  -2  173.47    4.41
  -2  -4  -2  166.77    4.33
  -6   2  -1   71.09    2.01
  -6   2  -1   69.75    2.01
  -2  -4  -1   71.70    1.82
  -2  -4  -1   68.90    1.84
  -2  -4  -1   71.57    2.01
  -4   6  -1   70.38    1.83
   2   4  -1   70.66    1.98
   6  -2  -1   69.75    1.92
  -6   2   0   22.29    0.85
  -2  -4   0   21.57    0.75
   2   4   0   23.15    0.88
  -6   2   0   22.37    0.83
  -4   6   0   22.38    0.74
  -2  -4   0   23.59    0.82
   6  -2   0   21.98    0.81
  -6   2   1   74.27    1.96
   6  -2   1   68.78    1.99
  -4   6   1   70.24    1.74
   2   4   1   70.08    2.10
  -4   6   1   70.31    1.92
  -2  -4   1   69.45    1.93
  -2  -4   2  175.44    4.41
  -6   2   2  163.85    4.28
   4  -6   2  181.56    4.26
  -6   2   2  159.98    4.29
   2   4   2  169.04    4.48
  -4   6   2  166.04    4.25
   6  -2   2  171.86    4.48
  -6   2   2  177.13    4.20
   6  -2   2  164.89    4.33
  -6   2   2  171.18    4.30
  -2  -4   3   52.31    1.68
  -6   2   3   50.70    1.57
   6  -2   3   46.95    1.69
   4  -6   3   53.69    1.45
  -6   2   3   49.86    1.51
   2   4   3   50.72    1.74
  -4   6   3   48.93    1.53
  -6   2   3   50.21    1.58
   6  -2   3   50.40    1.68
   4  -6   3   49.92    1.32
   4  -6   4   17.33    0.80
   4  -6   4   19.18    0.86
   4  -6   4   20.24    0.68
  -4   6   4   19.10    0.82
   4  -6   4   18.51    0.56
   6  -2   4   21.56    0.95
   6  -2   4   19.39    0.57
   2   4   4   20.28    0.83
   6  -2   4   17.91    0.93
  -2  -4   4   18.64    0.90
   2   4   4   18.46    0.96
  -6   2   4   18.26    0.84
  -6   2   4   19.44    0.84
   4  -6   5   22.29    0.91
  -2  -4   5   21.73    0.64
   6  -2   5   20.75    0.94
   4  -6   5   21.04    0.61
   2   4   5   23.35    1.11
  -4   6   5   21.90    0.93
   6  -2   5   22.24    0.66
   6  -2   5   21.42    0.98
   6  -2   5   21.92    1.07
   2   4   5   22.45    0.91
   4  -6   5   20.93    0.95
  -6   2   5   22.34    0.96
  -2  -4   5   23.92    1.07
   4  -6   6   54.92    1.73
  -6   2   6   55.08    1.84
   6  -2   6   54.54    1.46
  -4   6   6   57.24    1.83
   4  -6   6   51.46    1.82
   6  -2   6   54.90    1.85
   2   4   6   59.65    1.78
   6  -2   6   56.68    1.85
  -2  -4   6   52.22    1.92
  -2  -4   7    6.77    0.65
   6  -2   7    5.75    0.55
   6  -2   7    7.26    0.59
  -4   6   7    6.84    0.58
  -2  -4   7    7.29    0.28
   2   4   7    6.55    0.53
  -2  -4   7    7.06    0.28
  -6   2   7    7.52    0.61
   4  -6   7    7.49    0.51
   6  -2   8    7.30    0.63
   2   4   8    9.27    0.83
   6  -2   8    7.90    0.64
   2   4   8    8.67    0.63
   4  -6   8    8.63    0.56
   6  -2   9    2.04    0.45
   4  -6   9    1.57    0.35
   2   4   9    2.30    0.54
   6  -2   9    2.26    0.46
   2   4   9    1.74    0.42
   6  -2  10    9.72    0.76
   2   4  10    9.34    0.72
   6  -2  10    8.56    0.72
   5  -6  -9    2.57    0.44
   1   5  -9    1.51    0.50
   5  -6  -9    1.41    0.40
   6  -1  -9    2.40    0.57
  -1  -5  -9    2.48    0.63
   6  -1  -9    2.42    0.60
  -1  -5  -8    6.29    0.75
   1   5  -8    5.85    0.63
   5  -6  -8    4.70    0.51
   5  -6  -8    5.78    0.52
   6  -1  -8    5.80    0.67
   6  -1  -8    4.87    0.64
   5  -6  -7    8.48    0.59
   1   5  -7    8.86    0.70
   5  -6  -7    8.30    0.57
   6  -1  -7    8.92    0.77
  -1  -5  -7    9.63    0.79
   1   5  -6   65.10    2.03
  -1  -5  -6   60.67    1.84
  -1  -5  -6   64.88    2.15
   5  -6  -6   60.09    1.84
   6  -1  -6   63.84    2.15
  -5   6  -6   56.20    1.47
   5  -6  -6   60.40    1.84
  -5   6  -6   68.12    1.96
  -6   1  -5   23.31    0.97
   1   5  -5   23.86    1.02
  -1  -5  -5   24.83    1.10
  -5   6  -5   25.14    0.96
   6  -1  -5   22.91    1.09
  -5   6  -5   21.55    0.58
   5  -6  -5   24.41    0.90
   5  -6  -5   23.93    0.94
   5  -6  -5   23.90    0.88
  -1  -5  -5   22.33    0.91
  -6   1  -4    9.48    0.55
   1   5  -4    8.60    0.55
  -1  -5  -4    8.59    0.58
  -5   6  -4    7.78    0.23
   5  -6  -4    8.13    0.49
   1   5  -4    7.94    0.27
  -1  -5  -4    9.61    0.62
  -1  -5  -4    7.55    0.49
  -5   6  -4    7.51    0.23
   5  -6  -4    8.19    0.41
  -5   6  -4   10.48    0.52
  -5   6  -3   48.47    1.37
  -1  -5  -3   47.08    1.49
  -1  -5  -3   47.94    1.54
   1   5  -3   44.36    1.22
  -5   6  -3   45.45    1.13
   1   5  -3   48.74    1.48
   5  -6  -3   48.94    1.42
  -1  -5  -3   44.30    1.46
   6  -1  -3   45.12    1.28
  -6   1  -3   46.43    1.49
  -5   6  -2  202.55    4.62
  -5   6  -2  188.38    4.51
  -1  -5  -2  195.65    4.74
   1   5  -2  194.93    4.75
   1   5  -2  183.76    4.62
  -1  -5  -2  192.48    4.85
   5  -6  -2  190.23    4.69
   6  -1  -2  187.06    4.66
  -5   6  -1   70.45    1.75
  -1  -5  -1   72.02    1.85
  -1  -5  -1   70.37    1.82
   1   5  -1   68.18    1.93
  -5   6  -1   71.76    1.81
  -6   1  -1   68.79    2.03
   6  -1  -1   72.02    1.94
  -1  -5  -1   71.49    2.00
  -6   1  -1   72.65    2.03
   6  -1   0    9.97    0.51
   5  -6   0   10.57    0.54
  -1  -5   0   10.16    0.32
   1   5   0    9.94    0.53
  -5   6   0   10.28    0.43
  -1  -5   0   10.05    0.48
  -1  -5   0   10.31    0.43
  -6   1   0   10.32    0.52
  -6   1   1   70.04    2.02
   5  -6   1   71.63    2.00
   1   5   1   72.46    2.10
  -5   6   1   72.35    1.92
  -6   1   1   67.37    1.99
  -5   6   1   70.36    1.83
  -6   1   1   74.06    1.97
   6  -1   1   68.66    2.16
   6  -1   1   70.93    2.02
  -1  -5   2  188.76    4.82
  -6   1   2  187.71    4.72
  -5   6   2  186.12    4.54
   6  -1   2  177.76    4.86
   1   5   2  189.72    4.90
  -5   6   2  183.31    4.68
  -6   1   2  197.90    4.65
   5  -6   2  196.31    4.70
  -6   1   2  185.67    4.77
   6  -1   2  189.50    4.79
  -1  -5   3   45.15    1.56
  -6   1   3   45.34    1.42
  -6   1   3   50.06    1.33
  -6   1   3   46.05    1.54
   5  -6   3   45.55    1.52
   5  -6   3   48.27    1.40
   1   5   3   46.88    1.65
  -5   6   3   47.56    1.48
   6  -1   3   47.33    1.64
   5  -6   3   48.29    1.35
   6  -1   3   44.52    1.53
  -6   1   4    7.81    0.55
   5  -6   4    8.37    0.54
   5  -6   4    8.51    0.59
  -5   6   4    9.72    0.57
   1   5   4    8.28    0.63
  -6   1   4    8.89    0.48
   6  -1   4    9.26    0.63
   5  -6   4    8.84    0.40
   6  -1   4    8.89    0.66
   1   5   4    8.11    0.53
   6  -1   4    9.22    0.40
  -1  -5   4    9.42    0.62
   5  -6   4    8.86    0.44
   5  -6   5   22.93    0.97
   6  -1   5   21.80    1.00
  -5   6   5   22.35    0.98
   1   5   5   23.74    1.15
   6  -1   5   22.51    1.11
   5  -6   5   22.95    0.75
   6  -1   5   23.31    1.08
   6  -1   5   25.35    0.77
   1   5   5   23.58    0.97
   5  -6   5   21.65    1.02
  -1  -5   5   23.15    1.09
  -6   1   5   22.26    1.02
   1   5   6   61.85    2.17
  -5   6   6   59.90    1.96
   5  -6   6   58.03    1.61
   6  -1   6   61.85    1.65
   6  -1   6   59.84    2.04
   1   5   6   63.30    1.92
   6  -1   6   61.06    1.99
  -1  -5   6   62.11    2.11
  -6   1   6   59.06    2.00
   5  -6   6   57.49    1.87
  -1  -5   7    8.41    0.40
  -1  -5   7    8.88    0.74
  -5   6   7    7.60    0.63
   5  -6   7    8.14    0.40
   6  -1   7    8.77    0.45
   6  -1   7    8.09    0.67
   1   5   7    9.15    0.62
   6  -1   7    7.86    0.63
   5  -6   7    8.30    0.58
  -6   1   7    8.02    0.66
   6  -1   8    5.07    0.39
   6  -1   8    5.01    0.58
   1   5   8    5.02    0.53
   6  -1   8    4.85    0.56
   5  -6   8    4.63    0.46
  -1  -5   8    5.71    0.28
   5  -6   9    1.73    0.38
   6  -1   9    2.06    0.49
   6  -1   9    1.38    0.45
   1   5   9    2.50    0.46
   6   0  -9   -0.05    0.45
   6  -6  -9    0.17    0.34
   6  -6  -9    0.04    0.37
   6   0  -8   26.65    1.27
   0   6  -8   25.37    1.26
   6  -6  -8   26.58    1.11
   0  -6  -8   26.91    1.41
   6   0  -8   26.85    1.38
   6  -6  -8   23.48    1.13
   0  -6  -7    0.05    0.39
   6  -6  -7    0.17    0.29
   6  -6  -7    0.31    0.29
   0   6  -7    1.30    0.40
   6   0  -7    0.40    0.34
   6   0  -7    0.05    0.39
   6  -6  -7    0.36    0.29
   6  -6  -6    3.67    0.40
   0   6  -6    5.44    0.52
   0  -6  -6    4.86    0.56
   6  -6  -6    4.14    0.43
   6   0  -6    4.99    0.60
   0  -6  -6    4.08    0.41
  -6   6  -6    4.93    0.49
   6  -6  -5    1.10    0.28
   0  -6  -5    0.96    0.28
  -6   0  -5    0.89    0.31
  -6   6  -5    1.31    0.31
   6  -6  -5    1.66    0.32
   6  -6  -5    0.89    0.23
   0   6  -5    0.90    0.30
   6   0  -5    1.50    0.41
   0  -6  -5    1.12    0.37
   6  -6  -4  125.38    3.42
   0   6  -4  122.93    3.37
   0  -6  -4  123.82    3.47
   6  -6  -4  120.95    3.30
  -6   0  -4  122.78    3.40
   0  -6  -4  131.31    3.51
   6  -6  -3    2.20    0.28
  -6   0  -3    2.52    0.32
   0  -6  -3    1.73    0.30
   0   6  -3    2.10    0.28
   0  -6  -3    2.36    0.34
  -6   6  -3    2.25    0.26
   0  -6  -2    2.64    0.15
   6  -6  -2    1.97    0.28
   0   6  -2    2.32    0.18
   0   6  -2    2.76    0.26
   6  -6  -2    2.40    0.25
   0  -6  -2    2.42    0.30
   6   0  -2    2.66    0.25
  -6   6  -2    2.88    0.22
  -6   6  -1    2.85    0.19
   0   6  -1    2.60    0.23
   0  -6  -1    2.70    0.29
   0   6  -1    2.91    0.23
   6  -6  -1    3.21    0.25
  -6   6  -1    2.87    0.18
  -6   0  -1    3.21    0.32
   6   0  -1    2.41    0.26
  -6   6   0  208.64    5.17
   0   6   0  217.22    5.33
   0  -6   0  220.84    5.25
   6   0   0  211.62    5.55
  -6   0   0  218.58    5.34
   6   0   0  216.08    5.33
   6  -6   1    2.47    0.31
   0  -6   1    2.57    0.30
  -6   0   1    2.66    0.31
   6  -6   1    2.58    0.29
   0   6   1    3.12    0.33
   6   0   1    2.66    0.33
  -6   0   1    2.44    0.30
   0  -6   1    2.71    0.22
   6   0   1    2.62    0.37
   6   0   1    2.56    0.30
  -6   0   1    2.72    0.28
   6  -6   2    2.16    0.31
   0  -6   2    2.83    0.32
   6  -6   2    2.43    0.28
  -6   0   2    2.84    0.31
  -6   6   2    2.44    0.27
  -6   6   2    2.12    0.23
  -6   0   2    2.37    0.30
   0   6   2    2.47    0.35
   6   0   2    2.46    0.36
   6   0   2    2.47    0.37
   6   0   2    2.60    0.31
  -6   0   2    2.38    0.25
   0  -6   3    2.02    0.18
   6   0   3    1.74    0.30
  -6   6   3    2.10    0.25
   0  -6   3    2.03    0.32
   0   6   3    1.81    0.31
   6  -6   3    1.93    0.27
  -6   0   3    2.43    0.34
   6  -6   3    1.77    0.25
  -6   0   3    1.65    0.26
   0   6   3    1.89    0.36
  -6   0   3    1.77    0.30
  -6   0   3    2.23    0.23
  -6   6   3    1.95    0.28
   6   0   3    1.63    0.34
   6  -6   4  116.96    3.35
  -6   0   4  121.48    3.43
  -6   0   4  127.81    3.03
  -6   0   4  121.91    3.18
   6  -6   4  122.43    3.47
  -6   6   4  117.68    3.31
   0   6   4  123.73    3.56
   6   0   4  117.24    3.48
   6  -6   4  122.94    3.17
   6   0   4  128.49    3.14
  -6   0   4  120.10    3.37
   0  -6   4  122.93    3.44
   6   0   5    0.56    0.29
   6   0   5    0.79    0.37
   6  -6   5    1.12    0.31
   0  -6   5    1.23    0.34
  -6   0   5    0.71    0.32
   6  -6   5    0.83    0.33
   0   6   5    0.95    0.31
   0   6   5    0.92    0.37
   6   0   5    1.30    0.23
   6   0   5    0.60    0.31
   6  -6   5    0.97    0.22
  -6   6   5    0.80    0.29
   6   0   6    4.22    0.49
   0  -6   6    4.17    0.51
  -6   0   6    4.00    0.50
   0   6   6    4.50    0.56
   6  -6   6    4.13    0.33
   6   0   6    4.07    0.34
   0   6   6    4.89    0.48
   6   0   6    4.46    0.53
   6  -6   6    4.25    0.45
   0  -6   7    0.35    0.22
  -6   0   7    0.16    0.32
   6   0   7    0.46    0.23
   6  -6   7    0.29    0.30
   0   6   7    0.24    0.42
   6   0   7    0.22    0.35
   6  -6   7    0.42    0.22
   6   0   7    0.45    0.35
   0   6   7    0.59    0.33
  -6   0   8   22.44    1.20
   6   0   8   26.38    0.96
   6  -6   8   24.35    0.88
   6   0   8   23.46    1.22
   0   6   8   24.10    1.13
   6  -6   8   24.63    1.09
   0  -6   8   24.51    0.84
   6  -6   9    0.24    0.36
   6   0   9    0.30    0.45
   0   6   9    0.14    0.39
   7  -6  -9    0.04    0.41
   6   1  -8   32.46    1.41
   1  -7  -8   33.15    1.61
   6   1  -8   31.28    1.56
  -1   7  -8   34.11    1.48
   7  -6  -8   35.16    1.34
   1  -7  -7    0.14    0.43
   7  -6  -7   -0.06    0.28
  -1   7  -7    0.11    0.35
   6   1  -7   -0.09    0.41
   6   1  -7    0.03    0.32
   7  -6  -6    0.66    0.19
   7  -6  -6    0.92    0.29
  -1   7  -6    0.44    0.33
   6   1  -6    0.63    0.30
   1  -7  -6    0.98    0.39
   6   1  -6    0.94    0.43
   1  -7  -5    0.17    0.25
   7  -6  -5    0.85    0.21
  -7   6  -5    0.22    0.26
   7  -6  -5    0.46    0.28
  -1   7  -5    0.27    0.26
   1  -7  -5    0.04    0.29
   7  -6  -4  151.90    3.84
  -1   7  -4  160.36    3.97
   7  -6  -4  158.59    4.05
   1  -7  -4  165.66    4.13
   7  -6  -4  162.05    3.94
  -6  -1  -4  157.96    4.04
   7  -6  -3    0.36    0.19
   7  -6  -3    0.51    0.23
  -1   7  -3    0.72    0.23
   1  -7  -3    0.77    0.29
   7  -6  -3    0.52    0.19
   7  -6  -2    9.83    0.58
  -1   7  -2    9.97    0.46
   1  -7  -2    8.92    0.53
   7  -6  -2    8.75    0.46
   7  -6  -1    0.53    0.17
  -6  -1  -1    0.84    0.24
   7  -6  -1    0.78    0.22
  -1   7  -1    0.86    0.14
   7  -6  -1    0.71    0.24
   1  -7  -1    0.65    0.20
   6   1  -1    0.38    0.24
   7  -6   0  276.37    7.13
   1  -7   0  295.83    6.97
  -6  -1   0  273.88    7.04
   6   1   0  290.61    7.36
   7  -6   0  293.01    6.86
   6   1   0  302.02    7.14
  -6  -1   0  298.04    7.11
  -6  -1   1    0.52    0.19
   1  -7   1    0.59    0.20
   7  -6   1    0.53    0.23
   6   1   1    0.54    0.21
  -7   6   1    0.47    0.10
   1  -7   1    0.69    0.15
   6   1   1    1.21    0.31
  -6  -1   1    0.92    0.24
   6   1   1    0.31    0.20
   6   1   2   10.16    0.60
   1  -7   2    9.31    0.41
  -6  -1   2   10.65    0.56
   1  -7   2    9.36    0.56
  -6  -1   2    8.85    0.55
  -1   7   2    9.12    0.60
   7  -6   2    8.25    0.56
  -7   6   2    8.52    0.47
   6   1   2    8.88    0.67
   6   1   2    9.09    0.58
  -1   7   2    8.44    0.55
   7  -6   2    9.42    0.56
  -7   6   2    9.43    0.35
  -6  -1   2   10.96    0.51
  -6  -1   3    0.65    0.19
   1  -7   3    0.75    0.26
  -1   7   3    0.76    0.26
  -6  -1   3    0.52    0.27
  -6  -1   3    0.52    0.22
   6   1   3    0.71    0.28
   6   1   3    0.53    0.28
   1  -7   3    0.56    0.16
  -1   7   3    1.76    0.35
  -6  -1   3    0.53    0.25
  -7   6   3    0.58    0.20
   6   1   3    0.65    0.33
   7  -6   3    0.72    0.27
   1  -7   4  156.15    4.29
  -6  -1   4  162.71    4.38
  -6  -1   4  162.99    4.29
  -6  -1   4  164.56    4.07
   6   1   4  153.62    4.35
  -1   7   4  155.65    4.44
   7  -6   4  161.27    4.15
  -1   7   4  162.36    4.25
   1  -7   4  155.92    3.98
   7  -6   4  161.20    4.42
   7  -6   4  150.48    4.24
  -6  -1   4  166.81    3.94
   6   1   5    0.24    0.32
   7  -6   5    0.27    0.26
   1  -7   5    0.10    0.32
  -6  -1   5    0.18    0.33
  -6  -1   5    0.46    0.21
  -6  -1   5    0.15    0.11
   1  -7   5    0.14    0.19
   6   1   5    0.40    0.23
   7  -6   5    0.19    0.23
   6   1   5    0.08    0.36
   7  -6   6    0.68    0.32
  -6  -1   6    0.71    0.40
   6   1   6    0.57    0.37
   7  -6   6    0.73    0.25
   6   1   6    0.87    0.26
   7  -6   7    0.26    0.33
  -6  -1   7   -0.13    0.37
   6   1   7    0.06    0.26
   1  -7   7    0.41    0.24
   6   1   7    0.05    0.39
   7  -6   7    0.02    0.25
  -1   7   7    0.30    0.32
   1  -7   8   32.77    1.11
  -6  -1   8   30.46    1.45
   7  -6   8   31.03    1.13
   6   1   8   30.93    1.48
   6   1   8   33.62    1.18
  -1   7   8   32.24    1.37
   7  -6   8   31.25    1.33
   7  -6   9   -0.07    0.39
   7  -5  -9    1.36    0.47
   2  -7  -8   11.71    0.93
   7  -5  -8   11.06    0.68
   5   2  -8   11.79    0.79
   7  -5  -8   11.01    0.82
   2  -7  -7    3.23    0.41
   2  -7  -7    3.53    0.33
   7  -5  -7    3.80    0.42
   5   2  -7    4.30    0.47
   2  -7  -7    4.21    0.62
   5   2  -6   20.95    0.90
   7  -5  -6   21.52    0.92
   2  -7  -6   17.35    0.70
  -7   5  -6   19.44    0.77
   2  -7  -6   18.54    0.82
   7  -5  -6   20.56    0.66
   2  -7  -6   21.41    1.11
   7  -5  -5   11.36    0.49
   7  -5  -5   11.58    0.65
  -7   5  -5   11.90    0.57
   2  -7  -5   10.18    0.43
   5   2  -5   11.68    0.60
   7  -5  -4   38.36    1.20
   7  -5  -4   42.34    1.39
  -7   5  -4   38.12    1.26
  -5  -2  -4   38.59    1.37
   2  -7  -4   40.62    1.45
   2  -7  -4   38.78    0.97
   7  -5  -4   39.66    1.32
   5   2  -4   41.62    1.52
  -5  -2  -4   39.82    1.51
   7  -5  -3   25.12    0.99
  -7   5  -3   24.27    0.92
   7  -5  -3   23.58    0.87
   2  -7  -3   26.99    1.04
   7  -5  -3   25.56    0.92
  -5  -2  -3   25.02    1.00
   7  -5  -2   43.25    1.40
   7  -5  -2   45.23    1.51
  -2   7  -2   48.70    1.35
  -7   5  -2   45.82    1.46
   2  -7  -2   48.84    1.49
   7  -5  -2   47.08    1.38
   5   2  -2   45.28    1.58
   7  -5  -1   30.51    1.10
  -2   7  -1   32.87    0.92
  -5  -2  -1   33.51    1.15
   2  -7  -1   32.95    1.08
   7  -5  -1   32.81    0.99
   5   2  -1   31.98    1.25
   7  -5  -1   32.16    1.16
   7  -5   0   58.25    1.79
   2  -7   0   60.51    1.65
   2  -7   0   60.26    1.65
  -5  -2   0   55.64    1.71
   7  -5   0   61.50    1.57
   5   2   0   60.45    1.96
   5   2   0   59.05    1.66
  -5  -2   0   61.13    1.77
   2  -7   1   32.99    1.06
  -7   5   1   33.11    0.95
  -5  -2   1   31.60    1.10
   2  -7   1   32.71    0.93
   5   2   1   30.55    1.06
   5   2   1   31.32    1.29
   7  -5   1   31.97    0.86
   7  -5   1   31.68    1.13
  -2   7   1   32.34    1.14
   7  -5   1   29.93    1.13
  -5  -2   1   31.29    1.07
   7  -5   2   45.54    1.51
  -7   5   2   47.08    1.30
  -5  -2   2   45.38    1.48
   5   2   2   42.33    1.46
  -7   5   2   45.07    1.41
   5   2   2   45.82    1.68
   2  -7   2   45.92    1.14
   2  -7   2   46.57    1.46
  -2   7   2   47.23    1.50
  -5  -2   2   48.62    1.40
   5   2   3   23.32    1.00
  -5  -2   3   25.97    1.02
  -5  -2   3   25.81    0.91
  -7   5   3   23.21    0.91
  -7   5   3   24.30    0.83
   5   2   3   26.81    1.19
   7  -5   3   26.45    1.04
  -2   7   3   24.98    0.99
   2  -7   3   23.39    0.97
  -5  -2   3   24.63    0.85
   2  -7   3   23.67    0.86
  -7   5   4   40.28    1.25
  -7   5   4   38.83    1.32
  -5  -2   4   39.79    1.23
   5   2   4   38.84    1.58
   2  -7   4   37.50    1.25
   7  -5   4   39.99    1.38
   2  -7   4   37.94    1.40
  -2   7   4   41.56    1.41
   5   2   4   38.20    1.46
   5   2   4   41.13    1.31
  -5  -2   4   41.13    1.16
   7  -5   4   34.34    1.36
   5   2   5   11.58    0.79
   2  -7   5   12.24    0.43
   2  -7   5   11.62    0.60
  -5  -2   5   12.11    0.52
   7  -5   5   11.20    0.65
  -2   7   5   11.06    0.68
   5   2   5   11.56    0.62
   7  -5   5   10.51    0.67
  -5  -2   5   11.70    0.43
   2  -7   6   21.79    0.89
   2  -7   6   19.69    0.88
   7  -5   6   20.74    0.90
   5   2   6   22.44    0.89
   7  -5   6   21.25    0.99
   7  -5   7    3.71    0.41
   5   2   7    4.17    0.42
  -5  -2   7    3.85    0.56
   5   2   7    3.86    0.58
   2  -7   7    3.53    0.38
   7  -5   7    3.84    0.50
   7  -5   8    9.75    0.71
  -5  -2   8   12.26    0.90
   5   2   8   10.80    0.87
  -2   7   8    9.83    0.73
   7  -5   8    9.59    0.61
   5   2   8   11.75    0.67
   2  -7   8    9.91    0.57
   7  -5   9    0.77    0.41
   7  -5   9    1.18    0.35
   5   2   9    1.44    0.38
   7  -5  10    4.31    0.58
   7  -4  -9    3.86    0.65
  -4  -3  -8    4.31    0.68
   4   3  -8    2.56    0.44
   7  -4  -8    3.41    0.40
   3  -7  -8    2.65    0.56
   4   3  -8    2.74    0.58
   7  -4  -8    2.50    0.52
  -4  -3  -7   14.96    1.03
   3  -7  -7   11.30    0.59
   4   3  -7   13.27    0.91
   7  -4  -7   15.30    0.73
   7  -4  -7   14.31    0.91
   4   3  -7   13.71    0.77
   3  -7  -7   12.75    0.64
   3  -7  -7   12.65    0.72
   3  -7  -7   14.96    0.97
   7  -4  -6   59.63    1.80
  -4  -3  -6   64.21    2.17
  -7   4  -6   54.95    1.67
   3  -7  -6   51.03    1.58
   4   3  -6   61.09    2.04
   4   3  -6   59.47    1.79
  -3   7  -6   61.29    1.89
   3  -7  -6   52.98    1.73
   7  -4  -6   56.42    1.39
  -3   7  -5   38.47    1.32
   3  -7  -5   34.33    1.17
   7  -4  -5   37.42    1.28
  -7   4  -5   35.60    1.20
  -4  -3  -5   40.01    1.52
  -4  -3  -5   36.10    1.31
   3  -7  -5   33.47    1.04
   4   3  -5   38.11    1.21
   4   3  -5   39.36    1.47
   7  -4  -5   36.53    1.31
   7  -4  -5   34.94    1.02
  -3   7  -4    3.39    0.35
   7  -4  -4    3.86    0.37
  -7   4  -4    3.52    0.35
   4   3  -4    4.30    0.30
   3  -7  -4    4.58    0.45
  -4  -3  -4    4.92    0.46
   7  -4  -4    3.76    0.39
   4   3  -4    4.61    0.47
  -4  -3  -4    3.48    0.39
   7  -4  -4    4.08    0.28
   7  -4  -3   67.01    1.88
   7  -4  -3   69.22    2.04
  -7   4  -3   68.13    1.99
   4   3  -3   68.61    1.74
   3  -7  -3   71.71    2.08
   7  -4  -3   70.41    1.99
  -4  -3  -3   68.88    2.16
   4   3  -3   69.05    2.06
  -4  -3  -3   66.08    2.02
   7  -4  -2  169.40    4.45
  -7   4  -2  171.45    4.41
   3  -7  -2  179.77    4.43
   7  -4  -2  179.18    4.34
   4   3  -2  168.60    4.50
  -4  -3  -2  179.81    4.55
   7  -4  -2  167.41    4.32
   3  -7  -1  105.80    2.60
   7  -4  -1  107.05    2.90
  -7   4  -1  105.56    2.87
   7  -4  -1  106.98    2.73
   3  -7  -1  107.69    2.80
   4   3  -1  106.79    2.98
  -4  -3  -1  105.15    2.86
   7  -4  -1  105.63    2.81
   7  -4   0    3.00    0.29
  -3   7   0    2.38    0.11
  -7   4   0    2.58    0.31
   7  -4   0    2.42    0.20
   3  -7   0    3.42    0.26
  -4  -3   0    2.51    0.27
   4   3   0    2.32    0.17
  -3   7   0    2.52    0.28
   4   3   0    2.97    0.36
   3  -7   0    2.66    0.20
  -4  -3   0    2.92    0.30
   4   3   1  104.30    2.69
   3  -7   1  107.87    2.63
  -4  -3   1  107.71    2.82
   7  -4   1  103.80    2.56
   4   3   1  108.29    3.05
  -3   7   1  107.46    2.83
  -4  -3   1  107.01    2.80
   3  -7   1  103.15    2.68
   7  -4   1  102.33    2.85
   4   3   2  166.63    4.30
  -7   4   2  175.78    4.26
  -4  -3   2  185.13    4.53
  -4  -3   2  169.58    4.36
  -7   4   2  169.27    4.32
   3  -7   2  167.95    4.02
   4   3   2  176.58    4.63
   7  -4   2  170.23    3.97
   7  -4   2  177.48    4.53
  -3   7   2  171.55    4.36
  -4  -3   2  175.41    4.27
   3  -7   2  163.73    4.25
   7  -4   2  168.35    4.41
  -7   4   3   70.56    2.07
   3  -7   3   70.04    2.03
   4   3   3   75.40    2.37
  -3   7   3   70.36    2.10
   7  -4   3   71.03    2.20
  -4  -3   3   74.90    2.25
  -7   4   3   70.87    1.99
  -4  -3   3   70.67    1.94
  -7   4   4    3.95    0.39
   7  -4   4    4.41    0.51
  -4  -3   4    3.43    0.29
   3  -7   4    4.46    0.29
   4   3   4    4.41    0.50
  -3   7   4    4.35    0.40
   7  -4   4    3.94    0.41
   4   3   4    4.37    0.39
  -4  -3   4    3.76    0.45
   3  -7   4    4.95    0.40
  -4  -3   4    3.79    0.28
  -7   4   4    4.28    0.36
   3  -7   5   36.47    1.02
  -4  -3   5   35.63    1.08
   4   3   5   39.94    1.60
   3  -7   5   35.09    1.27
  -3   7   5   34.51    1.32
   7  -4   5   35.89    1.33
   4   3   5   39.71    1.29
  -7   4   5   36.94    1.27
  -4  -3   5   36.42    1.04
   7  -4   5   34.55    1.35
  -4  -3   5   35.07    1.44
   3  -7   6   59.39    1.82
  -4  -3   6   57.48    2.06
   7  -4   6   54.24    1.90
   3  -7   6   59.18    1.86
  -3   7   6   59.39    1.92
   4   3   6   58.90    1.81
   7  -4   6   58.72    1.88
  -4  -3   6   57.61    1.43
   3  -7   7   13.92    0.72
   4   3   7   14.36    0.97
   7  -4   7   13.52    0.76
   4   3   7   13.64    0.72
   7  -4   7   13.08    0.80
   7  -4   8    2.69    0.45
   3  -7   8    2.71    0.37
   4   3   8    3.46    0.44
  -3   7   8    3.14    0.50
   4   3   8    3.24    0.58
   7  -4   8    2.36    0.41
   7  -4   9    3.84    0.53
   7  -4   9    3.44    0.48
   4   3   9    3.48    0.47
   4   3  10    8.46    0.69
   7  -4  10    8.81    0.71
   7  -3  -9   -0.16    0.48
   7  -3  -9    0.66    0.53
  -3  -4  -8    5.64    0.76
   3   4  -8    5.19    0.55
   3   4  -8    5.11    0.64
   4  -7  -8    4.39    0.43
   7  -3  -8    6.08    0.69
   4  -7  -8    3.89    0.61
   4  -7  -7    0.03    0.26
  -7   3  -7    0.29    0.24
   3   4  -7    0.17    0.29
  -3  -4  -7   -0.05    0.40
   7  -3  -7    0.83    0.44
   3   4  -7    0.36    0.37
   4  -7  -7    0.02    0.22
   4  -7  -7   -0.09    0.22
   4  -7  -6   41.40    1.35
  -4   7  -6   48.60    1.58
   7  -3  -6   46.37    1.48
  -7   3  -6   44.01    1.45
  -4   7  -6   45.17    1.31
   3   4  -6   44.11    1.32
   3   4  -6   44.05    1.67
   3   4  -6   45.75    1.49
   4  -7  -6   43.20    1.46
   7  -3  -5    0.10    0.11
  -3  -4  -5    0.10    0.24
  -7   3  -5   -0.13    0.24
  -7   3  -5   -0.03    0.27
   4  -7  -5    0.20    0.19
  -4   7  -5    0.19    0.23
   4  -7  -5    0.21    0.15
   7  -3  -5    0.16    0.24
   3   4  -5    0.44    0.20
  -3  -4  -5    0.14    0.33
   3   4  -5    0.19    0.29
  -7   3  -4   10.07    0.60
  -4   7  -4    9.65    0.53
   7  -3  -4    8.77    0.53
  -7   3  -4    8.44    0.52
  -3  -4  -4   10.11    0.63
   7  -3  -4    9.21    0.57
   4  -7  -4    8.38    0.59
   3   4  -4    8.61    0.39
   3   4  -4   10.01    0.64
   3   4  -4    9.25    0.50
  -3  -4  -4    8.39    0.54
   7  -3  -4    8.72    0.39
   4  -7  -4    7.63    0.41
   4  -7  -3    0.37    0.12
  -3  -4  -3    0.11    0.22
   7  -3  -3    0.43    0.16
  -7   3  -3    0.70    0.25
  -3  -4  -3    0.31    0.23
  -4   7  -3    0.27    0.18
   7  -3  -3    0.02    0.19
  -7   3  -3    0.28    0.21
   4  -7  -3    0.43    0.27
  -3  -4  -3    0.03    0.26
   3   4  -3    0.32    0.20
   7  -3  -3    0.15    0.22
   3   4  -3    0.58    0.26
  -7   3  -2  132.78    3.56
   7  -3  -2  142.01    3.51
   4  -7  -2  139.62    3.58
  -3  -4  -2  136.18    3.44
   3   4  -2  134.93    3.55
  -3  -4  -2  135.95    3.64
  -3  -4  -2  130.17    3.54
   7  -3  -2  132.61    3.43
   7  -3  -1    0.36    0.17
  -7   3  -1    0.62    0.23
  -7   3  -1    0.20    0.19
   4  -7  -1    0.25    0.18
   3   4  -1    0.73    0.23
   7  -3  -1    0.32    0.18
  -3  -4  -1    0.49    0.16
  -4   7  -1    0.76    0.17
  -7   3   0   13.44    0.63
  -7   3   0   13.52    0.65
   4  -7   0   12.53    0.55
  -3  -4   0   13.26    0.57
   3   4   0   12.61    0.68
  -4   7   0   12.86    0.56
  -3  -4   0   12.09    0.60
   7  -3   0   12.76    0.60
  -3  -4   1    0.55    0.22
   7  -3   1    0.29    0.18
  -4   7   1    0.50    0.06
  -7   3   1    0.40    0.19
   4  -7   1    0.49    0.15
  -3  -4   1    0.58    0.20
   3   4   1    0.61    0.23
  -4   7   1    0.49    0.19
  -3  -4   2  134.25    3.53
  -3  -4   2  140.37    3.67
  -7   3   2  133.77    3.53
  -3  -4   2  137.89    3.47
   4  -7   2  135.59    3.26
  -7   3   2  132.53    3.52
   3   4   2  137.91    3.76
  -7   3   2  131.86    3.49
  -4   7   2  134.89    3.51
   7  -3   2  134.42    3.71
   7  -3   2  129.03    3.56
  -3  -4   3    0.24    0.18
   7  -3   3    0.53    0.09
  -7   3   3    0.34    0.19
  -3  -4   3    0.18    0.26
   7  -3   3    0.10    0.29
   4  -7   3    0.32    0.18
   4  -7   3    0.25    0.08
  -7   3   3    0.07    0.22
   7  -3   3    0.97    0.26
   3   4   3    0.18    0.26
   4  -7   3    0.32    0.08
   7  -3   3    0.28    0.27
  -4   7   3    0.44    0.21
  -3  -4   4    8.59    0.62
   4  -7   4    8.03    0.55
  -7   3   4    9.30    0.55
   7  -3   4    8.81    0.66
  -7   3   4    8.35    0.56
   4  -7   4    9.03    0.44
   7  -3   4    7.89    0.24
   3   4   4    9.63    0.72
  -4   7   4    9.03    0.56
   7  -3   4    9.77    0.64
  -3  -4   4    9.37    0.45
   3   4   4    9.69    0.56
   3   4   5    0.34    0.28
  -3  -4   5    0.14    0.16
   7  -3   5   -0.06    0.27
   4  -7   5    0.13    0.23
  -7   3   5   -0.03    0.23
  -3  -4   5    0.04    0.28
  -3  -4   5    0.21    0.14
   3   4   5    0.76    0.39
   7  -3   5    0.03    0.27
  -4   7   5    0.25    0.26
   4  -7   5    0.05    0.28
   4  -7   5    0.51    0.16
   4  -7   6   44.42    1.53
  -3  -4   6   46.05    1.18
   4  -7   6   44.05    1.58
   3   4   6   45.68    1.83
  -4   7   6   44.31    1.59
   7  -3   6   46.25    1.64
   3   4   6   45.15    1.53
  -3  -4   6   45.17    1.23
  -7   3   6   44.00    1.59
   7  -3   6   44.24    1.61
  -3  -4   6   46.02    1.76
   7  -3   7    0.20    0.31
   4  -7   7    0.15    0.27
  -3  -4   7   -0.04    0.37
   7  -3   7    0.58    0.33
  -4   7   7    0.03    0.30
   3   4   7    0.47    0.31
  -3  -4   8    5.38    0.66
   7  -3   8    4.95    0.54
   3   4   8    6.27    0.74
   7  -3   8    4.85    0.56
   3   4   8    4.81    0.51
   4  -7   8    5.12    0.46
   7  -3   9   -0.14    0.42
   4  -7   9    0.19    0.29
   7  -3   9   -0.20    0.37
   3   4   9   -0.32    0.38
   7  -3  10    7.54    0.68
   5  -7  -9    2.53    0.48
   7  -2  -9    2.36    0.63
  -2  -5  -8    5.93    0.75
   5  -7  -8    3.78    0.44
   2   5  -8    4.92    0.61
   7  -2  -8    4.17    0.64
  -7   2  -7   10.61    0.62
   2   5  -7   11.04    0.79
   5  -7  -7   10.12    0.59
   7  -2  -7   10.76    0.86
  -2  -5  -7   10.28    0.83
  -5   7  -6   50.12    1.58
   5  -7  -6   45.08    1.46
  -7   2  -6   43.37    1.47
   2   5  -6   45.10    1.19
  -5   7  -6   43.74    1.18
   5  -7  -6   43.69    1.40
   2   5  -6   42.70    1.21
  -2  -5  -6   49.93    1.81
   2   5  -6   45.78    1.67
  -5   7  -5   31.70    1.11
  -7   2  -5   28.69    1.08
   2   5  -5   28.37    0.83
   2   5  -5   30.96    1.22
  -5   7  -5   28.41    0.80
   5  -7  -5   26.55    0.96
   2   5  -5   27.02    0.85
  -2  -5  -5   31.65    1.27
  -2  -5  -5   27.02    1.09
  -5   7  -4    9.41    0.50
  -7   2  -4    8.32    0.58
   5  -7  -4    8.63    0.41
  -7   2  -4    8.33    0.54
   7  -2  -4    8.79    0.58
   5  -7  -4    8.05    0.60
   2   5  -4    8.75    0.58
   2   5  -4    8.23    0.40
  -2  -5  -4    9.74    0.65
  -2  -5  -4    9.51    0.61
   5  -7  -4    8.72    0.52
   7  -2  -4    8.27    0.38
  -2  -5  -4    8.23    0.53
  -7   2  -3   58.36    1.80
  -5   7  -3   59.94    1.62
   7  -2  -3   58.84    1.77
   5  -7  -3   58.77    1.83
   2   5  -3   59.11    1.77
   2   5  -3   54.61    1.58
  -2  -5  -3   57.93    1.84
  -7   2  -3   54.80    1.74
  -2  -5  -3   59.48    1.75
  -5   7  -3   52.28    1.46
  -2  -5  -3   54.53    1.74
   7  -2  -3   56.85    1.57
  -5   7  -2  129.67    3.10
  -7   2  -2  122.65    3.34
  -2  -5  -2  122.46    3.32
   5  -7  -2  128.72    3.36
   2   5  -2  120.69    3.20
  -2  -5  -2  127.64    3.37
   2   5  -2  131.86    3.30
  -5   7  -2  119.76    3.06
  -2  -5  -2  126.09    3.19
   7  -2  -2  120.72    3.18
  -7   2  -1   86.26    2.41
  -2  -5  -1   87.95    2.15
  -7   2  -1   82.18    2.41
  -2  -5  -1   85.33    2.21
   2   5  -1   84.12    2.36
  -2  -5  -1   87.08    2.39
  -5   7  -1   81.60    2.18
   7  -2  -1   83.74    2.31
  -7   2   0   10.29    0.55
  -2  -5   0    9.65    0.47
   7  -2   0   10.04    0.53
   2   5   0   10.01    0.58
  -5   7   0   10.05    0.46
  -2  -5   0   10.31    0.53
  -7   2   1   87.51    2.35
  -2  -5   1   84.94    2.30
  -7   2   1   81.67    2.38
   5  -7   1   92.52    2.42
   2   5   1   86.16    2.51
  -5   7   1   83.82    2.11
  -5   7   1   83.39    2.28
   7  -2   1   83.54    2.39
  -7   2   2  130.08    3.24
  -2  -5   2  127.87    3.44
  -5   7   2  123.94    3.04
  -7   2   2  122.29    3.32
  -7   2   2  124.86    3.31
   5  -7   2  136.85    3.32
   2   5   2  129.84    3.54
  -5   7   2  117.74    3.25
   7  -2   2  118.16    3.35
  -2  -5   3   57.00    1.87
  -7   2   3   55.70    1.77
   5  -7   3   60.75    1.67
  -7   2   3   55.57    1.71
  -7   2   3   53.94    1.76
   2   5   3   61.23    1.99
  -5   7   3   55.58    1.73
   7  -2   3   56.82    1.93
   7  -2   3   51.33    1.88
   5  -7   3   57.98    1.53
   7  -2   3   55.51    1.80
  -2  -5   4    7.95    0.61
  -7   2   4    8.11    0.55
  -7   2   4    8.27    0.57
   5  -7   4    8.63    0.46
   5  -7   4    7.88    0.58
   2   5   4    9.80    0.71
  -5   7   4    8.33    0.55
   5  -7   4    8.53    0.35
   7  -2   4    7.74    0.62
   7  -2   4    8.99    0.35
   2   5   4    8.84    0.57
   7  -2   4    8.20    0.64
   5  -7   4    8.96    0.59
  -2  -5   5   29.68    0.85
  -5   7   5   27.32    1.13
   2   5   5   28.71    1.34
  -7   2   5   28.49    1.18
   5  -7   5   27.33    0.79
   7  -2   5   30.70    0.84
   7  -2   5   29.76    1.26
   5  -7   5   27.85    1.14
   2   5   5   28.57    1.13
   5  -7   5   27.86    1.17
   7  -2   5   27.56    1.19
  -2  -5   5   28.24    1.26
   5  -7   6   43.51    1.53
   5  -7   6   41.52    1.11
  -5   7   6   44.59    1.59
   7  -2   6   45.36    1.21
   2   5   6   48.55    1.86
   7  -2   6   45.92    1.67
   2   5   6   44.73    1.54
   7  -2   6   46.46    1.64
  -7   2   6   44.51    1.61
  -2  -5   6   42.90    1.70
  -2  -5   7   10.21    0.43
  -5   7   7   11.90    0.77
   2   5   7   12.28    0.92
   7  -2   7   12.63    0.80
   2   5   7   11.34    0.71
  -2  -5   7   10.37    0.43
   7  -2   7   11.30    0.75
  -7   2   7   11.12    0.77
  -2  -5   7   10.11    0.81
   5  -7   7   10.07    0.65
  -2  -5   8    3.81    0.60
   7  -2   8    3.28    0.52
  -5   7   8    3.49    0.51
   7  -2   8    3.85    0.54
   2   5   8    4.35    0.52
   5  -7   8    4.35    0.46
   7  -2   9    2.10    0.49
   5  -7   9    2.77    0.43
   7  -2   9    2.04    0.47
   2   5   9    2.31    0.47
   6  -7  -9    0.65    0.40
   7  -1  -9    0.29    0.50
   1   6  -8    8.26    0.76
   6  -7  -8    7.47    0.64
   7  -1  -8    8.35    0.82
   6  -7  -8    6.99    0.56
  -1  -6  -8    7.19    0.80
   7  -1  -8    9.08    0.78
   6  -7  -7    2.02    0.42
  -1  -6  -7    2.30    0.53
   1   6  -7    2.30    0.47
   7  -1  -7    2.42    0.52
   1   6  -6   23.17    1.11
   6  -7  -6   24.06    1.09
   6  -7  -6   23.25    0.95
  -1  -6  -6   26.31    1.23
  -6   7  -6   27.30    1.08
   6  -7  -5    5.60    0.39
  -1  -6  -5    5.53    0.54
   1   6  -5    4.80    0.48
  -7   1  -4   23.56    1.01
   1   6  -4   22.17    0.97
   6  -7  -4   25.36    1.10
  -1  -6  -4   23.44    1.05
   6  -7  -4   23.96    0.94
  -6   7  -4   24.63    0.90
  -1  -6  -4   24.50    0.98
  -1  -6  -4   22.44    1.00
  -7   1  -3   13.75    0.70
  -1  -6  -3   12.33    0.65
   1   6  -3   12.86    0.64
   1   6  -3   12.40    0.44
  -1  -6  -3   11.93    0.68
   6  -7  -3   11.55    0.59
   7  -1  -3   12.05    0.53
  -1  -6  -3   12.61    0.66
  -6   7  -3   12.42    0.54
  -7   1  -2   57.36    1.81
  -1  -6  -2   60.97    1.69
   6  -7  -2   61.11    1.87
   1   6  -2   57.24    1.61
  -1  -6  -2   58.27    1.52
  -6   7  -2   55.51    1.48
   1   6  -2   60.81    1.71
  -1  -6  -2   60.34    1.81
   6  -7  -2   56.44    1.65
   7  -1  -2   57.39    1.67
  -6   7  -2   60.59    1.56
  -6   7  -1   17.91    0.49
  -7   1  -1   17.41    0.80
  -1  -6  -1   17.31    0.59
  -1  -6  -1   18.72    0.62
   1   6  -1   17.49    0.71
  -6   7  -1   15.61    0.58
  -1  -6  -1   17.53    0.75
   7  -1  -1   16.59    0.71
  -7   1  -1   16.64    0.76
  -7   1   0   34.63    1.19
   6  -7   0   37.19    1.25
   1   6   0   34.60    1.21
  -6   7   0   32.97    1.05
  -1  -6   0   34.33    0.88
  -1  -6   0   36.10    1.14
   7  -1   0   34.30    1.18
  -7   1   1   17.03    0.72
  -1  -6   1   16.96    0.77
  -7   1   1   16.62    0.76
   6  -7   1   18.38    0.78
   1   6   1   14.94    0.77
  -6   7   1   15.85    0.66
  -7   1   1   16.46    0.73
  -6   7   1   16.03    0.59
   7  -1   1   16.21    0.88
   7  -1   1   16.24    0.74
  -7   1   2   62.08    1.70
  -1  -6   2   58.22    1.84
  -7   1   2   59.62    1.78
   6  -7   2   59.83    1.76
   7  -1   2   56.04    1.88
  -6   7   2   56.75    1.57
  -7   1   2   54.90    1.76
  -6   7   2   56.22    1.70
   1   6   2   57.75    1.90
   7  -1   2   55.17    1.79
  -1  -6   3   11.63    0.70
  -7   1   3   12.61    0.54
   6  -7   3   10.83    0.67
  -7   1   3   12.25    0.70
   6  -7   3   12.72    0.61
  -7   1   3   12.60    0.63
  -6   7   3   12.27    0.64
   1   6   3   13.08    0.78
   6  -7   3   13.76    0.58
   7  -1   3   11.62    0.74
   7  -1   3   12.25    0.68
   6  -7   4   21.72    1.01
  -7   1   4   22.91    1.03
   6  -7   4   24.51    0.88
  -7   1   4   23.31    0.90
   6  -7   4   23.62    1.08
  -6   7   4   21.77    0.96
   1   6   4   22.32    1.14
   7  -1   4   23.19    1.14
   6  -7   4   24.93    0.82
   7  -1   4   21.58    1.09
   7  -1   4   24.68    0.80
  -1  -6   4   22.12    1.05
   6  -7   5    5.56    0.52
  -7   1   5    4.72    0.50
  -6   7   5    5.06    0.48
   1   6   5    5.22    0.60
   6  -7   5    5.85    0.33
   7  -1   5    4.98    0.54
   7  -1   5    5.78    0.34
   1   6   5    5.16    0.48
   7  -1   5    5.04    0.52
  -1  -6   5    4.98    0.54
   6  -7   6   20.30    0.98
   7  -1   6   23.08    1.08
  -6   7   6   21.46    1.03
   1   6   6   23.46    1.25
   6  -7   6   21.60    0.74
   7  -1   6   24.19    1.17
   7  -1   6   23.70    0.79
   1   6   6   22.06    1.02
  -1  -6   6   20.27    1.09
  -7   1   6   22.51    1.10
   7  -1   7    2.40    0.46
   6  -7   7    1.85    0.41
  -1  -6   7    2.23    0.49
  -1  -6   7    2.07    0.26
  -7   1   7    2.08    0.46
   7  -1   7    3.00    0.30
   1   6   7    2.17    0.53
   6  -7   7    2.10    0.23
   7  -1   7    2.27    0.49
  -6   7   7    2.27    0.43
   1   6   7    1.31    0.39
   7  -1   8    7.92    0.71
   7  -1   8    8.52    0.48
   7  -1   8    6.84    0.70
   1   6   8    8.51    0.69
  -7   1   8    8.09    0.73
   6  -7   8    7.93    0.65
   6  -7   9    0.67    0.40
   7  -1   9    0.89    0.48
   7  -1   9    0.59    0.47
   7  -7  -9    0.23    0.39
   7   0  -8   21.19    1.13
   7  -7  -8   20.80    1.04
   0   7  -8   19.46    1.10
   0  -7  -8   22.14    1.28
   0  -7  -7    0.46    0.47
   7  -7  -7    0.26    0.34
   7   0  -7   -0.07    0.36
   7   0  -7    0.15    0.44
   0   7  -7   -0.04    0.37
   0  -7  -6    1.56    0.41
  -7   7  -6    0.91    0.33
   7  -7  -6    1.16    0.35
   0   7  -6    1.73    0.38
   0  -7  -5    0.55    0.32
  -7   7  -5    0.75    0.27
   7  -7  -5    1.12    0.31
   0   7  -5    0.64    0.29
   0  -7  -4   93.38    2.69
   7  -7  -4   93.94    2.70
   0   7  -4   92.14    2.59
   0  -7  -4   88.15    2.69
  -7   7  -4   95.90    2.51
   7  -7  -3    1.87    0.27
  -7   7  -3    1.90    0.24
   7  -7  -3    2.33    0.35
   0  -7  -3    1.53    0.12
   0  -7  -3    1.85    0.31
   0   7  -3    1.59    0.27
   0  -7  -3    2.24    0.35
   7  -7  -2    0.85    0.22
   7   0  -2    0.89    0.22
  -7   0  -2    0.39    0.24
  -7   7  -2    0.84    0.17
   7  -7  -2    0.89    0.27
   0  -7  -2    0.76    0.22
   0   7  -2    1.29    0.16
   0  -7  -2    0.98    0.28
   0   7  -2    0.40    0.18
   7   0  -1    3.08    0.31
   0   7  -1    2.82    0.27
   0  -7  -1    2.65    0.31
  -7   0  -1    2.89    0.34
   7  -7  -1    2.68    0.25
  -7   7  -1    2.76    0.17
   7  -7   0  147.13    4.03
  -7   0   0  146.00    4.01
   7  -7   0  156.43    4.04
   7   0   0  153.80    3.98
  -7   7   0  150.39    3.78
   0   7   0  153.98    3.96
   0  -7   0  157.45    3.86
   7   0   0  144.78    4.20
  -7   0   0  160.67    3.98
   0  -7   1    2.88    0.33
   7   0   1    2.70    0.33
  -7   0   1    1.97    0.30
   7  -7   1    2.67    0.35
   0  -7   1    2.52    0.15
  -7   0   1    2.52    0.33
   7  -7   1    2.55    0.34
  -7   7   1    2.37    0.27
   7   0   1    2.94    0.36
  -7   7   1    2.31    0.25
   0  -7   1    2.51    0.24
   0   7   1    2.16    0.32
   7   0   1    2.25    0.40
  -7   0   1    2.56    0.31
   7   0   2    0.69    0.26
  -7   0   2    0.72    0.21
   7  -7   2    1.01    0.26
   0  -7   2    0.59    0.24
  -7   0   2    0.56    0.24
   7  -7   2    0.61    0.23
   7   0   2    0.40    0.24
   0   7   2    0.78    0.28
  -7   7   2    0.58    0.18
  -7   0   2    0.53    0.25
   7   0   2    0.46    0.31
  -7   7   2    0.70    0.23
   0  -7   2    0.74    0.08
   0  -7   3    1.86    0.34
  -7   0   3    1.52    0.33
   7  -7   3    2.21    0.31
  -7   0   3    1.85    0.30
  -7   0   3    2.40    0.28
  -7   7   3    1.84    0.25
   0   7   3    2.01    0.38
  -7   0   3    2.54    0.34
  -7   7   3    1.31    0.29
   7   0   3    1.99    0.39
   0   7   3    1.64    0.35
   7  -7   3    2.23    0.32
   7   0   3    2.08    0.36
  -7   0   4   90.61    2.28
   7  -7   4   81.46    2.58
  -7   0   4   88.11    2.42
  -7   7   4   88.15    2.55
   0   7   4   84.65    2.76
   7   0   4   85.05    2.70
   7  -7   4   87.36    2.41
  -7   0   4   86.25    2.67
   0  -7   4   86.62    2.65
   7   0   5    0.92    0.24
   7   0   5    0.70    0.33
   0  -7   5    0.40    0.31
  -7   0   5    0.64    0.31
  -7   0   5    0.85    0.24
   0   7   5    0.84    0.40
   7   0   5    1.01    0.36
   7  -7   5    1.20    0.24
   7  -7   5    0.78    0.30
   7   0   6    0.94    0.39
   7  -7   6    1.88    0.39
   0  -7   6    1.17    0.41
  -7   0   6    1.21    0.38
   7   0   6    1.70    0.27
   0   7   6    1.89    0.48
   7  -7   6    1.28    0.24
   7   0   6    1.27    0.44
   0   7   6    1.24    0.35
   7   0   7   -0.08    0.39
   7  -7   7    0.23    0.34
   0  -7   7    0.30    0.23
  -7   0   7   -0.12    0.40
   7  -7   7    0.38    0.21
   7   0   7    0.27    0.40
   7   0   7    0.15    0.24
   0   7   7    0.24    0.32
   7   0   8   20.52    0.83
   7   0   8   18.06    1.11
   0   7   8   18.27    1.02
  -7   0   8   17.52    1.09
   7  -7   8   19.24    0.99
   7  -7   9   -0.07    0.39
  -1   8  -8   11.87    0.86
   8  -7  -8   11.49    0.78
   1  -8  -8   11.43    0.96
   1  -8  -7    0.47    0.46
   7   1  -7    0.16    0.33
   8  -7  -7   -0.03    0.34
  -1   8  -7   -0.21    0.37
   8  -7  -6    3.67    0.33
   8  -7  -6    3.49    0.47
   7   1  -6    3.05    0.41
  -1   8  -6    3.92    0.48
   1  -8  -6    2.57    0.52
   8  -7  -5    0.08    0.21
   8  -7  -5    0.31    0.32
  -8   7  -5   -0.12    0.28
  -1   8  -5   -0.03    0.29
   1  -8  -5    0.04    0.34
   8  -7  -4   46.11    1.62
  -1   8  -4   45.01    1.48
   1  -8  -4   46.82    1.63
  -8   7  -4   48.66    1.46
   8  -7  -3   -0.06    0.22
   8  -7  -3    0.02    0.21
   8  -7  -3    0.33    0.26
  -1   8  -3    0.04    0.20
   1  -8  -3    0.16    0.30
   8  -7  -2    4.55    0.41
   8  -7  -2    4.91    0.46
  -1   8  -2    4.44    0.32
   1  -8  -2    4.63    0.43
   8  -7  -2    5.13    0.36
  -7  -1  -2    5.10    0.45
   8  -7  -1    0.01    0.16
  -7  -1  -1    0.32    0.25
   8  -7  -1    0.15    0.22
   7   1  -1    0.22    0.31
   8  -7   0   67.46    2.15
   1  -8   0   72.87    2.07
   8  -7   0   73.44    2.21
   7   1   0   66.23    2.06
   1  -8   0   73.62    1.99
  -7  -1   0   64.19    2.04
   7   1   0   69.08    2.36
   8  -7   0   73.42    1.87
  -7  -1   0   75.38    2.14
  -8   7   0   73.73    1.77
  -7  -1   1    0.51    0.26
   8  -7   1    0.09    0.25
   1  -8   1    0.16    0.22
  -7  -1   1    0.08    0.25
   8  -7   1    0.14    0.23
   7   1   1    0.17    0.24
   7   1   1   -0.03    0.25
  -7  -1   1    0.41    0.22
   7   1   1   -0.12    0.29
   1  -8   1    0.04    0.14
  -8   7   1    0.33    0.19
   1  -8   2    4.88    0.42
   8  -7   2    5.09    0.49
   8  -7   2    5.41    0.45
  -7  -1   2    4.91    0.45
  -8   7   2    3.66    0.34
   7   1   2    4.60    0.55
  -7  -1   2    4.82    0.44
   7   1   2    4.49    0.44
  -1   8   2    4.21    0.46
   7   1   2    4.54    0.46
   1  -8   2    4.63    0.27
  -7  -1   2    5.47    0.41
  -1   8   3    0.18    0.29
   7   1   3    0.76    0.32
  -7  -1   3    0.35    0.21
   1  -8   3    0.58    0.29
   1  -8   3   -0.04    0.14
  -7  -1   3   -0.10    0.28
  -7  -1   3    0.09    0.23
   7   1   3    0.09    0.28
  -8   7   3   -0.04    0.23
   7   1   3    0.47    0.37
   8  -7   3    0.17    0.27
  -7  -1   4   47.62    1.34
   1  -8   4   43.47    1.28
  -7  -1   4   44.31    1.69
  -7  -1   4   46.31    1.45
   7   1   4   42.02    1.65
   7   1   4   45.03    1.80
   8  -7   4   46.96    1.54
  -1   8   4   42.62    1.58
   1  -8   4   43.47    1.62
   8  -7   4   40.96    1.58
   7   1   5    0.26    0.24
   7   1   5    0.19    0.35
   8  -7   5   -0.17    0.31
  -7  -1   5   -0.01    0.14
   1  -8   5    0.18    0.34
  -7  -1   5    0.08    0.33
  -7  -1   5    0.08    0.22
   8  -7   5    0.14    0.25
  -1   8   5    0.03    0.30
   1  -8   6    3.11    0.51
   8  -7   6    3.08    0.47
   1  -8   6    2.28    0.12
  -7  -1   6    3.21    0.51
   8  -7   6    3.61    0.37
   7   1   6    4.15    0.40
   7   1   6    4.49    0.62
   8  -7   7   -0.32    0.38
   1  -8   7   -0.07    0.28
  -7  -1   7   -0.36    0.44
   7   1   7   -0.25    0.45
   8  -7   7   -0.27    0.27
  -1   8   7    0.04    0.36
   7   1   7    0.16    0.27
   7   1   8   12.28    0.69
   8  -7   8   10.82    0.79
  -2   8  -8   10.39    0.81
   2  -8  -8    8.74    0.86
   8  -6  -8    8.38    0.67
   6   2  -7    1.73    0.37
   8  -6  -7    1.59    0.41
  -2   8  -7    1.32    0.41
   2  -8  -7    0.94    0.45
   6   2  -6   10.60    0.62
   8  -6  -6    9.92    0.67
  -2   8  -6   10.73    0.70
   2  -8  -6    9.76    0.79
   8  -6  -6   10.98    0.49
   8  -6  -5    5.01    0.36
   6   2  -5    4.48    0.39
  -2   8  -5    4.38    0.43
   8  -6  -5    4.70    0.47
  -2   8  -4   30.93    1.11
   8  -6  -4   30.37    1.20
   2  -8  -4   29.40    1.21
   8  -6  -4   29.84    1.11
   8  -6  -4   28.31    1.02
  -2   8  -3   10.72    0.53
   8  -6  -3    9.35    0.54
   8  -6  -3   10.26    0.64
   2  -8  -3   11.42    0.65
   8  -6  -3   10.26    0.56
   8  -6  -2   21.15    0.87
   8  -6  -2   21.97    0.96
  -2   8  -2   21.21    0.75
   2  -8  -2   22.67    0.90
   8  -6  -2   21.40    0.79
   6   2  -2   21.37    1.03
  -6  -2  -2   19.99    0.91
   8  -6  -1   12.44    0.66
   8  -6  -1   12.84    0.70
   6   2  -1   12.87    0.55
  -2   8  -1   12.66    0.45
   2  -8  -1   13.32    0.62
   8  -6  -1   12.67    0.53
   6   2  -1   13.50    0.80
  -6  -2  -1   12.54    0.67
   8  -6   0   46.11    1.54
   2  -8   0   46.36    1.39
   2  -8   0   47.51    1.37
  -6  -2   0   43.40    1.44
   6   2   0   46.82    1.72
   8  -6   0   46.97    1.27
   6   2   0   43.95    1.39
  -6  -2   0   48.30    1.52
   8  -6   1   14.45    0.72
   2  -8   1   12.93    0.61
  -8   6   1   13.23    0.49
   8  -6   1   12.64    0.69
  -6  -2   1   11.85    0.64
   6   2   1   12.08    0.62
   2  -8   1   12.90    0.50
   6   2   1   12.17    0.81
  -8   6   1   12.15    0.59
   8  -6   1   12.84    0.43
  -2   8   1   12.54    0.69
  -6  -2   1   13.56    0.64
   8  -6   2   19.54    0.93
  -6  -2   2   20.37    0.91
   6   2   2   20.69    0.90
  -8   6   2   22.05    0.86
   6   2   2   23.82    1.15
  -2   8   2   20.82    0.94
  -6  -2   2   22.16    0.85
   2  -8   2   22.36    0.90
  -8   6   2   22.48    0.72
   6   2   3    9.97    0.63
  -6  -2   3    9.70    0.56
  -6  -2   3   10.47    0.64
  -8   6   3    8.87    0.54
   2  -8   3    9.27    0.48
   6   2   3    9.66    0.75
   8  -6   3   10.96    0.67
  -2   8   3    9.76    0.63
  -8   6   3   10.21    0.46
   2  -8   3   10.25    0.62
  -6  -2   3    9.78    0.50
   6   2   4   27.54    1.22
  -8   6   4   29.72    1.11
  -6  -2   4   29.58    1.05
   2  -8   4   29.60    1.02
   6   2   4   30.88    1.41
   8  -6   4   30.11    1.19
  -2   8   4   28.02    1.19
   2  -8   4   30.54    1.22
  -6  -2   4   31.85    0.98
   8  -6   5    3.03    0.44
   2  -8   5    3.85    0.47
   2  -8   5    4.93    0.38
  -6  -2   5    4.60    0.35
   2  -8   5    4.70    0.29
   8  -6   5    4.33    0.44
  -2   8   5    4.03    0.49
   6   2   5    4.89    0.57
   6   2   5    4.71    0.42
  -6  -2   5    5.31    0.29
   2  -8   6    9.61    0.58
  -6  -2   6   11.15    0.52
   8  -6   6   11.01    0.65
   6   2   6   11.60    0.65
   8  -6   6    9.76    0.70
  -6  -2   6    9.98    0.80
   8  -6   7    1.09    0.41
   2  -8   7    2.56    0.38
  -6  -2   7    1.53    0.49
   6   2   7    1.06    0.50
   8  -6   7    1.41    0.34
   6   2   7    2.29    0.39
   2  -8   8    8.55    0.58
   8  -6   8    8.46    0.61
   6   2   8    8.61    0.61
   8  -6   8    7.77    0.70
   8  -5  -8    5.32    0.52
   3  -8  -8    4.39    0.66
   5   3  -8    4.98    0.68
   8  -5  -7    0.14    0.28
   3  -8  -7    0.29    0.41
   5   3  -7    0.05    0.29
   5   3  -7   -0.22    0.39
   8  -5  -6   26.70    1.06
  -8   5  -6   23.96    0.92
   8  -5  -6   23.90    0.73
   3  -8  -6   21.10    0.71
   5   3  -6   28.53    1.28
   5   3  -6   24.04    0.95
   3  -8  -6   20.60    0.89
   8  -5  -5    0.13    0.16
   8  -5  -5    0.25    0.26
  -3   8  -5   -0.10    0.28
  -8   5  -5   -0.15    0.24
   5   3  -5    0.18    0.18
   5   3  -5   -0.19    0.35
   8  -5  -4   10.74    0.64
  -8   5  -4   10.09    0.57
   5   3  -4    9.97    0.44
   3  -8  -4    9.36    0.66
   8  -5  -4   10.67    0.61
   8  -5  -4    8.88    0.48
  -5  -3  -3    0.69    0.28
   8  -5  -3    0.27    0.18
   8  -5  -3    0.29    0.23
  -8   5  -3    0.34    0.23
   5   3  -3    0.23    0.26
   3  -8  -3    0.26    0.26
  -5  -3  -3    0.03    0.30
   8  -5  -3    0.32    0.23
   5   3  -3    0.34    0.11
   8  -5  -2   69.98    2.06
  -8   5  -2   65.03    1.99
   3  -8  -2   70.77    1.99
   8  -5  -2   69.65    1.89
   5   3  -2   65.62    2.10
   8  -5  -2   64.99    1.92
   5   3  -2   64.73    1.61
  -5  -3  -1    0.55    0.24
   8  -5  -1    0.75    0.24
   5   3  -1    0.56    0.10
   3  -8  -1    0.36    0.13
   8  -5  -1    0.39    0.23
  -8   5  -1    0.35    0.23
  -3   8  -1    0.86    0.13
   3  -8  -1    0.48    0.23
   5   3  -1    1.24    0.33
   8  -5  -1    0.39    0.17
   3  -8   0   15.37    0.58
   5   3   0   13.73    0.52
  -8   5   0   15.49    0.75
   3  -8   0   15.20    0.62
  -5  -3   0   14.54    0.66
   8  -5   0   14.77    0.54
   5   3   0   16.08    0.87
  -3   8   0   14.49    0.70
  -5  -3   0   15.81    0.73
   8  -5   0   14.77    0.71
  -3   8   1    1.38    0.29
  -5  -3   1    0.37    0.22
   8  -5   1    0.62    0.23
   3  -8   1    0.67    0.18
   3  -8   1    0.57    0.14
  -5  -3   1    0.42    0.23
   5   3   1    0.50    0.30
   5   3   1    0.45    0.17
   8  -5   1    0.57    0.12
   5   3   2   64.91    1.95
  -8   5   2   70.06    1.88
  -5  -3   2   67.36    2.03
  -8   5   2   64.67    1.97
   5   3   2   69.26    2.29
   3  -8   2   67.31    1.67
  -3   8   2   70.63    2.06
  -5  -3   2   71.61    1.96
   3  -8   2   65.58    1.93
   8  -5   2   65.37    2.06
  -5  -3   3    0.05    0.19
   8  -5   3    0.14    0.22
   3  -8   3    0.16    0.20
  -8   5   3    0.26    0.18
  -5  -3   3    0.47    0.27
  -5  -3   3    0.71    0.30
  -8   5   3    0.97    0.27
   5   3   3    0.41    0.32
   8  -5   3    0.16    0.27
   3  -8   3    0.31    0.22
  -3   8   3    0.45    0.28
  -5  -3   4   10.35    0.74
  -8   5   4    9.43    0.60
  -5  -3   4   10.49    0.53
   3  -8   4   11.39    0.52
   5   3   4   10.83    0.82
  -3   8   4   10.70    0.66
   8  -5   4    9.89    0.67
   3  -8   4    9.10    0.55
  -5  -3   4   10.10    0.49
  -8   5   4   10.61    0.56
   5   3   5   -0.10    0.28
  -5  -3   5    0.46    0.18
   8  -5   5    0.06    0.29
  -8   5   5    0.09    0.23
  -5  -3   5    0.19    0.32
  -5  -3   5   -0.03    0.19
   3  -8   5    0.27    0.15
   3  -8   5    0.16    0.24
   5   3   5    0.28    0.39
   8  -5   5   -0.12    0.28
  -3   8   5   -0.15    0.30
   3  -8   6   25.23    1.04
   3  -8   6   23.61    1.00
  -5  -3   6   25.06    0.82
  -3   8   6   22.03    1.09
   8  -5   6   23.74    1.05
   5   3   6   26.28    1.05
   8  -5   6   22.76    1.11
  -5  -3   6   24.23    0.68
   8  -5   7    0.11    0.35
   3  -8   7    0.18    0.29
   8  -5   7    0.03    0.31
   5   3   7    0.35    0.29
   3  -8   8    4.18    0.45
   8  -5   8    4.80    0.58
   8  -5   8    4.70    0.51
   5   3   8    5.04    0.53
   8  -5   9    0.26    0.41
   8  -5   9   -0.06    0.35
   5   3   9   -0.15    0.41
  -4  -4  -8   13.76    1.08
   4   4  -8   14.10    0.98
   4  -8  -8   13.95    1.02
  -4  -4  -7    0.58    0.48
   8  -4  -7    0.75    0.32
   4   4  -7    0.67    0.42
   4   4  -6    6.45    0.46
   8  -4  -6    7.03    0.54
  -8   4  -6    5.96    0.47
  -4  -4  -6    7.52    0.70
   4   4  -6    7.35    0.65
   4  -8  -6    5.66    0.44
   8  -4  -5    1.30    0.19
   4  -8  -5    1.22    0.24
  -4   8  -5    1.54    0.32
   8  -4  -5    1.23    0.31
  -8   4  -5    1.32    0.30
  -4  -4  -5    1.58    0.40
   4   4  -5    1.53    0.23
   4   4  -5    2.15    0.42
   4   4  -5    1.22    0.29
  -4   8  -4   59.58    1.72
   8  -4  -4   57.48    1.80
  -8   4  -4   54.13    1.74
   8  -4  -4   55.97    1.57
   4  -8  -4   56.85    1.86
   8  -4  -4   56.93    1.78
  -4  -4  -4   59.04    1.85
   4   4  -4   58.49    1.91
   4   4  -4   54.46    1.74
   4  -8  -4   50.23    1.53
  -4  -4  -3    2.90    0.37
  -8   4  -3    2.91    0.38
   8  -4  -3    3.29    0.37
  -8   4  -3    3.44    0.37
   4   4  -3    3.79    0.39
  -4  -4  -3    3.88    0.45
   4  -8  -3    3.49    0.40
   8  -4  -3    2.87    0.34
   4  -8  -3    2.73    0.20
   8  -4  -3    3.11    0.29
   8  -4  -2    8.60    0.56
  -8   4  -2    8.52    0.54
   8  -4  -2    9.05    0.51
   4  -8  -2    8.97    0.54
   4   4  -2    8.34    0.57
  -4  -4  -2   10.03    0.63
   4  -8  -2    8.43    0.28
   4  -8  -2    7.98    0.28
  -8   4  -1    4.08    0.39
   8  -4  -1    3.22    0.30
   4  -8  -1    3.16    0.32
  -4  -4  -1    3.29    0.31
   4   4  -1    4.20    0.44
  -4  -4  -1    3.89    0.38
  -4   8  -1    3.43    0.32
   8  -4  -1    3.12    0.33
  -8   4   0   94.16    2.62
   8  -4   0   94.26    2.39
  -4  -4   0   88.40    2.48
   4  -8   0   94.70    2.45
   4   4   0   96.68    2.77
  -4   8   0   91.86    2.52
  -4  -4   0   90.62    2.57
   8  -4   0   90.01    2.57
  -4  -4   1    2.95    0.32
  -4  -4   1    3.74    0.36
   8  -4   1    3.98    0.24
   4  -8   1    3.43    0.25
   4   4   1    3.71    0.45
  -8   4   1    3.53    0.35
  -4   8   1    3.48    0.35
   8  -4   1    3.33    0.36
  -8   4   2    8.55    0.49
  -4  -4   2    9.85    0.64
  -4  -4   2    8.40    0.54
   8  -4   2    8.52    0.31
   4  -8   2    8.10    0.34
  -8   4   2    8.88    0.53
   4   4   2    8.97    0.68
  -4   8   2    8.18    0.52
   8  -4   2    9.55    0.66
  -4  -4   2    9.23    0.51
   8  -4   2    8.11    0.55
  -8   4   3    3.02    0.33
   8  -4   3    3.65    0.49
  -4  -4   3    2.66    0.40
   4  -8   3    3.86    0.36
   4   4   3    4.19    0.54
  -4   8   3    3.74    0.40
   8  -4   3    4.22    0.48
  -8   4   3    3.00    0.36
  -4  -4   3    3.46    0.32
   8  -4   3    3.28    0.39
  -4  -4   4   57.04    1.96
   4  -8   4   53.05    1.75
  -8   4   4   52.62    1.78
   4  -8   4   61.10    1.65
   4   4   4   58.87    2.11
  -4   8   4   53.61    1.81
   8  -4   4   60.42    1.97
   4   4   4   56.46    1.80
  -4  -4   4   56.78    1.62
  -8   4   4   55.45    1.75
   4   4   5    1.28    0.33
  -4  -4   5    1.42    0.22
   8  -4   5    1.20    0.34
   4  -8   5    1.52    0.36
  -8   4   5    1.06    0.28
  -4  -4   5    1.19    0.42
  -4  -4   5    1.48    0.22
   4  -8   5    1.43    0.21
   4   4   5    1.94    0.48
   4  -8   5    1.02    0.31
   8  -4   5    1.19    0.36
  -4   8   5    0.85    0.33
   4  -8   6    6.53    0.55
  -4  -4   6    6.52    0.33
   4  -8   6    6.73    0.54
   4   4   6    7.18    0.75
  -4   8   6    5.91    0.55
   8  -4   6    5.54    0.55
  -4  -4   6    6.38    0.33
   4   4   6    6.36    0.55
  -8   4   6    5.90    0.54
   8  -4   6    6.71    0.60
  -4  -4   6    6.95    0.67
   8  -4   7    0.39    0.37
  -4  -4   7    0.50    0.43
   8  -4   7    0.40    0.35
   4  -8   7    0.39    0.31
  -4   8   7    0.04    0.34
   4   4   7    0.38    0.32
   4   4   8   13.82    1.03
   8  -4   8   11.87    0.79
   4   4   8   12.08    0.76
  -4  -4   8   13.99    0.98
   8  -4   8   11.35    0.81
   4  -8   8   12.58    0.72
   4   4   9   -0.10    0.39
   8  -4   9    0.20    0.37
  -3  -5  -8   16.12    1.13
   3   5  -8   16.51    1.04
  -3  -5  -7    0.33    0.45
   3   5  -7   -0.04    0.37
  -5   8  -6    2.87    0.42
   3   5  -6    2.76    0.27
  -3  -5  -6    2.77    0.51
   3   5  -6    3.66    0.51
   8  -3  -5    0.75    0.16
   5  -8  -5    0.43    0.20
  -5   8  -5    0.35    0.25
  -8   3  -5    0.20    0.26
  -3  -5  -5    0.14    0.35
   3   5  -5    0.34    0.19
   3   5  -5    0.43    0.34
  -3  -5  -4   76.40    2.24
   5  -8  -4   66.48    1.87
  -5   8  -4   79.66    2.11
  -8   3  -4   69.10    2.15
   8  -3  -4   77.14    2.23
   5  -8  -4   75.22    2.29
   3   5  -4   76.90    2.28
   3   5  -4   68.32    2.02
   8  -3  -4   74.54    1.95
  -3  -5  -3    1.08    0.29
  -5   8  -3    0.97    0.18
   8  -3  -3    1.42    0.23
  -8   3  -3    1.43    0.31
  -5   8  -3    0.85    0.21
  -8   3  -3    1.10    0.29
  -3  -5  -3    1.15    0.27
   5  -8  -3    1.69    0.34
   3   5  -3    0.92    0.22
   8  -3  -3    1.08    0.29
  -3  -5  -3    0.80    0.32
   3   5  -3    1.01    0.29
  -8   3  -2    2.18    0.35
  -8   3  -2    2.84    0.37
   5  -8  -2    2.59    0.36
  -5   8  -2    2.08    0.23
   8  -3  -2    2.09    0.30
  -3  -5  -2    2.05    0.35
   8  -3  -2    2.53    0.28
  -5   8  -1    1.29    0.22
   8  -3  -1    0.90    0.23
  -8   3  -1    1.45    0.30
  -3  -5  -1    1.15    0.28
   5  -8  -1    1.02    0.26
   3   5  -1    1.13    0.27
  -3  -5  -1    1.29    0.21
  -3  -5  -1    1.06    0.28
  -8   3   0  129.58    3.33
  -8   3   0  123.02    3.34
  -3  -5   0  123.53    3.19
  -3  -5   0  118.40    3.28
   5  -8   0  125.75    3.19
   3   5   0  125.48    3.43
  -5   8   0  121.26    3.18
   8  -3   0  119.68    3.29
  -3  -5   1    1.13    0.26
   8  -3   1    1.02    0.26
  -5   8   1    1.19    0.11
  -3  -5   1    1.08    0.23
   5  -8   1    1.44    0.21
   3   5   1    1.45    0.34
  -8   3   1    1.12    0.26
  -5   8   1    1.39    0.25
  -3  -5   2    2.09    0.30
   8  -3   2    1.85    0.31
   5  -8   2    2.90    0.34
  -3  -5   2    2.19    0.35
  -8   3   2    2.76    0.34
   5  -8   2    2.33    0.21
   3   5   2    1.84    0.40
  -8   3   2    2.36    0.33
   8  -3   2    2.22    0.40
  -3  -5   3    1.29    0.25
   8  -3   3    1.05    0.29
  -8   3   3    1.18    0.28
  -3  -5   3    1.45    0.35
   5  -8   3    1.61    0.28
  -8   3   3    1.29    0.29
   5  -8   3    1.26    0.14
   8  -3   3    0.76    0.35
   3   5   3    0.92    0.37
  -8   3   3    0.98    0.28
   8  -3   3    1.64    0.38
   5  -8   3    1.09    0.15
  -5   8   3    1.26    0.28
  -8   3   4   70.94    2.19
  -3  -5   4   72.92    2.36
   5  -8   4   69.06    2.21
   5  -8   4   77.26    2.05
   3   5   4   74.38    2.51
  -5   8   4   70.32    2.20
   8  -3   4   72.89    1.77
   8  -3   4   73.94    2.39
   3   5   4   75.19    2.23
  -3  -5   4   73.53    2.03
   3   5   5    0.20    0.31
  -3  -5   5    0.35    0.19
   8  -3   5    0.30    0.31
   5  -8   5    0.48    0.30
  -8   3   5    0.38    0.30
  -3  -5   5    0.46    0.35
   5  -8   5    0.03    0.31
  -3  -5   5    0.72    0.18
   5  -8   5    0.24    0.19
   3   5   5    0.80    0.40
   8  -3   5    0.43    0.36
  -5   8   5    0.12    0.28
   8  -3   6    3.78    0.52
   5  -8   6    2.86    0.41
  -8   3   6    2.80    0.42
  -3  -5   6    3.05    0.50
  -3  -5   6    2.98    0.21
  -3  -5   6    3.15    0.27
   3   5   6    2.92    0.56
   8  -3   6    3.46    0.50
  -5   8   6    3.25    0.44
   3   5   6    3.07    0.44
   8  -3   7    0.22    0.35
   5  -8   7    0.03    0.32
  -8   3   7    0.07    0.35
  -3  -5   7    0.08    0.14
  -3  -5   7    0.14    0.38
   3   5   7    0.32    0.45
   8  -3   7    0.33    0.35
  -5   8   7   -0.36    0.34
   3   5   7    0.37    0.36
   8  -3   8   16.79    0.97
   8  -3   8   16.82    0.96
   3   5   8   16.44    0.91
   5  -8   8   14.33    0.81
   5  -8   9   -0.17    0.35
   8  -3   9   -0.11    0.42
   6  -8  -9   -0.32    0.42
   6  -8  -8    5.80    0.63
  -2  -6  -8    5.15    0.72
   2   6  -8    4.85    0.64
  -2  -6  -7    0.51    0.45
   2   6  -7    0.77    0.41
  -6   8  -6   19.89    0.89
   2   6  -6   16.79    0.95
  -2  -6  -6   19.87    1.06
  -6   8  -5    2.38    0.34
   6  -8  -5    1.96    0.24
   2   6  -5    1.41    0.11
   2   6  -5    1.76    0.12
   2   6  -5    1.99    0.40
  -2  -6  -5    1.38    0.36
  -6   8  -4   15.51    0.66
  -8   2  -4   14.43    0.75
   2   6  -4   14.79    0.77
   2   6  -4   13.07    0.50
  -6   8  -4   12.92    0.41
  -2  -6  -4   14.91    0.78
   8  -2  -4   14.54    0.57
  -6   8  -3    4.75    0.33
  -2  -6  -3    4.48    0.43
  -8   2  -3    5.08    0.46
   6  -8  -3    3.78    0.44
   2   6  -3    4.62    0.32
   2   6  -3    4.90    0.43
  -6   8  -3    3.99    0.23
  -2  -6  -3    4.78    0.47
  -2  -6  -3    4.57    0.40
   8  -2  -3    4.20    0.33
  -8   2  -2   48.79    1.61
  -6   8  -2   49.85    1.29
  -8   2  -2   45.42    1.57
   6  -8  -2   51.62    1.62
  -2  -6  -2   44.86    1.33
   2   6  -2   45.01    1.43
  -6   8  -2   45.55    1.30
  -2  -6  -2   48.25    1.59
  -2  -6  -2   50.54    1.41
  -2  -6  -2   46.04    1.57
   8  -2  -2   48.16    1.47
  -8   2  -1    6.84    0.50
  -8   2  -1    7.40    0.53
  -2  -6  -1    6.93    0.38
  -2  -6  -1    6.87    0.30
   2   6  -1    6.95    0.48
  -6   8  -1    6.23    0.35
  -2  -6  -1    6.39    0.47
   8  -2  -1    6.73    0.45
  -8   2   0   20.03    0.87
  -2  -6   0   21.53    0.78
   6  -8   0   22.43    0.96
   2   6   0   20.47    0.92
  -6   8   0   18.64    0.75
  -2  -6   0   21.13    0.83
   8  -2   0   21.95    0.88
  -8   2   1    6.56    0.46
  -8   2   1    6.41    0.49
   6  -8   1    7.43    0.51
   2   6   1    6.40    0.53
  -6   8   1    7.01    0.32
  -6   8   1    6.06    0.41
   8  -2   1    6.21    0.47
  -8   2   2   48.96    1.48
  -2  -6   2   47.66    1.65
  -6   8   2   46.79    1.27
  -8   2   2   47.19    1.56
   6  -8   2   49.93    1.56
   2   6   2   51.13    1.76
  -6   8   2   45.27    1.49
   8  -2   2   44.89    1.67
  -8   2   2   47.22    1.56
   8  -2   2   46.92    1.60
  -2  -6   3    5.17    0.51
  -8   2   3    4.81    0.45
   8  -2   3    5.64    0.49
   6  -8   3    3.35    0.44
   6  -8   3    5.10    0.41
   8  -2   3    3.75    0.50
  -8   2   3    4.73    0.43
  -8   2   3    3.84    0.43
  -6   8   3    4.57    0.42
   8  -2   3    4.09    0.50
   6  -8   3    4.80    0.33
   2   6   3    4.48    0.52
  -2  -6   4   14.44    0.84
  -8   2   4   14.77    0.79
   6  -8   4   14.08    0.80
   6  -8   4   15.30    0.68
  -8   2   4   13.91    0.71
   6  -8   4   13.46    0.80
   2   6   4   15.01    0.95
  -6   8   4   14.07    0.76
   8  -2   4   13.88    0.89
   6  -8   4   13.63    0.53
   8  -2   4   15.38    0.54
   2   6   4   14.12    0.78
   2   6   5    2.14    0.40
   6  -8   5    1.91    0.39
  -2  -6   5    1.44    0.39
  -8   2   5    1.88    0.39
   6  -8   5    1.85    0.17
   8  -2   5    2.00    0.20
   2   6   5    2.26    0.51
   8  -2   5    1.59    0.44
  -6   8   5    2.25    0.41
  -2  -6   6   17.29    0.52
  -6   8   6   17.64    0.93
   6  -8   6   15.50    0.49
   2   6   6   19.38    1.16
   8  -2   6   18.58    0.60
   8  -2   6   16.96    0.99
   2   6   6   18.96    0.93
   8  -2   6   17.99    0.97
  -2  -6   6   17.91    1.03
  -8   2   6   17.20    0.95
   6  -8   6   18.01    0.92
   8  -2   7    0.61    0.41
   6  -8   7    1.07    0.38
  -2  -6   7    0.73    0.42
  -8   2   7    0.30    0.38
   2   6   7    0.44    0.46
   8  -2   7    0.29    0.39
   8  -2   7    0.72    0.19
  -6   8   7    0.30    0.35
   2   6   7    0.63    0.38
   8  -2   8    5.38    0.64
   6  -8   8    4.86    0.55
   2   6   8    5.91    0.61
  -8   2   8    5.44    0.61
   8  -2   8    4.81    0.64
   6  -8   9    0.12    0.36
   7  -8  -8    3.17    0.53
   8  -1  -8    2.57    0.55
   1   7  -8    2.71    0.58
  -1  -7  -8    3.25    0.68
   7  -8  -7    4.88    0.56
  -1  -7  -7    4.55    0.64
   1   7  -7    3.83    0.56
   7  -8  -6   22.83    1.10
   1   7  -6   22.00    1.07
  -1  -7  -6   21.76    1.14
   7  -8  -5   11.86    0.77
   1   7  -5   12.53    0.74
  -1  -7  -5   11.58    0.77
  -7   8  -5   13.23    0.67
   7  -8  -4    7.06    0.60
  -1  -7  -4    6.93    0.55
   1   7  -4    7.19    0.53
  -7   8  -4    7.28    0.45
  -7   8  -3   25.16    0.82
   7  -8  -3   23.57    1.08
  -1  -7  -3   24.56    0.96
   1   7  -3   23.62    0.70
  -1  -7  -3   21.75    0.70
   1   7  -3   24.58    0.95
  -1  -7  -3   25.03    1.05
   7  -8  -3   21.66    0.88
   8  -1  -3   24.06    0.87
  -8   1  -2   53.81    1.73
  -7   8  -2   54.81    1.41
  -8   1  -2   50.53    1.72
  -1  -7  -2   50.95    1.39
   7  -8  -2   55.22    1.80
  -7   8  -2   52.00    1.37
  -1  -7  -2   55.31    1.56
   1   7  -2   49.80    1.48
  -1  -7  -2   54.18    1.72
   8  -1  -2   51.40    1.58
  -8   1  -1   33.61    1.22
  -8   1  -1   35.97    1.28
  -7   8  -1   31.00    0.98
   1   7  -1   30.27    1.10
  -1  -7  -1   34.68    0.97
  -1  -7  -1   31.72    1.15
   8  -1  -1   31.69    1.14
  -8   1   0   10.29    0.60
   7  -8   0    9.97    0.62
  -7   8   0    8.74    0.45
   1   7   0    8.91    0.56
  -1  -7   0    9.61    0.51
   8  -1   0    8.00    0.66
   8  -1   0    9.20    0.57
  -8   1   1   35.06    1.20
  -1  -7   1   33.70    1.24
  -8   1   1   32.57    1.23
   7  -8   1   34.08    1.24
  -7   8   1   31.37    1.09
   1   7   1   31.74    1.25
  -8   1   1   29.83    1.15
  -7   8   1   32.51    1.01
   8  -1   1   32.34    1.41
   8  -1   1   33.14    1.23
  -8   1   2   56.51    1.63
   7  -8   2   48.85    1.75
  -1  -7   2   54.63    1.78
   8  -1   2   49.86    1.78
   7  -8   2   55.90    1.72
  -8   1   2   52.80    1.70
  -7   8   2   51.10    1.46
  -7   8   2   50.71    1.61
  -8   1   2   49.56    1.66
   1   7   2   52.08    1.82
   8  -1   2   51.79    1.73
  -1  -7   3   24.93    1.08
  -8   1   3   24.70    0.88
  -8   1   3   21.83    1.02
   7  -8   3   24.72    0.98
  -8   1   3   23.60    0.96
  -7   8   3   21.64    0.94
   1   7   3   21.96    1.13
   7  -8   3   24.11    0.92
   8  -1   3   21.99    1.03
   8  -1   3   21.48    1.08
   7  -8   4    7.63    0.62
  -8   1   4    6.98    0.59
   7  -8   4    7.74    0.50
  -8   1   4    6.64    0.48
  -7   8   4    6.51    0.54
   1   7   4    5.76    0.64
   8  -1   4    7.28    0.68
   7  -8   4    7.51    0.44
   8  -1   4    8.05    0.44
   8  -1   4    7.08    0.60
  -1  -7   4    6.72    0.59
  -8   1   5   10.67    0.74
   7  -8   5   11.21    0.75
  -7   8   5   10.04    0.68
   1   7   5   10.49    0.85
   7  -8   5   11.40    0.51
   8  -1   5   10.66    0.81
   8  -1   5   12.29    0.54
   1   7   5   12.41    0.76
  -1  -7   5   11.68    0.80
   7  -8   6   19.55    0.99
  -1  -7   6   18.73    0.55
  -7   8   6   20.42    1.03
   1   7   6   21.71    1.23
   7  -8   6   18.77    0.68
   8  -1   6   20.33    1.12
   8  -1   6   21.92    0.76
   1   7   6   19.08    0.99
   8  -1   6   22.65    1.11
  -1  -7   6   21.66    1.13
  -8   1   6   19.40    1.05
   8  -1   7    4.06    0.58
   7  -8   7    4.14    0.52
  -1  -7   7    3.69    0.59
  -8   1   7    4.14    0.56
   8  -1   7    4.08    0.35
   1   7   7    4.27    0.66
   8  -1   7    4.03    0.60
   1   7   7    3.92    0.52
   8  -1   8    3.03    0.56
   7  -8   8    3.26    0.51
  -8   1   8    3.58    0.60
   8  -1   8    2.45    0.56
   7  -8   9    1.21    0.45
   8  -8  -8    2.87    0.52
   0  -8  -8    2.79    0.64
   8  -8  -7    0.22    0.39
   0  -8  -7    0.23    0.46
   8   0  -7   -0.36    0.37
   0   8  -7    0.07    0.42
   8  -8  -6   14.58    0.71
   8  -8  -6   16.11    0.91
   0   8  -6   15.71    0.88
   0  -8  -6   16.43    0.98
   0  -8  -5    0.10    0.35
  -8   8  -5   -0.12    0.26
   8  -8  -5    0.10    0.32
   0   8  -5    0.23    0.30
   0  -8  -4    5.32    0.49
   8  -8  -4    5.67    0.54
   0   8  -4    5.15    0.46
  -8   8  -4    5.87    0.42
   8  -8  -3    0.78    0.25
  -8   8  -3    0.13    0.18
   8  -8  -3    0.19    0.26
   0  -8  -3    0.40    0.27
   0  -8  -3    0.08    0.29
   0   8  -3    0.41    0.25
   0  -8  -2   43.83    1.34
   8  -8  -2   41.58    1.53
   0  -8  -2   41.76    1.44
  -8   8  -2   42.46    1.18
   8  -8  -2   39.90    1.29
   8   0  -1   -0.07    0.25
  -8   0  -1    0.05    0.27
   8  -8  -1    0.17    0.26
  -8   8  -1    0.07    0.07
   0   8  -1    0.02    0.18
   0  -8  -1    0.08    0.16
   0  -8  -1    0.02    0.22
   8   0  -1    0.44    0.33
   8  -8   0    5.66    0.51
  -8   0   0    6.72    0.53
   8  -8   0    7.00    0.55
   0   8   0    6.51    0.47
   0  -8   0    7.00    0.43
   8   0   0    5.86    0.59
   8   0   0    6.71    0.49
   0  -8   0    6.78    0.30
  -8   0   0    7.00    0.51
   8   0   1   -0.16    0.24
  -8   0   1    0.30    0.24
   8  -8   1    0.03    0.24
   0  -8   1    0.03    0.24
  -8   0   1   -0.06    0.28
   8  -8   1   -0.20    0.26
   0   8   1    0.03    0.25
   8   0   1    0.13    0.32
  -8   8   1    0.05    0.18
  -8   0   2   43.59    1.39
   8  -8   2   39.37    1.52
   0  -8   2   44.39    1.52
   8  -8   2   42.29    1.49
  -8   0   2   44.86    1.49
  -8   8   2   38.50    1.36
  -8   8   2   41.16    1.28
   0   8   2   41.35    1.56
   8   0   2   42.33    1.72
   8   0   2   40.93    1.50
   8   0   2   38.23    1.49
   8   0   3    0.13    0.29
   0   8   3    0.69    0.34
  -8   0   3    0.02    0.21
   0  -8   3   -0.34    0.31
  -8   0   3   -0.13    0.32
   8  -8   3    0.08    0.26
  -8   0   3    0.28    0.28
  -8   8   3    0.36    0.20
   0   8   3    0.04    0.33
   8   0   3   -0.10    0.34
   8   0   3   -0.04    0.36
   8  -8   3    0.03    0.26
   8  -8   4    5.38    0.55
  -8   0   4    5.82    0.38
  -8   0   4    5.75    0.57
  -8   0   4    5.46    0.46
   0   8   4    5.17    0.60
   8  -8   4    5.33    0.44
   0  -8   4    6.33    0.58
   0   8   4    5.01    0.52
   8   0   4    5.90    0.58
   8   0   5    0.37    0.24
   8  -8   5   -0.32    0.34
   0  -8   5   -0.04    0.37
  -8   0   5   -0.08    0.35
  -8   0   5    0.15    0.25
   0   8   5    0.10    0.38
   8   0   5   -0.05    0.37
   8  -8   5   -0.18    0.23
   0   8   6   17.54    1.13
   8   0   6   16.29    1.06
   8  -8   6   14.90    0.67
   0   8   6   13.72    0.86
   8   0   6   17.41    0.73
   8  -8   6   14.87    0.89
   8   0   6   16.87    1.02
   0  -8   6   13.70    0.93
  -8   0   6   16.27    0.98
   8   0   7    0.04    0.43
   8  -8   7   -0.14    0.39
  -8   0   7    0.13    0.48
   0  -8   7    0.13    0.44
   8   0   7    0.20    0.45
   8   0   7    0.12    0.28
   0   8   7   -0.11    0.40
   8  -8   8    2.36    0.49
   1  -9  -7    1.91    0.52
   9  -8  -7    2.16    0.50
  -1   9  -7    2.45    0.50
   9  -8  -6   16.93    0.97
  -1   9  -6   17.37    0.93
   9  -8  -5    7.27    0.51
   1  -9  -5    8.08    0.66
   9  -8  -5    8.18    0.67
  -1   9  -5    7.11    0.56
  -9   8  -5    8.15    0.56
   9  -8  -4    0.77    0.28
  -9   8  -4    1.03    0.28
   9  -8  -4    1.30    0.38
   1  -9  -4    0.59    0.33
  -1   9  -4    0.94    0.29
   9  -8  -3   12.52    0.72
   9  -8  -3   14.58    0.85
  -1   9  -3   13.30    0.63
   9  -8  -3   13.06    0.66
  -9   8  -3   14.31    0.61
   1  -9  -3   15.37    0.76
   9  -8  -2   41.87    1.56
   9  -8  -2   50.88    1.73
   1  -9  -2   46.82    1.56
   8   1  -2   43.85    1.78
   9  -8  -2   46.93    1.42
  -9   8  -2   48.29    1.33
   9  -8  -1   17.67    0.89
   1  -9  -1   18.74    0.81
   8   1  -1   18.53    1.06
   9  -8  -1   19.24    0.72
  -9   8  -1   20.31    0.60
  -8  -1   0    1.11    0.32
   9  -8   0    0.72    0.29
   1  -9   0    0.64    0.26
   9  -8   0    0.55    0.30
   8   1   0    0.56    0.25
   1  -9   0    0.40    0.22
   8   1   0    0.49    0.36
   9  -8   1   17.85    0.93
   1  -9   1   19.69    0.87
   9  -8   1   20.80    0.97
  -9   8   1   16.88    0.75
   8   1   1   18.14    1.06
   1  -9   1   19.02    0.68
   8   1   1   18.02    0.86
  -8  -1   1   18.29    0.83
   1  -9   2   47.19    1.59
   9  -8   2   40.92    1.63
   9  -8   2   52.27    1.69
  -9   8   2   44.73    1.45
   8   1   2   44.55    1.85
   1  -9   2   46.03    1.22
   8   1   2   43.35    1.61
  -1   9   2   46.66    1.69
  -8  -1   2   50.78    1.54
   9  -8   3   11.04    0.78
   1  -9   3   13.28    0.46
  -8  -1   3   13.74    0.84
  -9   8   3   12.27    0.64
   1  -9   3   13.37    0.78
   8   1   3   12.49    0.79
   8   1   3   13.05    0.94
   9  -8   3   14.41    0.81
  -1   9   3   13.10    0.82
   8   1   3   13.17    0.82
  -8  -1   3   15.78    0.69
  -1   9   4    0.60    0.35
   1  -9   4    1.18    0.37
  -8  -1   4    0.63    0.37
  -8  -1   4    1.00    0.24
   8   1   4    0.59    0.40
   9  -8   4    0.98    0.35
  -8  -1   5    7.00    0.68
   9  -8   5    8.01    0.57
  -1   9   5    7.23    0.64
   8   1   5    7.48    0.55
   1  -9   5    7.24    0.64
   9  -8   5    5.69    0.60
   8   1   6   17.37    1.15
   9  -8   6   17.97    0.81
   8   1   6   19.47    0.85
   1  -9   6   15.28    0.99
   9  -8   6   15.94    0.96
  -8  -1   6   15.98    1.03
   9  -8   7    1.98    0.50
   1  -9   7    2.62    0.44
   8   1   7    2.88    0.42
   9  -7  -8    1.46    0.47
   9  -7  -7    0.21    0.40
  -2   9  -7    0.52    0.41
   2  -9  -7    0.29    0.45
   2  -9  -6   19.25    1.10
  -2   9  -6   17.83    0.92
   9  -7  -6   17.36    0.95
   9  -7  -5    0.63    0.25
   9  -7  -5    1.24    0.36
   2  -9  -5    0.69    0.37
  -2   9  -5    0.63    0.31
   7   2  -5    0.67    0.25
   9  -7  -4    2.23    0.33
  -2   9  -4    3.08    0.36
   9  -7  -4    3.01    0.45
   9  -7  -3    0.96    0.28
   9  -7  -3    1.28    0.34
  -2   9  -3    1.55    0.27
   2  -9  -3    1.77    0.37
   7   2  -3    1.32    0.40
   9  -7  -3    1.81    0.30
   9  -7  -2   48.18    1.60
   9  -7  -2   49.20    1.70
  -2   9  -2   47.85    1.37
   2  -9  -2   48.81    1.57
   7   2  -2   47.89    1.81
   9  -7  -2   47.23    1.44
   9  -7  -1    1.88    0.24
  -7  -2  -1    1.64    0.34
   9  -7  -1    1.17    0.31
   2  -9  -1    2.14    0.27
   7   2  -1    1.64    0.25
   2  -9  -1    1.74    0.29
   7   2  -1    1.85    0.42
   7   2   0    1.93    0.28
  -7  -2   0    2.16    0.35
   9  -7   0    2.56    0.37
   2  -9   0    2.18    0.29
   2  -9   0    2.84    0.29
   9  -7   0    2.60    0.24
   7   2   0    1.90    0.42
  -7  -2   0    2.77    0.33
  -9   7   1    1.83    0.18
  -2   9   1    1.89    0.36
  -7  -2   1    1.69    0.32
   9  -7   1    2.08    0.36
   2  -9   1    1.86    0.29
   9  -7   1    1.70    0.35
   7   2   1    1.71    0.29
   2  -9   1    1.95    0.22
  -7  -2   1    1.96    0.33
   7   2   1    1.94    0.43
  -9   7   1    1.41    0.27
   9  -7   2   45.29    1.66
  -7  -2   2   50.13    1.63
   7   2   2   45.39    1.58
   2  -9   2   45.68    1.38
  -9   7   2   46.24    1.51
   7   2   2   49.99    1.92
  -2   9   2   47.90    1.70
  -9   7   2   49.62    1.30
  -7  -2   2   51.99    1.56
   2  -9   2   49.55    1.60
   2  -9   3    0.71    0.21
  -2   9   3    0.68    0.33
  -7  -2   3    1.28    0.28
   9  -7   3    0.83    0.33
   2  -9   3    1.20    0.32
  -7  -2   3    1.04    0.30
  -9   7   3    1.11    0.30
   7   2   3    1.67    0.47
   9  -7   3    1.70    0.39
   7   2   3    0.82    0.32
   2  -9   4    1.87    0.37
  -7  -2   4    2.61    0.46
  -7  -2   4    2.44    0.34
   2  -9   4    2.63    0.28
  -9   7   4    2.25    0.36
   7   2   4    2.25    0.50
   7   2   4    2.59    0.44
   9  -7   4    3.50    0.47
  -7  -2   4    3.41    0.31
  -2   9   4    1.76    0.41
   7   2   5    0.66    0.32
   9  -7   5    0.57    0.34
  -7  -2   5    0.72    0.20
   2  -9   5    0.93    0.37
  -7  -2   5    0.21    0.38
  -7  -2   5    0.41    0.24
   7   2   5   -0.05    0.39
   9  -7   5    0.53    0.32
   2  -9   5    0.36    0.22
  -2   9   5    0.57    0.35
   9  -7   6   17.90    0.87
  -2   9   6   18.01    0.99
   7   2   6   18.74    0.88
   9  -7   6   16.24    0.96
  -7  -2   6   16.26    1.03
   9  -7   7    0.31    0.41
   2  -9   7   -0.05    0.34
  -7  -2   7    0.53    0.47
   9  -7   7    0.05    0.29
   7   2   7    0.16    0.34
   7   2   8    1.65    0.43
   9  -6  -8    1.48    0.40
  -3   9  -8    1.35    0.49
   9  -6  -7    6.29    0.59
   6   3  -7    6.67    0.74
   3  -9  -7    4.82    0.67
   9  -6  -6   19.89    0.98
   9  -6  -5   15.73    0.86
   6   3  -5   15.09    0.62
   9  -6  -5   14.89    0.65
   6   3  -4    3.99    0.26
   9  -6  -4    2.59    0.42
   6   3  -4    2.67    0.44
   9  -6  -4    3.62    0.34
   6   3  -3   25.61    0.77
  -3   9  -3   29.53    0.99
   9  -6  -3   28.32    1.17
  -9   6  -3   28.55    1.12
   3  -9  -3   29.88    1.15
   9  -6  -3   30.89    1.06
   6   3  -3   28.75    1.24
   9  -6  -3   28.48    1.04
   9  -6  -2   60.04    1.91
  -3   9  -2   62.04    1.60
   3  -9  -2   60.83    1.81
   9  -6  -2   62.64    1.69
   6   3  -2   56.75    1.98
   6   3  -2   53.64    1.42
   9  -6  -2   54.76    1.75
   3  -9  -1   42.33    1.23
   9  -6  -1   44.87    1.54
   6   3  -1   40.70    1.12
  -3   9  -1   42.76    1.10
   3  -9  -1   42.78    1.35
   9  -6  -1   43.26    1.26
  -6  -3  -1   37.36    1.31
   6   3  -1   41.78    1.62
  -6  -3  -1   44.89    1.48
   9  -6  -1   39.52    1.41
  -3   9   0    1.73    0.33
  -6  -3   0    2.24    0.35
   9  -6   0    2.14    0.33
   6   3   0    1.76    0.20
   3  -9   0    1.65    0.23
   9  -6   0    1.93    0.21
   3  -9   0    1.99    0.26
   6   3   0    2.50    0.44
  -6  -3   0    1.59    0.31
  -9   6   1   41.42    1.25
   6   3   1   41.68    1.30
  -6  -3   1   40.41    1.40
   3  -9   1   42.94    1.21
   6   3   1   43.79    1.71
  -9   6   1   38.67    1.35
   9  -6   1   43.88    1.13
  -3   9   1   41.19    1.48
  -6  -3   1   44.81    1.43
   3  -9   1   42.52    1.33
   9  -6   1   37.75    1.44
   6   3   2   56.13    1.74
  -9   6   2   58.54    1.62
  -6  -3   2   58.24    1.82
  -9   6   2   54.87    1.75
   6   3   2   61.72    2.15
   3  -9   2   55.84    1.42
  -3   9   2   58.71    1.89
   3  -9   2   56.63    1.73
  -6  -3   2   61.57    1.76
   9  -6   2   54.63    1.86
   3  -9   3   29.25    1.03
  -6  -3   3   30.38    1.10
  -9   6   3   27.59    1.10
   6   3   3   29.77    1.42
   9  -6   3   32.57    1.33
  -3   9   3   29.25    1.21
   3  -9   3   28.56    1.12
  -6  -3   3   31.83    1.06
  -6  -3   3   29.28    1.29
  -9   6   3   30.02    1.00
   6   3   3   27.46    1.13
   9  -6   3   26.18    1.18
  -6  -3   4    2.73    0.31
  -9   6   4    2.41    0.30
  -6  -3   4    2.39    0.32
  -9   6   4    2.42    0.37
   6   3   4    2.28    0.49
   9  -6   4    2.53    0.41
   3  -9   4    1.95    0.30
  -3   9   4    2.32    0.40
  -6  -3   5   15.91    0.69
   3  -9   5   16.69    0.64
   3  -9   5   15.55    0.75
   6   3   5   15.80    1.07
  -3   9   5   15.69    0.89
   9  -6   5   16.95    0.90
   6   3   5   17.13    0.84
   9  -6   5   13.97    0.87
  -6  -3   5   16.69    0.63
   3  -9   6   20.13    0.89
   3  -9   6   21.19    0.65
   6   3   6   23.31    1.31
  -3   9   6   21.90    1.09
   9  -6   6   20.60    0.99
   6   3   6   24.30    1.03
   9  -6   6   20.13    1.07
   3  -9   7    7.62    0.61
  -3   9   7    6.01    0.63
   9  -6   7    6.57    0.56
   6   3   7    6.41    0.58
   9  -6   7    6.32    0.64
   3  -9   8    1.71    0.40
   9  -6   8    1.56    0.40
   6   3   8    1.87    0.43
   9  -5  -7    0.91    0.37
   5   4  -7    1.75    0.52
   9  -5  -6    8.66    0.62
   5   4  -6    8.36    0.75
   5   4  -6    7.11    0.54
   9  -5  -5    4.06    0.46
   5   4  -5    4.31    0.46
   9  -5  -5    5.10    0.35
   9  -5  -4   24.87    1.06
   5   4  -4   25.50    1.07
   9  -5  -4   24.97    0.89
   9  -5  -3    9.19    0.63
  -9   5  -3   10.14    0.62
   4  -9  -3   10.49    0.65
   9  -5  -3    9.86    0.58
   5   4  -3   10.14    0.67
   9  -5  -3    9.48    0.54
   4  -9  -2   11.99    0.40
   9  -5  -2   13.02    0.73
  -9   5  -2   11.37    0.67
   4  -9  -2   12.18    0.65
   9  -5  -2   12.49    0.60
   5   4  -2   11.09    0.72
   9  -5  -2   11.65    0.62
  -4   9  -1   12.54    0.44
  -9   5  -1   13.57    0.71
   4  -9  -1   12.90    0.62
   9  -5  -1   11.97    0.55
  -5  -4  -1   11.88    0.59
   5   4  -1   14.69    0.83
  -4   9  -1   11.67    0.63
  -5  -4  -1   12.16    0.68
   4  -9  -1   11.98    0.40
   9  -5  -1   11.10    0.63
  -9   5   0   39.80    1.40
  -5  -4   0   36.29    1.26
   4  -9   0   40.66    1.22
   9  -5   0   39.65    1.13
   5   4   0   39.34    1.53
  -4   9   0   38.76    1.32
  -5  -4   0   40.77    1.37
   4  -9   0   35.86    1.04
   9  -5   0   35.74    1.33
  -5  -4   1   12.36    0.66
   4  -9   1   12.73    0.51
   9  -5   1   13.09    0.46
   5   4   1   12.58    0.82
  -9   5   1   11.68    0.63
  -4   9   1   12.24    0.67
  -5  -4   1   13.96    0.68
   9  -5   1   11.73    0.69
  -9   5   2   12.16    0.59
  -5  -4   2   14.07    0.80
  -5  -4   2   12.18    0.68
  -9   5   2   11.17    0.64
   4  -9   2   11.73    0.42
   5   4   2   12.12    0.84
   9  -5   2   12.46    0.37
  -4   9   2   11.23    0.67
   9  -5   2   14.10    0.87
  -5  -4   2   12.50    0.64
   9  -5   2   11.84    0.70
  -9   5   3   10.15    0.56
  -5  -4   3    9.44    0.70
  -9   5   3    9.52    0.60
   4  -9   3    9.81    0.57
   5   4   3   10.73    0.83
  -4   9   3    9.29    0.63
   9  -5   3   11.07    0.77
  -5  -4   3   10.36    0.55
   9  -5   3    9.53    0.66
  -5  -4   4   24.35    1.20
  -5  -4   4   26.49    0.95
   4  -9   4   26.87    0.95
   5   4   4   27.10    1.37
  -4   9   4   23.74    1.09
   9  -5   4   28.42    1.25
  -5  -4   4   24.85    0.91
   4  -9   4   24.16    1.00
  -9   5   4   25.93    1.01
  -5  -4   5    5.62    0.60
   9  -5   5    4.20    0.51
  -5  -4   5    4.92    0.37
   4  -9   5    5.19    0.35
  -4   9   5    4.33    0.50
   4  -9   5    4.68    0.47
   5   4   5    4.87    0.66
   5   4   5    5.38    0.52
   9  -5   5    4.58    0.54
  -9   5   5    4.69    0.45
  -5  -4   5    5.45    0.36
   4  -9   6    7.36    0.59
   5   4   6    6.44    0.76
  -4   9   6    6.91    0.61
   9  -5   6    6.39    0.61
   5   4   6    7.37    0.60
  -9   5   6    6.62    0.54
   9  -5   6    5.95    0.60
  -5  -4   6    6.62    0.69
   9  -5   7    1.27    0.42
   4  -9   7    2.39    0.45
  -5  -4   7    2.31    0.54
   9  -5   7    1.70    0.41
  -4   9   7    1.43    0.44
   5   4   7    1.99    0.43
   4  -9   8    7.44    0.59
   9  -5   8    6.17    0.63
   5   4   8    7.21    0.64
  -4  -5  -8   20.41    1.28
  -4  -5  -7   -0.19    0.48
   4   5  -7    0.13    0.43
   4   5  -6    0.51    0.42
  -4  -5  -6    0.48    0.39
   9  -4  -5    0.04    0.17
  -5   9  -5    0.17    0.27
  -4  -5  -5   -0.03    0.32
   4   5  -5    0.06    0.23
   4   5  -5    0.29    0.38
   5  -9  -4   79.94    2.07
   4   5  -4   82.59    2.38
  -5   9  -3    0.07    0.18
   9  -4  -3    0.02    0.20
   5  -9  -3   -0.11    0.28
   4   5  -3    0.08    0.24
   9  -4  -3    0.09    0.27
  -9   4  -2    4.53    0.45
   9  -4  -2    5.46    0.42
   5  -9  -2    5.20    0.45
   4   5  -2    4.68    0.47
  -4  -5  -2    5.00    0.36
  -4  -5  -2    5.59    0.51
  -5   9  -2    4.97    0.37
   9  -4  -2    5.24    0.41
  -5   9  -1   -0.02    0.20
  -4  -5  -1   -0.03    0.26
   9  -4  -1   -0.14    0.22
  -9   4  -1    0.81    0.29
   5  -9  -1   -0.08    0.22
   4   5  -1    0.03    0.28
  -4  -5  -1    0.02    0.20
   9  -4  -1    0.02    0.20
  -9   4   0  150.92    4.07
  -4  -5   0  148.33    3.91
   9  -4   0  153.02    3.81
   5  -9   0  159.44    3.89
   4   5   0  156.70    4.22
  -5   9   0  146.48    3.92
  -4  -5   0  157.30    4.03
   9  -4   0  149.83    4.02
  -4  -5   1    0.02    0.23
   9  -4   1   -0.03    0.24
  -4  -5   1   -0.11    0.24
   5  -9   1    0.04    0.16
   4   5   1    0.19    0.30
   9  -4   1    0.16    0.15
  -9   4   1   -0.09    0.23
  -5   9   1   -0.07    0.23
  -9   4   2    5.24    0.42
  -4  -5   2    5.68    0.54
   9  -4   2    4.82    0.26
   5  -9   2    5.05    0.28
  -9   4   2    4.78    0.44
   4   5   2    6.01    0.60
  -5   9   2    5.15    0.44
   9  -4   2    5.42    0.57
  -4  -5   2    5.36    0.42
   9  -4   2    4.69    0.46
   9  -4   3    0.11    0.08
  -4  -5   3    0.02    0.21
   9  -4   3    0.28    0.28
   9  -4   3    0.26    0.08
  -9   4   3    0.15    0.22
  -4  -5   3    0.04    0.31
   5  -9   3   -0.09    0.24
   5  -9   3    0.03    0.09
   4   5   3    0.13    0.36
   5  -9   3    0.09    0.09
   9  -4   3    0.32    0.33
  -5   9   3   -0.05    0.27
  -4  -5   4   89.99    2.79
   5  -9   4   85.42    2.56
   5  -9   4   96.10    2.45
   4   5   4   91.13    2.98
  -5   9   4   82.95    2.59
   9  -4   4   88.17    2.79
   4   5   4   89.48    2.63
  -4  -5   4   85.27    2.38
  -9   4   4   82.77    2.52
   4   5   5   -0.06    0.32
  -4  -5   5   -0.08    0.20
   9  -4   5   -0.07    0.32
   5  -9   5   -0.06    0.29
   5  -9   5    0.30    0.35
  -9   4   5   -0.03    0.30
  -4  -5   5    0.12    0.35
  -4  -5   5    0.04    0.18
   5  -9   5    0.02    0.20
   4   5   5   -0.26    0.44
   9  -4   5   -0.19    0.36
  -5   9   5   -0.07    0.32
   4   5   6    1.04    0.35
   9  -4   6    0.52    0.35
   5  -9   6    0.46    0.34
  -9   4   6    0.63    0.34
  -4  -5   6    0.45    0.42
   4   5   6    0.33    0.46
   9  -4   6    0.65    0.38
  -5   9   6    0.68    0.35
   9  -4   7    0.04    0.38
   5  -9   7    0.06    0.35
  -9   4   7   -0.07    0.35
  -4  -5   7    1.05    0.48
   4   5   7   -0.23    0.48
   9  -4   7    0.38    0.40
  -5   9   7    0.46    0.39
   4   5   7    0.30    0.37
   9  -4   8   16.72    0.98
   4   5   8   17.95    0.98
   5  -9   8   18.66    0.95
  -3  -6  -8   13.01    1.06
  -3  -6  -7    0.14    0.50
   3   6  -7    0.48    0.41
   3   6  -6    1.26    0.42
  -3  -6  -6    1.83    0.48
  -3  -6  -5    1.07    0.36
   9  -3  -5    0.95    0.19
  -6   9  -5    1.09    0.31
   3   6  -5    1.31    0.40
  -6   9  -4   49.66    1.45
  -3  -6  -4   47.10    1.56
   3   6  -4   44.01    1.36
   3   6  -4   49.30    1.66
  -6   9  -4   41.74    1.23
   9  -3  -4   45.41    1.36
  -3  -6  -3    2.27    0.33
  -6   9  -3    2.20    0.23
   6  -9  -3    2.21    0.38
   3   6  -3    2.61    0.32
   9  -3  -3    2.27    0.37
   9  -3  -3    2.68    0.31
   9  -3  -2    0.63    0.25
   6  -9  -2    1.48    0.31
   3   6  -2    1.09    0.27
   9  -3  -2    1.08    0.29
  -3  -6  -2    0.93    0.19
  -3  -6  -2    1.10    0.33
  -6   9  -2    0.64    0.17
  -9   3  -1    3.80    0.42
  -3  -6  -1    2.63    0.36
  -3  -6  -1    2.70    0.29
   6  -9  -1    3.29    0.36
   3   6  -1    3.04    0.38
  -6   9  -1    2.76    0.30
  -3  -6  -1    3.34    0.39
   9  -3  -1    3.70    0.38
  -9   3   0   83.60    2.35
  -3  -6   0   80.65    2.19
   6  -9   0   79.79    2.20
   3   6   0   79.79    2.42
  -6   9   0   75.09    2.16
  -3  -6   0   72.64    2.28
   9  -3   0   76.80    2.31
  -9   3   1    3.38    0.39
  -3  -6   1    2.81    0.38
   9  -3   1    2.85    0.37
  -6   9   1    3.07    0.18
   6  -9   1    3.31    0.41
   6  -9   1    2.87    0.30
  -6   9   1    3.01    0.33
   3   6   1    3.03    0.44
  -3  -6   2    1.26    0.30
   9  -3   2    1.00    0.33
  -3  -6   2    0.94    0.33
  -9   3   2    0.94    0.28
   6  -9   2    1.12    0.29
   6  -9   2    1.33    0.21
   3   6   2    1.63    0.39
   9  -3   2    0.62    0.36
  -6   9   2    1.23    0.29
  -3  -6   3    2.22    0.33
   9  -3   3    2.21    0.38
  -3  -6   3    2.96    0.45
  -9   3   3    2.28    0.37
   6  -9   3    2.40    0.33
   6  -9   3    2.43    0.21
   6  -9   3    2.36    0.24
   3   6   3    2.86    0.49
   9  -3   3    2.52    0.49
  -6   9   3    2.48    0.36
  -9   3   4   45.10    1.60
  -3  -6   4   47.59    1.76
   6  -9   4   47.67    1.70
   6  -9   4   49.17    1.49
   6  -9   4   50.39    1.69
   6  -9   4   43.44    1.15
   3   6   4   47.52    1.89
  -6   9   4   43.82    1.58
   6  -9   4   42.08    1.15
   9  -3   4   46.18    1.80
   9  -3   4   50.20    1.20
   3   6   4   48.43    1.66
  -3  -6   4   46.62    1.45
   9  -3   4   42.39    1.63
   3   6   5    0.55    0.36
  -3  -6   5    0.76    0.25
   6  -9   5    1.04    0.40
  -9   3   5    0.91    0.35
  -3  -6   5    1.11    0.41
   6  -9   5    1.11    0.26
   3   6   5    1.63    0.51
   9  -3   5    0.71    0.41
   9  -3   5    0.72    0.08
  -6   9   5    1.33    0.36
   3   6   6    1.96    0.42
   9  -3   6    1.54    0.43
   6  -9   6    1.73    0.41
  -9   3   6    1.45    0.42
  -3  -6   6    1.74    0.48
   3   6   6    1.82    0.53
   9  -3   6    1.00    0.42
  -6   9   6    1.64    0.41
   9  -3   7    0.76    0.41
   6  -9   7    0.67    0.37
  -9   3   7    0.15    0.38
  -3  -6   7    1.04    0.48
   3   6   7    0.41    0.50
   9  -3   7    0.25    0.42
  -6   9   7    0.66    0.40
   3   6   7    0.56    0.41
   9  -3   8   10.47    0.85
   6  -9   8   12.63    0.81
   6  -9   9    0.13    0.40
  -2  -7  -8    1.68    0.59
  -2  -7  -7    3.78    0.59
   7  -9  -7    2.98    0.55
   2   7  -7    3.99    0.61
   7  -9  -6   18.89    1.05
   2   7  -6   18.00    0.99
  -2  -7  -6   17.97    1.02
  -7   9  -5    9.87    0.59
   7  -9  -5    7.86    0.69
   2   7  -5    9.62    0.68
  -2  -7  -5    8.74    0.67
  -2  -7  -4    3.31    0.42
  -7   9  -4    3.14    0.34
   2   7  -4    2.99    0.20
   9  -2  -4    3.14    0.31
   2   7  -4    3.32    0.43
  -7   9  -3   17.35    0.63
   7  -9  -3   16.66    0.92
  -7   9  -3   14.68    0.48
   2   7  -3   15.08    0.61
  -2  -7  -3   14.37    0.56
  -2  -7  -3   15.99    0.72
   9  -2  -3   15.40    0.68
  -2  -7  -2   45.71    1.31
  -2  -7  -2   43.75    1.28
   7  -9  -2   48.48    1.59
   2   7  -2   44.05    1.40
  -7   9  -2   42.23    1.24
  -2  -7  -2   46.71    1.56
   9  -2  -2   44.63    1.44
  -9   2  -1   23.63    1.00
  -2  -7  -1   20.64    0.75
   7  -9  -1   22.57    1.03
   2   7  -1   21.48    0.91
  -7   9  -1   20.22    0.75
  -2  -7  -1   21.78    0.92
   9  -2  -1   20.16    0.88
  -9   2   0    3.21    0.40
   7  -9   0    3.32    0.43
  -7   9   0    3.15    0.31
   2   7   0    3.11    0.39
   9  -2   0    3.36    0.39
  -9   2   1   23.01    0.95
  -2  -7   1   22.92    1.03
   7  -9   1   23.83    1.03
  -7   9   1   21.93    0.72
   2   7   1   21.61    1.03
  -7   9   1   20.56    0.86
   9  -2   1   23.42    1.18
   9  -2   1   21.10    0.96
  -9   2   2   49.74    1.52
  -2  -7   2   49.10    1.69
  -9   2   2   43.25    1.56
  -7   9   2   44.79    1.26
   7  -9   2   50.78    1.62
   9  -2   2   42.16    1.66
   2   7   2   45.15    1.73
  -7   9   2   43.80    1.49
   9  -2   2   45.29    1.62
  -2  -7   3   15.13    0.89
   7  -9   3   16.80    0.93
  -9   2   3   15.52    0.84
   7  -9   3   17.34    0.80
  -7   9   3   16.05    0.80
   2   7   3   14.72    0.94
   9  -2   3   15.99    1.00
   7  -9   3   16.36    0.69
   9  -2   3   15.33    0.85
   2   7   4    2.62    0.45
   9  -2   4    3.44    0.46
   7  -9   4    2.95    0.45
  -2  -7   4    2.44    0.44
  -9   2   4    2.82    0.43
   7  -9   4    2.92    0.37
   7  -9   4    2.78    0.26
   2   7   4    2.55    0.51
   9  -2   4    3.47    0.29
   9  -2   4    3.34    0.54
  -7   9   4    3.30    0.43
   7  -9   5    8.90    0.69
  -7   9   5    8.11    0.65
   2   7   5    9.22    0.85
   7  -9   5    7.87    0.36
   9  -2   5    9.45    0.79
   9  -2   5    9.70    0.42
   2   7   5    8.70    0.68
  -2  -7   5    8.89    0.74
  -9   2   5    7.94    0.65
   7  -9   6   15.17    0.92
  -7   9   6   16.33    0.95
   2   7   6   19.88    1.23
   9  -2   6   19.09    0.62
   9  -2   6   17.23    1.08
   2   7   6   16.81    0.94
   9  -2   6   15.08    0.94
  -2  -7   6   16.61    1.03
  -9   2   6   16.90    0.98
   9  -2   7    3.00    0.54
   7  -9   7    3.06    0.51
  -2  -7   7    2.76    0.56
  -9   2   7    3.06    0.57
   9  -2   7    2.16    0.52
  -7   9   7    2.88    0.51
   2   7   7    2.96    0.52
   7  -9   8    1.49    0.45
   8  -9  -7    2.25    0.50
  -1  -8  -7    1.57    0.55
   1   8  -7    1.60    0.48
   8  -9  -6   15.23    0.94
   1   8  -6   15.10    0.88
  -1  -8  -6   16.18    0.97
  -8   9  -5    3.85    0.39
   8  -9  -5    3.95    0.53
  -1  -8  -5    3.44    0.48
   1   8  -5    3.94    0.48
  -8   9  -4    2.67    0.31
   8  -9  -4    1.92    0.43
  -1  -8  -4    2.05    0.37
   1   8  -4    1.68    0.38
  -8   9  -3    7.27    0.40
   8  -9  -3    7.19    0.62
  -1  -8  -3    6.48    0.46
  -8   9  -2   40.55    1.04
   1   8  -2   37.48    1.20
  -1  -8  -2   39.32    1.22
  -1  -8  -2   37.37    1.38
   9  -1  -2   41.13    1.36
   8  -9  -1    9.37    0.68
  -8   9  -1    8.32    0.43
   1   8  -1    8.28    0.53
  -1  -8  -1    9.71    0.58
  -1  -8  -1    9.41    0.37
   9  -1  -1    9.46    0.59
   9  -1   0    2.24    0.35
  -9   1   0    2.77    0.38
   8  -9   0    2.69    0.40
  -8   9   0    2.51    0.29
   1   8   0    2.56    0.36
   9  -1   0    2.29    0.46
  -1  -8   0    2.21    0.30
  -9   1   1   10.59    0.64
   8  -9   1    8.86    0.67
  -1  -8   1    9.22    0.65
   8  -9   1   10.05    0.67
  -8   9   1    9.58    0.53
   1   8   1    9.07    0.65
   9  -1   1    8.29    0.63
  -8   9   1    9.31    0.46
   9  -1   1    9.49    0.80
   9  -1   1    8.40    0.60
  -9   1   2   40.36    1.34
   8  -9   2   36.63    1.49
  -1  -8   2   39.55    1.48
   9  -1   2   34.94    1.46
  -9   1   2   35.30    1.40
   8  -9   2   42.12    1.46
  -8   9   2   37.26    1.16
  -8   9   2   38.26    1.33
   1   8   2   39.67    1.55
   9  -1   2   38.33    1.65
   9  -1   2   37.88    1.44
  -1  -8   3    6.44    0.58
  -9   1   3    6.93    0.47
  -9   1   3    6.65    0.59
   8  -9   3    7.00    0.54
  -8   9   3    6.59    0.52
   1   8   3    6.78    0.65
   8  -9   3    6.40    0.49
   1   8   3    6.46    0.59
   9  -1   3    6.86    0.59
   9  -1   4    1.63    0.39
   8  -9   4    2.08    0.43
  -1  -8   4    2.41    0.44
  -9   1   4    2.71    0.46
   8  -9   4    3.05    0.38
   1   8   4    2.08    0.51
   9  -1   4    2.11    0.51
  -8   9   4    1.83    0.39
   8  -9   4    2.29    0.32
   1   8   5    3.67    0.52
   8  -9   5    3.24    0.50
  -1  -8   5    2.99    0.54
  -9   1   5    3.73    0.53
   8  -9   5    3.47    0.32
   1   8   5    4.00    0.63
   9  -1   5    3.70    0.35
   9  -1   5    3.15    0.60
  -8   9   5    3.55    0.48
   1   8   6   14.86    1.09
   9  -1   6   15.31    1.04
   9  -1   6   16.08    0.65
   1   8   6   14.55    0.91
   9  -1   6   13.62    0.92
  -1  -8   6   13.66    0.94
  -9   1   6   13.80    0.91
   8  -9   6   14.67    0.91
   8  -9   7    0.98    0.45
  -1  -8   7    0.99    0.49
  -9   1   7    1.52    0.49
   0  -9  -7    1.59    0.57
   0   9  -7    1.60    0.49
   9  -9  -6    8.78    0.74
   0   9  -6    9.11    0.69
   0  -9  -6    7.73    0.71
   9  -9  -5    2.17    0.37
   0  -9  -5    2.66    0.47
   9  -9  -5    3.09    0.51
   0   9  -5    2.16    0.41
   9  -9  -4    4.01    0.46
   0  -9  -4    3.55    0.43
   9  -9  -4    3.39    0.50
   0   9  -4    3.60    0.41
  -9   9  -4    3.92    0.36
   9  -9  -3    4.43    0.47
   0  -9  -3    5.04    0.44
   9  -9  -3    5.42    0.58
   0   9  -3    4.81    0.43
  -9   9  -3    4.51    0.34
  -9   9  -2   20.38    0.62
   9  -9  -2   18.92    0.96
   0  -9  -2   20.13    0.79
   9  -9  -2   20.08    1.03
   0  -9  -2   20.81    0.93
   9   0  -2   19.51    1.12
   9  -9  -1    6.01    0.56
   0  -9  -1    7.12    0.37
   0  -9  -1    6.53    0.49
   9   0  -1    6.38    0.67
   9  -9   0    5.29    0.54
   0  -9   0    5.20    0.49
   9  -9   0    4.66    0.53
   0  -9   0    5.75    0.23
   0   9   0    5.40    0.47
   9   0   0    5.02    0.48
   9   0   0    5.41    0.65
   0  -9   0    5.44    0.41
   9   0   0    5.07    0.48
  -9   0   1    7.67    0.55
   9  -9   1    7.24    0.63
   0  -9   1    7.15    0.57
   9   0   1    6.87    0.57
   9  -9   1    7.20    0.61
   0   9   1    6.46    0.54
  -9   9   1    5.91    0.41
   9   0   1    5.83    0.68
   9   0   1    6.16    0.55
  -9   0   2   22.68    0.92
   9  -9   2   18.79    1.02
   0  -9   2   20.00    0.96
  -9   0   2   18.64    0.97
   9  -9   2   20.61    1.00
  -9   9   2   19.45    0.78
   0   9   2   17.99    0.99
   9   0   2   18.19    1.14
   9   0   2   19.24    0.99
   0   9   2   21.49    1.08
   9   0   2   19.18    0.98
   0  -9   3    5.40    0.52
  -9   0   3    5.91    0.46
   0   9   3    4.62    0.56
  -9   0   3    4.84    0.55
  -9   9   3    4.59    0.38
   9  -9   3    5.77    0.53
   0   9   3    5.56    0.61
   9   0   3    5.26    0.67
   9  -9   3    5.56    0.52
   9   0   3    4.75    0.54
   0   9   4    4.39    0.54
  -9   0   4    4.27    0.36
   9   0   4    4.33    0.56
   9  -9   4    3.64    0.54
   0  -9   4    3.40    0.50
  -9   0   4    4.06    0.55
   0   9   4    3.30    0.58
   9  -9   4    3.50    0.43
   9   0   5    2.95    0.39
   9  -9   5    2.05    0.46
   0  -9   5    2.66    0.50
  -9   0   5    2.58    0.49
   0   9   5    2.78    0.60
   9   0   5    1.92    0.56
   9  -9   5    2.61    0.36
   9   0   6    8.26    0.79
   9   0   6    7.94    0.82
   0   9   6    7.63    0.71
   9   0   6    9.07    0.56
   0  -9   6    8.90    0.77
  -9   0   6    8.55    0.77
   9  -9   6    7.17    0.71
   1 -10  -7    0.88    0.51
  -1  10  -7    1.65    0.46
   1 -10  -6    6.56    0.69
  -1  10  -6    6.07    0.59
   1 -10  -5    1.95    0.44
  10  -9  -5    2.09    0.37
  10  -9  -5    2.46    0.52
  -1  10  -5    2.53    0.41
  10  -9  -4    3.31    0.43
  10  -9  -4    3.68    0.53
  -1  10  -4    3.24    0.38
   1 -10  -4    2.23    0.43
  10  -9  -3    4.10    0.46
   1 -10  -3    5.19    0.48
  10  -9  -3    5.06    0.59
  -1  10  -3    4.71    0.39
   9   1  -3    3.62    0.58
  10  -9  -2   13.00    0.79
  10  -9  -2   14.18    0.88
   9   1  -2   13.51    0.95
  10  -9  -2   14.20    0.65
 -10   9  -2   13.98    0.51
   1 -10  -2   13.25    0.66
  10  -9  -1    5.18    0.55
   1 -10  -1    6.53    0.50
   1 -10  -1    6.54    0.48
   9   1  -1    7.40    0.75
   1 -10  -1    6.05    0.40
   1 -10   0    3.85    0.43
  10  -9   0    3.51    0.48
  10  -9   0    3.80    0.52
   1 -10   0    3.93    0.36
   9   1   0    4.20    0.62
  10  -9   1    5.60    0.58
   1 -10   1    7.13    0.55
  10  -9   1    6.89    0.62
 -10   9   1    5.91    0.45
   9   1   1    6.93    0.74
   9   1   1    5.12    0.51
   1 -10   1    6.14    0.27
   1 -10   2   12.35    0.75
  10  -9   2   13.18    0.85
  -9  -1   2   13.35    0.83
  10  -9   2   13.90    0.84
 -10   9   2   13.04    0.66
   9   1   2   12.77    0.77
   9   1   2   11.88    0.95
  -1  10   2   12.01    0.85
  10  -9   3    4.59    0.56
  -9  -1   3    4.89    0.44
  -9  -1   3    5.20    0.58
 -10   9   3    4.68    0.43
   9   1   3    4.37    0.52
  10  -9   3    5.16    0.55
  -1  10   3    5.31    0.61
   9   1   3    4.75    0.65
   1 -10   3    4.89    0.52
  -1  10   4    2.67    0.50
   1 -10   4    2.59    0.46
  -9  -1   4    3.30    0.55
   9   1   4    3.51    0.63
  10  -9   4    3.38    0.48
   9   1   5    3.15    0.44
  10  -9   5    1.95    0.49
   1 -10   5    1.86    0.47
  -9  -1   5    2.58    0.54
  10  -9   5    2.65    0.41
  -1  10   5    1.93    0.48
   9   1   6    7.06    0.57
   1 -10   6    5.86    0.67
   2 -10  -7    0.82    0.49
  -2  10  -7    0.82    0.45
  10  -8  -6    5.59    0.61
  -2  10  -6    4.97    0.54
   2 -10  -6    5.91    0.70
  10  -8  -5    1.45    0.31
  10  -8  -5    1.58    0.47
   2 -10  -5    1.68    0.45
  -2  10  -5    1.84    0.38
  10  -8  -4    6.02    0.50
  10  -8  -4    6.38    0.62
  -2  10  -4    5.55    0.45
   8   2  -4    6.55    0.66
 -10   8  -4    7.14    0.49
  10  -8  -3    3.14    0.42
  10  -8  -3    3.19    0.47
  -2  10  -3    3.21    0.33
   8   2  -3    3.65    0.55
  10  -8  -2   10.73    0.68
  10  -8  -2   11.04    0.76
   2 -10  -2   10.95    0.65
   8   2  -2   11.42    0.86
  10  -8  -2   11.54    0.57
  10  -8  -1    4.00    0.48
   2 -10  -1    5.23    0.42
   2 -10  -1    5.30    0.43
  10  -8  -1    5.59    0.37
   8   2  -1    4.60    0.59
   8   2  -1    4.88    0.38
  10  -8   0    7.85    0.62
   2 -10   0   10.18    0.57
 -10   8   0    8.77    0.35
  10  -8   0    9.18    0.68
   2 -10   0    9.88    0.51
   8   2   0    7.53    0.74
   8   2   0    9.01    0.53
  10  -8   1    5.42    0.54
   2 -10   1    5.28    0.45
  10  -8   1    4.79    0.52
   8   2   1    4.69    0.43
 -10   8   1    4.64    0.41
   8   2   1    6.27    0.68
   2 -10   1    4.83    0.33
  -2  10   1    5.16    0.55
 -10   8   1    4.40    0.19
   2 -10   2   12.09    0.51
  -8  -2   2   11.37    0.77
   8   2   2   10.96    0.67
 -10   8   2   11.18    0.63
   8   2   2   10.94    0.89
   2 -10   2   12.06    0.70
  -8  -2   2   12.64    0.68
  10  -8   2   11.07    0.76
  -2  10   3    2.85    0.48
  10  -8   3    3.21    0.47
   8   2   3    4.00    0.49
   2 -10   3    3.53    0.44
  -8  -2   3    3.44    0.51
   2 -10   3    3.61    0.29
 -10   8   3    3.01    0.39
   8   2   3    4.10    0.63
  10  -8   3    3.73    0.55
  -8  -2   3    3.61    0.39
  -8  -2   4    7.16    0.69
   8   2   4    6.20    0.75
  10  -8   4    5.78    0.61
  -2  10   4    5.29    0.58
   2 -10   4    5.86    0.56
  -8  -2   4    6.94    0.46
   8   2   5    2.10    0.43
  10  -8   5    1.07    0.41
   2 -10   5    1.48    0.43
  -8  -2   5    1.73    0.48
   8   2   5    1.28    0.51
  10  -8   5    1.80    0.41
  -2  10   5    1.89    0.48
  10  -8   6    5.99    0.55
   8   2   6    7.21    0.60
   2 -10   7    0.51    0.40
   8   2   7    0.77    0.40
  10  -7  -7    0.22    0.41
  -3  10  -7    0.54    0.40
   3 -10  -7    0.20    0.52
  -3  10  -6    6.99    0.59
  10  -7  -6    7.89    0.67
   7   3  -6    7.74    0.65
   3 -10  -6    6.38    0.70
  10  -7  -5    0.92    0.26
  10  -7  -5    1.28    0.40
  -3  10  -5    0.87    0.30
   7   3  -5    0.62    0.35
  10  -7  -4    5.53    0.56
  -3  10  -4    5.64    0.44
   7   3  -4    4.94    0.54
  10  -7  -4    5.17    0.44
  10  -7  -3    2.14    0.34
  10  -7  -3    2.11    0.43
  -3  10  -3    1.98    0.29
   7   3  -3    1.55    0.43
  10  -7  -3    1.51    0.30
   3 -10  -2   16.81    0.67
  10  -7  -2   17.59    0.92
  -3  10  -2   16.22    0.60
   3 -10  -2   17.96    0.82
   7   3  -2   15.83    0.95
  10  -7  -2   16.31    0.71
  10  -7  -2   16.11    0.81
  10  -7  -1    2.57    0.38
   7   3  -1    2.43    0.20
   3 -10  -1    2.06    0.26
  10  -7  -1    2.46    0.42
  10  -7  -1    2.84    0.30
   3 -10  -1    2.43    0.33
   7   3  -1    2.85    0.50
   3 -10   0    8.21    0.47
   7   3   0    8.33    0.42
   3 -10   0    8.70    0.48
   7   3   0    8.94    0.76
  10  -7   0    9.31    0.42
  -3  10   0    9.12    0.65
  10  -7   0    8.77    0.62
  -3  10   1    2.54    0.43
 -10   7   1    2.11    0.25
  -7  -3   1    2.53    0.37
  10  -7   1    2.10    0.38
   3 -10   1    2.14    0.30
   3 -10   1    2.51    0.25
   7   3   1    1.84    0.45
   7   3   1    2.53    0.30
 -10   7   1    1.79    0.33
   7   3   2   15.61    0.75
 -10   7   2   14.28    0.74
   7   3   2   15.62    1.03
  -3  10   2   16.97    0.90
   3 -10   2   16.11    0.76
  -7  -3   2   17.58    0.80
  10  -7   2   16.15    0.88
 -10   7   2   16.00    0.62
  -7  -3   3    1.64    0.32
  10  -7   3    2.00    0.41
   3 -10   3    1.03    0.32
 -10   7   3    2.04    0.26
   7   3   3    1.70    0.35
   3 -10   3    1.78    0.28
   7   3   3    1.81    0.48
  10  -7   3    1.92    0.46
  -3  10   3    1.55    0.41
   7   3   4    6.25    0.73
   3 -10   4    5.13    0.40
  10  -7   4    6.03    0.63
  -3  10   4    6.34    0.61
  -7  -3   4    6.19    0.43
   7   3   5    0.93    0.38
  10  -7   5    0.58    0.39
  -7  -3   5    1.11    0.30
   3 -10   5    0.90    0.24
   7   3   5    1.16    0.52
  10  -7   5    0.36    0.37
  -3  10   5    1.14    0.40
   7   3   6    7.98    0.88
  -3  10   6    7.18    0.69
  10  -7   6    7.18    0.64
   7   3   6    8.35    0.65
  10  -7   6    7.48    0.70
   3 -10   7    0.28    0.36
  10  -7   7    0.22    0.34
   7   3   7    1.06    0.42
  10  -6  -7    0.55    0.40
   4 -10  -7    0.15    0.51
  10  -6  -6   10.87    0.75
  10  -6  -5    0.62    0.25
  10  -6  -5    0.58    0.35
   6   4  -5    0.29    0.31
  10  -6  -4    2.76    0.35
  10  -6  -4    2.45    0.43
   6   4  -4    2.91    0.46
  10  -6  -3    0.82    0.27
  10  -6  -3    0.30    0.30
  -4  10  -3    0.80    0.24
   6   4  -3    0.50    0.30
  10  -6  -3    0.99    0.30
   4 -10  -2   29.79    0.86
  10  -6  -2   30.11    1.27
  -4  10  -2   31.57    0.95
   4 -10  -2   35.64    1.21
  10  -6  -2   31.66    1.07
   6   4  -2   31.24    1.34
  -6  -4  -2   25.32    1.02
  10  -6  -2   29.98    1.15
  -4  10  -1    1.02    0.32
  10  -6  -1    1.27    0.30
   4 -10  -1    0.98    0.15
  -4  10  -1    1.17    0.11
   4 -10  -1    1.29    0.29
   6   4  -1    0.87    0.40
  -6  -4  -1    0.96    0.26
  10  -6  -1    1.45    0.24
  -4  10   0    3.11    0.41
  10  -6   0    3.01    0.40
   4 -10   0    3.11    0.31
  10  -6   0    3.40    0.27
  -6  -4   0    3.20    0.38
   6   4   0    2.54    0.47
   4 -10   0    2.95    0.24
  -4  10   1    1.34    0.34
  -6  -4   1    1.21    0.34
  10  -6   1    0.82    0.32
   4 -10   1    1.19    0.21
 -10   6   1    1.66    0.26
  -6  -4   1    1.69    0.33
   4 -10   1    1.04    0.20
   6   4   1    1.14    0.42
  10  -6   1    1.30    0.17
 -10   6   2   31.89    1.07
  -6  -4   2   32.03    1.33
   6   4   2   32.05    1.48
   4 -10   2   28.00    0.82
  -4  10   2   31.15    1.25
  10  -6   2   33.04    1.43
  -6  -4   2   32.13    1.16
  10  -6   2   33.47    1.31
  -6  -4   3    0.76    0.28
  10  -6   3    0.83    0.36
 -10   6   3    0.55    0.24
   4 -10   3    1.35    0.30
  -6  -4   3    0.67    0.33
   6   4   3    0.95    0.45
  10  -6   3    0.54    0.39
  -4  10   3    0.42    0.31
  -6  -4   4    2.66    0.33
  -6  -4   4    2.35    0.50
   4 -10   4    3.05    0.37
  -6  -4   4    2.60    0.35
   4 -10   4    2.45    0.35
   6   4   4    2.02    0.54
  10  -6   4    2.97    0.51
 -10   6   4    3.05    0.35
  -4  10   4    3.00    0.47
   6   4   5    0.55    0.37
  10  -6   5    1.69    0.46
 -10   6   5    0.55    0.28
  -6  -4   5    0.27    0.40
  -6  -4   5    0.52    0.25
   4 -10   5    0.70    0.23
   4 -10   5    0.10    0.26
   6   4   5    0.73    0.49
  10  -6   5    0.39    0.42
  -4  10   5    0.15    0.34
   4 -10   6   11.59    0.80
   6   4   6   13.02    1.05
  -4  10   6   12.34    0.85
  10  -6   6   12.21    0.83
   6   4   6   12.63    0.82
  10  -6   6   12.51    0.86
  -6  -4   6   11.45    0.90
   4 -10   7    0.03    0.35
  10  -6   7    0.07    0.38
   6   4   7   -0.33    0.37
   4 -10   8    1.34    0.43
  10  -6   8    1.96    0.48
   6   4   8    1.57    0.48
   5   5  -5    0.44    0.29
   5   5  -4   10.88    0.68
  10  -5  -4   10.85    0.58
  -5  10  -3    1.18    0.28
  10  -5  -3    1.06    0.28
   5   5  -3    0.99    0.35
   5 -10  -2   12.96    0.69
  10  -5  -2   11.88    0.61
  -5  -5  -2   11.08    0.57
   5   5  -2   12.83    0.78
  -5  10  -2   12.41    0.64
  10  -5  -2   11.04    0.64
  -5  10  -1    1.51    0.29
  10  -5  -1    1.74    0.32
   5 -10  -1    2.04    0.32
   5   5  -1    1.43    0.35
  -5  -5  -1    1.38    0.28
  10  -5  -1    1.78    0.28
  -5  -5   0   14.91    0.72
   5 -10   0   16.82    0.69
  10  -5   0   15.53    0.62
   5   5   0   16.85    0.95
  -5  10   0   15.90    0.77
  10  -5   0   15.69    0.81
  -5  -5   1    1.40    0.34
  10  -5   1    1.82    0.37
  -5  -5   1    1.68    0.34
   5 -10   1    1.71    0.23
   5   5   1    2.03    0.44
  10  -5   1    1.63    0.20
 -10   5   2   12.56    0.66
  -5  -5   2   11.41    0.78
  -5  -5   2   13.44    0.74
   5 -10   2   11.87    0.47
   5   5   2   11.05    0.86
  10  -5   2   14.64    0.44
  -5  10   2   11.71    0.71
  10  -5   2   13.78    0.91
  -5  -5   2   12.99    0.70
  10  -5   2   12.48    0.77
  -5  -5   3    1.43    0.31
  10  -5   3    1.58    0.37
 -10   5   3    1.00    0.29
  -5  -5   3    0.95    0.38
   5 -10   3    1.12    0.33
   5   5   3    2.08    0.51
  10  -5   3    0.91    0.41
  -5  10   3    1.32    0.36
  -5  -5   4   10.32    0.81
   5 -10   4   10.95    0.67
   5 -10   4   12.16    0.64
   5   5   4   12.02    0.94
  -5  10   4   11.81    0.76
  10  -5   4   11.99    0.86
  -5  -5   4   11.93    0.60
  10  -5   4   10.83    0.77
 -10   5   4   11.37    0.67
   5   5   5    0.71    0.38
  -5  -5   5    0.25    0.22
 -10   5   5    0.97    0.32
  -5  -5   5    0.80    0.42
  -5  -5   5    0.37    0.23
   5 -10   5    0.72    0.26
   5   5   5    0.34    0.45
  10  -5   5    0.29    0.40
  -5  10   5    0.29    0.36
   5   5   6    5.06    0.57
   5 -10   6    6.28    0.64
  -5  -5   6    5.35    0.69
  10  -5   6    6.03    0.69
   5   5   6    6.70    0.80
  -5  10   6    4.77    0.57
 -10   5   6    5.23    0.53
  10  -5   6    6.62    0.65
   5 -10   7    0.14    0.39
  10  -5   7    0.28    0.44
   5   5   7    0.07    0.39
   5 -10   8    3.59    0.53
  10  -5   8    3.13    0.55
  -4  -6  -7    0.35    0.48
  -4  -6  -6    4.35    0.58
   4   6  -6    3.61    0.57
   4   6  -4   14.59    0.68
  -6  10  -4   12.68    0.56
  10  -4  -4   14.10    0.65
  -6  10  -3    0.34    0.20
  10  -4  -3    0.62    0.26
   4   6  -3    0.72    0.30
  -4  -6  -3    0.52    0.21
  10  -4  -2    8.74    0.55
   6 -10  -2    6.82    0.55
  -4  -6  -2    6.89    0.43
   4   6  -2    7.24    0.56
  -6  10  -2    7.47    0.45
  10  -4  -2    7.47    0.52
  10  -4  -1    0.67    0.29
   6 -10  -1    0.65    0.26
  -4  -6  -1    0.96    0.25
   4   6  -1    0.71    0.33
  10  -4  -1    0.68    0.25
  -6  10  -1    0.82    0.24
  -4  -6   0   21.50    0.87
  10  -4   0   22.04    0.81
   6 -10   0   22.26    0.85
  -6  10   0   20.86    0.59
   4   6   0   20.35    1.04
  -6  10   0   22.20    0.89
  10  -4   0   20.54    0.95
  10  -4   1    0.69    0.31
  -4  -6   1    0.66    0.27
   6 -10   1    0.47    0.21
   4   6   1    0.48    0.36
  10  -4   1    0.69    0.20
  10  -4   1    0.62    0.38
  -6  10   1    1.02    0.31
 -10   4   2    9.37    0.59
  -4  -6   2    6.84    0.62
   6 -10   2    8.76    0.62
  10  -4   2    7.17    0.36
   6 -10   2    7.65    0.38
   4   6   2    7.86    0.70
  -6  10   2    7.84    0.56
  10  -4   2    9.05    0.76
  -4  -6   2    8.69    0.57
  10  -4   2    7.47    0.60
  -4  -6   3    0.68    0.28
  10  -4   3    0.45    0.35
 -10   4   3    0.50    0.29
  -4  -6   3    0.75    0.38
   6 -10   3    0.63    0.29
   6 -10   3    0.46    0.13
   4   6   3    1.12    0.43
  10  -4   3    0.73    0.39
   6 -10   3    0.41    0.15
  10  -4   3    0.43    0.12
  -6  10   3    0.65    0.32
 -10   4   4   13.14    0.76
  -4  -6   4   14.26    0.93
   6 -10   4   16.17    0.75
   4   6   4   15.85    1.07
  -6  10   4   13.64    0.82
  10  -4   4   16.83    1.03
   4   6   4   13.06    0.84
  -4  -6   4   13.92    0.68
  10  -4   4   13.91    0.86
   4   6   5    0.21    0.37
  -4  -6   5    0.22    0.23
   6 -10   5    0.04    0.36
 -10   4   5    0.25    0.32
  -4  -6   5    0.09    0.39
   6 -10   5    0.21    0.25
   4   6   5    0.50    0.51
  10  -4   5    0.13    0.42
  -6  10   5    0.11    0.33
   4   6   6    4.54    0.55
  10  -4   6    3.98    0.59
   6 -10   6    4.10    0.55
 -10   4   6    4.03    0.51
  -4  -6   6    4.17    0.62
  10  -4   6    3.62    0.59
  -6  10   6    3.48    0.52
   6 -10   7    0.29    0.41
 -10   4   7    0.04    0.40
  10  -4   7    0.09    0.45
   4   6   7    0.26    0.40
   6 -10   8    4.72    0.60
  -3  -7  -7    0.66    0.47
   3   7  -7    0.77    0.46
  -3  -7  -6    9.77    0.79
   3   7  -6    8.91    0.74
  -3  -7  -5    0.98    0.37
   3   7  -5    1.48    0.42
  -7  10  -4    4.71    0.37
  -3  -7  -4    4.19    0.44
  10  -3  -4    3.59    0.36
  10  -3  -3    2.28    0.33
  -7  10  -3    2.28    0.22
   3   7  -3    2.61    0.32
  -3  -7  -2   20.60    0.78
  10  -3  -2   23.48    0.98
   3   7  -2   24.37    0.96
  -7  10  -2   20.85    0.78
  10  -3  -2   23.43    0.94
  -3  -7  -1    4.04    0.34
   7 -10  -1    3.39    0.50
  -7  10  -1    3.38    0.33
   7 -10  -1    3.32    0.41
   3   7  -1    3.70    0.41
  10  -3  -1    3.68    0.42
  -3  -7   0    5.01    0.39
   7 -10   0    5.82    0.57
   7 -10   0    4.35    0.39
   3   7   0    4.59    0.49
  -7  10   0    4.77    0.39
  10  -3   0    3.82    0.43
 -10   3   1    3.75    0.43
  -7  10   1    3.42    0.21
   7 -10   1    4.45    0.50
  -3  -7   1    3.67    0.48
   7 -10   1    3.70    0.35
   3   7   1    3.84    0.51
  -7  10   1    2.92    0.37
  10  -3   1    3.58    0.44
  -3  -7   2   23.86    1.14
 -10   3   2   24.41    1.04
   7 -10   2   27.72    1.11
   7 -10   2   22.87    0.82
   3   7   2   21.53    1.16
  -7  10   2   20.72    0.95
  10  -3   2   23.42    1.26
  10  -3   2   24.69    1.11
  10  -3   3    2.00    0.43
   7 -10   3    2.52    0.47
  -3  -7   3    2.40    0.47
 -10   3   3    2.44    0.40
   7 -10   3    2.64    0.39
   7 -10   3    2.91    0.24
   7 -10   3    2.62    0.28
   3   7   3    3.70    0.56
  10  -3   3    1.95    0.52
  -7  10   3    2.40    0.40
  10  -3   4    3.00    0.48
   3   7   4    3.44    0.51
   7 -10   4    4.37    0.56
   7 -10   4    3.69    0.43
  -3  -7   4    3.33    0.54
 -10   3   4    3.73    0.47
   7 -10   4    3.80    0.22
   7 -10   4    3.64    0.23
  10  -3   4    4.79    0.27
   3   7   4    4.14    0.65
  10  -3   4    4.41    0.62
  -3  -7   4    3.79    0.40
  -7  10   4    2.90    0.45
   3   7   5    1.10    0.42
  -3  -7   5    1.59    0.30
   7 -10   5    1.02    0.42
 -10   3   5    0.73    0.39
  -3  -7   5    1.50    0.46
   7 -10   5    1.54    0.30
   3   7   5    1.22    0.52
  10  -3   5    1.28    0.49
  -7  10   5    1.68    0.44
   7 -10   6    8.78    0.75
  -7  10   6    9.37    0.76
   3   7   6   10.26    0.97
  10  -3   6    8.80    0.82
   3   7   6    9.05    0.72
  10  -3   6    9.27    0.77
 -10   3   6    9.17    0.73
  -3  -7   6    6.85    0.72
   7 -10   7    0.49    0.44
 -10   3   7    0.24    0.40
  -2  -8  -7    0.04    0.43
   2   8  -7    0.27    0.44
   8 -10  -6    5.50    0.65
  -2  -8  -6    3.95    0.58
   2   8  -6    5.37    0.63
   8 -10  -5    0.17    0.38
  -2  -8  -5    0.03    0.35
   2   8  -5   -0.13    0.38
   8 -10  -4    7.33    0.69
  -2  -8  -4    6.42    0.51
  10  -2  -3    0.02    0.25
   8 -10  -3    0.51    0.36
  -2  -8  -3    0.19    0.24
  -8  10  -2   10.08    0.44
  -2  -8  -2   10.79    0.45
   2   8  -2   10.64    0.56
  10  -2  -2    8.99    0.60
  10  -2  -1    0.27    0.27
   8 -10  -1   -0.04    0.35
   2   8  -1    0.37    0.26
  -8  10  -1    0.18    0.19
  -2  -8  -1    0.38    0.28
   8 -10   0   10.59    0.74
  -8  10   0    8.43    0.51
   2   8   0   10.29    0.67
  10  -2   0    9.99    0.82
  10  -2   0   10.13    0.65
  10  -2   1    0.87    0.34
  -2  -8   1    0.31    0.34
   8 -10   1    0.57    0.35
   2   8   1    0.21    0.30
  -8  10   1    0.19    0.16
  10  -2   1    0.15    0.37
  -8  10   1    0.11    0.24
 -10   2   2   11.64    0.66
   8 -10   2   10.31    0.76
  -2  -8   2   10.93    0.76
 -10   2   2   10.45    0.70
  -8  10   2   10.51    0.45
   8 -10   2   11.85    0.74
  -8  10   2    9.26    0.61
   2   8   2   10.72    0.78
  10  -2   2   10.62    0.72
  10  -2   3    0.14    0.34
  -2  -8   3    0.15    0.35
 -10   2   3    0.30    0.33
   8 -10   3   -0.15    0.33
   2   8   3    0.09    0.39
  10  -2   3    0.30    0.43
  -8  10   3    0.12    0.28
   8 -10   3   -0.06    0.25
  -2  -8   4    6.65    0.66
   8 -10   4    6.82    0.67
 -10   2   4    6.53    0.61
   8 -10   4    7.33    0.56
  -8  10   4    6.76    0.59
   2   8   4    6.72    0.75
  10  -2   4    6.22    0.75
   8 -10   4    6.77    0.42
   2   8   4    6.02    0.64
  10  -2   4    9.19    0.47
  10  -2   4    5.63    0.62
   2   8   5   -0.08    0.38
   8 -10   5   -0.21    0.41
  -2  -8   5    0.26    0.43
 -10   2   5    0.11    0.37
   2   8   5    0.22    0.47
  10  -2   5    0.66    0.48
  -8  10   5    0.18    0.35
   8 -10   6    4.90    0.63
  -2  -8   6    4.54    0.64
 -10   2   6    4.78    0.64
   2   8   6    4.98    0.75
  10  -2   6    5.21    0.70
  -8  10   6    4.33    0.58
   2   8   6    4.20    0.60
  -1  -9  -7    0.13    0.47
   1   9  -6    0.50    0.41
  -1  -9  -6    0.98    0.45
   9 -10  -5    0.08    0.42
  -1  -9  -5    0.10    0.36
   1   9  -5   -0.21    0.35
   9 -10  -4   22.97    1.17
  -1  -9  -4   19.93    0.93
   9 -10  -3   -0.08    0.36
  -1  -9  -3   -0.02    0.25
  10  -1  -2    0.21    0.28
  -1  -9  -2    0.21    0.18
  10  -1  -1    0.31    0.30
   9 -10  -1    0.26    0.35
   9 -10  -1    0.49    0.39
   1   9  -1    0.22    0.24
  -1  -9  -1    0.10    0.28
  10  -1  -1    0.30    0.44
   9 -10   0   32.01    1.40
  -1  -9   0   33.80    1.33
   9 -10   0   35.45    1.43
   1   9   0   33.17    1.28
  10  -1   0   32.52    1.56
  10  -1   0   31.94    1.30
  10  -1   1    0.36    0.33
  10  -1   1    0.28    0.36
   9 -10   1    0.12    0.36
  -1  -9   1    0.03    0.34
   9 -10   1    0.07    0.35
   1   9   1    0.17    0.31
  -9  10   1    0.13    0.20
  -9  10   1   -0.07    0.25
  10  -1   1    0.46    0.43
  10  -1   2    0.07    0.34
 -10   1   2    0.03    0.30
   9 -10   2   -0.04    0.36
  -1  -9   2    0.21    0.34
   9 -10   2    0.37    0.37
 -10   1   2    0.57    0.33
   1   9   2    0.67    0.37
  -9  10   2    0.05    0.19
  -9  10   2   -0.08    0.26
  10  -1   2    1.19    0.46
  10  -1   3    0.15    0.35
   1   9   3    0.40    0.38
 -10   1   3    0.09    0.27
  -1  -9   3    0.45    0.36
 -10   1   3    0.11    0.33
   9 -10   3    0.13    0.34
   1   9   3    0.09    0.37
  -9  10   3    0.03    0.27
   9 -10   3    0.24    0.29
   9 -10   4   18.66    1.08
 -10   1   4   19.07    1.04
   9 -10   4   21.82    0.99
   1   9   4   18.92    1.16
  10  -1   4   19.87    1.22
   9 -10   4   20.59    0.86
  10  -1   4   18.42    1.04
  -1  -9   4   17.70    1.03
   1   9   5    0.28    0.41
  10  -1   5   -0.02    0.27
   9 -10   5    0.21    0.40
  -1  -9   5    0.17    0.43
 -10   1   5    0.52    0.42
   1   9   5    0.05    0.47
  10  -1   5   -0.05    0.48
  -1  -9   6    0.32    0.47
 -10   1   6    0.61    0.43
   0 -10  -7    0.04    0.52
   0 -10  -6    1.35    0.49
   0  10  -6    1.08    0.41
  10 -10  -5   -0.03    0.33
   0 -10  -5    0.07    0.37
   0  10  -5    0.03    0.34
  10 -10  -4    9.96    0.70
  10 -10  -4    9.95    0.81
   0 -10  -4   10.25    0.67
  10 -10  -3    0.14    0.33
  10 -10  -3   -0.17    0.39
   0 -10  -3   -0.02    0.27
  10   0  -3   -0.20    0.46
  10 -10  -2    1.31    0.38
   0 -10  -2    0.93    0.24
  10   0  -2    0.76    0.49
  10 -10  -1   -0.07    0.35
  10 -10  -1   -0.28    0.39
   0 -10  -1    0.06    0.15
   0 -10  -1   -0.14    0.29
  10   0  -1    0.21    0.42
  10 -10   0   15.99    0.94
   0 -10   0   16.41    0.86
  10 -10   0   17.16    0.98
  10   0   0   14.93    1.06
   0 -10   0   15.29    0.70
  10   0   1   -0.17    0.35
  10 -10   1    0.20    0.38
   0 -10   1    0.30    0.38
  10 -10   1    0.15    0.39
  10   0   1    0.26    0.44
 -10  10   1    0.02    0.24
  10   0   2    1.22    0.41
   0  10   2    0.93    0.44
  10 -10   2    1.00    0.41
   0 -10   2    0.82    0.36
  10 -10   2    1.09    0.39
 -10   0   2    1.05    0.41
 -10  10   2    0.94    0.30
  10   0   2    0.70    0.50
  10   0   3    1.03    0.42
   0  10   3    0.04    0.41
  10 -10   3    0.21    0.37
 -10   0   3    0.09    0.28
   0 -10   3   -0.04    0.34
 -10   0   3   -0.04    0.36
  10 -10   3   -0.17    0.34
  10   0   3    0.06    0.44
  10 -10   3    0.10    0.37
  10 -10   4    9.12    0.80
 -10   0   4    9.74    0.79
  10 -10   4   11.24    0.71
   0  10   4   11.13    0.86
  10   0   4   10.13    0.82
   0 -10   4   11.13    0.82
   0 -10   5    0.54    0.49
 -10   0   5    0.17    0.40
  10   1  -5    2.21    0.62
   1 -11  -4    1.76    0.41
  11 -10  -4    1.78    0.42
  10   1  -4    1.50    0.56
   1 -11  -3    3.19    0.40
  11 -10  -3    2.92    0.47
  11 -10  -3    3.25    0.56
  10   1  -3    2.89    0.61
  11 -10  -2    6.44    0.63
   1 -11  -2    6.77    0.45
  10   1  -2    6.08    0.76
  11 -10  -1    4.34    0.55
  11 -10  -1    5.64    0.66
   1 -11  -1    3.60    0.45
  10   1  -1    4.85    0.70
  11 -10   0    1.82    0.44
   1 -11   0    2.55    0.42
  11 -10   0    1.20    0.43
  10   1   0    1.96    0.55
   1 -11   1    4.31    0.51
  -1  11   1    4.32    0.62
  11 -10   1    3.20    0.53
  11 -10   1    4.85    0.60
  10   1   1    4.18    0.67
  11 -10   2    6.79    0.67
 -10  -1   2    5.54    0.60
  11 -10   2    5.91    0.62
  10   1   2    7.38    0.84
  -1  11   2    7.11    0.74
   1 -11   2    6.87    0.60
  -1  11   3    2.99    0.56
  11 -10   3    3.82    0.57
   1 -11   3    2.32    0.47
 -10  -1   3    3.17    0.54
  10   1   3    3.22    0.65
  11 -10   3    3.52    0.53
   1 -11   4    0.95    0.45
  11 -10   4    1.72    0.45
   1 -11   5    2.01    0.51
  -2  11  -6    1.16    0.41
   2 -11  -6    0.81    0.50
  -2  11  -5    0.27    0.31
   2 -11  -5   -0.19    0.42
   9   2  -5   -0.22    0.50
  11  -9  -4    6.68    0.56
   2 -11  -4    7.76    0.65
  11  -9  -4    8.51    0.75
  -2  11  -4    7.90    0.52
   9   2  -4    7.40    0.77
  11  -9  -3    0.03    0.32
  11  -9  -3   -0.12    0.38
   2 -11  -3    0.17    0.32
   9   2  -3    0.05    0.44
  11  -9  -2    2.07    0.34
  11  -9  -2    1.77    0.40
  11  -9  -2    2.46    0.47
   9   2  -2    2.68    0.58
  11  -9  -1    0.52    0.33
   2 -11  -1    0.42    0.29
 -11   9  -1    0.20    0.14
   2 -11  -1    0.31    0.27
   9   2  -1    0.10    0.41
  11  -9   0    9.61    0.73
   2 -11   0   10.91    0.64
  11  -9   0   10.59    0.79
   9   2   0   11.24    0.92
   2 -11   0   10.71    0.56
  -2  11   1    0.20    0.38
  11  -9   1    0.34    0.37
   2 -11   1    0.21    0.29
  11  -9   1    0.08    0.39
   9   2   1    0.05    0.43
  -2  11   2    2.32    0.51
  11  -9   2    1.18    0.40
   2 -11   2    2.44    0.41
  -9  -2   2    1.39    0.41
  -2  11   3    0.50    0.42
  11  -9   3    0.04    0.38
   2 -11   3   -0.03    0.34
  -9  -2   3    0.04    0.37
   9   2   3    0.17    0.48
  11  -9   3   -0.12    0.42
  -9  -2   4    6.24    0.69
   9   2   4    7.72    0.89
  11  -9   4    8.15    0.72
  -2  11   4    6.37    0.69
   2 -11   4    7.13    0.63
   9   2   5   -0.06    0.39
   2 -11   5    0.30    0.43
  11  -9   5   -0.07    0.39
  -3  11  -7    0.39    0.45
  -3  11  -6   -0.17    0.34
   3 -11  -6    0.54    0.48
  11  -8  -5    0.51    0.41
   3 -11  -5    0.25    0.40
  -3  11  -5   -0.10    0.29
   8   3  -5    0.04    0.39
  11  -8  -4   23.61    1.17
  -3  11  -4   23.26    0.92
   8   3  -4   22.98    1.19
  11  -8  -4   22.13    0.97
  11  -8  -3    0.22    0.29
  11  -8  -3    0.15    0.39
  -3  11  -3    0.16    0.20
   8   3  -3    0.45    0.39
  11  -8  -2    0.54    0.27
  11  -8  -2    1.02    0.33
  11  -8  -2    1.30    0.41
   8   3  -2    1.10    0.45
  11  -8  -1    0.21    0.22
  11  -8  -1    0.54    0.32
   3 -11  -1    0.15    0.26
   8   3  -1    1.15    0.46
 -11   8   0   38.17    1.12
  11  -8   0   40.60    1.57
   3 -11   0   37.72    1.21
   8   3   0   37.05    1.67
  11  -8   0   39.84    1.14
  -3  11   0   37.52    1.52
   3 -11   0   35.74    1.23
  11  -8   0   33.14    1.42
  -3  11   1    0.67    0.42
  11  -8   1    0.53    0.35
   3 -11   1    0.40    0.27
 -11   8   1    0.29    0.16
   8   3   1    0.46    0.46
   3 -11   1    0.44    0.19
  -3  11   2    1.18    0.41
  11  -8   2    0.67    0.37
 -11   8   2    0.78    0.18
   3 -11   2    0.86    0.28
   8   3   2    0.68    0.44
  11  -8   3    0.27    0.34
   3 -11   3    0.34    0.32
   8   3   3    0.66    0.47
  11  -8   3    0.04    0.43
  -3  11   3    0.54    0.40
   8   3   4   21.80    1.34
  11  -8   4   25.25    1.24
  -3  11   4   23.88    1.21
   8   3   5    0.34    0.40
  11  -8   5   -0.31    0.46
   8   3   6    0.20    0.40
  11  -8   6    0.14    0.39
   3 -11   7    0.23    0.39
  -4  11  -7    0.33    0.44
  11  -7  -6    1.51    0.47
  -4  11  -6    0.61    0.36
  11  -7  -5    0.45    0.44
  -4  11  -5    0.37    0.32
  11  -7  -4   11.87    0.82
  -4  11  -4   11.94    0.62
   7   4  -4   11.50    0.81
  11  -7  -4   11.35    0.65
  11  -7  -3    0.80    0.32
  11  -7  -3    1.01    0.40
  -4  11  -3    1.18    0.25
   7   4  -3    1.01    0.43
  11  -7  -2    2.04    0.36
  11  -7  -2    1.71    0.41
   7   4  -2    1.79    0.44
  -4  11  -2    2.05    0.20
  11  -7  -2    1.77    0.31
  -4  11  -1    1.97    0.41
  11  -7  -1    1.58    0.38
   4 -11  -1    1.56    0.32
   7   4  -1    2.05    0.49
  11  -7  -1    2.03    0.28
   4 -11   0   17.50    0.72
   7   4   0   20.29    1.16
  11  -7   0   18.65    0.67
  -4  11   0   19.32    0.96
  11  -7   0   16.29    0.89
  -4  11   1    1.11    0.40
  11  -7   1    1.55    0.39
   4 -11   1    1.95    0.26
 -11   7   1    1.53    0.27
  11  -7   1    2.12    0.21
   7   4   1    1.46    0.46
   4 -11   1    1.82    0.24
  -4  11   2    1.22    0.39
  11  -7   2    1.86    0.43
 -11   7   2    1.50    0.27
  -7  -4   2    1.44    0.41
   4 -11   2    1.29    0.12
   7   4   2    1.89    0.51
  11  -7   2    2.27    0.51
  11  -7   3    0.76    0.38
 -11   7   3    1.11    0.26
  -7  -4   3    2.06    0.47
   4 -11   3    1.31    0.30
   7   4   3    1.41    0.51
  11  -7   3    1.39    0.50
  -4  11   3    1.50    0.42
  -7  -4   4   12.04    0.88
   4 -11   4   13.46    0.70
   7   4   4   13.24    1.04
  -4  11   4   12.14    0.84
  11  -7   4   10.49    0.85
 -11   7   4   11.79    0.62
  11  -7   4   10.78    0.81
   7   4   5    0.57    0.44
  -7  -4   5    0.99    0.48
   4 -11   5    0.87    0.28
   7   4   5    0.60    0.54
  11  -7   5    0.92    0.48
  -4  11   5    0.61    0.43
   7   4   6    1.58    0.46
   4 -11   6    1.06    0.43
  11  -7   6    0.98    0.48
   4 -11   7    0.28    0.43
  11  -7   7    0.22    0.45
   7   4   7    0.42    0.47
  11  -6  -4    0.77    0.29
   6   5  -4    2.22    0.42
  -5  11  -3    7.92    0.47
   6   5  -3    9.13    0.70
  -5  11  -3    7.40    0.55
  11  -6  -3    8.28    0.56
  -5  11  -2   22.25    0.73
  11  -6  -2   22.26    0.89
   6   5  -2   24.04    1.16
  -5  11  -2   22.88    0.99
  11  -6  -2   22.00    0.98
   5 -11  -1   11.57    0.64
  11  -6  -1   11.96    0.56
   6   5  -1   11.89    0.83
  -5  11  -1   10.02    0.64
  11  -6  -1   11.16    0.70
  -5  11   0    0.60    0.29
  11  -6   0    0.78    0.32
   5 -11   0    0.91    0.26
   6   5   0    0.61    0.40
  11  -6   0    0.71    0.21
 -11   6   1   10.63    0.60
   5 -11   1   11.75    0.52
   6   5   1   11.94    0.90
  11  -6   1   13.09    0.48
  -5  11   1   11.01    0.71
  11  -6   1   10.78    0.73
 -11   6   2   21.04    0.89
  -6  -5   2   23.07    1.14
   6   5   2   23.49    1.27
   5 -11   2   20.24    0.64
  -5  11   2   21.93    1.04
  11  -6   2   21.41    1.20
  11  -6   2   21.31    1.05
 -11   6   3    7.59    0.53
  -6  -5   3    7.85    0.71
   5 -11   3   10.26    0.66
   5 -11   3    8.89    0.58
   6   5   3    8.55    0.83
  -5  11   3    7.41    0.64
  11  -6   3    9.46    0.83
  11  -6   3    7.66    0.67
  -6  -5   4    1.08    0.31
  11  -6   4    0.79    0.40
 -11   6   4    0.84    0.31
  -6  -5   4    0.64    0.46
   5 -11   4    0.66    0.31
   5 -11   4    0.54    0.33
   6   5   4    0.80    0.51
  11  -6   4    0.46    0.43
  -5  11   4    0.99    0.40
   6   5   5    4.34    0.58
   5 -11   5    4.53    0.41
  -6  -5   5    4.51    0.65
   6   5   5    5.01    0.77
  11  -6   5    5.34    0.66
  -5  11   5    5.08    0.60
 -11   6   5    4.19    0.46
   5 -11   6    9.32    0.77
  11  -6   6    8.54    0.79
   6   5   6    8.50    0.74
 -11   6   6    8.66    0.63
   5 -11   7    1.61    0.46
  11  -6   7    1.24    0.53
  11  -5  -4    0.47    0.27
  -6  11  -3    2.14    0.31
  11  -5  -3    2.97    0.39
   5   6  -3    3.09    0.43
  -5  -6  -2   20.95    0.86
  11  -5  -2   24.92    0.97
   5   6  -2   25.23    1.12
  -6  11  -2   22.53    0.93
  11  -5  -2   23.60    1.00
  11  -5  -1    2.80    0.41
  -6  11  -1    3.16    0.20
   6 -11  -1    3.95    0.41
  11  -5  -1    3.33    0.36
  -5  -6  -1    3.10    0.35
   5   6  -1    3.20    0.48
  -6  11  -1    3.08    0.38
  11  -5   0    0.40    0.32
  -5  -6   0    0.30    0.26
   6 -11   0    0.57    0.26
   5   6   0    0.20    0.34
  11  -5   0    0.17    0.20
  -6  11   0    0.34    0.25
  11  -5   1    2.86    0.44
   6 -11   1    2.94    0.31
  11  -5   1    3.39    0.27
  -6  11   1    3.77    0.43
  -5  -6   1    3.05    0.41
   5   6   1    3.89    0.57
  11  -5   1    3.41    0.59
 -11   5   2   23.45    1.02
  -5  -6   2   26.01    1.24
   6 -11   2   30.58    1.21
   6 -11   2   24.03    0.79
   5   6   2   26.66    1.37
  11  -5   2   26.55    0.75
  -6  11   2   23.03    1.07
  11  -5   2   26.21    1.34
  11  -5   2   22.21    1.11
  11  -5   3    2.52    0.47
 -11   5   3    2.30    0.39
  -5  -6   3    1.88    0.48
   6 -11   3    2.80    0.42
   5   6   3    2.59    0.58
  11  -5   3    2.11    0.53
  -6  11   3    2.72    0.46
  11  -5   4    1.07    0.41
   5   6   4    0.56    0.43
 -11   5   4    0.46    0.29
  -5  -6   4    0.68    0.43
   6 -11   4    0.60    0.30
   5   6   4    0.92    0.50
  11  -5   4    0.15    0.45
  -6  11   4    0.57    0.41
   5   6   5    0.84    0.44
   6 -11   5    1.79    0.50
 -11   5   5    1.59    0.40
  -5  -6   5    1.09    0.51
   6 -11   5    1.39    0.30
   5   6   5    1.02    0.54
  11  -5   5    0.96    0.50
  -6  11   5    0.99    0.40
   6 -11   6   10.13    0.82
  11  -5   6   10.51    0.87
   5   6   6   10.55    0.80
 -11   5   6    9.56    0.72
 -11   5   7    0.88    0.43
   4   7  -3    6.64    0.51
  11  -4  -3    6.32    0.50
   4   7  -2   22.13    0.99
  -7  11  -2   19.77    0.81
  11  -4  -2   21.26    0.94
  11  -4  -1    7.64    0.52
   7 -11  -1    8.95    0.57
   4   7  -1    7.67    0.64
  -7  11  -1    8.24    0.51
  11  -4  -1    8.15    0.59
  11  -4   0    0.68    0.33
   7 -11   0    0.85    0.40
  -4  -7   0    0.41    0.26
   7 -11   0    0.73    0.27
   4   7   0    0.37    0.33
  -7  11   0    0.70    0.11
  11  -4   0    0.38    0.24
  -7  11   0    0.82    0.28
  -4  -7   1    9.29    0.71
   7 -11   1    9.57    0.70
  11  -4   1    8.26    0.46
   7 -11   1    8.63    0.49
   4   7   1    8.40    0.72
  -7  11   1    7.62    0.56
  11  -4   1    8.53    0.80
  11  -4   1    7.44    0.62
  -4  -7   2   20.00    1.09
 -11   4   2   20.20    0.94
   7 -11   2   23.51    1.08
  11  -4   2   21.07    0.72
   7 -11   2   20.49    0.74
   4   7   2   22.56    1.21
  -7  11   2   20.42    0.97
  11  -4   2   20.10    1.22
  11  -4   2   19.29    1.02
 -11   4   3    5.21    0.52
  -4  -7   3    5.41    0.63
   7 -11   3    6.47    0.56
   4   7   3    6.35    0.73
  -7  11   3    4.87    0.54
  11  -4   3    6.15    0.72
   7 -11   3    5.92    0.34
  11  -4   3    5.79    0.61
  11  -4   4    0.99    0.42
   4   7   4    1.05    0.45
   7 -11   4    0.94    0.45
 -11   4   4    0.99    0.38
  -4  -7   4    0.98    0.46
   7 -11   4    1.09    0.33
   4   7   4    0.78    0.48
  11  -4   4    0.92    0.53
  -7  11   4    0.69    0.39
   4   7   5    3.00    0.53
   7 -11   5    3.55    0.58
 -11   4   5    4.01    0.51
  -4  -7   5    3.04    0.56
   7 -11   5    3.65    0.41
   4   7   5    2.89    0.66
  11  -4   5    3.33    0.64
  -7  11   5    3.76    0.52
   7 -11   6    9.08    0.80
 -11   4   6    7.14    0.66
 -11   4   7    0.84    0.44
  -3  -8  -6    5.84    0.62
  -3  -8  -5    4.30    0.50
   8 -11  -4    2.09    0.53
   8 -11  -3    7.11    0.73
  11  -3  -3    7.40    0.54
   8 -11  -2   13.17    0.90
   3   8  -2   11.47    0.66
  11  -3  -2   11.88    0.70
   8 -11  -1   10.28    0.80
   3   8  -1    8.80    0.64
  -8  11  -1    9.30    0.52
  11  -3   0    1.94    0.40
   8 -11   0    3.16    0.50
  -8  11   0    2.78    0.24
   8 -11   0    2.52    0.37
   3   8   0    2.41    0.44
  11  -3   0    2.84    0.55
  -8  11   0    2.05    0.32
  -3  -8   1    9.45    0.72
  -8  11   1    9.22    0.36
   8 -11   1   10.44    0.56
   3   8   1    8.92    0.73
  -8  11   1    9.81    0.60
  11  -3   1    8.99    0.68
  -3  -8   2   11.80    0.85
 -11   3   2   11.22    0.72
   8 -11   2   13.26    0.82
   8 -11   2   11.70    0.56
  -8  11   2   10.53    0.67
   3   8   2   12.04    0.87
  11  -3   2   12.65    0.97
  11  -3   2   10.57    0.76
  -3  -8   3    6.46    0.67
   8 -11   3    7.10    0.72
 -11   3   3    5.76    0.58
   8 -11   3    7.84    0.64
  -8  11   3    6.97    0.59
   3   8   3    6.80    0.73
  11  -3   3    7.10    0.79
   8 -11   3    7.60    0.47
  11  -3   3    7.20    0.67
  11  -3   4    2.67    0.49
   3   8   4    1.84    0.50
   8 -11   4    1.59    0.51
  -3  -8   4    1.71    0.50
 -11   3   4    2.08    0.46
   8 -11   4    2.48    0.42
   3   8   4    2.67    0.61
  11  -3   4    1.39    0.54
  -8  11   4    1.61    0.42
   8 -11   5    4.56    0.62
   8 -11   5    4.68    0.46
  -3  -8   5    3.68    0.60
 -11   3   5    3.78    0.56
   3   8   5    4.70    0.74
  11  -3   5    3.61    0.67
  -8  11   5    3.67    0.55
 -11   3   6    5.35    0.65
   2   9  -6    0.50    0.45
   9 -11  -4   14.87    1.00
  11  -2  -3    0.18    0.30
   9 -11  -3    0.18    0.39
  11  -2  -2   -0.08    0.32
  11  -2  -1    0.57    0.36
   9 -11  -1    0.08    0.39
   2   9  -1    0.31    0.29
  11  -2  -1    0.80    0.51
  -2  -9   0   20.90    1.05
   9 -11   0   21.54    1.13
  -9  11   0   19.22    0.83
   2   9   0   21.27    1.01
  11  -2   0   20.82    1.26
  11  -2   0   21.55    1.02
  11  -2   1    0.34    0.35
   9 -11   1    0.74    0.45
  -2  -9   1    0.63    0.39
   9 -11   1    0.38    0.41
   2   9   1    0.30    0.37
  -9  11   1    0.65    0.30
  11  -2   1    0.59    0.48
  11  -2   2    0.18    0.36
   9 -11   2    0.79    0.45
  -2  -9   2    0.67    0.43
 -11   2   2   -0.10    0.31
   9 -11   2    0.18    0.39
   2   9   2   -0.04    0.36
  -9  11   2    0.28    0.29
  11  -2   3    0.43    0.37
  -2  -9   3   -0.04    0.42
 -11   2   3    0.11    0.37
   9 -11   3    0.14    0.39
   2   9   3    0.39    0.43
  -9  11   3    0.22    0.34
   9 -11   3    0.16    0.29
   9 -11   4   13.49    0.95
 -11   2   4   12.01    0.83
   9 -11   4   14.37    0.81
  -9  11   4   14.06    0.85
   2   9   4   12.69    1.02
  11  -2   4   14.09    1.08
   2   9   4   13.09    0.93
  11  -2   4   12.64    0.89
  -2  -9   4   12.41    0.92
  -2  -9   5    0.18    0.48
 -11   2   5   -0.04    0.37
  -9  11   5   -0.34    0.44
   1  10  -6    0.03    0.42
  10 -11  -5   -0.24    0.38
  10 -11  -4   14.73    0.90
  10 -11  -3    0.19    0.38
  10 -11  -3    0.72    0.48
  10 -11  -2    0.24    0.37
  11  -1  -2    0.65    0.49
  11  -1  -1    0.48    0.37
  10 -11  -1    0.04    0.40
  10 -11  -1    0.17    0.39
  11  -1  -1    0.39    0.48
  10 -11   0   20.53    1.14
  -1 -10   0   22.68    1.11
  10 -11   0   25.05    1.24
   1  10   0   22.92    1.02
  11  -1   0   22.22    1.34
  11  -1   0   24.04    1.12
  11  -1   1   -0.04    0.37
  10 -11   1    0.22    0.40
  -1 -10   1    0.04    0.38
  10 -11   1    0.36    0.41
   1  10   1    0.28    0.33
  11  -1   1    0.67    0.46
  11  -1   2    0.76    0.40
  10 -11   2    0.67    0.45
  -1 -10   2    0.34    0.41
  10 -11   2    0.77    0.43
 -11   1   2    0.18    0.36
   1  10   2    0.33    0.39
  11  -1   2    0.63    0.52
  11  -1   3    0.24    0.41
   1  10   3   -0.05    0.48
  -1 -10   3    0.24    0.40
 -11   1   3    0.04    0.37
  10 -11   3    0.25    0.41
   1  10   3    0.42    0.44
  10 -11   3   -0.41    0.38
 -11   1   4   13.24    0.92
   1  10   4   13.65    1.04
  -1 -10   4   15.01    0.96
  -1 -10   5    0.18    0.46
  11 -11  -4    1.89    0.46
  11 -11  -3    0.79    0.42
  11   0  -3    0.44    0.51
  11 -11  -2    2.57    0.50
  11   0  -2    4.27    0.69
  11 -11  -1    0.91    0.43
   0 -11  -1    1.39    0.39
  11 -11  -1    0.71    0.46
  11   0  -1    0.68    0.50
  11 -11   0    2.70    0.52
   0 -11   0    3.04    0.48
  11 -11   0    2.84    0.56
  11   0   0    3.05    0.65
  11 -11   1    0.45    0.43
   0 -11   1    1.06    0.42
  11 -11   1    0.80    0.47
  11   0   1    1.63    0.58
   0 -11   2    3.15    0.53
  11 -11   2    3.36    0.56
 -11   0   2    3.31    0.51
   0 -11   3    0.67    0.45
  11 -11   3    0.84    0.44
   0 -11   4    1.37    0.50
  12 -11  -3    0.98    0.46
  12 -11   3    1.94    0.56
  10   2  -4    0.56    0.54
  12 -10  -3    0.88    0.39
  10   2  -3    1.73    0.62
  12 -10  -2    4.49    0.57
  10   2  -2    5.72    0.76
  12 -10  -1    0.72    0.38
  10   2  -1    1.99    0.60
  -2  12   0    0.60    0.47
  12 -10   0    0.24    0.38
  12 -10   0    0.79    0.43
  10   2   0    0.68    0.54
  -2  12   1    1.93    0.59
  12 -10   1    1.87    0.46
  10   2   1    0.87    0.57
  12 -10   3    2.00    0.55
  12 -10   4    0.40    0.45
   3 -12  -5    0.08    0.41
   9   3  -4    6.02    0.71
   3 -12  -4    6.45    0.63
  12  -9  -3    0.25    0.35
   9   3  -3    0.05    0.45
  12  -9  -2    0.10    0.33
  12  -9  -2    0.26    0.39
   9   3  -2   -0.15    0.48
  -3  12  -1    0.41    0.42
  12  -9  -1    0.39    0.36
   9   3  -1   -0.16    0.46
   9   3   0   11.26    0.96
  -3  12   0   10.26    0.83
  12  -9   0    9.68    0.74
  -3  12   1    0.64    0.45
  12  -9   1    0.43    0.40
   9   3   1    0.67    0.51
  -3  12   2    0.21    0.42
  12  -9   2   -0.12    0.38
   9   3   2    0.46    0.48
  12  -9   2    0.29    0.52
  12  -9   3    0.23    0.53
  12  -9   4    7.61    0.77
   9   3   5    0.62    0.48
  12  -9   5   -0.04    0.45
   8   4  -4   10.86    0.85
  12  -8  -3    0.20    0.34
  12  -8  -3    0.12    0.41
   8   4  -3   -0.09    0.46
  -4  12  -2    0.11    0.34
  12  -8  -2    0.69    0.36
   8   4  -2    0.47    0.46
  -4  12  -1    0.40    0.40
  12  -8  -1   -0.23    0.38
   8   4  -1   -0.10    0.47
 -12   8   0   15.85    0.66
   8   4   0   16.07    1.10
  -4  12   0   14.96    0.92
  12  -8   0   12.98    0.84
  -4  12   1   -0.23    0.40
  12  -8   1    0.11    0.35
   8   4   1   -0.05    0.49
  12  -8   2   -0.20    0.38
  -8  -4   2    0.41    0.40
   8   4   2    0.50    0.50
  12  -8   2    0.49    0.49
  -4  12   2    0.20    0.42
   8   4   3    0.23    0.50
  12  -8   3    0.44    0.50
  -4  12   3   -0.25    0.43
   4 -12   4   11.10    0.69
  12  -8   4   11.79    0.94
   8   4   5    0.53    0.49
  12  -8   5   -0.18    0.52
  12  -8   6   -0.12    0.47
  -5  12  -3    0.79    0.37
  12  -7  -3    0.42    0.31
   7   5  -3    0.84    0.40
  12  -7  -2    4.14    0.48
  -5  12  -2    4.58    0.51
   7   5  -2    4.30    0.59
  -5  12  -1    0.90    0.37
  12  -7  -1    0.80    0.36
   7   5  -1    0.87    0.44
  -5  12   0    4.01    0.51
   7   5   0    3.52    0.60
  12  -7   0    5.05    0.54
  12  -7   1    0.51    0.39
 -12   7   1    0.29    0.26
   7   5   1    0.26    0.47
  -5  12   1    0.49    0.40
 -12   7   2    4.84    0.42
  -7  -5   2    5.39    0.62
   7   5   2    4.98    0.71
  12  -7   2    4.56    0.68
  12  -7   2    4.96    0.58
  -5  12   2    3.48    0.52
  12  -7   3    0.08    0.38
 -12   7   3    0.45    0.28
  -7  -5   3    0.58    0.43
   5 -12   3    0.49    0.34
   7   5   3    0.23    0.49
  12  -7   3    0.56    0.54
  -5  12   3    0.58    0.40
   5 -12   4    2.84    0.43
  12  -7   4    3.79    0.67
  -5  12   4    2.51    0.55
   7   5   5    0.28    0.44
  12  -7   5    0.43    0.51
  12  -6  -3    1.84    0.38
   6   6  -3    1.42    0.40
   6   6  -2    6.44    0.64
  -6  12  -2    5.16    0.48
  12  -6  -2    6.01    0.55
  12  -6  -1    1.94    0.39
   6 -12  -1    2.32    0.36
   6   6  -1    2.39    0.50
  -6  12  -1    2.03    0.36
  12  -6   0    3.12    0.48
   6   6   0    2.64    0.54
  -6  12   0    2.63    0.41
  12  -6   1    2.34    0.46
 -12   6   1    2.10    0.35
   6   6   1    2.08    0.55
  12  -6   1    2.34    0.57
  -6  12   1    2.15    0.41
 -12   6   2    6.55    0.54
  -6  -6   2    6.22    0.67
   6 -12   2    7.78    0.68
  -6  12   2    5.78    0.59
  12  -6   2    7.23    0.81
   6   6   2    6.83    0.80
  12  -6   2    6.46    0.63
  12  -6   3    2.59    0.49
 -12   6   3    1.12    0.32
  -6  -6   3    1.36    0.48
   6 -12   3    1.72    0.42
   6   6   3    1.08    0.56
  12  -6   3    1.16    0.52
  -6  12   3    1.60    0.43
 -12   6   4    1.91    0.39
   6 -12   4    2.19    0.42
   6   6   4    2.40    0.64
  12  -6   4    1.81    0.55
  -6  12   4    2.05    0.49
  12  -6   5    0.56    0.54
  12  -5  -3    0.11    0.30
  12  -5  -2    3.13    0.44
   5   7  -2    4.56    0.53
  12  -5  -1   -0.06    0.33
   5   7  -1    0.11    0.37
  12  -5  -1    0.04    0.26
  -7  12  -1    0.02    0.27
   7 -12   0    7.00    0.70
   5   7   0    6.22    0.66
  -7  12   0    5.06    0.48
  12  -5   1   -0.04    0.35
 -12   5   1    0.03    0.29
  -5  -7   1    0.08    0.39
   7 -12   1    0.04    0.39
   5   7   1   -0.19    0.39
  12  -5   1   -0.22    0.49
  -7  12   1   -0.33    0.30
  12  -5   2    3.19    0.50
 -12   5   2    3.59    0.45
  -5  -7   2    3.85    0.58
   7 -12   2    4.43    0.56
   5   7   2    3.67    0.63
  12  -5   2    4.31    0.67
  -7  12   2    3.15    0.48
  12  -5   3   -0.24    0.41
 -12   5   3   -0.24    0.32
  -5  -7   3   -0.14    0.40
   7 -12   3   -0.03    0.36
   5   7   3    0.56    0.55
  12  -5   3    0.22    0.52
  -7  12   3   -0.11    0.36
   5   7   4    2.82    0.56
 -12   5   4    3.25    0.47
   7 -12   4    3.91    0.47
   5   7   4    4.18    0.75
  12  -5   4    4.38    0.71
  -7  12   4    3.60    0.53
 -12   5   5   -0.07    0.40
  12  -4  -3    0.78    0.33
   8 -12  -2    5.38    0.67
  12  -4  -2    4.74    0.51
  12  -4  -1    0.44    0.36
   8 -12  -1    0.58    0.46
   4   8  -1    0.68    0.38
  12  -4   0    3.83    0.52
   8 -12   0    4.07    0.62
   4   8   0    2.70    0.50
  -8  12   0    3.08    0.38
  12  -4   1    0.28    0.36
  -4  -8   1    0.32    0.39
   8 -12   1    0.51    0.41
   4   8   1    0.70    0.45
  12  -4   1   -0.06    0.51
  -8  12   1    0.28    0.31
  12  -4   2    3.74    0.53
 -12   4   2    4.60    0.50
   8 -12   2    5.33    0.62
  -4  -8   2    4.64    0.61
   4   8   2    4.52    0.64
  12  -4   2    3.66    0.69
  -8  12   2    4.14    0.49
  12  -4   3    0.68    0.40
   8 -12   3    0.33    0.48
  -4  -8   3    0.82    0.45
 -12   4   3    0.44    0.37
   8 -12   3    0.91    0.41
   4   8   3    0.16    0.50
  12  -4   3    0.90    0.51
  -8  12   3    0.64    0.40
 -12   4   4    2.49    0.50
   8 -12   4    3.03    0.48
   4   8   4    2.12    0.62
  -8  12   4    1.73    0.46
 -12   4   5   -0.04    0.40
 -12   4   6    1.99    0.49
   9 -12  -2    4.00    0.63
  12  -3  -2    4.69    0.52
  12  -3  -1    0.58    0.37
   9 -12  -1    0.13    0.43
  12  -3  -1    0.12    0.47
  12  -3   0    2.44    0.46
  -3  -9   0    2.41    0.46
   9 -12   0    2.57    0.54
   3   9   0    1.60    0.40
  12  -3   0    2.58    0.62
  12  -3   1    0.47    0.40
   9 -12   1    0.14    0.42
  -3  -9   1    0.16    0.42
   9 -12   1    0.61    0.43
   3   9   1    0.04    0.43
  -9  12   1    0.32    0.29
  12  -3   2    4.09    0.55
   9 -12   2    5.27    0.67
  -3  -9   2    4.36    0.62
 -12   3   2    3.69    0.51
   9 -12   2    5.01    0.61
   3   9   2    5.31    0.67
  -9  12   2    4.10    0.50
  -3  -9   3    0.80    0.51
 -12   3   3    0.04    0.39
   9 -12   3    0.57    0.44
   3   9   3    1.04    0.54
  -9  12   3   -0.03    0.36
 -12   3   4    1.57    0.49
   9 -12   4    1.59    0.43
   3   9   4    2.17    0.64
  -9  12   4    1.68    0.45
 -12   3   5    0.20    0.43
  12  -2  -2    2.12    0.45
  10 -12  -2    1.86    0.52
  12  -2  -1    0.23    0.35
  10 -12  -1    0.69    0.44
  12  -2   0    2.42    0.47
  10 -12   0    3.00    0.57
  -2 -10   0    2.96    0.49
  10 -12   0    2.94    0.59
  12  -2   1    1.13    0.44
  -2 -10   1    0.32    0.40
  10 -12   1    0.30    0.45
   2  10   1    1.26    0.45
  -2 -10   2    2.49    0.54
 -12   2   2    2.59    0.50
  10 -12   2    3.67    0.59
   2  10   2    2.83    0.56
  -2 -10   3    0.39    0.44
 -12   2   3    0.23    0.39
  10 -12   3    0.75    0.45
   2  10   3    0.40    0.51
 -10  12   3    0.23    0.36
  10 -12   4    1.93    0.45
  -1 -11  -1    0.32    0.40
  -1 -11   0    0.53    0.41
  -1 -11   1    0.12    0.40
  -1 -11   2    3.45    0.59
  -1 -11   3    0.21    0.43
  11 -12   3   -0.12    0.46
  13 -11   2    1.50    0.60
  -3  13  -2    4.72    0.68
  13 -10   2    6.44    0.80
  13 -10   3    0.39    0.51
  13  -9  -3    0.16    0.36
   9   4  -3    0.53    0.51
  -4  13  -2    3.55    0.58
  13  -9  -2    2.81    0.53
   9   4  -2    3.22    0.64
  -4  13  -1   -0.08    0.43
  13  -9  -1    0.15    0.37
   9   4  -1    0.05    0.48
  -4  13   0    0.89    0.46
   9   4   0    0.61    0.54
  -4  13   1   -0.09    0.46
  13  -9   2    4.26    0.73
  13  -9   3    0.15    0.56
  -5  13  -2    4.03    0.56
  13  -8  -2    3.15    0.52
   8   5  -2    3.28    0.64
  -5  13  -1    1.71    0.45
  13  -8  -1    1.90    0.45
   8   5  -1    2.40    0.55
  -5  13   0    1.39    0.49
  13  -8   0    0.85    0.40
   8   5   0    1.11    0.53
   8   5   1    2.47    0.64
  -5  13   1    2.67    0.51
  13  -8   2    4.05    0.73
  -5  13   2    4.14    0.61
   5 -13   3    1.80    0.47
  13  -7  -2    3.10    0.48
   7   6  -2    3.67    0.56
  13  -7  -1    1.98    0.48
   7   6  -1    2.41    0.55
  -6  13  -1    2.54    0.45
  13  -7   0    2.06    0.46
 -13   7   0    1.84    0.35
   7   6   0    1.75    0.54
  -6  13   0    1.84    0.46
  13  -7   1    1.99    0.49
   7   6   1    2.52    0.64
  -6  13   1    2.13    0.49
   7   6   2    2.24    0.64
  -6  13   2    2.54    0.51
   6 -13   3    1.73    0.47
  13  -6  -2    0.44    0.36
  13  -6  -1   -0.03    0.35
   6   7  -1    0.30    0.43
   6   7   0    9.13    0.81
  -7  13   0    8.55    0.66
  13  -6   0   10.47    0.78
  13  -6   1    0.19    0.43
 -13   6   1    0.06    0.30
   7 -13   1   -0.17    0.47
   6   7   1    0.51    0.47
  -7  13   1    0.27    0.35
 -13   6   2   -0.03    0.34
   7 -13   2    0.23    0.44
   6   7   2    0.11    0.52
  -7  13   2    0.25    0.36
   7 -13   3   -0.03    0.39
  -7  13   3    0.15    0.44
  13  -5  -2    0.06    0.39
  13  -5  -1    0.14    0.36
   5   8   0   12.08    0.91
  13  -5   0   10.76    0.81
  13  -5   1    0.12    0.40
 -13   5   1    0.31    0.32
   8 -13   1    0.42    0.48
   5   8   1    0.05    0.47
  -8  13   1    0.40    0.35
 -13   5   2    0.10    0.36
   8 -13   2    0.39    0.43
   5   8   2    0.21    0.51
  -8  13   2    0.07    0.38
 -13   5   3    0.49    0.39
   8 -13   3    0.11    0.43
  -8  13   3   -0.07    0.40
   8 -13   4    7.85    0.69
 -13   5   4    8.58    0.72
  13  -4  -2    2.50    0.47
  13  -4  -1    3.14    0.51
  13  -4   0    1.88    0.47
  -4  -9   0    1.71    0.47
 -13   4   1    1.75    0.43
   9 -13   1    1.25    0.50
   4   9   1    1.68    0.52
 -13   4   2    1.56    0.45
   9 -13   2    2.68    0.55
   4   9   2    2.84    0.58
 -13   4   3    1.52    0.48
   9 -13   3    1.26    0.48
  -9  13   3    0.93    0.45
 -13   4   4    1.18    0.47
   9 -13   4    1.28    0.46
  13  -3  -1    1.96    0.47
  -3 -10   0   -0.04    0.40
 -13   3   1    2.13    0.49
 -13   3   2    4.57    0.64
  -2 -11   0    0.08    0.41
   7   7   0    1.37    0.56
   6   8   1   -0.05    0.56
 -14   5   1   -0.03    0.39
   0   0   0    0.00    0.00
;
_shelx_hkl_checksum              57227
loop_
_space_group_symop_operation_xyz
'x, y, z'
'-y, x-y, z'
'-x+y, -x, z'
'-x, -y, z+1/2'
'y, -x+y, z+1/2'
'x-y, x, z+1/2'
'-x, -y, -z'
'y, -x+y, -z'
'x-y, x, -z'
'x, y, -z-1/2'
'-y, x-y, -z-1/2'
'-x+y, -x, -z-1/2'
loop_
_atom_site_label
_atom_site_type_symbol
_atom_site_fract_x
_atom_site_fract_y
_atom_site_fract_z
_atom_site_U_iso_or_equiv
_atom_site_adp_type
_atom_site_occupancy
_atom_site_site_symmetry_order
_atom_site_calc_flag
_atom_site_refinement_flags_posn
_atom_site_refinement_flags_adp
_atom_site_refinement_flags_occupancy
C2 C 0.415(4) 0.659(5) 0.084(4) 0.070(6) Uani 0.1667 1 d D U P
H2A H 0.3603 0.6664 -0.0133 0.106 Uiso 0.1667 1 d R U P
H2B H 0.5214 0.7456 0.0828 0.106 Uiso 0.1667 1 d R U P
H2C H 0.4155 0.5618 0.0808 0.106 Uiso 0.1667 1 d R U P
C1 C 0.4794(14) 0.6494(18) 0.2500 0.105(3) Uani 1 2 d DS TU P
H1A H 0.5096 0.6450 0.3640 0.157 Uiso 0.5 1 d R U P
H1B H 0.4575 0.5548 0.1920 0.157 Uiso 0.5 1 d R U P
H1C H 0.5635 0.7385 0.1940 0.157 Uiso 0.5 1 d R U P
N1 N 0.3333 0.6667 0.2500 0.049(2) Uani 1 6 d DS TU P
Pb1 Pb 1.0000 1.0000 0.0000 0.04390(19) Uani 1 6 d S T P
I1 I 0.87306(7) 0.70086(6) 0.2500 0.0568(2) Uani 1 2 d S T P
loop_
_atom_site_aniso_label
_atom_site_aniso_U_11
_atom_site_aniso_U_22
_atom_site_aniso_U_33
_atom_site_aniso_U_23
_atom_site_aniso_U_13
_atom_site_aniso_U_12
C2 0.054(11) 0.081(12) 0.080(11) -0.010(11) 0.015(9) 0.037(9)
C1 0.085(7) 0.115(8) 0.119(9) 0.000 0.000 0.054(6)
N1 0.047(3) 0.047(3) 0.052(5) 0.000 0.000 0.0235(14)
Pb1 0.0517(2) 0.0517(2) 0.0283(2) 0.000 0.000 0.02584(11)
I1 0.0677(3) 0.0462(3) 0.0530(3) 0.000 0.000 0.0259(2)
loop_
_atom_type_symbol
_atom_type_description
_atom_type_scat_dispersion_real
_atom_type_scat_dispersion_imag
_atom_type_scat_source
C C 0.0033 0.0016 'International Tables Vol C Tables 4.2.6.8 and 6.1.1.4'
H H 0.0000 0.0000 'International Tables Vol C Tables 4.2.6.8 and 6.1.1.4'
N N 0.0061 0.0033 'International Tables Vol C Tables 4.2.6.8 and 6.1.1.4'
I I -0.4742 1.8119 'International Tables Vol C Tables 4.2.6.8 and 6.1.1.4'
Pb Pb -3.3944 10.1111 'International Tables Vol C Tables 4.2.6.8 and 6.1.1.4'
loop_
_geom_angle_atom_site_label_1
_geom_angle_atom_site_label_2
_geom_angle_atom_site_label_3
_geom_angle
_geom_angle_site_symmetry_1
_geom_angle_site_symmetry_3
C2 C2 C2 59.999(7) 3_565 2_665
C2 C2 C1 112.7(18) 3_565 .
C2 C2 C1 114.2(19) 2_665 .
C2 C2 N1 62.3(12) 3_565 .
C2 C2 N1 62.3(12) 2_665 .
C1 C2 N1 59.8(11) . .
C2 C1 C2 125.2(19) . 10_556
C2 C1 N1 62.6(9) . .
C2 C1 N1 62.6(9) 10_556 .
C1 N1 C1 120.000(2) . 2_665
C1 N1 C1 120.000(2) . 3_565
C1 N1 C1 120.000(3) 2_665 3_565
C1 N1 C2 57.6(15) . 10_556
C1 N1 C2 104.9(17) 2_665 10_556
C1 N1 C2 106.2(15) 3_565 10_556
C1 N1 C2 57.6(15) . .
C1 N1 C2 104.9(17) 2_665 .
C1 N1 C2 106.2(15) 3_565 .
C2 N1 C2 115(3) 10_556 .
C1 N1 C2 104.9(17) . 3_565
C1 N1 C2 106.2(15) 2_665 3_565
C1 N1 C2 57.6(15) 3_565 3_565
C2 N1 C2 148.9(13) 10_556 3_565
C2 N1 C2 55(2) . 3_565
C1 N1 C2 104.9(17) . 12_566
C1 N1 C2 106.2(15) 2_665 12_566
C1 N1 C2 57.6(15) 3_565 12_566
C2 N1 C2 55(2) 10_556 12_566
C2 N1 C2 148.9(13) . 12_566
C2 N1 C2 115(3) 3_565 12_566
C1 N1 C2 106.2(15) . 11_666
C1 N1 C2 57.6(15) 2_665 11_666
C1 N1 C2 104.9(17) 3_565 11_666
C2 N1 C2 55(2) 10_556 11_666
C2 N1 C2 148.9(13) . 11_666
C2 N1 C2 148.9(13) 3_565 11_666
C2 N1 C2 55(2) 12_566 11_666
C1 N1 C2 106.2(15) . 2_665
C1 N1 C2 57.6(15) 2_665 2_665
C1 N1 C2 104.9(17) 3_565 2_665
C2 N1 C2 148.9(13) 10_556 2_665
C2 N1 C2 55(2) . 2_665
C2 N1 C2 55(2) 3_565 2_665
C2 N1 C2 148.9(13) 12_566 2_665
C2 N1 C2 115(3) 11_666 2_665
I1 Pb1 I1 86.235(8) 7_775 8_565
I1 Pb1 I1 93.765(8) 7_775 2_765
I1 Pb1 I1 180.00(2) 8_565 2_765
I1 Pb1 I1 180.0 7_775 .
I1 Pb1 I1 93.765(8) 8_565 .
I1 Pb1 I1 86.235(8) 2_765 .
I1 Pb1 I1 86.234(8) 7_775 9_655
I1 Pb1 I1 86.234(8) 8_565 9_655
I1 Pb1 I1 93.766(8) 2_765 9_655
I1 Pb1 I1 93.765(8) . 9_655
I1 Pb1 I1 93.766(8) 7_775 3_675
I1 Pb1 I1 93.766(8) 8_565 3_675
I1 Pb1 I1 86.234(8) 2_765 3_675
I1 Pb1 I1 86.235(8) . 3_675
I1 Pb1 I1 180.0 9_655 3_675
Pb1 I1 Pb1 75.773(11) 4_775 .
loop_
_geom_bond_atom_site_label_1
_geom_bond_atom_site_label_2
_geom_bond_distance
_geom_bond_site_symmetry_2
C2 C2 1.45(6) 3_565
C2 C2 1.45(6) 2_665
C2 C1 1.49(4) .
C2 N1 1.566(18) .
C1 C2 1.49(4) 10_556
C1 N1 1.525(11) .
N1 C1 1.525(11) 2_665
N1 C1 1.525(11) 3_565
N1 C2 1.566(18) 10_556
N1 C2 1.566(18) 3_565
N1 C2 1.566(18) 12_566
N1 C2 1.566(18) 11_666
N1 C2 1.566(18) 2_665
Pb1 I1 3.2330(4) 7_775
Pb1 I1 3.2330(4) 8_565
Pb1 I1 3.2330(4) 2_765
Pb1 I1 3.2331(4) .
Pb1 I1 3.2331(4) 9_655
Pb1 I1 3.2331(4) 3_675
I1 Pb1 3.2331(4) 4_775
loop_
_geom_torsion_atom_site_label_1
_geom_torsion_atom_site_label_2
_geom_torsion_atom_site_label_3
_geom_torsion_atom_site_label_4
_geom_torsion
_geom_torsion_site_symmetry_1
_geom_torsion_site_symmetry_4
C2 C2 C1 C2 -36(7) 3_565 10_556
C2 C2 C1 C2 30(7) 2_665 10_556
N1 C2 C1 C2 -2(4) . 10_556
C2 C2 C1 N1 -34(3) 3_565 .
C2 C2 C1 N1 32(3) 2_665 .
C2 C1 N1 C1 -89.2(19) . 2_665
C2 C1 N1 C1 89.2(19) 10_556 2_665
C2 C1 N1 C1 90.8(19) . 3_565
C2 C1 N1 C1 -90.8(19) 10_556 3_565
C2 C1 N1 C2 -178(4) . 10_556
C2 C1 N1 C2 178(4) 10_556 .
C2 C1 N1 C2 30(3) . 3_565
C2 C1 N1 C2 -152(2) 10_556 3_565
C2 C1 N1 C2 152(2) . 12_566
C2 C1 N1 C2 -30(3) 10_556 12_566
C2 C1 N1 C2 -150.7(17) . 11_666
C2 C1 N1 C2 28(3) 10_556 11_666
C2 C1 N1 C2 -28(3) . 2_665
C2 C1 N1 C2 150.7(17) 10_556 2_665
C2 C2 N1 C1 144(4) 3_565 .
C2 C2 N1 C1 -147(4) 2_665 .
C2 C2 N1 C1 -100(3) 3_565 2_665
C2 C2 N1 C1 -31(3) 2_665 2_665
C1 C2 N1 C1 116.4(10) . 2_665
C2 C2 N1 C1 28(3) 3_565 3_565
C2 C2 N1 C1 97(3) 2_665 3_565
C1 C2 N1 C1 -115.6(9) . 3_565
C2 C2 N1 C2 145.6(4) 3_565 10_556
C2 C2 N1 C2 -145.6(4) 2_665 10_556
C1 C2 N1 C2 2(4) . 10_556
C2 C2 N1 C2 68.7(9) 2_665 3_565
C1 C2 N1 C2 -144(4) . 3_565
C2 C2 N1 C2 81.6(8) 3_565 12_566
C2 C2 N1 C2 150.35(7) 2_665 12_566
C1 C2 N1 C2 -62(4) . 12_566
C2 C2 N1 C2 -150.35(6) 3_565 11_666
C2 C2 N1 C2 -81.6(8) 2_665 11_666
C1 C2 N1 C2 66(4) . 11_666
C2 C2 N1 C2 -68.7(9) 3_565 2_665
C1 C2 N1 C2 147(4) . 2_665
