#------------------------------------------------------------------------------
#$Date: 2019-12-24 02:08:39 +0200 (Tue, 24 Dec 2019) $
#$Revision: 245530 $
#$URL: file:///home/coder/svn-repositories/cod/cif/4/13/38/4133837.cif $
#------------------------------------------------------------------------------
#
# This file is available in the Crystallography Open Database (COD),
# http://www.crystallography.net/
#
# All data on this site have been placed in the public domain by the
# contributors.
#
data_4133837
loop_
_publ_author_name
'Shi, Chao'
'Ye, Le'
'Gong, Zhi-Xin'
'Ma, Jia-Jun'
'Wang, Qin-Wen'
'Jiang, Jia-Ying'
'Hua, Miao-Miao'
'Wang, Chang-Feng'
'Yu, Hui'
'Zhang, Yi'
'Ye, Heng-Yun'
_publ_section_title
;
 Two-Dimensional Organic-Inorganic Hybrid Rare-Earth Double Perovskite
 Ferroelectrics.
;
_journal_name_full               'Journal of the American Chemical Society'
_journal_paper_doi               10.1021/jacs.9b11697
_journal_year                    2019
_chemical_absolute_configuration syn
_chemical_formula_sum            'C28 H52 N12 O28 Rb Sm'
_chemical_formula_weight         1240.63
_space_group_crystal_system      tetragonal
_space_group_IT_number           97
_space_group_name_Hall           'I 4 2'
_space_group_name_H-M_alt        'I 4 2 2'
_audit_creation_method           SHELXL-2017/1
_cell_angle_alpha                90
_cell_angle_beta                 90
_cell_angle_gamma                90
_cell_formula_units_Z            1
_cell_length_a                   7.0629(2)
_cell_length_b                   7.0629(2)
_cell_length_c                   24.3073(17)
_cell_measurement_reflns_used    2206
_cell_measurement_temperature    383(2)
_cell_measurement_theta_max      26.0060
_cell_measurement_theta_min      2.1910
_cell_volume                     1212.56(10)
_computing_structure_refinement  'SHELXL-2017/1 (Sheldrick, 2017)'
_diffrn_ambient_temperature      383(2)
_diffrn_measured_fraction_theta_full 0.997
_diffrn_measured_fraction_theta_max 0.903
_diffrn_measurement_device_type  'rigaku synergy'
_diffrn_radiation_type           MoK\a
_diffrn_radiation_wavelength     0.71073
_diffrn_reflns_av_R_equivalents  0.0454
_diffrn_reflns_av_unetI/netI     0.0322
_diffrn_reflns_Laue_measured_fraction_full 0.997
_diffrn_reflns_Laue_measured_fraction_max 0.903
_diffrn_reflns_limit_h_max       9
_diffrn_reflns_limit_h_min       -9
_diffrn_reflns_limit_k_max       9
_diffrn_reflns_limit_k_min       -8
_diffrn_reflns_limit_l_max       28
_diffrn_reflns_limit_l_min       -34
_diffrn_reflns_number            4444
_diffrn_reflns_point_group_measured_fraction_full 0.998
_diffrn_reflns_point_group_measured_fraction_max 0.878
_diffrn_reflns_theta_full        25.242
_diffrn_reflns_theta_max         30.632
_diffrn_reflns_theta_min         3.003
_exptl_absorpt_coefficient_mu    2.309
_exptl_absorpt_correction_T_max  1.00000
_exptl_absorpt_correction_T_min  0.62877
_exptl_absorpt_correction_type   multi-scan
_exptl_crystal_colour            colorless
_exptl_crystal_density_diffrn    1.699
_exptl_crystal_description       block
_exptl_crystal_F_000             627
_exptl_crystal_size_max          0.15
_exptl_crystal_size_mid          0.13
_exptl_crystal_size_min          0.11
_refine_diff_density_max         1.797
_refine_diff_density_min         -1.166
_refine_diff_density_rms         0.190
_refine_ls_abs_structure_details
;
 Flack x determined using 248 quotients [(I+)-(I-)]/[(I+)+(I-)]
 (Parsons, Flack and Wagner, Acta Cryst. B69 (2013) 249-259).
;
_refine_ls_abs_structure_Flack   0.49(3)
_refine_ls_extinction_method     none
_refine_ls_goodness_of_fit_ref   1.224
_refine_ls_hydrogen_treatment    undef
_refine_ls_matrix_type           full
_refine_ls_number_parameters     55
_refine_ls_number_reflns         841
_refine_ls_number_restraints     3
_refine_ls_restrained_S_all      1.226
_refine_ls_R_factor_all          0.0736
_refine_ls_R_factor_gt           0.0708
_refine_ls_shift/su_max          0.003
_refine_ls_shift/su_mean         0.000
_refine_ls_structure_factor_coef Fsqd
_refine_ls_weighting_details
'w=1/[\s^2^(Fo^2^)+(0.1053P)^2^+0.6466P] where P=(Fo^2^+2Fc^2^)/3'
_refine_ls_weighting_scheme      calc
_refine_ls_wR_factor_gt          0.1624
_refine_ls_wR_factor_ref         0.1640
_reflns_Friedel_coverage         0.532
_reflns_Friedel_fraction_full    1.000
_reflns_Friedel_fraction_max     0.834
_reflns_number_gt                800
_reflns_number_total             841
_reflns_threshold_expression     'I > 2\s(I)'
_cod_data_source_file            ja9b11697_si_004.cif
_cod_data_source_block           (R3HQ)4RbSm(NO3)8-T383K
_cod_original_cell_volume        1212.56(11)
_cod_database_code               4133837
_shelx_shelxl_version_number     2017/1
_shelx_space_group_comment
;
The symmetry employed for this shelxl refinement is uniquely defined
by the following loop, which should always be used as a source of
symmetry information in preference to the above space-group names.
They are only intended as comments.
;
_shelx_res_file
;
TITL (R3HQ)4RbSm(NO3)8-T383K in I422
    (R3HQ)4RbSm(NO3)8-T383K.res
    created by SHELXL-2017/1 at 21:45:02 on 14-Oct-2019
CELL 0.71073   7.0629   7.0629  24.3073  90.000  90.000  90.000
ZERR   1   0.0002   0.0002   0.0017   0.000   0.000   0.000
LATT -2
SYMM -X, -Y, Z
SYMM -Y, X, Z
SYMM Y, -X, Z
SYMM -X, Y, -Z
SYMM X, -Y, -Z
SYMM Y, X, -Z
SYMM -Y, -X, -Z
SFAC C H N O RB sm
UNIT 28 52 12 28 1 1

L.S. 24
BOND
acta
temp 110
FMAP 2
PLAN 20

sump 0.5 0 1 2
exyz sm1 rb1
eadp sm1 rb1

WGHT    0.105300    0.646600
FVAR       0.26454   0.50000   1.69492
SM1   6   -0.500000    0.500000   -0.500000    20.12500    0.03985    0.03985 =
         0.07528    0.00000    0.00000    0.00000
RB1   5   -0.500000    0.500000   -0.500000    20.12500    0.03985    0.03985 =
         0.07528    0.00000    0.00000    0.00000
N2    3   -0.917004    0.500000   -0.500000    10.50000    0.04010    0.13432 =
         0.15692    0.01894    0.00000    0.00000
O1    4   -0.528175    0.657473   -0.401338    10.50000    0.20344    0.10119 =
         0.11236   -0.01687   -0.02361   -0.04382
N1    3   -0.500000    0.500000   -0.375022    10.25000    0.15191    0.15191 =
         0.07612    0.00000    0.00000    0.00000
O4    4   -0.528513    0.168782   -0.545463    10.25000    0.05045    0.05159 =
         0.11482   -0.02998    0.00235   -0.01153
O5    4   -0.168247    0.350715   -0.505447    10.25000    0.06108    0.08031 =
         0.09922    0.00472    0.02718    0.02343
O2    4   -0.500000    0.500000   -0.329732    10.25000    0.28303    0.28303 =
         0.13318    0.00000    0.00000    0.00000
SIMU 0.01 C1 > C4

C1    1   -0.500000    0.500000   -0.089220    10.25000    0.25365
C2    1   -0.411798    0.678562   -0.119126    11.00000    0.26374
C3    1   -0.303362    0.419987   -0.167693    11.00000    0.21920
C4    1   -0.500000    0.500000   -0.197047    10.25000    0.24147
HKLF 4




REM  (R3HQ)4RbSm(NO3)8-T383K in I422
REM R1 =  0.0708 for     800 Fo > 4sig(Fo)  and  0.0736 for all     841 data
REM     55 parameters refined using      3 restraints

END

WGHT      0.1188      0.0000

REM Highest difference peak  1.797,  deepest hole -1.166,  1-sigma level  0.190
Q1    1  -0.5000  0.5000 -0.4693  10.25000  0.05    1.45
Q2    1  -0.5000  0.6037 -0.5000  10.50000  0.05    1.12
Q3    1  -0.3139  0.4939 -0.1934  11.00000  0.05    0.90
Q4    1  -0.3580  0.3637 -0.1689  11.00000  0.05    0.54
Q5    1  -0.6276  0.4934 -0.3603  11.00000  0.05    0.46
Q6    1  -0.2564  0.5012 -0.2256  11.00000  0.05    0.45
Q7    1  -1.0000  0.5000 -0.5000  10.25000  0.05    0.41
Q8    1  -0.4982  0.0885 -0.5494  11.00000  0.05    0.35
Q9    1  -0.4988  0.1433 -0.5211  11.00000  0.05    0.33
Q10   1  -0.9180  0.4999 -0.4760  11.00000  0.05    0.31
Q11   1  -0.4748  0.5662 -0.4281  11.00000  0.05    0.25
Q12   1  -0.1177  0.4944 -0.1388  11.00000  0.05    0.24
Q13   1  -0.8777  0.4487 -0.4974  11.00000  0.05    0.24
Q14   1  -0.5664  0.6062 -0.4399  11.00000  0.05    0.23
Q15   1  -0.0808  0.3694 -0.5005  11.00000  0.05    0.22
Q16   1  -0.4341  0.5979 -0.4411  11.00000  0.05    0.21
Q17   1  -0.5634  0.6524 -0.4511  11.00000  0.05    0.21
Q18   1  -0.5000  0.5000 -0.3898  10.25000  0.05    0.18
Q19   1  -0.6700  0.6821 -0.4108  11.00000  0.05    0.16
Q20   1  -0.4950  0.8894 -0.3492  11.00000  0.05    0.16
;
_shelx_res_checksum              6112
_shelx_hkl_file
;
   1  -1   0 2312.78   83.77
   2  -2   0  343.94   12.73
   3  -3   0  191.80    7.40
   4  -4   0   39.14    2.78
   5  -5   0   88.80    4.34
   5  -5   0   46.81    3.10
   6  -6   0   20.89    2.39
   6  -6   0   16.57    1.92
   1  -1  -1    0.30    0.17
   1  -1   1    0.40    0.19
   2  -2  -1    1.02    0.45
   2  -2   1    0.53    0.43
   3  -3  -1    2.78    0.77
   3  -3   1    1.02    0.72
   4  -4  -1    0.61    1.13
   4  -4   1    0.45    1.09
   5  -5   1    4.91    1.72
   5  -5  -1    2.99    1.57
   5  -5   1    0.82    1.61
   6  -6   1    4.69    2.06
   6  -6  -1    5.90    2.07
   6  -6  -1    3.83    1.69
   6  -6   1    3.69    1.61
   1  -1  -2    9.91    0.51
   2  -2  -2  795.28   29.05
   3  -3  -2  193.57    7.47
   4  -4  -2   21.91    2.16
   5  -5  -2   42.94    2.75
   5  -5   2   40.52    2.29
   6  -6  -2   20.09    2.38
   6  -6   2   16.46    1.83
   6  -6  -2   16.43    1.98
   0   0   3    0.04    0.10
   1  -1  -3    0.18    0.20
   2  -2  -3    1.76    0.49
   3  -3  -3    3.11    0.78
   4  -4  -3    0.53    1.12
   4  -4   3    1.26    0.90
   5  -5  -3    1.48    1.54
   5  -5  -3    6.04    1.87
   5  -5   3    5.16    1.24
   6  -6  -3    3.25    1.75
   6  -6  -3    5.13    2.05
   6  -6   3    4.71    1.56
   0   0   4   52.42    1.97
   1  -1  -4  125.17    4.66
   2  -2  -4  440.09   16.21
  -3   3  -4   98.90    3.86
   3  -3  -4  112.71    3.89
   4  -4  -4   21.01    2.88
   4  -4   4  104.91    3.09
   5  -5  -4   41.37    2.41
   5  -5   4   34.35    1.97
   5  -5  -4   41.48    2.57
   6  -6   4   12.01    1.63
   6  -6  -4   14.48    1.99
   6  -6  -4   15.39    2.13
   6  -6  -4   16.27    2.28
   0   0   5    0.20    0.20
   1  -1  -5    0.02    0.20
   2  -2  -5    1.03    0.45
   3  -3  -5    0.51    0.71
  -3   3  -5    1.01    0.32
   3  -3  -5    0.98    0.35
   4  -4   5    3.21    1.40
   4  -4  -5    3.64    1.15
   5  -5   5    3.27    1.11
   5  -5   5    3.19    1.63
   5  -5  -5    3.95    1.60
   5  -5  -5    5.14    1.56
   6  -6   5    3.45    2.01
   6  -6  -5    2.67    1.87
   6  -6   5    2.30    1.41
   6  -6  -5    3.50    2.03
   6  -6  -5    1.87    1.97
   0   0   6 2598.91   94.09
   1  -1  -6  107.82    4.33
   1  -1   6  118.63    4.31
   1  -1  -6  118.07    4.31
   2  -2  -6  389.49   14.30
   2  -2   6  384.90   14.28
   3  -3  -6  135.37    5.26
   3  -3   6  140.90    5.27
   4  -4   6   97.76    2.89
   4  -4  -6   41.94    1.79
   4  -4  -6   94.60    2.87
   4  -4   6   85.15    2.24
   4  -4  -6   47.21    1.79
   5  -5   6   37.11    2.47
   5  -5  -6   36.36    2.29
   5  -5   6   31.56    1.84
   5  -5  -6   39.69    2.47
   6  -6  -6   13.44    2.04
   6  -6  -6   13.20    2.24
   6  -6  -6   10.26    2.04
   6  -6   6    9.19    2.18
   6  -6   6    8.58    1.48
   0   0   7    1.01    0.32
   1  -1   7    0.04    0.24
   1  -1  -7    0.34    0.23
   2  -2   7    0.70    0.24
   2  -2   7    1.12    0.51
   2  -2  -7    0.63    0.47
   3  -3   7    0.80    0.74
   3  -3   7    0.80    0.48
   3  -3  -7    1.38    0.77
  -3   3  -7    0.81    0.43
   4  -4  -7    3.10    1.17
   4  -4   7    1.58    0.75
  -4   4  -7    0.33    0.35
   4  -4   7    1.46    1.15
   4  -4  -7    1.47    0.48
   5  -5   7    4.58    1.62
   5  -5   7    2.58    1.01
   5  -5  -7    1.31    1.59
   5  -5  -7    4.79    1.64
   6  -6  -7    3.70    2.08
   6  -6   7    0.82    2.01
   6  -6  -7    4.75    2.01
   6  -6  -7    1.92    2.01
   0   0   8  883.67   32.54
   0   0  -8  910.12   32.56
   1  -1   8  179.82    6.53
   1  -1  -8  173.56    6.53
   2  -2  -8  382.26   15.00
   2  -2   8  424.93   15.03
   2  -2  -8  416.73   15.03
   3  -3   8   89.82    3.40
   3  -3  -8   87.42    3.39
   4  -4   8   68.78    2.80
   4  -4  -8   49.11    2.08
   4  -4  -8   63.30    2.74
   4  -4   8   54.72    2.18
  -4   4  -8   49.40    2.04
   5  -5  -8   31.17    2.28
   5  -5  -8   28.92    2.17
   5  -5  -8   32.52    2.23
   5  -5   8   26.06    1.58
   5  -5   8   33.34    2.34
   6  -6   8   10.63    2.21
   6  -6  -8   10.15    2.13
   6  -6  -8   11.84    2.20
   6  -6  -8   10.30    2.15
   0   0  -9    0.34    0.36
   0   0   9    0.57    0.35
   1  -1   9    0.23    0.27
   1  -1  -9    0.03    0.24
   2  -2  -9    0.82    0.51
   2  -2  -9    1.47    0.64
   2  -2   9    0.51    0.49
   3  -3   9    0.56    0.74
   3  -3   9    0.40    0.37
   3  -3  -9    0.41    0.86
   3  -3  -9    0.94    0.76
   4  -4  -9    1.09    1.19
   4  -4   9   -0.08    1.19
  -4   4  -9    1.71    0.59
   4  -4  -9    1.02    1.24
   4  -4   9    2.03    0.65
   4  -4  -9    1.49    0.62
   5  -5  -9    2.24    1.61
   5  -5  -9    4.41    1.59
   5  -5   9    1.67    0.92
   5  -5  -9    4.22    1.67
   5  -5   9    3.08    1.56
   6  -6  -9    5.32    2.10
   6  -6  -9    1.85    2.10
   6  -6  -9    2.08    2.02
   6  -6   9    1.65    2.05
   0   0  10  795.61   31.39
   0   0 -10  963.86   31.45
   1  -1  10  278.04   10.51
   1  -1 -10  271.65   10.51
  -1   1 -10  296.20   10.41
   1  -1  10  281.20   10.51
   2  -2 -10  255.65    9.52
   2  -2  10  254.27    9.50
   3  -3 -10   26.68    1.37
   3  -3  10   27.49    1.38
   3  -3 -10   25.31    1.40
   4  -4  10   45.65    2.24
   4  -4 -10   36.29    1.61
   4  -4  10   32.80    1.51
  -4   4 -10   37.37    1.60
   4  -4 -10   47.51    2.29
   5  -5 -10   11.22    0.69
   5  -5  10   24.35    1.96
   5  -5 -10   26.07    2.02
   5  -5 -10   27.30    2.06
   5  -5  10   19.70    1.12
   5  -5 -10   11.16    0.67
   5  -5 -10   31.66    2.23
   6  -6 -10    8.42    2.21
   6  -6  10   10.42    2.25
   6  -6 -10   11.05    2.21
   6  -6 -10   14.17    2.29
   0   0  11    0.26    0.37
   0   0 -11    0.60    0.44
   1  -1  11    0.23    0.30
   1  -1 -11    0.25    0.29
  -1   1 -11    0.32    0.24
   1  -1  11    0.45    0.41
   2  -2  11    1.12    0.55
   2  -2 -11   -0.04    0.51
   3  -3  11    0.87    0.84
   3  -3 -11    0.61    0.77
   3  -3 -11    0.08    0.96
   4  -4 -11    0.13    1.31
   4  -4  11    1.69    0.50
   4  -4 -11    2.46    1.21
   4  -4 -11    0.97    0.76
  -4   4 -11    0.95    0.71
   4  -4  11    1.12    1.17
   5  -5 -11    1.00    0.73
  -5   5 -11    0.64    0.41
   5  -5 -11    1.77    1.56
   5  -5  11    1.96    0.75
   5  -5  11    2.90    1.57
   5  -5 -11    5.22    1.92
   5  -5 -11    3.10    1.69
  -5   5 -11    0.78    0.40
   6  -6 -11    1.92    2.10
   6  -6  11    4.12    2.20
   6  -6 -11    1.17    2.15
   0   0  12  546.11   19.81
   0   0 -12  537.80   19.80
   1  -1  12  149.25    5.64
   1  -1  12  150.47    5.67
   1  -1 -12  152.72    5.78
   1  -1 -12  149.18    5.64
  -1   1 -12  155.34    5.57
   2  -2  12  152.20    5.83
   2  -2 -12  153.70    5.85
   3  -3 -12   36.96    1.77
   3  -3  12   36.56    1.74
   4  -4  12   43.60    2.19
   4  -4 -12   41.48    2.20
  -4   4 -12   35.14    1.66
   4  -4 -12   34.34    1.67
   5  -5 -12   23.31    2.58
   5  -5  12   20.02    1.95
  -5   5 -12   11.94    0.90
   5  -5 -12   12.08    1.04
   5  -5 -12   17.19    1.97
   5  -5 -12   20.04    1.96
   6  -6 -12    7.52    2.28
   6  -6  12    6.98    2.22
   0   0  13    0.23    0.56
   0   0 -13    1.13    0.56
   1  -1 -13   -0.82    0.63
  -1   1 -13    0.09    0.32
   1  -1  13   -0.07    0.29
   1  -1  13   -0.49    0.52
   1  -1 -13    0.34    0.30
   2  -2  13    1.16    0.57
   2  -2 -13    0.05    0.58
   3  -3  13    1.23    0.84
   3  -3 -13   -0.25    0.85
   4  -4 -13    2.89    1.22
   4  -4  13    1.07    1.18
  -4   4 -13    1.01    0.85
   4  -4 -13    0.82    0.85
   4  -4 -13    0.56    1.37
   5  -5  13    3.16    1.62
   5  -5 -13    4.20    1.66
  -5   5 -13    1.87    0.84
   5  -5 -13    1.09    0.92
   5  -5 -13    4.78    1.78
   5  -5 -13    3.51    2.32
   6  -6 -13    3.50    2.14
   6  -6  13    3.14    2.14
   0   0 -14   63.90    2.59
   0   0  14   61.23    2.59
   0   0 -14   64.37    2.52
   1  -1  14   33.34    1.44
   1  -1  14   30.33    1.29
   1  -1 -14   28.52    1.28
  -1   1 -14   34.95    1.30
   1  -1 -14   34.04    1.56
   2  -2 -14  117.87    4.62
   2  -2  14  121.33    4.63
   3  -3  14   34.35    1.78
   3  -3 -14   31.89    1.80
   4  -4 -14   26.69    1.79
  -4   4 -14   25.60    1.42
   4  -4 -14   23.20    1.42
   4  -4  14   23.67    1.76
   5  -5 -14   14.68    1.93
   5  -5  14   14.21    1.92
  -5   5 -14   10.78    1.12
   5  -5 -14   13.83    1.97
   6  -6 -14    3.90    2.23
   0   0  15   -0.08    0.67
   0   0 -15    0.02    0.71
   0   0 -15   -0.05    0.72
  -1   1 -15    0.44    0.42
   1  -1  15    0.16    0.58
   1  -1 -15    0.15    0.74
   2  -2 -15    2.00    0.94
   2  -2 -15    0.80    0.64
   2  -2  15    0.71    0.62
   3  -3 -15    1.72    0.92
   3  -3  15    0.85    0.86
   4  -4 -15    0.53    0.99
  -4   4 -15    2.08    0.98
   4  -4 -15    0.73    1.41
   4  -4  15    0.18    1.16
   4  -4 -15    0.66    1.23
  -5   5 -15    0.93    1.03
   5  -5  15    2.82    1.70
   5  -5 -15    1.33    1.71
   5  -5 -15    2.63    1.63
   5  -5 -15    6.92    4.94
   0   0  16  119.49    5.53
   0   0 -16  134.68    5.56
   1  -1  16   52.83    2.21
   1  -1 -16   53.29    2.37
  -1   1 -16   52.40    2.08
   2  -2 -16   75.53    3.08
   2  -2  16   71.85    2.85
   2  -2 -16   69.84    2.85
   2  -2  16   64.91    2.77
   3  -3  16   29.52    1.65
   3  -3 -16   27.11    1.64
   4  -4 -16   21.76    1.74
   4  -4  16   21.63    1.71
  -4   4 -16   20.35    1.42
  -5   5 -16    6.97    1.23
   5  -5 -16   10.35    1.84
   5  -5  16    9.21    1.82
   5  -5 -16    7.69    1.59
   0   0  17    0.33    0.81
   0   0 -17    1.44    0.79
   1  -1  17   -0.19    0.74
   1  -1 -17   -0.41    0.90
  -1   1 -17    0.38    0.50
   2  -2  17    0.38    0.60
   2  -2  17    0.54    0.73
   2  -2 -17    0.16    0.63
   2  -2 -17    1.28    1.07
   3  -3  17   -0.05    0.92
   3  -3 -17    0.73    0.93
   4  -4 -17    1.44    1.33
  -4   4 -17    0.38    1.12
   4  -4  17    2.38    1.28
   4  -4 -17    0.45    1.66
   5  -5 -17    2.92    3.20
   5  -5  17    0.72    1.65
  -5   5 -17    1.26    1.21
   5  -5 -17    0.43    1.71
   5  -5 -17    3.17    1.81
   0   0 -18   94.15    3.81
   0   0  18  101.76    3.92
  -1   1 -18   30.21    1.34
   1  -1  18   27.83    1.49
   2  -2 -18   37.99    1.97
   2  -2  18   34.98    1.59
   2  -2  18   33.45    1.65
   2  -2 -18   32.02    1.60
   3  -3  18   23.67    1.46
   3  -3 -18   20.50    1.76
   3  -3 -18   22.16    1.50
  -4   4 -18   11.65    1.36
   4  -4 -18   13.39    1.61
   4  -4  18   12.28    1.53
   5  -5 -18    9.98    2.84
   5  -5  18    5.06    1.75
   5  -5 -18    6.61    1.81
  -5   5 -18    5.29    1.33
   5  -5 -18    6.45    1.97
   0   0 -19    0.85    0.75
   1  -1 -19   -0.10    1.13
  -1   1 -19    0.67    0.60
   1  -1 -19    0.07    1.00
   1  -1  19    0.51    0.71
   2  -2  19   -1.21    0.83
   2  -2 -19    0.67    0.60
   2  -2 -19    0.16    1.17
   2  -2  19    0.89    0.62
   3  -3  19    1.14    0.82
   3  -3  19   -0.54    0.90
   3  -3 -19    1.45    1.35
   3  -3 -19   -0.06    1.32
   3  -3 -19    1.51    0.95
  -4   4 -19    0.81    1.24
   4  -4 -19    0.70    1.30
   4  -4  19    1.81    1.27
   5  -5  19   -0.72    1.63
  -5   5 -19    1.43    1.36
   5  -5 -19    3.54    1.70
   0   0 -20   64.69    2.72
   1  -1  20   17.94    1.20
  -1   1 -20   19.07    1.08
   1  -1 -20   21.25    1.56
   2  -2  20   14.10    1.11
   2  -2 -20   15.21    1.50
   2  -2 -20   16.10    1.51
   3  -3 -20    6.89    1.51
   3  -3  20    7.19    0.94
   3  -3 -20    7.23    1.59
   3  -3  20    8.54    1.07
   3  -3 -20    7.31    1.06
   4  -4 -20    4.86    1.83
   4  -4  20    5.08    1.29
   4  -4 -20    6.84    1.40
  -4   4 -20    4.23    1.37
  -5   5 -20    2.59    1.47
   5  -5 -20    4.27    1.67
   5  -5  20    4.91    1.66
   0   0 -21    1.45    0.88
   1  -1 -21    0.50    1.64
   1  -1  21    0.67    0.93
   1  -1 -21   -0.22    1.09
  -1   1 -21    0.73    0.68
   2  -2  21    0.46    0.87
   2  -2 -21   -1.91    1.33
   2  -2 -21    1.09    1.61
   3  -3  21    0.04    0.86
   3  -3  21    0.79    0.98
   3  -3 -21    1.78    1.97
   3  -3 -21    0.77    0.92
   3  -3 -21   -0.66    1.51
   4  -4 -21    2.46    1.78
   4  -4  21    1.33    1.29
   4  -4 -21    2.35    1.32
  -4   4 -21    2.18    1.39
   5  -5 -21    1.88    1.71
   5  -5  21    2.24    1.69
  -5   5 -21    2.77    1.56
   0   0 -22   42.79    2.05
  -1   1 -22   14.90    1.07
   1  -1  22   17.55    1.31
   1  -1 -22   19.17    1.49
   1  -1 -22   16.64    1.48
   2  -2 -22   13.33    1.62
   2  -2  22   12.68    1.18
   3  -3 -22    7.05    1.66
   3  -3  22    7.94    1.06
   3  -3 -22    6.02    1.06
   3  -3  22    6.89    1.05
   4  -4 -22    3.63    1.53
   4  -4 -22    4.20    1.35
  -4   4 -22    4.23    1.49
   4  -4 -22    4.17    1.88
   4  -4  22    2.54    1.28
   5  -5  22    2.58    1.63
   0   0 -23    1.64    1.00
   1  -1 -23    1.68    1.29
  -1   1 -23    0.99    0.78
   1  -1  23    1.23    1.10
   1  -1 -23    0.53    1.09
   2  -2 -23    2.91    1.53
   2  -2 -23    0.62    1.76
   2  -2  23    1.19    0.88
   3  -3 -23    0.38    1.60
   3  -3 -23    0.11    2.61
   4  -4 -23    1.09    1.57
  -4   4 -23    0.29    1.49
   4  -4 -23    1.19    1.91
   4  -4 -23    1.89    2.05
   4  -4  23    0.73    1.28
   5  -5  23   -0.07    1.62
   0   0 -24   17.39    1.37
   1  -1 -24   11.40    1.54
   1  -1 -24    7.54    1.30
   1  -1  24    8.08    1.22
  -1   1 -24    7.94    0.94
   2  -2 -24    9.68    1.68
   2  -2 -24   12.93    1.83
   2  -2  24    9.50    1.16
   3  -3 -24    6.50    1.82
   3  -3 -24    7.43    1.83
   4  -4 -24    3.24    2.02
   4  -4 -24    5.27    1.71
   4  -4 -24    3.75    2.01
  -4   4 -24    4.85    1.66
   0   0 -25    1.01    1.09
   1  -1 -25   -0.07    1.22
  -1   1 -25    1.46    0.91
   1  -1 -25    2.52    1.50
   2  -2 -25   -1.48    1.46
   2  -2  25    1.32    1.09
   2  -2 -25    1.20    1.63
   3  -3 -25    0.21    1.71
   3  -3 -25    0.40    1.77
   4  -4 -25    1.40    1.68
  -4   4 -25    2.35    1.71
   0   0 -26    4.74    1.18
   1  -1 -26    2.57    1.32
  -1   1 -26    2.51    0.98
   1  -1 -26    5.64    1.68
   2  -2 -26    4.79    1.73
   2  -2 -26    4.30    1.56
   3  -3 -26    2.68    1.78
   3  -3 -26    4.09    1.96
  -4   4 -26    6.12    1.84
   4  -4 -26    2.71    1.78
   0   0 -27    1.63    1.19
   1  -1 -27    1.28    1.36
  -1   1 -27    1.43    0.97
   2  -2 -27    3.74    1.71
   2  -2 -27    1.72    1.60
   3  -3 -27    1.72    1.82
   3  -3 -27    3.17    2.15
   4  -4 -27    3.32    1.80
  -4   4 -27    3.06    1.86
   0   0 -28    2.96    1.25
   1  -1 -28    4.45    1.48
   2  -2 -28    3.42    1.69
   2  -2 -28    2.36    1.79
   3  -3 -28    1.61    1.92
   3  -3 -28    3.04    2.07
   4  -4 -28    2.45    1.88
  -4   4 -28    3.34    1.96
   0   0 -29    0.85    1.33
   1  -1 -29    1.37    1.49
   2  -2 -29   -0.13    1.72
   2  -2 -29    4.08    1.89
   0   0 -30    3.75    1.44
   1  -1 -30    4.56    1.59
   2  -2 -30    6.33    2.08
   2  -2 -30    2.87    1.77
   0   0 -31    1.68    1.45
   1  -1 -31    3.07    1.65
   2  -2 -31    1.92    1.84
   2  -2 -31    5.45    2.20
   0   0 -32    1.78    1.49
   1  -1 -32    4.34    1.73
   2  -2 -32    1.37    1.88
   1  -1 -33    3.00    1.77
   1   0   0    1.73    0.15
   0   1   0    1.36    0.18
   1   0   0    0.91    0.12
   0  -1   0    0.65    0.12
   1   0   0    1.98    0.15
  -1   0   0    1.85    0.17
  -1   2   0    0.33    0.17
   1  -2   0    0.25    0.18
  -1   2   0    1.96    0.42
   1  -2   0    1.56    0.38
   2  -1   0    0.62    0.17
   2  -1   0    2.72    0.33
  -2   1   0    0.43    0.18
  -2   3   0    3.90    0.71
   3  -2   0    2.73    0.60
   2  -3   0    3.16    0.72
   3  -2   0    4.52    0.77
   3  -4   0    1.55    0.89
   4  -3   0    3.12    0.85
   4  -3   0    2.32    0.88
   4  -5   0    0.65    1.30
   5  -4   0    3.92    1.13
   5  -4   0    0.97    1.27
   6  -5   0    4.41    1.62
   6  -5   0    3.10    1.43
   6  -5   0    1.50    1.69
   5  -6   0    2.35    1.76
   6  -7   0    3.25    1.87
   7  -6   0    5.64    2.09
   7  -6   0    2.67    1.86
   7  -6  -1    7.79    1.95
   6  -7   1   10.74    1.91
   7  -6  -1   12.27    2.20
   5  -6   1   27.26    2.35
   6  -5  -1   28.25    2.08
   6  -5  -1   26.95    2.29
   6  -5  -1   23.64    1.95
   5  -6   1   21.05    1.85
   5  -4  -1   17.11    2.41
   4  -5   1   15.07    2.37
   4  -3  -1   91.42    3.68
   4  -3  -1  119.57    3.77
   2  -3   1  390.64   15.79
  -2   3   1  376.00   15.72
   3  -2  -1  384.44   15.74
  -2   1  -1  516.86   18.53
   1  -2   1  500.54   18.53
   2  -1  -1  503.57   18.53
   1  -2   1  509.78   18.71
   2  -1  -1  534.46   18.64
  -1   2   1  529.72   18.71
   0  -1   1  586.30   21.31
   1   0  -1  582.84   21.33
   1   0  -1  583.55   21.33
   1   0  -1  591.17   21.31
   0   1   1  595.89   21.36
   0  -1  -1  571.07   21.36
   0   1  -1  601.91   21.42
  -1   0   1  601.56   21.38
  -1   0   1  593.78   21.38
   2  -1   1  495.88   18.18
  -1   2  -1  503.56   18.29
  -2   1   1  506.46   18.11
   1  -2  -1  509.49   18.30
  -1   2  -1  498.82   18.11
   1  -2  -1  490.75   18.11
   2  -3  -1  397.37   13.94
  -2   3  -1  368.06   13.86
   2  -3  -1  370.84   13.56
   3  -2   1  384.54   13.89
   3  -2   1  374.42   13.73
   4  -3   1   89.98    3.75
   4  -3   1   85.49    3.50
   3  -4  -1   89.63    3.79
   5  -4   1   16.22    2.39
   4  -5  -1   15.73    2.34
   6  -5   1   23.23    1.84
   5  -6  -1   23.15    2.30
   6  -5   1   28.53    2.32
   6  -7  -1   11.36    2.06
   7  -6   1   11.17    2.21
   7  -6   1    9.67    1.95
   7  -6  -2    3.80    1.93
   7  -6  -2    3.97    2.12
   6  -7   2    4.29    1.77
   6  -5  -2    4.03    1.56
   5  -6   2    3.39    1.62
   6  -5  -2    3.16    1.72
   6  -5  -2    2.34    1.65
   5  -4  -2    4.35    1.18
   5  -4  -2    0.35    1.34
   4  -3  -2    2.83    0.88
   4  -3  -2    5.08    1.43
   3  -2  -2    0.55    0.22
  -3   2  -2    0.44    0.20
  -2   1  -2    0.02    0.17
   1  -2   2    0.00    0.17
   2  -1  -2    0.32    0.31
   2  -1  -2    0.24    0.17
   1   0  -2    0.03    0.11
   1   0  -2    0.08    0.15
   1   0  -2   -0.02    0.14
   0  -1   2    0.07    0.12
   0   1  -2   -0.09    0.14
  -1   0   2    0.37    0.18
  -1   0   2    0.08    0.16
   1  -2  -2    0.00    0.19
  -1   2  -2   -0.04    0.18
   2  -1   2    0.32    0.26
  -1   2  -2    0.49    0.33
  -2   3  -2    0.24    0.21
   2  -3  -2    0.35    0.24
  -2   3  -2    1.93    0.59
   3  -2   2    1.69    0.48
   3  -4  -2    2.67    0.96
   4  -3   2    1.95    0.74
   5  -4   2    2.50    1.06
   4  -5  -2    0.18    1.30
   6  -5   2    3.72    1.42
   5  -6  -2   -0.06    1.70
   7  -6   2    5.74    2.09
   7  -6   2    3.98    1.75
   6  -7  -2    3.69    2.09
   7  -6  -3    9.44    2.06
   7  -6  -3   10.03    2.26
   6  -5  -3   20.29    2.03
   6  -5  -3   26.07    2.24
   5  -6   3   28.94    2.68
   6  -5  -3   20.49    1.96
   5  -4  -3   19.04    2.85
   5  -4  -3   66.46    2.51
   4  -3  -3  127.45    6.24
   4  -3  -3  311.87    7.66
   3  -2  -3  226.85    8.02
   3  -2  -3  203.48    7.71
  -3   2  -3  208.92    7.70
   2  -1  -3   70.30    2.73
   2  -1  -3   64.31    2.83
   1   0  -3 1398.48   51.50
   0  -1   3 1431.75   51.46
   1   0  -3 1394.17   51.49
   1   0  -3 1447.15   51.47
   0   1  -3 1431.10   51.58
  -1   0   3 1432.46   51.57
  -1   0   3 1408.27   51.56
   1  -2  -3   70.56    2.74
  -1   2  -3   69.78    2.58
   2  -1   3   67.34    2.59
  -1   2  -3   69.37    2.73
  -2   3  -3  212.89    7.84
  -2   3  -3  204.71    7.55
   2  -3  -3  231.33    7.91
   3  -2   3  210.78    7.66
   2  -3  -3  201.80    7.55
   3  -4  -3  130.88    5.00
   4  -3   3  116.57    4.65
   4  -5  -3   22.20    2.84
   5  -4   3   60.62    2.33
   5  -6  -3   22.68    2.21
   6  -5   3   18.65    1.65
   7  -6   3    9.71    2.13
   6  -7  -3   12.05    2.51
   7  -6  -4    5.58    2.17
   7  -6  -4    4.58    2.08
   5  -6   4   -0.39    3.02
   6  -5  -4    3.68    1.64
   6  -5  -4    2.36    1.74
   6  -5  -4    5.21    1.75
   5  -4  -4    5.38    1.35
   5  -4  -4    5.34    1.30
   4  -3  -4    2.05    0.88
   4  -3  -4    5.76    1.53
   3  -2  -4    0.66    0.33
   3  -2  -4    1.73    0.64
   3  -2  -4    1.08    0.57
   2  -1  -4    0.20    0.21
   2  -1  -4    0.20    0.47
   2  -1  -4    0.08    0.36
   1   0  -4    0.27    0.24
   1   0  -4    0.30    0.16
   1   0  -4    0.10    0.19
   0   1  -4    0.10    0.20
  -1   0   4    0.02    0.50
  -1   0   4    0.01    0.26
  -1   2  -4    0.02    0.23
  -1   2  -4    0.14    0.37
   1  -2  -4    0.04    0.32
   2  -1   4    0.04    0.21
   3  -2   4    1.09    0.44
  -2   3  -4    1.48    0.63
  -2   3  -4    0.85    0.30
   2  -3  -4    2.28    0.61
   3  -4  -4    0.93    0.28
   4  -3   4    2.49    0.71
   3  -4  -4    2.68    0.99
   4  -5  -4    1.11    1.38
   5  -4   4    3.75    1.01
   5  -6  -4    4.60    1.88
   6  -5   4    3.19    1.29
   7  -6   4    3.50    1.97
   6  -7  -4    4.29    2.43
   7  -6  -5    8.96    2.18
   7  -6  -5    9.66    2.25
   6  -5  -5   20.32    1.94
   6  -5  -5   21.03    2.14
   5  -6   5   19.44    2.22
   5  -6   5   18.54    1.81
   6  -5  -5   18.84    2.02
   5  -4  -5   61.59    2.93
   5  -4  -5   65.47    3.14
   5  -4  -5   56.09    2.88
  -4   3  -5   99.58    3.86
   4  -3  -5  115.91    4.29
   4  -3  -5  100.41    3.88
   4  -3  -5  126.51    4.47
   3  -2  -5  396.66   14.54
   3  -2  -5  396.58   14.29
   3  -2  -5  395.48   14.47
   3  -2  -5  373.67   14.46
   2  -1  -5  410.18   15.15
   2  -1  -5  388.15   15.23
   0  -1   5  205.90    7.70
   1   0  -5  224.59    7.79
   0   1  -5  222.61    8.20
  -1   0   5  225.42    8.24
  -1   2  -5  425.96   14.95
  -1   2  -5  421.01   14.83
   1  -2  -5  412.95   14.95
   2  -1   5  390.84   14.78
  -2   3  -5  389.61   14.42
   2  -3  -5  420.63   14.49
   3  -2   5  378.66   14.20
  -2   3  -5  388.92   14.18
   3  -4  -5  125.55    4.25
   3  -4  -5   99.10    3.61
   4  -3   5  116.08    3.82
  -3   4  -5   88.30    3.59
   4  -5  -5   63.75    3.04
   5  -4   5   65.12    3.04
   5  -6  -5   22.18    2.23
   6  -5   5   15.82    1.53
   6  -5   5   20.50    2.15
   7  -6   5    8.25    2.06
   6  -7  -5   12.63    2.92
   7  -6  -6    4.77    2.15
   6  -5  -6    4.11    1.75
   6  -5  -6    3.45    1.78
   6  -5  -6    2.82    1.69
   5  -6   6    2.61    1.80
   5  -6   6    2.39    1.23
   4  -5   6    1.82    1.31
   5  -4  -6    5.59    1.39
   5  -4  -6    4.01    1.40
   5  -4  -6    3.92    1.39
   4  -3  -6    3.93    1.34
   4  -3  -6    2.09    0.98
  -4   3  -6    0.58    0.38
   4  -3  -6    0.98    0.45
   4  -3  -6    2.61    0.97
   3  -4   6    2.03    0.93
   3  -2  -6    1.41    0.42
   3  -2  -6    2.40    0.68
   2  -3   6    2.07    0.65
   3  -2  -6    1.29    0.60
   3  -2  -6    2.66    0.73
   2  -1  -6    0.44    0.40
   1  -2   6    0.63    0.38
   2  -1  -6    0.68    0.44
  -1   2   6    0.54    0.38
   0  -1   6    0.00    0.18
   1   0  -6   -0.07    0.31
   0   1   6    0.16    0.19
  -1   0   6    0.18    0.36
   0   1  -6    0.14    0.20
  -1   2  -6    1.03    0.41
   1  -2  -6    0.29    0.36
  -1   2  -6    0.52    0.29
   3  -2   6    1.52    0.43
   2  -3  -6    1.86    0.64
   3  -2   6    1.35    0.59
  -2   3  -6    1.18    0.40
   3  -4  -6    1.35    0.94
   4  -3   6    2.18    0.65
   3  -4  -6    1.10    0.45
   4  -3   6    2.03    0.96
  -3   4  -6    0.85    0.41
   5  -4   6    3.11    0.95
   4  -5  -6    3.67    1.37
   5  -4   6    2.30    1.35
   5  -6  -6    3.23    1.89
   6  -5   6    2.99    1.21
   6  -5   6    2.85    1.80
   6  -7  -6    9.14    2.98
   7  -6  -7   12.10    2.28
   6  -5  -7   14.30    1.88
   6  -5  -7   17.04    2.14
   6  -5  -7   14.26    1.99
   5  -6   7   15.26    2.03
   5  -6   7   14.00    1.39
   4  -5   7   52.79    2.85
   5  -4  -7   55.46    2.88
   5  -4  -7   49.78    2.73
   4  -3  -7   85.74    3.50
   3  -4   7   81.90    3.47
   4  -3  -7   72.92    3.01
   4  -3  -7   74.20    3.35
   3  -2  -7  255.68    9.83
   3  -2  -7  258.14    9.85
   3  -2  -7  265.87    9.83
   2  -3   7  281.57    9.91
   3  -2  -7  259.58    9.68
  -1   2   7  477.41   17.59
   2  -1  -7  528.40   17.64
   1  -2   7  533.80   17.65
   0  -1   7  668.04   24.08
   0   1   7  658.00   24.11
   1   0   7  674.99   24.62
  -1   0   7  699.25   24.75
   0   1  -7  689.86   24.64
   0   1  -7  660.79   24.67
   1  -2  -7  495.34   18.08
  -1   2  -7  491.53   18.06
   2  -3  -7  267.23    9.44
   3  -2   7  265.97    9.38
   3  -2   7  238.85    9.12
  -2   3  -7  251.59    9.18
   4  -3   7   70.99    2.94
   3  -4  -7   80.94    3.37
   4  -3   7   86.75    3.39
  -3   4  -7   74.23    2.88
   5  -4   7   45.32    2.15
   5  -4   7   52.37    2.70
   4  -5  -7   53.64    2.74
   6  -5   7   13.76    1.40
   5  -6  -7   18.22    2.18
   6  -5   7   15.85    2.11
   6  -7  -7    7.15    3.01
   5  -6   8    3.17    1.80
   6  -5  -8    2.34    1.87
   6  -5  -8    5.44    1.81
   6  -5  -8    2.05    1.75
   5  -6   8    2.43    1.15
   5  -4  -8    3.72    1.44
   4  -5   8    2.11    1.34
   4  -5   8    4.56    2.34
   5  -4  -8    1.40    0.50
   5  -4  -8    4.34    1.43
   5  -4  -8    3.50    1.65
   4  -3  -8    0.75    1.36
   3  -4   8    0.26    0.92
   4  -3  -8   -0.44    0.99
   4  -3  -8    1.00    0.57
   4  -3  -8    1.74    1.00
   3  -2  -8    0.45    0.47
   3  -2  -8    0.43    0.57
   3  -2  -8    1.27    0.71
   2  -3   8    1.00    0.65
   3  -2  -8    1.04    0.72
   2  -1  -8    0.55    0.51
  -1   2   8    0.38    0.38
   1  -2   8    0.06    0.39
   2  -1  -8   -0.08    0.48
   0   1   8    0.29    0.21
   0  -1   8    0.43    0.29
   0  -1  -8    0.23    0.33
  -1   0   8    0.51    0.43
   1   0   8    0.37    0.24
   0   1  -8    0.46    0.28
   0   1  -8    0.07    0.22
   1  -2  -8    0.28    0.41
  -1   2  -8    0.33    0.38
   3  -2   8    1.18    0.57
   2  -3  -8    0.36    0.63
  -2   3  -8    1.07    0.48
  -3   4  -8    0.74    0.55
   3  -4  -8    2.70    1.00
   4  -3   8    1.96    0.99
   4  -3   8    0.62    0.57
   4  -5  -8    1.05    0.52
   5  -4   8    1.98    0.83
   5  -4   8    0.56    1.33
   4  -5  -8    1.37    0.53
   4  -5  -8    1.72    1.33
   6  -5   8    1.22    1.08
   6  -5   8    0.50    1.85
   5  -6  -8    3.64    1.89
   6  -5  -9   16.35    1.96
   5  -6   9   10.74    1.24
   5  -6   9   16.12    2.15
   6  -5  -9   15.27    2.01
   6  -5  -9   11.74    2.09
   5  -4  -9   39.63    2.17
   4  -5   9   35.87    1.57
  -5   4  -9   26.42    1.28
   4  -5   9   43.97    2.28
  -5   4  -9   26.55    1.27
   5  -4  -9   43.27    2.27
   5  -4  -9   31.52    1.36
   5  -4  -9   51.50    2.46
   4  -3  -9   62.75    2.66
   3  -4   9   66.21    2.69
   3  -2  -9  118.49    4.71
   3  -2  -9  124.76    4.74
   2  -3   9  125.99    4.76
   3  -2  -9  118.83    4.73
   3  -2  -9  116.15    4.56
  -1   2   9  208.84    7.77
   1  -2   9  231.91    7.83
   2  -1  -9  220.68    7.87
   1  -2   9  203.78    7.62
   0  -1   9  409.59   14.67
   0   1   9  396.21   14.58
   0   1  -9  426.34   15.24
  -1   0   9  433.06   15.35
   0   1  -9  403.02   15.24
   1   0   9  424.20   15.23
   0  -1  -9  409.60   15.30
   1  -2  -9  223.62    7.91
  -1   2  -9  202.47    7.86
  -2   3  -9  116.49    4.60
   3  -2   9  126.32    4.78
   2  -3  -9  126.82    4.82
   4  -3   9   63.93    2.74
  -3   4  -9   60.36    2.31
   3  -4  -9   64.44    2.76
   5  -4   9   33.33    1.50
   4  -5  -9   31.23    1.37
  -4   5  -9   26.24    1.30
   4  -5  -9   29.82    1.37
   4  -5  -9   45.18    2.32
   5  -4   9   41.98    2.24
   5  -6  -9   13.07    2.10
   6  -5   9   11.07    1.19
   5  -6  10    1.37    1.83
   6  -5 -10    3.18    1.78
   6  -5 -10    2.47    1.83
   6  -5 -10    5.21    1.81
   5  -4 -10    3.50    1.75
   5  -4 -10    2.78    1.46
   5  -4 -10    1.57    0.74
   4  -5  10    2.18    0.78
   5  -4 -10    2.24    1.33
   4  -5  10   -0.36    1.38
  -5   4 -10    1.19    0.65
  -5   4 -10    1.14    0.62
   4  -3 -10    1.05    1.80
   3  -4  10    1.42    0.98
   4  -3 -10    0.72    1.06
   4  -3 -10    1.27    0.95
   4  -3 -10    0.23    0.65
   3  -2 -10    1.96    0.81
   3  -2 -10    1.22    0.64
   3  -2 -10    0.62    0.62
   2  -3  10    1.34    0.71
  -1   2  10    0.38    0.38
   1  -2  10    0.08    0.41
   1  -2  10    0.10    0.21
   0   1  10    0.37    0.21
   1   0 -10    0.77    0.42
   0  -1  10    0.70    0.45
   0   1 -10    0.84    0.33
  -1   0  10    1.41    0.50
   1   0  10    0.30    0.34
   0  -1 -10    0.54    0.42
   0   1 -10    0.19    0.23
   2  -1  10    0.76    0.39
   1  -2 -10    0.30    0.40
  -1   2 -10    0.10    0.38
   3  -2  10    0.83    0.65
  -2   3 -10    0.08    0.52
   2  -3 -10    1.06    0.68
  -3   4 -10    0.53    0.63
   4  -3  10    0.88    0.92
   3  -4 -10    1.88    1.00
   4  -5 -10    0.75    0.70
   5  -4  10    2.75    1.37
   4  -5 -10    3.13    1.50
   4  -5 -10    2.08    0.71
   5  -4  10    1.17    0.75
  -4   5 -10    1.88    0.65
   5  -6 -10    3.69    1.89
   5  -6 -10    3.61    1.91
   6  -5  10    2.00    1.81
   6  -5 -11    9.92    1.65
   6  -5 -11   15.59    2.06
   6  -5 -11   13.88    2.12
   5  -6  11   13.12    2.09
  -5   4 -11   22.40    1.23
   5  -4 -11   32.55    2.00
   5  -4 -11   12.45    1.96
   5  -4 -11   32.46    2.12
   4  -5  11   23.32    1.21
   4  -5  11   33.42    2.07
   5  -4 -11   23.01    1.32
   4  -3 -11   35.18    1.57
   3  -4  11   41.77    1.99
   4  -3 -11   34.20    2.88
   4  -3 -11   42.22    1.95
   3  -4  11   29.62    1.31
   3  -2 -11   70.01    3.16
   3  -2 -11   85.98    3.23
   2  -3  11   93.06    3.29
   3  -2 -11   60.38    3.32
   1  -2  11  149.91    5.55
   2  -1 -11  143.80    5.51
   0  -1  11  188.58    6.67
   1   0 -11  197.67    6.67
   0   1 -11  167.65    6.49
   0  -1 -11  165.65    6.57
  -1   0  11  169.71    6.61
   1   0  11  189.19    6.53
   0   1 -11  192.92    6.54
   2  -1  11  137.88    5.13
   2  -1  11  136.64    5.23
   1  -2 -11  145.72    5.29
   2  -3 -11   87.40    3.64
   3  -2  11   93.18    3.64
  -2   3 -11   87.06    3.50
   3  -4 -11   39.38    2.11
   4  -3  11   41.33    2.08
  -3   4 -11   35.81    1.74
  -4   5 -11   24.76    1.29
   5  -4  11   31.91    1.99
   4  -5 -11   22.30    1.31
   4  -5 -11   31.38    2.09
   5  -6 -11   10.28    2.03
   5  -6 -11   10.85    2.11
   6  -5  11   14.00    2.11
   5  -6  12    0.83    1.80
   6  -5 -12    4.15    1.91
   6  -5 -12    1.92    1.88
   6  -5 -12    1.47    1.62
   5  -4 -12    2.40    1.21
   5  -4 -12    0.22    1.66
   5  -4 -12    1.23    0.90
  -5   4 -12    1.33    0.81
   4  -5  12    1.11    0.60
   4  -5  12    1.84    1.44
   5  -4 -12    2.26    1.36
   3  -4  12    0.10    0.98
   3  -4  12    0.60    0.27
   3  -2 -12    0.05    0.85
   2  -3  12    0.73    0.72
   3  -2 -12    1.33    0.73
   2  -1 -12    0.35    0.39
   1  -2  12    0.08    0.43
   0  -1  12    0.25    0.60
   1   0 -12    1.20    0.54
   1   0 -12    0.37    0.48
   0  -1 -12   -0.18    0.48
  -1   0  12    0.23    0.37
   1   0  12    0.09    0.42
   0   1 -12    0.14    0.22
   0   1 -12    0.10    0.39
   2  -1  12    0.10    0.39
   2  -1  12    0.17    0.40
   1  -2 -12    0.82    0.66
   1  -2 -12   -0.06    0.43
   3  -2  12    0.85    0.66
   2  -3 -12    0.84    0.72
   3  -4 -12   -0.21    1.05
   4  -3  12    0.25    0.99
  -3   4 -12    1.10    0.75
   5  -4  12    1.84    1.39
   4  -5 -12    4.09    1.47
   4  -5 -12    1.52    1.54
  -4   5 -12    1.25    0.85
   5  -6 -12    0.86    1.82
   5  -6 -12    2.41    1.93
   6  -5  12    2.83    1.84
   6  -5 -13    9.93    1.92
   6  -5 -13    8.03    1.94
   5  -6  13   11.07    2.03
   6  -5 -13    7.71    2.05
   5  -4 -13   24.73    1.93
   5  -4 -13   28.60    2.09
   5  -4 -13   20.30    1.38
  -5   4 -13   18.76    1.28
   4  -5  13   27.01    2.00
   5  -4 -13   19.86    1.75
   4  -3 -13   26.77    1.65
   3  -4  13   27.39    1.69
   4  -3 -13   24.60    1.37
   3  -2 -13   57.08    2.48
   2  -3  13   56.54    2.49
   2  -1 -13  106.81    4.47
   1  -2  13  113.29    4.51
   1   0 -13   97.94    3.69
   1   0 -13   96.21    3.74
   0  -1  13   90.53    3.69
   1   0  13   94.90    3.28
  -1   0  13   87.69    3.38
   0   1 -13   97.44    3.29
   0  -1 -13   94.40    3.37
   2  -1  13  111.92    4.22
   1  -2 -13  107.87    4.24
   1  -2 -13  112.60    4.35
   2  -1  13  110.23    4.13
   2  -3 -13   53.75    2.47
   3  -2  13   58.91    2.47
   4  -3  13   30.54    1.77
  -3   4 -13   24.86    1.46
   3  -4 -13   29.21    1.83
   4  -5 -13   22.58    1.99
  -4   5 -13   18.68    1.33
   4  -5 -13   21.76    1.95
   5  -6 -13    9.81    2.08
   6  -5  13    7.18    1.93
   5  -6 -13    7.91    1.98
   6  -5 -14    3.32    1.96
   5  -6  14    2.33    1.88
   6  -5 -14   -0.99    1.79
   6  -5 -14    1.46    2.00
  -5   4 -14    1.68    0.94
   5  -4 -14    0.98    1.51
   4  -5  14    3.77    1.45
   5  -4 -14    1.64    1.68
   5  -4 -14    1.20    1.46
   5  -4 -14    1.73    1.02
   4  -3 -14    1.48    1.22
   4  -3 -14    0.96    1.03
   4  -3 -14    1.97    0.87
   4  -3 -14    0.85    3.01
   3  -4  14    2.18    1.07
   3  -2 -14    0.93    0.73
   2  -3  14    1.21    0.69
   2  -1 -14    0.48    0.45
   2  -1 -14    0.46    1.21
   1   0 -14    0.20    0.18
   1   0 -14    0.10    0.58
   0  -1  14    0.29    0.65
   1   0 -14    1.26    0.69
   0  -1 -14    0.03    0.58
  -1   0  14    1.20    0.74
   0   1 -14    0.42    0.48
   2  -1  14    0.24    0.42
   1  -2 -14    0.41    0.73
   2  -1  14   -0.08    0.45
   3  -2  14    0.20    0.70
   2  -3 -14    0.74    0.74
   3  -4 -14    0.64    1.07
  -3   4 -14   -0.48    0.89
   4  -3  14    0.42    1.01
   4  -5 -14    1.32    1.50
   4  -5 -14    1.50    1.65
   5  -4  14    1.58    1.46
  -4   5 -14    2.40    1.02
   5  -6 -14    2.12    2.05
   5  -6 -14    2.70    1.99
   5  -6 -14    2.38    1.88
   6  -5  14    1.10    1.83
   6  -5 -15    3.74    1.92
   6  -5 -15    5.06    2.14
   5  -6  15    5.66    1.87
   5  -4 -15   16.90    1.91
   5  -4 -15   14.86    1.34
  -5   4 -15   12.62    1.27
   5  -4 -15   16.72    1.94
   5  -4 -15   19.04    1.86
   4  -5  15   21.15    1.84
   4  -3 -15   33.61    1.85
   3  -4  15   36.49    1.89
   4  -3 -15   16.17    2.02
   4  -3 -15   13.36    3.07
   4  -3 -15   32.44    1.66
   2  -3  15   66.15    2.79
   3  -2 -15   63.45    2.77
   2  -1 -15   69.73    2.99
   2  -1 -15   76.19    3.25
   1  -2  15   74.19    3.08
   1   0 -15   88.70    3.39
   0  -1  15   79.39    3.39
   1   0 -15   88.44    3.46
  -1   0  15   89.41    3.58
   0   1 -15   90.80    3.41
   0  -1 -15   83.20    3.48
   2  -1  15   74.55    2.67
   2  -1  15   69.91    2.71
   2  -3 -15   58.53    2.69
   2  -3 -15   63.09    2.85
   3  -2  15   66.70    2.71
   3  -4 -15   36.05    2.03
   4  -3  15   36.43    2.00
  -3   4 -15   33.31    1.84
  -4   5 -15   15.59    1.35
   5  -4  15   19.23    1.84
   4  -5 -15   15.50    1.80
   4  -5 -15   16.09    1.95
   6  -5  15    5.45    1.92
   5  -6 -15    5.20    1.88
   6  -5 -16    2.77    1.91
   5  -6  16    1.51    1.85
  -5   4 -16    1.39    1.09
   5  -4 -16    3.22    1.72
   4  -5  16    0.46    1.41
   5  -4 -16    4.19    1.73
   5  -4 -16    1.36    1.47
   5  -4 -16    1.74    1.19
   4  -3 -16    0.91    1.00
   3  -4  16    0.24    1.02
   4  -3 -16    1.04    1.08
   2  -3  16    0.13    0.76
   3  -2 -16    0.77    0.76
   2  -1 -16    0.01    0.47
   2  -1 -16   -0.31    0.98
   2  -1 -16    0.27    0.90
   1  -2  16    1.04    0.73
   0  -1  16    0.53    0.75
   1   0 -16    0.66    0.69
   1   0 -16    0.14    0.82
   0  -1 -16   -0.77    0.75
  -1   0  16    0.33    0.86
   0   1 -16    0.73    0.60
   2  -1  16    0.45    0.48
   1  -2 -16    0.80    0.83
   2  -1  16    0.23    0.54
   2  -3 -16    0.49    0.79
   2  -3 -16    0.37    1.07
   3  -2  16    0.77    0.58
   3  -2  16   -0.38    0.74
  -3   4 -16    0.94    1.04
   3  -4 -16    2.21    1.09
   4  -3  16   -0.60    1.10
  -4   5 -16    1.36    1.17
   5  -4  16    3.86    1.47
   4  -5 -16    1.48    1.43
   6  -5  16    1.18    1.85
   5  -6 -16    1.67    1.87
   6  -5 -17    4.66    1.93
   5  -6  17    3.05    1.90
   4  -5  17   12.74    1.69
   5  -4 -17   10.94    1.38
  -5   4 -17    8.17    1.31
   5  -4 -17   11.14    1.68
   5  -4 -17   11.88    1.91
   5  -4 -17   10.10    1.97
   4  -3 -17   20.91    1.61
   3  -4  17   22.75    1.61
   4  -3 -17   19.04    1.46
   2  -3  17   51.36    2.38
   3  -2 -17   48.84    2.35
   2  -1 -17   70.03    2.93
   2  -1 -17   82.75    3.29
   1  -2  17   72.61    3.06
   2  -1 -17   83.73    3.23
   0  -1  17   91.20    3.80
   1   0 -17   93.18    3.80
   0  -1 -17   94.74    3.89
  -1   0  17   96.55    3.97
   0   1 -17   99.92    3.78
   1  -2 -17   79.93    2.61
   2  -1  17   69.81    2.24
   3  -2  17   48.36    2.00
   2  -3 -17   47.77    2.20
   3  -4 -17   20.13    1.61
   3  -4 -17   22.26    1.86
   4  -3  17   22.50    1.62
  -3   4 -17   20.70    1.53
   5  -4  17   13.13    1.67
  -4   5 -17    9.70    1.35
   4  -5 -17   10.39    1.64
   6  -5  17    7.04    2.02
   5  -6 -17    5.39    1.96
   5  -6  18   -0.14    1.80
   6  -5 -18   -1.31    2.00
  -5   4 -18    2.72    1.26
   5  -4 -18    1.53    1.48
   5  -4 -18    0.04    1.75
   5  -4 -18    1.19    1.80
   4  -5  18    1.13    1.45
   5  -4 -18    1.29    1.29
   4  -3 -18   -0.61    1.10
   3  -4  18    0.95    1.06
   4  -3 -18    0.84    1.09
   3  -2 -18    0.44    0.81
   3  -2 -18    0.91    1.22
   3  -2 -18    0.66    1.24
   2  -1 -18   -1.02    0.95
   2  -1 -18   -0.57    1.16
   1  -2  18    1.21    0.94
   2  -1 -18    0.73    0.50
   1   0 -18    0.36    0.80
   0  -1  18   -0.50    0.93
   1   0 -18    0.89    1.03
   0   1 -18    0.22    0.68
  -1   0  18    1.00    0.99
   0  -1 -18   -0.54    0.94
   2  -1  18    0.70    0.50
   1  -2 -18    0.54    0.98
   2  -1  18    0.01    0.65
   3  -2  18    0.64    0.77
   3  -2  18    0.59    0.64
   2  -3 -18    0.82    1.07
  -3   4 -18   -0.19    1.12
   3  -4 -18    0.03    1.08
   3  -4 -18   -0.38    1.28
   4  -3  18    2.29    1.10
  -4   5 -18    1.89    1.28
   5  -4  18   -0.61    1.42
   4  -5 -18    0.24    1.47
   5  -6 -18    1.49    1.91
   6  -5  18    2.65    1.90
   5  -6  19    2.77    1.85
   6  -5 -19    3.55    1.99
   5  -4 -19    6.51    1.42
   4  -5  19    5.39    1.52
  -5   4 -19    5.66    1.38
   5  -4 -19    4.97    1.57
   5  -4 -19    8.92    1.99
   4  -3 -19   10.20    1.26
   3  -4  19    8.64    1.24
   4  -3 -19    8.13    1.31
   3  -2 -19   20.84    1.61
   3  -2 -19   15.42    1.17
   2  -3  19   18.40    1.26
   3  -2 -19   16.75    1.63
   1  -2  19   21.91    1.39
   2  -1 -19   25.11    1.53
   2  -1 -19   27.80    1.75
   2  -1 -19   20.59    1.07
  -1   0 -19   40.33    1.80
   1   0 -19   38.32    1.90
   0  -1  19   35.16    1.94
  -1   0  19   40.80    2.06
   0  -1 -19   41.13    2.01
   0   1 -19   37.29    1.78
   2  -1  19   20.01    1.01
   2  -1  19   22.40    1.18
   1  -2 -19   23.31    1.52
   2  -3 -19   17.41    1.51
   3  -2  19   17.75    1.15
   3  -2  19   14.65    0.97
   4  -3  19    9.55    1.25
  -3   4 -19    9.35    1.34
   3  -4 -19   10.60    1.28
   4  -3  19    7.36    0.80
   3  -4 -19    9.33    1.44
   4  -5 -19    6.65    1.58
  -4   5 -19    7.54    1.44
   5  -4  19    7.58    1.60
   5  -6 -19    4.87    1.91
   6  -5  19    3.51    2.02
   5  -6  20    2.38    1.93
   5  -4 -20    1.71    1.55
   4  -5  20    0.44    1.44
  -5   4 -20    1.48    1.37
   5  -4 -20    0.23    1.38
   4  -3 -20    0.96    1.12
   4  -3 -20    0.62    1.55
   3  -4  20    1.58    1.13
   4  -3 -20    0.97    1.24
   3  -2 -20   -0.67    1.37
   3  -2 -20    1.32    1.28
   2  -3  20    0.11    0.92
   3  -2 -20    1.23    0.81
   2  -1 -20    1.33    1.22
   1  -2  20    0.19    0.94
   2  -1 -20    1.08    0.44
   2  -1 -20    0.94    1.02
   1   0 -20    0.06    0.90
   0  -1  20    0.06    0.93
  -1   0 -20   -0.03    1.67
   0  -1 -20    0.94    1.04
   0   1 -20    0.17    0.77
  -1   0  20   -0.46    1.11
   1  -2 -20   -0.54    1.11
   2  -1  20    0.59    0.74
   3  -2  20    0.93    0.68
   3  -2  20    0.68    0.79
   2  -3 -20    1.42    1.31
   3  -4 -20    3.02    1.17
   4  -3  20    0.47    0.74
   4  -3  20    1.03    1.12
   3  -4 -20    1.74    1.50
  -3   4 -20    0.77    1.26
   5  -4  20   -1.24    1.46
   4  -5 -20    1.96    1.75
  -4   5 -20    1.46    1.46
   4  -5 -20    2.37    1.44
   6  -5  20    1.26    1.94
   5  -6  21    2.72    1.96
   4  -5  21    3.76    1.55
  -5   4 -21    4.07    1.49
   5  -4 -21    5.02    1.62
   5  -4 -21    2.21    1.48
   4  -3 -21    7.95    1.74
   4  -3 -21    5.53    1.23
   3  -4  21    8.16    1.22
   4  -3 -21    6.92    1.40
   3  -2 -21   10.50    1.60
   3  -2 -21    9.37    1.00
   2  -3  21    8.96    1.17
   3  -2 -21   11.52    1.52
   2  -1 -21   10.95    1.42
   1  -2  21    9.99    1.16
   2  -1 -21   10.93    1.30
  -1   0 -21   18.60    1.11
   1   0 -21   18.98    1.33
   0  -1 -21   18.76    1.42
   0   1 -21   19.02    1.27
  -1   0  21   22.93    1.60
   1  -2 -21    8.75    1.27
   3  -2  21    7.75    0.77
   3  -2  21    8.93    0.94
   3  -4 -21    5.74    1.66
  -3   4 -21    5.47    1.42
   4  -3  21    6.03    1.23
   4  -5 -21    4.95    1.59
   4  -5 -21    5.14    1.98
   5  -4  21    4.81    1.58
  -4   5 -21    4.54    1.59
   6  -5  21    3.33    1.92
   5  -4 -22    0.63    1.52
  -5   4 -22    2.52    1.54
   4  -3 -22    2.37    1.39
   4  -3 -22    0.50    1.67
   4  -3 -22    1.34    1.17
   4  -3 -22    1.79    1.72
   3  -2 -22    0.70    1.38
   3  -2 -22    0.89    1.56
   2  -3  22    1.42    1.08
   3  -2 -22   -0.69    0.75
   1  -2  22    1.38    1.03
   2  -1 -22    2.18    1.23
   2  -1 -22    0.71    1.26
   1   0 -22    2.62    1.05
  -1   0 -22    0.39    0.82
   0  -1  22   -0.42    1.14
   0   1 -22    1.33    0.92
   0  -1 -22    1.62    1.10
   1  -2 -22    0.79    1.27
   3  -2  22    1.02    0.78
   3  -2  22    1.44    0.78
  -3   4 -22    0.59    1.41
   3  -4 -22    2.81    1.73
   4  -3  22    1.50    1.10
  -4   5 -22    0.52    1.61
   5  -4  22    0.63    1.44
   6  -5  22    0.84    1.81
  -5   4 -23    4.17    1.61
   4  -3 -23    4.43    1.48
   4  -3 -23    3.82    1.17
   4  -3 -23    4.78    1.82
   4  -3 -23    3.64    1.91
   3  -2 -23    8.73    1.85
   3  -2 -23    6.31    0.85
   3  -2 -23   10.24    1.64
   2  -3  23    6.59    1.21
   2  -1 -23   11.06    1.46
   2  -1 -23   12.65    1.59
   1  -2  23   12.17    1.33
  -1   0 -23   17.83    1.30
   1   0 -23   20.69    1.51
   0  -1 -23   21.28    1.64
   0  -1 -23   22.53    1.65
   0   1 -23   21.02    1.43
   1  -2 -23   11.58    1.54
   2  -3 -23    6.64    1.62
   3  -2  23    6.45    0.86
   3  -4 -23    6.43    1.78
  -3   4 -23    7.01    1.58
   4  -3  23    5.06    1.15
  -4   5 -23    3.10    1.72
   5  -4  23    1.82    1.45
  -5   4 -24    3.45    1.72
   4  -3 -24    2.65    1.54
   4  -3 -24    2.63    1.86
   4  -3 -24    2.23    1.93
   3  -2 -24    0.16    1.54
   3  -2 -24    2.71    1.75
   2  -3  24    0.72    1.15
   2  -1 -24    1.33    1.33
   2  -1 -24    2.09    1.44
   1  -2  24    1.98    1.14
   1   0 -24   -0.07    1.13
  -1   0 -24    0.24    0.92
   0  -1  24    1.26    1.26
   0   1 -24    0.64    1.00
   0  -1 -24    2.15    1.35
   0  -1 -24    4.43    2.87
   1  -2 -24    0.85    1.48
   2  -3 -24    0.16    1.51
   3  -4 -24    2.69    1.91
   4  -3  24    1.55    1.08
   3  -4 -24    1.69    1.81
  -3   4 -24    2.26    1.62
  -4   5 -24    1.54    1.77
   5  -4  24    0.35    1.47
  -5   4 -25    3.56    1.78
   4  -3 -25    3.73    1.66
   4  -3 -25    6.03    2.14
   4  -3 -25    5.65    2.02
   3  -2 -25    8.32    1.85
   3  -2 -25    4.67    1.71
   2  -1 -25    7.22    1.70
   1  -2  25    5.91    1.04
   2  -1 -25    8.28    1.50
   0  -1  25    6.98    1.44
   1   0 -25    5.50    1.28
  -1   0 -25    7.55    1.06
   0   1 -25    6.31    1.13
   0  -1 -25    6.11    1.42
   1  -2 -25    8.32    1.60
   1  -2 -25    6.76    1.61
   2  -3 -25    6.29    1.75
   2  -3 -25    6.97    1.75
   3  -4 -25    3.42    1.93
  -3   4 -25    3.26    1.70
   4  -3  25    4.81    1.16
   3  -4 -25    1.31    2.54
  -4   5 -25    3.68    1.93
  -5   4 -26    0.03    1.83
   4  -3 -26    0.59    1.68
   4  -3 -26    1.10    2.00
   4  -3 -26    4.72    2.31
   3  -2 -26   -0.37    1.61
   3  -2 -26    2.26    1.70
   2  -1 -26    2.35    1.73
   1  -2  26    1.62    1.29
   2  -1 -26    0.03    1.45
  -1   0 -26    1.31    1.00
   0  -1  26    0.85    1.37
   1   0 -26   -0.85    1.24
   0   1 -26    1.11    1.10
   0  -1 -26    1.12    1.16
   1  -2 -26    1.88    3.62
   1  -2 -26   -0.15    1.50
  -2   3 -26    0.51    1.67
   2  -3 -26    1.29    1.74
   2  -3 -26   -0.82    2.70
   3  -4 -26    4.85    5.13
  -3   4 -26    1.93    1.77
   3  -4 -26    0.15    1.90
  -4   5 -26    1.30    1.96
   4  -3 -27    2.72    1.77
   3  -2 -27    5.27    1.87
   3  -2 -27    4.13    1.79
   1  -2  27    3.97    1.39
   2  -1 -27    3.87    1.52
   2  -1 -27    5.11    1.86
  -1   0 -27    3.73    1.11
   1   0 -27    5.44    1.39
   0   1 -27    5.14    1.25
   0  -1 -27    4.42    1.28
   1  -2 -27    3.86    1.75
   1  -2 -27    3.65    1.56
  -2   3 -27    5.51    1.81
   2  -3 -27    1.87    1.91
  -3   4 -27    4.10    1.87
  -4   5 -27    0.53    2.02
   4  -3 -28    2.21    1.82
   3  -2 -28    1.97    1.83
   3  -2 -28    3.18    1.91
   3  -2 -28    2.05    1.77
   2  -1 -28    3.34    1.60
   1   0 -28    1.10    1.40
  -1   0 -28    0.60    1.10
   0   1 -28    1.04    1.27
   0  -1 -28    0.76    1.32
   1  -2 -28    2.96    1.66
   1  -2 -28   -0.20    1.51
   2  -3 -28    1.27    2.04
  -2   3 -28    1.65    1.80
   2  -3 -28    2.04    2.08
  -3   4 -28    4.20    1.98
   3  -2 -29    3.74    2.08
   3  -2 -29    4.21    1.90
   3  -2 -29    4.49    1.88
   2  -1 -29    4.57    1.72
  -1   0 -29    2.92    1.21
   1   0 -29    3.63    1.52
   0  -1 -29    4.44    1.42
   0   1 -29    3.91    1.38
   1  -2 -29    8.53    1.87
   1  -2 -29    3.59    1.60
  -2   3 -29    1.87    1.84
   2  -3 -29    2.39    1.85
   2  -3 -29    2.65    1.98
   3  -2 -30    1.98    1.93
   2  -1 -30    1.22    1.73
  -1   0 -30    2.48    1.26
   1   0 -30    3.14    1.52
   0   1 -30    1.30    1.33
   0  -1 -30    2.83    1.45
   1  -2 -30    4.84    1.97
   1  -2 -30    0.93    1.63
   2  -3 -30    4.20    1.85
   2  -3 -30    2.94    1.90
   2  -1 -31    3.03    1.77
   1   0 -31    2.53    1.60
   0  -1 -31    2.54    1.49
   1  -2 -31    3.72    1.77
   2  -1 -32    4.69    1.90
   1   0 -32    1.19    1.65
   0  -1 -32    3.15    1.58
   1  -2 -32    3.25    1.79
   2  -1 -33    3.52    1.98
   1  -2 -33    1.92    1.83
   2  -1 -34    2.46    2.01
   1  -2 -34    3.56    1.90
  -1  -1   0 2217.21   79.48
   1   1   0 2170.42   79.49
   0   2   0 2255.19   79.29
   2   0   0 2179.66   79.15
   2   0   0 2199.26   79.19
   0  -2   0 2097.61   79.15
   2   0   0 2259.26   79.18
  -1   3   0  317.85   11.54
  -1   3   0  316.84   11.77
  -3   1   0  322.39   11.54
   1  -3   0  314.77   11.77
   1  -3   0  314.13   11.54
   3  -1   0  310.52   11.63
   3  -1   0  311.74   11.63
   3  -1   0  316.11   11.54
   4  -2   0  143.04    5.42
   2  -4   0  147.02    5.66
   4  -2   0  136.46    5.39
   2  -4   0  141.06    5.19
  -2   4   0  141.20    5.56
  -4   2   0  140.98    5.18
   5  -3   0  125.15    4.55
   5  -3   0  123.14    4.51
   5  -3   0  129.12    4.78
   6  -4   0   28.00    1.86
   4  -6   0   30.44    2.24
   6  -4   0   28.57    2.20
   6  -4   0   28.82    1.98
   7  -5   0   18.35    2.06
   7  -5   0   18.63    2.34
   7  -5   0   16.46    1.89
   5  -7   0   14.29    2.28
   7  -5  -1    2.85    2.01
   7  -5  -1    5.98    1.89
   5  -7   1    3.23    2.00
   7  -5  -1    3.34    1.74
   6  -4  -1    2.49    1.55
   6  -4  -1    4.43    1.36
   6  -4  -1    4.64    1.43
   4  -6   1    1.34    1.55
   5  -3  -1    2.96    1.11
   5  -3  -1    6.43    1.20
   5  -3  -1    6.05    1.10
   4  -2  -1    2.42    0.76
   4  -2  -1    3.32    0.73
  -4   2  -1   -0.90    0.36
   2  -4   1   -0.86    0.38
  -2   4   1    3.31    0.80
   2  -4   1    2.10    0.85
   1  -3   1    0.47    0.35
   3  -1  -1    0.81    0.42
   3  -1  -1   -0.25    0.32
  -3   1  -1   -0.36    0.31
  -1   3   1    2.55    0.60
   1  -3   1    1.97    0.59
   3  -1  -1    1.24    0.49
  -2   0  -1    0.82    0.24
   2   0  -1    1.26    0.38
   2   0  -1    0.18    0.23
   2   0  -1    0.82    0.32
  -1  -1   1   -0.24    0.21
   1   1  -1    0.11    0.17
  -1  -1  -1    0.33    0.19
   1   1   1   -0.15    0.17
   2   0   1    1.03    0.31
   0   2  -1    1.88    0.43
   0  -2  -1    0.71    0.25
   2   0   1    1.16    0.30
  -1   3  -1   -0.46    0.33
   3  -1   1    1.18    0.44
   1  -3  -1    3.72    0.60
   3  -1   1    1.37    0.45
   1  -3  -1   -0.21    0.33
  -3   1   1   -0.43    0.32
  -1   3  -1    2.50    0.62
   4  -2   1    1.93    0.70
  -2   4  -1    1.55    0.79
   4  -2   1    1.31    0.66
   2  -4  -1   -0.44    0.38
   2  -4  -1    3.75    0.87
   5  -3   1    5.22    1.09
   5  -3   1    3.70    1.09
   5  -3   1    5.05    1.04
   3  -5  -1    1.47    1.34
   6  -4   1    2.96    1.30
   6  -4   1    2.98    1.56
   4  -6  -1    4.20    1.57
   6  -4   1    3.41    1.40
   7  -5   1    2.30    2.03
   7  -5   1    3.75    1.65
   5  -7  -1    4.65    2.03
   7  -5   1    4.33    1.78
   7  -5  -2   19.33    2.37
   7  -5  -2   14.33    1.98
   7  -5  -2   17.39    2.07
   6  -4  -2   23.53    1.82
   6  -4  -2   28.87    2.16
   6  -4  -2   27.75    1.96
   5  -3  -2   95.67    4.02
   5  -3  -2   97.78    4.00
   5  -3  -2   98.12    4.17
   4  -2  -2  147.01    5.57
  -4   2  -2  145.82    5.32
   4  -2  -2  142.08    5.32
   4  -2  -2  146.40    5.56
   1  -3   2  409.42   14.86
  -3   1  -2  447.36   14.87
   3  -1  -2  418.37   14.98
  -3   1  -2  437.99   14.94
   3  -1  -2  417.45   14.86
   0  -2   2  880.37   31.83
   2   0  -2  880.68   31.88
  -2   0  -2  878.59   31.80
   2   0  -2  884.05   31.84
   2   0  -2  857.55   31.87
  -1  -1   2   10.65    0.51
   1   1  -2    9.87    0.50
  -1  -1  -2   10.52    0.51
   0   2  -2  906.32   31.44
   0  -2  -2  863.32   31.31
  -2   0   2  880.69   31.36
   2   0   2  838.71   31.28
   3  -1   2  404.38   15.21
  -3   1   2  423.29   15.15
   1  -3  -2  407.56   15.16
  -1   3  -2  430.73   15.38
   3  -1   2  410.32   15.21
   1  -3  -2  416.19   15.38
  -1   3  -2  424.00   15.16
   4  -2   2  143.92    5.56
  -2   4  -2  148.12    5.75
   4  -2   2  142.41    5.56
  -2   4  -2  147.05    5.39
   2  -4  -2  154.56    5.84
   2  -4  -2  146.14    5.39
   5  -3   2   93.21    3.48
   5  -3   2   93.18    3.45
   6  -4   2   25.61    1.72
   4  -6  -2   29.69    2.21
   6  -4   2   27.01    1.93
   5  -7  -2   16.52    2.33
   7  -5   2   18.98    2.02
   7  -5   2   12.22    1.81
   7  -5  -3    3.23    1.78
   7  -5  -3    4.25    2.11
   7  -5  -3    5.40    1.71
   6  -4  -3    2.04    1.55
   6  -4  -3    4.16    1.45
   6  -4  -3    3.69    1.47
   5  -3  -3    2.31    1.09
   5  -3  -3    4.49    1.17
   5  -3  -3    5.28    1.13
   4  -2  -3    2.43    0.79
   4  -2  -3    0.33    0.37
  -4   2  -3    0.01    0.36
   4  -2  -3    2.04    0.78
  -3   1  -3    0.38    0.31
   3  -1  -3    1.51    0.48
   1  -3   3    0.52    0.35
  -3   1  -3    1.24    0.53
   3  -1  -3   -0.07    0.31
   3  -1  -3    1.29    0.52
   2   0  -3    0.46    0.32
   2   0  -3    0.66    0.36
  -2   0  -3    0.26    0.21
  -2   0  -3    0.32    0.30
   2   0  -3    0.26    0.23
   0  -2   3    0.05    0.24
  -1  -1   3    0.38    0.21
   1   1  -3    0.44    0.19
  -1  -1   3    0.51    0.27
   0  -2  -3   -0.04    0.24
   0   2  -3    0.79    0.38
   2   0   3    0.15    0.20
  -2   0   3    0.63    0.34
  -3   1   3    0.08    0.32
  -1   3  -3    0.01    0.32
   3  -1   3    0.71    0.40
   1  -3  -3    0.25    0.33
   3  -1   3    0.96    0.41
  -1   3  -3    1.21    0.58
  -2   4  -3    2.11    0.79
  -2   4  -3    0.21    0.37
   4  -2   3    0.97    0.60
   2  -4  -3    1.04    0.39
   5  -3   3    3.83    1.05
   5  -3   3    2.33    0.90
   3  -5  -3    2.19    1.34
   6  -4   3    2.21    1.17
   6  -4   3    3.54    1.37
   4  -6  -3    1.92    1.61
   7  -5   3    4.72    1.76
   7  -5   3    3.96    1.57
   5  -7  -3    3.31    2.10
   7  -5  -4    8.90    1.28
   5  -7   4   12.33    1.70
   7  -5  -4   14.73    2.22
   7  -5  -4   14.17    2.03
   6  -4  -4   23.60    1.93
   6  -4  -4   24.89    1.93
   6  -4  -4   29.55    2.21
   5  -3  -4   85.57    3.79
   5  -3  -4   86.08    3.68
   5  -3  -4   87.18    3.68
   4  -2  -4  138.66    5.25
  -4   2  -4  143.72    5.25
   4  -2  -4  146.49    5.50
   4  -2  -4  139.60    5.48
   3  -1  -4  345.57   13.35
   3  -1  -4  346.74   13.24
  -3   1  -4  342.88   13.23
   3  -1  -4  320.70   13.33
   2   0  -4  357.89   13.29
   2   0  -4  378.12   13.24
   0  -2   4  349.95   13.22
  -2   0  -4  371.06   13.21
   2   0  -4  349.83   13.28
  -1  -1   4  134.78    4.90
   1   1  -4  130.51    4.91
  -1  -1   4  130.16    4.89
  -2   0   4  365.71   13.55
   0   2  -4  375.61   13.61
   3  -1   4  337.31   12.23
   1  -3  -4  329.52   12.23
  -1   3  -4  335.00   12.23
   1  -3  -4  335.94   12.44
  -1   3  -4  348.12   12.45
   3  -1   4  329.92   12.24
  -2   4  -4  137.51    5.14
  -2   4  -4  143.35    5.47
   4  -2   4  140.00    5.25
   2  -4  -4  148.19    5.58
   2  -4  -4  135.39    5.15
   3  -5  -4   66.56    2.50
   5  -3   4   81.21    2.86
   6  -4   4   22.94    1.74
   4  -6  -4   24.11    2.07
   6  -4   4   24.96    1.65
   5  -7  -4   14.30    2.25
   7  -5   4   16.29    1.91
   7  -5   4   13.73    1.67
   7  -5  -5    4.53    1.54
   5  -7   5    3.26    2.01
   7  -5  -5    5.41    1.89
   5  -7   5    2.72    2.03
   7  -5  -5    3.13    2.09
   4  -6   5    1.39    1.55
   6  -4  -5    1.98    1.52
   6  -4  -5    5.50    1.56
   6  -4  -5    4.17    1.50
   5  -3  -5    1.32    0.43
  -5   3  -5    1.21    0.32
   5  -3  -5    5.09    1.21
   5  -3  -5    3.70    1.17
   5  -3  -5    3.08    1.13
  -4   2  -5    0.68    0.43
   4  -2  -5    2.07    0.84
   4  -2  -5    1.40    0.46
  -2   4   5    2.58    0.78
   4  -2  -5    3.27    0.84
   3  -1  -5    1.14    0.58
  -3   1  -5    1.24    0.97
   3  -1  -5    1.15    0.55
   3  -1  -5    1.01    0.37
   2   0  -5    0.29    0.41
   2   0  -5    0.19    0.27
   2   0  -5    0.54    0.35
   0  -2   5    0.31    0.28
  -1  -1   5    0.25    0.25
   1   1  -5    0.10    0.22
  -1  -1   5    0.14    0.28
  -2   0   5    0.67    0.46
  -2   0   5    0.81    0.41
   0   2  -5    0.65    0.37
   1  -3  -5    0.74    0.55
   3  -1   5    0.24    0.36
  -1   3  -5    1.05    0.40
  -1   3  -5    1.08    0.55
   2  -4  -5    1.37    0.80
  -2   4  -5    2.74    0.82
   4  -2   5    1.05    0.59
  -2   4  -5    0.68    0.45
   2  -4  -5    1.08    0.48
   3  -5  -5    4.10    1.26
   3  -5  -5    2.16    0.48
   5  -3   5    2.57    0.87
   6  -4   5    1.94    1.10
   6  -4   5    3.42    1.31
   6  -4   5    3.86    1.58
   4  -6  -5    3.71    1.64
   7  -5   5    2.97    1.45
   5  -7  -5    5.04    2.10
   7  -5   5    5.28    1.75
   7  -5   5    2.89    2.01
   5  -7   6   11.74    2.20
   7  -5  -6   12.61    1.93
   7  -5  -6   13.97    2.25
   7  -5  -6   13.81    2.07
   6  -4  -6   23.58    1.98
   6  -4  -6   20.94    1.88
   6  -4  -6   17.72    1.69
   4  -6   6   19.45    1.96
   5  -3  -6   94.73    3.72
   5  -3  -6   86.84    3.56
   3  -5   6   98.04    3.82
   5  -3  -6   85.47    3.14
   5  -3  -6   94.03    3.62
   4  -2  -6  156.02    5.25
  -2   4   6  154.91    5.52
  -4   2  -6  159.24    5.23
   2  -4   6  159.92    5.62
   4  -2  -6  159.19    5.50
   3  -1  -6  235.61    9.57
   3  -1  -6  244.77    9.47
  -1   3   6  246.76    9.62
   3  -1  -6  240.80    9.58
   1  -3   6  229.32    9.61
   0   2   6  489.84   17.90
   2   0  -6  494.84   17.93
   2   0  -6  499.20   17.87
   2   0  -6  472.77   17.89
  -1  -1   6  120.93    4.59
   1   1  -6  122.97    4.62
  -1  -1   6  126.19    4.65
   0   2  -6  491.06   19.94
  -2   0   6  496.59   19.94
  -1   3  -6  239.07    8.89
  -1   3  -6  245.61    9.07
   1  -3  -6  240.55    9.07
   2  -4  -6  161.79    5.99
  -2   4  -6  154.07    5.89
  -2   4  -6  151.19    5.61
   2  -4  -6  149.83    5.61
   4  -2   6  144.50    5.63
   5  -3   6   84.06    3.24
   3  -5  -6   82.25    3.06
   3  -5  -6   92.14    3.77
   5  -3   6   92.24    3.66
   6  -4   6   19.59    1.60
   6  -4   6   20.06    1.98
   4  -6  -6   19.28    2.00
   6  -4   6   17.50    1.39
   7  -5   6   14.29    1.85
   7  -5   6   14.62    2.33
   5  -7  -6   12.51    2.18
   5  -7   7    3.00    2.00
   7  -5  -7    4.63    1.89
   7  -5  -7    4.39    2.01
   7  -5  -7    6.61    2.01
   6  -4  -7    2.20    1.53
   4  -6   7    3.21    1.61
   6  -4  -7    1.58    0.93
   6  -4  -7    1.18    1.51
   5  -3  -7    2.91    0.99
   5  -3  -7    3.47    1.27
   3  -5   7    3.00    1.24
  -5   3  -7    2.45    0.62
   5  -3  -7    3.08    1.14
   5  -3  -7    1.86    0.60
   4  -2  -7    2.99    0.92
   4  -2  -7    1.02    0.57
   4  -2  -7    1.33    0.76
  -2   4   7    1.84    0.77
   2  -4   7    2.37    0.85
  -1   3   7    0.61    0.56
   1  -3   7    1.15    0.56
  -3   1  -7    0.87    0.47
   3  -1  -7    0.72    0.44
   3  -1  -7    0.75    0.63
   3  -1  -7    0.70    0.62
   2   0  -7    0.77    0.37
   2   0  -7    0.58    0.51
   0   2   7    0.61    0.38
  -1  -1   7   -0.07    0.42
  -1  -1   7    0.30    0.32
   1   1  -7    0.05    0.29
   0   2  -7    0.47    0.39
  -2   0   7    1.38    0.53
  -2   0   7    1.11    0.54
   1  -3  -7    0.86    0.55
  -1   3  -7    0.75    0.46
  -1   3  -7    0.60    0.58
  -2   4  -7    1.48    0.53
   2  -4  -7    1.67    0.88
   4  -2   7    1.48    0.59
  -2   4  -7    2.28    0.79
   3  -5  -7    3.11    1.24
   5  -3   7    3.40    1.18
   5  -3   7    2.56    0.79
   3  -5  -7    1.96    0.61
  -3   5  -7    1.06    0.58
   6  -4   7    1.63    1.04
   4  -6  -7    2.36    1.61
   6  -4   7    4.09    1.57
   6  -4   7    2.43    1.25
   5  -7  -7    4.55    2.07
   7  -5   7    5.80    1.71
   7  -5   7    3.90    2.14
   5  -7   8   13.67    2.29
   7  -5  -8   13.42    2.14
   7  -5  -8   13.94    2.15
   7  -5  -8   12.92    2.23
   6  -4  -8   16.90    1.70
   6  -4  -8   22.55    2.03
   6  -4  -8   20.86    1.90
   4  -6   8   20.18    1.99
   5  -3  -8   67.98    2.90
  -5   3  -8   58.14    2.29
   5  -3  -8   57.00    2.32
   5  -3  -8   63.21    2.82
   3  -5   8   62.65    2.91
   4  -2  -8  132.93    4.87
   4  -2  -8  130.36    5.07
   4  -2  -8  119.24    5.03
  -2   4   8  124.15    5.05
   2  -4   8  129.93    5.15
   1  -3   8  202.45    8.14
  -3   1  -8  230.90    7.94
   3  -1  -8  210.43    8.14
  -1   3   8  214.29    8.14
   3  -1  -8  200.26    8.12
   3  -1  -8  216.11    8.05
   2   0  -8  463.05   16.11
   0  -2   8  422.20   15.93
   0   2   8  436.44   16.03
   2   0  -8  449.30   16.04
  -1  -1   8  177.37    6.95
   1   1  -8  190.86    6.96
  -1  -1   8  185.96    6.90
   1   1  -8  191.51    6.92
   0   2  -8  444.72   16.42
  -2   0   8  450.85   16.44
   1  -3  -8  198.77    7.70
  -1   3  -8  208.73    7.72
  -1   3  -8  203.39    7.58
  -2   4  -8  120.64    5.00
   2  -4  -8  125.87    5.10
  -2   4  -8  128.87    4.79
   3  -5  -8   56.80    2.33
   3  -5  -8   62.00    2.91
   5  -3   8   57.00    2.41
  -3   5  -8   55.40    2.32
   4  -6  -8   15.64    1.96
   6  -4   8   19.61    2.00
   6  -4   8   17.52    1.51
   6  -4   8   16.14    1.29
   7  -5   8   14.42    2.30
   5  -7  -8   13.26    2.28
   7  -5  -9    5.11    2.07
   7  -5  -9    6.07    2.07
   5  -7   9    3.90    2.10
   7  -5  -9    5.93    2.08
   6  -4  -9    2.16    1.49
   6  -4  -9    1.48    1.60
   4  -6   9    1.91    1.52
   6  -4  -9    0.77    0.41
   6  -4  -9    2.90    1.57
  -5   3  -9    1.80    0.66
   3  -5   9    1.87    1.21
   5  -3  -9    0.93    1.13
   5  -3  -9    2.02    0.72
   5  -3  -9    2.56    1.27
   5  -3  -9    3.14    1.19
   2  -4   9    1.34    0.80
   4  -2  -9    1.55    0.96
   4  -2  -9    1.02    0.63
   4  -2  -9    1.95    0.94
  -2   4   9    0.78    0.78
   1  -3   9    0.38    0.53
  -3   1  -9    0.38    0.37
   3  -1  -9    0.83    0.68
   3  -1  -9    0.52    0.68
   3  -1  -9    0.65    0.50
  -1   3   9    0.15    0.56
   0   2   9    0.21    0.40
   2   0  -9    0.37    0.43
   0  -2   9    0.35    0.35
   2   0  -9    1.25    0.59
  -1  -1   9    0.56    0.48
   1   1  -9    0.30    0.36
   1   1  -9    0.63    0.40
  -1  -1   9   -0.16    0.39
  -2   0   9    0.69    0.58
   0   2  -9    0.27    0.42
   1  -3  -9    0.76    0.56
  -1   3  -9    0.11    0.48
  -1   3  -9    1.24    0.60
   2  -4  -9    1.13    0.85
  -2   4  -9    1.07    0.63
   4  -2   9    1.31    0.81
  -2   4  -9    1.21    0.83
   3  -5  -9    2.64    1.25
   3  -5  -9    1.64    0.71
   5  -3   9    0.07    1.11
  -3   5  -9    1.85    0.68
   4  -6  -9    4.26    1.66
   4  -6  -9    1.58    0.57
   6  -4   9    3.37    1.61
   6  -4   9    0.93    1.20
   4  -6  -9    1.60    0.57
   5  -7  -9    4.55    2.09
   7  -5   9    2.60    2.11
   7  -5 -10    7.77    2.18
   7  -5 -10   11.89    2.23
   7  -5 -10   12.85    2.26
   5  -7  10    9.46    2.31
   6  -4 -10   15.93    1.87
   4  -6  10   15.44    1.82
  -6   4 -10    6.25    0.48
   4  -6  10   13.89    1.24
   6  -4 -10   13.41    1.74
   6  -4 -10   17.62    1.89
  -6   4 -10    6.29    0.49
   6  -4 -10    9.50    0.80
   5  -3 -10   45.63    2.01
  -5   3 -10   43.88    1.94
   3  -5  10   48.19    2.48
   5  -3 -10   44.69    2.41
   5  -3 -10   47.05    2.46
   5  -3 -10   47.87    2.47
   4  -2 -10   78.97    2.82
   4  -2 -10   80.70    2.59
  -2   4  10   24.96    2.79
   4  -2 -10   39.64    2.86
   4  -2 -10   48.01    2.86
   2  -4  10   78.62    2.85
   1  -3  10  129.56    5.25
  -1   3  10  114.57    5.22
   3  -1 -10  131.23    5.26
   3  -1 -10  125.82    5.26
   3  -1 -10  129.68    5.17
   2   0 -10  328.86   11.74
   0   2  10  323.06   11.69
   0  -2  10  309.29   11.60
   1   1 -10  278.99   10.65
  -1  -1 -10  279.31   10.53
  -1  -1  10  301.83   10.60
  -1  -1  10  281.70   10.66
   1   1 -10  298.99   10.61
  -2   0  10  323.09   12.22
   0   2 -10  336.88   12.18
  -1   3 -10  126.61    4.80
   1  -3 -10  121.96    4.88
  -1   3 -10  126.85    4.88
   4  -2  10   83.52    3.42
  -2   4 -10   76.65    3.39
  -2   4 -10   80.39    3.21
   2  -4 -10   82.35    3.46
   3  -5 -10   42.29    1.94
  -3   5 -10   43.76    1.93
   3  -5 -10   45.58    2.46
   5  -3  10   48.11    2.44
   6  -4  10   14.78    1.37
   6  -4  10   18.48    1.93
   4  -6 -10   16.10    1.81
   5  -7 -10   10.68    2.30
   7  -5  10   11.48    2.31
   5  -7  11    3.99    2.12
   7  -5 -11    2.61    2.20
   6  -4 -11    5.29    1.64
  -6   4 -11    0.76    0.65
   4  -6  11   -1.08    1.52
  -6   4 -11    0.64    0.67
   6  -4 -11    2.39    1.73
   6  -4 -11    0.84    0.79
   4  -6  11    1.46    1.07
   6  -4 -11    3.25    1.68
   3  -5  11    1.38    1.18
   5  -3 -11    2.19    1.25
   5  -3 -11    3.82    1.36
   5  -3 -11    0.32    0.82
   5  -3 -11    0.29    1.37
   2  -4  11    2.06    0.91
   4  -2 -11    1.86    0.83
   4  -2 -11    1.10    1.04
   4  -2 -11    0.47    1.05
   4  -2 -11    0.57    0.74
   1  -3  11    0.72    0.39
   3  -1 -11    0.37    0.78
   3  -1 -11    0.32    0.58
  -1   3  11    0.43    0.58
   0   2  11    0.47    0.41
   2   0 -11    0.64    0.50
   0  -2  11    0.45    0.40
   1   1 -11    0.02    0.47
   1   1 -11    0.31    0.48
  -1  -1  11    0.45    0.66
  -1  -1  11   -0.14    0.50
  -1  -1 -11    0.25    0.30
  -2   0  11    0.89    0.57
   0   2 -11    0.65    0.43
   1  -3 -11    0.45    0.63
  -1   3 -11    0.58    0.60
  -1   3 -11    1.06    0.62
   4  -2  11    1.94    0.82
  -2   4 -11    0.14    0.74
   2  -4 -11    2.34    0.93
  -3   5 -11    0.64    0.82
   5  -3  11    1.80    1.24
   3  -5 -11    1.77    1.19
  -4   6 -11    0.49    0.83
   6  -4  11    1.12    1.17
   6  -4  11    0.10    1.57
   4  -6 -11    1.45    1.58
   7  -5  11    1.76    2.22
   5  -7 -11    2.38    2.16
   7  -5 -12    8.05    2.31
   6  -4 -12    9.24    1.87
   4  -6  12    9.76    1.77
   6  -4 -12    8.71    0.99
  -6   4 -12    8.37    0.90
   6  -4 -12    9.98    1.90
   6  -4 -12   10.10    1.80
  -6   4 -12    8.41    0.87
   5  -3 -12    8.73    2.05
   3  -5  12   34.44    1.96
   5  -3 -12   32.00    1.54
   5  -3 -12   36.28    2.00
   5  -3 -12   14.98    2.02
   2  -4  12   75.68    2.80
   4  -2 -12   73.16    2.72
   4  -2 -12   39.65    2.81
   4  -2 -12   25.66    2.82
   4  -2 -12   70.90    2.58
   1  -3  12   72.49    2.70
   3  -1 -12   79.43    2.96
   3  -1 -12   78.81    3.09
   0   2  12  157.73    5.91
   0  -2  12  151.13    5.84
   2   0 -12  160.99    6.03
   2   0 -12  171.13    6.03
  -1  -1  12  157.77    6.02
   1   1 -12  152.16    6.03
  -1  -1 -12  157.60    5.89
   1   1 -12  164.40    5.96
   0   2 -12  157.35    4.84
  -2   0  12  105.49    4.75
  -1   3 -12   83.07    3.27
  -1   3 -12   78.75    3.26
   4  -2  12   72.74    3.11
  -2   4 -12   73.88    3.00
   2  -4 -12   71.12    3.19
  -3   5 -12   33.23    1.79
   3  -5 -12   35.70    2.18
   6  -4  12    8.92    1.24
  -4   6 -12    7.23    0.91
   4  -6 -12    7.55    1.74
   5  -7 -12    8.34    2.21
   4  -6  13    3.17    1.65
  -6   4 -13    1.39    0.88
   6  -4 -13    2.21    1.81
   6  -4 -13    1.36    1.61
   6  -4 -13    3.72    1.82
  -6   4 -13    0.57    0.87
   5  -3 -13    3.80    1.50
   3  -5  13    1.39    1.22
   5  -3 -13    1.56    1.21
   5  -3 -13    2.15    1.47
   5  -3 -13    1.58    0.97
   4  -2 -13   -0.65    0.83
   2  -4  13    0.72    0.86
   4  -2 -13    0.94    1.16
   4  -2 -13    0.22    1.11
   2  -4  13    1.08    0.39
   4  -2 -13    1.65    0.85
  -1   3  13    0.36    0.55
   1  -3  13    0.47    0.37
   3  -1 -13    0.44    0.67
   0   2  13    0.33    0.40
   2   0 -13    1.12    0.66
   2   0 -13    0.20    0.61
   0  -2  13    0.76    1.13
   1   1 -13    0.32    0.54
  -1  -1 -13    0.33    0.48
  -1  -1  13    0.70    0.69
  -2   0  13   -0.28    0.73
   0   2 -13    0.30    0.42
   0  -2 -13    0.22    0.60
  -1   3 -13    0.93    0.69
  -1   3 -13    0.29    0.59
   4  -2  13    1.51    0.83
  -2   4 -13    0.73    0.85
   2  -4 -13    1.38    0.90
  -3   5 -13    0.51    0.97
   3  -5 -13    1.98    1.29
   5  -3  13    0.98    1.20
   6  -4  13    0.96    1.12
  -4   6 -13    0.72    0.90
   6  -4  13    1.48    1.59
   4  -6 -13    2.15    1.65
  -6   4 -14    7.73    1.07
   6  -4 -14    9.68    1.79
   6  -4 -14   10.84    1.96
   6  -4 -14   11.16    1.96
  -6   4 -14    5.88    1.04
   4  -6  14    9.81    1.75
   5  -3 -14   23.01    1.54
   5  -3 -14   26.30    1.84
   5  -3 -14   25.30    2.00
   5  -3 -14   22.78    1.94
   3  -5  14   26.11    1.84
   4  -2 -14   50.78    2.17
   4  -2 -14   49.04    2.22
   2  -4  14   49.96    2.28
   3  -1 -14   79.89    2.49
  -1   3  14   34.94    2.35
   0   2  14   82.62    3.32
   0  -2  14   86.38    3.49
  -1  -1  14   35.18    1.70
  -1  -1 -14   34.08    1.53
   1   1 -14   36.35    1.60
   0  -2 -14   89.64    3.50
   0   2 -14   83.86    3.39
  -2   0  14   94.96    3.66
  -1   3 -14   78.96    3.14
  -1   3 -14   72.88    3.05
  -2   4 -14   49.93    2.22
   4  -2  14   48.07    2.27
   2  -4 -14   45.05    2.30
   3  -5 -14   23.65    1.86
   5  -3  14   27.28    1.83
  -3   5 -14   22.82    1.53
   6  -4  14    9.39    1.77
   4  -6 -14   11.77    1.87
  -4   6 -14    8.39    1.10
   4  -6 -14    9.06    1.92
   6  -4 -15    5.16    1.90
  -6   4 -15    1.63    1.03
   4  -6  15    2.26    1.63
   6  -4 -15    2.09    1.63
   6  -4 -15    2.95    1.93
  -6   4 -15    0.62    1.03
   5  -3 -15    2.28    1.55
   5  -3 -15   -0.83    1.27
   5  -3 -15    1.02    1.11
   5  -3 -15    2.12    1.56
   3  -5  15    1.35    1.23
   4  -2 -15    2.48    0.91
   4  -2 -15    0.24    0.95
   4  -2 -15    1.42    1.27
   2  -4  15    2.17    0.98
   3  -1 -15    1.45    0.82
   3  -1 -15    0.24    0.97
   3  -1 -15    0.48    0.60
   2   0 -15    0.47    0.88
   0  -2  15    1.50    0.76
   0   2  15    0.10    0.42
   2   0 -15    1.27    0.77
   1   1 -15   -0.27    0.64
   1   1 -15    0.51    0.34
   1   1  15    0.16    0.29
  -1  -1  15    0.41    0.80
  -1  -1 -15    0.02    0.58
   0  -2 -15    0.89    0.70
  -2   0  15    0.37    0.96
   0   2 -15    0.34    0.44
  -1   3 -15    0.52    0.64
   1  -3 -15    0.81    0.96
  -1   3 -15    1.65    0.83
   3  -1  15    1.52    0.61
   4  -2  15    0.62    0.39
   2  -4 -15    1.46    1.20
  -2   4 -15    0.39    0.95
   4  -2  15    1.56    0.93
   2  -4 -15    2.42    1.01
   3  -5 -15    2.67    1.27
  -3   5 -15    2.09    1.11
   5  -3  15    2.85    1.31
   4  -6 -15    2.15    1.61
  -4   6 -15    2.84    1.12
   6  -4  15   -0.90    1.62
   4  -6  16    5.16    1.70
   6  -4 -16    5.34    1.98
  -6   4 -16    6.42    1.21
   6  -4 -16    8.62    2.04
   6  -4 -16   10.24    1.85
   5  -3 -16   17.80    1.53
   5  -3 -16   19.61    1.95
   5  -3 -16   23.61    1.79
   5  -3 -16   21.05    1.98
   3  -5  16   19.85    1.70
   4  -2 -16   35.54    1.96
   4  -2 -16   38.66    1.99
   3  -1 -16   54.93    2.42
   3  -1 -16   58.60    2.54
   2   0 -16   81.78    2.97
   2   0 -16   82.25    3.07
   0  -2  16   68.02    2.86
   0   2  16   63.04    2.65
  -1  -1  16   52.95    2.13
  -1  -1 -16   55.80    1.94
   1   1 -16   56.98    2.00
   1   1  16   37.45    1.65
   1   1 -16   42.09    1.69
   0  -2 -16   59.15    2.67
   0   2 -16   66.78    2.60
   1  -3 -16   54.10    2.46
   3  -1  16   50.26    2.23
  -1   3 -16   55.50    2.42
   2  -4 -16   35.86    2.13
  -2   4 -16   38.02    1.98
   4  -2  16   39.04    1.97
   3  -5 -16   19.27    1.71
   5  -3  16   21.27    1.73
  -3   5 -16   18.62    1.54
   4  -6 -16    7.56    1.73
   6  -4  16    7.12    1.82
  -4   6 -16    6.16    1.24
   6  -4 -17    3.98    1.81
   4  -6  17   -0.68    1.68
   6  -4 -17    2.84    2.03
   6  -4 -17    0.88    1.95
   5  -3 -17    3.63    1.35
   3  -5  17    1.68    1.33
   5  -3 -17    1.52    1.19
   5  -3 -17    1.87    1.64
   5  -3 -17    0.26    1.64
   4  -2 -17    0.76    1.07
   4  -2 -17    1.58    0.95
   3  -1 -17    0.05    0.93
   3  -1 -17    0.44    1.06
   3  -1 -17    0.35    0.64
   2   0 -17   -0.05    1.07
   2   0 -17    1.67    0.88
   0  -2  17    0.93    0.92
   1   1 -17   -0.03    0.75
  -1  -1 -17    1.14    0.79
  -1  -1  17   -1.21    0.96
   1   1 -17    0.34    0.27
   2   0  17    0.55    0.38
   0  -2 -17    1.63    0.82
  -2   0  17   -0.38    1.09
   0   2 -17    0.52    0.42
  -1   3 -17    2.09    0.93
   1  -3 -17    1.37    1.00
   3  -1  17    0.28    0.64
   4  -2  17    0.43    0.92
   2  -4 -17    1.72    1.25
  -2   4 -17    1.57    1.06
   3  -5 -17    0.08    1.35
   3  -5 -17    0.26    1.61
   5  -3  17    1.42    1.28
  -3   5 -17    1.32    1.23
  -4   6 -17    1.74    1.27
   6  -4  17    0.78    1.74
   4  -6 -17    2.77    1.70
   6  -4 -18    4.04    1.75
   4  -6  18    2.16    1.76
   5  -3 -18    9.76    1.46
   5  -3 -18   12.96    1.53
   5  -3 -18   11.83    1.84
   4  -2 -18   20.58    1.58
   4  -2 -18   21.41    1.47
   3  -1 -18   31.52    1.81
   1  -3  18   30.80    1.74
   3  -1 -18   35.83    1.91
   3  -1 -18   28.45    1.54
   3  -1 -18   33.55    2.07
   0  -2  18   41.57    1.96
   2   0 -18   45.31    1.96
   2   0 -18   48.88    2.17
  -1  -1  18   31.55    1.79
  -1  -1 -18   32.18    1.61
   1   1 -18   31.68    1.63
   0  -2 -18   42.28    1.93
  -2   0  18   45.50    2.12
   3  -1  18   29.14    1.47
   1  -3 -18   31.25    1.76
  -1   3 -18   30.74    1.76
   4  -2  18   21.22    1.46
   2  -4 -18   22.00    1.75
  -2   4 -18   20.79    1.57
  -3   5 -18   11.46    1.43
   5  -3  18    9.98    1.43
   4  -6 -18    5.27    1.82
   6  -4  18    8.18    1.86
  -4   6 -18    4.07    1.44
   6  -4 -19    0.91    1.68
   5  -3 -19    1.42    1.30
   5  -3 -19    1.15    1.34
   4  -2 -19    2.92    1.45
   4  -2 -19    0.78    0.96
   4  -2 -19    1.27    1.20
   3  -1 -19    0.91    1.05
   3  -1 -19   -0.30    1.15
   3  -1 -19    1.54    1.33
   3  -1 -19    0.28    0.66
   1  -3  19    2.16    1.00
   0  -2  19    0.84    1.01
   2   0 -19    0.95    1.00
   2   0 -19    0.49    1.21
   2   0 -19    0.49    0.39
  -1  -1  19    0.21    1.03
  -1  -1 -19    1.21    0.80
   1   1 -19    0.21    0.85
   0  -2 -19   -0.45    0.93
  -2   0  19   -0.47    1.24
   2   0  19    0.20    0.36
   3  -1  19    0.80    0.66
   1  -3 -19   -0.17    0.94
  -1   3 -19    0.72    1.05
   4  -2  19    0.68    0.95
  -2   4 -19    0.98    1.23
   2  -4 -19    0.83    1.31
   3  -5 -19    2.18    1.65
   5  -3  19    0.81    1.35
  -3   5 -19    1.87    1.37
  -4   6 -19    1.62    1.46
   6  -4  19    0.77    1.67
   6  -4 -20    3.13    1.75
   5  -3 -20    5.01    1.47
   5  -3 -20    5.22    1.45
   4  -2 -20    7.70    1.08
   4  -2 -20   10.05    1.60
   4  -2 -20    6.56    1.36
   3  -1 -20   16.02    1.63
   3  -1 -20   12.88    1.40
   3  -1 -20   13.56    0.98
   3  -1 -20   16.06    1.50
   1  -3  20   11.50    1.23
   2   0 -20   29.86    1.77
   2   0 -20   26.43    1.52
  -1  -1  20   21.77    1.52
   1   1 -20   20.54    1.36
  -1  -1 -20   20.47    1.32
  -2   0  20   29.58    1.68
   0  -2 -20   23.88    1.42
  -1   3 -20   13.10    1.39
   1  -3 -20   14.58    1.39
   3  -1  20   12.35    0.93
  -2   4 -20    7.78    1.41
   2  -4 -20    6.67    1.19
   4  -2  20    7.30    1.11
  -3   5 -20    6.11    1.51
   3  -5 -20    7.53    1.79
   5  -3  20    8.03    1.46
  -4   6 -20    4.46    1.61
   6  -4  20    4.43    1.73
   5  -3 -21    2.62    1.51
   5  -3 -21    1.51    1.37
   4  -2 -21    0.27    1.29
   4  -2 -21    1.33    1.04
   4  -2 -21   -0.76    1.67
   4  -2 -21    1.76    1.57
   2  -4  21    2.38    1.23
   3  -1 -21    1.11    1.33
   3  -1 -21    1.56    1.31
   3  -1 -21   -0.39    1.17
   3  -1 -21    0.93    0.72
   1  -3  21    1.53    1.13
   2   0 -21    0.31    1.10
   0  -2  21    0.83    1.10
   1   1 -21    1.55    0.97
  -1  -1  21   -0.39    1.02
  -1  -1 -21    1.56    0.98
  -2   0  21    1.41    1.36
   0  -2 -21   -1.20    1.07
   1  -3 -21    0.33    1.24
   3  -1  21    0.55    0.67
  -1   3 -21    0.77    1.17
   4  -2  21    1.08    0.96
  -2   4 -21    2.36    1.36
   2  -4 -21    0.57    1.28
  -3   5 -21    1.36    1.48
   3  -5 -21    0.90    1.07
   5  -3  21    1.78    1.29
   6  -4  21    2.77    1.72
  -4   6 -21    1.60    1.64
   5  -3 -22    6.89    2.03
   5  -3 -22    6.20    1.64
   5  -3 -22    4.35    1.40
   4  -2 -22    6.62    1.48
   2  -4  22    6.72    1.25
   4  -2 -22    6.64    1.68
   4  -2 -22    7.80    1.12
   4  -2 -22    3.07    1.93
   3  -1 -22   12.88    1.51
   3  -1 -22   13.42    1.58
   3  -1 -22   12.17    0.93
   3  -1 -22   14.67    1.69
   1  -3  22   14.41    1.45
   0  -2  22   22.15    1.71
   2   0 -22   26.59    1.77
  -1  -1  22   15.85    1.48
   1   1 -22   18.89    1.41
  -2   0  22   25.09    1.88
   0  -2 -22   21.84    1.67
   1  -3 -22   15.50    1.53
   3  -1  22   11.62    0.91
  -1   3 -22   14.54    1.53
  -2   4 -22    8.40    1.57
   2  -4 -22    7.50    1.60
   4  -2  22    5.71    1.07
   5  -3  22    5.26    1.37
  -3   5 -22    3.99    1.61
   3  -5 -22    6.75    1.80
   6  -4  22    2.12    1.78
   5  -3 -23    1.01    1.62
   5  -3 -23    1.45    2.04
   4  -2 -23    1.89    0.99
   4  -2 -23    0.56    1.44
   2  -4  23    1.68    1.19
   4  -2 -23    2.22    1.71
   4  -2 -23    1.85    1.79
   3  -1 -23    0.31    0.66
   3  -1 -23    0.75    1.33
   1  -3  23    1.16    1.23
   3  -1 -23    0.21    1.39
   3  -1 -23    2.85    1.56
   0  -2  23   -0.75    1.21
  -2   0 -23    1.09    0.78
   2   0 -23    1.32    1.21
   1   1 -23    1.01    1.10
  -1  -1  23   -0.59    1.30
   0   2 -23    1.89    1.36
   0  -2 -23    0.46    1.25
   1  -3 -23    1.77    1.38
   3  -1  23    0.51    0.62
  -1   3 -23    2.85    1.37
   4  -2  23    1.42    1.00
   2  -4 -23    4.25    1.67
  -2   4 -23    2.05    1.53
   5  -3  23    2.44    1.41
  -3   5 -23    2.09    1.69
   3  -5 -23    1.90    1.88
   6  -4  23    0.12    1.75
   5  -3 -24    2.57    1.70
   4  -2 -24    6.75    1.80
   4  -2 -24   11.40    1.99
   4  -2 -24    5.85    1.62
   3  -1 -24   12.87    1.84
   1  -3  24   10.29    1.38
   3  -1 -24    8.95    1.56
   3  -1 -24   12.54    1.67
   2   0 -24   14.79    1.63
   0  -2  24   11.44    1.48
  -2   0 -24    9.60    0.98
   2   0 -24   11.22    1.49
   1   1 -24    8.55    1.26
  -1  -1  24    8.73    1.52
   0  -2 -24   14.71    1.64
   0   2 -24   12.29    1.66
   1  -3 -24    8.94    1.57
  -1   3 -24    8.21    1.59
   4  -2  24    5.65    1.06
  -2   4 -24    5.99    1.67
   2  -4 -24    6.26    1.75
   5  -3  24    3.70    1.41
  -3   5 -24    4.87    1.82
   3  -5 -24    2.93    2.09
   5  -3 -25    1.25    1.78
   4  -2 -25    1.32    1.64
   4  -2 -25    0.04    1.73
   4  -2 -25    3.66    1.82
   3  -1 -25   -1.12    1.47
   1  -3  25    1.66    1.31
   3  -1 -25    0.98    1.57
   3  -1 -25    3.54    1.80
   0  -2  25    1.71    1.26
   2   0 -25    0.26    1.45
  -2   0 -25    2.21    0.87
   2   0 -25    0.88    1.37
  -1  -1  25    0.14    1.44
   1   1 -25   -0.15    1.20
   0   2 -25    0.58    1.46
   0  -2 -25    1.55    1.35
  -1   3 -25    0.73    1.50
   1  -3 -25    2.84    1.49
   2  -4 -25    0.48    1.72
   4  -2  25    0.36    0.91
  -2   4 -25   -0.04    1.69
   5  -3  25    0.30    1.31
  -3   5 -25    2.48    1.85
   5  -3 -26    3.20    1.88
   4  -2 -26    5.36    1.90
   4  -2 -26    5.09    1.73
   4  -2 -26    2.94    1.95
   3  -1 -26    6.67    1.96
   3  -1 -26    5.06    1.71
   3  -1 -26    4.81    1.59
   1  -3  26    5.44    1.40
   2   0 -26    2.75    1.57
   0  -2  26    3.15    1.12
  -2   0 -26    3.97    0.95
   2   0 -26    5.91    1.51
   1   1 -26    3.29    1.29
  -1  -1  26    5.42    1.60
   1   1 -26    2.68    1.55
  -1  -1 -26    2.99    1.87
   0   2 -26    3.83    1.61
   0  -2 -26    4.64    1.40
   1  -3 -26    4.92    1.67
  -1   3 -26    4.15    1.65
   2  -4 -26    2.83    1.83
  -2   4 -26    5.56    1.81
   4  -2  26    2.71    0.90
  -3   5 -26    4.39    2.00
   5  -3 -27    1.84    1.95
   4  -2 -27    0.58    1.79
   4  -2 -27    2.73    2.03
   4  -2 -27    0.98    1.93
   3  -1 -27    3.39    2.01
   3  -1 -27   -0.52    1.58
   3  -1 -27    1.73    1.69
   2   0 -27    0.19    1.58
   2   0 -27    1.94    1.52
  -2   0 -27    1.44    0.94
   0  -2  27    1.60    1.44
   1   1 -27    1.83    1.58
   1   1 -27    1.20    1.34
  -1  -1 -27    2.46    1.37
  -1  -1  27   -0.27    1.56
   0   2 -27    1.18    1.63
   0  -2 -27    1.04    1.43
  -1   3 -27    1.49    1.65
   1  -3 -27   -1.28    1.70
   2  -4 -27    3.44    1.86
  -2   4 -27    1.71    1.83
  -3   5 -27    1.09    2.01
   4  -2 -28    1.57    1.91
   4  -2 -28    2.56    2.10
   3  -1 -28    4.54    1.74
   3  -1 -28    3.70    1.76
   2   0 -28    3.00    1.69
   0  -2  28    5.51    1.60
  -2   0 -28    2.78    0.97
   2   0 -28    5.09    1.59
   1   1 -28    3.18    1.46
  -1  -1  28    3.92    1.70
   1   1 -28    2.09    1.69
  -1  -1 -28    3.46    1.22
   0   2 -28    4.82    1.74
   0  -2 -28    4.74    1.88
   0  -2 -28    4.92    1.60
   1  -3 -28    3.14    1.93
  -1   3 -28    6.97    1.80
   1  -3 -28    1.90    1.67
   2  -4 -28    3.38    2.03
  -2   4 -28    2.89    1.92
   2  -4 -28   -0.22    1.91
  -3   5 -28    3.56    2.13
   3  -1 -29    3.85    1.76
   3  -1 -29    1.86    1.85
   2   0 -29    0.68    1.70
  -2   0 -29    0.38    1.03
   2   0 -29    1.50    1.60
   1   1 -29    0.75    1.53
   1   1 -29    1.14    1.72
  -1  -1 -29    2.52    1.28
   0   2 -29    2.60    1.75
   0  -2 -29    4.69    1.73
   0  -2 -29   -0.43    2.39
  -1   3 -29    2.72    1.85
   1  -3 -29    1.34    2.25
   1  -3 -29    2.59    1.82
   2  -4 -29    2.25    2.02
   3  -1 -30    2.64    1.89
   2   0 -30    4.14    1.73
   1   1 -30    2.21    1.61
  -1  -1 -30    3.66    1.37
   1   1 -30    4.04    1.82
   0  -2 -30    3.21    1.66
   0   2 -30    1.48    1.82
   1  -3 -30    3.05    1.73
   1  -3 -30    6.58    4.18
   3  -1 -31    3.24    2.05
   2   0 -31    2.39    1.78
  -1  -1 -31   -0.16    1.37
   1   1 -31    2.26    1.57
   0  -2 -31    2.46    1.57
   1  -3 -31    3.27    2.18
   1  -3 -31    2.25    1.90
   3  -1 -32    3.34    2.06
   2   0 -32    3.21    1.82
   0  -2 -32    3.53    1.67
   1  -3 -32    4.96    2.03
   1  -3 -32    2.63    1.88
   2   0 -33    2.96    1.89
   0  -2 -33    3.22    1.75
   1  -3 -33    5.37    2.21
  -1  -2   0    0.62    0.33
   2   1   0    0.60    0.29
   0  -3   0    0.59    0.52
   3   0   0    5.84    0.60
   3   0   0    0.37    0.44
  -3   0   0    9.70    0.62
   0   3   0    0.46    0.46
  -3   0   0    0.40    0.45
   3   0   0    5.65    0.57
   0   3   0   11.22    0.84
   4  -1   0    0.40    0.40
   4  -1   0    1.20    0.63
   1  -4   0    1.42    0.47
   4  -1   0    1.95    0.63
  -4   1   0    1.23    0.70
  -1   4   0    2.34    0.79
  -4   1   0    0.09    0.44
   1  -4   0    1.87    0.75
  -5   2   0   -1.19    0.51
   2  -5   0    1.92    1.12
   5  -2   0    3.06    0.93
   2  -5   0   -0.33    0.56
   5  -2   0    2.94    0.94
  -2   5   0    4.87    1.14
   3  -6   0    0.52    1.37
   6  -3   0    3.77    1.12
   6  -3   0    3.15    1.32
   6  -3   0    2.66    1.24
   4  -7   0    5.32    1.88
   7  -4   0    2.89    1.87
   7  -4   0    5.51    1.58
   7  -4   0    5.76    1.59
   8  -5   0    3.18    1.89
   8  -5   0    5.16    2.09
   8  -5  -1    8.86    2.18
   8  -5  -1   10.45    2.05
   7  -4  -1   20.64    1.95
   4  -7   1   24.37    2.34
   7  -4  -1   23.54    2.01
   7  -4  -1   25.73    2.36
   6  -3  -1   43.82    2.14
   6  -3  -1   49.39    2.48
   6  -3  -1   46.99    2.20
   5  -2  -1  122.97    4.73
  -5   2  -1  127.53    4.47
   5  -2  -1  130.61    4.76
   2  -5   1  115.39    4.48
  -2   5   1  136.46    5.00
   4  -1  -1  131.76    5.14
   1  -4   1  135.01    5.03
  -4   1  -1  144.96    5.19
   4  -1  -1  137.10    5.03
   4  -1  -1  131.86    5.16
   1  -4   1  125.25    5.32
  -4   1  -1  133.04    5.02
  -1   4   1  133.92    5.35
  -3   0  -1  959.77   34.05
   0   3   1  922.71   34.00
   3   0  -1  944.77   34.01
   3   0  -1  930.11   34.04
   0  -3   1  905.33   34.00
   3   0  -1  951.03   34.07
   0   3   1  961.69   34.18
  -3   0  -1  912.03   34.00
  -3   0  -1  963.51   34.02
   2   1  -1  512.29   18.24
  -1  -2   1  488.40   18.22
  -2  -1   1  503.69   18.86
   2   1   1  492.92   18.84
  -3   0   1  796.44   32.60
   0   3  -1  946.68   32.63
   3   0   1  910.22   32.66
   3   0   1  926.29   32.62
   3   0   1  871.42   32.60
   0   3  -1  958.50   32.81
  -3   0   1  927.06   32.61
   0  -3  -1  901.32   32.61
   1  -4  -1  132.81    5.29
   4  -1   1  124.85    5.04
  -4   1   1  137.59    4.97
   1  -4  -1  133.34    4.97
   4  -1   1  128.89    5.07
  -1   4  -1  142.56    5.30
  -1   4  -1  132.68    4.97
   5  -2   1  118.93    4.63
  -2   5  -1  132.76    4.97
   2  -5  -1  127.57    4.46
   5  -2   1  127.16    4.69
   6  -3   1   48.04    2.44
   6  -3   1   44.69    2.10
   4  -7  -1   21.70    2.26
   7  -4   1   21.71    1.86
   7  -4   1   19.63    1.84
   8  -5   1    8.06    1.94
   8  -5   1    9.09    2.11
   8  -5  -2    4.11    2.15
   8  -5  -2    2.95    1.98
   7  -4  -2    4.53    1.63
   7  -4  -2    4.70    1.94
   7  -4  -2    6.76    1.71
   6  -3  -2    3.69    1.21
   6  -3  -2    2.55    1.31
   6  -3  -2    2.86    1.25
   5  -2  -2    3.23    0.98
   5  -2  -2    5.10    1.01
   4  -1  -2    0.65    0.65
   4  -1  -2    0.02    0.62
  -4   1  -2   -0.51    0.45
   4  -1  -2   -0.34    0.41
  -4   1  -2   -0.10    0.86
   1  -4   2   -0.77    0.47
  -3   0  -2    1.50    0.53
   3   0  -2    1.20    0.49
  -3   0  -2    1.02    0.44
   3   0  -2    0.21    0.35
   3   0  -2    2.10    0.54
   0  -3   2    0.86    0.41
  -1  -2   2   -0.59    0.32
   2   1  -2   -0.19    0.29
   2   1   2   -0.13    0.28
  -1  -2  -2    0.01    0.30
   0  -3  -2    2.31    0.45
  -3   0   2    1.55    0.44
  -3   0   2    0.32    0.39
   3   0   2    0.93    0.37
   0   3  -2    2.06    0.58
   0   3  -2    0.93    0.38
   4  -1   2    0.43    0.57
  -1   4  -2   -0.93    0.44
   4  -1   2    0.60    0.51
  -4   1   2   -0.36    0.44
   1  -4  -2   -0.29    0.47
  -1   4  -2    1.05    0.74
   2  -5  -2    0.68    0.57
   5  -2   2    2.97    0.80
   5  -2   2    4.71    0.93
   2  -5  -2    1.23    1.15
  -2   5  -2    4.68    1.12
   3  -6  -2    1.94    1.50
   6  -3   2    2.88    0.94
   6  -3   2    2.56    1.14
   7  -4   2    5.67    1.47
   4  -7  -2    5.16    1.93
   7  -4   2    4.05    1.47
   8  -5   2    1.89    1.97
   8  -5  -3    9.22    2.22
   8  -5  -3    7.65    2.09
   7  -4  -3   22.19    2.32
   7  -4  -3   20.24    2.01
   7  -4  -3   19.59    1.97
   6  -3  -3   36.27    2.12
   6  -3  -3   35.12    2.11
   6  -3  -3   42.21    2.32
   5  -2  -3  126.67    5.17
   5  -2  -3  132.35    5.18
   5  -2  -3  129.07    4.89
  -5   2  -3  133.37    4.88
   1  -4   3   72.89    2.94
  -4   1  -3   71.18    2.93
   4  -1  -3   75.40    3.10
   4  -1  -3   77.15    2.95
   4  -1  -3   70.45    3.08
   3   0  -3  359.13   13.17
  -3   0  -3  368.01   13.12
  -3   0  -3  356.50   13.06
   0  -3   3  349.46   13.10
  -3   0  -3  358.24   13.10
   3   0  -3  351.14   13.17
   3   0  -3  361.45   13.11
  -1  -2   3   66.17    2.55
   2   1  -3   65.42    2.56
  -2  -1   3   67.41    2.60
  -1  -2  -3   65.59    2.58
  -3   0   3  355.66   12.93
   3   0   3  349.77   12.89
   0   3  -3  366.04   13.11
   0   3  -3  355.36   12.95
   0  -3  -3  346.71   12.93
  -1   4  -3   77.14    3.18
  -4   1   3   74.37    2.86
   1  -4  -3   75.34    3.19
   1  -4  -3   75.38    2.89
  -1   4  -3   78.83    2.90
   4  -1   3   67.77    2.90
   4  -1   3   72.59    2.96
   2  -5  -3  127.56    4.47
   5  -2   3  121.49    4.64
  -2   5  -3  127.16    4.46
  -2   5  -3  131.51    4.93
   6  -3   3   21.41    1.24
   3  -6  -3   10.53    2.17
   7  -4   3   17.42    1.67
   7  -4   3   18.33    1.71
   4  -7  -3   20.88    2.27
   8  -5  -4    5.13    2.17
   8  -5  -4    4.40    2.15
   7  -4  -4    2.19    1.71
   7  -4  -4    3.72    1.67
   7  -4  -4    2.41    1.83
   6  -3  -4    3.34    1.32
   6  -3  -4    3.47    1.34
   6  -3  -4    2.37    1.31
  -5   2  -4    0.56    0.54
   5  -2  -4    4.26    1.06
   5  -2  -4    3.67    1.04
   5  -2  -4    1.27    0.56
   4  -1  -4    0.69    0.69
   1  -4   4    0.16    0.47
  -4   1  -4    0.19    0.45
  -4   1  -4    0.37    0.99
   4  -1  -4    0.41    0.46
   4  -1  -4    1.43    0.69
  -3   0  -4    1.12    0.50
   3   0  -4    1.91    0.55
   3   0  -4    1.12    0.55
   3   0  -4    0.88    0.40
   0  -3   4    0.78    0.42
  -3   0  -4    0.45    0.41
   2   1  -4    0.05    0.29
  -1  -2   4    0.17    0.31
  -2  -1   4   -0.23    0.40
  -1  -2  -4    0.14    0.31
   0   3  -4    1.17    0.55
   0   3  -4    0.59    0.42
  -3   0   4    0.85    0.43
   0  -3  -4    0.51    0.42
   4  -1   4    0.64    0.55
  -4   1   4    0.78    0.46
   4  -1   4    0.70    0.50
   1  -4  -4    0.29    0.47
   1  -4  -4    0.52    0.72
  -1   4  -4   -0.13    0.70
  -1   4  -4   -0.09    0.44
   5  -2   4    2.57    0.84
   5  -2   4    2.02    0.74
   2  -5  -4    1.46    0.61
   2  -5  -4    0.44    1.11
  -2   5  -4    2.21    1.09
  -2   5  -4    0.53    0.58
   6  -3   4    2.68    1.03
   3  -6  -4    3.56    1.44
   6  -3   4    1.81    0.69
   3  -6  -4    1.72    0.53
   7  -4   4    2.77    1.39
   7  -4   4    5.38    1.41
   4  -7  -4    5.55    1.86
   8  -5  -5    6.45    2.19
   8  -5  -5    9.37    2.27
   4  -7   5   21.00    2.20
   7  -4  -5   18.50    1.99
   7  -4  -5   18.62    2.07
   7  -4  -5   23.46    2.36
   6  -3  -5   31.46    1.86
   6  -3  -5   33.51    1.89
   6  -3  -5   35.07    1.94
  -2   5   5  112.21    4.62
   5  -2  -5  108.57    4.55
   5  -2  -5  112.60    4.26
   5  -2  -5  110.34    4.54
  -5   2  -5  112.90    4.23
  -4   1  -5  121.39    4.63
   4  -1  -5  119.64    4.79
   4  -1  -5  119.99    4.65
  -1   4   5  117.79    4.88
   4  -1  -5  115.11    4.78
   1  -4   5  114.72    4.62
  -3   0  -5  461.46   16.82
   0  -3   5  451.89   16.81
   3   0  -5  460.75   16.90
   3   0  -5  460.66   16.83
  -3   0  -5  467.73   16.80
   3   0  -5  456.17   16.89
  -1  -2   5  414.87   15.48
   2   1  -5  432.65   15.51
  -2  -1   5  398.24   14.71
  -2  -1   5  402.79   14.68
  -3   0   5  448.39   16.67
   0  -3  -5  456.07   16.68
   0   3  -5  484.20   16.86
   0   3  -5  448.26   16.68
  -3   0   5  457.52   16.75
   4  -1   5  111.41    4.30
  -1   4  -5  113.59    4.34
   1  -4  -5  119.24    4.65
   1  -4  -5  112.83    4.34
  -1   4  -5  122.84    4.62
   2  -5  -5  108.87    4.01
  -2   5  -5  107.94    4.00
   2  -5  -5  105.19    4.45
   5  -2   5  109.56    4.14
  -2   5  -5  115.60    4.46
   3  -6  -5   28.78    1.22
   6  -3   5   32.06    2.04
   6  -3   5   33.12    1.64
   3  -6  -5   33.83    2.15
   7  -4   5   18.65    1.67
   7  -4   5   20.45    2.19
   7  -4   5   18.16    1.66
   4  -7  -5   19.14    2.24
   4  -7   6    4.85    1.88
   7  -4  -6    5.70    1.88
   7  -4  -6    3.66    1.86
   7  -4  -6    5.44    1.82
   3  -6   6    2.37    1.37
   6  -3  -6    1.06    0.58
   6  -3  -6    5.32    1.42
   6  -3  -6    1.60    1.36
   6  -3  -6    4.22    1.36
  -6   3  -6    1.14    0.54
   2  -5   6    2.41    1.09
   5  -2  -6    3.02    1.11
   5  -2  -6    3.51    1.12
   5  -2  -6    1.04    0.64
  -5   2  -6    1.62    0.67
  -2   5   6    3.92    1.05
   1  -4   6    0.89    0.76
   4  -1  -6    1.07    0.52
   4  -1  -6    1.68    0.81
  -4   1  -6    0.87    0.72
   4  -1  -6    1.16    0.77
  -4   1  -6    0.58    0.51
  -1   4   6    0.73    0.74
  -3   0  -6    1.16    0.53
   3   0  -6    1.95    0.69
   0   3   6    1.71    0.61
   3   0  -6    1.93    0.52
   0  -3   6    1.45    0.50
   3   0  -6    1.92    0.63
  -1  -2   6    0.33    0.39
   2   1  -6    1.05    0.41
  -2  -1   6    0.62    0.49
  -2  -1   6    1.55    0.48
   0   3  -6    1.76    0.49
   0   3  -6    1.21    0.63
  -3   0   6    1.36    0.48
  -3   0   6    1.72    0.68
   1  -4  -6    1.12    0.55
  -1   4  -6    2.26    0.54
   4  -1   6    1.21    0.48
  -1   4  -6    0.08    0.75
   1  -4  -6    1.31    0.78
   5  -2   6    0.87    0.68
   2  -5  -6    2.27    0.68
   5  -2   6    2.30    0.80
  -2   5  -6    3.97    1.12
   2  -5  -6    1.56    1.05
  -2   5  -6    1.20    0.67
   3  -6  -6    1.30    1.42
   3  -6  -6    1.12    0.63
   6  -3   6    1.99    0.65
   6  -3   6    1.75    1.05
   6  -3   6    4.44    1.34
   7  -4   6    2.64    1.38
   4  -7  -6    4.95    1.89
   7  -4   6    3.73    1.36
   7  -4   6    4.37    1.89
   4  -7   7   15.31    2.13
   7  -4  -7   19.33    2.19
   7  -4  -7   19.01    2.12
   7  -4  -7   18.99    2.11
  -6   3  -7   23.23    1.17
   6  -3  -7   30.81    1.97
   6  -3  -7   24.66    1.22
   3  -6   7   29.06    2.01
   6  -3  -7   30.59    1.95
   6  -3  -7   27.52    1.93
   5  -2  -7  100.95    4.37
   2  -5   7  107.23    4.50
  -5   2  -7  108.46    4.09
  -2   5   7  105.34    4.44
   5  -2  -7  109.33    4.40
   5  -2  -7  106.87    4.11
   4  -1  -7  136.94    5.83
  -4   1  -7  148.60    5.69
  -1   4   7  152.31    5.92
  -4   1  -7  160.39    5.69
   4  -1  -7  151.75    5.86
   4  -1  -7  152.29    5.71
   3   0  -7  452.10   17.47
   3   0  -7  470.85   17.42
   3   0  -7  468.29   17.47
  -3   0  -7  503.69   17.37
   0  -3   7  459.26   17.39
   0   3   7  489.76   17.52
  -1  -2   7  489.68   18.35
  -1  -2   7  496.38   18.33
   2   1  -7  524.76   18.39
  -2  -1   7  516.63   18.42
  -2  -1   7  490.81   18.36
   0   3  -7  460.76   18.64
   0   3  -7  468.34   18.76
   4  -1   7  135.74    5.19
  -1   4  -7  141.69    5.30
  -1   4  -7  148.88    5.57
   1  -4  -7  142.08    5.30
   2  -5  -7  101.18    4.24
   5  -2   7   90.74    3.80
  -2   5  -7  101.86    4.21
   2  -5  -7  100.15    3.83
  -2   5  -7  105.46    3.85
  -3   6  -7   24.64    1.15
   3  -6  -7   24.85    1.19
   3  -6  -7   26.17    1.99
   6  -3   7   29.75    1.93
   6  -3   7   24.74    1.43
   7  -4   7   18.49    2.23
   4  -7  -7   14.86    2.12
   7  -4   7   16.33    1.57
   7  -4   7   17.91    1.50
   4  -7   8    3.14    1.86
   7  -4  -8    6.24    1.86
   7  -4  -8    7.16    1.93
   7  -4  -8    4.62    1.86
   6  -3  -8    1.14    1.30
   3  -6   8    2.12    1.37
   6  -3  -8    1.98    0.74
   6  -3  -8    3.38    1.42
   6  -3  -8    2.31    1.46
  -6   3  -8    1.73    0.67
   5  -2  -8    3.87    1.19
  -5   2  -8    1.93    0.69
   5  -2  -8    1.77    0.75
   5  -2  -8    2.48    1.17
   2  -5   8    1.78    1.07
  -2   5   8    2.66    1.02
   4  -1  -8    0.65    0.85
  -1   4   8   -0.03    0.76
  -4   1  -8    0.41    0.61
   4  -1  -8    1.83    0.83
   4  -1  -8    0.23    0.62
   0   3   8    0.46    0.58
   3   0  -8    0.86    0.64
   3   0  -8    0.76    0.64
   3   0  -8    1.35    0.53
  -3   0  -8   -0.04    0.46
  -1  -2   8    0.63    0.44
  -1  -2   8    0.79    0.46
   2   1  -8    0.21    0.44
  -2  -1   8    0.25    0.66
  -2  -1   8    0.46    0.50
   0   3  -8    0.78    0.63
   0   3  -8    0.59    0.52
  -3   0   8    0.79    0.87
   4  -1   8    0.94    0.41
  -1   4  -8    0.65    0.83
  -1   4  -8    0.32    0.60
  -2   5  -8    4.18    1.10
   5  -2   8    2.67    0.71
  -2   5  -8    1.53    0.74
   2  -5  -8    2.68    0.74
   2  -5  -8    2.03    1.10
   6  -3   8    1.97    0.79
   3  -6  -8    1.42    0.74
  -3   6  -8    1.06    0.70
   3  -6  -8    2.91    1.42
   6  -3   8    3.46    1.33
   7  -4   8    5.29    1.90
   4  -7  -8    4.37    1.86
   7  -4   8    5.02    1.34
   4  -7   9   15.73    2.12
   7  -4  -9   15.53    2.10
   7  -4  -9   15.26    2.09
   7  -4  -9   17.04    2.15
   3  -6   9   19.61    1.83
   6  -3  -9   19.43    1.82
   6  -3  -9   23.03    1.86
   6  -3  -9   18.58    1.69
  -6   3  -9   17.81    1.08
   6  -3  -9   18.00    1.15
   2  -5   9   90.01    3.93
   5  -2  -9   94.77    3.58
   5  -2  -9   89.98    3.86
  -2   5   9   90.36    3.82
  -5   2  -9   95.50    3.55
   4  -1  -9  100.18    3.82
   4  -1  -9   93.65    3.95
  -4   1  -9  103.29    3.70
   4  -1  -9  103.65    3.97
   3   0  -9  118.58    4.46
   3   0  -9  120.01    4.54
   0   3   9  105.79    4.54
   2   1  -9  234.18    8.21
  -1  -2   9  210.28    8.10
  -2  -1   9  241.06    8.78
  -2  -1   9  228.87    8.69
   0   3  -9  116.15    3.93
  -3   0   9  117.24    4.00
   0   3  -9  122.22    4.05
  -1   4  -9   99.13    3.61
  -1   4  -9  101.00    3.83
   2  -5  -9   88.21    3.48
   5  -2   9   82.58    3.39
  -2   5  -9   90.26    3.80
  -2   5  -9   90.56    3.48
   2  -5  -9   92.53    3.88
  -3   6  -9   17.36    1.13
   3  -6  -9   18.90    1.16
   6  -3   9   15.05    1.17
   6  -3   9   21.06    1.75
   3  -6  -9   18.77    1.79
   4  -7  -9   14.81    2.12
   7  -4   9   13.55    1.52
   7  -4   9   19.00    2.20
   4  -7  10    3.43    1.89
   7  -4 -10    3.73    1.91
   7  -4 -10    6.71    2.04
   7  -4 -10    1.92    1.88
   3  -6  10    0.56    1.35
   6  -3 -10    1.94    1.49
   6  -3 -10   -0.47    1.31
   6  -3 -10    0.94    0.86
  -6   3 -10    1.50    0.79
   6  -3 -10    0.99    1.50
   5  -2 -10    2.11    0.86
   2  -5  10    3.18    1.16
   5  -2 -10    1.72    1.26
  -5   2 -10    1.54    0.79
   5  -2 -10    3.91    1.24
  -2   5  10    1.69    1.02
   4  -1 -10   -0.23    0.94
  -4   1 -10    1.06    0.59
   4  -1 -10    0.58    0.68
   4  -1 -10    1.55    0.92
  -1   4  10    0.38    0.81
   3   0 -10    0.10    0.71
   0   3  10   -0.04    0.56
   3   0 -10   -0.12    0.58
   0  -3  10    0.27    0.46
  -1  -2  10    0.87    0.49
  -2  -1 -10    0.05    0.29
   2   1 -10    0.09    0.52
   2   1 -10    0.30    0.57
  -2  -1  10    1.29    0.70
  -2  -1  10    0.35    0.57
   0   3 -10    0.80    0.60
  -3   0  10    0.24    0.67
   0   3 -10   -0.10    0.56
  -1   4 -10    0.30    0.71
  -1   4 -10    0.97    0.84
  -2   5 -10    2.58    0.84
   2  -5 -10    2.09    0.83
   5  -2  10    2.22    0.68
   2  -5 -10    2.43    1.12
  -2   5 -10    3.50    1.09
   6  -3  10    2.04    0.89
   3  -6 -10    1.83    0.85
   6  -3  10    2.46    1.37
  -3   6 -10    1.60    0.84
   3  -6 -10    2.22    1.41
   4  -7 -10    4.71    1.93
   7  -4  10    1.24    1.91
   7  -4 -11   13.17    2.15
   7  -4 -11   11.88    2.15
   4  -7  11   11.68    2.10
   7  -4 -11   11.28    2.11
  -6   3 -11   14.80    1.09
   6  -3 -11   14.85    1.78
   6  -3 -11   13.02    1.16
   6  -3 -11   14.82    1.66
   3  -6  11   12.20    1.75
  -5   2 -11   56.05    2.37
   5  -2 -11   61.41    2.48
   5  -2 -11   57.63    2.75
   2  -5  11   56.35    2.75
  -2   5  11   57.99    2.62
   4  -1 -11   71.56    2.98
  -4   1 -11   84.96    2.64
   4  -1 -11   32.32    2.95
  -1   4  11   41.34    2.89
   4  -1 -11   73.25    2.79
   3   0 -11   97.37    3.77
   0  -3  11   91.23    3.53
   2   1 -11  151.44    5.14
   2   1 -11  156.36    5.11
  -1  -2  11  145.40    5.01
  -2  -1  11  151.35    5.81
  -2  -1  11  156.04    5.91
  -3   0  11  101.63    4.09
   0   3 -11  102.63    4.05
   0   3 -11  102.99    4.06
  -1   4 -11   71.93    3.14
  -1   4 -11   73.40    3.01
   5  -2  11   48.74    2.08
  -2   5 -11   57.01    2.33
  -2   5 -11   56.82    2.57
   2  -5 -11   52.48    2.66
   6  -3  11   12.26    1.09
   6  -3  11   14.55    1.69
   3  -6 -11   14.00    1.12
   3  -6 -11   15.95    1.75
  -3   6 -11   12.27    1.11
   7  -4  11   12.36    2.19
   4  -7 -11   16.98    2.23
   7  -4 -12    1.84    1.99
   7  -4 -12    2.34    1.91
   4  -7  12    0.87    1.89
   7  -4 -12    5.79    2.09
   3  -6  12    2.86    1.54
  -6   3 -12    0.99    0.88
   6  -3 -12    1.25    0.99
   6  -3 -12    0.83    1.60
   6  -3 -12    0.90    1.33
   6  -3 -12    0.47    1.59
   5  -2 -12    0.93    1.30
   5  -2 -12    1.80    1.29
  -2   5  12    2.00    1.03
   5  -2 -12    1.68    0.93
   4  -1 -12   -0.14    1.04
  -4   1 -12    0.78    0.83
   4  -1 -12    0.82    0.77
   4  -1 -12    0.77    0.98
  -1   4  12    0.17    0.80
   0   3  12    0.07    0.60
   3   0 -12   -0.32    0.80
   3   0 -12   -0.53    0.63
   0  -3  12    0.47    0.49
   2   1 -12   -0.30    0.62
  -2  -1 -12    0.42    0.37
  -1  -2  12    1.55    0.77
  -1  -2  12    0.51    0.55
   2   1 -12    0.33    0.60
  -2  -1  12    0.65    1.51
  -2  -1  12   -0.06    0.79
  -3   0  12    0.09    0.90
   0   3 -12    1.03    0.69
   0   3 -12    0.37    0.62
  -1   4 -12    0.54    0.79
  -1   4 -12    0.94    0.85
   5  -2  12    0.90    0.52
  -2   5 -12    2.20    1.08
  -2   5 -12    0.69    0.94
   5  -2  12    3.39    1.07
   3  -6 -12   -0.46    1.51
   6  -3  12    1.86    0.86
   3  -6 -12    1.00    0.99
  -3   6 -12    1.23    0.96
   6  -3  12    0.54    1.37
   4  -7 -12    2.08    1.96
   7  -4  12    1.68    1.98
   4  -7  13    9.90    2.10
   7  -4 -13    8.42    2.18
   7  -4 -13   11.74    2.21
   7  -4 -13   10.10    2.09
   3  -6  13   12.46    1.73
   6  -3 -13    9.49    1.21
   6  -3 -13    9.95    1.62
   6  -3 -13    8.99    1.79
  -6   3 -13   12.38    1.15
   6  -3 -13   13.92    1.84
   5  -2 -13   19.24    2.18
   5  -2 -13   39.82    2.01
   5  -2 -13   26.01    2.18
   5  -2 -13   42.96    1.87
   4  -1 -13   29.84    2.17
   4  -1 -13   51.40    1.94
   1  -4  13   40.93    1.57
  -1   4  13   15.91    1.93
   3   0 -13   72.53    2.54
   0  -3  13   57.91    2.26
  -2  -1 -13  117.47    4.32
   2   1 -13  115.53    4.57
  -1  -2  13  109.99    4.54
  -1  -2  13  111.89    4.43
   2   1 -13  125.10    4.55
  -2  -1  13  116.17    4.67
  -2  -1  13  119.45    4.58
  -3   0  13   77.87    3.15
   0   3 -13   69.71    2.97
   0   3 -13   68.42    2.94
  -1   4 -13   52.16    2.32
  -1   4 -13   50.29    2.40
  -2   5 -13   37.79    1.80
   5  -2  13   40.86    1.82
  -2   5 -13   42.11    1.66
   3  -6 -13   11.80    1.75
   6  -3  13   10.15    0.95
  -3   6 -13   11.72    1.19
   6  -3  13   14.28    1.74
   3  -6 -13   11.71    1.22
   4  -7 -13    7.13    2.11
   7  -4  13    7.88    2.07
   7  -4 -14    1.52    1.90
   6  -3 -14    2.52    1.71
   6  -3 -14    1.63    1.12
   6  -3 -14   -0.26    1.68
   6  -3 -14    2.21    1.53
  -6   3 -14    1.05    1.06
   5  -2 -14   -0.16    1.34
   5  -2 -14    0.56    1.41
   5  -2 -14    1.12    1.04
   5  -2 -14    0.48    1.02
  -1   4  14    0.24    0.78
   4  -1 -14   -0.33    1.24
   4  -1 -14    2.06    0.92
   1  -4  14    0.51    0.51
   3   0 -14    0.40    0.75
   3   0 -14   -0.11    0.86
   0  -3  14    0.23    0.54
   0   3  14   -0.32    0.62
   1   2  14    0.02    0.46
   2   1 -14    1.56    0.76
  -2  -1 -14   -0.15    0.47
   2   1 -14    0.07    0.72
  -1  -2  14    1.51    0.82
  -1  -2  14    0.26    0.61
   1   2 -14    0.53    0.52
  -1  -2 -14   -0.40    0.59
  -2  -1  14   -1.33    0.92
  -3   0  14    0.41    1.08
   0   3 -14    0.38    0.75
   0   3 -14   -0.26    0.70
  -1   4 -14    0.93    0.87
  -1   4 -14    1.13    0.86
  -2   5 -14    1.58    1.08
   5  -2  14    2.07    1.04
  -3   6 -14    1.88    1.10
   6  -3  14    0.92    0.72
   6  -3  14    1.78    1.49
   3  -6 -14    0.72    1.06
   7  -4  14    5.32    1.98
   7  -4 -15    6.80    1.98
   6  -3 -15   10.14    1.65
   6  -3 -15    9.42    1.39
  -6   3 -15    9.34    1.24
   6  -3 -15   13.99    1.94
   6  -3 -15    8.05    1.83
   5  -2 -15   29.52    1.66
   5  -2 -15   18.27    1.99
   2  -5  15   19.95    1.03
   5  -2 -15   28.93    1.63
   5  -2 -15   30.96    2.00
   4  -1 -15   41.13    1.80
   1  -4  15   34.53    1.32
   3   0 -15   57.64    2.22
   0  -3  15   51.86    1.91
   3   0 -15   58.93    2.27
   2   1 -15   71.81    3.33
   2   1 -15   80.31    3.32
  -1  -2  15   71.26    3.30
   1   2  15   71.97    3.13
  -1  -2 -15   74.84    2.99
  -2  -1  15   78.48    3.21
   1   2 -15   71.94    2.94
   0   3 -15   57.68    2.52
   0   3 -15   51.23    2.37
  -1   4 -15   42.19    2.03
  -1   4 -15   37.90    1.94
  -2   5 -15   29.98    1.82
   5  -2  15   30.61    1.85
  -3   6 -15    9.40    1.30
   3  -6 -15    7.21    1.28
   6  -3  15   10.85    1.69
   7  -4  15    6.61    2.03
   7  -4 -16    3.88    1.96
  -6   3 -16    0.50    1.17
   6  -3 -16    2.23    1.79
   6  -3 -16    0.94    1.49
   6  -3 -16   -0.16    1.26
   6  -3 -16    2.58    1.80
   5  -2 -16    2.17    1.08
   5  -2 -16    2.24    1.54
   2  -5  16    0.82    0.31
   5  -2 -16    0.93    1.16
   1  -4  16    0.32    0.52
   4  -1 -16    0.17    1.02
  -1   4  16    0.67    0.78
   0   3  16    0.53    0.65
   3   0 -16    0.18    0.89
   0  -3  16    1.16    0.73
   3   0 -16    0.81    0.99
   2   1 -16    0.26    0.85
   1   2  16    0.66    0.50
   2   1 -16    1.47    0.87
  -1  -2  16    0.81    0.97
  -2  -1 -16    0.64    0.57
   1   2 -16    0.72    0.53
  -1  -2 -16    0.43    0.62
  -2  -1  16    0.10    1.01
   0  -3 -16    0.06    0.87
  -3   0  16    0.48    1.25
   0   3 -16    0.52    0.67
   0   3 -16    1.02    0.92
  -1   4 -16    2.27    0.86
  -1   4 -16    1.70    1.05
  -2   5 -16    1.97    1.16
   5  -2  16    2.19    1.12
  -3   6 -16    0.72    1.25
   6  -3  16    2.51    1.52
   7  -4  16    0.15    1.88
   7  -4 -17    6.95    1.99
   6  -3 -17    9.79    1.98
   6  -3 -17    9.70    1.67
   6  -3 -17    8.85    2.01
   6  -3 -17    6.95    1.49
   5  -2 -17   18.79    1.93
   5  -2 -17   17.50    1.54
   5  -2 -17   17.56    1.52
   4  -1 -17   30.11    1.81
   4  -1 -17   34.20    2.01
   0   3  17   57.16    2.52
   3   0 -17   66.10    2.83
   0  -3  17   64.11    2.79
   3   0 -17   65.03    2.83
   2   1 -17   77.48    3.30
  -2  -1 -17   82.20    3.01
   2   1 -17   84.35    3.26
  -1  -2  17   79.36    3.33
  -1  -2 -17   74.50    2.98
   1   2 -17   69.20    2.90
   0  -3 -17   66.13    2.87
  -3   0  17   75.12    3.15
   0   3 -17   69.76    2.95
   1  -4 -17   29.84    1.85
  -1   4 -17   31.68    1.83
  -1   4 -17   26.73    1.60
   4  -1  17   31.24    1.61
  -2   5 -17   18.32    1.62
   5  -2  17   20.32    1.56
  -3   6 -17    6.77    1.45
   3  -6 -17    9.02    1.90
   6  -3  17    8.65    1.67
   7  -4  17    9.32    2.12
   7  -4 -18    2.61    2.01
   6  -3 -18    2.90    1.95
   6  -3 -18    3.97    1.60
   6  -3 -18    1.76    1.98
   6  -3 -18    0.42    1.43
   5  -2 -18    2.61    1.72
   5  -2 -18    0.44    1.26
   5  -2 -18    1.38    1.15
   4  -1 -18    0.49    1.11
   4  -1 -18    1.24    0.83
   4  -1 -18   -0.37    1.28
   0   3  18    0.80    0.60
   0  -3  18    1.89    1.05
   3   0 -18    0.53    1.32
   3   0 -18   -1.53    1.04
   3   0 -18    0.13    1.09
   2   1 -18    0.30    0.97
   2   1 -18   -0.36    0.98
  -1  -2  18    1.34    1.06
   1   2  18    0.79    0.46
  -2  -1  18   -0.18    1.16
  -1  -2 -18    0.89    0.84
   1   2 -18   -0.01    0.52
  -3   0  18    1.39    1.34
   0  -3 -18    0.26    0.98
   0   3 -18    0.17    1.06
   0   3 -18    1.16    0.69
   1  -4 -18    1.85    1.21
   4  -1  18    1.65    0.80
  -1   4 -18   -0.47    1.16
   2  -5 -18    1.45    1.48
   5  -2  18    1.88    1.19
  -2   5 -18    1.97    1.32
   3  -6 -18   -0.16    1.82
   6  -3  18   -0.12    1.50
  -3   6 -18    1.75    1.45
   7  -4  18    1.33    2.05
   7  -4 -19    6.22    2.12
   6  -3 -19    4.78    2.07
   6  -3 -19    5.60    1.55
   6  -3 -19    5.89    2.06
   6  -3 -19    6.58    1.62
   5  -2 -19    9.35    1.48
   5  -2 -19   11.34    1.38
   4  -1 -19   14.56    1.47
   4  -1 -19   13.42    1.13
   3   0 -19   29.74    1.81
   0  -3  19   27.00    1.69
   3   0 -19   32.97    1.86
   0   3  19   24.48    1.31
   2   1 -19   22.52    1.50
  -1  -2  19   24.24    1.58
   2   1 -19   25.87    1.49
  -2  -1  19   25.52    1.69
  -1  -2 -19   23.93    1.37
   1   2 -19   20.10    1.07
   0   3 -19   32.70    1.83
  -3   0  19   36.79    2.07
   0  -3 -19   27.52    1.65
   0   3 -19   23.95    1.35
   1  -4 -19   13.62    1.50
  -1   4 -19   16.44    1.52
   4  -1  19   13.51    1.12
   2  -5 -19    9.63    1.72
  -2   5 -19   10.64    1.51
   5  -2  19   11.49    1.37
   3  -6 -19    6.27    1.96
  -3   6 -19    4.94    1.60
   6  -3  19    3.30    1.55
   7  -4  19    5.39    2.12
   6  -3 -20    0.79    1.53
   6  -3 -20    3.92    1.62
   5  -2 -20   -0.67    1.38
   5  -2 -20    2.31    1.71
   5  -2 -20    0.55    1.15
   4  -1 -20   -0.91    1.22
   4  -1 -20    0.51    0.84
   4  -1 -20    1.20    1.45
   3   0 -20    0.65    1.22
   3   0 -20   -0.73    1.13
   0  -3  20    1.12    1.09
   3   0 -20    0.84    1.45
   2   1 -20    0.59    1.05
   2   1 -20   -0.92    1.08
  -1  -2  20   -0.37    1.13
   1   2  20    0.72    0.37
  -2  -1  20    0.52    1.15
  -1  -2 -20   -0.53    0.92
   1   2 -20   -0.10    0.47
   0   3 -20    0.65    0.62
   0  -3 -20    0.79    0.94
   0   3 -20   -0.37    1.18
   3   0  20    0.74    0.56
  -3   0  20    0.03    1.42
   1  -4 -20    1.31    1.32
  -1   4 -20   -0.45    1.22
   4  -1  20    0.47    0.87
   2  -5 -20    2.51    1.58
  -2   5 -20    2.22    1.49
   5  -2  20    1.08    1.21
   3  -6 -20    2.14    1.99
   6  -3  20    1.91    1.53
  -3   6 -20    1.90    1.60
   7  -4  20    1.19    2.00
   6  -3 -21    4.21    1.58
   6  -3 -21    5.25    1.72
   5  -2 -21    7.41    1.84
   5  -2 -21    6.12    1.56
   5  -2 -21    6.56    1.31
   4  -1 -21    6.23    1.01
   1  -4  21    7.05    1.35
   4  -1 -21    5.60    1.43
   4  -1 -21    9.38    1.69
   4  -1 -21    9.55    1.62
   0  -3  21   14.14    1.45
   3   0 -21   12.75    1.46
   3   0 -21   15.45    1.51
   3   0 -21   10.01    0.81
   2   1 -21    9.48    1.32
  -1  -2  21    9.11    1.36
   2   1 -21    7.17    0.56
  -2  -1  21    9.10    1.14
  -1  -2 -21    9.09    1.11
   2   1  21    4.81    0.34
   1   2 -21    7.09    0.48
   2   1  21    4.45    0.32
  -3   0  21   16.12    1.75
   0  -3 -21   13.45    1.37
   0   3 -21   13.67    1.56
   3   0  21   11.82    0.85
   1  -4 -21    6.69    1.40
  -1   4 -21    6.67    1.41
   4  -1  21    6.49    0.97
  -2   5 -21    7.69    1.61
   2  -5 -21    8.76    1.74
   5  -2  21    6.52    1.30
   6  -3  21    3.65    1.66
  -3   6 -21    4.20    1.73
   7  -4  21    3.35    1.96
   5  -2 -22    1.28    1.21
   5  -2 -22    0.66    1.55
   5  -2 -22    0.98    1.86
   4  -1 -22    2.74    1.40
   4  -1 -22    1.20    1.52
   1  -4  22    1.82    1.27
   4  -1 -22    0.93    1.63
   4  -1 -22    0.79    0.89
   3   0 -22    0.39    0.62
   3   0 -22    0.80    1.31
   0  -3  22    2.50    1.31
   3   0 -22    3.22    1.40
   2   1 -22    1.19    1.16
  -1  -2  22    0.24    1.23
   2   1 -22    0.26    1.21
  -2  -1  22    1.24    1.26
  -1  -2 -22    0.02    1.05
  -3   0  22   -0.17    1.57
   0  -3 -22    2.31    1.24
   0   3 -22    0.37    1.33
   3   0  22    0.17    0.58
   1  -4 -22    1.38    1.21
  -1   4 -22    1.43    1.40
   4  -1  22   -0.23    0.87
   2  -5 -22    0.97    1.51
  -2   5 -22    0.19    1.57
   5  -2  22    0.30    1.16
  -3   6 -22    0.03    1.74
   6  -3  22    0.96    1.57
   5  -2 -23    4.63    1.27
   5  -2 -23    4.07    1.70
   5  -2 -23    4.93    1.97
   4  -1 -23    5.70    1.56
   1  -4  23    5.81    1.28
   4  -1 -23    7.91    1.83
   4  -1 -23    7.65    1.70
   4  -1 -23    5.60    0.99
   0  -3  23   13.39    1.51
   3   0 -23   12.28    1.59
   3   0 -23   16.29    1.70
  -1  -2  23   11.79    1.54
   2   1 -23    9.52    1.50
   2   1 -23   12.61    1.44
  -1  -2 -23   13.71    1.45
  -2  -1  23   12.58    1.68
   0  -3 -23   12.49    1.43
   0   3 -23   12.91    1.66
   3   0  23    8.88    0.72
   1  -4 -23    4.88    1.50
  -1   4 -23    6.85    1.61
   4  -1  23    4.62    0.94
   5  -2  23    4.51    1.31
   2  -5 -23    5.57    1.44
  -2   5 -23    4.02    1.69
   6  -3  23    4.83    1.61
  -3   6 -23    3.85    1.87
   5  -2 -24    2.41    1.97
   5  -2 -24    1.63    1.74
   5  -2 -24    3.33    1.99
   4  -1 -24    0.11    0.91
   1  -4  24    1.85    1.42
   4  -1 -24    1.67    1.56
   4  -1 -24    0.44    1.82
   4  -1 -24    2.16    1.67
   0  -3  24    2.64    1.37
   3   0 -24    2.04    1.48
   3   0 -24    0.35    0.47
  -3   0 -24    0.96    0.70
   3   0 -24    0.73    1.46
   2   1 -24    1.16    1.29
  -1  -2  24    2.53    1.45
   2   1 -24    1.22    1.36
  -2  -1  24    0.47    1.55
  -1  -2 -24    2.66    1.22
   3   0  24    0.31    0.37
   0   3 -24    2.04    1.55
   1  -4 -24    2.44    1.60
   4  -1  24    1.14    0.86
  -1   4 -24    1.38    1.56
   5  -2  24    1.34    1.18
   2  -5 -24    0.89    1.70
  -2   5 -24   -0.04    1.72
   6  -3  24    0.88    1.54
  -3   6 -24    0.51    1.94
   5  -2 -25    4.79    1.83
   5  -2 -25    5.10    2.08
   4  -1 -25    5.05    1.81
   1  -4  25    3.39    1.52
   4  -1 -25    2.84    1.64
   4  -1 -25    3.17    2.07
   0  -3  25    6.75    1.51
   3   0 -25    5.86    1.63
  -3   0 -25    6.00    0.79
   3   0 -25    9.03    1.66
   2   1 -25    6.85    1.45
  -1  -2  25    6.45    1.50
   2   1 -25    5.39    1.56
  -1  -2 -25    8.59    1.33
  -2  -1  25    7.92    1.74
   0   3 -25    7.82    1.72
   0  -3 -25    8.07    1.53
   1  -4 -25    2.97    1.61
  -1   4 -25    3.16    1.72
   4  -1  25    4.43    0.88
   5  -2  25    3.30    1.21
   2  -5 -25    5.49    1.98
  -2   5 -25    2.99    1.84
  -3   6 -25    1.62    2.06
   5  -2 -26    1.24    1.87
   4  -1 -26   -1.52    1.82
   4  -1 -26    2.48    1.71
   4  -1 -26    1.19    2.08
   0  -3  26    2.25    1.47
   3   0 -26   -0.08    1.60
   3   0 -26    1.08    1.60
  -3   0 -26    1.85    0.72
   2   1 -26    0.70    1.46
  -1  -2  26    2.50    1.41
   2   1 -26    0.11    1.50
  -1  -2 -26    0.70    1.26
  -2  -1  26    1.65    1.67
   0  -3 -26    0.82    1.49
   0   3 -26   -0.04    1.63
   4  -1  26    1.13    0.76
   1  -4 -26    0.35    1.66
  -1   4 -26    2.03    1.71
   2  -5 -26    1.01    1.95
  -2   5 -26    2.57    1.89
  -3   6 -26    2.96    2.13
   5  -2 -27    4.04    1.98
   4  -1 -27    3.92    1.84
   4  -1 -27    2.06    1.93
   0  -3  27    4.18    1.58
   3   0 -27    3.37    1.75
  -3   0 -27    2.51    0.72
   3   0 -27    4.00    1.68
   2   1 -27    6.58    1.59
  -1  -2  27    3.57    1.30
   2   1 -27    3.43    1.68
  -1  -2 -27    7.63    1.53
   0  -3 -27    3.57    1.60
   0   3 -27    5.82    1.80
   1  -4 -27    2.16    1.76
  -1   4 -27    2.76    1.82
  -2   5 -27    1.25    1.99
   4  -1 -28    3.06    1.90
   4  -1 -28    3.33    2.01
   3   0 -28    1.77    1.73
   0  -3  28    2.91    1.65
   3   0 -28    2.55    1.81
   2   1 -28    1.83    1.63
   2   1 -28    0.98    1.71
  -2  -1 -28    2.76    2.63
   0   3 -28    2.59    1.83
   0  -3 -28    3.50    1.73
   1  -4 -28    2.05    1.82
  -1   4 -28    2.57    1.92
   4  -1 -29    3.87    2.09
   3   0 -29    3.78    1.82
   3   0 -29    4.23    1.91
   2   1 -29    3.37    1.76
   2   1 -29    2.55    1.87
  -2  -1 -29    3.37    1.22
   0   3 -29    2.83    1.90
   0  -3 -29    3.98    1.73
   1  -4 -29    4.18    1.98
   3   0 -30    1.35    1.87
   2   1 -30    2.33    1.79
  -2  -1 -30    2.85    1.23
  -1  -2 -30    1.69    1.93
   0  -3 -30    3.53    1.69
   1  -4 -30    1.14    2.00
   3   0 -31    3.58    1.92
   2   1 -31    1.77    1.78
  -1  -2 -31    1.99    2.49
   0  -3 -31    2.54    1.78
   0  -3 -31    0.84    1.79
   1  -4 -31    3.26    2.23
   3   0 -32    2.17    1.98
   2   1 -32    3.29    1.83
  -1  -2 -32    1.76    1.56
   0  -3 -32    3.69    1.96
   0  -3 -32    2.20    4.77
   3   0 -33    3.77    2.12
   0  -3 -33    0.74    2.17
   2   2   0  310.68   11.35
  -2  -2   0  304.96   11.33
  -3  -1   0  315.82   11.50
   3   1   0  313.74   11.53
  -1  -3   0  308.72   11.52
  -4   0   0  182.76    6.43
   4   0   0  165.52    6.39
   0   4   0  170.72    6.37
   4   0   0  165.82    6.44
  -4   0   0  167.97    6.36
  -4   0   0  178.59    6.45
   0  -4   0  162.29    6.36
   4   0   0  170.74    6.37
   0   4   0  171.54    6.64
   1  -5   0  152.75    5.83
   5  -1   0  155.76    5.99
  -5   1   0  157.28    5.83
  -1   5   0  159.03    6.21
   5  -1   0  151.90    5.95
   6  -2   0   50.78    2.37
  -6   2   0   51.34    2.05
   2  -6   0   52.37    2.08
   6  -2   0   51.29    2.38
   7  -3   0   33.36    2.12
   7  -3   0   33.63    2.41
   7  -3   0   34.85    2.11
   3  -7   0   35.10    2.55
   8  -4   0   12.31    1.91
   8  -4   0   10.96    1.94
   8  -4  -1    2.37    1.81
   8  -4  -1    3.46    1.87
   7  -3  -1    2.98    1.62
   7  -3  -1    6.93    1.56
   7  -3  -1    6.39    1.51
   3  -7   1    5.81    1.84
   2  -6   1    0.14    1.30
   6  -2  -1    2.60    1.14
   6  -2  -1    1.68    1.11
   2  -6   1   -0.27    0.75
  -6   2  -1    0.33    0.70
   5  -1  -1    3.63    0.92
   5  -1  -1    0.04    0.59
   5  -1  -1    1.93    0.93
   1  -5   1    0.07    0.68
  -5   1  -1    1.25    0.98
  -5   1  -1   -0.55    0.61
  -1   5   1    4.48    1.08
   0   4   1    2.42    0.82
   4   0  -1    1.36    0.66
   0  -4   1   -0.31    0.53
  -4   0  -1    1.81    0.67
   4   0  -1    1.92    0.64
   0   4   1   -1.21    0.54
  -4   0  -1   -1.08    0.52
  -4   0  -1    1.61    0.72
   4   0  -1   -0.56    0.51
   3   1  -1   -0.16    0.44
  -1  -3   1   -0.04    0.50
  -2  -2  -1   -0.86    0.48
   2   2  -1    1.12    0.43
   2   2   1   -0.35    0.40
  -2  -2   1    0.36    0.47
   3   1   1   -0.01    0.48
  -1  -3  -1   -0.39    0.51
   0   4  -1    2.41    0.81
  -4   0   1    0.54    0.51
   4   0   1    1.87    0.61
   0  -4  -1    0.08    0.57
  -4   0   1    2.17    0.75
   0   4  -1   -0.69    0.54
   4   0   1   -1.05    0.54
  -4   0   1    2.56    0.72
  -1   5  -1    1.06    0.64
   5  -1   1    2.70    0.90
   5  -1   1    1.15    0.84
   1  -5  -1    3.10    0.68
  -5   1   1   -0.63    0.64
  -1   5  -1    2.96    1.03
   6  -2   1    3.72    1.11
   2  -6  -1    0.82    1.37
   6  -2   1    2.67    1.07
  -2   6  -1    2.36    1.34
   2  -6  -1   -0.21    0.74
   3  -7  -1    7.30    1.90
   7  -3   1    5.59    1.45
   7  -3   1    5.76    1.45
   7  -3   1    7.55    1.71
   8  -4   1    3.38    1.79
   8  -4   1    3.82    1.78
   8  -4  -2    7.91    1.94
   8  -4  -2    9.07    1.92
   7  -3  -2   34.21    2.21
   7  -3  -2   36.20    2.27
   7  -3  -2   36.43    2.48
   6  -2  -2   49.36    2.30
   6  -2  -2   47.40    2.31
  -6   2  -2   47.51    1.89
   1  -5   2  119.18    4.81
   5  -1  -2  124.77    4.99
  -5   1  -2  123.91    4.80
   5  -1  -2  130.69    4.83
   5  -1  -2  122.62    4.98
   4   0  -2  154.85    6.08
   4   0  -2  161.60    6.04
   0  -4   2  156.43    6.04
  -4   0  -2  163.29    6.03
  -4   0  -2  167.23    6.11
   4   0  -2  170.62    6.16
  -4   0  -2  155.09    6.02
   3   1  -2  432.79   15.67
  -1  -3   2  405.34   15.64
  -3  -1  -2  441.29   15.61
   2   2   2  703.40   25.91
   2   2  -2  706.35   25.93
  -2  -2  -2  726.93   25.92
  -2  -2   2  706.57   25.91
  -1  -3  -2  450.31   16.13
   3   1   2  416.56   16.10
  -3  -1   2  456.75   16.15
   0   4  -2  169.49    6.27
  -4   0   2  175.13    6.10
  -4   0   2  160.08    5.99
   0   4  -2  156.40    6.00
   4   0   2  159.29    5.99
   0  -4  -2  148.03    5.98
   5  -1   2  120.21    4.76
  -5   1   2  123.56    4.68
   5  -1   2  122.15    4.81
   1  -5  -2  119.67    4.68
  -1   5  -2  125.35    4.69
  -1   5  -2  130.29    5.06
   6  -2   2   46.67    2.13
   2  -6  -2   45.73    1.89
   6  -2   2   44.83    2.18
   3  -7  -2   35.42    2.60
   7  -3   2   33.81    2.11
   7  -3   2   37.23    2.16
   8  -4   2   10.50    1.84
   8  -4   2    9.70    1.88
   8  -4  -3    5.63    1.93
   8  -4  -3    0.74    1.90
   7  -3  -3    4.21    1.54
   7  -3  -3    3.24    1.61
   7  -3  -3    6.26    1.59
   6  -2  -3    1.34    1.16
   6  -2  -3    2.55    1.20
   5  -1  -3    2.29    0.95
   5  -1  -3    2.55    0.97
  -5   1  -3    0.24    0.60
   1  -5   3   -0.92    0.69
  -5   1  -3    1.07    1.22
   5  -1  -3   -0.46    0.63
   4   0  -3    1.96    0.70
  -4   0  -3    0.39    0.52
   4   0  -3    0.03    0.51
   4   0  -3    2.04    0.67
   0  -4   3    0.83    0.57
  -4   0  -3    1.05    0.67
  -3  -1  -3    1.73    0.49
   3   1  -3    0.39    0.46
  -1  -3   3    1.43    0.51
  -2  -2   3    1.18    0.46
   2   2  -3    0.60    0.44
   2   2   3    0.29    0.39
  -2  -2  -3    1.20    0.47
  -3  -1   3    2.18    0.72
  -1  -3  -3    1.29    0.50
  -3  -1   3    1.70    0.60
   0   4  -3    2.84    0.83
   0   4  -3    0.93    0.55
  -4   0   3    2.36    0.80
   0  -4  -3    1.23    0.66
  -4   0   3    0.22    0.53
  -1   5  -3   -0.87    0.64
   5  -1   3    2.09    0.81
  -1   5  -3    2.77    1.06
   5  -1   3    1.78    0.79
  -5   1   3    0.66    0.63
   1  -5  -3    0.89    0.69
   2  -6  -3    0.59    0.72
   2  -6  -3    0.27    1.37
   6  -2   3    2.59    1.02
   6  -2   3    1.32    1.06
  -2   6  -3    3.43    1.31
   3  -7  -3    6.58    1.76
   7  -3   3    5.33    1.45
   7  -3   3    5.05    1.37
   8  -4   3    3.75    1.80
   8  -4   3    4.36    1.71
   8  -4  -4    9.98    2.08
   8  -4  -4   10.50    2.05
   7  -3  -4   30.21    2.16
   7  -3  -4   32.65    2.36
   7  -3  -4   32.65    2.20
   6  -2  -4   40.50    1.71
   6  -2  -4   38.02    2.12
  -6   2  -4   36.77    1.68
   6  -2  -4   39.63    2.15
   5  -1  -4  121.81    4.53
   5  -1  -4  111.87    4.69
   1  -5   4  106.08    4.48
   5  -1  -4  114.47    4.71
  -5   1  -4  113.18    4.49
   0  -4   4  173.39    6.68
  -4   0  -4  183.08    6.69
  -4   0  -4  185.81    6.73
   4   0  -4  179.23    6.79
   4   0  -4  168.25    6.75
   4   0  -4  180.56    6.71
  -1  -3   4  338.29   12.78
   3   1  -4  347.05   12.80
  -3  -1  -4  353.06   12.70
  -2  -2   4  398.88   14.88
  -2  -2  -4  407.11   14.88
   2   2  -4  410.75   14.90
  -1  -3  -4  341.98   12.73
  -3  -1   4  350.93   12.78
  -4   0   4  196.64    6.90
  -4   0   4  174.56    6.76
   0  -4  -4  178.05    6.77
   0   4  -4  186.83    7.04
   0   4  -4  176.88    6.77
  -5   1   4  111.20    4.28
   5  -1   4  109.51    4.31
  -1   5  -4  114.94    4.30
  -1   5  -4  111.40    4.63
   1  -5  -4  110.45    4.29
   6  -2   4   37.73    1.89
   2  -6  -4   37.22    1.71
   6  -2   4   36.12    1.93
  -2   6  -4   38.70    1.69
  -2   6  -4   42.64    2.32
   7  -3   4   32.17    1.85
   7  -3   4   31.76    1.87
   3  -7  -4   32.45    2.44
   8  -4   4   10.77    1.72
   8  -4  -5    3.20    1.98
   8  -4  -5    7.42    2.09
   3  -7   5    4.65    1.80
   7  -3  -5    3.06    1.59
   7  -3  -5    2.87    1.58
   7  -3  -5    7.13    1.67
  -6   2  -5    0.56    0.68
   6  -2  -5    3.63    1.25
   6  -2  -5    0.30    0.72
  -2   6   5    2.18    1.26
   6  -2  -5    2.11    1.27
  -5   1  -5    1.54    0.66
   1  -5   5    0.95    0.66
   5  -1  -5    0.77    0.67
   5  -1  -5    1.08    0.99
  -5   1  -5    2.47    2.29
  -1   5   5    2.46    1.06
   5  -1  -5    2.23    0.96
   4   0  -5    1.43    0.71
   0   4   5    1.21    0.80
   4   0  -5    0.98    0.70
   0  -4   5    1.65    0.58
   4   0  -5    1.12    0.54
  -4   0  -5    1.89    0.70
  -4   0  -5    0.41    0.54
   3   1  -5    0.14    0.60
   3   1  -5    0.70    0.48
  -3  -1  -5    0.88    0.41
  -1  -3   5   -0.08    0.47
  -2  -2   5    1.14    0.54
  -2  -2  -5   -0.03    0.46
   2   2  -5    0.49    0.44
  -2  -2   5    0.22    0.46
  -1  -3  -5    0.73    0.51
  -3  -1   5    1.14    0.63
   0  -4  -5    1.16    0.58
  -4   0   5    1.16    0.54
  -4   0   5    1.78    0.84
   0   4  -5    1.73    0.84
   0   4  -5    0.55    0.56
  -1   5  -5    1.76    0.70
   1  -5  -5    2.71    0.77
   5  -1   5    2.79    0.78
  -5   1   5    0.73    0.67
  -1   5  -5    1.77    1.02
   6  -2   5    2.58    0.94
  -2   6  -5    1.44    0.75
   2  -6  -5    1.30    0.76
  -2   6  -5    1.03    1.22
   3  -7  -5    6.39    1.83
   7  -3   5    4.09    1.31
   7  -3   5    4.93    1.68
   7  -3   5    4.71    1.32
   8  -4  -6    9.21    2.10
   8  -4  -6   11.35    2.14
   7  -3  -6   27.15    2.07
   7  -3  -6   24.59    2.01
   7  -3  -6   26.42    2.09
   3  -7   6   26.66    2.20
   6  -2  -6   31.72    1.55
   6  -2  -6   30.01    1.96
   6  -2  -6   33.86    2.04
  -6   2  -6   31.73    1.52
  -2   6   6   35.26    2.07
   5  -1  -6  108.46    4.83
  -5   1  -6  119.42    4.64
   5  -1  -6  111.14    4.84
  -1   5   6  115.53    4.96
   5  -1  -6  115.47    4.67
   0  -4   6  118.46    4.84
   4   0  -6  119.59    4.95
   4   0  -6  130.61    4.89
  -4   0  -6  131.09    4.88
  -4   0  -6  130.89    4.88
   4   0  -6  126.45    4.98
   0   4   6  140.74    5.13
  -1  -3   6  235.97    9.10
  -3  -1  -6  251.56    8.98
   3   1  -6  248.05    9.14
   3   1  -6  237.08    9.16
  -2  -2   6  373.85   13.90
   2   2  -6  385.03   13.94
  -2  -2  -6  387.80   13.92
  -2  -2   6  367.19   13.91
  -1  -3  -6  235.42    8.83
  -3  -1   6  240.12    8.88
  -4   0   6  141.18    4.85
   0   4  -6  128.66    4.68
   0  -4  -6  125.92    4.68
   0   4  -6  137.96    4.96
  -1   5  -6  107.52    4.16
   1  -5  -6  108.00    4.16
  -1   5  -6  113.72    4.52
   5  -1   6  103.96    4.10
   6  -2   6   29.82    1.61
  -2   6  -6   31.63    1.51
  -2   6  -6   33.61    2.03
   2  -6  -6   30.98    1.53
   7  -3   6   22.81    1.66
   3  -7  -6   24.15    2.30
   7  -3   6   26.37    2.11
   8  -4  -7    3.34    2.06
   8  -4  -7    2.37    2.06
   7  -3  -7    4.82    1.66
   7  -3  -7    4.53    1.75
  -7   3  -7    1.97    0.70
   7  -3  -7    1.61    1.54
   6  -2  -7    1.06    0.88
   6  -2  -7    0.35    1.27
  -2   6   7    4.73    1.27
  -6   2  -7    1.43    0.78
   6  -2  -7    2.79    1.35
  -5   1  -7    0.44    0.71
   5  -1  -7    0.95    1.05
   5  -1  -7    0.86    0.71
  -5   1  -7    2.74    1.95
  -1   5   7    1.30    0.99
   5  -1  -7    2.75    1.13
  -4   0  -7    0.32    0.58
   4   0  -7    1.33    0.60
   4   0  -7    0.72    0.79
   0  -4   7    1.13    0.57
   4   0  -7    0.44    0.78
  -4   0  -7    1.38    0.67
   0   4   7    1.22    0.78
  -3  -1  -7    0.80    0.55
  -1  -3   7    0.48    0.51
   3   1  -7    0.57    0.51
  -3  -1  -7    0.87    0.36
  -2  -2   7    0.62    0.56
   2   2  -7    1.29    0.57
  -2  -2   7    1.41    0.52
  -2  -2  -7    0.72    0.51
  -1  -3  -7    1.45    0.56
  -3  -1   7    1.01    0.65
   0   4  -7    0.77    0.84
   0   4  -7    1.36    0.61
  -4   0   7   -0.01    0.56
   0  -4  -7    0.81    0.62
  -4   0   7    0.51    1.12
   1  -5  -7    1.82    0.75
   5  -1   7    1.46    0.60
  -1   5  -7    1.04    0.74
  -1   5  -7    1.18    1.04
  -2   6  -7    3.41    1.30
   6  -2   7    1.49    0.89
   2  -6  -7    2.33    0.82
  -2   6  -7    0.91    0.81
   7  -3   7    3.15    1.22
   7  -3   7    4.58    1.59
   8  -4  -8   10.58    2.20
   8  -4  -8    9.91    2.23
  -7   3  -8   19.76    1.14
   7  -3  -8   20.66    2.02
   7  -3  -8   17.91    1.21
  -6   2  -8   30.72    1.50
   6  -2  -8   26.84    1.94
   6  -2  -8   30.23    2.01
  -2   6   8   29.54    1.92
   6  -2  -8   28.49    1.54
   5  -1  -8   86.75    3.77
  -5   1  -8   96.21    3.52
   5  -1  -8   90.58    3.54
   0  -4   8   94.87    3.70
  -4   0  -8   97.10    3.72
   4   0  -8   88.77    3.81
   4   0  -8   98.41    3.74
  -4   0  -8  104.03    3.69
   4   0  -8   97.65    3.85
  -1  -3   8  204.59    8.05
   3   1  -8  231.01    8.14
  -2  -2   8  399.06   14.71
   2   2  -8  427.01   14.78
  -2  -2   8  381.12   14.69
  -3  -1   8  210.46    7.92
   0  -4  -8   93.79    3.98
   0   4  -8   95.78    3.99
   0   4  -8  101.62    4.20
  -1   5  -8   84.56    3.34
  -1   5  -8   90.93    3.70
   1  -5  -8   88.48    3.35
  -2   6  -8   29.63    1.54
   2  -6  -8   30.73    1.55
   6  -2   8   25.62    1.48
  -2   6  -8   30.00    1.94
   7  -3   8   25.17    2.11
   7  -3   8   23.56    1.59
   8  -4  -9    3.03    2.13
  -7   3  -9    2.73    0.83
   7  -3  -9    3.74    1.74
   7  -3  -9    4.75    1.82
   7  -3  -9    1.97    1.59
   6  -2  -9    1.26    1.41
  -6   2  -9    0.88    0.85
   6  -2  -9    2.85    1.41
   6  -2  -9    1.30    0.89
  -2   6   9    1.01    1.21
   5  -1  -9    1.73    0.82
  -1   5   9    0.51    1.09
   5  -1  -9    0.40    1.21
  -5   1  -9    2.50    1.88
  -5   1  -9    2.17    0.81
   5  -1  -9    1.55    1.15
   4   0  -9   -0.35    0.85
   4   0  -9    1.06    0.68
  -4   0  -9    0.38    0.66
   0   4   9    0.16    0.77
   4   0  -9    0.37    0.86
  -4   0  -9    0.40    0.65
  -1  -3   9    0.43    0.56
  -1  -3   9    0.47    0.59
   3   1  -9   -0.52    0.59
  -2  -2   9    0.73    0.58
   2   2  -9    0.02    0.60
  -2  -2   9    0.65    0.60
  -3  -1   9    0.46    0.81
  -3  -1   9    0.74    0.71
   0   4  -9    1.10    0.70
   0  -4  -9   -0.09    0.64
  -4   0   9    0.55    0.92
   0   4  -9    0.45    0.83
   1  -5  -9    1.91    0.82
  -1   5  -9    2.70    0.84
  -1   5  -9    1.25    1.09
  -2   6  -9    2.91    1.33
   6  -2   9    0.70    0.83
   2  -6  -9    2.29    0.92
  -2   6  -9    1.46    0.90
  -3   7  -9    3.51    0.88
   7  -3   9    3.05    1.14
   7  -3   9    2.65    1.66
   7  -3 -10   17.76    2.07
  -7   3 -10   16.52    1.17
   7  -3 -10   23.15    2.15
   7  -3 -10   19.53    2.04
   6  -2 -10   26.14    2.04
  -6   2 -10   27.86    1.51
   6  -2 -10   29.11    2.05
   6  -2 -10   27.16    1.55
  -2   6  10   29.39    1.89
   5  -1 -10   89.11    3.81
   5  -1 -10   87.71    3.52
  -5   1 -10   91.07    3.50
   4   0 -10   71.08    3.01
  -4   0 -10   76.51    2.78
   3   1 -10  139.02    5.01
  -1  -3  10  121.12    4.87
   2   2 -10  269.42    9.87
  -2  -2  10  275.30    9.89
  -2  -2  10  251.04    9.78
  -3  -1  10  133.25    5.15
  -3  -1  10  128.98    5.07
   0   4 -10   75.74    3.13
   0   4 -10   75.34    3.25
   1  -5 -10   80.81    3.41
  -1   5 -10   86.38    3.72
  -1   5 -10   86.20    3.45
   6  -2  10   22.91    1.29
   2  -6 -10   24.62    1.48
  -2   6 -10   27.62    1.88
  -2   6 -10   29.88    1.52
   7  -3  10   14.32    1.31
  -3   7 -10   16.48    1.22
   7  -3 -11    2.63    1.88
   7  -3 -11    3.34    1.65
  -7   3 -11    0.76    0.96
   7  -3 -11    1.96    1.86
   6  -2 -11    4.18    1.55
   6  -2 -11    1.84    0.99
   6  -2 -11    1.61    1.49
  -2   6  11    1.28    1.18
  -6   2 -11    0.61    0.94
   5  -1 -11    0.09    0.96
  -1   5  11    0.13    1.10
  -5   1 -11    1.36    0.89
   5  -1 -11    1.38    1.40
  -5   1 -11    4.44    2.08
  -4   0 -11    1.02    0.68
   4   0 -11    0.13    0.97
   0   4  11    0.23    0.81
   4   0 -11    1.08    0.79
   1   3  11    0.15    0.66
  -1  -3  11    0.99    0.57
   3   1 -11    1.06    0.69
  -2  -2  11    0.41    0.67
  -2  -2  11    0.92    0.80
   2   2 -11    0.11    0.65
   1   3 -11    0.93    0.70
  -3  -1  11    0.18    0.90
  -3  -1  11    0.36    0.76
   0   4 -11    0.89    0.86
   0   4 -11    0.67    0.79
  -1   5 -11    2.39    0.91
  -1   5 -11    1.58    1.11
   1  -5 -11    1.51    0.90
   2  -6 -11    2.06    1.00
   6  -2  11    1.43    0.63
  -2   6 -11    2.93    1.01
  -2   6 -11    0.70    1.26
  -3   7 -11    0.30    1.01
   7  -3  11    0.86    1.63
   7  -3 -12   14.46    2.15
   7  -3 -12   13.60    1.92
  -7   3 -12   12.12    1.19
   7  -3 -12   16.80    2.16
   6  -2 -12   19.11    1.39
   6  -2 -12   19.24    1.85
  -6   2 -12   17.07    1.31
  -2   6  12   17.43    1.57
   5  -1 -12   33.98    2.66
   5  -1 -12   61.06    2.30
  -5   1 -12   61.09    2.21
   5  -1 -12   39.73    2.54
  -1   5  12   18.53    2.44
   4   0 -12   70.51    3.12
  -4   0 -12   75.02    2.97
   3   1 -12   85.09    3.21
   3   1 -12   90.19    3.24
   2   2 -12  152.63    5.72
  -2  -2  12  143.13    5.70
  -2  -2  12  146.38    5.61
  -3  -1  12   89.65    3.75
  -3  -1  12   92.24    3.69
   1   3 -12   87.87    3.65
   0   4 -12   65.62    2.82
   0   4 -12   64.19    2.87
  -1   5 -12   61.64    2.71
  -1   5 -12   59.06    2.86
  -2   6 -12   16.61    1.36
  -2   6 -12   15.50    1.60
   2  -6 -12   17.19    1.35
  -3   7 -12   13.98    1.31
   7  -3  12   12.89    1.94
  -7   3 -13    1.10    1.15
   7  -3 -13    1.19    1.97
   7  -3 -13    2.78    1.69
   7  -3 -13    4.21    1.98
   6  -2 -13    0.66    1.09
   6  -2 -13    1.84    1.60
  -2   6  13    2.95    1.26
   6  -2 -13    0.93    1.58
  -6   2 -13    2.45    1.05
   5  -1 -13    0.52    1.30
   5  -1 -13    0.86    1.40
   5  -1 -13    0.76    1.02
  -1   5  13    0.48    1.06
   0  -4  13    0.60    0.65
  -4   0 -13    1.11    0.72
   4   0 -13    0.65    1.08
   4   0 -13    0.38    0.87
   0   4  13    0.05    0.84
   3   1 -13    0.60    0.86
   1   3  13    0.13    0.66
   3   1 -13    1.03    0.77
  -1  -3  13    1.37    0.66
  -2  -2  13    1.37    0.90
   2   2 -13    1.40    0.75
  -2  -2  13    0.89    0.73
   1   3 -13    0.23    0.69
  -3  -1  13    0.35    1.00
  -3  -1  13    1.49    2.23
  -4   0  13    0.76    1.23
   0   4 -13   -0.59    0.87
   0   4 -13    1.43    0.92
  -1   5 -13    1.16    1.12
  -1   5 -13    0.35    1.03
   2  -6 -13    1.85    1.12
  -2   6 -13    1.65    1.27
  -2   6 -13    1.09    1.09
   6  -2  13    2.05    1.32
  -3   7 -13    0.72    1.15
   7  -3  13    2.00    1.69
  -7   3 -14   10.95    1.31
   7  -3 -14   10.01    2.09
   7  -3 -14   11.80    1.93
   7  -3 -14   11.58    2.16
   6  -2 -14   13.17    1.37
   6  -2 -14   13.37    1.92
  -2   6  14   13.22    1.49
   6  -2 -14   10.59    1.51
   6  -2 -14   13.98    1.80
  -6   2 -14   13.23    1.32
   5  -1 -14   14.62    2.00
   5  -1 -14   33.23    1.73
   1  -5  14   24.84    1.29
   5  -1 -14   20.90    1.97
  -1   5  14   31.43    1.74
   4   0 -14   44.93    2.01
   4   0 -14   24.41    2.20
   0  -4  14   39.81    1.69
  -4   0 -14   50.87    1.77
   0   4  14   14.89    2.00
   3   1 -14   83.64    3.12
  -1  -3  14   78.12    2.89
   2   2 -14  131.87    5.08
  -2  -2  14  123.16    4.93
  -2  -2  14  130.48    5.10
  -3  -1  14   89.95    3.67
  -3  -1  14   85.46    3.54
   1   3 -14   83.75    3.50
   0   4 -14   42.52    2.21
   0   4 -14   46.28    2.23
  -1   5 -14   31.33    1.84
  -1   5 -14   30.63    1.88
  -2   6 -14   11.52    1.35
  -2   6 -14   12.68    1.53
   2  -6 -14   12.65    1.31
   6  -2  14   13.08    1.55
  -3   7 -14    9.11    1.31
   7  -3  14   12.75    2.01
   7  -3 -15    3.74    2.08
   7  -3 -15    2.88    2.07
   7  -3 -15    2.12    1.82
   2  -6  15    1.62    0.73
   6  -2 -15    0.12    1.26
   6  -2 -15   -0.04    1.76
  -6   2 -15    1.25    1.15
   6  -2 -15    2.59    1.70
   6  -2 -15    0.67    1.24
   1  -5  15    1.25    0.70
   5  -1 -15    0.88    1.43
   5  -1 -15    0.45    1.14
  -1   5  15    1.22    1.03
  -4   0 -15    1.40    0.79
   4   0 -15    0.49    1.26
   4   0 -15    0.24    1.00
   0  -4  15    0.56    0.69
   0   4  15   -0.52    0.82
   4   0 -15    0.80    1.14
   3   1 -15    1.40    1.02
   3   1 -15    0.78    0.91
   1   3  15    0.07    0.67
  -1  -3  15    0.27    0.72
  -2  -2 -15    0.25    0.62
  -2  -2  15    1.99    1.17
   2   2 -15    2.76    0.91
  -2  -2  15    0.55    0.81
   1   3 -15    0.26    0.70
  -3  -1  15    2.46    1.21
   0   4 -15   -0.73    0.92
  -4   0  15   -1.15    1.37
   0   4 -15    1.78    0.99
  -1   5 -15    0.80    1.14
  -1   5 -15   -0.21    1.14
  -2   6 -15    0.12    1.21
   2  -6 -15   -0.31    1.18
   6  -2  15    1.86    1.29
  -3   7 -15    1.72    1.30
   7  -3  15    4.43    1.85
   7  -3 -16    9.06    2.30
   7  -3 -16    8.08    1.88
   6  -2 -16   10.40    1.50
   6  -2 -16   10.03    1.48
   6  -2 -16   14.28    2.12
  -6   2 -16   10.45    1.38
   6  -2 -16   11.08    1.89
   5  -1 -16   24.54    1.89
   1  -5  16   20.26    1.17
  -1   5  16   22.49    1.52
   4   0 -16   35.78    1.92
   0   4  16   33.11    1.77
   0  -4  16   29.55    1.56
   4   0 -16   37.73    2.05
  -4   0 -16   40.17    1.64
   3   1 -16   58.13    2.33
  -1  -3  16   55.74    2.34
  -1  -3  16   50.68    2.05
   3   1 -16   58.97    2.34
   2   2 -16   79.75    3.10
  -2  -2  16   77.11    3.12
   1   3 -16   57.49    2.65
   1   3 -16   53.28    2.45
   0   4 -16   35.44    1.97
   0   4 -16   31.99    1.83
  -1   5 -16   25.20    1.73
  -1   5 -16   23.99    1.66
  -2   6 -16   10.94    1.45
   2  -6 -16    8.73    1.38
   6  -2  16    9.26    1.42
  -3   7 -16    8.87    1.50
   7  -3  16    9.30    1.95
   7  -3 -17    1.69    1.77
   6  -2 -17    2.55    1.88
  -6   2 -17    1.14    1.28
   6  -2 -17    0.95    1.30
   6  -2 -17    2.81    1.81
   6  -2 -17    2.08    1.45
   5  -1 -17    1.80    1.49
   5  -1 -17    1.67    1.27
   1  -5  17    1.04    0.67
  -1   5  17    0.53    0.96
  -4   0 -17    1.07    0.80
   4   0 -17    1.05    1.24
   4   0 -17    1.37    1.09
   0  -4  17    0.47    0.70
   0   4  17    0.31    0.87
   3   1 -17    0.68    1.09
   1   3  17    0.77    0.73
  -1  -3  17    2.01    1.10
   3   1 -17   -0.46    1.05
  -1  -3  17    2.17    0.79
  -2  -2 -17    0.66    0.70
  -2  -2  17    0.61    1.18
   2   2 -17    0.40    0.97
  -2  -2  17    0.15    0.90
  -1  -3 -17   -0.74    0.87
  -3  -1  17   -0.12    1.31
   1   3 -17   -0.06    0.76
   1   3 -17   -0.06    1.05
  -4   0  17    0.78    1.49
   0   4 -17    0.43    1.09
   0   4 -17    0.75    0.91
  -1   5 -17    2.23    1.29
  -1   5 -17    3.96    1.11
  -2   6 -17    0.71    1.41
   6  -2  17    0.71    1.27
   7  -3  17    1.93    1.78
  -3   7 -17    3.06    1.46
   7  -3 -18    6.68    1.87
   6  -2 -18    8.01    1.98
   6  -2 -18    7.84    1.47
   6  -2 -18    9.52    1.62
   5  -1 -18   16.64    1.57
   5  -1 -18   18.07    1.83
   1  -5  18   11.48    0.86
  -1   5  18   12.12    1.23
   4   0 -18   21.14    1.60
   0  -4  18   16.46    1.10
   4   0 -18   20.99    1.71
  -4   0 -18   21.61    1.17
   0   4  18   18.59    1.27
   3   1 -18   30.73    1.93
  -1  -3  18   29.89    1.85
   3   1 -18   34.02    1.94
   1   3  18   28.41    1.55
   2   2 -18   39.47    2.11
  -2  -2 -18   37.35    1.76
  -2  -2  18   41.22    2.19
  -1  -3 -18   31.01    1.64
  -3  -1  18   31.18    1.97
   1   3 -18   30.65    1.91
   1   3 -18   28.23    1.54
   0   4 -18   19.75    1.64
   0   4 -18   19.15    1.38
  -1   5 -18   16.61    1.63
  -1   5 -18   13.81    1.34
  -2   6 -18    7.06    1.58
   6  -2  18    6.40    1.44
  -3   7 -18    6.08    1.59
   7  -3  18    8.37    1.99
   7  -3 -19    1.86    1.81
   6  -2 -19    1.28    1.36
   6  -2 -19    2.81    1.94
   6  -2 -19    2.58    1.54
   5  -1 -19    1.30    1.61
   5  -1 -19    0.38    1.36
   5  -1 -19    1.72    1.62
  -4   0 -19    0.97    0.79
   4   0 -19    0.03    1.23
   0  -4  19    1.57    1.23
   0   4  19    0.74    0.84
   4   0 -19    1.40    1.33
   3   1 -19    0.69    1.19
  -1  -3  19    1.29    1.14
   3   1 -19   -0.49    1.16
   1   3  19    0.45    0.68
  -2  -2 -19    0.28    0.79
  -2  -2  19    0.03    1.23
   2   2 -19   -0.24    1.11
  -1  -3 -19    0.04    0.95
  -3  -1  19   -0.54    1.27
   1   3 -19    0.72    1.18
   1   3 -19   -0.42    0.72
   0  -4 -19    0.55    1.17
  -4   0  19    0.66    1.57
   0   4 -19   -1.21    1.27
   0   4 -19    1.35    0.89
   1  -5 -19    0.90    1.41
  -1   5 -19    1.76    1.08
  -1   5 -19    0.22    1.38
   5  -1  19    0.84    1.02
   2  -6 -19    0.70    1.76
  -2   6 -19    4.32    1.58
   6  -2  19    1.58    1.44
  -3   7 -19    4.42    1.64
   7  -3  19    0.77    1.85
   7  -3 -20    2.13    1.79
   6  -2 -20    3.87    1.51
   6  -2 -20    7.46    2.01
   6  -2 -20    4.63    1.64
   5  -1 -20    6.98    1.80
   5  -1 -20    9.91    1.56
   5  -1 -20    7.46    1.17
   0  -4  20    8.66    1.43
   4   0 -20    9.51    1.47
  -4   0 -20    8.93    0.90
   0   4  20    8.80    0.94
   4   0 -20    9.27    1.57
   3   1 -20   15.59    1.51
  -1  -3  20   15.12    1.54
   3   1 -20   15.52    1.49
   1   3  20   12.08    0.92
  -2  -2 -20   15.79    1.14
   2   2 -20   14.44    1.44
  -2  -2  20   14.73    1.58
   2   2  20   12.33    0.88
   2   2 -20   13.69    0.97
  -1  -3 -20   11.10    1.00
  -3  -1  20   12.48    1.34
   1   3 -20   14.71    1.49
   1   3 -20   12.85    1.01
   0   4 -20    8.34    1.05
   0  -4 -20    9.33    1.37
   0   4 -20   11.28    1.50
   1  -5 -20    9.15    1.63
  -1   5 -20    7.81    1.57
   5  -1  20    8.08    1.15
   2  -6 -20    2.90    1.83
   6  -2  20    6.55    1.50
  -2   6 -20    5.70    1.73
   7  -3  20    4.16    1.88
   6  -2 -21    5.27    2.03
   6  -2 -21    1.68    1.68
   6  -2 -21    0.18    1.41
   5  -1 -21    0.41    1.48
   5  -1 -21    1.81    1.78
   5  -1 -21    0.94    1.03
  -4   0 -21    0.20    0.76
   4   0 -21    2.82    1.48
   0  -4  21    1.32    1.28
   4   0 -21    0.55    1.39
   0   4  21    0.79    0.76
   3   1 -21    1.72    1.32
  -1  -3  21    1.45    1.39
   3   1 -21    1.22    1.26
   1   3  21    0.11    0.64
   2   2  21    0.29    0.54
  -2  -2  21    0.35    1.34
  -2  -2 -21    0.80    0.95
   2   2 -21   -1.68    1.24
   2   2 -21    0.26    0.63
  -3  -1  21    2.28    1.22
  -1  -3 -21    0.68    1.03
   1   3 -21   -0.93    1.29
   1   3 -21    0.05    0.68
   0  -4 -21    0.42    1.25
   0   4 -21   -0.20    1.36
   0   4 -21   -0.04    0.82
   1  -5 -21    2.13    1.54
  -1   5 -21    0.98    1.51
   5  -1  21    1.40    1.07
   2  -6 -21    3.10    1.89
   6  -2  21    1.17    1.41
  -2   6 -21   -0.33    1.66
   7  -3  21    1.38    1.77
   6  -2 -22    3.15    1.50
   6  -2 -22    6.60    1.83
   5  -1 -22    7.94    1.70
   5  -1 -22    6.21    1.19
   5  -1 -22    6.06    1.88
  -4   0 -22    7.21    0.83
   0  -4  22    9.01    1.43
   4   0 -22   13.18    1.67
   4   0 -22   11.21    1.66
  -1  -3  22   14.35    1.59
   3   1 -22   14.89    1.59
   3   1 -22   18.79    1.63
  -2  -2  22   16.19    1.65
   2   2 -22   13.56    1.56
  -2  -2 -22   12.80    1.17
   2   2  22    9.16    0.71
   2   2 -22    9.52    0.81
  -3  -1  22   16.50    1.84
  -1  -3 -22   15.02    1.37
   1   3 -22   15.24    1.63
   1   3 -22   11.61    0.95
   0  -4 -22    8.03    1.30
   0   4 -22    9.02    1.61
   0   4 -22    7.69    0.96
   4   0  22    6.80    0.89
   1  -5 -22    6.43    1.68
  -1   5 -22    8.44    1.73
   5  -1  22    7.28    1.26
   2  -6 -22    5.11    1.97
  -2   6 -22    4.58    1.83
   6  -2  22    3.08    1.48
   7  -3  22    1.96    1.87
   6  -2 -23    0.80    1.85
   1  -5  23    3.62    1.56
   5  -1 -23   -0.94    1.64
   5  -1 -23    0.76    1.13
   5  -1 -23    2.06    1.87
   4   0 -23    1.37    1.63
  -4   0 -23    0.59    0.62
   0  -4  23    2.44    1.44
   4   0 -23   -0.48    1.52
   4   0 -23   -0.02    0.78
   3   1 -23   -0.44    1.45
  -1  -3  23    1.75    1.47
   3   1 -23    2.06    1.41
  -2  -2  23    1.18    1.56
  -2  -2 -23    1.52    1.00
   2   2 -23    1.94    1.43
   2   2  23    0.71    0.37
   2   2 -23    1.27    0.55
   1   3 -23    1.43    0.63
  -3  -1  23    1.30    1.68
  -1  -3 -23    1.56    1.20
   1   3 -23    1.06    1.43
   0  -4 -23    2.82    1.27
   0   4 -23    1.14    1.54
   4   0  23    0.96    0.80
   1  -5 -23   -0.06    1.55
  -1   5 -23    0.81    1.72
   5  -1  23   -0.22    1.09
   2  -6 -23    4.51    1.96
  -2   6 -23    0.32    1.85
   6  -2  23    3.08    1.46
   6  -2 -24    4.29    1.97
   1  -5  24    7.07    1.57
   5  -1 -24    7.22    2.23
   5  -1 -24    4.96    1.76
   5  -1 -24    5.64    2.01
   4   0 -24    7.55    1.78
   0  -4  24    7.32    1.68
   4   0 -24    8.02    1.74
  -4   0 -24    3.09    0.42
   4   0 -24    5.61    0.88
  -4   0 -24    3.75    0.47
   3   1 -24   11.95    1.71
  -1  -3  24   11.61    1.65
   3   1 -24   11.17    1.65
  -2  -2 -24   10.31    1.17
  -2  -2  24   11.66    1.71
   2   2 -24   11.46    1.61
  -1  -3 -24    8.66    1.37
   1   3 -24    9.26    1.64
   3   1  24    6.08    0.60
   0  -4 -24    7.05    1.54
   0   4 -24    8.54    1.79
   4   0  24    5.17    0.87
   1  -5 -24    4.10    1.36
  -1   5 -24    4.67    1.82
   5  -1  24    4.08    1.18
  -2   6 -24    2.80    1.99
   6  -2  24    2.24    1.47
   6  -2 -25    0.04    1.96
   5  -1 -25    1.89    2.25
   5  -1 -25    1.12    1.78
   5  -1 -25    3.30    1.97
   4   0 -25   -0.07    1.70
   0  -4  25    2.36    1.58
   4   0 -25   -0.84    1.68
   3   1 -25    0.47    1.60
  -1  -3  25    1.00    1.54
   3   1 -25    2.75    1.60
  -2  -2  25    2.56    1.58
   2   2 -25    1.77    1.59
  -1  -3 -25   -0.94    1.33
   1   3 -25    0.38    1.57
   0  -4 -25    2.93    1.52
   0   4 -25    1.51    1.75
   4   0  25    1.25    0.76
   1  -5 -25    3.83    1.69
  -1   5 -25    2.15    1.88
   5  -1  25    1.76    1.08
  -2   6 -25    1.37    2.03
   6  -2 -26    2.52    2.08
   5  -1 -26    4.13    2.08
   5  -1 -26    4.94    1.90
   4   0 -26    4.15    1.83
   0  -4  26    2.92    1.64
   4   0 -26    3.50    1.80
   3   1 -26    4.17    1.71
  -1  -3  26    4.80    1.64
   3   1 -26    3.11    1.68
   2   2 -26    7.72    1.75
  -1  -3 -26    4.57    1.43
   1   3 -26    5.70    1.72
   0  -4 -26    4.70    1.58
   0   4 -26    4.34    1.84
   4   0  26    2.74    0.72
   1  -5 -26    4.16    1.86
  -1   5 -26    3.88    2.00
  -2   6 -26    3.12    2.15
   5  -1 -27    2.83    1.99
   4   0 -27    0.81    1.83
   4   0 -27    1.53    1.88
   3   1 -27    3.63    1.76
   3   1 -27    1.30    1.72
   2   2 -27    0.08    1.68
  -1  -3 -27    2.16    1.60
   1   3 -27    0.66    1.73
   0  -4 -27    0.20    1.61
   0   4 -27   -0.80    1.86
   1  -5 -27    3.84    1.92
  -1   5 -27    2.63    2.05
   4   0 -28    2.03    1.88
   4   0 -28    3.71    1.97
   3   1 -28    2.94    1.89
   3   1 -28    3.10    1.83
   2   2 -28    4.07    1.83
  -1  -3 -28    3.12    1.53
   1   3 -28    2.34    1.87
   0  -4 -28    1.25    1.70
   0   4 -28    1.09    1.96
   1  -5 -28    0.62    1.93
   4   0 -29    2.13    2.02
   3   1 -29    2.55    1.93
  -1  -3 -29    2.20    1.51
   0  -4 -29    1.94    1.80
   4   0 -30    3.69    2.11
   3   1 -30    1.81    1.89
  -1  -3 -30    4.28    1.60
   0  -4 -30    4.69    1.96
   3   1 -31    5.34    2.00
  -2  -2 -31    1.27    1.49
   0  -4 -31    3.66    2.02
   3   1 -32    2.33    2.04
   3   2   0    0.31    0.57
  -2  -3   0    2.54    0.65
  -4  -1   0    2.21    0.77
   4   1   0   -0.26    0.56
  -4  -1   0    0.60    0.60
  -1  -4   0    1.04    0.63
   1   4   0    0.42    0.57
   0   5   0    1.47    0.78
  -5   0   0    7.79    1.06
   5   0   0    7.06    1.02
  -5   0   0    2.88    0.77
   5   0   0    0.52    0.72
   0  -5   0    5.23    0.84
  -5   0   0    7.44    1.10
   0   5   0    7.41    1.27
   6  -1   0    3.55    1.13
   6  -1   0    3.21    1.07
  -6   1   0   -0.36    0.82
   1  -6   0    1.01    0.87
  -1   6   0    2.36    1.24
   7  -2   0    5.52    1.56
   2  -7   0    4.02    0.99
   7  -2   0    5.60    1.45
   8  -3   0    2.04    1.82
   8  -3   0    5.20    1.74
   8  -3   0    1.47    1.88
   9  -4  -1    9.14    2.22
   8  -3  -1   14.28    2.00
   8  -3  -1   15.27    2.16
   8  -3  -1   15.62    1.95
  -7   2  -1   36.17    1.73
   7  -2  -1   47.39    2.30
   2  -7   1   34.70    1.78
   7  -2  -1   45.16    2.37
   1  -6   1   64.56    2.77
   6  -1  -1   65.21    2.96
  -6   1  -1   69.42    2.77
   6  -1  -1   70.04    3.08
   5   0  -1  240.16    8.99
   0  -5   1  233.36    8.90
  -5   0  -1  231.12    8.90
  -5   0  -1  249.85    9.03
   5   0  -1  243.17    8.93
   0   5   1  240.47    9.26
   1   4   1  131.81    5.13
  -4  -1  -1  141.98    5.13
   4   1  -1  134.92    5.14
  -1  -4   1  127.47    5.11
  -4  -1  -1  135.61    5.18
  -4  -1  -1  133.11    5.11
   3   2  -1  381.94   13.63
  -2  -3   1  358.05   13.59
   3   2   1  383.28   13.90
  -2  -3  -1  370.67   13.88
  -4  -1   1  142.95    5.18
   1   4  -1  131.67    5.14
  -4  -1   1  134.50    5.13
  -1  -4  -1  132.73    5.14
   4   1   1  131.69    5.14
  -5   0   1  234.44    8.87
   5   0   1  232.59    8.87
  -5   0   1  254.95    8.98
  -5   0   1  255.68    9.02
   0  -5  -1  225.38    8.87
   0   5  -1  235.16    8.89
   0   5  -1  240.69    9.23
  -6   1   1   69.91    2.74
   6  -1   1   63.94    2.83
   1  -6  -1   64.67    2.76
   6  -1   1   65.34    2.94
  -1   6  -1   67.10    3.20
   2  -7  -1   39.89    1.88
   7  -2   1   44.25    2.28
   7  -2   1   40.25    2.27
   8  -3   1   12.86    2.09
   8  -3   1   15.30    1.87
   8  -3   1   13.26    1.84
   9  -4  -2    2.36    2.26
   8  -3  -2    3.23    1.89
   8  -3  -2    7.26    1.88
   8  -3  -2    2.60    1.73
   7  -2  -2    4.79    1.53
  -7   2  -2    0.96    0.92
   7  -2  -2    4.34    1.48
   6  -1  -2    4.92    1.27
   6  -1  -2    4.31    1.15
   6  -1  -2    0.80    0.76
  -6   1  -2   -2.09    0.84
   1  -6   2   -1.09    0.84
   5   0  -2    5.65    1.00
   0  -5   2    3.52    0.81
  -5   0  -2    0.14    0.71
   5   0  -2   -1.47    0.79
   5   0  -2    5.70    1.02
  -5   0  -2    3.26    1.06
  -4  -1  -2    1.39    0.76
  -1  -4   2    0.02    0.58
   1   4   2   -1.06    0.58
  -4  -1  -2    1.65    0.66
   4   1  -2   -0.54    0.58
  -4  -1  -2   -0.99    0.63
  -2  -3   2   -0.42    0.63
   3   2  -2    1.20    0.63
  -2  -3  -2   -0.18    0.64
   3   2   2   -0.92    0.56
  -4  -1   2    0.51    0.58
  -4  -1   2    0.87    0.75
   1   4  -2   -1.47    0.64
   4   1   2   -0.93    0.60
  -1  -4  -2   -0.49    0.61
   0   5  -2    5.43    1.18
   0   5  -2   -0.78    0.80
  -5   0   2    5.08    1.08
   0  -5  -2    2.75    0.81
  -5   0   2    5.04    1.09
  -5   0   2    1.52    0.76
  -1   6  -2    1.77    0.84
   1  -6  -2    4.59    0.85
   6  -1   2    3.00    0.93
  -1   6  -2    3.73    1.29
   7  -2   2    2.16    1.33
   2  -7  -2    2.44    0.98
   7  -2   2    4.64    1.42
   8  -3   2    3.03    1.65
   8  -3   2    4.60    1.67
   8  -3  -3   15.97    2.05
   8  -3  -3   12.42    2.11
   8  -3  -3   14.70    1.99
   7  -2  -3   34.14    2.11
  -7   2  -3   27.78    1.50
   7  -2  -3   31.82    2.09
   1  -6   3   37.86    1.96
   6  -1  -3   43.86    2.26
  -6   1  -3   46.54    1.96
   6  -1  -3   45.69    1.98
   6  -1  -3   45.67    2.33
   0  -5   3  159.10    6.18
   5   0  -3  165.28    6.21
   5   0  -3  160.06    6.29
   5   0  -3  163.91    6.32
  -5   0  -3  168.53    6.28
  -5   0  -3  161.92    6.18
  -4  -1  -3   75.25    3.06
   4   1  -3   74.63    3.09
  -4  -1  -3   77.28    3.01
  -1  -4   3   76.01    3.08
  -4  -1  -3   79.77    3.13
   3   2  -3  219.83    8.23
  -2  -3   3  219.35    8.21
  -2  -3  -3  225.28    8.10
   3   2   3  210.37    8.07
  -3  -2   3  212.53    8.10
  -1  -4  -3   72.22    3.04
  -4  -1   3   79.75    3.13
   1   4  -3   77.92    3.07
  -4  -1   3   74.01    3.03
  -5   0   3  162.16    5.71
   0   5  -3  153.50    5.72
  -5   0   3  163.90    5.86
   0   5  -3  172.47    6.10
   0  -5  -3  155.38    5.72
  -6   1   3   40.86    1.92
   6  -1   3   40.73    2.00
   1  -6  -3   43.89    1.95
  -1   6  -3   47.60    2.49
  -1   6  -3   45.55    1.97
   7  -2   3   31.72    1.90
   2  -7  -3   26.60    1.51
   8  -3   3   14.71    1.81
   8  -3  -4    2.41    1.81
   8  -3  -4    5.77    1.88
   8  -3  -4    2.27    1.87
   7  -2  -4    4.41    1.52
   7  -2  -4    4.47    1.57
  -7   2  -4    0.05    0.88
   6  -1  -4    1.46    1.16
   6  -1  -4   -0.02    0.80
  -6   1  -4    0.30    0.77
   1  -6   4   -0.98    0.79
   6  -1  -4    1.28    1.19
  -6   1  -4   -0.65    1.09
   5   0  -4    2.50    1.05
   5   0  -4    1.44    0.80
   5   0  -4    2.44    0.97
   0  -5   4   -0.06    0.76
  -5   0  -4    1.17    0.95
  -5   0  -4    0.24    0.73
  -4  -1  -4    0.76    0.76
  -4  -1  -4    0.90    0.58
  -4  -1  -4    0.05    0.60
  -1  -4   4    0.08    0.60
   4   1  -4   -0.11    0.57
   3   2  -4    0.81    0.61
  -2  -3   4    1.41    0.62
  -3  -2   4    1.82    0.72
  -2  -3  -4    0.99    0.60
   1   4  -4    0.68    0.58
  -4  -1   4    1.60    0.83
  -4  -1   4    0.34    0.61
  -1  -4  -4    0.89    0.62
   0   5  -4    2.88    1.09
   0  -5  -4    0.74    0.80
  -5   0   4    0.50    1.10
   0   5  -4    0.90    0.78
  -5   0   4   -0.03    0.73
  -5   0   4    2.66    1.09
  -1   6  -4   -0.15    0.84
  -6   1   4   -0.46    0.77
   6  -1   4    1.66    0.87
   1  -6  -4    0.81    0.81
  -1   6  -4    1.49    1.19
   7  -2   4    3.35    1.23
   2  -7  -4    1.04    0.97
   8  -3   4    3.74    1.65
   8  -3  -5   12.83    2.03
   8  -3  -5   14.28    2.09
   8  -3  -5   10.05    2.08
   7  -2  -5   33.01    1.63
   7  -2  -5   34.31    2.24
  -7   2  -5   30.72    1.60
   7  -2  -5   30.42    2.13
   1  -6   5   27.40    1.54
   6  -1  -5   28.99    1.90
   6  -1  -5   30.99    1.59
  -6   1  -5   32.60    1.83
   6  -1  -5   34.26    1.96
  -6   1  -5   33.21    1.57
  -1   6   5   33.86    2.06
   5   0  -5  125.14    4.71
  -5   0  -5  122.95    4.69
   0  -5   5  110.17    4.65
   5   0  -5  116.24    4.80
  -5   0  -5  121.66    6.13
   5   0  -5  123.87    4.88
   0   5   5  132.07    5.04
  -4  -1  -5  121.14    4.61
  -1  -4   5  116.88    4.71
  -4  -1  -5  125.23    4.73
  -4  -1  -5  123.98    4.75
   4   1  -5  123.49    4.76
   1   4   5  127.76    4.98
  -2  -3   5  396.79   14.74
   3   2  -5  403.67   14.77
  -2  -3  -5  410.55   14.86
  -3  -2   5  395.34   14.86
   1   4  -5  134.31    5.07
  -4  -1   5  131.12    4.92
  -4  -1   5  119.70    4.80
  -1  -4  -5  122.50    4.82
  -4  -1   5  122.92    4.90
   1   4  -5  124.61    4.84
   0   5  -5  123.37    4.73
  -5   0   5  128.68    4.90
   0  -5  -5  122.76    4.73
  -5   0   5  111.28    4.67
   0   5  -5  128.88    5.09
  -6   1   5   30.32    1.55
   6  -1   5   28.96    1.57
  -1   6  -5   32.14    1.60
  -1   6  -5   31.62    2.07
   1  -6  -5   33.49    1.62
   7  -2   5   29.73    1.76
   2  -7  -5   30.73    1.59
   8  -3   5   14.81    2.18
   8  -3  -6    4.50    1.92
   8  -3  -6    2.11    1.85
   8  -3  -6    3.49    1.93
   7  -2  -6    3.95    1.59
   7  -2  -6    4.79    1.65
  -7   2  -6    2.34    0.93
   7  -2  -6    1.92    0.97
   6  -1  -6    0.78    1.23
  -1   6   6    1.73    1.25
   1  -6   6    1.16    0.84
   6  -1  -6    1.96    0.85
   6  -1  -6    1.78    1.26
  -6   1  -6    2.32    1.13
  -6   1  -6    0.86    0.82
   0   5   6    3.99    1.13
   5   0  -6    0.16    1.07
   0  -5   6    1.37    0.76
   5   0  -6    2.59    1.05
  -5   0  -6    1.59    0.77
  -5   0  -6    2.48    0.95
   5   0  -6    1.66    0.80
   1   4   6    2.06    0.90
  -4  -1  -6    1.43    0.65
  -4  -1  -6    1.29    0.77
  -4  -1  -6    1.38    0.52
   4   1  -6    0.76    0.65
  -1  -4   6    1.60    0.65
   3   2  -6    1.86    0.64
  -2  -3   6    0.63    0.63
  -3  -2   6    1.72    0.72
  -2  -3  -6    0.91    0.67
   1   4  -6    1.37    0.90
  -1  -4  -6    0.60    0.66
  -4  -1   6    1.44    0.92
  -4  -1   6    1.30    0.67
   1   4  -6    1.43    0.67
  -4  -1   6    1.51    0.83
   0   5  -6    1.76    1.20
  -5   0   6    2.92    1.27
   0  -5  -6    1.67    0.93
   0   5  -6    1.38    0.89
   1  -6  -6    0.71    0.87
  -1   6  -6    1.13    0.89
  -1   6  -6    1.54    1.30
  -2   7  -6    2.39    0.97
   2  -7  -6    3.44    1.01
   7  -2   6    3.84    1.08
   8  -3   6    4.44    1.94
   8  -3  -7   13.89    2.10
   8  -3  -7   12.49    2.16
   8  -3  -7   10.29    2.06
   7  -2  -7   33.91    2.33
  -7   2  -7   32.42    1.64
   7  -2  -7   30.97    1.68
   7  -2  -7   33.55    2.28
  -6   1  -7   41.30    1.91
   6  -1  -7   40.79    1.95
   6  -1  -7   38.14    2.26
  -1   6   7   42.66    2.36
  -6   1  -7   41.14    2.08
   6  -1  -7   36.81    2.21
   0  -5   7  128.20    5.08
   5   0  -7  124.08    5.24
  -5   0  -7  135.63    5.11
  -5   0  -7  142.68    5.14
   5   0  -7  140.03    5.16
   0   5   7  134.43    5.37
  -4  -1  -7  147.72    5.51
  -1  -4   7  141.58    5.67
   4   1  -7  150.16    5.80
   4   1  -7  151.62    5.73
  -4  -1  -7  152.50    5.71
   1   4   7  153.78    5.90
  -2  -3   7  266.70   10.11
   3   2  -7  276.86   10.15
  -3  -2   7  256.41    9.86
  -2  -3  -7  272.94    9.88
  -4  -1   7  140.97    5.60
  -4  -1   7  145.78    5.70
   1   4  -7  149.25    5.66
  -1  -4  -7  146.40    5.63
   1   4  -7  155.51    5.86
   0  -5  -7  128.91    5.68
   0   5  -7  135.67    5.96
   0   5  -7  133.90    5.72
   1  -6  -7   38.48    1.97
  -1   6  -7   45.57    2.05
  -1   6  -7   38.92    2.39
   7  -2   7   28.23    1.61
   2  -7  -7   30.17    1.62
  -2   7  -7   30.18    1.62
   8  -3   7   11.06    2.04
   8  -3  -8    5.13    2.06
   8  -3  -8    3.10    2.11
   8  -3  -8    0.38    1.86
   7  -2  -8    3.24    1.66
  -7   2  -8    1.66    0.96
   7  -2  -8    5.94    1.80
   7  -2  -8    2.05    1.04
   6  -1  -8    3.44    1.35
  -6   1  -8    1.63    0.97
   6  -1  -8    1.48    1.31
  -6   1  -8    0.67    1.10
   6  -1  -8   -0.15    0.88
  -1   6   8    1.13    1.22
   5   0  -8    2.02    1.15
  -5   0  -8    1.78    0.82
   0   5   8    0.53    1.05
   0  -5   8    1.98    0.80
   5   0  -8    2.80    0.86
   5   0  -8    1.71    1.10
  -5   0  -8    2.14    0.91
  -4  -1  -8    0.84    0.71
   1   4   8    0.14    0.85
   4   1  -8    1.20    0.89
  -4  -1  -8    0.79    0.38
   4   1  -8    2.04    0.73
  -1  -4   8    0.73    0.69
  -2  -3   8    1.37    0.68
   3   2  -8    0.96    0.63
  -2  -3   8    0.90    0.65
  -2  -3  -8    0.56    0.65
  -3  -2   8    1.18    0.74
   1   4  -8    1.66    0.90
  -1  -4  -8    0.81    0.72
   1   4  -8    1.13    0.70
  -4  -1   8    1.94    0.71
  -4  -1   8    1.46    0.88
   0   5  -8    2.28    1.15
  -5   0   8    3.76    1.29
  -5   0   8    0.64    0.81
   0  -5  -8    2.02    0.88
   0   5  -8    2.12    0.87
  -1   6  -8    1.94    0.97
   1  -6  -8    1.91    0.95
  -1   6  -8    3.92    1.35
  -2   7  -8    4.13    1.06
   7  -2   8    4.04    1.00
   2  -7  -8    2.35    1.06
   8  -3   8    3.71    1.95
   8  -3  -9   11.13    2.21
   8  -3  -9    9.79    2.28
   8  -3  -9   10.61    2.07
   7  -2  -9   25.52    1.61
   7  -2  -9   27.80    2.33
   7  -2  -9   27.61    2.20
  -7   2  -9   27.20    1.57
   6  -1  -9   33.99    2.14
  -6   1  -9   37.81    1.78
  -1   6   9   38.58    2.19
   6  -1  -9   36.35    1.84
   5   0  -9  110.41    4.43
   5   0  -9  117.00    4.30
  -5   0  -9  122.17    4.24
  -5   0  -9  119.59    4.27
  -4  -1  -9  104.34    3.75
  -1  -4   9   95.75    3.70
   4   1  -9  102.59    3.78
  -2  -3   9  123.32    4.74
   3   2  -9  126.83    4.79
  -2  -3   9  116.04    4.70
  -3  -2   9  121.24    4.82
  -2  -3  -9  126.73    4.79
  -3  -2   9  118.33    4.75
  -1  -4  -9   99.71    3.91
  -4  -1   9   94.00    3.87
   1   4  -9   98.71    3.94
  -4  -1   9   99.01    3.99
   1   4  -9   98.14    4.06
  -5   0   9  127.14    4.87
  -5   0   9  113.39    4.77
   0   5  -9  118.87    4.65
   0  -5  -9  112.89    4.62
   0   5  -9  114.88    4.86
   1  -6  -9   33.83    1.79
  -1   6  -9   36.48    2.22
  -1   6  -9   33.99    1.81
  -2   7  -9   27.46    1.61
   2  -7  -9   25.12    1.57
   8  -3   9   10.91    2.11
   8  -3 -10    3.40    2.13
   8  -3 -10    3.30    2.26
   8  -3 -10    4.12    1.96
   7  -2 -10    4.20    1.76
   7  -2 -10    1.37    1.29
   7  -2 -10    3.11    1.84
  -7   2 -10    2.56    1.05
   6  -1 -10    0.82    1.40
   6  -1 -10    1.02    1.33
   6  -1 -10    0.63    1.01
  -6   1 -10    1.59    0.99
  -1   6  10    2.00    1.29
   0   5  10    0.48    1.09
   5   0 -10    0.92    1.14
   5   0 -10    2.81    0.96
   5   0 -10    1.99    1.18
  -5   0 -10    2.09    0.94
  -5   0 -10    1.05    0.88
   4   1 -10    1.95    0.80
   1   4  10   -0.24    0.84
  -1  -4  10    0.96    0.75
  -4  -1 -10    0.99    0.78
   3   2 -10   -0.05    0.72
  -2  -3  10    0.52    0.67
  -2  -3  10    0.06    0.67
  -3  -2  10    1.50    0.88
  -2  -3 -10    0.36    0.73
  -3  -2  10    0.78    0.78
  -1  -4 -10    0.55    0.77
   1   4 -10    0.31    0.84
   1   4 -10    0.99    0.78
  -4  -1  10    0.14    0.77
  -4  -1  10    0.96    0.94
   0   5 -10    1.47    1.11
   0  -5 -10    1.84    0.94
  -5   0  10    2.58    1.40
   0   5 -10    2.36    0.92
   1  -6 -10    1.27    1.00
  -1   6 -10    2.10    1.04
  -1   6 -10    1.72    1.34
   2  -7 -10    2.26    1.16
  -2   7 -10    3.76    1.15
   8  -3  10    2.05    1.94
   8  -3 -11    9.41    2.44
   8  -3 -11    7.29    2.03
  -7   2 -11   22.06    1.49
   7  -2 -11   19.32    2.16
   7  -2 -11   21.52    2.12
   7  -2 -11   18.28    1.52
   6  -1 -11   22.86    1.82
  -6   1 -11   26.52    1.56
   6  -1 -11   24.42    1.60
   6  -1 -11   23.89    1.94
  -1   6  11   26.04    1.87
  -5   0 -11   73.10    2.76
   5   0 -11   65.52    2.98
   5   0 -11   72.85    2.81
  -5   0 -11   75.72    2.69
   4   1 -11   81.90    2.91
  -4  -1 -11   74.74    2.80
  -2  -3  11   89.37    3.59
   3   2 -11   94.81    3.67
  -2  -3  11   82.56    3.51
  -3  -2  11   90.78    3.60
  -3  -2  11   80.41    3.45
   1   4 -11   81.75    3.21
  -1  -4 -11   69.72    3.10
  -4  -1  11   74.18    3.18
   1   4 -11   73.66    3.23
   0  -5 -11   67.45    2.94
   0   5 -11   67.91    3.16
   0   5 -11   69.97    2.99
   1  -6 -11   23.79    1.56
  -1   6 -11   25.35    1.61
  -1   6 -11   26.37    1.97
  -2   7 -11   25.31    1.77
   2  -7 -11   22.82    1.68
   8  -3  11    8.95    2.08
   8  -3 -12    2.14    1.94
  -7   2 -12    1.31    1.22
   7  -2 -12    1.88    1.84
   7  -2 -12    1.84    1.24
   7  -2 -12    3.62    1.83
   6  -1 -12    1.62    1.49
   6  -1 -12    1.22    1.12
  -6   1 -12    2.32    1.10
   6  -1 -12    0.65    1.40
  -1   6  12    1.13    1.26
   0   5  12    0.16    1.12
   5   0 -12    0.83    1.24
   5   0 -12    1.33    1.02
  -5   0 -12    1.43    0.97
   5   0 -12    0.28    1.35
  -5   0 -12    1.94    0.93
  -1  -4  12    1.56    0.81
   1   4  12   -0.13    0.86
   4   1 -12   -0.08    0.91
   3   2 -12    0.15    0.82
  -2  -3  12    0.73    0.77
  -3  -2  12    3.01    1.15
  -3  -2  12    0.75    0.88
   1   4 -12    0.43    0.91
   1   4 -12    0.14    0.89
  -4  -1  12    0.98    1.07
   0   5 -12    1.92    1.15
   0   5 -12    1.45    0.98
   0  -5 -12    1.49    1.01
  -1   6 -12    0.33    1.09
   1  -6 -12    1.08    1.08
  -1   6 -12    2.00    1.39
   2  -7 -12    1.91    1.21
  -2   7 -12    1.05    1.22
   8  -3  12    4.18    2.05
   8  -3 -13    4.35    1.99
  -7   2 -13   14.45    1.43
   7  -2 -13   15.01    2.11
   7  -2 -13   15.10    1.53
   7  -2 -13   16.28    2.09
   6  -1 -13   19.62    1.51
   6  -1 -13   19.91    1.87
  -1   6  13   18.66    1.65
  -6   1 -13   18.84    1.45
   0   5  13   12.79    2.29
  -5   0 -13   52.69    2.18
   5   0 -13   24.56    2.47
   5   0 -13   51.41    2.25
  -5   0 -13   53.88    2.02
   4   1 -13   53.04    2.12
  -1  -4  13   44.99    1.84
   3   2 -13   60.59    2.62
  -2  -3  13   60.93    2.67
  -3  -2  13   62.21    2.76
  -3  -2  13   54.93    2.53
  -4  -1  13   53.62    2.75
   1   4 -13   54.63    2.57
   1   4 -13   47.87    2.53
   0  -5 -13   46.97    2.31
   0   5 -13   48.25    2.37
   0   5 -13   50.34    2.51
  -1   6 -13   18.95    1.51
  -1   6 -13   21.13    1.76
   1  -6 -13   15.61    1.45
   2  -7 -13   15.79    1.48
  -2   7 -13   15.59    1.49
   8  -3  13    3.48    2.02
   7  -2 -14    6.52    1.95
   7  -2 -14    3.14    1.93
   7  -2 -14    2.27    1.37
  -7   2 -14    2.95    1.27
   6  -1 -14    0.65    1.54
  -6   1 -14    0.73    1.16
  -1   6  14    2.51    1.38
   6  -1 -14    0.66    1.20
   6  -1 -14    0.24    1.51
   0  -5  14    1.04    0.85
   5   0 -14   -0.86    1.43
  -5   0 -14    0.46    0.92
   0   5  14    0.15    1.08
   5   0 -14   -0.28    1.15
   1   4  14    0.21    0.89
   4   1 -14    0.86    1.15
   4   1 -14    0.22    1.01
  -1  -4  14    0.87    0.81
  -2  -3  14    1.19    1.13
   3   2 -14    0.50    0.94
  -2  -3  14   -0.07    0.84
  -3  -2  14    1.14    1.14
  -3  -2  14    0.45    0.91
   1   4 -14    0.84    0.95
  -4  -1  14   -0.03    1.31
  -4  -1  14   -0.65    1.19
   1   4 -14    0.25    1.05
   0   5 -14   -0.97    1.15
   0   5 -14    1.00    1.20
  -1   6 -14    0.86    1.20
   1  -6 -14    0.39    1.16
  -1   6 -14    1.23    1.36
  -2   7 -14    2.41    1.35
   7  -2  14    1.01    1.56
   7  -2 -15   11.00    2.03
   7  -2 -15   10.97    1.56
   7  -2 -15    9.28    1.75
  -7   2 -15   12.12    1.46
   7  -2 -15   12.39    2.13
   6  -1 -15   11.88    1.47
  -1   6  15   12.23    1.49
   6  -1 -15   11.53    1.78
   6  -1 -15   15.43    1.83
   1  -6  15    9.77    1.02
  -6   1 -15   13.86    1.38
   5   0 -15   30.24    1.80
  -5   0 -15   31.40    1.49
   0   5  15   27.11    1.69
   4   1 -15   46.00    2.06
   4   1 -15   47.24    2.14
  -3  -2 -15   59.28    2.38
   3   2 -15   67.60    2.84
  -2  -3  15   60.60    2.81
  -2  -3  15   60.64    2.62
  -3  -2  15   68.60    3.09
  -3  -2  15   64.90    2.88
   1   4 -15   42.23    2.23
   1   4 -15   40.42    2.14
   0   5 -15   29.72    1.89
   0   5 -15   29.21    1.86
  -1   6 -15   12.96    1.50
   1  -6 -15   11.34    1.44
  -1   6 -15   11.67    1.61
  -2   7 -15    9.28    1.55
   7  -2  15   10.08    1.77
  -7   2 -16    1.50    1.37
   7  -2 -16    2.62    1.49
   7  -2 -16    1.83    1.83
   7  -2 -16    0.74    1.55
   7  -2 -16    3.66    2.06
   1  -6  16    2.06    0.84
  -6   1 -16    1.57    1.29
   6  -1 -16    1.83    1.35
   6  -1 -16    3.11    1.69
  -1   6  16   -0.10    1.22
   5   0 -16   -0.89    1.57
   5   0 -16    0.03    1.27
  -5   0 -16   -0.36    0.90
   0   5  16    1.05    1.05
   0  -5  16    1.90    0.83
   1   4  16    0.15    0.91
   4   1 -16   -0.21    1.25
   4   1 -16   -1.31    1.17
  -1  -4  16    0.85    0.84
  -3  -2 -16    0.67    0.58
  -2  -3  16    1.91    1.20
   3   2 -16    0.36    1.09
  -2  -3  16    1.71    0.94
  -3  -2  16    2.68    1.30
  -3  -2  16    0.33    1.17
  -4  -1  16    1.43    1.36
   1   4 -16    1.31    1.17
   1   4 -16    0.56    0.99
  -5   0  16   -0.76    1.66
   0   5 -16    0.55    1.27
   0   5 -16    1.88    1.12
  -1   6 -16    1.52    1.34
  -1   6 -16    0.40    1.36
   1  -6 -16   -0.68    1.31
  -2   7 -16    1.49    1.44
   7  -2  16    1.99    1.58
  -7   2 -17    7.61    1.54
   7  -2 -17    9.42    1.63
   7  -2 -17    8.89    2.10
   7  -2 -17    5.56    2.13
   7  -2 -17    4.87    1.64
   6  -1 -17   10.25    1.60
   6  -1 -17    9.49    1.87
  -6   1 -17   11.63    1.50
  -1   6  17    9.37    1.37
   5   0 -17   22.54    1.75
   0  -5  17   17.20    1.21
  -5   0 -17   22.94    1.28
   5   0 -17   25.06    1.90
   0   5  17   18.42    1.50
   4   1 -17   34.37    2.01
  -1  -4  17   29.11    1.61
   4   1 -17   37.15    2.10
   1   4  17   32.23    1.77
  -3  -2 -17   51.31    2.07
   3   2 -17   56.65    2.60
  -2  -3  17   48.57    2.47
  -2  -3  17   50.53    2.32
  -3  -2  17   53.00    2.99
  -3  -2  17   86.57    3.50
  -4  -1  17   30.22    2.03
   1   4 -17   33.60    2.00
   1   4 -17   31.30    1.82
  -5   0  17   25.74    2.18
   0   5 -17   23.57    1.79
   0   5 -17   21.44    1.65
  -1   6 -17   11.29    1.56
   1  -6 -17   10.93    1.52
  -1   6 -17    9.59    1.50
  -2   7 -17    6.45    1.59
   7  -2  17    7.04    1.67
   7  -2 -18    2.53    1.60
  -7   2 -18    2.12    1.55
   7  -2 -18   -0.17    1.54
   6  -1 -18    1.61    1.51
  -1   6  18    0.99    1.20
   6  -1 -18    2.19    1.79
  -6   1 -18    2.56    1.40
   5   0 -18    3.20    1.55
   5   0 -18    2.07    1.36
   0  -5  18    2.00    0.84
  -5   0 -18    0.40    0.86
   0   5  18   -0.55    1.07
   1   4  18    1.29    0.92
   4   1 -18    1.78    1.37
  -1  -4  18    1.14    1.31
   4   1 -18   -0.72    1.22
  -1  -4  18    0.17    0.88
   2   3  18    1.57    0.85
  -3  -2 -18    0.21    0.66
  -2  -3  18    1.63    1.31
   3   2 -18    2.68    1.26
  -2  -3  18    0.79    0.97
   2   3 -18    1.36    0.90
  -2  -3 -18    1.41    0.91
  -3  -2  18    0.15    1.34
   1   4 -18   -0.03    0.94
  -4  -1  18    0.55    1.18
   1   4 -18    0.68    1.26
   0   5 -18    2.32    1.42
   0   5 -18    0.85    1.14
   1  -6 -18    1.97    1.40
  -1   6 -18    0.73    1.51
  -1   6 -18    1.28    1.30
  -2   7 -18    0.23    1.59
   7  -2  18    2.17    1.64
   7  -2 -19    5.59    1.75
   7  -2 -19    4.52    1.67
   6  -1 -19    7.55    1.97
  -1   6  19    7.43    1.35
   6  -1 -19    6.72    1.71
   5   0 -19   14.99    1.84
   0  -5  19   12.11    1.08
  -5   0 -19   14.96    1.07
   0   5  19   13.41    1.32
   5   0 -19   14.77    1.71
   4   1 -19   18.72    1.65
  -1  -4  19   16.50    1.64
  -1  -4  19   13.67    1.19
   4   1 -19   17.45    1.74
   1   4  19   16.66    1.24
  -3  -2 -19   17.31    1.07
  -2  -3  19   19.78    1.78
   3   2 -19   18.88    1.67
   2   3  19   16.49    1.18
  -2  -3 -19   18.83    1.27
  -3  -2  19   20.04    1.75
   2   3 -19   16.71    1.23
  -4  -1  19   12.52    1.49
   1   4 -19   15.07    1.61
   1   4 -19   16.69    1.29
   0   5 -19   15.89    1.72
   0   5 -19   13.65    1.42
  -1   6 -19    6.45    1.70
  -1   6 -19    5.67    1.37
  -2   7 -19    5.92    1.74
   7  -2  19    3.68    1.72
   7  -2 -20    1.52    1.65
   6  -1 -20    1.17    1.91
   6  -1 -20    3.14    2.04
   6  -1 -20    2.13    1.70
   5   0 -20    2.68    1.63
   0  -5  20    1.27    0.86
   5   0 -20   -0.07    1.49
  -5   0 -20    1.78    0.80
   0   5  20    1.70    1.09
   4   1 -20    2.05    1.52
  -1  -4  20    2.61    1.32
  -1  -4  20    0.53    1.26
   4   1 -20    0.07    1.35
   1   4  20    0.54    0.93
   2   3  20    1.51    0.78
  -2  -3  20    0.98    1.43
  -3  -2 -20    0.82    0.69
   3   2 -20    0.10    1.29
   2   3 -20    0.88    0.85
  -2  -3 -20   -0.22    0.72
  -3  -2  20    1.15    1.45
  -1  -4 -20   -0.75    1.14
  -4  -1  20    1.52    1.58
   1   4 -20   -0.42    1.40
   1   4 -20    0.22    0.96
   0   5 -20    0.88    1.51
   0   5 -20    0.85    1.12
  -1   6 -20    1.69    1.70
  -1   6 -20    0.33    1.30
   6  -1  20    2.22    1.30
  -2   7 -20    3.29    1.78
   7  -2  20    1.22    1.72
   6  -1 -21    5.79    2.06
   6  -1 -21    9.58    2.22
   6  -1 -21    3.77    1.32
   6  -1 -21    5.42    1.78
   5   0 -21   10.82    1.84
   5   0 -21    8.18    1.70
  -5   0 -21    7.41    0.85
   0   5  21    7.29    1.12
  -1  -4  21    6.34    1.44
   4   1 -21    7.04    1.56
   1   4  21    7.16    0.99
   2   3  21    8.07    0.92
  -2  -3  21   11.01    1.60
   3   2 -21    9.86    1.53
  -2  -3 -21   10.41    1.16
  -3  -2  21   11.70    1.71
   2   3 -21    9.09    1.03
  -1  -4 -21    8.57    1.32
   1   4 -21    8.30    1.64
   1   4 -21    6.57    1.06
   0  -5 -21   10.33    1.59
   0   5 -21   10.04    1.77
   0   5 -21    8.24    1.23
   1  -6 -21    5.48    1.79
   6  -1  21    4.87    1.31
  -1   6 -21    7.78    1.87
  -2   7 -21    4.55    1.88
   7  -2  21    3.59    1.77
   6  -1 -22    0.96    2.07
   6  -1 -22    3.78    2.24
   6  -1 -22    1.52    1.27
   6  -1 -22   -0.07    1.80
   5   0 -22    0.68    1.68
   0  -5  22    3.77    1.61
  -5   0 -22    0.97    0.63
   5   0 -22    0.38    1.64
   0   5  22    0.52    0.97
   4   1 -22    1.84    1.63
  -1  -4  22    2.48    1.42
   4   1 -22    0.38    1.51
   1   4  22    0.11    0.86
   2   3  22   -0.14    0.79
  -2  -3  22    1.13    1.53
   3   2 -22    0.85    1.44
   2   3 -22    1.01    0.86
  -3  -2  22    0.21    1.62
  -2  -3 -22    0.96    1.03
  -1  -4 -22   -0.59    1.24
   1   4 -22    1.25    1.58
   1   4 -22   -0.72    0.95
   0  -5 -22    2.64    1.52
   0   5 -22    2.20    1.68
   0   5 -22    1.40    1.08
   1  -6 -22   -0.04    1.81
   6  -1  22    1.58    1.31
  -1   6 -22    0.89    1.92
  -2   7 -22    2.36    1.94
   7  -2  22    1.61    1.70
   6  -1 -23    5.19    1.91
   5   0 -23    7.50    1.88
   5   0 -23    9.05    1.86
   4   1 -23    8.58    1.84
  -1  -4  23    9.36    1.72
   4   1 -23    7.15    1.70
   1   4  23    5.92    0.94
  -2  -3  23    7.81    1.66
   3   2 -23    9.52    1.65
   2   3  23    6.97    0.84
   2   3 -23    7.56    0.94
  -2  -3 -23    6.12    1.19
  -1  -4 -23    6.28    1.21
   1   4 -23    8.35    1.75
   1   4 -23    5.81    1.01
   5   0  23    5.38    1.10
   0  -5 -23    7.10    1.63
   0   5 -23    4.55    1.83
   1  -6 -23    4.74    1.91
   6  -1  23    6.07    1.42
  -1   6 -23    4.58    1.99
  -2   7 -23    3.75    2.01
   7  -2  23    4.38    1.76
   6  -1 -24    1.04    1.95
   5   0 -24    1.46    1.91
   5   0 -24    1.45    1.80
   4   1 -24    0.50    1.83
   4   1 -24    1.15    1.65
   1   4  24    0.56    0.73
   3   2 -24    0.32    1.61
   2   3  24    0.74    0.65
  -2  -3 -24   -0.02    1.14
   3   2  24    1.79    0.69
  -1  -4 -24    1.83    1.33
   1   4 -24   -0.69    1.71
   0  -5 -24    3.81    1.59
   0   5 -24    2.45    1.84
   5   0  24    0.88    0.98
   1  -6 -24    2.96    1.90
   6  -1  24    1.39    1.38
  -1   6 -24    2.61    1.98
  -2   7 -24    2.57    2.10
   6  -1 -25    5.11    2.09
   5   0 -25    3.69    1.99
   5   0 -25    6.59    1.93
   4   1 -25    4.97    1.91
   4   1 -25    4.06    1.77
   3   2 -25    7.08    1.77
   2   3  25    4.34    0.63
   3   2  25    4.06    0.67
  -2  -3 -25    6.33    1.32
  -1  -4 -25    6.90    1.49
   4   1  25    3.59    0.78
   1   4 -25    5.29    1.84
   0  -5 -25    2.10    1.42
   0   5 -25    3.06    1.95
   5   0  25    3.65    1.05
   1  -6 -25    3.76    1.75
  -1   6 -25    3.38    2.10
   5   0 -26    3.74    2.07
   5   0 -26    2.31    1.95
   4   1 -26    2.79    1.98
   4   1 -26    2.45    1.85
   3   2 -26    0.89    1.72
  -2  -3 -26    2.17    1.32
  -1  -4 -26    0.57    1.46
   1   4 -26   -0.85    1.83
   4   1  26    1.17    0.72
   0  -5 -26    1.64    1.71
   0   5 -26    3.12    2.02
  -1   6 -26    0.34    2.15
   5   0 -27    6.52    2.20
   4   1 -27    4.62    2.05
   4   1 -27    4.74    1.96
   3   2 -27    4.32    1.88
  -2  -3 -27    5.55    1.28
  -1  -4 -27    2.95    1.54
   1   4 -27    3.78    1.98
   0  -5 -27    5.61    1.88
   4   1 -28    1.44    1.98
  -2  -3 -28    2.97    1.35
  -1  -4 -28    0.21    1.59
   0  -5 -28    2.55    1.83
   4   1 -29    2.03    2.05
  -2  -3 -29    5.31    1.55
  -1  -4 -29    3.07    1.69
   0  -5 -29    1.13    1.90
   4   1 -30    1.35    2.10
  -1  -4 -30    2.27    1.91
   0  -5 -30    1.97    1.95
   4   1 -31    4.47    2.24
   3   3   0  175.85    6.64
  -3  -3   0  172.15    6.61
   4   2   0  144.07    5.07
  -4  -2   0  135.83    5.02
  -2  -4   0  135.88    5.03
   1   5   0  155.67    5.56
  -5  -1   0  144.67    5.52
  -1  -5   0  146.98    5.52
  -5  -1   0  165.26    5.65
   5   1   0  152.61    5.55
   1   5   0  159.93    5.85
  -6   0   0  124.56    4.78
   6   0   0  119.18    4.78
   0  -6   0  118.11    4.78
  -6   0   0  135.49    4.98
   0   6   0  114.93    5.18
  -7   1   0   35.38    1.88
   1  -7   0   35.72    1.92
   7  -1   0   42.79    2.15
  -1   7   0   42.30    2.55
   8  -2   0   15.15    1.69
   8  -2  -1    5.55    1.69
  -8   2  -1    2.76    1.04
   8  -2  -1    5.26    1.57
   1  -7   1    0.33    1.10
  -7   1  -1   -1.44    1.03
  -6   0  -1    2.41    0.92
   0  -6   1    7.89    1.08
  -6   0  -1    7.39    1.34
   6   0  -1    1.14    0.93
   1   5   1    4.05    1.16
  -1  -5   1    1.23    0.80
   1   5   1   -0.64    0.84
  -5  -1  -1    0.52    1.00
   5   1  -1   -0.60    0.80
  -5  -1  -1    0.11    0.80
  -5  -1  -1    5.93    1.08
   4   2  -1   -1.02    0.72
  -4  -2  -1    1.28    0.93
  -2  -4   1    0.17    0.74
  -4  -2  -1   -0.33    0.74
   3   3  -1   -0.26    0.69
  -3  -3   1   -0.25    0.73
  -3  -3  -1   -0.47    0.75
   3   3   1   -0.62    0.71
   4   2   1   -1.20    0.71
  -4  -2   1   -0.55    0.75
  -2  -4  -1   -0.73    0.77
   5   1   1   -1.14    0.80
   1   5  -1    5.58    1.17
  -5  -1   1    2.03    0.79
  -5  -1   1    0.56    1.09
  -1  -5  -1    1.88    0.83
   1   5  -1   -0.35    0.86
  -5  -1   1    6.15    1.09
   0   6  -1    5.44    1.45
   0   6  -1    4.84    1.02
  -6   0   1    6.30    1.32
  -6   0   1    2.01    0.97
  -1   7  -1    4.09    1.64
   7  -1   1    6.82    1.33
   8  -2   1    5.45    1.50
   9  -3  -2    7.40    2.13
   9  -3  -2    7.95    1.99
  -8   2  -2   12.73    1.17
   8  -2  -2   15.91    1.79
   8  -2  -2   18.68    1.97
   1  -7   2   32.75    1.88
  -7   1  -2   36.79    1.89
   7  -1  -2   40.13    2.15
   7  -1  -2   43.48    2.30
   0  -6   2   89.34    3.75
  -6   0  -2   91.80    3.74
  -6   0  -2  101.71    3.95
   6   0  -2   92.43    3.78
  -1  -5   2  121.31    4.36
   5   1  -2  123.50    4.39
  -5  -1  -2  130.86    4.45
  -5  -1  -2  120.08    4.35
   4   2  -2  147.68    5.79
  -2  -4   2  138.61    5.74
  -4  -2  -2  145.33    5.75
   3   3   2  180.00    6.77
   3   3  -2  181.03    6.80
  -3  -3  -2  180.01    6.76
  -3  -3   2  171.35    6.76
   4   2   2  143.16    5.53
  -4  -2   2  153.09    5.56
  -4  -2   2  136.04    5.50
  -2  -4  -2  142.56    5.53
  -5  -1   2  121.47    4.56
   5   1   2  123.22    4.56
   1   5  -2  123.65    4.59
  -5  -1   2  134.03    4.70
  -1  -5  -2  120.31    4.57
   1   5  -2  127.96    4.88
  -6   0   2   91.41    3.78
  -6   0   2  100.55    4.01
   0  -6  -2   89.80    3.79
   0   6  -2   98.24    4.24
   0   6  -2   96.82    3.83
  -7   1   2   32.76    1.84
   1  -7  -2   34.98    1.91
   7  -1   2   44.47    2.09
  -1   7  -2   41.74    2.56
   8  -2   2   15.23    1.63
   9  -3  -3    5.89    2.16
   9  -3  -3    3.45    1.93
   8  -2  -3    2.94    1.74
  -8   2  -3    2.94    1.01
   8  -2  -3    3.20    1.63
   7  -1  -3    4.11    1.46
   7  -1  -3    1.73    1.03
   1  -7   3   -0.24    1.07
   7  -1  -3    5.03    1.37
   6   0  -3   -0.26    0.92
  -6   0  -3    0.72    0.88
   0  -6   3    1.32    0.93
  -5  -1  -3    0.91    0.85
  -5  -1  -3    3.67    1.02
   5   1  -3   -1.04    0.83
  -5  -1  -3   -0.17    0.81
  -1  -5   3    2.45    0.86
  -4  -2  -3   -1.08    0.77
   4   2  -3    0.34    0.75
  -3  -3   3    2.13    0.73
  -3  -3  -3   -0.87    0.77
   3   3  -3    2.13    0.74
   3   3   3   -0.75    0.67
  -4  -2   3    2.30    0.78
  -4  -2   3    3.54    0.90
  -2  -4  -3   -0.02    0.78
  -4  -2   3    4.97    0.93
   4   2   3   -0.55    0.69
   1   5  -3    1.91    1.08
  -5  -1   3    0.07    1.12
   1   5  -3   -0.62    0.85
  -1  -5  -3   -0.52    0.86
  -5  -1   3    1.17    0.81
   0   6  -3    3.34    1.33
   0   6  -3    2.32    1.01
  -6   0   3   -0.23    0.90
   0  -6  -3    3.79    1.00
  -6   0   3    3.80    1.28
   1  -7  -3    2.36    1.07
  -7   1   3    0.25    1.01
  -1   7  -3    3.26    1.61
   8  -2   3    4.72    1.44
   9  -3  -4    9.33    2.26
   9  -3  -4    7.42    2.04
   8  -2  -4   17.51    2.12
  -8   2  -4   13.46    1.20
   8  -2  -4   15.92    1.85
   1  -7   4   27.95    1.75
   7  -1  -4   33.20    2.07
  -7   1  -4   32.64    1.73
  -1   7   4   36.07    2.40
   7  -1  -4   36.17    2.21
   7  -1  -4   36.82    1.79
   6   0  -4   68.21    3.02
   0  -6   4   60.19    2.75
   6   0  -4   62.23    2.79
  -6   0  -4   70.66    2.94
  -6   0  -4   65.82    2.77
   5   1  -4  124.59    4.17
  -1  -5   4  109.16    4.07
  -5  -1  -4  120.83    4.17
  -5  -1  -4  112.76    4.07
   4   2  -4  147.26    5.70
  -4  -2  -4  153.92    5.68
  -2  -4   4  140.51    5.64
   3   3  -4  134.71    5.33
  -3  -3  -4  141.82    5.33
  -3  -3   4  135.17    5.31
  -4  -2   4  136.69    5.57
  -4  -2   4  145.67    5.63
  -4  -2   4  135.46    5.61
  -1  -5  -4  112.32    4.09
   1   5  -4  117.06    4.14
  -5  -1   4  108.81    4.07
   1   5  -4  112.11    4.38
  -6   0   4   64.34    2.80
   0   6  -4   65.29    2.84
  -6   0   4   74.29    3.14
   0  -6  -4   62.20    2.83
   0   6  -4   68.37    3.26
  -1   7  -4   33.27    1.76
  -7   1   4   29.47    1.70
   1  -7  -4   34.69    1.77
  -1   7  -4   36.30    2.39
   8  -2   4   17.92    1.68
   9  -3  -5    3.19    2.02
   8  -2  -5    3.63    1.97
   8  -2  -5    3.04    1.67
  -8   2  -5    1.28    1.05
   7  -1  -5    5.92    1.65
  -7   1  -5    1.11    1.01
   1  -7   5   -0.26    1.00
   7  -1  -5    4.64    1.43
   7  -1  -5    2.18    1.07
  -1   7   5    3.79    1.62
   0   6   5    3.93    1.33
   6   0  -5    2.57    1.21
   0  -6   5    1.39    0.95
   6   0  -5    0.36    0.94
  -6   0  -5    0.08    0.92
  -6   0  -5    1.71    1.14
  -5  -1  -5    2.45    1.01
   1   5   5    2.37    1.05
   5   1  -5    1.53    0.88
  -5  -1  -5    0.98    0.83
  -5  -1  -5    1.25    0.48
  -1  -5   5    0.96    0.83
  -4  -2  -5    1.23    0.75
  -2  -4   5    0.80    0.75
   4   2  -5    1.14    0.75
  -3  -3   5    1.90    0.81
  -3  -3  -5    1.48    0.75
  -3  -3   5    1.18    0.72
   3   3  -5    0.75    0.70
  -4  -2   5    2.55    0.90
  -4  -2   5    2.56    0.90
  -2  -4  -5    2.05    0.81
  -4  -2   5    1.08    0.75
   1   5  -5    2.47    1.10
   1   5  -5    1.20    0.88
  -1  -5  -5    2.82    1.01
  -5  -1   5    4.18    1.22
  -5  -1   5    0.42    0.82
   0   6  -5    5.35    1.41
  -6   0   5    4.03    1.37
  -6   0   5    0.61    0.87
  -6   0   5    2.93    1.78
   0   6  -5    1.80    0.99
   0  -6  -5    0.91    0.95
   1  -7  -5    3.21    1.09
  -1   7  -5    3.31    1.08
  -1   7  -5    2.11    1.66
   9  -3  -6    7.12    2.13
   8  -2  -6   12.99    2.14
  -8   2  -6   13.35    1.25
   8  -2  -6   14.11    1.90
   7  -1  -6   25.97    1.99
   7  -1  -6   29.06    1.67
  -7   1  -6   27.07    1.59
   7  -1  -6   30.62    2.23
  -1   7   6   29.38    2.22
  -6   0  -6   49.23    2.29
   0  -6   6   45.32    2.27
   6   0  -6   52.76    2.60
  -6   0  -6   53.17    2.45
   0   6   6   50.57    2.70
   6   0  -6   49.67    2.58
  -5  -1  -6  110.12    4.36
  -5  -1  -6  122.27    4.54
  -1  -5   6  109.14    4.50
  -5  -1  -6  118.39    4.56
   1   5   6  116.49    4.79
   5   1  -6  115.38    4.56
  -2  -4   6  156.40    6.28
  -4  -2  -6  167.84    6.30
   4   2  -6  170.27    6.36
  -3  -3   6  125.51    4.99
  -3  -3  -6  130.74    5.00
  -3  -3   6  119.46    4.98
   3   3  -6  139.10    5.06
  -4  -2   6  150.43    6.14
  -4  -2   6  171.82    6.27
  -2  -4  -6  166.02    6.18
  -4  -2   6  157.04    6.20
   1   5  -6  115.82    4.61
  -5  -1   6  128.39    4.78
  -5  -1   6  107.51    4.55
  -1  -5  -6  115.27    4.57
   1   5  -6  117.64    4.87
   0  -6  -6   52.62    2.40
  -6   0   6   54.56    2.71
  -6   0   6   48.43    2.34
   0   6  -6   49.71    2.41
   0   6  -6   50.58    2.80
  -1   7  -6   28.26    1.68
   1  -7  -6   28.68    1.66
  -1   7  -6   28.11    2.24
   8  -2  -7    3.46    1.98
   8  -2  -7    4.08    1.79
  -8   2  -7    2.20    1.17
   7  -1  -7    4.15    1.70
   7  -1  -7    4.42    1.54
  -7   1  -7    1.04    1.03
   7  -1  -7    3.06    1.11
  -1   7   7    1.52    1.56
   0   6   7    1.03    1.25
   6   0  -7    1.89    1.36
   6   0  -7    0.88    0.99
  -6   0  -7    1.30    0.94
   0  -6   7    1.30    0.95
   6   0  -7    4.58    1.41
  -6   0  -7    1.94    1.18
  -5  -1  -7    2.10    1.04
   1   5   7    0.88    1.11
  -5  -1  -7    1.75    0.67
  -1  -5   7    2.82    0.86
  -5  -1  -7    1.12    0.87
   5   1  -7    1.09    0.88
  -4  -2  -7    1.39    0.80
   4   2  -7    1.61    0.80
  -2  -4   7    1.09    0.80
  -3  -3   7    1.35    0.86
  -3  -3  -7    2.14    0.77
   3   3  -7    0.83    0.74
  -3  -3   7    0.94    0.72
  -2  -4  -7    2.21    0.85
  -4  -2   7    3.17    1.14
  -4  -2   7    0.96    0.75
  -4  -2   7    2.64    0.99
   1   5  -7    1.58    1.13
  -5  -1   7    2.10    1.25
  -5  -1   7    1.30    0.80
  -5  -1   7    0.88    1.14
  -1  -5  -7    2.51    0.91
   1   5  -7    1.89    0.93
   0   6  -7    4.08    1.38
  -6   0   7    3.60    1.48
   0   6  -7    4.55    1.11
   0  -6  -7    2.88    1.08
  -6   0   7    2.32    0.93
  -1   7  -7    4.21    1.17
   1  -7  -7    3.64    1.16
  -1   7  -7    1.62    1.65
   8  -2  -8   17.97    2.21
  -8   2  -8   13.34    1.30
   8  -2  -8   12.76    2.02
   7  -1  -8   33.88    1.92
   7  -1  -8   30.42    2.21
   7  -1  -8   37.59    2.40
  -7   1  -8   33.49    1.84
  -1   7   8   35.62    2.44
  -6   0  -8   47.99    2.14
   0  -6   8   38.83    2.03
   6   0  -8   44.60    2.44
   0   6   8   45.87    2.45
  -6   0  -8   47.76    2.18
   6   0  -8   42.25    2.13
  -5  -1  -8   97.07    3.57
  -5  -1  -8   97.05    3.62
   5   1  -8   95.87    3.62
  -2  -4   8  122.52    5.08
  -4  -2  -8  136.12    5.13
   4   2  -8  134.93    5.17
  -3  -3   8   80.78    3.33
   3   3  -8   84.68    3.40
  -3  -3   8   75.96    3.33
  -3  -3  -8   83.63    3.37
  -4  -2   8  123.19    5.01
  -4  -2   8  127.02    5.08
  -2  -4  -8  136.48    5.07
  -5  -1   8  100.39    3.99
  -5  -1   8   88.32    3.73
  -1  -5  -8   92.73    3.77
  -5  -1   8   91.28    3.89
   1   5  -8   90.62    3.81
   1   5  -8   92.70    4.05
   0   6  -8   45.82    2.23
  -6   0   8   49.66    2.57
  -6   0   8   42.61    2.14
   0  -6  -8   47.56    2.20
   0   6  -8   42.69    2.54
  -1   7  -8   34.53    1.89
   1  -7  -8   32.47    1.86
  -2   8  -8   13.16    1.39
   8  -2  -9    2.82    2.04
  -8   2  -9    3.52    1.18
   8  -2  -9    4.03    1.88
   7  -1  -9    3.33    1.69
   7  -1  -9    4.94    1.29
   7  -1  -9    3.63    1.57
  -7   1  -9    2.34    1.12
  -1   7   9    3.26    1.64
   0   6   9    0.51    1.27
   6   0  -9    1.88    1.46
   0  -6   9    1.95    1.02
   6   0  -9    2.74    1.45
  -6   0  -9    2.51    1.04
   6   0  -9    0.39    1.02
  -6   0  -9    2.33    1.13
  -5  -1  -9    1.91    1.09
   1   5   9   -0.44    1.05
   5   1  -9    1.45    1.21
  -5  -1  -9    1.68    0.94
  -1  -5   9    2.69    0.91
   5   1  -9    1.53    0.95
   4   2  -9    1.57    0.88
  -2  -4   9    0.67    0.76
  -4  -2  -9    2.17    0.88
  -3  -3  -9    0.43    0.78
  -3  -3   9    0.30    0.80
   3   3  -9    0.80    0.80
  -3  -3   9    0.97    0.77
  -4  -2   9    0.94    0.82
  -2  -4  -9    0.96    0.83
  -4  -2   9    0.75    0.95
   1   5  -9    0.97    1.16
  -1  -5  -9    1.48    0.95
  -5  -1   9    1.16    1.33
  -5  -1   9    1.99    0.88
   1   5  -9    2.78    0.98
  -5  -1   9    1.62    1.16
   0   6  -9    2.51    1.34
  -6   0   9    3.14    1.53
   0  -6  -9    2.40    1.07
   0   6  -9    1.19    1.06
   1  -7  -9    5.32    1.23
  -1   7  -9    5.43    1.26
  -2   8  -9    3.44    1.28
   8  -2 -10   13.61    2.23
   8  -2 -10   13.15    2.07
  -7   1 -10   27.53    1.74
   7  -1 -10   29.03    1.83
   7  -1 -10   28.92    2.19
   7  -1 -10   30.18    2.29
   6   0 -10   49.38    2.60
  -6   0 -10   46.71    2.22
  -6   0 -10   46.95    2.23
   6   0 -10   47.82    2.31
   0   6  10   47.07    2.55
  -1  -5  10   77.85    3.32
   5   1 -10   90.82    3.45
  -5  -1 -10   96.60    3.42
  -5  -1 -10   99.68    3.45
   5   1 -10   68.59    3.58
  -4  -2 -10   89.57    3.45
  -2  -4  10   81.04    3.40
   4   2 -10   89.53    3.52
  -3  -3 -10   27.78    1.55
  -3  -3  10   26.32    1.50
  -3  -3  10   29.30    1.74
   3   3 -10   28.57    1.59
  -3  -3  10   25.99    1.53
  -2  -4 -10   90.65    3.55
  -4  -2  10   80.12    3.47
  -4  -2  10   84.29    3.55
  -5  -1  10   93.85    3.91
  -5  -1  10   83.21    3.61
  -5  -1  10   87.57    3.77
   1   5 -10   90.89    3.72
  -1  -5 -10   91.73    3.70
   1   5 -10   85.28    3.86
  -6   0  10   51.12    2.65
   0   6 -10   46.17    2.60
   0   6 -10   43.56    2.30
   0  -6 -10   45.07    2.25
   1  -7 -10   28.99    1.89
  -1   7 -10   33.74    2.04
  -2   8 -10   10.81    1.41
   8  -2 -11    5.62    2.13
   8  -2 -11    0.51    1.92
   7  -1 -11    1.80    1.76
  -7   1 -11    4.32    1.41
   7  -1 -11    4.15    1.69
   7  -1 -11    3.17    1.29
  -6   0 -11    1.78    1.08
   6   0 -11    1.51    1.53
   6   0 -11    1.20    1.12
   6   0 -11    3.38    1.54
  -6   0 -11    2.35    1.11
   0   6  11    1.68    1.35
   1   5  11    0.37    1.15
  -5  -1 -11    3.01    1.19
  -1  -5  11    3.05    1.00
   5   1 -11    3.42    1.06
  -5  -1 -11    2.70    1.05
  -2  -4  11    0.89    0.92
   4   2 -11    2.35    0.97
  -2  -4  11    0.37    0.85
  -4  -2 -11    0.95    0.91
  -3  -3 -11   -0.84    0.84
   3   3 -11    0.56    0.87
  -3  -3  11    0.55    0.78
  -3  -3  11    0.94    1.13
  -3  -3  11    0.50    0.88
  -4  -2  11    1.31    0.86
  -2  -4 -11    0.46    0.92
  -4  -2  11    1.05    1.01
  -1  -5 -11    2.74    1.03
   1   5 -11    1.05    1.16
  -5  -1  11    1.48    1.41
   1   5 -11    2.69    1.08
  -5  -1  11   -0.30    1.24
   0   6 -11    1.33    1.41
   0  -6 -11    1.65    1.11
  -6   0  11    1.97    1.66
   0   6 -11    2.92    1.19
  -1   7 -11    3.03    1.33
   1  -7 -11    4.85    1.29
  -2   8 -11    3.07    1.33
   8  -2 -12   10.13    2.28
   8  -2 -12    8.78    2.13
  -7   1 -12   19.54    1.60
   7  -1 -12   18.08    2.07
   7  -1 -12   20.34    2.12
   7  -1 -12   20.85    1.69
  -6   0 -12   28.91    1.72
  -6   0 -12   31.64    1.78
   6   0 -12   27.55    1.85
   6   0 -12   31.41    2.15
   0   6  12   27.37    2.03
  -5  -1 -12   70.54    2.74
   5   1 -12   69.16    2.78
  -5  -1 -12   68.20    2.67
  -2  -4  12   72.64    3.12
  -4  -2 -12   80.57    3.19
   4   2 -12   76.73    3.19
  -3  -3  12   31.38    1.68
  -3  -3 -12   31.59    1.76
  -3  -3  12   30.66    1.87
   3   3 -12   34.39    1.81
  -3  -3  12   29.87    1.70
  -4  -2  12   70.83    3.13
  -2  -4 -12   77.72    3.21
  -4  -2  12   71.40    3.18
  -1  -5 -12   61.97    2.93
   1   5 -12   64.55    2.99
   1   5 -12   63.12    3.10
  -6   0  12   29.45    2.23
   0  -6 -12   27.00    1.78
   0   6 -12   26.80    1.80
   0   6 -12   32.87    2.11
   1  -7 -12   16.51    1.57
  -1   7 -12   17.60    1.61
  -2   8 -12    6.88    1.44
   8  -2 -13    4.60    2.13
   7  -1 -13    4.27    1.89
   7  -1 -13    1.96    1.79
  -7   1 -13    1.76    1.27
   7  -1 -13    1.93    1.38
   6   0 -13    1.34    1.57
   6   0 -13    0.57    1.25
  -6   0 -13    2.56    1.08
  -6   0 -13    0.38    1.17
   0   6  13   -0.57    1.32
   1   5  13    0.07    1.20
  -1  -5  13    1.75    0.97
  -5  -1 -13    1.55    1.09
   5   1 -13    2.65    1.14
  -5  -1 -13    1.02    1.08
  -2  -4  13    0.83    0.92
   4   2 -13    1.27    1.07
  -4  -2 -13    0.73    1.04
   3   3 -13   -0.48    1.05
  -3  -3 -13    1.05    0.94
  -3  -3  13    0.58    1.15
  -3  -3  13    0.13    0.92
  -4  -2  13    1.28    1.32
  -4  -2  13    1.27    1.11
  -2  -4 -13    1.80    1.02
   1   5 -13    2.11    1.20
   1   5 -13    1.21    1.14
  -5  -1  13    3.57    3.39
  -1  -5 -13    1.38    1.09
  -6   0  13    1.03    1.73
   0   6 -13    1.42    1.23
   0  -6 -13    2.10    1.24
   0   6 -13    3.51    1.45
   1  -7 -13    3.07    1.34
  -1   7 -13    3.71    1.42
  -2   8 -13    3.32    1.45
   8  -2  13    1.27    1.86
   8  -2 -14    3.68    1.85
   7  -1 -14   12.41    2.04
   7  -1 -14   12.84    2.07
   7  -1 -14   12.51    1.61
  -7   1 -14   12.28    1.52
   6   0 -14   16.43    1.59
  -6   0 -14   17.51    1.36
   6   0 -14   17.98    1.93
   0   6  14   13.69    1.60
  -6   0 -14   17.75    1.54
  -5  -1 -14   33.54    1.94
   5   1 -14   32.56    1.97
  -1  -5  14   28.54    1.69
  -5  -1 -14   36.60    1.84
   1   5  14   34.83    2.03
   4   2 -14   58.02    2.21
  -4  -2 -14   54.87    2.05
  -3  -3  14   33.68    1.97
   3   3 -14   32.91    1.95
  -3  -3  14   31.17    1.76
  -4  -2  14   57.42    2.73
   2   4 -14   52.72    2.63
  -2  -4 -14   53.89    2.53
  -4  -2  14   48.63    2.50
  -1  -5 -14   36.97    2.01
   1   5 -14   33.58    2.02
  -5  -1  14   33.30    2.15
   1   5 -14   33.89    2.09
  -6   0  14   21.19    2.12
   0   6 -14   17.70    1.64
   0   6 -14   17.05    1.72
   0  -6 -14   16.97    1.56
   1  -7 -14   15.50    1.58
  -1   7 -14   11.16    1.61
  -2   8 -14    5.71    1.57
   8  -2  14    7.11    1.99
   8  -2 -15    0.77    1.80
   7  -1 -15    2.05    1.94
   7  -1 -15    2.67    1.49
   7  -1 -15    5.35    2.02
  -7   1 -15    3.26    1.40
   0  -6  15    0.94    1.02
  -6   0 -15    2.34    1.30
   6   0 -15   -0.40    1.31
  -6   0 -15    1.77    1.06
   0   6  15    0.14    1.29
  -1  -5  15    1.68    0.92
   1   5  15    2.90    1.20
   5   1 -15    0.55    1.27
   5   1 -15    1.45    1.48
  -5  -1 -15    2.93    1.13
  -5  -1 -15    1.64    1.19
   2   4  15    0.95    1.04
  -2  -4  15    1.60    0.98
   4   2 -15    0.16    1.22
  -3  -3  15    0.75    1.23
  -3  -3  15   -0.55    1.03
   3   3 -15    0.52    1.16
   2   4 -15    0.32    1.21
  -4  -2  15    3.71    1.39
  -4  -2  15    1.59    1.18
   1   5 -15    0.52    1.18
   1   5 -15    1.61    1.21
  -1  -5 -15    1.67    1.22
   0   6 -15    2.05    1.35
   0  -6 -15   -0.31    1.30
   0   6 -15    0.45    1.33
   1  -7 -15    3.38    1.44
  -1   7 -15    2.27    1.52
  -2   8 -15    1.79    1.70
   8  -2  15    3.17    1.92
   8  -2 -16    2.13    1.84
   7  -1 -16   10.64    2.13
  -7   1 -16    9.83    1.55
   7  -1 -16    9.07    1.65
   7  -1 -16    9.87    2.19
  -6   0 -16   14.50    1.55
   6   0 -16   11.60    1.62
  -6   0 -16   15.17    1.27
   0  -6  16   11.66    1.16
   0   6  16   12.46    1.60
   5   1 -16   28.79    1.95
  -5  -1 -16   29.18    1.86
  -1  -5  16   24.83    1.54
   5   1 -16   30.08    2.16
  -5  -1 -16   29.49    1.70
   1   5  16   26.37    1.80
   4   2 -16   40.28    2.21
  -2  -4  16   41.73    2.26
  -2  -4  16   35.49    1.91
   2   4  16   37.09    2.02
  -3  -3  16   28.16    1.98
   3   3 -16   30.42    1.90
  -3  -3  16   26.97    1.68
  -4  -2  16   39.89    2.40
   2   4 -16   42.07    2.36
  -4  -2  16   42.38    2.26
   2   4 -16   38.36    2.15
   1   5 -16   29.12    1.98
  -1  -5 -16   27.44    1.86
   1   5 -16   26.78    1.88
   0  -6 -16   15.06    1.59
   0   6 -16   13.83    1.68
   0   6 -16   14.11    1.68
   1  -7 -16    9.32    1.61
  -1   7 -16   10.28    1.68
  -2   8 -16    5.06    1.70
   8  -2  16    4.88    1.92
   8  -2 -17    1.20    1.79
   7  -1 -17    1.70    2.05
  -7   1 -17    1.44    1.53
   7  -1 -17    3.27    1.59
   7  -1 -17    1.62    2.12
   6   0 -17   -0.39    1.42
  -6   0 -17    1.79    1.05
  -6   0 -17   -0.09    1.37
   0   6  17    0.48    1.33
   0  -6  17    2.35    0.97
   1   5  17    0.78    1.14
   5   1 -17    3.71    1.63
  -1  -5  17    2.50    0.99
   5   1 -17    1.30    1.41
   2   4  17    0.98    1.00
  -2  -4  17    4.64    1.43
  -2  -4  17    0.97    1.00
   4   2 -17    0.65    1.33
  -3  -3  17    1.38    1.47
  -3  -3  17    0.65    1.09
   3   3 -17    1.37    1.29
   2   4 -17    2.34    1.07
  -4  -2  17    0.49    1.49
   2   4 -17    0.31    1.29
   1   5 -17    2.05    1.20
   1   5 -17    1.27    1.38
  -5  -1  17   -0.59    1.51
   0  -6 -17    1.01    1.40
   0   6 -17    0.76    1.45
   0   6 -17   -0.45    1.38
  -1   7 -17    3.34    1.62
   1  -7 -17    2.54    1.59
   8  -2  17   -0.19    1.84
   8  -2 -18    1.44    1.85
   7  -1 -18    6.35    1.76
   7  -1 -18   10.06    2.32
  -7   1 -18   10.24    1.73
  -6   0 -18   13.81    1.71
   6   0 -18   14.60    1.78
  -6   0 -18   14.00    1.21
   0  -6  18   10.40    1.17
   0   6  18   13.61    1.56
   5   1 -18   15.46    1.74
  -1  -5  18   12.43    1.22
   1   5  18   14.13    1.40
   4   2 -18   23.32    1.87
  -2  -4  18   24.48    1.87
  -2  -4  18   23.22    1.53
   2   4  18   23.50    1.58
  -3  -3 -18   21.78    1.32
  -3  -3  18   26.70    1.99
   3   3 -18   28.79    1.92
  -3  -3  18   22.35    1.60
  -4  -2  18   23.43    1.98
   2   4 -18   23.11    1.86
  -4  -2  18   24.51    1.80
   2   4 -18   21.19    1.57
   1   5 -18   16.09    1.77
   1   5 -18   16.37    1.52
   0   6 -18   12.27    1.74
   0  -6 -18   12.51    1.68
   0   6 -18   12.42    1.65
  -1   7 -18    6.88    1.75
   8  -2  18    3.85    1.97
   7  -1 -19    1.41    1.75
   6   0 -19    1.54    1.65
   6   0 -19    0.52    1.86
  -6   0 -19    3.50    1.01
   0   6  19    1.25    1.33
   5   1 -19    3.92    1.74
  -1  -5  19    2.14    1.01
   5   1 -19    0.70    1.51
   1   5  19    0.91    1.16
   2   4  19    0.31    0.96
  -2  -4  19    0.73    1.40
  -2  -4  19    0.65    1.06
   4   2 -19    0.33    1.43
  -3  -3 -19   -0.07    0.79
  -3  -3  19    0.90    1.45
  -3  -3  19   -1.01    1.38
   3   3 -19   -0.52    1.38
   2   4 -19    1.43    1.07
  -4  -2  19    1.37    1.59
   2   4 -19   -0.33    1.47
   1   5 -19    1.20    1.19
   1   5 -19   -1.49    1.59
   0   6 -19    1.37    1.63
   0   6 -19   -0.39    1.38
  -1   7 -19    3.34    1.77
   7  -1 -20    2.72    1.84
   6   0 -20    7.92    1.83
   6   0 -20    9.36    2.10
  -6   0 -20    7.97    1.01
   0   6  20    8.21    1.47
   5   1 -20   11.90    1.96
  -1  -5  20    7.99    1.14
   5   1 -20    8.26    1.72
   1   5  20    8.41    1.29
   2   4  20    8.14    1.12
  -2  -4  20    8.39    1.52
  -2  -4  20    6.13    1.16
   4   2 -20   10.64    1.66
  -3  -3 -20    7.45    0.96
  -3  -3  20    9.28    1.70
  -3  -3  20   10.95    2.13
   3   3 -20    9.38    1.62
   2   4 -20    8.25    1.19
  -2  -4 -20    6.42    1.18
   2   4 -20    8.19    1.63
   1   5 -20    8.98    1.74
   1   5 -20    8.68    1.38
   0   6 -20    7.73    1.83
   0   6 -20    9.65    1.57
  -1   7 -20    7.48    1.90
   7  -1  20    5.46    1.64
   7  -1 -21    0.52    1.85
   7  -1 -21    1.44    1.52
   6   0 -21    3.47    1.81
   6   0 -21   -0.80    2.01
   0   6  21    1.01    1.25
   5   1 -21    1.36    1.79
  -1  -5  21    1.27    1.04
   5   1 -21   -1.34    1.66
   1   5  21    1.20    1.08
   2   4  21    1.58    1.03
  -2  -4  21    0.92    1.55
  -2  -4  21    2.58    1.88
   4   2 -21    1.15    1.57
  -3  -3 -21    1.18    0.90
   3   3 -21    1.58    1.58
   2   4 -21    3.69    1.13
  -2  -4 -21    0.14    1.15
   2   4 -21   -0.63    1.61
  -1  -5 -21    1.03    1.39
   1   5 -21    1.14    1.68
   1   5 -21    1.26    1.19
   0   6 -21    0.94    1.81
  -1   7 -21    2.80    1.90
   7  -1  21    1.88    1.54
   7  -1 -22    6.23    2.01
   6   0 -22    8.62    2.22
   0   6  22    4.36    1.29
   6   0 -22    8.13    1.95
   5   1 -22    6.94    1.95
   5   1 -22    5.00    1.78
   1   5  22    4.32    1.16
   2   4  22    5.48    1.05
  -2  -4  22    6.58    1.29
   4   2 -22    7.57    1.76
  -3  -3 -22    4.97    1.01
   3   3 -22    7.91    1.76
   2   4 -22    6.56    1.19
  -2  -4 -22    5.92    1.27
   2   4 -22    8.91    1.82
  -1  -5 -22    8.05    1.54
   1   5 -22    7.00    1.84
   1   5 -22    6.24    1.27
   0   6 -22    6.87    2.00
   0  -6 -22    5.97    1.79
  -1   7 -22    4.50    2.02
   7  -1  22    2.12    1.56
   7  -1 -23    2.92    2.04
   6   0 -23    1.30    2.20
   6   0 -23    6.97    2.08
  -5  -1 -23    2.60    1.20
   5   1 -23    1.26    1.90
   5   1 -23    0.63    1.79
   1   5  23    0.41    1.06
   2   4  23    1.75    0.96
   4   2 -23    0.13    1.72
   3   3  23    0.95    0.89
   3   3 -23    0.47    0.99
  -3  -3 -23    1.15    1.00
   3   3 -23    2.41    1.70
  -2  -4 -23    1.66    1.11
   2   4 -23    1.13    1.75
  -1  -5 -23    1.65    1.46
   1   5 -23    1.79    1.81
   0   6 -23    1.61    1.97
   0  -6 -23    1.48    1.80
  -1   7 -23    3.12    2.12
   7  -1  23    2.06    1.59
   7  -1 -24    1.35    2.07
   6   0 -24    5.38    2.08
   5   1 -24    6.13    2.03
   5   1 -24    7.74    1.97
   1   5  24    4.69    1.10
   4   2 -24    6.91    1.91
   2   4  24    4.92    1.05
   3   3  24    4.98    0.96
  -3  -3 -24    7.05    1.14
   3   3 -24    8.32    1.86
  -2  -4 -24    7.20    1.37
   2   4 -24    6.89    1.93
  -1  -5 -24    5.91    1.58
   1   5 -24    5.30    1.98
   0   6 -24    4.71    2.11
   0  -6 -24    5.97    1.89
   6   0  24    4.67    1.30
  -1   7 -24    3.91    2.18
   6   0 -25    1.21    2.11
   5   1 -25    1.21    2.03
   5   1 -25    3.15    1.98
   4   2 -25    1.81    1.90
   2   4  25    1.76    0.89
   3   3  25    0.82    0.86
  -3  -3 -25    4.48    1.06
   3   3 -25   -0.04    1.83
  -2  -4 -25    1.94    1.32
   2   4 -25    1.02    1.88
  -1  -5 -25    1.66    1.23
   1   5 -25    4.39    2.03
   0  -6 -25    1.43    1.86
   0   6 -25    2.94    2.22
   5   1 -26    1.61    2.08
   5   1 -26    1.87    2.03
   4   2 -26    2.54    1.99
   3   3 -26    2.58    1.94
  -2  -4 -26    1.75    1.39
   2   4 -26    2.47    2.04
  -1  -5 -26    5.69    1.64
   1   5 -26    4.88    2.14
   0  -6 -26    3.62    1.52
   5   1 -27    2.91    2.19
  -2  -4 -27    1.78    1.44
  -1  -5 -27    2.09    1.72
   0  -6 -27    0.62    1.81
  -2  -4 -28    3.55    1.55
  -1  -5 -28    3.15    1.74
  -1  -5 -29    1.92    1.79
  -3  -4   0   -0.25    0.87
   4   3   0   -1.52    0.88
   2   5   0    0.51    1.01
  -5  -2   0    1.49    1.02
  -2  -5   0    3.04    1.03
   5   2   0   -0.49    0.99
   6   1   0    0.52    0.97
   1   6   0    3.08    1.37
  -6  -1   0    2.23    0.96
  -6  -1   0    1.05    1.23
   1   6   0    1.46    1.05
  -6  -1   0    4.34    1.36
   0   7   0    6.88    1.74
   0  -7   0    9.83    1.33
  -7   0   0    7.35    1.67
  -8   1   0    0.11    1.19
   1  -8   0    2.17    1.23
   1  -8   1   12.86    1.40
  -8   1  -1   14.00    1.34
   0  -7   1   62.82    2.91
  -7   0  -1   61.62    2.92
  -1  -6   1   70.55    2.75
  -6  -1  -1   66.53    2.73
  -6  -1  -1   73.56    2.92
   6   1  -1   70.72    2.78
   2   5   1  128.40    4.78
  -2  -5   1  125.96    4.75
   5   2  -1  131.17    4.81
  -5  -2  -1  124.91    4.76
  -5  -2  -1  137.09    4.85
   4   3  -1   84.84    3.50
  -3  -4   1   83.34    3.47
  -3  -4  -1   84.21    3.51
   4   3   1   86.98    3.55
   5   2   1  131.06    4.77
  -5  -2   1  122.01    4.71
  -2  -5  -1  128.10    4.73
   2   5  -1  133.01    4.80
   1   6  -1   68.50    2.69
  -6  -1   1   68.07    2.65
   6   1   1   68.55    2.65
  -1  -6  -1   64.77    2.64
  -6  -1   1   75.92    2.89
   1   6  -1   66.68    3.04
  -7   0   1   59.54    2.85
   0  -7  -1   62.34    2.89
   0   7  -1   66.97    3.42
  -8   1   1   12.52    1.31
   1  -8  -1   14.10    1.41
   9  -2  -2    7.47    2.06
   1  -8   2    0.88    1.20
  -8   1  -2   -0.93    1.18
   7   0  -2    2.47    1.19
   0  -7   2    3.53    1.21
  -6  -1  -2    0.89    1.11
  -6  -1  -2    1.26    0.95
   6   1  -2   -0.65    1.02
  -6  -1  -2    3.39    1.24
  -1  -6   2    3.09    1.04
   5   2  -2   -1.12    0.96
  -2  -5   2    3.82    0.97
  -5  -2  -2    1.34    1.20
  -5  -2  -2    0.42    0.93
   2   5   2   -1.38    0.94
  -5  -2  -2    5.60    1.21
  -3  -4   2    0.25    0.85
   4   3  -2   -1.22    0.89
   4   3   2   -1.61    0.88
  -3  -4  -2    0.04    0.90
  -5  -2   2    3.26    0.98
   2   5  -2    0.26    0.99
  -5  -2   2    0.81    1.30
   5   2   2   -0.92    0.95
  -2  -5  -2    1.93    1.00
   1   6  -2    2.46    1.36
  -6  -1   2    0.41    0.79
  -1  -6  -2    2.40    1.05
   1   6  -2    2.32    1.06
  -6  -1   2    2.22    1.30
  -6  -1   2    0.51    0.98
   0   7  -2    8.75    1.74
   0   7  -2    9.00    1.29
   0  -7  -2    8.32    1.28
  -7   0   2    5.78    2.15
  -8   1   2   -1.12    1.16
   1  -8  -2    0.04    1.26
   9  -2  -3   11.81    2.17
   1  -8   3    8.64    1.32
  -8   1  -3   10.20    1.30
   7   0  -3   45.55    2.17
  -7   0  -3   41.96    2.09
  -7   0  -3   46.60    2.42
  -6  -1  -3   46.76    2.16
  -1  -6   3   43.39    2.17
   6   1  -3   45.08    2.21
  -6  -1  -3   49.24    2.35
  -6  -1  -3   41.82    2.13
  -2  -5   3  128.12    4.67
   5   2  -3  131.08    4.73
  -5  -2  -3  144.39    4.80
  -5  -2  -3  130.20    4.67
   4   3  -3  123.09    4.87
  -3  -4   3  120.23    4.80
   4   3   3  116.19    4.61
  -4  -3   3  116.78    4.64
  -3  -4  -3  114.62    4.60
  -5  -2   3  127.11    4.56
   2   5  -3  128.93    4.60
  -2  -5  -3  131.87    4.56
  -6  -1   3   43.20    1.84
  -6  -1   3   48.19    2.12
   1   6  -3   44.26    1.89
  -1  -6  -3   41.65    1.83
   1   6  -3   45.38    2.29
   0   7  -3   44.05    2.20
   0  -7  -3   42.05    2.15
   0   7  -3   46.74    2.69
  -8   1   3    9.73    1.24
   1  -8  -3    9.20    1.36
   9  -2  -4    6.88    2.14
  -8   1  -4   -0.66    1.22
   1  -8   4    0.25    1.17
   0   7   4    2.78    1.58
  -7   0  -4    0.96    1.11
   0  -7   4   -1.35    1.17
   7   0  -4    1.18    1.18
  -6  -1  -4    2.04    0.99
  -6  -1  -4   -0.31    0.97
  -1  -6   4    0.24    0.99
   6   1  -4   -0.15    1.01
  -6  -1  -4    1.54    1.22
  -5  -2  -4    2.26    1.13
   5   2  -4    0.30    0.99
  -5  -2  -4    4.44    1.23
  -2  -5   4    2.60    1.00
  -5  -2  -4   -0.70    0.92
   4   3  -4    4.34    1.02
  -3  -4   4    3.40    0.96
  -4  -3   4    6.12    1.13
  -3  -4  -4    1.31    0.95
  -5  -2   4    0.20    1.28
   2   5  -4    2.05    1.01
  -5  -2   4    1.48    0.96
  -2  -5  -4    1.19    1.01
   1   6  -4    1.10    1.30
  -6  -1   4    1.05    1.02
  -6  -1   4    0.60    0.96
  -1  -6  -4    0.94    1.06
  -6  -1   4   -0.03    1.28
   1   6  -4   -0.05    1.00
   0   7  -4    3.26    1.67
   0  -7  -4    5.68    1.22
  -7   0   4    1.02    1.13
  -7   0   4    8.31    4.23
   0   7  -4    4.83    1.25
   1  -8  -4    2.67    1.28
   9  -2  -5   10.52    2.27
   8  -1  -5   15.24    1.47
  -8   1  -5   14.48    1.40
  -7   0  -5   43.50    2.32
   7   0  -5   43.15    2.12
  -7   0  -5   41.79    2.05
   0   7   5   44.48    2.63
  -6  -1  -5   32.12    1.65
  -1  -6   5   28.52    1.75
   6   1  -5   33.78    1.82
  -6  -1  -5   34.94    1.98
  -6  -1  -5   31.48    1.76
   1   6   5   34.82    2.16
  -5  -2  -5  117.70    4.24
   5   2  -5  122.14    4.34
  -2  -5   5  109.86    4.21
  -5  -2  -5  120.63    4.30
   4   3  -5  131.84    5.06
  -3  -4   5  121.54    4.97
  -3  -4  -5  143.92    5.34
  -4  -3   5  124.27    5.27
  -2  -5  -5  116.44    4.69
   2   5  -5  130.25    4.82
  -5  -2   5  126.26    4.82
  -6  -1   5   27.51    1.73
  -6  -1   5   29.22    1.68
   1   6  -5   31.66    1.78
  -6  -1   5   31.70    1.97
   1   6  -5   35.83    2.12
  -1  -6  -5   30.26    1.72
   0   7  -5   39.61    2.15
   0  -7  -5   41.00    2.12
   0   7  -5   45.28    2.67
   1  -8  -5   12.69    1.40
   9  -2  -6    7.03    2.23
  -8   1  -6    1.84    1.20
   8  -1  -6    2.15    1.87
   8  -1  -6    2.04    1.28
   0   7   6    3.40    1.62
   0  -7   6    3.28    1.18
  -7   0  -6    3.40    1.15
  -7   0  -6    3.59    1.45
   7   0  -6    1.67    1.22
   1   6   6    1.99    1.34
   6   1  -6    1.72    1.10
  -1  -6   6    0.99    0.99
  -6  -1  -6    2.49    1.27
  -6  -1  -6    1.13    0.97
   5   2  -6    1.12    0.99
  -5  -2  -6    4.38    1.20
  -5  -2  -6    3.00    1.13
  -5  -2  -6    1.45    1.00
  -2  -5   6    1.70    0.98
   4   3  -6    2.18    0.91
  -3  -4   6    0.69    0.86
  -4  -3   6    3.45    1.04
  -4  -3   6    2.84    1.22
  -3  -4  -6    3.53    0.96
  -2  -5  -6    5.51    1.16
   2   5  -6    3.24    1.08
  -5  -2   6    5.27    1.36
  -5  -2   6    1.86    0.98
  -5  -2   6    4.64    1.22
  -1  -6  -6    2.31    1.07
   1   6  -6    1.17    1.36
  -6  -1   6    1.39    1.10
   1   6  -6    2.32    1.13
  -6  -1   6    1.86    0.99
   0   7  -6    3.85    1.67
   0   7  -6    6.11    1.28
  -7   0   6    3.61    1.17
  -7   0   6    3.38    1.77
   0  -7  -6    5.10    1.26
  -1   8  -6    2.63    1.33
   9  -2  -7    9.91    2.32
   8  -1  -7   15.84    2.09
  -8   1  -7   14.26    1.44
   8  -1  -7   15.76    2.07
   8  -1  -7   13.93    1.50
   0  -7   7   35.65    2.07
   7   0  -7   39.96    2.15
  -7   0  -7   43.20    2.30
  -7   0  -7   42.57    2.12
   0   7   7   42.32    2.66
  -6  -1  -7   43.16    2.09
   6   1  -7   40.62    2.16
  -1  -6   7   37.50    2.02
  -6  -1  -7   41.83    2.18
   1   6   7   41.42    2.44
  -5  -2  -7  119.72    4.41
  -5  -2  -7  117.74    4.56
   5   2  -7  113.01    4.60
  -3  -4   7   78.24    3.39
   4   3  -7   85.59    3.48
  -4  -3   7   84.64    3.54
  -3  -4  -7   85.30    3.41
  -4  -3   7   74.40    3.39
  -5  -2   7  121.45    4.67
  -5  -2   7  103.89    4.46
  -2  -5  -7  118.31    4.52
  -5  -2   7  107.34    4.57
   2   5  -7  110.07    4.55
  -1  -6  -7   42.39    2.00
   1   6  -7   43.67    2.08
  -6  -1   7   38.19    1.89
   1   6  -7   38.56    2.31
  -7   0   7   37.23    2.02
   0   7  -7   39.69    2.14
   0   7  -7   40.64    2.59
   0  -7  -7   40.13    2.11
  -1   8  -7   14.58    1.53
   9  -2  -8    7.55    2.33
   8  -1  -8    3.14    1.89
  -8   1  -8    1.75    1.25
   8  -1  -8    2.07    1.36
   8  -1  -8    4.56    1.96
   7   0  -8    6.24    1.72
   0  -7   8    2.97    1.17
   7   0  -8    6.92    1.32
  -7   0  -8    3.69    1.46
  -7   0  -8    4.12    1.24
   0   7   8    4.53    1.70
   6   1  -8    1.99    1.15
   1   6   8    2.82    1.39
  -6  -1  -8    3.48    1.20
  -1  -6   8    2.60    1.02
  -6  -1  -8    2.31    1.23
  -5  -2  -8    3.55    0.85
  -2  -5   8    4.10    1.04
  -5  -2  -8    2.53    1.08
   5   2  -8    1.76    1.02
  -3  -4   8    2.49    1.00
  -3  -4   8    0.41    0.88
   4   3  -8    2.37    0.98
  -4  -3   8    1.02    1.03
  -3  -4  -8    1.23    0.94
  -5  -2   8    4.31    1.39
  -5  -2   8    2.17    0.97
  -2  -5  -8    3.42    1.07
   2   5  -8    2.21    1.09
  -5  -2   8    1.72    1.26
   1   6  -8    1.16    1.35
   1   6  -8    0.74    1.14
  -6  -1   8    1.21    0.90
  -6  -1   8    1.98    1.03
  -1  -6  -8    2.82    1.16
   0   7  -8    5.35    1.75
   0   7  -8    5.89    1.34
   0  -7  -8    6.43    1.31
  -1   8  -8    3.37    1.38
   8  -1  -9   12.75    1.53
   8  -1  -9   15.07    2.15
   8  -1  -9   14.37    2.17
  -8   1  -9   13.90    1.46
   7   0  -9   42.53    2.36
  -7   0  -9   36.96    2.23
   0   7   9   35.47    2.55
   7   0  -9   40.17    2.52
  -7   0  -9   39.91    2.12
  -1  -6   9   32.28    1.90
  -6  -1  -9   36.28    1.97
  -6  -1  -9   40.99    2.06
   1   6   9   35.56    2.27
   6   1  -9   35.61    2.03
  -5  -2  -9   96.39    3.74
  -2  -5   9   90.97    3.95
  -5  -2  -9  101.00    4.01
   5   2  -9  100.49    4.09
  -3  -4   9   59.98    2.72
   4   3  -9   66.17    2.84
  -3  -4   9   60.79    2.79
  -3  -4  -9   66.66    2.79
  -4  -3   9   57.61    2.78
  -5  -2   9   99.12    4.15
  -5  -2   9   90.19    3.91
  -2  -5  -9  103.47    4.00
  -5  -2   9   91.87    4.04
   2   5  -9   96.82    4.06
  -6  -1   9   34.04    2.01
  -6  -1   9   34.00    1.87
  -1  -6  -9   37.30    1.98
   1   6  -9   35.58    2.29
   1   6  -9   34.98    1.99
   0  -7  -9   37.07    2.09
   0   7  -9   37.41    2.11
   0   7  -9   33.46    2.55
  -1   8  -9   11.55    1.53
   8  -1 -10    4.00    2.05
  -8   1 -10    1.59    1.32
   8  -1 -10    4.39    2.05
   8  -1 -10    0.56    1.40
   7   0 -10    1.68    1.39
   7   0 -10    4.98    1.76
  -7   0 -10    4.64    1.31
  -7   0 -10    3.26    1.44
   0   7  10    2.90    1.75
   1   6  10    0.84    1.36
  -1  -6  10    1.39    1.04
  -6  -1 -10    0.61    1.11
   6   1 -10    1.42    1.21
  -6  -1 -10    2.13    1.22
  -5  -2 -10    1.69    1.07
  -5  -2 -10    1.41    0.71
  -2  -5  10    2.63    1.05
   5   2 -10    2.60    1.10
  -3  -4  10    1.56    1.04
  -3  -4  10    0.81    0.93
   4   3 -10    1.33    1.03
  -3  -4 -10    1.20    1.03
  -4  -3  10    0.02    1.06
  -2  -5 -10    2.93    1.10
  -5  -2  10    1.60    1.41
  -5  -2  10    3.28    1.03
   2   5 -10    2.21    1.14
  -5  -2  10    2.35    1.29
   1   6 -10    3.41    1.48
  -6  -1  10    1.14    1.27
  -6  -1  10    1.39    1.06
  -6  -1  10   -0.03    1.42
  -1  -6 -10    2.36    1.19
   1   6 -10    3.90    1.27
   0   7 -10    5.14    1.46
   0  -7 -10    4.92    1.42
   0   7 -10    2.18    1.76
  -1   8 -10    3.49    1.45
   8  -1 -11   12.55    2.25
   8  -1 -11   10.78    1.60
  -8   1 -11    9.93    1.52
  -7   0 -11   32.43    2.02
  -7   0 -11   30.90    1.96
   0   7  11   27.36    2.28
   7   0 -11   28.67    2.33
   7   0 -11   27.53    1.96
  -1  -6  11   23.25    1.68
  -6  -1 -11   25.13    1.72
  -6  -1 -11   26.39    1.75
   6   1 -11   27.47    1.81
   1   6  11   26.68    1.99
  -5  -2 -11   53.60    2.21
  -2  -5  11   56.01    2.58
  -5  -2 -11   60.91    2.67
   5   2 -11   63.60    2.76
  -2  -5  11   52.03    2.53
   2   5  11   64.12    2.88
  -3  -4  11   35.07    1.91
   4   3 -11   38.70    2.05
  -3  -4  11   35.19    1.89
  -4  -3  11   37.43    2.08
  -3  -4 -11   42.43    2.12
  -5  -2  11   61.85    2.94
  -5  -2  11   52.39    2.61
  -5  -2  11   59.47    2.79
  -2  -5 -11   57.83    2.72
   2   5 -11   57.87    2.78
   2   5 -11   63.00    2.97
  -6  -1  11   25.42    2.00
  -1  -6 -11   26.92    1.79
  -6  -1  11   33.74    2.53
   1   6 -11   28.13    1.88
   1   6 -11   27.07    2.08
   0   7 -11   29.77    2.00
   0  -7 -11   29.28    1.93
  -1   8 -11   10.90    1.61
   8  -1 -12    6.07    2.25
   8  -1 -12    1.36    1.49
  -8   1 -12    2.31    1.42
   7   0 -12    3.80    1.79
  -7   0 -12    0.26    1.34
  -7   0 -12    4.18    1.38
   7   0 -12    2.57    1.44
   0   7  12    2.78    1.61
  -6  -1 -12    2.70    1.26
   1   6  12    1.38    1.39
  -6  -1 -12    1.05    1.19
   6   1 -12    1.62    1.28
  -2  -5  12    2.84    1.16
   2   5  12    2.41    1.23
  -5  -2 -12    0.74    0.36
  -2  -5  12    1.91    1.08
   5   2 -12    1.14    1.17
  -5  -2 -12    1.40    1.19
  -3  -4  12    0.31    1.03
   4   3 -12    1.31    1.12
  -3  -4  12   -0.70    0.97
  -3  -4 -12    0.25    1.07
  -4  -3  12    1.50    1.11
   2   5 -12    0.89    1.26
  -5  -2  12    1.19    1.08
   2   5 -12    1.11    1.22
  -2  -5 -12    1.73    1.20
  -5  -2  12   -0.45    1.28
   1   6 -12    1.89    1.44
  -1  -6 -12    2.92    1.23
  -6  -1  12    0.42    1.61
   1   6 -12    2.56    1.30
  -6  -1  12   -1.85    3.83
   0  -7 -12    2.68    1.42
   0   7 -12    4.88    1.48
  -1   8 -12    3.14    1.56
   8  -1 -13    8.13    2.39
   8  -1 -13    9.17    1.90
  -8   1 -13    7.77    1.53
   7   0 -13   14.75    2.09
  -7   0 -13   17.91    1.70
  -7   0 -13   20.27    1.65
   7   0 -13   18.22    1.77
  -6  -1 -13   22.73    1.65
  -6  -1 -13   21.40    1.64
   6   1 -13   18.75    1.72
   1   6  13   17.93    1.82
   5   2 -13   43.32    2.31
  -2  -5  13   38.10    2.10
  -5  -2 -13   46.50    2.29
   2   5  13   43.94    2.35
  -3  -4  13   26.77    1.70
   4   3 -13   29.31    1.81
  -3  -4  13   25.60    1.63
  -3  -4 -13   31.40    1.86
  -4  -3  13   29.27    2.01
  -4  -3  13   26.40    1.79
  -5  -2  13   40.96    2.34
   2   5 -13   43.58    2.34
  -2  -5 -13   45.33    2.31
   2   5 -13   43.86    2.44
  -6  -1  13   21.26    2.09
  -6  -1  13   18.04    2.04
  -1  -6 -13   20.15    1.66
   1   6 -13   17.64    1.67
   1   6 -13   18.78    1.84
   0  -7 -13   18.86    1.73
   0   7 -13   18.40    1.80
  -1   8 -13    6.40    1.63
  -8   1 -14    2.11    1.53
   8  -1 -14    1.65    1.65
   7   0 -14    4.62    1.97
   7   0 -14    1.72    1.52
  -7   0 -14    2.85    1.35
  -7   0 -14    3.46    1.43
  -6  -1 -14    1.82    1.30
   1   6  14    2.02    1.37
  -1  -6  14    0.74    1.12
   6   1 -14    1.01    1.34
  -6  -1 -14    0.76    1.32
  -2  -5  14    1.84    1.04
   2   5  14    2.33    1.18
  -5  -2 -14    2.58    1.23
   5   2 -14    1.27    1.28
   4   3 -14   -0.23    1.19
  -3  -4  14    1.55    1.12
  -4  -3  14    2.18    1.52
  -3  -4 -14    1.38    1.17
  -4  -3  14    0.87    1.18
   2   5 -14    3.14    1.26
   2   5 -14    2.62    1.34
  -2  -5 -14    3.34    1.30
  -5  -2  14    0.03    1.32
   1   6 -14    2.92    1.50
   1   6 -14    0.36    1.37
  -1  -6 -14    0.73    1.33
   0   7 -14    1.83    1.55
   0  -7 -14    3.69    1.47
  -1   8 -14    1.18    1.84
   7   0 -15   14.68    2.22
  -7   0 -15   13.98    1.70
  -7   0 -15   15.69    1.51
   7   0 -15   13.66    1.79
   1   6  15   12.81    1.61
   6   1 -15   14.42    1.68
  -6  -1 -15   13.44    1.47
  -1  -6  15   11.88    1.31
  -6  -1 -15   16.37    1.61
  -5  -2 -15   35.09    2.02
   5   2 -15   34.43    2.09
  -2  -5  15   27.56    1.76
   2   5  15   31.52    1.97
  -3  -4  15   38.31    2.29
   4   3 -15   40.69    2.26
  -3  -4  15   33.82    1.97
  -4  -3  15   41.11    2.43
  -3  -4 -15   39.11    2.18
  -4  -3  15   35.65    2.10
  -2  -5 -15   32.79    2.03
   2   5 -15   36.04    2.13
  -5  -2  15   31.25    2.08
   2   5 -15   29.56    2.02
   1   6 -15   10.07    1.60
   1   6 -15   10.94    1.63
  -1  -6 -15   14.10    1.60
   0  -7 -15   13.88    1.68
   0   7 -15   11.35    1.80
  -1   8 -15    5.37    1.76
  -7   0 -16    3.12    1.53
   7   0 -16    4.18    2.07
   7   0 -16    2.14    1.62
  -7   0 -16    3.54    1.28
  -6  -1 -16    2.74    1.31
   1   6  16    2.07    1.38
  -1  -6  16    1.63    1.06
   6   1 -16    1.83    1.50
  -6  -1 -16    2.03    1.40
   2   5  16    2.77    1.26
   5   2 -16    5.35    1.44
  -5  -2 -16    2.43    1.32
  -2  -5  16    3.42    1.13
   4   3 -16    0.07    1.32
  -3  -4  16    3.73    1.46
  -3  -4  16    2.42    1.18
  -4  -3  16    2.29    1.57
  -4  -3  16   -0.24    1.26
  -3  -4 -16    1.06    1.34
   2   5 -16    1.55    1.27
  -2  -5 -16    3.22    1.36
   2   5 -16    1.05    1.42
  -5  -2  16    2.28    1.95
   1   6 -16    2.31    1.42
  -1  -6 -16    1.94    1.45
   1   6 -16    2.10    1.51
   0   7 -16    2.21    1.66
  -1   8 -16    1.05    1.74
   7   0 -17    8.86    1.79
  -7   0 -17   11.03    1.36
   1   6  17    9.56    1.55
   6   1 -17   12.04    1.97
  -6  -1 -17   12.09    1.65
   6   1 -17   10.71    1.73
  -6  -1 -17   12.87    1.45
  -1  -6  17    7.67    1.22
  -5  -2 -17   23.79    1.85
   5   2 -17   21.59    1.88
  -2  -5  17   19.10    1.50
   2   5  17   20.62    1.65
  -3  -4  17   24.52    1.92
   4   3 -17   25.69    1.96
  -3  -4  17   23.78    1.66
  -4  -3  17   25.87    2.06
  -3  -4 -17   22.64    1.80
  -4  -3  17   19.34    1.67
  -2  -5 -17   21.33    1.88
   2   5 -17   24.99    1.94
   2   5 -17   21.48    1.78
   1   6 -17   11.05    1.62
   1   6 -17   11.49    1.76
   0   7 -17    9.64    1.83
  -1   8 -17    5.31    1.86
   7   0 -18    1.96    1.73
  -6  -1 -18    2.87    1.31
   6   1 -18    1.71    1.84
   6   1 -18    1.30    1.61
  -1  -6  18    1.75    1.16
   1   6  18    2.30    1.44
   2   5  18    1.65    1.24
   5   2 -18    1.06    1.54
  -2  -5  18    1.00    1.16
   4   3 -18    1.67    1.51
  -4  -3 -18    0.76    0.68
  -3  -4  18    2.34    1.48
  -3  -4  18    0.95    1.20
  -4  -3  18    2.60    1.33
   2   5 -18    1.60    1.26
   2   5 -18    0.52    1.50
   1   6 -18    2.68    1.50
   1   6 -18    1.28    1.66
   0   7 -18    3.60    1.77
  -1   8 -18    1.71    1.89
   7   0 -19    8.89    1.92
  -6  -1 -19    8.93    1.40
   6   1 -19    2.50    2.02
   6   1 -19    5.38    1.76
   1   6  19    6.06    1.55
   2   5  19   10.34    1.44
   5   2 -19   11.34    1.80
  -2  -5  19   10.54    1.30
  -4  -3 -19    9.00    0.86
  -3  -4  19    9.93    1.39
  -4  -3  19   12.33    1.77
   2   5 -19   10.70    1.47
   2   5 -19   11.46    1.83
   1   6 -19    5.47    1.80
   1   6 -19    7.63    1.64
   0   7 -19    7.31    1.93
  -1   8 -19    5.66    2.02
   7   0 -20    5.52    1.96
   6   1 -20    1.02    1.73
   6   1 -20    2.09    1.97
   1   6  20    0.99    1.34
  -6  -1 -20    2.88    1.32
   5   2 -20    0.78    1.68
   2   5  20    0.85    1.21
  -2  -5  20    0.52    1.18
   4   3 -20   -0.29    1.64
  -4  -3 -20   -0.17    0.68
  -3  -4  20    1.08    1.25
  -3  -4 -20    0.58    1.03
  -4  -3  20    2.81    3.64
   2   5 -20    2.28    1.35
   2   5 -20    1.36    1.72
   1   6 -20    2.76    1.77
   1   6 -20    2.39    1.48
   0   7 -20    2.49    1.90
  -1   8 -20    1.02    2.05
   8  -1  20    1.98    1.86
   7   0 -21    4.73    2.00
   6   1 -21    4.62    1.85
   6   1 -21    7.28    2.12
   1   6  21    4.26    1.43
  -6  -1 -21    7.09    1.38
   5   2 -21    8.29    1.86
   2   5  21    6.81    1.32
  -2  -5  21    5.49    1.29
   3   4  21    7.02    1.23
  -3  -4  21    8.39    1.48
   4   3 -21   10.76    1.91
   3   4 -21    7.36    1.34
  -3  -4 -21    6.28    1.17
  -4  -3  21    4.86    1.48
   2   5 -21    6.04    1.42
   2   5 -21    5.11    1.84
   1   6 -21    7.25    1.89
   0   7 -21    6.29    2.05
  -1   8 -21    3.49    2.16
   8  -1  21    1.29    1.82
   7   0 -22    0.74    2.00
   6   1 -22    3.08    1.89
   6   1 -22    1.30    2.12
   1   6  22    2.27    1.41
   5   2 -22    1.82    1.83
   2   5  22    2.96    1.22
  -2  -5  22    0.54    1.24
   3   4  22    0.72    1.08
  -3  -4  22    2.55    3.50
   4   3 -22    2.34    1.82
   3   4 -22    0.16    1.14
  -3  -4 -22    1.97    0.88
   2   5 -22    1.73    1.87
  -2  -5 -22    1.04    1.37
   1   6 -22    3.45    1.96
   0   7 -22    2.15    2.09
   7   0 -23    5.19    2.13
   6   1 -23    4.80    2.06
   6   1 -23    4.60    2.23
   5   2 -23    6.59    2.04
   2   5  23    5.03    1.27
   3   4  23    5.12    1.18
   4   3 -23    7.86    1.94
  -3  -4 -23    6.18    1.20
   2   5 -23    7.21    2.02
  -2  -5 -23    6.47    1.50
   1   6 -23    5.61    2.05
  -1  -6 -23    4.36    1.74
   0   7 -23    2.90    2.18
   6   1 -24    0.32    2.05
   5   2 -24    3.33    2.08
   3   4  24    1.32    1.10
   4   3 -24    1.23    1.97
  -3  -4 -24    2.56    1.20
  -2  -5 -24    1.86    1.45
   2   5 -24    2.51    2.09
   1   6 -24   -0.27    2.05
  -1  -6 -24    2.85    1.75
   4   3 -25    3.84    2.03
  -3  -4 -25    3.19    1.25
  -2  -5 -25    4.68    1.21
  -1  -6 -25    3.88    1.80
  -2  -5 -26    2.95    1.54
  -1  -6 -26    0.94    1.61
  -2  -5 -27    3.55    1.60
  -1  -6 -27    2.71    1.65
  -4  -4   0   95.71    4.02
   4   4   0  101.25    4.10
  -5  -3   0  120.43    4.31
  -3  -5   0  122.36    4.32
   5   3   0  124.84    4.38
   6   2   0   54.14    2.46
   2   6   0   56.06    2.47
  -6  -2   0   51.29    2.40
  -2  -6   0   55.73    2.44
  -6  -2   0   61.23    2.62
   2   6   0   57.97    2.92
  -7  -1   0   45.97    2.40
  -7  -1   0   41.39    2.23
  -1  -7   0   40.72    2.25
  -7  -1   0   44.78    2.50
   1   7   0   42.32    2.79
  -8   0   0   15.34    1.51
   0  -8   0   13.41    1.58
   0  -8   1   -2.40    1.35
  -8   0  -1   -0.85    1.32
  -7  -1  -1    0.94    1.23
  -7  -1  -1    4.16    1.38
   7   1  -1    1.23    1.26
  -7  -1  -1    2.66    1.62
  -1  -7   1    3.78    1.33
   6   2  -1   -0.03    1.11
  -2  -6   1    4.54    1.13
  -6  -2  -1    1.67    1.09
  -6  -2  -1    0.79    1.27
   2   6   1    1.63    1.15
  -6  -2  -1    4.13    1.37
  -5  -3  -1    2.12    1.42
  -5  -3  -1    1.85    1.11
   5   3  -1    0.44    1.16
  -4  -4   1    2.21    1.05
   4   4  -1    0.82    1.00
  -4  -4  -1    1.23    1.04
   4   4   1   -0.56    0.99
  -5  -3   1    3.51    1.12
  -5  -3   1    0.98    1.37
  -3  -5  -1    4.35    1.17
   5   3   1    0.29    1.11
   6   2   1   -0.32    1.11
  -6  -2   1    2.33    1.13
   2   6  -1    4.91    1.57
   2   6  -1    2.81    1.17
  -2  -6  -1    3.28    1.17
  -6  -2   1    5.90    1.37
  -6  -2   1    7.14    1.45
   1   7  -1    5.82    1.81
  -1  -7  -1    7.27    1.30
  -7  -1   1    6.25    1.58
   1   7  -1    7.76    1.37
  -7  -1   1    4.88    1.62
  -7  -1   1    2.04    1.25
  -8   0   1   -1.22    1.26
   0  -8  -1    1.64    1.42
   0  -8   2   12.70    1.54
  -8   0  -2   14.37    1.53
   7   1  -2   44.73    2.29
  -7  -1  -2   48.45    2.32
  -7  -1  -2   43.07    2.22
  -7  -1  -2   46.94    2.51
  -6  -2  -2   52.01    2.39
  -2  -6   2   47.07    2.36
  -6  -2  -2   45.93    2.33
  -6  -2  -2   51.75    2.55
   6   2  -2   47.37    2.44
  -5  -3  -2  102.75    3.66
  -3  -5   2   93.00    3.54
   5   3  -2   94.51    3.63
  -5  -3  -2   94.06    3.55
   4   4   2   60.98    2.79
  -4  -4   2   60.76    2.75
   4   4  -2   63.19    2.82
  -4  -4  -2   62.04    2.77
   5   3   2   98.94    4.08
  -5  -3   2  105.46    4.10
  -5  -3   2   94.28    4.02
  -3  -5  -2   93.14    4.02
  -6  -2   2   46.66    2.22
  -6  -2   2   50.70    2.40
  -2  -6  -2   47.12    2.21
   2   6  -2   48.34    2.28
   2   6  -2   50.04    2.64
   1   7  -2   40.32    2.22
  -7  -1   2   48.14    2.47
  -7  -1   2   37.01    2.18
  -1  -7  -2   43.08    2.21
  -7  -1   2   44.29    2.53
   1   7  -2   44.62    2.75
  -8   0   2   13.04    1.50
   0  -8  -2   15.18    1.63
   0  -8   3   -1.02    1.37
  -8   0  -3   -3.36    1.39
  -7  -1  -3    2.67    1.23
  -1  -7   3    0.39    1.28
  -7  -1  -3    3.58    1.57
   7   1  -3    2.27    1.31
  -6  -2  -3    4.92    1.40
   6   2  -3   -0.69    1.14
  -6  -2  -3    2.89    1.17
  -6  -2  -3    0.32    1.06
  -2  -6   3    1.31    1.11
  -3  -5   3    4.21    1.17
  -5  -3  -3    1.53    1.30
  -5  -3  -3    0.98    1.13
   5   3  -3    0.17    1.15
  -4  -4   3    1.71    1.04
  -4  -4  -3   -0.91    1.04
   4   4  -3   -0.64    1.06
   4   4   3   -0.91    1.01
  -5  -3   3    1.87    1.10
  -3  -5  -3    1.63    1.17
   2   6  -3    5.12    1.54
   2   6  -3    0.58    1.18
  -6  -2   3    4.57    1.41
  -2  -6  -3    2.22    1.16
  -6  -2   3    0.44    1.09
  -6  -2   3    4.85    1.40
   1   7  -3    2.91    1.76
   1   7  -3    3.51    1.31
  -7  -1   3    6.60    1.65
  -1  -7  -3    4.91    1.33
  -7  -1   3    0.45    1.21
  -7  -1   3    2.71    1.63
   0  -8  -3   -1.19    1.41
  -8   0   3   -1.67    1.26
  -8   0  -4   11.00    1.50
   0  -8   4   10.27    1.46
  -1  -7   4   29.62    1.95
  -7  -1  -4   36.90    2.22
  -7  -1  -4   34.24    1.94
   7   1  -4   31.92    2.01
   1   7   4   38.50    2.53
  -6  -2  -4   41.61    2.04
  -2  -6   4   37.76    2.10
   6   2  -4   38.45    2.17
  -6  -2  -4   44.42    2.26
  -6  -2  -4   39.50    2.09
  -3  -5   4   86.52    3.73
   5   3  -4   89.00    3.80
  -5  -3  -4   90.18    3.74
  -4  -4   4   67.00    2.95
   4   4  -4   68.26    3.03
  -4  -4  -4   65.27    2.94
  -5  -3   4   81.22    3.62
  -5  -3   4   94.48    3.73
  -5  -3   4   82.05    3.68
  -3  -5  -4   87.05    3.65
  -6  -2   4   43.25    2.27
  -6  -2   4   34.01    2.00
   2   6  -4   37.05    2.09
  -2  -6  -4   36.33    2.04
   2   6  -4   42.80    2.48
  -7  -1   4   37.01    2.30
  -7  -1   4   30.69    1.90
  -7  -1   4   35.34    2.29
  -1  -7  -4   32.56    1.95
   1   7  -4   32.14    2.01
   1   7  -4   34.16    2.50
   0   8  -4   18.83    1.61
   0  -8  -4   16.60    1.55
  -8   0  -5    1.52    1.32
   8   0  -5    1.43    1.40
   0  -8   5    1.26    1.33
  -8   0  -5    2.73    2.01
   1   7   5    2.11    1.72
   7   1  -5    1.29    1.27
  -7  -1  -5   -0.17    1.20
  -1  -7   5    1.32    1.25
  -7  -1  -5    3.63    1.54
  -6  -2  -5    3.93    1.38
   2   6   5    1.41    1.44
  -6  -2  -5    2.29    1.07
   6   2  -5    0.86    1.15
  -2  -6   5    0.25    1.10
  -6  -2  -5   -0.36    1.09
   5   3  -5    3.86    1.19
  -3  -5   5    3.21    1.18
  -5  -3  -5    1.54    1.08
  -4  -4  -5    1.50    1.10
  -4  -4   5    4.61    1.21
   4   4  -5    4.91    1.15
  -4  -4   5    2.80    1.08
  -3  -5  -5    3.42    1.18
  -5  -3   5    4.87    1.30
  -5  -3   5    4.41    1.33
  -5  -3   5    1.98    1.12
   2   6  -5    3.73    1.53
  -6  -2   5    3.32    1.44
  -6  -2   5   -0.24    1.07
   2   6  -5    1.15    1.21
  -2  -6  -5    1.89    1.19
   1   7  -5    4.13    1.80
  -7  -1   5    3.32    1.67
   1   7  -5    4.03    1.35
  -1  -7  -5    3.51    1.27
  -7  -1   5    0.32    1.18
  -7  -1   5    2.85    1.64
   0  -8  -5    3.18    1.38
  -8   0   5    1.90    1.30
   0   8  -5    3.98    1.42
   0  -8   6   11.81    1.52
  -8   0  -6   19.13    1.58
  -8   0  -6   22.64    2.26
   8   0  -6   13.63    1.61
  -1  -7   6   26.76    1.83
   7   1  -6   29.28    1.92
  -7  -1  -6   33.62    2.11
  -7  -1  -6   29.18    1.83
   1   7   6   30.17    2.39
  -6  -2  -6   32.69    1.72
  -2  -6   6   29.93    1.85
   6   2  -6   31.59    1.96
  -6  -2  -6   34.05    2.01
  -6  -2  -6   32.69    1.87
   2   6   6   35.76    2.29
  -5  -3  -6   97.92    3.99
   5   3  -6  102.82    4.12
  -4  -4  -6  103.22    3.97
   4   4  -6  102.23    4.04
  -4  -4   6   85.67    3.88
  -4  -4   6   87.19    3.94
  -3  -5  -6   97.03    3.85
  -5  -3   6   84.75    3.78
  -5  -3   6   92.31    3.86
  -5  -3   6   87.54    3.85
  -6  -2   6   35.76    2.15
  -6  -2   6   27.85    1.80
   2   6  -6   31.41    1.96
   2   6  -6   34.98    2.30
  -2  -6  -6   32.46    1.87
  -7  -1   6   35.41    2.27
  -7  -1   6   23.22    1.73
   1   7  -6   29.03    1.89
  -7  -1   6   28.65    2.18
  -1  -7  -6   31.20    1.89
   1   7  -6   30.04    2.43
  -8   0   6   13.99    1.48
   0  -8  -6   14.56    1.55
   0   8  -6   15.04    1.63
   0  -8   7    2.16    1.32
  -8   0  -7    3.53    1.37
   8   0  -7    2.52    1.48
  -8   0  -7    2.92    1.79
   1   7   7    1.34    1.71
  -1  -7   7    2.51    1.23
   7   1  -7    4.34    1.37
  -7  -1  -7    3.14    1.30
  -7  -1  -7    5.35    1.58
  -6  -2  -7    2.25    1.40
  -6  -2  -7    2.52    1.17
   2   6   7    2.68    1.43
  -6  -2  -7    2.48    0.98
   6   2  -7    2.08    1.38
  -2  -6   7    1.10    1.11
   5   3  -7    3.03    1.25
  -5  -3  -7    3.48    1.22
  -3  -5   7    4.14    1.14
  -4  -4   7    4.72    1.27
   4   4  -7    4.54    1.21
  -4  -4  -7    6.68    1.28
  -4  -4   7    2.63    1.11
  -3  -5  -7    5.79    1.41
  -5  -3   7    3.68    1.44
  -5  -3   7    1.98    1.10
  -5  -3   7    3.12    1.30
   2   6  -7    2.20    1.48
  -2  -6  -7    1.75    1.19
  -6  -2   7    1.96    1.49
   2   6  -7    1.99    1.31
  -6  -2   7    0.83    1.09
   1   7  -7    5.43    1.80
  -7  -1   7    2.65    1.77
  -7  -1   7    3.00    1.23
  -1  -7  -7    3.68    1.38
   1   7  -7    4.48    1.41
  -8   0   7    5.42    1.38
   0  -8  -7    3.28    1.44
   0   8  -7    5.36    1.50
   0  -8   8   13.48    1.62
   8   0  -8   18.63    1.73
  -8   0  -8   17.15    2.04
  -8   0  -8   18.39    1.62
  -1  -7   8   30.32    1.98
   7   1  -8   34.87    2.12
  -7  -1  -8   33.40    2.18
   1   7   8   35.33    2.50
  -7  -1  -8   37.49    2.04
   6   2  -8   30.46    2.00
  -6  -2  -8   34.51    1.93
  -6  -2  -8   32.13    1.60
  -2  -6   8   30.60    1.86
  -6  -2  -8   34.97    2.08
   2   6   8   30.58    2.14
   5   3  -8   64.92    3.00
  -3  -5   8   58.66    2.87
  -5  -3  -8   68.90    2.93
  -4  -4   8   55.25    2.76
  -4  -4  -8   68.09    2.85
  -4  -4   8   57.55    2.83
   4   4  -8   65.47    2.90
  -5  -3   8   59.55    2.92
  -5  -3   8   70.60    3.17
  -3  -5  -8   68.91    3.01
  -5  -3   8   66.04    3.07
   2   6  -8   30.23    1.97
  -2  -6  -8   33.23    1.96
  -6  -2   8   31.04    2.18
  -6  -2   8   29.91    1.79
  -6  -2   8   30.53    2.04
   2   6  -8   30.85    2.22
  -7  -1   8   37.93    2.48
  -7  -1   8   29.28    1.93
   1   7  -8   35.57    2.10
  -1  -7  -8   33.03    2.01
   0   8  -8   16.10    1.69
   0  -8  -8   16.97    1.66
  -1   9  -8    8.20    1.60
  -8   0  -9    1.85    1.39
   8   0  -9    3.74    1.53
  -7  -1  -9    2.48    1.33
   1   7   9    2.50    1.73
  -1  -7   9    3.92    1.31
   7   1  -9    2.42    1.52
  -7  -1  -9    6.33    1.56
   6   2  -9    0.98    1.27
  -6  -2  -9    4.62    1.48
   2   6   9    2.76    1.44
  -6  -2  -9    0.77    0.49
  -6  -2  -9    0.84    1.25
  -2  -6   9    2.40    1.16
  -3  -5   9    3.79    1.18
  -3  -5   9    2.49    1.10
  -5  -3  -9    2.45    1.20
   5   3  -9    1.38    1.22
  -4  -4   9    2.77    1.18
  -4  -4   9    1.29    1.08
  -4  -4  -9    3.65    1.21
   4   4  -9    2.01    1.17
  -5  -3   9    3.00    1.55
  -5  -3   9    2.30    1.10
  -3  -5  -9    2.67    1.23
  -5  -3   9    3.67    1.34
   2   6  -9    1.91    1.31
   2   6  -9    1.30    1.36
  -6  -2   9    3.85    1.62
  -6  -2   9    2.34    1.14
  -2  -6  -9    3.14    1.30
  -6  -2   9    2.50    1.45
  -1  -7  -9    6.95    1.46
  -7  -1   9    6.17    1.92
  -7  -1   9    4.02    1.28
   1   7  -9    6.20    1.49
   0   8  -9    7.38    1.58
   0  -8  -9    4.25    1.52
  -1   9  -9    3.71    1.63
  -8   0 -10   16.71    1.94
   8   0 -10   11.90    1.72
  -8   0 -10   14.68    1.68
  -7  -1 -10   33.97    2.03
   7   1 -10   28.56    2.10
  -1  -7  10   27.28    1.88
  -7  -1 -10   35.21    2.12
  -6  -2 -10   25.14    1.36
  -2  -6  10   29.66    1.82
  -6  -2 -10   28.97    1.86
   2   6  10   28.98    2.08
   6   2 -10   31.15    1.97
  -3  -5  10   44.06    2.35
  -5  -3 -10   51.98    2.46
  -3  -5  10   45.35    2.37
   5   3 -10   51.27    2.54
  -4  -4  10   38.98    2.18
  -4  -4 -10   48.30    2.29
  -4  -4  10   40.07    2.23
   4   4 -10   46.18    2.37
  -5  -3  10   43.87    2.31
  -5  -3  10   51.15    2.73
  -3  -5 -10   52.13    2.45
  -5  -3  10   45.20    2.44
   3   5 -10   46.43    2.53
  -6  -2  10   29.88    2.19
  -6  -2  10   28.05    1.79
  -2  -6 -10   29.74    1.90
  -6  -2  10   29.11    2.07
   2   6 -10   29.24    2.14
   2   6 -10   26.92    1.91
  -1  -7 -10   32.77    2.05
   1   7 -10   30.95    2.14
  -7  -1  10   27.49    1.91
   0  -8 -10   13.56    1.67
   0   8 -10   13.59    1.76
  -1   9 -10    6.90    1.69
   8   0 -11    2.32    1.60
  -8   0 -11    2.86    1.93
  -8   0 -11    1.81    1.47
   7   1 -11    4.87    1.53
  -1  -7  11    3.58    1.38
  -7  -1 -11    5.73    1.65
  -7  -1 -11    3.71    1.53
   2   6  11    1.70    1.42
  -6  -2 -11    3.97    1.55
  -2  -6  11    2.63    1.18
  -6  -2 -11    1.86    1.30
   6   2 -11    0.67    1.33
  -5  -3 -11    1.46    1.23
  -3  -5  11    1.83    1.24
  -3  -5  11    0.68    1.12
   5   3 -11    1.76    1.32
  -4  -4  11    1.58    1.20
  -4  -4 -11    3.00    1.24
  -4  -4  11    2.21    1.14
   4   4 -11    1.21    1.26
  -3  -5 -11    2.30    1.25
  -5  -3  11    1.72    1.14
  -5  -3  11    2.50    1.60
   3   5 -11    1.49    1.37
  -5  -3  11    2.32    1.34
   2   6 -11    2.79    1.47
  -6  -2  11    1.75    1.16
  -6  -2  11    3.01    1.71
  -6  -2  11    0.06    1.48
  -2  -6 -11    1.31    1.29
   2   6 -11    2.92    1.39
   1   7 -11    4.04    1.57
  -1  -7 -11    4.69    1.51
   0   8 -11    4.48    1.62
   0  -8 -11    3.71    1.56
   8   0 -12    7.19    1.74
  -8   0 -12   11.74    2.00
  -8   0 -12    9.66    1.58
  -7  -1 -12   23.31    1.85
  -7  -1 -12   21.76    1.86
   7   1 -12   20.58    1.87
  -2  -6  12   13.99    1.50
  -6  -2 -12   19.93    1.66
  -6  -2 -12   20.83    1.79
   6   2 -12   18.52    1.77
  -2  -6  12   15.65    1.50
   2   6  12   18.96    1.82
  -3  -5  12   32.46    1.96
  -3  -5  12   31.82    1.96
   5   3 -12   36.26    2.16
  -4  -4  12   36.57    2.14
  -4  -4  12   38.92    2.20
   4   4 -12   40.41    2.32
  -5  -3  12   30.73    1.90
  -3  -5 -12   36.18    2.07
  -5  -3  12   34.71    2.09
   3   5 -12   33.94    2.14
  -6  -2  12   20.94    2.10
  -6  -2  12   17.35    1.55
  -2  -6 -12   17.59    1.65
   2   6 -12   19.23    1.77
   2   6 -12   18.76    1.90
   1   7 -12   19.68    1.89
  -1  -7 -12   19.81    1.81
   0   8 -12    8.91    1.75
  -8   0 -13    1.75    1.54
   8   0 -13    1.38    1.74
  -8   0 -13    5.72    2.20
  -7  -1 -13    1.48    1.48
   7   1 -13    0.70    1.54
  -7  -1 -13    3.29    1.52
  -6  -2 -13    2.08    1.36
   2   6  13    1.28    1.44
  -2  -6  13    1.01    1.24
  -6  -2 -13    2.01    1.49
   6   2 -13    0.53    1.40
  -3  -5  13    3.60    1.18
  -3  -5  13    1.81    1.16
  -5  -3 -13    0.25    1.28
   5   3 -13    3.85    1.38
  -4  -4  13    1.15    1.14
   4   4 -13    1.23    1.36
  -4  -4 -13    3.29    1.33
  -4  -4  13    2.83    1.49
  -4  -4  13    3.89    1.31
  -5  -3  13    0.92    1.14
  -3  -5 -13    1.19    1.30
   3   5 -13    0.84    1.36
  -5  -3  13    1.64    1.36
   2   6 -13    1.33    1.49
  -2  -6 -13    2.10    1.36
   2   6 -13    1.14    1.46
  -1  -7 -13    2.77    1.53
   1   7 -13    1.53    1.56
   0   8 -13    4.69    1.81
   8   0 -14    6.39    1.83
  -1  -7  14   10.14    1.42
   7   1 -14   14.45    1.83
  -7  -1 -14   13.21    1.65
  -2  -6  14   12.50    1.46
   2   6  14   13.75    1.68
   6   2 -14   12.74    1.73
  -6  -2 -14   18.08    1.68
  -6  -2 -14   16.61    1.68
  -3  -5  14   23.99    1.77
  -3  -5  14   21.77    1.69
   5   3 -14   25.73    1.94
  -5  -3 -14   27.39    1.91
  -4  -4  14   22.08    1.77
  -4  -4  14   25.36    2.01
  -4  -4  14   27.37    1.80
   4   4 -14   26.31    1.95
  -4  -4 -14   30.13    1.98
  -5  -3  14   25.42    1.92
   3   5 -14   27.22    2.02
  -3  -5 -14   26.79    1.94
   2   6 -14   11.85    1.71
  -2  -6 -14   15.43    1.65
   2   6 -14   14.74    1.76
   1   7 -14    9.24    1.77
   0   8 -14    4.93    1.87
   8   0 -15    2.32    1.80
  -1  -7  15    3.57    1.36
   7   1 -15    0.89    1.70
  -7  -1 -15    2.05    1.50
  -2  -6  15    2.80    1.24
   2   6  15    2.29    1.48
  -6  -2 -15    1.17    1.48
   6   2 -15    2.11    1.51
   5   3 -15   -0.33    1.42
  -5  -3 -15    1.57    1.43
  -3  -5  15    2.65    1.25
   4   4 -15    3.58    1.48
  -4  -4  15    2.52    1.56
  -4  -4  15    3.21    1.33
  -4  -4 -15    0.87    1.39
   3   5 -15    3.12    1.49
  -5  -3  15    2.23    1.50
   2   6 -15    2.48    1.53
   2   6 -15    2.40    1.57
   1   7 -15    2.28    1.72
   0   8 -15    1.67    1.85
   8   0 -16    4.92    1.86
   7   1 -16    6.20    1.78
  -7  -1 -16    9.79    1.60
   2   6  16   13.18    1.72
  -6  -2 -16   11.82    1.67
   6   2 -16   15.74    1.86
  -2  -6  16   11.80    1.43
   5   3 -16   28.47    1.94
  -3  -5  16   20.87    1.56
   4   4 -16   27.05    2.06
  -4  -4  16   21.73    1.77
  -5  -3  16   18.91    1.86
   3   5 -16   24.43    2.00
   2   6 -16   10.16    1.72
   2   6 -16   14.95    1.85
   1   7 -16    8.31    1.86
   0   8 -16    5.97    1.95
   8   0 -17    2.96    1.90
   7   1 -17    2.23    1.77
  -7  -1 -17    3.41    1.50
   2   6  17    1.54    1.51
  -6  -2 -17    2.48    1.53
   6   2 -17    3.02    1.68
  -2  -6  17    2.12    1.26
   5   3 -17    1.07    1.60
  -3  -5  17    2.59    1.28
   4   4 -17    2.23    1.63
  -4  -4  17    0.92    1.36
   3   5 -17    3.00    1.66
   2   6 -17    0.96    1.49
   2   6 -17   -0.23    1.64
   1   7 -17    3.12    1.83
   0   8 -17    4.81    1.92
   8   0 -18    3.45    2.01
   7   1 -18   10.85    1.97
  -7  -1 -18    9.30    1.60
   2   6  18    7.96    1.65
  -6  -2 -18    6.47    1.61
   6   2 -18   10.52    1.84
  -2  -6  18    6.68    1.37
   3   5  18   11.77    1.61
   5   3 -18   13.20    1.92
  -3  -5  18   12.45    1.48
   4   4 -18   12.82    1.88
  -4  -4  18   13.90    1.60
   3   5 -18   13.39    1.71
   3   5 -18   14.53    1.96
   2   6 -18    7.54    1.71
   2   6 -18   12.39    1.91
   1   7 -18    8.59    1.95
   0   8 -18    5.47    2.04
   8   0 -19    0.99    2.06
   7   1 -19    0.66    1.90
   2   6  19    1.33    1.56
  -6  -2 -19    1.37    1.55
   6   2 -19    0.42    1.76
  -2  -6  19    3.11    1.30
   3   5  19    0.89    1.32
   5   3 -19    2.55    1.77
  -3  -5  19    0.92    1.28
   4   4 -19    0.58    1.68
  -4  -4  19    2.12    1.44
   3   5 -19    1.93    1.41
   3   5 -19    0.46    1.70
   2   6 -19    2.53    1.62
   2   6 -19   -0.25    1.80
   1   7 -19    3.16    1.96
   0   8 -19    1.95    2.07
   8   0 -20    2.98    2.13
   7   1 -20    4.29    2.03
   2   6  20    5.18    1.54
  -6  -2 -20    7.09    1.65
   6   2 -20    6.88    1.99
   3   5  20    7.04    1.45
   5   3 -20    6.74    1.88
  -3  -5  20    6.88    1.43
   4   4 -20    2.18    1.76
  -4  -4 -20    5.05    1.02
   3   5 -20    4.27    1.41
   3   5 -20    6.92    1.86
   2   6 -20    5.84    1.66
   2   6 -20    6.84    1.99
   1   7 -20    7.20    2.09
   0   8 -20    2.61    2.14
   7   1 -21    3.73    2.08
   2   6  21    1.17    1.46
  -6  -2 -21    4.79    1.63
   6   2 -21    1.19    1.96
   3   5  21    2.66    1.35
   5   3 -21    1.76    1.84
  -3  -5  21    4.24    1.43
   4   4 -21    1.00    1.81
  -4  -4 -21    1.38    0.88
   3   5 -21    2.44    1.44
   3   5 -21    1.53    1.85
   2   6 -21    0.22    1.94
   1   7 -21    2.10    2.10
   2   6  22    3.93    1.51
   6   2 -22    4.47    2.04
   3   5  22    3.63    1.40
   5   3 -22    6.38    1.97
  -3  -5  22    5.15    1.45
   4   4 -22    5.11    1.94
  -4  -4 -22    4.17    1.04
   3   5 -22    6.47    2.03
  -3  -5 -22    2.19    1.33
   2   6 -22    5.33    2.11
   3   5  23    0.98    1.41
   5   3 -23    1.05    1.95
   4   4 -23    1.25    1.98
  -4  -4 -23    0.50    1.01
   3   5 -23    1.56    2.06
  -3  -5 -23    1.94    1.38
  -2  -6 -23    2.47    1.63
  -3  -5 -24    3.61    1.27
  -2  -6 -24    5.66    1.76
  -1  -7 -24    3.73    1.97
  -2  -6 -25    3.66    1.72
  -4  -5   0    1.40    1.23
   5   4   0    0.09    1.29
  -6  -3   0    4.56    1.47
  -6  -3   0    3.83    1.28
  -3  -6   0    4.73    1.31
  -6  -3   0    6.51    1.56
   6   3   0   -0.30    1.26
   3   6   0    1.99    1.31
  -7  -2   0    2.77    1.43
  -2  -7   0    5.58    1.45
  -7  -2   0    8.01    1.59
   2   7   0    9.91    1.53
   7   2   0    3.02    1.43
  -7  -2   0    8.69    1.72
  -8  -1   0   -1.96    1.37
  -1  -8   0    2.86    1.49
  -9   0   0    0.94    1.51
  -9   0  -1    7.89    1.55
  -1  -8   1   11.90    1.63
  -8  -1  -1   15.28    1.60
  -7  -2  -1   47.99    2.38
   7   2  -1   43.87    2.38
  -2  -7   1   39.88    2.33
  -7  -2  -1   39.47    2.27
  -7  -2  -1   47.32    2.60
   3   6   1   47.19    2.51
  -3  -6   1   42.91    2.41
  -6  -3  -1   48.24    2.46
  -6  -3  -1   52.80    2.63
   6   3  -1   47.61    2.53
  -4  -5   1   48.31    2.40
   5   4  -1   47.36    2.49
   5   4   1   49.41    2.51
  -4  -5  -1   48.42    2.44
   3   6  -1   48.51    2.50
   6   3   1   44.04    2.45
  -6  -3   1   43.49    2.40
  -3  -6  -1   47.48    2.43
  -6  -3   1   48.38    2.55
  -7  -2   1   46.28    2.49
   2   7  -1   47.52    2.49
  -7  -2   1   40.23    2.38
  -2  -7  -1   44.22    2.36
  -7  -2   1   47.52    2.65
  -8  -1   1   13.28    1.58
  -1  -8  -1   16.09    1.71
  -9   0   1    8.28    1.58
  -9   0  -2    0.98    1.55
   8   1  -2    2.10    1.42
  -1  -8   2    0.03    1.44
  -8  -1  -2   -1.85    1.43
  -7  -2  -2    3.11    1.35
  -7  -2  -2    5.15    1.34
   7   2  -2    0.98    1.44
  -2  -7   2    4.53    1.44
  -7  -2  -2    7.54    1.73
  -3  -6   2    3.88    1.33
  -6  -3  -2    6.08    1.56
  -6  -3  -2    3.97    1.30
  -6  -3  -2    6.89    1.50
  -4  -5   2    5.33    1.31
   5   4  -2   -1.24    1.30
  -5  -4   2    8.41    1.45
  -4  -5  -2    3.82    1.32
  -6  -3   2    1.23    1.26
   6   3   2    0.41    1.23
  -3  -6  -2    4.91    1.32
  -6  -3   2    4.60    1.64
   3   6  -2    2.31    1.38
  -7  -2   2    5.61    1.60
  -2  -7  -2   10.11    1.52
   2   7  -2    5.09    1.49
  -7  -2   2    1.35    1.36
  -7  -2   2    6.69    1.73
  -1  -8  -2    0.25    1.52
  -8  -1   2   -1.36    1.39
  -9   0   2    1.53    1.53
  -9   0  -3    8.69    1.63
  -8  -1  -3   11.44    1.57
   8   1  -3   14.09    1.63
  -1  -8   3    8.84    1.56
  -7  -2  -3   28.06    1.70
  -2  -7   3   27.84    1.96
  -7  -2  -3   30.54    1.93
   7   2  -3   31.45    2.05
  -6  -3  -3   45.39    2.23
  -3  -6   3   35.64    2.15
   6   3  -3   34.45    2.19
  -6  -3  -3   35.22    2.12
  -6  -3  -3   42.43    2.38
  -4  -5   3   58.44    2.83
   5   4  -3   61.16    2.92
  -4  -5  -3   66.21    3.09
  -5  -4   3   70.38    3.19
  -6  -3   3   34.47    2.11
   3   6  -3   35.50    2.18
  -3  -6  -3   36.11    2.11
  -7  -2   3   37.67    2.25
  -7  -2   3   27.45    1.98
  -2  -7  -3   32.30    2.01
  -7  -2   3   33.09    2.32
   2   7  -3   31.85    2.08
  -1  -8  -3   10.62    1.54
  -8  -1   3   10.11    1.48
   1   8  -3   13.67    1.63
  -9   0   3    8.55    1.62
  -9   0  -4   -0.23    1.57
  -8  -1  -4    2.54    1.42
   8   1  -4   -0.03    1.46
  -1  -8   4   -0.59    1.40
  -7  -2  -4    3.92    1.06
  -7  -2  -4    1.40    1.34
   7   2  -4    1.41    1.46
  -2  -7   4    1.68    1.38
  -6  -3  -4    4.63    1.60
   6   3  -4   -0.45    1.29
  -6  -3  -4    3.85    1.40
  -6  -3  -4    0.72    1.24
  -3  -6   4    2.75    1.30
  -4  -5   4    2.57    1.27
   5   4  -4    2.44    1.36
  -5  -4   4    7.06    1.51
  -4  -5  -4    2.91    1.37
   3   6  -4    1.18    1.36
  -6  -3   4    3.59    1.60
  -3  -6  -4    1.77    1.33
  -6  -3   4    1.15    1.24
  -7  -2   4    5.86    1.70
  -2  -7  -4    4.75    1.45
   2   7  -4    3.46    1.55
  -7  -2   4    1.21    1.32
  -1  -8  -4    4.40    1.49
  -8  -1   4    0.69    1.40
   1   8  -4    2.04    1.51
  -9   0   4    0.62    1.48
  -9   0  -5    8.98    1.69
   8   1  -5   13.55    1.68
  -8  -1  -5   15.08    1.61
  -1  -8   5   11.23    1.60
  -8  -1  -5   16.94    1.98
  -7  -2  -5   34.60    1.95
  -2  -7   5   29.53    2.04
   7   2  -5   33.13    2.15
  -7  -2  -5   38.94    2.35
  -7  -2  -5   33.72    2.06
  -6  -3  -5   38.77    2.06
  -3  -6   5   30.93    2.02
   6   3  -5   31.45    2.13
  -6  -3  -5   41.06    2.28
  -6  -3  -5   34.87    2.06
  -4  -5   5   54.12    2.74
   5   4  -5   60.23    2.85
  -5  -4   5   62.88    3.04
  -5  -4   5   60.38    2.95
  -4  -5  -5   59.56    2.86
  -6  -3   5   40.83    2.33
  -6  -3   5   28.76    1.96
   3   6  -5   34.30    2.13
  -3  -6  -5   35.35    2.07
  -7  -2   5   37.17    2.36
  -7  -2   5   28.47    1.96
   2   7  -5   34.01    2.14
  -2  -7  -5   32.08    2.03
   1   8  -5   16.27    1.77
  -8  -1   5   12.24    1.52
  -1  -8  -5   14.68    1.67
  -9   0   5    7.90    1.54
  -8  -1  -6    2.61    1.43
  -1  -8   6    3.95    1.44
   8   1  -6    4.02    1.61
  -8  -1  -6    4.49    1.81
  -7  -2  -6    3.26    1.21
  -7  -2  -6    2.61    1.37
  -2  -7   6    3.06    1.38
  -7  -2  -6    5.16    1.67
   7   2  -6    1.50    1.46
  -6  -3  -6    3.77    1.50
  -6  -3  -6    4.91    1.33
   6   3  -6    2.57    1.37
  -3  -6   6    0.64    1.22
  -6  -3  -6    3.00    1.30
   5   4  -6    4.69    1.40
  -4  -5   6    2.88    1.28
  -5  -4   6    5.67    1.43
  -5  -4   6    6.15    1.58
  -4  -5  -6    4.30    1.33
  -6  -3   6    5.82    1.61
  -6  -3   6    1.46    1.25
   3   6  -6    3.79    1.40
  -3  -6  -6    3.26    1.36
  -6  -3   6    5.12    1.56
   2   7  -6    5.39    1.55
  -7  -2   6    5.87    1.81
  -2  -7  -6    8.59    1.55
  -1  -8  -6    4.86    1.52
  -8  -1   6    2.32    1.39
   1   8  -6    5.18    1.63
   8   1  -7   13.60    1.74
  -1  -8   7   12.36    1.59
  -8  -1  -7   17.14    2.00
  -8  -1  -7   16.56    1.66
  -7  -2  -7   31.82    1.79
   7   2  -7   32.72    2.16
  -7  -2  -7   37.33    2.28
  -7  -2  -7   35.19    2.07
  -6  -3  -7   34.37    1.89
  -3  -6   7   26.78    1.88
   6   3  -7   30.20    2.08
  -6  -3  -7   33.83    2.15
  -6  -3  -7   31.76    1.93
  -4  -5   7   46.53    2.49
  -4  -5   7   48.37    2.53
  -4  -5  -7   57.85    2.70
  -5  -4   7   55.69    2.87
  -5  -4   7   49.60    2.67
  -6  -3   7   33.94    2.22
  -6  -3   7   24.05    1.81
   3   6  -7   31.08    2.05
  -6  -3   7   27.50    2.08
  -3  -6  -7   30.29    1.92
  -7  -2   7   34.82    2.39
  -7  -2   7   29.47    2.01
   2   7  -7   32.32    2.16
  -2  -7  -7   34.40    2.10
  -8  -1   7   14.01    1.60
   1   8  -7   14.83    1.82
  -1  -8  -7   14.95    1.70
   0   9  -7    9.02    1.79
   8   1  -8    4.66    1.63
  -8  -1  -8    3.69    1.50
  -8  -1  -8    4.71    1.83
  -2  -7   8    4.01    1.37
   7   2  -8    5.66    1.63
  -7  -2  -8    4.34    1.48
  -7  -2  -8    5.91    1.72
  -6  -3  -8    1.77    1.34
  -6  -3  -8    5.10    1.58
   6   3  -8    1.83    1.49
  -6  -3  -8    2.57    1.25
  -3  -6   8    2.29    1.29
  -4  -5   8    3.87    1.42
   5   4  -8    3.33    1.44
  -4  -5   8    2.95    1.25
  -5  -4   8    3.42    1.42
  -4  -5  -8    5.87    1.43
  -5  -4   8    6.16    1.58
  -3  -6  -8    4.16    1.42
  -6  -3   8    3.28    1.72
   3   6  -8    3.69    1.53
  -6  -3   8    2.08    1.25
  -6  -3   8    3.16    1.50
  -7  -2   8    8.02    1.89
  -7  -2   8    2.59    1.35
   2   7  -8    5.85    1.61
  -2  -7  -8    4.36    1.49
   1   8  -8    2.64    1.63
  -8  -1   8    2.65    1.40
   0   9  -8    6.01    1.79
  -8  -1  -9   18.30    2.03
   8   1  -9   14.73    1.87
  -2  -7   9   23.87    1.87
   7   2  -9   30.99    2.14
  -7  -2  -9   26.75    2.15
  -7  -2  -9   29.67    1.95
   6   3  -9   21.32    1.85
  -6  -3  -9   21.45    1.76
  -6  -3  -9   21.46    1.50
  -3  -6   9   18.36    1.63
   5   4  -9   45.68    2.44
  -4  -5   9   39.47    2.23
  -4  -5   9   40.44    2.33
  -4  -5  -9   47.42    2.47
  -5  -4   9   43.18    2.49
  -5  -4   9   40.15    2.39
   3   6  -9   20.22    1.87
  -3  -6  -9   21.69    1.77
  -6  -3   9   24.24    2.07
  -6  -3   9   17.42    1.57
  -2  -7  -9   28.30    1.95
  -7  -2   9   22.06    1.83
   2   7  -9   26.20    2.04
   1   8  -9   14.23    1.85
   0   9  -9    9.80    1.87
   8   1 -10    2.73    1.65
  -8  -1 -10    2.36    1.79
  -7  -2 -10    4.98    1.71
  -7  -2 -10    5.69    1.54
   7   2 -10    3.73    1.86
   6   3 -10    1.09    1.48
  -3  -6  10    1.50    1.34
  -6  -3 -10    1.63    1.47
  -6  -3 -10    2.40    1.06
  -3  -6  10    1.72    1.27
   5   4 -10    3.63    1.45
  -4  -5  10    4.21    1.41
  -4  -5  10    2.25    1.22
  -5  -4  10    6.18    1.63
  -4  -5 -10    1.99    1.41
  -5  -4  10    3.38    1.41
   3   6 -10   -0.26    1.46
  -6  -3  10    2.22    1.71
  -3  -6 -10    1.97    1.48
  -6  -3  10    1.29    1.24
   2   7 -10    5.68    1.71
   1   8 -10    2.10    1.70
   0   9 -10    4.60    1.84
   8   1 -11   10.00    1.84
  -8  -1 -11   12.47    1.94
   7   2 -11   21.16    2.04
  -7  -2 -11   27.16    2.07
  -6  -3 -11   13.89    1.21
  -6  -3 -11   15.18    1.66
  -3  -6  11   14.40    1.55
   6   3 -11   13.61    1.69
  -4  -5  11   28.11    1.87
  -4  -5  11   26.32    1.87
   5   4 -11   30.39    2.11
  -5  -4  11   27.72    2.13
  -4  -5 -11   30.54    2.04
  -5  -4  11   30.52    2.07
   3   6 -11   15.05    1.75
   2   7 -11   23.73    2.11
   1   8 -11    9.82    1.86
   0   9 -11    8.50    1.94
   8   1 -12    2.37    1.81
  -8  -1 -12    3.33    1.82
  -7  -2 -12    4.71    1.71
   7   2 -12    1.46    1.66
  -3  -6  12    2.77    1.43
  -6  -3 -12    1.81    0.89
   6   3 -12    1.98    1.56
  -4  -5  12    3.06    1.38
   5   4 -12    2.47    1.56
  -5  -4  12    2.07    1.45
   3   6 -12    0.23    1.50
   2   7 -12    4.50    1.72
   1   8 -12    3.57    1.83
   0   9 -12    1.54    1.85
   8   1 -13    6.87    2.17
  -8  -1 -13   10.25    1.87
  -7  -2 -13   17.07    1.91
  -2  -7  13   12.91    1.60
   7   2 -13   13.94    1.88
  -3  -6  13   12.73    1.55
   3   6  13   11.37    1.83
  -6  -3 -13    9.68    0.93
  -4  -5  13   23.92    1.84
   5   4 -13   27.88    2.13
   3   6 -13   12.93    1.91
   3   6 -13   15.00    1.83
   2   7 -13   14.21    1.97
   1   8 -13    6.29    1.96
   0   9 -13    5.09    1.95
   8   1 -14    1.89    1.89
  -8  -1 -14    3.19    1.80
  -7  -2 -14    3.99    1.72
  -2  -7  14    1.15    1.46
   7   2 -14    2.89    1.78
  -3  -6  14    0.03    1.30
   3   6  14    2.64    1.64
  -6  -3 -14    0.95    0.46
   6   3 -14    3.35    1.71
   5   4 -14    3.35    1.63
  -4  -5  14    3.54    1.42
   3   6 -14    0.56    1.63
   3   6 -14    1.04    1.64
   2   7 -14    0.31    1.71
   1   8 -14    0.75    1.95
   0   9 -14    4.08    1.98
   8   1 -15    6.22    1.97
  -7  -2 -15   13.01    1.84
  -2  -7  15    9.68    1.56
   7   2 -15   12.05    1.95
  -3  -6  15   10.17    1.52
   3   6  15   10.89    1.80
   6   3 -15   12.01    1.86
  -4  -5  15   17.88    1.74
   5   4 -15   18.90    1.98
   3   6 -15   12.03    1.86
   3   6 -15    9.61    1.87
   2   7 -15    8.67    1.95
   1   8 -15    3.75    1.98
   0   9 -15    7.36    2.09
   8   1 -16    2.56    1.97
  -7  -2 -16    2.81    1.71
  -2  -7  16    1.52    1.35
   7   2 -16    2.67    1.86
   3   6  16    1.22    1.50
   6   3 -16    1.69    1.75
  -3  -6  16    2.44    1.41
   5   4 -16    2.53    1.69
   3   6 -16    2.99    1.62
   3   6 -16    2.49    1.75
   2   7 -16    2.89    1.89
   1   8 -16    2.56    2.01
   0   9 -16    1.83    2.13
   8   1 -17    5.84    2.03
  -7  -2 -17    9.84    1.81
   7   2 -17    8.44    2.03
   3   6  17   10.98    1.73
   6   3 -17   10.40    1.94
  -3  -6  17    9.11    1.58
   5   4 -17   13.30    1.96
   3   6 -17    8.76    1.75
   3   6 -17   10.95    1.94
   2   7 -17    8.05    2.08
   1   8 -17    4.93    2.10
   8   1 -18    2.92    2.10
  -7  -2 -18    2.88    1.73
   7   2 -18    2.19    1.97
   3   6  18    2.18    1.60
   6   3 -18    2.99    1.86
   5   4 -18    2.31    1.82
   3   6 -18    2.04    1.89
   2   7 -18    2.97    2.03
   1   8 -18    1.26    2.03
   7   2 -19    8.32    2.13
   3   6  19    6.59    1.67
   6   3 -19    7.43    2.02
  -5  -4 -19    5.52    0.90
   5   4 -19    6.73    1.95
   3   6 -19    3.86    1.98
   2   7 -19    4.40    2.11
   3   6  20    0.92    1.61
   6   3 -20    4.31    2.03
  -5  -4 -20    1.66    0.76
   5   4 -20    2.11    1.95
   3   6 -20   -0.59    2.00
   3   6  21    3.31    1.65
   5   4 -21    5.78    2.08
   4   5  22   -0.63    1.56
  -4  -5 -22    1.83    1.26
  -3  -6 -23    4.04    1.59
  -2  -7 -24    2.25    1.91
   5   5   0   43.16    2.39
  -5  -5   0   39.87    2.27
   6   4   0   27.55    1.99
   4   6   0   25.88    2.02
  -6  -4   0   33.68    2.10
  -6  -4   0   26.34    1.90
  -4  -6   0   29.62    1.96
  -6  -4   0   31.52    2.23
  -7  -3   0   39.13    2.34
   7   3   0   35.34    2.27
   3   7   0   34.50    2.27
  -8  -2   0   21.78    2.11
  -8  -2  -1    4.80    1.76
   7   3  -1    4.40    1.61
  -7  -3  -1    5.87    1.66
  -4  -6   1    3.76    1.39
  -6  -4  -1    3.98    1.70
  -6  -4  -1    4.30    1.43
   6   4  -1    0.69    1.47
  -6  -4  -1    6.41    1.59
   4   6   1    1.19    1.48
   5   5   1    0.52    1.45
  -5  -5   1    4.83    1.43
   5   5  -1    1.15    1.49
  -5  -5  -1    5.84    1.47
  -6  -4   1    2.45    1.38
  -4  -6  -1    5.32    1.48
   4   6  -1    1.60    1.49
   6   4   1    0.03    1.39
  -6  -4   1    5.20    1.57
  -7  -3   1    8.16    1.76
   3   7  -1    5.80    1.68
  -8  -2   1    6.23    1.83
  -8  -2  -2   22.10    1.94
   8   2  -2   17.39    1.88
   7   3  -2   37.16    2.39
  -7  -3  -2   43.20    2.40
  -6  -4  -2   32.43    2.06
  -6  -4  -2   30.43    1.96
  -6  -4  -2   27.08    2.10
   6   4  -2   30.15    2.05
  -5  -5   2   36.50    2.23
   5   5   2   38.30    2.23
  -5  -5  -2   37.78    2.20
   5   5  -2   35.88    2.32
  -6  -4   2   25.03    1.90
  -4  -6  -2   23.60    1.89
   4   6  -2   27.42    2.01
   3   7  -2   36.36    2.34
  -7  -3   2   40.08    2.50
  -8  -2   2   21.07    2.09
   2   8  -2   15.80    1.84
   8   2  -3    3.37    1.67
  -8  -2  -3    4.86    1.65
   7   3  -3    2.55    1.61
  -7  -3  -3    7.73    1.59
  -6  -4  -3    3.75    1.64
  -6  -4  -3    1.00    1.38
  -6  -4  -3    3.43    1.55
   6   4  -3    0.54    1.50
  -4  -6   3    3.93    1.45
  -5  -5  -3    3.89    1.46
   5   5  -3    1.80    1.50
  -5  -5   3    1.39    1.44
  -4  -6  -3    3.14    1.46
  -6  -4   3    5.76    1.61
   4   6  -3    0.54    1.53
  -6  -4   3    2.17    1.38
   3   7  -3    6.42    1.72
  -7  -3   3    8.65    1.87
  -8  -2   3    4.57    1.91
   2   8  -3    4.30    1.75
  -8  -2  -4   16.59    1.70
   8   2  -4   15.39    1.85
  -7  -3  -4   33.75    2.09
   7   3  -4   31.11    2.29
  -6  -4  -4   28.94    1.99
   6   4  -4   24.89    1.96
  -6  -4  -4   24.65    2.10
  -5  -5   4   32.24    2.13
   5   5  -4   32.65    2.22
  -5  -5  -4   35.30    2.12
  -5  -5   4   35.46    2.22
  -6  -4   4   24.80    1.98
   4   6  -4   22.38    1.95
  -7  -3   4   36.19    2.44
   3   7  -4   33.62    2.36
  -8  -2   4   18.52    2.20
   2   8  -4   15.92    1.87
   9   1  -5    3.38    1.79
   8   2  -5    2.25    1.64
   7   3  -5    2.12    1.62
  -7  -3  -5    5.14    1.48
   6   4  -5    2.28    1.49
  -6  -4  -5    5.03    1.52
   5   5  -5    1.38    1.53
   4   6  -5    2.68    1.57
  -6  -4   5    2.44    1.50
  -7  -3   5    4.49    1.84
   3   7  -5    4.99    1.71
   2   8  -5    3.75    1.73
   1   9  -5    4.64    1.81
   9   1  -6    9.67    1.89
   8   2  -6   18.05    1.98
  -7  -3  -6   27.44    1.85
   7   3  -6   26.59    2.14
  -6  -4  -6   22.03    1.82
   6   4  -6   20.53    1.92
   5   5  -6   32.99    2.23
  -6  -4   6   22.43    1.99
   4   6  -6   19.15    1.88
  -7  -3   6   28.22    2.35
   3   7  -6   26.63    2.13
   2   8  -6   15.25    1.95
   1   9  -6   10.92    1.91
   9   1  -7    3.56    1.87
   8   2  -7    2.00    1.73
  -7  -3  -7    5.15    1.37
   7   3  -7    4.88    1.70
  -6  -4  -7    3.87    1.47
   6   4  -7    4.21    1.59
   5   5  -7    4.93    1.60
  -6  -4   7    4.15    1.77
   4   6  -7    2.14    1.56
   3   7  -7    5.01    1.69
   2   8  -7    3.15    1.78
   1   9  -7    3.85    1.86
   9   1  -8    7.90    1.89
   8   2  -8   17.32    1.99
  -7  -3  -8   26.87    1.76
   7   3  -8   25.43    2.13
   6   4  -8   20.52    1.97
  -6  -4  -8   23.16    1.80
   5   5  -8   36.90    2.41
   4   6  -8   19.45    1.93
   3   7  -8   23.00    2.09
   2   8  -8   15.73    1.99
   1   9  -8   10.85    1.98
   9   1  -9    1.39    1.88
   8   2  -9    4.18    1.81
  -7  -3  -9    4.70    1.25
   7   3  -9    1.40    1.69
   6   4  -9    4.03    1.67
  -6  -4  -9    2.93    1.44
   5   5  -9    1.69    1.71
   4   6  -9    3.87    1.67
   3   7  -9    4.29    1.78
   2   8  -9    5.99    1.86
   1   9  -9    5.52    1.94
   9   1 -10    7.44    1.97
   8   2 -10   10.89    1.97
  -7  -3 -10   19.25    1.34
   7   3 -10   21.42    2.09
  -6  -4 -10   19.36    1.63
   6   4 -10   14.59    1.99
   5   5 -10   24.95    2.19
   4   6 -10   13.89    2.14
   3   7 -10   21.48    2.13
   2   8 -10   12.69    2.01
   1   9 -10    5.27    2.00
   9   1 -11    2.98    1.97
   8   2 -11    3.02    1.87
  -7  -3 -11    2.74    0.99
   7   3 -11    5.08    2.06
   6   4 -11    3.12    1.74
  -6  -4 -11    4.01    1.33
   5   5 -11    0.62    1.75
   4   6 -11    1.37    1.73
   3   7 -11    5.52    1.92
   2   8 -11    4.49    1.92
   1   9 -11    3.09    1.99
   9   1 -12    4.93    1.99
   8   2 -12   10.28    2.05
   7   3 -12   16.89    2.12
   6   4 -12   11.47    1.91
  -6  -4 -12   12.65    1.38
   5   5 -12   16.83    2.00
   4   6 -12   12.37    1.94
   3   7 -12   13.88    2.11
   2   8 -12    8.61    2.04
   1   9 -12    5.24    2.06
   9   1 -13    0.04    2.01
   8   2 -13    2.11    2.05
   7   3 -13    3.98    1.89
   6   4 -13    1.93    1.75
  -6  -4 -13    2.68    1.15
   5   5 -13    4.33    1.74
   4   6 -13    2.24    1.79
   3   7 -13    4.29    1.94
   2   8 -13    2.98    1.99
   1   9 -13    2.48    2.07
   8   2 -14    6.30    2.15
   7   3 -14   11.87    2.08
  -6  -4 -14    9.70    1.21
   6   4 -14   10.81    1.96
   5   5 -14   13.77    2.07
   4   6 -14    8.45    1.90
   3   7 -14   12.98    2.14
   2   8 -14    8.76    2.28
   1   9 -14    4.36    2.16
   8   2 -15    1.34    2.06
   7   3 -15    4.21    1.94
  -6  -4 -15    3.45    0.98
   6   4 -15    2.40    1.88
   5   5 -15    1.95    1.84
   4   6 -15    3.41    1.89
   3   7 -15    2.82    1.94
   2   8 -15    2.82    2.20
   8   2 -16    4.89    2.13
   7   3 -16    8.05    2.12
   6   4 -16   10.13    2.06
   5   5 -16   13.45    2.14
   4   6 -16    8.49    2.05
   3   7 -16    6.59    2.08
   7   3 -17    1.60    2.06
   6   4 -17    4.62    2.03
   5   5 -17    4.48    2.04
   4   6 -17   -0.51    2.00
   3   7 -17    4.46    2.16
   6   4 -18    6.31    2.13
   5   5 -18    6.84    2.13
   4   6 -18    5.99    2.18
   6   5   0    2.41    1.68
   7   4   0    0.78    1.69
   4   7   0    3.89    1.72
  -8  -3   0    6.05    1.88
   8   3  -1   14.62    1.90
  -8  -3  -1   20.94    2.06
  -7  -4  -1   28.59    2.28
   7   4  -1   22.55    2.13
   6   5  -1   23.03    2.03
  -6  -5   1   30.99    2.32
   6   5   1   24.08    2.07
  -7  -4   1   27.62    2.33
   4   7  -1   25.42    2.19
  -8  -3   1   20.47    2.19
   8   3  -2    3.57    1.81
  -8  -3  -2    7.62    1.75
  -7  -4  -2    9.03    1.98
   7   4  -2    1.79    1.73
   6   5  -2    2.96    1.76
  -6  -5   2    6.55    1.93
  -7  -4   2    7.09    1.97
   4   7  -2    3.12    1.78
  -8  -3   2    5.04    1.99
   3   8  -2    5.03    1.85
   8   3  -3   16.28    1.98
  -8  -3  -3   15.54    1.79
  -7  -4  -3   21.91    2.14
   7   4  -3   17.98    2.02
   6   5  -3   18.84    1.99
  -6  -5   3   26.21    2.31
   4   7  -3   18.40    2.09
  -7  -4   3   23.97    2.27
   3   8  -3   13.58    1.99
   9   2  -4    5.61    1.95
  -8  -3  -4    4.86    1.46
   8   3  -4    0.81    1.78
  -7  -4  -4    5.70    1.85
   7   4  -4    1.31    1.77
   6   5  -4    2.55    1.75
   4   7  -4    5.43    1.89
   3   8  -4    4.62    1.85
   2   9  -4    5.41    1.90
   9   2  -5   11.24    2.09
   8   3  -5   12.08    1.94
  -8  -3  -5   10.32    1.10
  -7  -4  -5   24.68    2.07
   7   4  -5   18.89    2.12
   6   5  -5   17.15    1.97
   4   7  -5   20.62    2.16
   3   8  -5   13.01    2.02
   2   9  -5   10.21    2.07
   9   2  -6    2.39    1.93
  -8  -3  -6    4.39    1.52
   8   3  -6    3.18    1.90
   7   4  -6    4.36    1.83
  -7  -4  -6    5.80    1.74
   6   5  -6    2.63    1.74
   4   7  -6    3.07    1.79
   3   8  -6    3.26    1.89
   2   9  -6    4.74    2.00
   9   2  -7    9.10    2.08
   8   3  -7   10.87    2.03
  -7  -4  -7   21.26    1.92
   7   4  -7   21.09    2.15
   6   5  -7   16.57    2.00
   4   7  -7   16.45    2.04
   3   8  -7   13.87    2.12
   2   9  -7    9.63    2.06
   9   2  -8    4.05    2.01
   8   3  -8    5.12    1.97
  -7  -4  -8    3.81    1.56
   7   4  -8    5.05    1.87
   6   5  -8    3.64    1.81
   4   7  -8    3.41    1.86
   3   8  -8    4.63    2.00
   2   9  -8    6.11    2.12
   9   2  -9    7.40    2.13
   8   3  -9    9.97    2.03
  -7  -4  -9   16.52    1.69
   7   4  -9   15.99    2.09
   6   5  -9   16.02    2.11
   4   7  -9   17.52    2.13
   3   8  -9   10.90    2.04
   2   9  -9   11.25    2.18
   9   2 -10    3.97    2.07
   8   3 -10    2.84    1.95
  -7  -4 -10    4.49    1.49
   7   4 -10    5.56    1.98
   6   5 -10    4.58    1.93
   4   7 -10    5.05    1.97
   3   8 -10    4.19    2.01
   2   9 -10    2.54    2.13
   8   3 -11    9.82    2.09
   7   4 -11   15.19    2.16
   6   5 -11   18.22    2.21
   4   7 -11   12.55    2.12
   3   8 -11    9.87    2.09
   8   3 -12    4.07    2.10
   7   4 -12    4.80    2.05
   6   5 -12    3.61    2.25
   4   7 -12    4.24    2.01
   3   8 -12    5.55    2.13
   7   4 -13   10.97    2.48
   6   5 -13   11.19    2.12
   4   7 -13   12.47    2.38
   6   5 -14    1.33    2.05
   6   6   0   17.32    2.03
   7   5   0   15.10    2.00
   7   5  -1    1.55    1.90
   6   6  -1    5.16    1.94
   5   7  -1    3.38    1.95
  -8  -4  -2   12.97    2.06
   8   4  -2    7.72    1.96
  -7  -5  -2   18.46    2.08
   7   5  -2   17.09    2.15
   6   6  -2   16.46    2.10
   5   7  -2   14.18    2.13
   4   8  -2   10.48    2.05
  -8  -4  -3    1.87    1.88
   8   4  -3    3.98    1.99
  -7  -5  -3    6.74    1.88
   7   5  -3    3.13    1.96
   6   6  -3    1.97    1.89
   5   7  -3    4.36    1.95
   4   8  -3    3.25    2.03
  -8  -4  -4    9.15    1.90
   8   4  -4    9.68    2.04
   7   5  -4   12.83    2.13
  -7  -5  -4   15.33    1.97
   6   6  -4   11.42    2.04
   5   7  -4   10.67    2.06
   4   8  -4    5.90    1.99
   8   4  -5    3.69    2.07
  -7  -5  -5    7.57    1.84
   7   5  -5    3.08    1.97
   6   6  -5    2.21    1.96
   5   7  -5    3.82    2.04
   4   8  -5    4.23    2.06
   8   4  -6   12.15    2.15
  -7  -5  -6   14.57    1.92
   7   5  -6   13.57    2.19
   6   6  -6   12.17    2.15
   5   7  -6   13.44    2.16
   4   8  -6   11.75    2.16
   7   5  -7    5.47    2.06
  -7  -5  -7    4.22    1.75
   6   6  -7    6.36    2.03
   5   7  -7    4.71    2.04
   7   5  -8   15.37    2.21
  -7  -5  -8   15.19    1.90
   6   6  -8   12.75    2.18
   5   7  -8   14.10    2.23
   0   0   0    0.00    0.00
;
_shelx_hkl_checksum              68233
loop_
_space_group_symop_operation_xyz
'x, y, z'
'-x, -y, z'
'-y, x, z'
'y, -x, z'
'-x, y, -z'
'x, -y, -z'
'y, x, -z'
'-y, -x, -z'
'x+1/2, y+1/2, z+1/2'
'-x+1/2, -y+1/2, z+1/2'
'-y+1/2, x+1/2, z+1/2'
'y+1/2, -x+1/2, z+1/2'
'-x+1/2, y+1/2, -z+1/2'
'x+1/2, -y+1/2, -z+1/2'
'y+1/2, x+1/2, -z+1/2'
'-y+1/2, -x+1/2, -z+1/2'
loop_
_atom_site_label
_atom_site_type_symbol
_atom_site_fract_x
_atom_site_fract_y
_atom_site_fract_z
_atom_site_U_iso_or_equiv
_atom_site_adp_type
_atom_site_occupancy
_atom_site_site_symmetry_order
_atom_site_calc_flag
_atom_site_refinement_flags_posn
_atom_site_refinement_flags_adp
_atom_site_refinement_flags_occupancy
Sm1 Sm -0.500000 0.500000 -0.500000 0.0517(5) Uani 0.500(0) 8 d S T P
Rb1 Rb -0.500000 0.500000 -0.500000 0.0517(5) Uani 0.500(0) 8 d S T P
N2 N -0.9170(18) 0.500000 -0.500000 0.110(6) Uani 1 2 d S T P
O1 O -0.528(15) 0.657(4) -0.4013(10) 0.14(2) Uani 0.5 1 d . . P
N1 N -0.500000 0.500000 -0.3750(9) 0.127(9) Uani 1 4 d S T P
O4 O -0.529(7) 0.169(4) -0.5455(14) 0.072(12) Uani 0.25 1 d . . P
O5 O -0.168(4) 0.351(5) -0.505(5) 0.080(17) Uani 0.25 1 d . . P
O2 O -0.500000 0.500000 -0.3297(15) 0.23(2) Uani 1 4 d S T P
C1 C -0.500000 0.500000 -0.089(4) 0.25(3) Uiso 1 4 d S U P
C2 C -0.412(10) 0.679(8) -0.119(2) 0.26(2) Uiso 1 1 d . U .
C3 C -0.303(6) 0.420(7) -0.1677(15) 0.219(19) Uiso 1 1 d . U .
C4 C -0.500000 0.500000 -0.197(3) 0.24(2) Uiso 1 4 d S U P
loop_
_atom_site_aniso_label
_atom_site_aniso_U_11
_atom_site_aniso_U_22
_atom_site_aniso_U_33
_atom_site_aniso_U_23
_atom_site_aniso_U_13
_atom_site_aniso_U_12
Sm1 0.0399(5) 0.0399(5) 0.0753(8) 0.000 0.000 0.000
Rb1 0.0399(5) 0.0399(5) 0.0753(8) 0.000 0.000 0.000
N2 0.040(5) 0.134(15) 0.157(14) 0.02(6) 0.000 0.000
O1 0.20(7) 0.101(14) 0.112(12) -0.017(11) -0.02(3) -0.04(4)
N1 0.152(16) 0.152(16) 0.076(11) 0.000 0.000 0.000
O4 0.05(4) 0.052(12) 0.115(17) -0.030(13) 0.002(15) -0.012(14)
O5 0.061(14) 0.080(16) 0.10(5) 0.00(3) 0.03(3) 0.023(13)
O2 0.28(4) 0.28(4) 0.13(2) 0.000 0.000 0.000
loop_
_atom_type_symbol
_atom_type_description
_atom_type_scat_dispersion_real
_atom_type_scat_dispersion_imag
_atom_type_scat_source
C C 0.0033 0.0016 'International Tables Vol C Tables 4.2.6.8 and 6.1.1.4'
H H 0.0000 0.0000 'International Tables Vol C Tables 4.2.6.8 and 6.1.1.4'
N N 0.0061 0.0033 'International Tables Vol C Tables 4.2.6.8 and 6.1.1.4'
O O 0.0106 0.0060 'International Tables Vol C Tables 4.2.6.8 and 6.1.1.4'
Rb Rb -0.9393 2.9676 'International Tables Vol C Tables 4.2.6.8 and 6.1.1.4'
Sm Sm -0.1638 3.4418 'International Tables Vol C Tables 4.2.6.8 and 6.1.1.4'
loop_
_geom_angle_atom_site_label_1
_geom_angle_atom_site_label_2
_geom_angle_atom_site_label_3
_geom_angle
_geom_angle_site_symmetry_1
_geom_angle_site_symmetry_3
O5 Sm1 O5 138.5(17) 6_564 4_455
O5 Sm1 O5 174(6) 6_564 5_454
O5 Sm1 O5 41.9(18) 4_455 5_454
O5 Sm1 O5 41.9(18) 6_564 3_565
O5 Sm1 O5 174(6) 4_455 3_565
O5 Sm1 O5 138.5(17) 5_454 3_565
O5 Sm1 O5 89.8(3) 6_564 7_464
O5 Sm1 O5 131.6(17) 4_455 7_464
O5 Sm1 O5 89.8(3) 5_454 7_464
O5 Sm1 O5 48.8(19) 3_565 7_464
O5 Sm1 O5 89.8(3) 6_564 8_554
O5 Sm1 O5 48.8(19) 4_455 8_554
O5 Sm1 O5 89.8(3) 5_454 8_554
O5 Sm1 O5 131.6(17) 3_565 8_554
O5 Sm1 O5 174(6) 7_464 8_554
O5 Sm1 O5 131.6(17) 6_564 2_465
O5 Sm1 O5 89.8(3) 4_455 2_465
O5 Sm1 O5 48.8(19) 5_454 2_465
O5 Sm1 O5 89.8(3) 3_565 2_465
O5 Sm1 O5 41.9(18) 7_464 2_465
O5 Sm1 O5 138.5(17) 8_554 2_465
O5 Sm1 O5 48.8(19) 6_564 .
O5 Sm1 O5 89.8(3) 4_455 .
O5 Sm1 O5 131.6(17) 5_454 .
O5 Sm1 O5 89.8(3) 3_565 .
O5 Sm1 O5 138.5(17) 7_464 .
O5 Sm1 O5 41.9(18) 8_554 .
O5 Sm1 O5 174(6) 2_465 .
O5 Sm1 O4 29(2) 6_564 8_554
O5 Sm1 O4 117.5(19) 4_455 8_554
O5 Sm1 O4 146(3) 5_454 8_554
O5 Sm1 O4 65.3(19) 3_565 8_554
O5 Sm1 O4 106.1(19) 7_464 8_554
O5 Sm1 O4 71.3(19) 8_554 8_554
O5 Sm1 O4 144(2) 2_465 8_554
O5 Sm1 O4 40(2) . 8_554
O5 Sm1 O4 71.3(19) 6_564 6_564
O5 Sm1 O4 144(2) 4_455 6_564
O5 Sm1 O4 106.1(18) 5_454 6_564
O5 Sm1 O4 40(2) 3_565 6_564
O5 Sm1 O4 29(2) 7_464 6_564
O5 Sm1 O4 146(3) 8_554 6_564
O5 Sm1 O4 65.3(19) 2_465 6_564
O5 Sm1 O4 117.5(19) . 6_564
O4 Sm1 O4 79.6(6) 8_554 6_564
O5 Sm1 O4 144(2) 6_564 4_455
O5 Sm1 O4 71.3(19) 4_455 4_455
O5 Sm1 O4 40(2) 5_454 4_455
O5 Sm1 O4 106.1(18) 3_565 4_455
O5 Sm1 O4 65.3(19) 7_464 4_455
O5 Sm1 O4 117.5(19) 8_554 4_455
O5 Sm1 O4 29(2) 2_465 4_455
O5 Sm1 O4 146(3) . 4_455
O4 Sm1 O4 171(2) 8_554 4_455
O4 Sm1 O4 92(2) 6_564 4_455
O5 Sm1 O4 146(3) 6_564 7_464
O5 Sm1 O4 65.3(19) 4_455 7_464
O5 Sm1 O4 29(2) 5_454 7_464
O5 Sm1 O4 117.5(19) 3_565 7_464
O5 Sm1 O4 71.3(19) 7_464 7_464
O5 Sm1 O4 106.1(19) 8_554 7_464
O5 Sm1 O4 40(2) 2_465 7_464
O5 Sm1 O4 144(2) . 7_464
O4 Sm1 O4 129.6(16) 8_554 7_464
O4 Sm1 O4 79.6(6) 6_564 7_464
O4 Sm1 O4 51.3(16) 4_455 7_464
N2 N2 O5 119.5(14) 2_365 2_465
N2 N2 O5 119.5(14) 2_365 5_454
O5 N2 O5 121(3) 2_465 5_454
N2 N2 O4 118.3(12) 2_365 7_464
O5 N2 O4 90(5) 2_465 7_464
O5 N2 O4 62(6) 5_454 7_464
N2 N2 O4 118.3(12) 2_365 4_455
O5 N2 O4 62(6) 2_465 4_455
O5 N2 O4 90(5) 5_454 4_455
O4 N2 O4 123(2) 7_464 4_455
N2 N2 Sm1 180.0 2_365 .
O5 N2 Sm1 60.5(14) 2_465 .
O5 N2 Sm1 60.5(14) 5_454 .
O4 N2 Sm1 61.7(12) 7_464 .
O4 N2 Sm1 61.7(12) 4_455 .
N1 O1 O1 52.0(6) . 4_455
N1 O1 O1 52.0(6) . 3_565
O1 O1 O1 89.999(15) 4_455 3_565
N1 O1 O4 161(5) . 6_564
O1 O1 O4 113(7) 4_455 6_564
O1 O1 O4 124(5) 3_565 6_564
N1 O1 Sm1 94.3(18) . .
O1 O1 Sm1 72.5(5) 4_455 .
O1 O1 Sm1 72.5(5) 3_565 .
O4 O1 Sm1 68.5(11) 6_564 .
O2 N1 O1 119.5(14) . 3_565
O2 N1 O1 119.5(14) . 2_465
O1 N1 O1 76.0(12) 3_565 2_465
O2 N1 O1 119.5(14) . 4_455
O1 N1 O1 121(3) 3_565 4_455
O1 N1 O1 76.0(12) 2_465 4_455
O2 N1 O1 119.5(14) . .
O1 N1 O1 76.0(12) 3_565 .
O1 N1 O1 121(3) 2_465 .
O1 N1 O1 76.0(12) 4_455 .
N2 O4 O5 57(4) 3_565 4_455
N2 O4 O5 44(3) 3_565 8_554
O5 O4 O5 87(3) 4_455 8_554
N2 O4 O1 163(3) 3_565 6_564
O5 O4 O1 123(5) 4_455 6_564
O5 O4 O1 121(4) 8_554 6_564
N2 O4 Sm1 92.7(15) 3_565 .
O5 O4 Sm1 74.6(19) 4_455 .
O5 O4 Sm1 69.4(17) 8_554 .
O1 O4 Sm1 71.8(12) 6_564 .
N2 O5 O4 61(3) 2_465 3_565
N2 O5 O4 46(3) 2_465 8_554
O4 O5 O4 93(3) 3_565 8_554
N2 O5 Sm1 95.1(17) 2_465 .
O4 O5 Sm1 76(2) 3_565 .
O4 O5 Sm1 70.7(16) 8_554 .
C2 C1 C2 125(8) . 2_465
C2 C1 C2 78(3) . 3_565
C2 C1 C2 78(3) 2_465 3_565
C2 C1 C2 78(3) . 4_455
C2 C1 C2 78(3) 2_465 4_455
C2 C1 C2 125(8) 3_565 4_455
C3 C2 C1 121(7) 3_565 .
C3 C2 C2 89(5) 3_565 3_565
C1 C2 C2 51.1(16) . 3_565
C3 C2 C2 97(4) 3_565 4_455
C1 C2 C2 51.1(16) . 4_455
C2 C2 C2 90.000(8) 3_565 4_455
C2 C3 C4 111(6) 4_455 .
C3 C4 C3 129(7) 3_565 4_455
C3 C4 C3 79(3) 3_565 2_465
C3 C4 C3 79(3) 4_455 2_465
C3 C4 C3 79(3) 3_565 .
C3 C4 C3 79(3) 4_455 .
C3 C4 C3 129(7) 2_465 .
loop_
_geom_bond_atom_site_label_1
_geom_bond_atom_site_label_2
_geom_bond_distance
_geom_bond_site_symmetry_2
Sm1 O5 2.57(3) 6_564
Sm1 O5 2.57(3) 4_455
Sm1 O5 2.57(3) 5_454
Sm1 O5 2.57(3) 3_565
Sm1 O5 2.57(3) 7_464
Sm1 O5 2.57(3) 8_554
Sm1 O5 2.57(3) 2_465
Sm1 O5 2.57(3) .
Sm1 O4 2.60(3) 8_554
Sm1 O4 2.60(3) 6_564
Sm1 O4 2.60(3) 4_455
Sm1 O4 2.60(3) 7_464
N2 N2 1.17(3) 2_365
N2 O5 1.22(4) 2_465
N2 O5 1.22(4) 5_454
N2 O4 1.28(4) 7_464
N2 O4 1.28(4) 4_455
O1 N1 1.30(3) .
O1 O1 1.60(5) 4_455
O1 O1 1.60(5) 3_565
O1 O4 1.78(5) 6_564
N1 O2 1.10(4) .
O4 O5 1.29(11) 4_455
O4 O5 1.76(10) 8_554
C1 C2 1.58(6) .
C1 C2 1.58(6) 2_465
C1 C2 1.58(6) 3_565
C1 C2 1.58(6) 4_455
C2 C3 1.19(5) 3_565
C2 C2 1.99(8) 3_565
C2 C2 1.99(8) 4_455
C3 C4 1.66(5) .
