#------------------------------------------------------------------------------
#$Date: 2019-11-26 10:28:43 +0200 (Tue, 26 Nov 2019) $
#$Revision: 243233 $
#$URL: file:///home/coder/svn-repositories/cod/cif/4/13/34/4133459.cif $
#------------------------------------------------------------------------------
#
# This file is available in the Crystallography Open Database (COD),
# http://www.crystallography.net/
#
# All data on this site have been placed in the public domain by the
# contributors.
#
data_4133459
loop_
_publ_author_name
'Baxter, Amanda F.'
'Martin, Igor'
'Christe, Karl O.'
'Haiges, Ralf'
_publ_section_title
;
 Formamidinium Nitroformate: An Insensitive RDX Alternative.
;
_journal_issue                   44
_journal_name_full               'Journal of the American Chemical Society'
_journal_page_first              15089
_journal_page_last               15098
_journal_paper_doi               10.1021/jacs.8b10200
_journal_volume                  140
_journal_year                    2018
_chemical_formula_moiety         'C N3 O6, C H5 N2'
_chemical_formula_sum            'C2 H5 N5 O6'
_chemical_formula_weight         195.11
_chemical_name_common            'formamidinium nitroformate'
_chemical_name_systematic        'formamidinium nitroformate'
_space_group_crystal_system      triclinic
_space_group_IT_number           2
_space_group_name_Hall           '-P 1'
_space_group_name_H-M_alt        'P -1'
_atom_sites_solution_hydrogens   difmap
_atom_sites_solution_primary     dual
_audit_creation_date             2018-04-24
_audit_creation_method
;
Olex2 1.2
(compiled 2017.08.10 svn.r3458 for OlexSys, GUI svn.r5381)
;
_cell_angle_alpha                98.976(11)
_cell_angle_beta                 100.324(11)
_cell_angle_gamma                109.945(10)
_cell_formula_units_Z            2
_cell_length_a                   6.764(4)
_cell_length_b                   7.374(5)
_cell_length_c                   8.058(5)
_cell_measurement_reflns_used    965
_cell_measurement_temperature    100.(2)
_cell_measurement_theta_max      23.9685
_cell_measurement_theta_min      3.0242
_cell_volume                     361.3(4)
_computing_cell_refinement       'SAINT V8.37A (Bruker AXS Inc., 2015)'
_computing_data_reduction        'SAINT V8.37A (Bruker AXS Inc., 2015)'
_computing_molecular_graphics    'Olex2 (Dolomanov et al., 2009)'
_computing_publication_material  'Olex2 (Dolomanov et al., 2009)'
_computing_structure_refinement  'ShelXL (Sheldrick, 2015)'
_computing_structure_solution    'ShelXT (Sheldrick, 2015)'
_diffrn_ambient_temperature      99.99
_diffrn_detector_area_resol_mean 8.3333
_diffrn_measured_fraction_theta_full 1.000
_diffrn_measured_fraction_theta_max 0.972
_diffrn_measurement_device_type  'Bruker APEX II CCD'
_diffrn_measurement_method       'omega- and phi-scans'
_diffrn_radiation_monochromator  'TRIUMPH curved-crystal'
_diffrn_radiation_type           MoK\a
_diffrn_radiation_wavelength     0.71073
_diffrn_reflns_av_R_equivalents  0.0861
_diffrn_reflns_av_unetI/netI     0.0946
_diffrn_reflns_Laue_measured_fraction_full 1.000
_diffrn_reflns_Laue_measured_fraction_max 0.972
_diffrn_reflns_limit_h_max       9
_diffrn_reflns_limit_h_min       -9
_diffrn_reflns_limit_k_max       10
_diffrn_reflns_limit_k_min       -10
_diffrn_reflns_limit_l_max       11
_diffrn_reflns_limit_l_min       -11
_diffrn_reflns_number            9189
_diffrn_reflns_point_group_measured_fraction_full 1.000
_diffrn_reflns_point_group_measured_fraction_max 0.972
_diffrn_reflns_theta_full        27.500
_diffrn_reflns_theta_max         30.751
_diffrn_reflns_theta_min         2.643
_diffrn_source                   'fine-focus tube'
_exptl_absorpt_coefficient_mu    0.177
_exptl_absorpt_correction_T_max  0.97
_exptl_absorpt_correction_T_min  0.79
_exptl_absorpt_correction_type   multi-scan
_exptl_absorpt_process_details   'SADABS V2016/2 (Bruker AXS, 2016)'
_exptl_crystal_colour            'clear light yellow'
_exptl_crystal_colour_lustre     clear
_exptl_crystal_colour_modifier   light
_exptl_crystal_colour_primary    yellow
_exptl_crystal_density_diffrn    1.794
_exptl_crystal_density_method    'not measured'
_exptl_crystal_description       prism
_exptl_crystal_F_000             200
_exptl_crystal_size_max          0.214
_exptl_crystal_size_mid          0.16
_exptl_crystal_size_min          0.149
_refine_diff_density_max         0.297
_refine_diff_density_min         -0.362
_refine_diff_density_rms         0.081
_refine_ls_extinction_method     none
_refine_ls_goodness_of_fit_ref   0.967
_refine_ls_hydrogen_treatment    refall
_refine_ls_matrix_type           full
_refine_ls_number_parameters     138
_refine_ls_number_reflns         2204
_refine_ls_number_restraints     0
_refine_ls_restrained_S_all      0.967
_refine_ls_R_factor_all          0.1238
_refine_ls_R_factor_gt           0.0525
_refine_ls_shift/su_max          0.000
_refine_ls_shift/su_mean         0.000
_refine_ls_structure_factor_coef Fsqd
_refine_ls_weighting_details
'w=1/[\s^2^(Fo^2^)+(0.0515P)^2^] where P=(Fo^2^+2Fc^2^)/3'
_refine_ls_weighting_scheme      calc
_refine_ls_wR_factor_gt          0.0989
_refine_ls_wR_factor_ref         0.1255
_reflns_Friedel_coverage         0.000
_reflns_number_gt                1219
_reflns_number_total             2204
_reflns_threshold_expression     'I > 2\s(I)'
_cod_data_source_file            Comp2.cif
_cod_data_source_block           Comp2
_cod_database_code               4133459
_shelx_shelxl_version_number     2017/1
_shelx_space_group_comment
;
The symmetry employed for this shelxl refinement is uniquely defined
by the following loop, which should always be used as a source of
symmetry information in preference to the above space-group names.
They are only intended as comments.
;
_shelx_estimated_absorpt_t_max   0.974
_shelx_estimated_absorpt_t_min   0.963
_olex2_refinement_description
;
;
_shelx_res_file
;
TITL mo_IM04_0m_a.res in P-1
    im04.res
    created by SHELXL-2017/1 at 16:32:46 on 24-Apr-2018
CELL 0.71073 6.7637 7.374 8.0581 98.976 100.324 109.945
ZERR 2 0.0042 0.0045 0.005 0.011 0.011 0.01
LATT 1
SFAC C H N O
UNIT 4 10 10 12

L.S. 10
PLAN  20
SIZE 0.149 0.16 0.214
TEMP -173.16
LIST 4
CONF
BOND $H
fmap 2
acta 55
REM <olex2.extras>
REM <HklSrc "%.\\IM04.hkl">
REM </olex2.extras>

WGHT    0.051500
FVAR       0.96136
C1    1    0.429408    0.605448    0.756543    11.00000    0.01782    0.01707 =
         0.01637   -0.00077   -0.00284    0.01024
C2    1    0.177793    0.916924    0.301974    11.00000    0.01579    0.01800 =
         0.01471    0.00434    0.00268    0.00601
H4A   2    0.068169    1.112307    0.343557    11.00000    0.04385
H4B   2   -0.074396    0.953241    0.191972    11.00000    0.04166
H2    2    0.310550    0.985618    0.395255    11.00000    0.02125
H5A   2    0.241296    0.693895    0.228493    11.00000    0.03846
H5B   2    0.036519    0.679481    0.112375    11.00000    0.04483
N1    3    0.604176    0.673597    0.897604    11.00000    0.01475    0.01728 =
         0.01721    0.00121   -0.00020    0.00733
N2    3    0.292364    0.721809    0.748001    11.00000    0.01535    0.01643 =
         0.01397   -0.00049   -0.00143    0.00824
N3    3    0.353733    0.429091    0.636051    11.00000    0.01360    0.01864 =
         0.01602    0.00072   -0.00015    0.00635
N4    3    0.043328    1.007720    0.280437    11.00000    0.02057    0.01892 =
         0.01976   -0.00341   -0.00252    0.01139
N5    3    0.149606    0.748409    0.204954    11.00000    0.01988    0.01889 =
         0.02169   -0.00142   -0.00086    0.01177
O1    4    0.719144    0.575022    0.927181    11.00000    0.01746    0.02060 =
         0.02418    0.00096   -0.00288    0.01212
O2    4    0.640645    0.838323    0.993686    11.00000    0.02330    0.01664 =
         0.01989   -0.00579   -0.00489    0.00919
O3    4    0.149367    0.685138    0.824481    11.00000    0.02014    0.02648 =
         0.02296    0.00407    0.00554    0.01227
O4    4    0.330453    0.848717    0.663904    11.00000    0.02551    0.02282 =
         0.02728    0.01082    0.00406    0.01319
O5    4    0.179216    0.392983    0.526088    11.00000    0.01881    0.02264 =
         0.02024   -0.00365   -0.00747    0.00965
O6    4    0.451682    0.314088    0.632946    11.00000    0.02195    0.01884 =
         0.02671   -0.00450   -0.00277    0.01313
HKLF 4




REM  mo_IM04_0m_a.res in P-1
REM R1 =  0.0525 for    1219 Fo > 4sig(Fo)  and  0.1238 for all    2204 data
REM    138 parameters refined using      0 restraints

END

WGHT      0.0515      0.0000

REM Highest difference peak  0.297,  deepest hole -0.362,  1-sigma level  0.081
Q1    1   0.6175  0.3968  0.9266  11.00000  0.05    0.30
Q2    1   0.3927  0.7947  0.5082  11.00000  0.05    0.29
Q3    1   0.4087  0.3228  0.4399  11.00000  0.05    0.27
Q4    1   0.4985  0.2277  0.4561  11.00000  0.05    0.26
Q5    1   0.0996  1.1610  0.2137  11.00000  0.05    0.25
Q6    1   0.3900  0.5125  0.7237  11.00000  0.05    0.25
Q7    1   0.2873  0.5586  0.8621  11.00000  0.05    0.24
Q8    1  -0.0018  0.9166  0.3778  11.00000  0.05    0.24
Q9    1   0.2323  0.9576  0.6540  11.00000  0.05    0.24
Q10   1   0.2820  0.7069  0.4182  11.00000  0.05    0.24
Q11   1   0.4001  0.3868  0.8013  11.00000  0.05    0.24
Q12   1  -0.1439  0.9222  0.3474  11.00000  0.05    0.23
Q13   1   0.6087  0.6242  0.6859  11.00000  0.05    0.23
Q14   1   0.6384  0.5064  1.0282  11.00000  0.05    0.23
Q15   1   0.8880  0.8801  0.9769  11.00000  0.05    0.23
Q16   1   0.5197  0.9867  0.8133  11.00000  0.05    0.23
Q17   1   0.2039  0.8766  0.1014  11.00000  0.05    0.23
Q18   1  -0.0808  1.0764  0.0611  11.00000  0.05    0.23
Q19   1   0.4154  1.1451  0.3475  11.00000  0.05    0.23
Q20   1   0.2441  0.8418  0.9550  11.00000  0.05    0.23
;
_shelx_res_checksum              45916
_shelx_hkl_file
;
   1   0   0  397.95   13.05
   1   0   0  377.80   13.42
   1   0   0  360.80   13.45
   1   0   0  384.38   13.07
   1   0   0  386.31   14.51
   1   0   0  381.13   14.59
  -2   0   0  505.05   19.08
  -2   0   0  501.98   20.39
   2   0   0  531.63   21.31
   2   0   0  520.48   18.58
   2   0   0  550.97   18.49
   2   0   0  518.46   19.28
   2   0   0  535.71   21.52
  -3   0   0   31.87    4.79
  -3   0   0   29.72    6.45
   3   0   0   37.33    4.09
   3   0   0   27.74    3.64
   3   0   0   26.12    4.79
   3   0   0   43.78    7.88
   3   0   0   31.63    7.26
  -4   0   0  313.80   15.13
  -4   0   0  301.07   17.74
   4   0   0  328.60   15.44
   4   0   0  336.57   13.99
   4   0   0  325.25   18.75
   4   0   0  316.71   13.54
   4   0   0  318.48   19.45
  -5   0   0   13.25    8.02
  -5   0   0    7.80    4.72
   5   0   0   13.84    3.95
   5   0   0    8.84    5.75
   5   0   0   11.76    3.60
   5   0   0   18.50    7.96
   5   0   0   20.34    9.14
  -6   0   0   96.95   14.11
   6   0   0  104.50    7.11
   6   0   0   99.27   15.22
   6   0   0  112.20   15.39
   6   0   0   94.87    7.24
  -7   0   0   41.40   13.17
   7   0   0   32.59   12.15
   7   0   0   52.24   13.40
  -8   0   0    6.36   12.29
  -8   0   0   30.45   14.07
   8   0   0   20.65   13.10
   9  -1   0   17.22   13.80
  -9   1   0   -1.14   13.71
  -9   1   0   13.82   14.13
   8  -1   0   19.87   11.91
   8  -1   0   32.48   13.79
  -8   1   0   18.64   12.23
   7  -1   0  117.89   16.88
   7  -1   0  103.82   17.32
  -7   1   0   74.80   14.63
   6  -1   0  199.92   20.78
   6  -1   0  189.75   15.35
   6  -1   0  130.86   16.25
  -6   1   0  169.60   15.12
  -6   1   0  129.28   15.65
   5  -1   0   70.34    9.11
   5  -1   0   41.44    8.90
   5  -1   0   37.23    9.79
  -5   1   0   44.83    9.67
  -5   1   0   51.75    8.29
   4  -1   0   17.95    6.07
   4  -1   0   14.68    6.54
   4  -1   0   21.95    5.53
   4  -1   0   11.80    5.88
   3  -1   0  526.25   22.50
   3  -1   0  528.15   21.87
   3  -1   0  541.10   23.27
   3  -1   0  535.04   21.36
   3  -1   0  554.79   22.84
   2  -1   0  352.80   14.91
   2  -1   0  330.06   14.28
   2  -1   0  341.44   14.66
   2  -1   0  362.93   14.65
   2  -1   0  350.15   15.24
   1  -1   0  207.48    8.94
   1  -1   0  205.13    9.16
   1  -1   0  203.91    7.87
   1  -1   0  199.24    7.86
   1  -1   0  192.75    8.24
  -1   1   0  199.76    7.92
  -1   1   0  190.39    8.70
   0  -1   0  452.96   15.62
   0  -1   0  452.39   16.29
   0  -1   0  456.28   15.35
   0  -1   0  459.52   16.15
   0   1   0  420.61   16.08
   0   1   0  478.19   15.95
   0   1   0  415.52   16.21
  -1  -1   0  968.44   33.89
  -1  -1   0  969.76   31.46
  -1  -1   0  937.39   34.33
   1   1   0 1016.75   33.15
   1   1   0  996.44   33.93
   1   1   0  994.95   34.58
   1   1   0  986.25   33.91
   1   1   0  951.61   35.00
  -2  -1   0 1200.51   41.05
  -2  -1   0 1246.02   44.74
   2   1   0 1299.98   43.52
   2   1   0 1236.06   43.46
   2   1   0 1228.63   42.59
   2   1   0 1214.76   45.53
   2   1   0 1386.24   46.11
  -3  -1   0   17.49    5.78
  -3  -1   0    4.12    2.55
   3   1   0    7.35    5.62
   3   1   0    3.23    3.17
   3   1   0    0.01    3.13
   3   1   0   -3.91    2.84
   3   1   0   -3.42    4.93
  -4  -1   0   28.48    4.67
  -4  -1   0   25.20    8.01
   4   1   0   20.64    4.83
   4   1   0   25.21    5.70
   4   1   0   24.97    8.33
   4   1   0   22.02    4.89
   4   1   0   20.62    7.82
  -5  -1   0   53.34   11.02
   5   1   0   39.91   10.83
   5   1   0   35.84   10.75
   5   1   0   43.77    8.09
   5   1   0   41.75    6.68
  -6  -1   0   26.01   10.63
   6   1   0   22.28    5.70
   6   1   0   22.12   10.07
   6   1   0   31.99   10.95
  -7  -1   0   13.25   11.96
  -7  -1   0    9.16   11.51
   7   1   0   -1.66    9.22
  -8  -1   0   -7.12   13.03
  -8  -1   0   15.70   14.26
   8   1   0   -1.48   10.44
  -9   2   0   -6.64   11.50
   8  -2   0    2.57    9.72
   8  -2   0   -7.38    9.36
  -8   2   0   -4.94    9.95
   7  -2   0  153.18   18.11
   7  -2   0  134.34   18.54
  -7   2   0   85.23   14.54
  -7   2   0  143.20   16.04
   6  -2   0   16.37    8.48
   6  -2   0   36.94   10.87
   6  -2   0   28.45    9.12
   6  -2   0   23.57    7.89
  -6   2   0    9.72    7.62
   5  -2   0   22.34    7.91
   5  -2   0   17.74    6.94
   5  -2   0   29.89    8.07
   5  -2   0   21.76    8.16
   5  -2   0   19.97    6.47
   4  -2   0  221.72   13.84
   4  -2   0  227.79   14.58
   4  -2   0  245.14   13.73
   4  -2   0  288.49   15.46
   4  -2   0  260.01   15.07
   3  -2   0  418.19   14.88
   3  -2   0  469.21   18.20
   3  -2   0  423.03   19.26
   3  -2   0  412.04   19.41
   3  -2   0  420.67   14.99
   3  -2   0  399.40   18.89
   2  -2   0  249.08   11.07
   2  -2   0  232.96   10.21
   2  -2   0  228.03    9.98
   2  -2   0  253.69   12.09
   2  -2   0  241.93   12.12
  -2   2   0  225.46   10.29
  -2   2   0  213.60   11.60
   1  -2   0  120.78    6.29
   1  -2   0  120.48    7.84
   1  -2   0  131.64    8.26
   1  -2   0  110.70    7.91
   1  -2   0  138.72    7.99
  -1   2   0  128.16    7.74
  -1   2   0   83.83    6.61
  -1   2   0  128.37    7.72
   0  -2   0  328.41   12.96
   0  -2   0  324.33   14.59
   0  -2   0  310.66   13.49
   0  -2   0  324.31   14.21
   0   2   0  325.13   14.52
   0   2   0  321.87   14.30
   0   2   0  324.71   13.74
  -1  -2   0 1154.74   41.12
  -1  -2   0 1122.98   40.91
  -1  -2   0 1114.64   37.26
  -1  -2   0 1177.62   40.97
   1   2   0 1147.76   40.90
   1   2   0 1116.88   42.02
  -2  -2   0   16.49    4.55
  -2  -2   0   24.36    6.86
   2   2   0   13.90    4.32
   2   2   0    3.67    5.08
   2   2   0   16.26    5.70
   2   2   0   15.42    4.69
   2   2   0   16.85    4.76
  -3  -2   0    1.97    5.69
   3   2   0    6.27    5.76
   3   2   0    5.52    4.11
   3   2   0    5.99    6.19
   3   2   0    5.45    3.88
   3   2   0    5.98    4.47
  -4  -2   0   12.92    8.32
   4   2   0    8.72    7.69
   4   2   0   28.88    6.39
   4   2   0   37.35    9.49
   4   2   0   21.44    6.11
  -5  -2   0   -7.69    8.44
   5   2   0    3.21    5.25
   5   2   0   -7.96    7.31
  -6  -2   0    0.15   10.70
  -6  -2   0   15.88   12.06
   6   2   0    4.53    8.80
   6   2   0   -4.86    5.40
  -7  -2   0    2.28   11.22
  -7  -2   0  -16.45   11.05
   7   2   0    9.37    6.55
   7   2   0  -13.29    8.24
  -8  -2   0    1.78   12.89
   9  -3   0    7.59   11.17
  -9   3   0  -11.39   10.88
   8  -3   0   -1.12    9.89
  -8   3   0   -0.10    9.76
   7  -3   0  150.43   19.24
   7  -3   0  116.31   15.43
   7  -3   0  104.03   15.59
  -7   3   0  107.69   13.80
  -7   3   0  108.90   15.06
   6  -3   0   77.23   13.32
   6  -3   0   97.06   12.66
   6  -3   0   91.74   13.40
  -6   3   0  102.20   12.09
   5  -3   0    5.60    6.42
   5  -3   0   16.45    6.96
   5  -3   0   11.32    6.12
   5  -3   0    1.53    6.32
  -5   3   0   -3.46    5.18
   4  -3   0  309.06   16.11
   4  -3   0  276.07   11.47
   4  -3   0  301.84   16.56
   4  -3   0  263.96   11.18
   4  -3   0  282.65   16.84
  -4   3   0  265.53   14.47
  -4   3   0  292.71   15.87
   3  -3   0 1308.97   46.75
   3  -3   0 1350.33   44.06
   3  -3   0 1286.54   44.06
   3  -3   0 1241.66   45.01
   3  -3   0 1286.61   47.60
  -3   3   0 1272.55   44.62
  -3   3   0 1208.89   46.15
   2  -3   0  676.35   24.54
   2  -3   0  669.93   27.16
   2  -3   0  697.52   27.02
   2  -3   0  690.62   26.18
   2  -3   0  665.08   26.07
  -2   3   0  671.20   27.01
  -2   3   0  697.53   25.36
   1  -3   0 1502.38   51.36
   1  -3   0 1401.44   51.25
   1  -3   0 1478.50   51.07
  -1   3   0 1409.83   51.33
  -1   3   0 1461.99   51.10
  -1   3   0 1517.17   50.33
   0  -3   0  529.04   22.92
   0  -3   0  559.09   23.75
   0  -3   0  551.68   21.79
   0  -3   0  534.84   21.17
   0   3   0  564.52   23.55
   0   3   0  576.73   22.53
   0   3   0  527.24   23.07
  -1  -3   0  238.55   10.54
  -1  -3   0  230.66   14.36
  -1  -3   0  248.03   14.43
  -1  -3   0  235.52   14.41
   1   3   0  250.16   14.62
   1   3   0  241.45   13.32
   1   3   0  242.52   15.56
  -2  -3   0   32.03    8.33
  -2  -3   0   38.10    7.46
  -2  -3   0   32.73    7.69
   2   3   0   36.75    7.01
   2   3   0   22.46    5.65
   2   3   0   38.40    8.68
  -3  -3   0   40.84    9.59
  -3  -3   0   41.28   10.25
   3   3   0   31.55    8.81
   3   3   0   32.26    6.61
   3   3   0   26.24    7.49
  -4  -3   0   20.44   10.56
  -4  -3   0   18.16    9.16
   4   3   0   26.09    7.99
   4   3   0   26.10   10.04
   4   3   0   18.13    6.38
  -5  -3   0   76.94   16.09
  -5  -3   0   52.39   12.39
   5   3   0   66.69   14.56
   5   3   0   88.68   12.48
  -6  -3   0    9.64   10.74
  -6  -3   0    6.97   12.64
   6   3   0    8.21   10.74
   6   3   0    3.38    7.05
  -7  -3   0   10.20   12.24
  -7  -3   0   23.91   15.78
   7   3   0   24.25    8.72
   7   3   0   28.00   14.06
  -9   4   0   24.22   12.91
   8  -4   0    1.72   10.18
  -8   4   0   -2.47    9.43
   7  -4   0   -0.17    9.78
   7  -4   0   -0.40    7.85
  -7   4   0   -3.92    7.09
  -7   4   0   -1.79    8.23
   6  -4   0   20.00    9.01
   6  -4   0    9.66    8.13
   6  -4   0    1.49    6.73
  -6   4   0   13.56    7.96
  -6   4   0   11.72    7.51
   5  -4   0   76.55   10.59
   5  -4   0   68.45   11.15
   5  -4   0   76.70    6.08
   5  -4   0   69.67    6.13
   5  -4   0   75.47   11.81
  -5   4   0   75.61   10.71
  -5   4   0   70.41    9.25
   4  -4   0   -1.33    4.73
   4  -4   0    9.86    6.75
   4  -4   0   -2.13    3.23
   4  -4   0   -6.10    4.86
   4  -4   0   -4.62    2.91
  -4   4   0   -3.46    4.44
  -4   4   0    1.90    4.14
   3  -4   0  273.57   13.93
   3  -4   0  285.17   15.59
   3  -4   0  258.94   13.87
   3  -4   0  269.04   12.96
   3  -4   0  264.20   15.89
  -3   4   0  261.62   15.94
  -3   4   0  244.05   13.16
   2  -4   0   12.92    3.96
   2  -4   0   12.99    4.94
   2  -4   0   25.48    6.64
   2  -4   0   11.44    5.16
   2  -4   0   11.31    5.06
  -2   4   0   11.30    4.79
  -2   4   0   13.50    4.64
  -2   4   0   19.00    6.17
   1  -4   0   35.00    7.52
   1  -4   0   38.11    6.50
   1  -4   0   33.54    6.68
  -1   4   0   38.90    7.03
  -1   4   0   42.76    6.88
  -1   4   0   46.43    7.59
   0  -4   0  134.68   12.52
   0  -4   0  138.96    9.64
   0  -4   0  138.96   10.36
   0  -4   0  157.06   13.85
   0   4   0  162.79   12.56
   0   4   0  149.12   12.22
   0   4   0  148.60   11.45
  -1  -4   0  938.86   36.76
  -1  -4   0  909.17   37.63
  -1  -4   0  897.69   32.55
  -1  -4   0  933.20   38.66
   1   4   0  899.77   38.98
   1   4   0  912.02   36.13
   1   4   0  906.90   38.21
  -2  -4   0  158.18   15.78
  -2  -4   0  137.76   14.88
   2   4   0  106.05   11.42
   2   4   0  123.41   15.34
   2   4   0  153.49   15.36
  -3  -4   0   76.79   13.72
  -3  -4   0   59.32   12.08
   3   4   0   79.93   12.12
   3   4   0   67.04   12.64
   3   4   0   90.34   11.22
  -4  -4   0   64.51   14.85
  -4  -4   0   53.39   12.46
   4   4   0   62.45   13.17
   4   4   0   82.79   12.73
  -5  -4   0  132.45   20.57
  -5  -4   0  122.95   17.61
   5   4   0  151.32   17.23
   5   4   0  115.70   19.32
  -6  -4   0  -12.60   11.21
  -6  -4   0   -1.42   12.11
   6   4   0    1.74   10.07
   6   4   0    1.12    8.22
   9  -5   0    6.62   11.50
  -9   5   0    7.41   11.86
   8  -5   0   20.98   11.86
  -8   5   0   24.39   12.60
   7  -5   0   12.65   10.09
   7  -5   0   -4.78    8.78
  -7   5   0    0.87    8.43
   6  -5   0   -0.84    7.47
   6  -5   0   -3.55    2.95
   6  -5   0    2.96    7.95
   6  -5   0    9.65    3.71
  -6   5   0    4.97    8.00
   5  -5   0   11.36    4.83
   5  -5   0   22.65    8.64
   5  -5   0   16.09    8.48
  -5   5   0    4.81    7.17
   4  -5   0  202.05   15.28
   4  -5   0  185.91   17.43
   4  -5   0  176.03   12.69
   4  -5   0  208.16   12.66
  -4   5   0  199.75   12.79
  -4   5   0  211.88   15.61
   3  -5   0   31.53    6.53
   3  -5   0   25.33    5.01
   3  -5   0   24.83    7.59
   3  -5   0   26.78    7.31
  -3   5   0   24.95    7.56
  -3   5   0   21.52    5.59
   2  -5   0   17.28    7.04
   2  -5   0   15.29    5.93
   2  -5   0   19.78    6.51
   2  -5   0    4.92    4.76
  -2   5   0    8.97    5.16
  -2   5   0    9.89    6.77
  -2   5   0    8.98    5.63
   1  -5   0   -2.17    4.16
   1  -5   0    3.55    6.02
   1  -5   0    9.32    5.35
   1  -5   0    7.22    5.98
  -1   5   0    2.62    5.41
  -1   5   0    3.34    5.73
  -1   5   0    1.87    5.40
   0  -5   0   -1.13    5.25
   0  -5   0   -0.02    5.47
   0  -5   0    1.41    6.72
   0  -5   0    0.34    4.11
   0   5   0    3.48    6.16
   0   5   0    5.01    6.55
   0   5   0   -4.08    5.41
  -1  -5   0    3.85    7.11
  -1  -5   0   17.09    8.36
   1   5   0   28.39    9.57
   1   5   0   21.33    8.51
   1   5   0    7.88    6.71
  -2  -5   0    7.77    7.86
  -2  -5   0    5.44    8.04
   2   5   0   12.48    7.16
   2   5   0   -0.71    7.41
   2   5   0    4.22    8.49
  -3  -5   0   70.26   14.74
  -3  -5   0   84.66   14.93
   3   5   0   66.30   14.04
   3   5   0   96.99   13.03
   3   5   0   87.37   14.13
  -4  -5   0    6.50   10.70
  -4  -5   0    8.42   11.03
   4   5   0   21.30   10.56
   4   5   0   14.64   11.12
  -5  -5   0   14.16   13.15
  -5  -5   0    0.85   11.14
   5   5   0   21.90   10.69
   5   5   0   -1.36   10.81
  -6  -5   0   19.02   13.39
   9  -6   0   17.20   13.72
  -9   6   0    1.15   12.00
   8  -6   0   38.17   13.52
  -8   6   0   32.39   13.58
  -8   6   0   39.27   13.12
   7  -6   0    8.46    9.84
   7  -6   0    3.60    9.75
  -7   6   0   23.74   10.54
   6  -6   0    3.36    8.55
   6  -6   0    8.00    9.63
   6  -6   0    2.32    4.30
  -6   6   0   -2.92    7.29
   5  -6   0   16.96    8.46
   5  -6   0   18.73    6.19
   5  -6   0   13.89    8.71
  -5   6   0    6.57    7.88
   4  -6   0    7.63    7.24
   4  -6   0   -4.49    6.78
   4  -6   0   -6.41    5.05
  -4   6   0   -0.80    7.46
   3  -6   0   15.29    7.74
   3  -6   0    2.82    7.04
   3  -6   0   -1.62    5.44
  -3   6   0    3.63    5.79
  -3   6   0    4.06    7.52
   2  -6   0  476.14   25.06
   2  -6   0  406.78   23.30
   2  -6   0  479.13   25.69
  -2   6   0  467.72   24.65
  -2   6   0  459.94   23.39
   1  -6   0   -9.14    5.94
   1  -6   0   12.97    7.54
   1  -6   0    9.22    8.57
   1  -6   0   -3.36    5.32
  -1   6   0   11.39    7.03
  -1   6   0    7.41    7.13
   0  -6   0   -0.45    6.70
   0  -6   0   -1.46    6.67
   0  -6   0   -4.24    6.07
   0  -6   0    4.74    8.92
   0   6   0   -8.65    7.37
   0   6   0   -6.43    6.48
   0   6   0    9.06    7.92
  -1  -6   0   47.12   10.76
  -1  -6   0   57.94   12.16
   1   6   0   50.69   11.96
   1   6   0   70.46   14.26
   1   6   0   69.43   12.01
  -2  -6   0   11.22   10.22
  -2  -6   0    8.52    9.72
   2   6   0   13.80    9.56
   2   6   0    7.88    8.29
   2   6   0    0.21    8.24
  -3  -6   0   47.10   14.15
  -3  -6   0   91.35   16.41
   3   6   0  128.99   19.62
   3   6   0   62.40   14.59
  -4  -6   0    8.38   12.40
  -4  -6   0   42.03   14.61
   4   6   0   33.79   13.11
   4   6   0   22.31   12.94
  -5  -6   0   14.93   13.07
  -5  -6   0   30.50   15.22
   5   6   0    3.76   10.42
   8  -7   0   -4.21   11.16
  -8   7   0    3.98   10.39
  -8   7   0    4.96   11.86
   7  -7   0   -0.98    5.07
   7  -7   0   -0.18    9.29
   7  -7   0   12.68   11.18
  -7   7   0    2.90    9.20
   6  -7   0    5.05    6.07
   6  -7   0    4.36    8.41
   6  -7   0    3.62   10.59
  -6   7   0  -12.88    7.31
   5  -7   0   14.47    7.20
   5  -7   0   -4.99    8.43
   5  -7   0    4.29    8.44
  -5   7   0   11.00   10.68
   4  -7   0   11.96    9.92
   4  -7   0   33.97   10.23
   4  -7   0   14.69    7.76
  -4   7   0   24.83   10.40
   3  -7   0  482.21   29.43
   3  -7   0  589.85   29.59
   3  -7   0  573.01   30.07
  -3   7   0  588.68   30.30
   2  -7   0  206.02   20.38
   2  -7   0  170.58   19.11
   2  -7   0  177.17   18.39
  -2   7   0  217.19   20.14
  -2   7   0  227.64   20.79
   1  -7   0    4.69    8.80
   1  -7   0   -8.30    5.74
   1  -7   0   -1.35    6.87
  -1   7   0    1.79    8.79
  -1   7   0   -3.88    8.58
   0  -7   0  160.12   19.45
   0   7   0  223.65   19.98
   0   7   0  249.69   24.06
  -1  -7   0   36.01   12.95
   1   7   0   31.01   11.24
   1   7   0   41.61   12.95
  -2  -7   0   10.14   11.16
   2   7   0   -7.86   10.31
   2   7   0    8.99    9.51
   2   7   0   -3.96   10.76
  -3  -7   0    9.21   13.03
   3   7   0   16.50   13.35
   3   7   0   -4.22   10.88
  -4  -7   0    4.28   12.35
  -4  -7   0   18.18   14.85
   4   7   0   13.98   17.53
   4   7   0    0.84   10.56
   8  -8   0   10.19    4.31
   8  -8   0   12.76   13.40
  -8   8   0    5.89   12.98
  -8   8   0    6.45   12.37
   7  -8   0    5.21    6.58
   7  -8   0    6.91   10.30
   7  -8   0   10.32   12.35
  -7   8   0   16.38   11.39
   6  -8   0   70.64   14.78
   6  -8   0   69.29   16.11
   6  -8   0   34.14    9.51
  -6   8   0   46.47   13.69
   5  -8   0   10.84    9.45
   5  -8   0   22.16    8.66
   5  -8   0    4.80   10.20
  -5   8   0   12.51    9.89
   4  -8   0   -4.41    9.07
   4  -8   0   -3.33    7.17
   4  -8   0   -2.44    8.83
  -4   8   0    1.15    8.74
   3  -8   0   -2.49    8.09
   3  -8   0   19.11   10.73
   3  -8   0    1.69    7.54
  -3   8   0   10.67    9.55
   2  -8   0   34.35   11.42
   2  -8   0   33.61   12.50
   2  -8   0   66.43   12.93
  -2   8   0   55.15   12.57
   1  -8   0   48.03   13.61
  -1   8   0   42.27   11.47
   0  -8   0   16.98   11.66
   0   8   0    1.36   10.05
   0   8   0    4.15   10.88
  -1  -8   0   -6.44   11.40
   1   8   0    7.02   11.27
   1   8   0    7.42   10.17
  -2  -8   0   18.46   14.87
   2   8   0    2.25   12.76
   7  -9   0   12.22   13.13
   7  -9   0   -3.38    8.02
   7  -9   0   -0.48   12.87
  -7   9   0   -2.21   11.30
   6  -9   0    2.83   10.55
   6  -9   0  -15.12    9.99
   6  -9   0   -1.88    8.49
  -6   9   0   -5.22    9.85
   5  -9   0   -8.33   11.31
   5  -9   0   -1.35    7.87
   5  -9   0  -11.58    9.11
  -5   9   0   -1.87   10.22
   4  -9   0   -1.55   11.84
   4  -9   0  -11.19    7.60
   4  -9   0   -2.85    9.55
  -4   9   0   18.93   10.51
   3  -9   0    2.65    9.47
   3  -9   0  -15.26    9.74
   3  -9   0    3.76    9.66
  -3   9   0    4.12   10.65
   2  -9   0   98.66   18.61
  -2   9   0  140.46   19.33
   1  -9   0    3.36   12.15
  -1   9   0   -9.51   10.06
   0  -9   0   -9.85   11.35
   0   9   0   14.57   11.18
  -1  -9   0  -31.90   16.82
   1   9   0   17.39   12.27
   5 -10   0   62.92   15.40
   5 -10   0   50.34   17.54
   5 -10   0   60.69   16.51
   4 -10   0   11.99   12.49
   4 -10   0    8.26   10.96
   4 -10   0   16.46   14.13
  -4  10   0   23.42   13.50
   3 -10   0  -11.43   12.51
   3 -10   0    4.59   11.24
  -3  10   0    7.50   11.69
   2 -10   0   16.62   15.59
  -2  10   0  -17.66    9.66
  -1  10   0   35.25   14.76
  -1  10  -1   40.58   15.02
  -2  10  -1  -11.14    9.59
   2 -10   1  -12.89   11.72
  -3  10  -1   -5.05   10.79
   3 -10   1   -4.18    9.77
   3 -10   1   21.26   13.32
  -4  10  -1   58.60   17.31
  -4  10  -1   41.23   15.60
   4 -10   1   55.94   17.02
   4 -10   1   16.48   12.21
  -5  10  -1    0.93   10.96
  -5  10  -1   19.50   14.02
   5 -10   1   19.67   11.11
   5 -10   1   -9.15   12.48
   1   9  -1    2.73   11.75
  -1  -9   1  -11.67   11.35
   0   9  -1    9.34   11.33
   0  -9   1   12.64   13.00
  -1   9  -1  -18.77    8.84
   1  -9   1    7.15   11.20
  -2   9  -1    9.87   10.35
   2  -9   1   -4.44   11.06
   2  -9   1   -1.05    9.35
  -3   9  -1   -4.91   10.18
   3  -9   1   -4.02    8.83
   3  -9   1    6.06   11.52
  -4   9  -1   -9.17    9.72
   4  -9   1    3.17   11.07
   4  -9   1    1.85    8.52
  -5   9  -1   35.80   13.57
   5  -9   1   36.54   14.95
   5  -9   1   23.66   10.45
  -6   9  -1   -1.02   10.36
  -6   9  -1    2.03   13.45
   6  -9   1    2.39   12.67
   6  -9   1   -2.89    8.62
  -7   9  -1    1.82   17.06
  -7   9  -1    3.68   11.23
   7  -9   1    0.33    8.46
   7  -9   1  -10.21   11.92
   3   8  -1   -0.30   12.35
  -3  -8   1  -13.46   11.76
   2   8  -1   40.41   16.15
   2   8  -1   50.05   13.50
  -2  -8   1   33.65   14.27
   1   8  -1    9.41    9.98
   1   8  -1    2.02   10.04
  -1  -8   1    5.00   11.77
   0   8  -1   10.05   10.42
   0  -8   1    1.87    9.98
  -1   8  -1   12.49    9.04
   1  -8   1    7.66   10.24
  -2   8  -1   85.66   14.86
   2  -8   1   59.89   12.27
   2  -8   1   78.15   14.61
   2  -8   1   55.36   12.47
  -3   8  -1   -2.67    9.03
   3  -8   1   -4.40    8.87
   3  -8   1   34.34   11.24
   3  -8   1   23.69    9.32
  -4   8  -1   71.59   14.99
   4  -8   1   62.85   14.02
   4  -8   1   65.08   14.43
   4  -8   1   81.80   13.53
  -5   8  -1    6.71    9.42
   5  -8   1    9.88    9.93
   5  -8   1   -7.46    6.92
   5  -8   1    9.95    9.96
  -6   8  -1   -2.04   10.59
   6  -8   1    5.12   11.45
   6  -8   1   -9.24    6.86
  -7   8  -1    6.71   12.67
  -7   8  -1    3.69   10.59
   7  -8   1   -2.66    6.48
   7  -8   1    9.99   12.18
  -8   8  -1   40.48   14.40
  -8   8  -1   43.35   17.61
   8  -8   1   41.57   14.94
   4   7  -1   -2.94   10.10
   4   7  -1  -22.84    9.84
  -4  -7   1   -4.56   12.63
  -4  -7   1   -3.41   12.78
   3   7  -1   12.25   10.11
   3   7  -1    9.24   12.60
   3   7  -1    2.87   10.74
  -3  -7   1   -8.51   10.03
  -3  -7   1   -6.69   11.89
   2   7  -1   -1.70    8.57
   2   7  -1    9.73   10.22
   2   7  -1   -6.99    8.96
  -2  -7   1   -9.88    9.55
  -2  -7   1   -4.78   10.14
   1   7  -1   18.32   10.38
   1   7  -1   13.29    9.55
  -1  -7   1    2.17    9.44
  -1  -7   1   18.16   10.55
   0   7  -1   32.14   11.16
   0   7  -1   29.67   10.76
   0  -7   1   28.12   11.67
   0  -7   1   43.99   11.80
  -1   7  -1  426.51   25.03
   1  -7   1  403.02   25.65
   1  -7   1  392.49   22.64
   1  -7   1  355.58   24.38
  -2   7  -1  273.65   20.12
   2  -7   1  264.93   19.26
   2  -7   1  248.56   20.04
   2  -7   1  241.78   20.17
  -3   7  -1   30.81   10.34
   3  -7   1   12.58    7.28
   3  -7   1   23.12    9.37
   3  -7   1   26.96   10.01
  -4   7  -1   45.74   11.63
   4  -7   1   51.09   11.62
   4  -7   1   62.17   13.48
   4  -7   1   45.44    9.68
  -5   7  -1  145.79   17.24
   5  -7   1  135.78   18.64
   5  -7   1  139.00   14.27
   5  -7   1  157.41   18.74
  -6   7  -1   87.68   15.22
   6  -7   1   91.59   15.91
   6  -7   1   95.27   11.28
  -7   7  -1   22.97   10.86
  -7   7  -1   22.78   13.00
   7  -7   1   37.29   13.42
   7  -7   1    7.68    5.38
  -8   7  -1    8.13   11.63
   8  -7   1   23.67   13.66
   5   6  -1   87.29   18.10
   5   6  -1   69.21   15.75
  -5  -6   1   40.09   14.50
  -5  -6   1   65.17   18.04
   4   6  -1    1.18    9.29
   4   6  -1    6.56   11.72
  -4  -6   1   20.29   12.22
  -4  -6   1   -2.31   11.37
   3   6  -1    1.25    7.73
   3   6  -1   -1.57    8.96
   3   6  -1   -6.66    8.21
  -3  -6   1   -3.35    9.89
  -3  -6   1    8.28   10.06
   2   6  -1   -8.28    8.17
   2   6  -1    6.07    8.27
   2   6  -1    4.17    8.65
  -2  -6   1  -20.47    7.48
  -2  -6   1    7.93    9.58
   1   6  -1   31.63   10.74
   1   6  -1   19.77    8.85
   1   6  -1   28.18   10.13
  -1  -6   1    0.89    8.71
  -1  -6   1    5.62    9.13
   0   6  -1    8.28    7.50
   0   6  -1   15.99    8.70
   0   6  -1    9.80    7.86
   0  -6   1    9.35    7.55
   0  -6   1    1.34    8.93
   0  -6   1  -17.83   10.13
  -1   6  -1   -0.87    6.40
  -1   6  -1   20.53    7.88
   1  -6   1    3.42    5.97
   1  -6   1    7.45    6.58
   1  -6   1    0.63    7.82
   1  -6   1    5.36    7.04
  -2   6  -1  257.46   17.85
  -2   6  -1  240.84   15.40
   2  -6   1  249.58   16.37
   2  -6   1  257.51   18.66
   2  -6   1  291.68   19.06
   2  -6   1  264.46   17.42
  -3   6  -1   24.42    8.27
   3  -6   1   19.57    7.32
   3  -6   1   18.71    8.17
   3  -6   1   16.75    6.26
   3  -6   1   13.43    7.68
  -4   6  -1  276.62   19.85
   4  -6   1  242.97   18.73
   4  -6   1  291.73   17.59
   4  -6   1  272.72   19.93
  -5   6  -1   71.06   12.51
   5  -6   1   57.53    8.78
   5  -6   1   69.93   13.19
   5  -6   1   66.35   13.16
  -6   6  -1   81.62   13.74
   6  -6   1  116.82   16.91
   6  -6   1   81.93    9.01
  -7   6  -1   16.03   11.63
  -7   6  -1   24.04   10.20
   7  -6   1   21.99    4.12
   7  -6   1   20.45   11.09
  -8   6  -1  -12.81    9.14
   8  -6   1  -19.89   11.34
  -9   6  -1   22.04   14.36
   9  -6   1   29.31   15.33
   6   5  -1   29.69   14.40
   6   5  -1   13.45   20.94
  -6  -5   1   28.80   15.88
  -6  -5   1    9.98   13.22
   5   5  -1   46.87   11.97
   5   5  -1   36.86   13.09
  -5  -5   1   23.40   13.31
  -5  -5   1   69.55   17.28
   4   5  -1  307.68   30.05
   4   5  -1  320.64   23.37
  -4  -5   1  309.80   24.72
  -4  -5   1  323.90   29.34
   3   5  -1   40.55   10.58
   3   5  -1   67.84   13.92
   3   5  -1   43.17   10.09
  -3  -5   1   53.77   12.18
  -3  -5   1   37.10   12.26
   2   5  -1    3.61    7.66
   2   5  -1   -4.66    5.65
   2   5  -1   -1.59    6.54
  -2  -5   1    6.68    8.84
  -2  -5   1    5.89    8.55
   1   5  -1    4.11    7.23
   1   5  -1   13.07    6.99
   1   5  -1    0.01    6.06
  -1  -5   1    2.45    6.08
  -1  -5   1    6.11    7.82
  -1  -5   1    3.26    7.62
   0   5  -1  185.23   14.26
   0   5  -1  201.58   16.01
   0   5  -1  178.87   15.35
   0  -5   1  156.45   14.80
   0  -5   1  185.47   16.30
   0  -5   1  199.65   12.25
   0  -5   1  191.50   14.44
  -1   5  -1  194.76   15.64
  -1   5  -1  189.50   14.36
  -1   5  -1  153.71   12.06
   1  -5   1  142.92   13.65
   1  -5   1  194.52   13.92
   1  -5   1  174.06   12.31
  -2   5  -1  147.83    9.57
  -2   5  -1  151.26   13.77
  -2   5  -1  142.62   12.86
   2  -5   1  125.92   12.47
   2  -5   1  157.68   11.92
   2  -5   1  152.02   13.78
   2  -5   1  130.30   13.33
  -3   5  -1    2.30    5.75
  -3   5  -1   -2.79    3.16
   3  -5   1    6.07    6.01
   3  -5   1   -3.91    4.26
   3  -5   1   -0.64    4.21
   3  -5   1   12.53    6.00
  -4   5  -1   84.10   11.20
   4  -5   1   71.06    8.73
   4  -5   1   65.09   11.42
   4  -5   1   62.65    9.35
   4  -5   1   88.27   12.42
  -5   5  -1   35.44    8.38
   5  -5   1   35.74   10.24
   5  -5   1   53.60   11.05
   5  -5   1   30.19    8.90
   5  -5   1   26.40    5.95
  -6   5  -1  199.88   22.14
  -6   5  -1  164.62   16.88
   6  -5   1  164.25   16.95
   6  -5   1  169.75   11.83
   6  -5   1  150.68    9.74
   6  -5   1  167.28   18.27
  -7   5  -1  -10.75    8.80
  -7   5  -1    5.14    8.06
   7  -5   1   -6.76    9.30
  -8   5  -1   -1.71    9.88
   8  -5   1   18.04   12.86
  -9   5  -1   23.72   13.68
   9  -5   1   17.42   14.90
   6   4  -1    1.54    9.41
   6   4  -1    4.80    8.18
  -6  -4   1    9.43   11.56
  -6  -4   1   -5.33   11.59
   5   4  -1   -4.52    6.63
   5   4  -1   19.60   10.12
  -5  -4   1   -2.54    9.29
  -5  -4   1    1.50   10.65
   4   4  -1    1.09    8.42
   4   4  -1    8.11    7.03
   4   4  -1    6.68    7.08
  -4  -4   1   14.29   10.56
  -4  -4   1    8.41    9.62
   3   4  -1    2.18    7.56
   3   4  -1   18.66    7.73
   3   4  -1    4.97    6.19
  -3  -4   1    2.95    8.15
  -3  -4   1   -5.27    8.15
   2   4  -1   45.43    8.34
   2   4  -1   17.94    8.01
   2   4  -1   34.57    8.10
  -2  -4   1   37.00    9.06
  -2  -4   1   44.63    9.96
   1   4  -1  357.50   20.33
   1   4  -1  381.56   20.53
   1   4  -1  362.42   15.04
   1   4  -1  377.48   19.38
  -1  -4   1  391.51   20.05
  -1  -4   1  383.82   20.59
  -1  -4   1  374.26   19.72
   0   4  -1   -2.65    4.62
   0   4  -1   -2.95    4.63
   0   4  -1    1.82    4.71
   0  -4   1   -6.95    5.32
   0  -4   1    7.39    4.06
   0  -4   1   -8.43    4.26
   0  -4   1    4.49    4.56
  -1   4  -1    2.55    4.96
  -1   4  -1    2.14    3.80
  -1   4  -1   -8.26    3.49
   1  -4   1   -1.03    5.09
   1  -4   1   -1.49    3.81
   1  -4   1    4.22    4.73
   1  -4   1    0.47    4.01
  -2   4  -1   29.40    6.48
  -2   4  -1   31.00    4.47
  -2   4  -1   29.26    5.84
   2  -4   1   30.91    5.95
   2  -4   1   43.12    6.58
   2  -4   1   27.09    6.50
   2  -4   1   36.00    7.01
   2  -4   1   26.76    5.80
  -3   4  -1  257.54   11.40
  -3   4  -1  257.11   15.01
   3  -4   1  270.16   14.16
   3  -4   1  243.31   15.56
   3  -4   1  273.10   14.19
   3  -4   1  268.36   14.02
   3  -4   1  268.95   16.42
  -4   4  -1  211.69   13.74
  -4   4  -1  187.06   10.49
   4  -4   1  206.91   13.94
   4  -4   1  199.41   11.26
   4  -4   1  192.10   15.14
   4  -4   1  211.54   15.30
   4  -4   1  183.47   11.10
  -5   4  -1   -7.88    5.10
   5  -4   1   -1.18    6.30
   5  -4   1   -5.73    6.62
   5  -4   1   -0.42    2.98
   5  -4   1   -1.02    3.14
  -6   4  -1  162.82   18.13
  -6   4  -1  188.43   16.26
   6  -4   1  173.40   18.88
   6  -4   1  188.08   18.69
  -7   4  -1   44.32   12.67
   7  -4   1   62.16   14.78
   7  -4   1   54.80   12.82
  -8   4  -1   -6.04    9.35
   8  -4   1   10.45   12.25
   8  -4   1   -2.32    9.26
  -9   4  -1   49.47   16.57
   7   3  -1   24.07   13.18
  -7  -3   1   69.83   19.57
  -7  -3   1    5.00   11.93
   6   3  -1   34.83    9.20
   6   3  -1   23.53   11.28
  -6  -3   1   26.05   11.65
  -6  -3   1   44.24   15.17
   5   3  -1   17.66    7.49
   5   3  -1   12.46    9.61
   5   3  -1   11.60    6.79
  -5  -3   1   15.19   11.30
  -5  -3   1   18.31   10.65
   4   3  -1   14.15    6.64
   4   3  -1   23.42    7.41
   4   3  -1   13.09    8.94
  -4  -3   1   13.96    8.71
  -4  -3   1   14.21   10.19
   3   3  -1    4.55    5.20
   3   3  -1    6.60    5.33
   3   3  -1    3.41    6.67
  -3  -3   1    1.92    6.46
  -3  -3   1   -1.82    6.83
   2   3  -1    6.53    4.82
   2   3  -1    9.76    4.99
   2   3  -1    5.80    5.69
  -2  -3   1    1.66    4.39
  -2  -3   1   10.59    5.70
  -2  -3   1   -2.05    6.01
   1   3  -1   11.05    2.80
   1   3  -1   14.44    5.40
   1   3  -1   -0.97    4.52
   1   3  -1    3.00    4.42
  -1  -3   1   11.13    4.80
  -1  -3   1   -4.82    5.67
  -1  -3   1  -16.82    5.37
   0   3  -1   20.05    5.70
   0   3  -1   14.86    5.10
   0   3  -1   22.83    5.09
   0  -3   1   15.23    4.93
   0  -3   1   21.79    4.41
   0  -3   1   20.73    5.48
   0  -3   1   39.66    6.39
  -1   3  -1   44.82    4.81
  -1   3  -1   49.21    6.71
  -1   3  -1   40.38    6.06
   1  -3   1   44.99    6.15
   1  -3   1   54.00    6.65
   1  -3   1   46.29    6.53
   1  -3   1   39.90    6.57
  -2   3  -1  225.13   12.61
  -2   3  -1  219.91    8.95
   2  -3   1  239.34   12.36
   2  -3   1  224.96   12.03
   2  -3   1  197.47   12.78
   2  -3   1  236.83   11.93
   2  -3   1  238.84   13.26
  -3   3  -1   81.17    5.91
  -3   3  -1   77.49    8.53
   3  -3   1   85.53    9.88
   3  -3   1   86.60    7.18
   3  -3   1   79.64    9.72
   3  -3   1   86.24    7.00
   3  -3   1   89.18    9.29
  -4   3  -1  108.70   10.34
   4  -3   1  127.30   12.94
   4  -3   1  121.48    7.33
   4  -3   1  114.47   11.75
   4  -3   1  128.42    8.82
   4  -3   1  111.43    7.20
  -5   3  -1   23.55    6.55
  -5   3  -1   38.31    9.06
   5  -3   1   31.43    3.54
   5  -3   1   38.59   10.09
   5  -3   1   58.72   10.16
   5  -3   1   37.85    7.75
  -6   3  -1  613.57   32.18
  -6   3  -1  620.95   28.45
   6  -3   1  646.65   30.08
   6  -3   1  592.12   32.74
   6  -3   1  666.88   32.75
  -7   3  -1    7.27    9.55
   7  -3   1   16.24    9.96
   7  -3   1   48.22   12.79
  -8   3  -1    7.19   11.54
   8  -3   1   22.54   12.36
  -9   3  -1    3.88   12.47
   9  -3   1  -12.21   10.14
   8   2  -1   22.87    6.23
   7   2  -1   13.81   10.90
   7   2  -1   21.30    6.70
  -7  -2   1   10.17   11.70
  -7  -2   1    5.28   13.06
   6   2  -1   42.10   11.95
   6   2  -1   28.64    7.09
  -6  -2   1   23.39   12.50
  -6  -2   1   25.17   10.32
   5   2  -1   40.87    8.21
   5   2  -1   33.75   10.13
   5   2  -1   44.53    7.49
  -5  -2   1   21.49    9.19
  -5  -2   1   37.21   12.33
   4   2  -1  346.71   18.73
   4   2  -1  361.63   23.06
   4   2  -1  386.30   18.69
  -4  -2   1  383.01   23.64
  -4  -2   1  389.27   21.93
   3   2  -1   10.71    6.49
   3   2  -1    3.92    3.57
   3   2  -1   -6.27    3.32
   3   2  -1    3.15    3.93
  -3  -2   1   -0.09    5.14
  -3  -2   1    4.64    6.28
   2   2  -1   35.19    5.85
   2   2  -1   39.10    7.24
   2   2  -1   31.18    5.65
   2   2  -1   39.93    5.94
  -2  -2   1   36.49    5.88
  -2  -2   1   52.16    7.56
  -2  -2   1   50.11    8.52
   1   2  -1  354.40   15.97
   1   2  -1  351.62   15.46
   1   2  -1  339.55   12.00
   1   2  -1  309.65   15.47
  -1  -2   1  342.35   15.15
  -1  -2   1  348.07   16.02
  -1  -2   1  327.74   15.41
   0   2  -1  411.58   17.13
   0   2  -1  426.69   16.83
   0   2  -1  357.07   15.79
   0   2  -1  430.73   15.82
   0  -2   1  436.09   17.01
   0  -2   1  402.38   17.23
   0  -2   1  405.97   16.64
  -1   2  -1   10.32    3.84
  -1   2  -1    7.55    3.62
   1  -2   1    7.28    3.22
   1  -2   1    5.81    3.76
   1  -2   1   10.10    3.54
   1  -2   1    4.79    4.16
   1  -2   1    8.68    4.02
  -2   2  -1   28.29    4.75
   2  -2   1   28.05    4.05
   2  -2   1   31.81    6.19
   2  -2   1   32.67    5.49
   2  -2   1   31.37    3.42
   2  -2   1   25.28    3.99
  -3   2  -1  603.71   24.50
  -3   2  -1  621.59   26.67
   3  -2   1  627.60   26.55
   3  -2   1  669.92   27.33
   3  -2   1  656.82   23.10
   3  -2   1  644.21   23.00
   3  -2   1  664.08   24.50
  -4   2  -1    3.47    4.91
  -4   2  -1    2.90    3.89
   4  -2   1    4.12    5.68
   4  -2   1    4.94    5.88
   4  -2   1    4.94    2.49
   4  -2   1    3.84    2.26
   4  -2   1    1.13    4.16
  -5   2  -1  999.54   40.27
  -5   2  -1  944.73   36.27
   5  -2   1  931.86   41.12
   5  -2   1  962.95   40.86
   5  -2   1  947.90   38.82
  -6   2  -1   69.97   11.46
   6  -2   1   72.49   12.06
   6  -2   1   75.28   13.38
  -7   2  -1    5.46    7.81
  -7   2  -1   12.71   10.74
   7  -2   1   20.88   10.82
   7  -2   1   10.15    8.90
  -8   2  -1   39.83   14.61
   8  -2   1   69.67   16.40
  -9   2  -1   40.25   14.38
   9  -2   1   76.14   18.29
   8   1  -1   -2.94    9.59
  -8  -1   1  -10.04   11.93
   7   1  -1   59.57    6.71
   7   1  -1   41.52   14.09
  -7  -1   1   27.72   12.37
  -7  -1   1   73.43   17.41
   6   1  -1   -3.17    6.09
   6   1  -1   13.71    9.39
  -6  -1   1   -3.80    8.51
  -6  -1   1    0.92    9.55
   5   1  -1    3.04    5.61
   5   1  -1    5.75    4.04
   5   1  -1    3.00    6.80
  -5  -1   1    4.08    8.53
  -5  -1   1   -1.27    6.94
   4   1  -1  569.82   21.95
   4   1  -1  539.12   23.28
   4   1  -1  535.76   22.13
   4   1  -1  580.53   27.21
  -4  -1   1  536.20   27.06
  -4  -1   1  516.96   20.15
  -4  -1   1  509.72   24.69
   3   1  -1  480.45   20.16
   3   1  -1  475.35   19.19
   3   1  -1  485.63   19.38
   3   1  -1  484.04   23.00
  -3  -1   1  454.87   17.13
  -3  -1   1  486.34   22.85
  -3  -1   1  483.51   21.15
   2   1  -1  616.04   20.77
   2   1  -1  636.26   23.21
   2   1  -1  590.06   25.56
   2   1  -1  645.81   23.77
   2   1  -1  661.75   23.44
  -2  -1   1  587.76   23.93
  -2  -1   1  622.89   25.44
   1   1  -1   16.20    4.13
   1   1  -1   26.23    5.12
   1   1  -1   22.53    2.41
   1   1  -1   18.47    3.77
   1   1  -1   17.43    3.82
  -1  -1   1   26.37    5.13
  -1  -1   1   18.26    3.75
  -1  -1   1   19.28    3.70
   0   1  -1  215.18    9.67
   0   1  -1  215.34    9.42
   0   1  -1  220.06    9.03
   0   1  -1  215.15    8.68
   0  -1   1  224.43    9.08
   0  -1   1  227.28   10.06
   0  -1   1  216.46    9.59
  -1   1  -1  492.27   19.54
  -1   1  -1  524.57   19.09
  -1   1  -1  482.32   18.26
   1  -1   1  565.36   19.10
   1  -1   1  541.68   18.96
   1  -1   1  502.06   19.72
   1  -1   1  530.67   17.86
   1  -1   1  544.66   20.15
  -2   1  -1 1858.08   64.29
  -2   1  -1 1908.62   62.30
   2  -1   1 1988.64   65.06
   2  -1   1 1884.30   62.36
   2  -1   1 1923.94   62.35
   2  -1   1 1911.54   65.38
   2  -1   1 1919.25   63.39
  -3   1  -1   22.37    5.42
   3  -1   1    9.54    5.99
   3  -1   1   15.67    3.04
   3  -1   1   13.10    3.96
   3  -1   1   20.93    5.97
   3  -1   1   18.37    3.42
   3  -1   1   17.01    5.39
  -4   1  -1  144.17   10.78
   4  -1   1  123.99    7.25
   4  -1   1  117.35   12.06
   4  -1   1  130.14    8.73
   4  -1   1  127.25    7.11
   4  -1   1  123.97   12.64
   4  -1   1  100.13   12.32
  -5   1  -1    2.18    7.34
  -5   1  -1   14.47    6.25
   5  -1   1    7.16    7.36
   5  -1   1    3.80    2.87
   5  -1   1    8.03    6.57
   5  -1   1   11.81    4.78
   5  -1   1   10.23    3.20
  -6   1  -1   12.79    9.05
  -6   1  -1   16.19    7.19
   6  -1   1    5.67    8.17
   6  -1   1    8.81    7.52
  -7   1  -1   92.65   15.67
   7  -1   1  138.95   18.36
   7  -1   1  122.91   18.74
  -8   1  -1   -6.15   10.10
   8  -1   1   -9.04   10.20
   8  -1   1    5.52   10.09
   8   0  -1  106.39   19.24
  -8   0   1   22.86   15.95
  -8   0   1   84.64   18.15
   7   0  -1   -0.14    8.74
  -7   0   1    2.19    8.98
  -7   0   1    1.76    9.54
   6   0  -1    8.98    7.14
   6   0  -1    0.98    7.70
  -6   0   1    5.71    7.34
   5   0  -1    0.40    6.33
   5   0  -1   -2.11    5.49
   5   0  -1   -1.80    6.30
   5   0  -1   -5.43    2.39
   5   0  -1   -3.45    2.76
  -5   0   1   -2.28    4.22
  -5   0   1    7.13    6.22
   4   0  -1   44.35    8.37
   4   0  -1   21.65    3.33
   4   0  -1   23.29    5.05
   4   0  -1   24.81    5.85
   4   0  -1   11.59    6.61
   4   0  -1   19.79    3.30
  -4   0   1   23.71    6.26
   3   0  -1   93.48    9.80
   3   0  -1   67.38    5.05
   3   0  -1   82.91    9.25
   3   0  -1   73.25    7.92
   3   0  -1   79.91    5.20
   3   0  -1   88.89    6.52
  -3   0   1   68.30    7.59
   2   0  -1  613.77   21.39
   2   0  -1  572.61   23.45
   2   0  -1  608.52   20.53
   2   0  -1  576.38   22.33
   2   0  -1  588.85   20.57
  -2   0   1  593.69   21.61
   1   0  -1  318.45   12.22
   1   0  -1  318.07   13.70
   1   0  -1  338.92   12.49
   1   0  -1  329.42   12.23
   1   0  -1  358.90   13.08
  -1   0   1  327.55   12.94
   0   0  -1    5.93    1.52
   0   0  -1    7.19    2.20
   0   0  -1    3.14    2.10
   0   0  -1    6.65    1.92
   0   0   1    4.87    1.87
   0   0   1    5.15    2.33
   0   0   1    5.36    2.09
  -1   0  -1   82.66    6.71
  -1   0  -1   78.52    6.34
  -1   0  -1   75.96    6.26
   1   0   1   87.75    6.27
   1   0   1   81.96    6.15
   1   0   1   82.32    6.87
   1   0   1   93.75    7.82
  -2   0  -1 1141.99   41.42
  -2   0  -1 1153.31   39.92
   2   0   1 1135.21   37.76
   2   0   1 1142.51   39.44
   2   0   1 1168.26   41.66
   2   0   1 1173.53   39.72
   2   0   1 1143.96   42.30
  -3   0  -1  211.67   11.49
  -3   0  -1  216.91   13.99
   3   0   1  202.27   13.42
   3   0   1  227.32   14.60
   3   0   1  218.68   10.03
   3   0   1  219.66   11.15
   3   0   1  222.49   10.97
  -4   0  -1   11.85    4.86
  -4   0  -1   12.08    7.31
   4   0   1   27.04    8.10
   4   0   1   21.47    4.60
   4   0   1   20.56    4.66
   4   0   1   15.32    4.33
   4   0   1   18.59    7.15
  -5   0  -1   22.07    6.56
  -5   0  -1   23.24    9.00
   5   0   1   18.53    4.80
   5   0   1    9.98    8.40
   5   0   1   19.35    8.99
   5   0   1   27.70    5.60
  -6   0  -1  204.79   20.27
   6   0   1  170.23   11.18
   6   0   1  159.34   20.24
   6   0   1  207.62   21.02
  -7   0  -1   30.84   12.71
   7   0   1   28.66   11.66
   7   0   1   15.77   12.06
   7   0   1   24.58    4.72
  -8   0  -1    2.90   11.71
   8   0   1   -3.42   10.31
   8   0   1   16.20   12.20
   9  -1  -1   13.02   13.40
  -9   1   1   11.56   13.29
   8  -1  -1   -3.36   10.67
  -8   1   1   -6.85   10.17
  -8   1   1    5.72    9.99
   7  -1  -1   51.28   12.60
   7  -1  -1   61.84   15.60
  -7   1   1   45.47   11.51
   6  -1  -1  211.63   19.99
   6  -1  -1  212.63   15.86
   6  -1  -1  186.19   19.39
  -6   1   1  195.51   17.79
  -6   1   1  176.59   14.36
   5  -1  -1   99.54   12.29
   5  -1  -1   95.11   12.65
   5  -1  -1   97.99   10.62
   5  -1  -1   95.73   10.77
  -5   1   1  115.66   11.89
   4  -1  -1   -3.46    3.83
   4  -1  -1   -3.42    4.60
   4  -1  -1   -0.56    4.45
   4  -1  -1   -1.67    4.93
   4  -1  -1   -4.84    4.32
   3  -1  -1  162.42    9.81
   3  -1  -1  142.76   10.04
   3  -1  -1  170.43   10.45
   3  -1  -1  175.02   11.10
   3  -1  -1  182.25   11.87
   2  -1  -1    6.17    1.90
   2  -1  -1    4.85    3.84
   2  -1  -1   13.28    3.95
   2  -1  -1    2.24    1.90
   2  -1  -1    4.45    3.37
   2  -1  -1    6.96    3.38
   2  -1  -1    3.63    3.92
   1  -1  -1  553.41   19.54
   1  -1  -1  556.64   20.59
   1  -1  -1  540.89   20.10
   1  -1  -1  549.99   20.19
   1  -1  -1  559.34   20.66
  -1   1   1  583.20   20.16
  -1   1   1  568.96   21.00
  -1   1   1  542.39   18.29
   0  -1  -1  252.96   11.05
   0  -1  -1  222.16   11.40
   0  -1  -1  241.42   10.83
   0   1   1  237.80   11.34
   0   1   1  242.91   10.30
   0   1   1  243.07    9.93
   0   1   1  244.05   11.73
  -1  -1  -1  169.02    9.71
  -1  -1  -1  150.97    8.16
  -1  -1  -1  195.78   10.47
   1   1   1  144.33    9.77
   1   1   1  186.14   10.16
   1   1   1  160.73    7.35
   1   1   1  163.40    9.97
   1   1   1  164.91    9.34
  -2  -1  -1  784.21   30.59
   2   1   1  749.18   31.10
   2   1   1  782.83   26.36
   2   1   1  737.04   29.12
   2   1   1  772.26   30.66
   2   1   1  734.65   28.88
  -3  -1  -1  782.99   28.38
  -3  -1  -1  723.30   32.09
   3   1   1  774.17   30.21
   3   1   1  755.48   29.84
   3   1   1  748.80   32.98
   3   1   1  780.34   32.95
   3   1   1  760.11   27.32
  -4  -1  -1   74.70    8.00
  -4  -1  -1   77.49   11.61
   4   1   1   83.52   12.09
   4   1   1   73.56    8.50
   4   1   1   92.20    8.43
   4   1   1   83.07   12.96
   5   1   1   83.85    9.43
   5   1   1   78.53   13.92
   5   1   1   80.31   14.52
  -6  -1  -1   -9.52    9.07
   6   1   1    2.62    5.68
   6   1   1   -3.62    8.19
   6   1   1    2.82    9.04
  -7  -1  -1   18.58   12.97
   7   1   1   62.12   15.98
   7   1   1   51.31   14.02
   7   1   1   56.13    7.96
  -8  -1  -1  -25.27   10.95
   8   1   1    4.39   10.88
   9  -2  -1    8.89   16.18
  -9   2   1   -0.53   10.93
   8  -2  -1    8.57   10.58
  -8   2   1    8.12    9.89
   7  -2  -1  639.45   34.22
   7  -2  -1  617.66   30.89
   7  -2  -1  607.98   34.26
  -7   2   1  694.32   32.90
  -7   2   1  624.81   32.80
   6  -2  -1   65.24   11.75
   6  -2  -1  103.16   13.28
   6  -2  -1   88.35   12.24
   6  -2  -1   53.89   11.81
   6  -2  -1   71.59   11.62
   5  -2  -1   52.95    9.22
   5  -2  -1   55.52    9.91
   5  -2  -1   55.25    9.22
   5  -2  -1   61.25   10.04
   5  -2  -1   68.60   10.01
   4  -2  -1  145.87   11.62
   4  -2  -1  172.43   11.28
   4  -2  -1  175.90   11.72
   4  -2  -1  168.85   12.09
   4  -2  -1  179.68   12.06
   3  -2  -1  120.23   10.41
   3  -2  -1   95.51    9.16
   3  -2  -1  112.59    8.46
   3  -2  -1   98.10    5.85
   3  -2  -1  105.18    5.79
   3  -2  -1  121.88    8.80
  -3   2   1  107.80    8.94
   2  -2  -1    1.32    2.38
   2  -2  -1    3.80    4.06
   2  -2  -1    8.62    3.18
   2  -2  -1    2.53    2.87
   2  -2  -1   -1.56    3.33
  -2   2   1   11.03    4.16
   1  -2  -1 1144.13   40.79
   1  -2  -1 1220.47   40.65
   1  -2  -1 1158.90   41.02
  -1   2   1 1081.56   41.13
  -1   2   1 1178.55   40.82
  -1   2   1 1228.96   40.82
   0  -2  -1   37.74    5.87
   0  -2  -1   38.37    6.00
   0  -2  -1   36.74    4.77
   0   2   1   31.47    5.36
   0   2   1   22.89    4.32
   0   2   1   32.78    6.07
   0   2   1   27.69    4.66
  -1  -2  -1  711.87   29.05
  -1  -2  -1  729.52   28.83
  -1  -2  -1  751.36   26.27
   1   2   1  710.61   26.35
   1   2   1  721.29   28.65
   1   2   1  724.20   28.72
   1   2   1  740.18   29.91
  -2  -2  -1    4.19    4.30
  -2  -2  -1   10.79    3.48
  -2  -2  -1   13.56    6.15
   2   2   1   10.20    4.75
   2   2   1    5.99    3.40
   2   2   1   13.01    5.91
   2   2   1   12.76    4.97
   2   2   1   -4.86    6.11
  -3  -2  -1  113.27    7.74
  -3  -2  -1  125.21   14.49
   3   2   1  107.65   12.86
   3   2   1  145.44   15.13
   3   2   1  110.75   11.09
   3   2   1  109.52    8.78
  -4  -2  -1   29.89   10.56
   4   2   1   44.02   10.71
   4   2   1   32.23    7.39
   4   2   1   41.17   10.54
  -5  -2  -1    3.72    9.66
   5   2   1   -1.87    7.97
   5   2   1   -6.46    6.97
   5   2   1    2.89    6.15
  -6  -2  -1   13.66   11.65
   6   2   1   25.31   12.08
   6   2   1   37.03    8.31
   6   2   1   23.01   11.49
  -7  -2  -1    0.70   11.55
  -7  -2  -1   21.24   13.30
   7   2   1    2.65    6.43
   7   2   1    7.88   10.66
  -9   3   1  -17.74    8.93
   8  -3  -1   16.47   11.50
  -8   3   1   13.48    9.82
  -8   3   1   24.08   17.17
   7  -3  -1   17.63    9.44
   7  -3  -1    9.93    9.22
   7  -3  -1    8.97    8.35
   7  -3  -1   27.46   10.22
   6  -3  -1   92.08   12.64
   6  -3  -1   67.11   11.38
   6  -3  -1   59.32   10.81
   6  -3  -1   61.76   11.58
   5  -3  -1   23.18    7.42
   5  -3  -1   29.07    7.80
   5  -3  -1   17.19    7.33
   5  -3  -1   29.97    8.00
  -5   3   1   24.13    7.57
   4  -3  -1  199.03    9.13
   4  -3  -1  204.74    9.54
   4  -3  -1  188.49   11.83
   4  -3  -1  192.71   13.70
   4  -3  -1  180.46   12.63
  -4   3   1  201.78   12.73
   3  -3  -1    8.13    3.28
   3  -3  -1    4.22    3.51
   3  -3  -1    8.12    5.75
   3  -3  -1    8.98    4.86
   3  -3  -1    7.49    3.35
  -3   3   1   -0.87    4.13
  -3   3   1    4.75    4.74
   2  -3  -1  533.18   21.54
   2  -3  -1  513.87   21.38
   2  -3  -1  474.29   21.74
   2  -3  -1  506.17   21.03
  -2   3   1  443.23   21.97
  -2   3   1  536.09   22.21
  -2   3   1  520.37   21.79
   1  -3  -1  110.81    6.02
   1  -3  -1  112.28    8.64
   1  -3  -1  103.77    9.57
   1  -3  -1  127.58   10.58
  -1   3   1  103.68    9.03
  -1   3   1  116.32    9.60
  -1   3   1  130.53    9.31
   0  -3  -1   49.21    7.73
   0  -3  -1   44.47    6.25
   0  -3  -1   43.71    6.12
   0  -3  -1   40.60    7.58
   0   3   1   37.07    7.56
   0   3   1   57.14    7.62
   0   3   1   35.98    5.76
  -1  -3  -1   13.01    6.43
  -1  -3  -1   16.02    5.88
  -1  -3  -1   15.15    4.10
   1   3   1   23.91    6.12
   1   3   1    9.20    5.90
   1   3   1   32.26    6.37
   1   3   1   16.38    4.68
  -2  -3  -1   -0.13    4.89
  -2  -3  -1   11.38    6.63
  -2  -3  -1    7.06    3.24
   2   3   1    1.64    4.21
   2   3   1   -0.65    4.88
   2   3   1    6.35    5.28
   2   3   1   -0.53    6.20
  -3  -3  -1   15.58    8.67
   3   3   1   17.10    6.84
   3   3   1   21.84    5.62
   3   3   1   26.18    8.82
   3   3   1   20.74    8.75
  -4  -3  -1  160.51   17.65
   4   3   1  135.35   14.65
   4   3   1  174.91   20.31
   4   3   1  157.53   18.25
  -5  -3  -1  -15.44    8.26
  -5  -3  -1   -0.12    9.76
   5   3   1    9.56    9.87
   5   3   1    0.35    6.66
  -6  -3  -1  -11.22   10.51
  -6  -3  -1  -10.32   10.50
   6   3   1  -11.85    6.79
   6   3   1  -13.47    8.99
  -7  -3  -1    3.58   12.69
   8  -4  -1   69.74   15.48
  -8   4   1   40.36   12.81
   7  -4  -1   14.20    9.55
   7  -4  -1   15.60   10.35
  -7   4   1   11.30    8.84
  -7   4   1   12.37    8.55
   6  -4  -1  189.29   18.93
   6  -4  -1  181.67   17.39
   6  -4  -1  180.52   15.01
  -6   4   1  200.71   18.16
  -6   4   1  188.21   17.49
   5  -4  -1   17.63    3.68
   5  -4  -1   23.33    8.08
   5  -4  -1   14.84    4.07
   5  -4  -1   13.78    6.47
   5  -4  -1   18.68    7.65
  -5   4   1   20.87    7.81
  -5   4   1   22.13    7.42
   4  -4  -1   -1.02    5.63
   4  -4  -1    4.57    3.93
   4  -4  -1    1.97    5.40
   4  -4  -1    2.91    3.71
   4  -4  -1    3.75    4.05
  -4   4   1   11.14    6.58
  -4   4   1   -1.57    5.11
   3  -4  -1    5.82    4.94
   3  -4  -1   -1.05    3.90
   3  -4  -1   -6.10    3.26
   3  -4  -1    4.88    5.16
  -3   4   1    5.02    4.86
  -3   4   1    2.78    4.79
   2  -4  -1   56.26    8.46
   2  -4  -1   52.94    7.71
   2  -4  -1   64.48    8.88
  -2   4   1   43.67    7.49
  -2   4   1   57.30    7.66
  -2   4   1   50.16    7.81
   1  -4  -1   -0.12    5.09
   1  -4  -1   -0.09    4.32
   1  -4  -1    2.14    3.16
   1  -4  -1    4.56    4.23
  -1   4   1   -0.11    4.69
  -1   4   1    1.05    4.78
  -1   4   1   -1.65    4.01
   0  -4  -1   13.47    4.86
   0  -4  -1   11.59    5.98
   0  -4  -1    8.15    5.58
   0  -4  -1   11.15    5.20
   0   4   1   13.53    6.02
   0   4   1    5.47    5.77
   0   4   1   11.36    5.00
  -1  -4  -1   -2.84    5.67
  -1  -4  -1    1.93    5.64
  -1  -4  -1   -4.43    5.97
  -1  -4  -1    0.90    3.74
   1   4   1    2.47    6.18
   1   4   1    1.61    5.25
   1   4   1    2.30    4.78
  -2  -4  -1   24.09    9.44
  -2  -4  -1   21.89    8.28
   2   4   1   29.15   10.48
   2   4   1   31.86    8.46
   2   4   1   24.43    6.73
  -3  -4  -1  306.11   21.70
  -3  -4  -1  259.62   23.31
   3   4   1  238.78   16.74
   3   4   1  240.29   20.75
   3   4   1  236.44   19.19
  -4  -4  -1   59.63   14.94
  -4  -4  -1   51.03   13.86
   4   4   1   55.95   12.24
   4   4   1   39.77   12.43
  -5  -4  -1   18.28   12.69
  -5  -4  -1    6.76   12.12
   5   4   1   10.73    9.93
   5   4   1   25.08   12.02
  -6  -4  -1   -6.67   11.02
  -6  -4  -1   -7.03   12.68
   6   4   1   13.29    9.55
   6   4   1   -7.62   11.39
  -9   5   1   18.15   12.38
   8  -5  -1   64.03   15.83
   8  -5  -1   88.18   16.50
  -8   5   1   30.40   12.05
   7  -5  -1   36.11   11.15
   7  -5  -1   30.71   11.36
  -7   5   1   34.42   10.93
   6  -5  -1   95.03    7.82
   6  -5  -1   79.66   13.44
   6  -5  -1   82.75    6.88
   6  -5  -1  113.14   15.57
  -6   5   1   92.23   13.45
   5  -5  -1  151.15   15.30
   5  -5  -1  125.47   10.48
   5  -5  -1  147.61   15.84
  -5   5   1  150.77   16.04
  -5   5   1   94.71   12.71
   4  -5  -1   27.41    6.27
   4  -5  -1   12.71    7.03
   4  -5  -1   19.15    7.86
  -4   5   1    1.82    6.61
  -4   5   1   14.94    6.83
   3  -5  -1   51.01    8.25
   3  -5  -1   51.45    9.46
   3  -5  -1   49.56    9.18
  -3   5   1   46.05    9.24
  -3   5   1   38.07    8.27
   2  -5  -1  181.78   14.33
   2  -5  -1  208.38   14.45
   2  -5  -1  186.58   14.29
  -2   5   1  199.75   14.50
  -2   5   1  202.97   13.93
   1  -5  -1   53.40    6.94
   1  -5  -1   53.44    9.11
   1  -5  -1   59.05    8.76
   1  -5  -1   57.31   10.45
  -1   5   1   51.31    8.99
  -1   5   1   70.99    9.86
  -1   5   1   59.65   10.05
   0  -5  -1   44.70    9.52
   0  -5  -1   53.33    8.43
   0  -5  -1   35.23    7.39
   0  -5  -1   65.50   11.27
   0   5   1   50.16    9.54
   0   5   1   36.52    8.11
   0   5   1   50.68   10.62
  -1  -5  -1    7.08    7.95
  -1  -5  -1    9.17    8.57
   1   5   1   14.42   10.01
   1   5   1    7.51    6.80
   1   5   1    6.19    7.59
  -2  -5  -1  107.09   16.65
  -2  -5  -1  112.36   15.54
   2   5   1  100.74   12.65
   2   5   1  129.12   15.68
   2   5   1  133.14   18.16
  -3  -5  -1   44.84   12.77
  -3  -5  -1   32.07   11.86
   3   5   1   38.99   12.31
   3   5   1   29.22   10.81
  -4  -5  -1   35.29   13.12
  -4  -5  -1   24.11   12.49
   4   5   1   31.09   12.05
   4   5   1   43.46   13.00
  -5  -5  -1   19.67   12.77
  -5  -5  -1   47.14   16.34
   5   5   1   42.56   15.16
   5   5   1   77.37   15.69
   8  -6  -1    9.02   11.69
   8  -6  -1   -0.52    9.91
  -8   6   1    4.64   10.42
   7  -6  -1   52.63   13.84
   7  -6  -1   88.19   15.24
  -7   6   1   68.12   14.95
   6  -6  -1  186.18   20.92
   6  -6  -1  139.19   11.34
   6  -6  -1  152.84   17.93
  -6   6   1  163.89   18.40
   5  -6  -1  224.80   21.05
   5  -6  -1  173.73   13.96
   5  -6  -1  229.77   18.03
  -5   6   1  212.91   20.14
   4  -6  -1   46.47   10.50
   4  -6  -1   42.21    8.74
   4  -6  -1   40.66    9.94
  -4   6   1   31.49    8.71
  -4   6   1   51.75   10.42
   3  -6  -1  102.98   12.49
   3  -6  -1   83.65   12.91
   3  -6  -1   81.09   11.96
  -3   6   1   90.07   11.71
  -3   6   1  100.32   14.02
   2  -6  -1  328.15   21.04
   2  -6  -1  305.55   19.59
   2  -6  -1  348.54   21.39
  -2   6   1  309.32   19.84
  -2   6   1  317.03   20.37
   1  -6  -1   38.64    9.14
   1  -6  -1   22.73    8.34
   1  -6  -1   27.76    9.94
  -1   6   1   23.63    8.35
  -1   6   1   37.79   10.27
   0  -6  -1   26.41   11.08
   0  -6  -1   45.21   11.58
   0   6   1   35.77    9.95
   0   6   1   21.73    8.31
   0   6   1   36.87   11.15
  -1  -6  -1   40.82   12.37
  -1  -6  -1   51.52   11.17
   1   6   1   58.48   14.32
   1   6   1   49.26   10.49
   1   6   1   67.92   13.57
  -2  -6  -1    6.98    9.64
  -2  -6  -1   -5.27    8.78
   2   6   1    3.23    9.69
   2   6   1    0.49    7.42
   2   6   1  -12.81    7.88
  -3  -6  -1   17.05   12.12
  -3  -6  -1    5.18   11.07
   3   6   1   15.42   10.68
   3   6   1  -22.81    9.50
  -4  -6  -1   74.07   17.63
  -4  -6  -1   32.55   14.86
   4   6   1   39.51   14.67
   4   6   1   95.28   17.51
   8  -7  -1    6.35   11.61
   8  -7  -1   14.93   12.48
  -8   7   1   -6.23    9.97
   7  -7  -1    3.12    5.03
   7  -7  -1   -8.46    9.86
   7  -7  -1    6.70    9.14
  -7   7   1  -15.14    8.82
   6  -7  -1   -6.26    8.89
   6  -7  -1   -9.01    7.50
   6  -7  -1    6.59    6.05
  -6   7   1   -4.57    7.53
   5  -7  -1   13.77    9.20
   5  -7  -1    6.94    7.01
   5  -7  -1    6.96    8.81
  -5   7   1    2.63    8.48
   4  -7  -1   73.93   11.91
   4  -7  -1  103.28   14.79
   4  -7  -1   86.68   14.22
  -4   7   1   58.74   12.67
   3  -7  -1   27.75    8.78
   3  -7  -1   16.97   10.21
   3  -7  -1   15.31    8.47
  -3   7   1   15.07    9.33
  -3   7   1   40.86   13.51
   2  -7  -1   27.08   10.23
   2  -7  -1   18.79    8.84
   2  -7  -1   23.13    8.44
  -2   7   1   20.16    9.41
  -2   7   1   10.16    8.39
   1  -7  -1   59.90   12.81
   1  -7  -1   67.26   11.01
   1  -7  -1   43.78   12.16
  -1   7   1   60.41   12.52
  -1   7   1   77.39   13.69
   0  -7  -1   15.93   10.72
   0   7   1   21.27   11.74
   0   7   1    6.77    8.59
  -1  -7  -1    6.71   11.36
   1   7   1   14.08   11.75
   1   7   1   25.17   10.17
  -2  -7  -1   -0.41   11.43
   2   7   1   17.11   18.31
   2   7   1    2.17   10.91
  -3  -7  -1   10.69   12.44
   3   7   1   -1.23   11.95
   3   7   1   -6.59   12.05
   8  -8  -1    4.68   12.52
   8  -8  -1   19.86   14.70
   8  -8  -1    3.41    4.61
  -8   8   1    4.99   10.71
   7  -8  -1    1.63    9.80
   7  -8  -1   13.88    7.39
   7  -8  -1   -3.94   10.92
  -7   8   1    1.26   10.00
   6  -8  -1   12.42    8.20
   6  -8  -1   16.13   11.25
   6  -8  -1   19.88   11.60
  -6   8   1    5.68    9.70
   5  -8  -1   -3.11    8.00
   5  -8  -1   -8.78    8.47
   5  -8  -1   -2.74    9.69
  -5   8   1    3.02    8.79
   4  -8  -1   -1.94    7.58
   4  -8  -1   12.77   10.62
   4  -8  -1   10.05   10.26
  -4   8   1    4.58    9.17
   3  -8  -1   -4.48    8.18
   3  -8  -1    3.83    8.48
   3  -8  -1   -9.97    9.21
  -3   8   1    1.33    9.50
   2  -8  -1   36.21   11.51
   2  -8  -1   31.41   11.64
   2  -8  -1   35.79   13.23
  -2   8   1    9.59    9.16
   1  -8  -1   -0.90   10.45
  -1   8   1   -5.20    8.82
  -1   8   1   12.07   11.56
   0  -8  -1   54.53   16.35
   0   8   1   69.88   14.08
   0   8   1   66.55   17.24
  -1  -8  -1   15.91   13.44
   1   8   1   -5.80   10.68
   1   8   1   21.94   13.50
  -2  -8  -1    8.28   13.58
   2   8   1    0.52   12.89
   7  -9  -1  160.38   22.93
   7  -9  -1  116.24   23.32
   7  -9  -1  118.29   22.52
  -7   9   1  119.39   21.01
   6  -9  -1   18.40   12.76
   6  -9  -1   23.08   13.35
   6  -9  -1    6.50    9.04
  -6   9   1    3.41   10.83
   5  -9  -1   -5.05   10.26
   5  -9  -1   -1.21    8.80
   5  -9  -1    4.38   11.26
  -5   9   1    4.78   10.40
   4  -9  -1    2.31    8.28
   4  -9  -1   11.74   12.09
   4  -9  -1   -4.18    9.09
  -4   9   1    2.77   11.07
   3  -9  -1   16.28   12.64
   3  -9  -1    0.95   10.15
   3  -9  -1   10.87   10.16
  -3   9   1   14.77   11.01
   2  -9  -1   48.51   16.28
  -2   9   1   60.81   14.73
   1  -9  -1   57.07   16.63
  -1   9   1   37.17   13.59
   0  -9  -1   -5.22   12.89
   0   9   1   -3.87    9.71
   5 -10  -1   -8.02    9.35
   5 -10  -1  -12.49   15.88
   5 -10  -1    5.28   12.62
   4 -10  -1   47.14   18.36
   4 -10  -1   67.08   19.21
   4 -10  -1   68.49   16.13
  -4  10   1  104.89   26.99
   3 -10  -1  -16.61   18.27
   3 -10  -1   -2.45   14.42
  -3  10   1  -14.44   10.02
  -2  10   1   -2.12   11.15
  -1  10  -2   26.36   14.36
   1 -10   2   -6.07   11.82
  -2  10  -2    6.05   12.58
   2 -10   2    6.32   11.90
  -3  10  -2    3.42   11.18
   3 -10   2   17.74   12.79
   3 -10   2    3.88   10.57
  -4  10  -2   14.04   11.72
  -4  10  -2   -2.53   11.89
   4 -10   2   -8.39    9.14
   4 -10   2   -0.16   12.37
  -5  10  -2   39.49   17.10
  -5  10  -2   23.56   13.68
   5 -10   2    2.79   14.38
   5 -10   2   11.30   10.37
   1   9  -2   -0.65   10.56
  -1  -9   2    5.85   12.64
   0   9  -2   87.18   17.61
   0  -9   2   64.84   17.37
  -1   9  -2   17.92   11.16
   1  -9   2    4.36   11.28
  -2   9  -2   13.93   11.21
   2  -9   2    3.48   10.46
   2  -9   2    9.98    9.86
  -3   9  -2    2.15   11.16
  -3   9  -2    4.89   10.52
   3  -9   2   12.31    9.36
   3  -9   2   -1.48    9.57
  -4   9  -2   84.03   16.92
  -4   9  -2   89.26   17.95
   4  -9   2   46.64   14.58
   4  -9   2   60.79   13.59
  -5   9  -2   89.79   18.66
  -5   9  -2   84.02   16.87
   5  -9   2   63.91   13.84
   5  -9   2   73.93   16.17
  -6   9  -2   89.10   19.52
  -6   9  -2   79.16   17.49
   6  -9   2   64.42   17.73
   6  -9   2   73.82   13.54
  -7   9  -2    8.28   12.65
   3   8  -2   13.90   11.63
   3   8  -2   23.15   12.92
  -3  -8   2   19.50   15.43
  -3  -8   2   -4.81   15.74
   2   8  -2   41.95   14.88
   2   8  -2   87.33   16.17
  -2  -8   2   33.33   14.83
   1   8  -2   -1.51    9.94
  -1  -8   2    5.84   10.72
   0   8  -2   41.06   12.63
   0  -8   2   25.18   11.98
  -1   8  -2   99.63   15.32
   1  -8   2   75.23   15.59
  -2   8  -2  313.31   23.26
  -2   8  -2  298.69   22.09
   2  -8   2  305.00   23.81
   2  -8   2  298.27   23.38
  -3   8  -2    5.83    9.42
  -3   8  -2   10.04   10.36
   3  -8   2   13.79    8.80
   3  -8   2    3.96    8.79
  -4   8  -2    0.02   11.08
  -4   8  -2   34.63   11.68
   4  -8   2   32.92    9.75
   4  -8   2   48.91   13.24
  -5   8  -2   36.81   13.88
  -5   8  -2   26.64   11.23
   5  -8   2   29.00   12.51
   5  -8   2   28.07    9.86
  -6   8  -2    4.33   12.16
  -6   8  -2   -3.67    9.44
   6  -8   2   -5.77   11.11
   6  -8   2    2.83    7.94
  -7   8  -2   15.48   13.48
  -7   8  -2    3.36   10.51
   7  -8   2   -9.84    6.11
   7  -8   2   20.32   13.28
   8  -8   2    3.51    5.10
   4   7  -2   17.68   12.90
   4   7  -2   35.59   14.38
  -4  -7   2    4.73   13.63
  -4  -7   2  -10.05   10.52
   3   7  -2   34.33   12.33
   3   7  -2   25.42   13.08
   3   7  -2   16.68   11.90
  -3  -7   2   17.30   13.41
  -3  -7   2   17.56   12.21
   2   7  -2   -5.55    9.26
   2   7  -2    2.78    9.17
   2   7  -2    5.42    9.98
  -2  -7   2    8.83   12.09
  -2  -7   2   24.68   12.08
   1   7  -2   -5.50    8.13
   1   7  -2   21.30   11.24
  -1  -7   2   28.23   11.61
  -1  -7   2    2.66   10.92
   0   7  -2   16.71    8.80
   0   7  -2   11.41    9.20
   0  -7   2    3.51    8.29
   0  -7   2   23.56   11.78
  -1   7  -2  279.94   20.13
  -1   7  -2  266.36   18.31
   1  -7   2  269.37   21.80
   1  -7   2  262.72   20.88
   1  -7   2  210.69   20.06
  -2   7  -2   -8.46    7.08
  -2   7  -2    0.97    8.42
   2  -7   2   -7.28    6.02
   2  -7   2   10.91    9.28
   2  -7   2   14.85    9.01
  -3   7  -2   25.32    9.25
  -3   7  -2   25.73   11.05
   3  -7   2   16.57    9.00
   3  -7   2   22.87    8.32
  -4   7  -2   15.59    9.08
  -4   7  -2   -0.03    9.28
   4  -7   2   12.13    7.39
   4  -7   2    5.50    8.62
  -5   7  -2   23.60   11.45
  -5   7  -2   14.74    9.29
   5  -7   2   28.66    8.47
   5  -7   2    8.91   10.17
  -6   7  -2    0.07    8.69
  -6   7  -2   26.35   11.82
   6  -7   2    1.28   10.22
   6  -7   2   22.20    7.97
  -7   7  -2   20.37   12.23
  -7   7  -2    6.50   10.77
   7  -7   2   27.09   13.51
   7  -7   2   17.06    6.24
  -8   7  -2   -7.85   11.08
   8  -7   2   -4.16   12.03
   5   6  -2    5.59   10.65
   5   6  -2   15.87   11.98
  -5  -6   2    6.08   11.36
  -5  -6   2    1.08   12.01
   4   6  -2   12.15   10.13
   4   6  -2   -0.98    9.57
   4   6  -2   -7.80    8.82
  -4  -6   2   -2.36   10.58
  -4  -6   2   19.65   13.31
   3   6  -2  -15.35    8.10
   3   6  -2   -2.50    8.53
   3   6  -2   13.67    8.75
  -3  -6   2  -11.20   10.33
  -3  -6   2   -1.63    9.80
   2   6  -2   69.50   13.86
   2   6  -2   58.08   11.81
   2   6  -2   68.10   13.08
  -2  -6   2   74.65   13.64
  -2  -6   2   58.92   13.60
   1   6  -2   10.40    8.51
   1   6  -2    3.46    8.26
   1   6  -2   -1.68    7.25
  -1  -6   2    5.42    8.53
  -1  -6   2    0.92    9.35
   0   6  -2    8.71    7.21
   0   6  -2    5.57    6.80
   0   6  -2    2.08    7.19
   0   6  -2    1.27    5.76
   0  -6   2   -7.08   11.98
   0  -6   2   16.73    8.68
   0  -6   2    1.73    6.56
  -1   6  -2   43.47    8.95
  -1   6  -2   31.92    7.17
  -1   6  -2   19.22    8.17
   1  -6   2   19.02    9.30
   1  -6   2   12.40    7.23
   1  -6   2   22.28    8.72
  -2   6  -2   45.15    9.54
  -2   6  -2   47.46   10.14
   2  -6   2   63.33   10.86
   2  -6   2   42.89    8.82
   2  -6   2   28.05    8.97
  -3   6  -2  -15.56    5.44
  -3   6  -2    3.92    8.09
   3  -6   2   -0.96    6.11
   3  -6   2   -4.46    5.80
   3  -6   2   -4.96    5.36
  -4   6  -2  116.97   14.91
  -4   6  -2  121.27   16.38
   4  -6   2  110.65   15.05
   4  -6   2  106.87   13.19
   4  -6   2  108.59   12.28
  -5   6  -2   -6.92    6.48
  -5   6  -2    6.95    8.78
   5  -6   2   -3.04    6.83
   5  -6   2   -2.49    5.74
   5  -6   2   -3.76    8.03
  -6   6  -2   14.86   10.63
  -6   6  -2   -1.84    8.34
   6  -6   2    6.42    5.33
   6  -6   2    2.27    9.05
  -7   6  -2    3.91   10.60
   7  -6   2    6.15   10.67
   7  -6   2    9.09    4.60
  -8   6  -2   -4.24   11.63
   8  -6   2    1.11   11.33
   6   5  -2   67.29   17.88
  -6  -5   2  106.88   21.37
   5   5  -2   64.84   16.79
   5   5  -2  114.18   16.83
   5   5  -2   73.05   15.98
  -5  -5   2   69.57   15.07
  -5  -5   2  105.14   20.61
   4   5  -2    0.54    8.27
   4   5  -2    4.65    8.60
   4   5  -2   -3.66    8.20
  -4  -5   2   -1.63    9.95
  -4  -5   2   18.28   10.80
   3   5  -2   -0.20    7.06
   3   5  -2    4.46    7.60
   3   5  -2   10.70    9.49
  -3  -5   2    2.50    8.74
  -3  -5   2    1.50    9.59
   2   5  -2  304.19   20.54
   2   5  -2  285.57   21.18
   2   5  -2  345.91   22.36
  -2  -5   2  331.64   21.09
  -2  -5   2  326.98   22.73
   1   5  -2   35.86    8.76
   1   5  -2   45.33    9.80
   1   5  -2   37.78    8.65
  -1  -5   2   32.75    8.73
  -1  -5   2   41.39    9.29
  -1  -5   2   37.90   10.16
   0   5  -2  130.38   10.51
   0   5  -2  126.77   13.14
   0   5  -2  118.94   13.19
   0   5  -2  135.72   11.45
   0  -5   2  130.14   13.52
   0  -5   2  118.93   13.46
   0  -5   2  160.33   15.26
  -1   5  -2   71.13    9.79
  -1   5  -2   70.17    9.85
  -1   5  -2   72.07    7.75
  -1   5  -2   74.32   10.18
   1  -5   2   71.78    9.37
   1  -5   2   76.83   10.78
   1  -5   2   86.11   11.13
  -2   5  -2  589.57   22.21
  -2   5  -2  652.71   28.65
  -2   5  -2  576.78   27.56
   2  -5   2  606.09   27.99
   2  -5   2  656.11   27.88
   2  -5   2  636.21   28.42
  -3   5  -2   51.46   10.47
  -3   5  -2   64.33    9.69
   3  -5   2   57.93   10.19
   3  -5   2   39.97    7.49
   3  -5   2   73.84   10.46
  -4   5  -2   12.85    7.42
  -4   5  -2   11.39    8.59
   4  -5   2    4.72    7.45
   4  -5   2    6.76    7.00
   4  -5   2   15.36    5.96
  -5   5  -2   27.59    8.40
  -5   5  -2   29.93   10.37
   5  -5   2   34.19    9.82
   5  -5   2   41.78    7.06
   5  -5   2   43.06   10.35
  -6   5  -2   11.37    7.55
  -6   5  -2   17.51   10.73
   6  -5   2   11.64    4.79
   6  -5   2   25.64   11.13
   6  -5   2    8.87    8.72
  -7   5  -2    5.75   10.40
   7  -5   2   -5.91    8.65
   7  -5   2    9.35   11.97
  -8   5  -2    3.15   10.61
   8  -5   2   -5.46   10.76
   8  -5   2  -13.24   11.30
  -9   5  -2   14.13   13.92
   6   4  -2   14.53   11.43
  -6  -4   2   24.51   13.09
   5   4  -2   30.30    9.93
   5   4  -2   11.97    9.89
   5   4  -2   26.14    9.28
  -5  -4   2   29.70   12.86
  -5  -4   2   23.67   10.94
   4   4  -2   25.84    8.83
   4   4  -2   20.07    7.77
   4   4  -2   11.66    8.95
  -4  -4   2   10.50    9.61
  -4  -4   2   24.01    9.81
   3   4  -2   43.73    8.88
   3   4  -2   55.00   11.78
   3   4  -2   50.89    9.68
  -3  -4   2   51.66   12.08
  -3  -4   2   54.00   10.36
   2   4  -2   94.88   11.11
   2   4  -2   71.70   11.39
   2   4  -2   69.71   10.19
  -2  -4   2  105.64   13.25
  -2  -4   2   76.28   10.12
   1   4  -2  243.31   15.58
   1   4  -2  253.60   11.82
   1   4  -2  245.63   15.63
   1   4  -2  239.37   15.91
  -1  -4   2  243.67   15.61
  -1  -4   2  261.97   16.44
  -1  -4   2  269.05   16.45
   0   4  -2   33.21    6.35
   0   4  -2   54.65    6.93
   0   4  -2   48.65    8.03
   0   4  -2   31.95    6.95
   0  -4   2   35.37    7.04
   0  -4   2   53.50    9.23
   0  -4   2   41.90    7.39
  -1   4  -2   94.94   10.36
  -1   4  -2  131.23   10.19
  -1   4  -2  130.11    7.88
  -1   4  -2  121.74   11.71
   1  -4   2  128.93   11.53
   1  -4   2  122.83   12.58
   1  -4   2  141.52   12.80
  -2   4  -2  200.64   13.29
  -2   4  -2  217.35   14.18
  -2   4  -2  224.77   13.52
   2  -4   2  204.76   13.43
   2  -4   2  215.47   13.28
   2  -4   2  222.56   13.62
   2  -4   2  202.45   13.74
  -3   4  -2  278.65   16.97
  -3   4  -2  262.25   14.96
   3  -4   2  208.76   14.97
   3  -4   2  235.27   14.06
   3  -4   2  260.35   15.26
   3  -4   2  244.84   14.31
  -4   4  -2    5.03    5.72
  -4   4  -2    6.01    6.70
   4  -4   2    9.13    5.71
   4  -4   2    9.22    4.37
   4  -4   2    6.73    4.59
   4  -4   2   -0.80    5.57
  -5   4  -2    6.93    5.84
  -5   4  -2    5.51    8.46
   5  -4   2    5.31    4.05
   5  -4   2   10.70    4.67
   5  -4   2   11.20    7.86
   5  -4   2    6.97    7.41
  -6   4  -2   22.26   10.17
   6  -4   2    6.99    3.51
   6  -4   2   17.44   11.00
   6  -4   2    3.47    8.76
   6  -4   2   14.50    4.08
  -7   4  -2    4.38    9.80
   7  -4   2   24.93   12.26
   7  -4   2    9.78    9.63
  -8   4  -2  -16.87    9.31
   8  -4   2   -9.15    9.14
  -9   4  -2   16.65   13.73
   9  -4   2   15.16   13.74
   7   3  -2   -0.79   10.77
   7   3  -2   31.25    8.66
  -7  -3   2   13.40   14.23
   6   3  -2   -4.58    5.80
   6   3  -2  -13.99    6.58
  -6  -3   2    5.09   10.56
  -6  -3   2    1.85    9.43
   5   3  -2   18.56    7.43
   5   3  -2   25.96    8.00
   5   3  -2   31.29   11.03
  -5  -3   2   19.21   11.20
  -5  -3   2   24.62   10.16
   4   3  -2    1.31    5.19
   4   3  -2   -2.49    6.28
   4   3  -2   -1.17    5.48
  -4  -3   2    2.86    7.35
  -4  -3   2   -8.41    7.31
   3   3  -2   -2.59    5.41
   3   3  -2   11.23    5.52
   3   3  -2    8.77    6.77
  -3  -3   2    8.82    7.75
  -3  -3   2   11.58    6.43
   2   3  -2  297.47   16.08
   2   3  -2  287.18   16.44
   2   3  -2  310.79   17.73
  -2  -3   2  283.68   17.57
  -2  -3   2  277.31   16.36
  -2  -3   2  266.19   15.04
   1   3  -2  174.02   12.15
   1   3  -2  161.24    8.80
   1   3  -2  167.08   11.84
   1   3  -2  161.31   11.88
  -1  -3   2  206.28   14.14
  -1  -3   2  188.56   12.35
  -1  -3   2  170.27   11.56
   0   3  -2   18.79    5.77
   0   3  -2   23.82    5.74
   0   3  -2    9.74    4.05
   0   3  -2   11.60    4.37
   0  -3   2   14.07    4.94
   0  -3   2   12.66    6.05
   0  -3   2    8.93    4.80
  -1   3  -2  195.92    8.17
  -1   3  -2  217.62   12.44
  -1   3  -2  207.16   12.57
  -1   3  -2  179.69   11.45
   1  -3   2  200.35   12.52
   1  -3   2  214.77   12.41
   1  -3   2  179.68   11.53
  -2   3  -2  199.24   11.96
  -2   3  -2  197.67   13.20
  -2   3  -2  169.52   11.00
   2  -3   2  206.21   12.79
   2  -3   2  176.47   11.76
   2  -3   2  189.58   11.54
   2  -3   2  190.90   11.39
  -3   3  -2  182.51   11.07
  -3   3  -2  161.82   13.09
   3  -3   2  188.24   13.25
   3  -3   2  162.81    7.96
   3  -3   2  183.52   10.66
   3  -3   2  175.10   10.67
   3  -3   2  168.52   12.59
  -4   3  -2    8.93    7.02
  -4   3  -2   13.21    4.82
   4  -3   2    9.45    6.54
   4  -3   2   11.69    6.70
   4  -3   2    9.08    4.30
   4  -3   2    5.02    3.73
   4  -3   2    6.24    3.81
  -5   3  -2   33.13    9.28
  -5   3  -2   37.11    6.83
   5  -3   2   42.31    7.74
   5  -3   2   37.07    5.63
   5  -3   2   33.66   10.36
   5  -3   2   28.05    4.92
   5  -3   2   30.00    9.68
  -6   3  -2   59.05   11.60
   6  -3   2   71.88   14.32
   6  -3   2   50.13   12.17
   6  -3   2   42.04    4.61
   6  -3   2   43.36    4.53
  -7   3  -2   30.00   11.43
   7  -3   2   33.44   12.02
  -8   3  -2    1.71   11.13
   8  -3   2   -2.05   10.39
  -9   3  -2   -1.10   14.27
   9  -3   2    0.68   12.26
   8   2  -2    9.81   11.90
   8   2  -2    7.91    5.03
  -8  -2   2   22.46   15.88
   7   2  -2    3.91    5.66
   7   2  -2   14.87   11.07
  -7  -2   2   -2.94   11.38
   6   2  -2   12.28    5.75
   6   2  -2   19.37   10.15
   6   2  -2   26.50    9.03
  -6  -2   2    0.55    8.46
  -6  -2   2   20.29   11.87
   5   2  -2   13.10    6.61
   5   2  -2   -9.73    6.25
  -5  -2   2   18.96   10.67
  -5  -2   2   -7.69    7.20
   4   2  -2   11.60    6.03
   4   2  -2   16.45    8.04
   4   2  -2    5.38    4.87
  -4  -2   2   11.95    7.92
  -4  -2   2   22.20    7.36
   3   2  -2  492.55   21.30
   3   2  -2  453.90   20.59
   3   2  -2  422.27   20.29
   3   2  -2  418.86   22.79
  -3  -2   2  455.26   23.07
  -3  -2   2  454.47   20.92
   2   2  -2   -0.32    2.01
   2   2  -2   -2.77    3.63
   2   2  -2   -5.36    4.47
   2   2  -2    0.25    3.56
   2   2  -2   -3.65    4.11
  -2  -2   2   -6.45    3.77
  -2  -2   2    3.83    3.35
   1   2  -2  540.77   22.26
   1   2  -2  532.87   19.69
   1   2  -2  560.77   22.22
  -1  -2   2  533.54   22.23
  -1  -2   2  526.43   20.60
  -1  -2   2  537.66   22.77
   0   2  -2 1131.57   40.17
   0   2  -2 1140.91   40.69
   0   2  -2 1170.97   39.52
   0   2  -2 1169.27   41.47
   0  -2   2 1187.08   40.15
   0  -2   2 1139.84   42.05
   0  -2   2 1173.50   41.25
  -1   2  -2  107.99    9.11
  -1   2  -2  112.99    8.50
  -1   2  -2  109.34    7.42
   1  -2   2  114.32    8.88
   1  -2   2  111.44    8.05
   1  -2   2   98.01    7.93
   1  -2   2  105.45    5.11
  -2   2  -2  840.38   30.61
  -2   2  -2  859.23   33.24
   2  -2   2  889.03   31.75
   2  -2   2  854.65   33.01
   2  -2   2  891.25   33.58
   2  -2   2  875.26   31.77
   2  -2   2  868.15   29.48
  -3   2  -2   21.41    6.18
   3  -2   2    9.93    3.71
   3  -2   2    7.71    6.07
   3  -2   2    5.60    3.17
   3  -2   2   15.59    4.28
   3  -2   2   25.02    6.97
  -4   2  -2  116.60    8.44
  -4   2  -2  148.39   14.11
   4  -2   2  154.18   15.16
   4  -2   2  129.53   11.69
   4  -2   2  119.16    8.84
   4  -2   2  137.07   14.56
   4  -2   2  124.16    8.18
  -5   2  -2   72.29   11.17
   5  -2   2   84.80   13.46
   5  -2   2   69.67   12.27
   5  -2   2   83.60   10.74
   5  -2   2   71.35    6.99
   5  -2   2   55.55    6.10
  -6   2  -2   61.85   11.61
  -6   2  -2   64.15   12.87
   6  -2   2   49.95    5.37
   6  -2   2   40.25    9.92
   6  -2   2   45.67   11.59
  -7   2  -2   38.12   13.42
   7  -2   2   55.46   14.58
  -8   2  -2   24.26   14.57
   8  -2   2   44.30   15.99
   8   1  -2    7.89   10.99
  -8  -1   2   -2.89   12.33
   7   1  -2   -1.09    3.77
   7   1  -2   -0.08    8.85
  -7  -1   2    9.52   11.61
   6   1  -2   24.51    5.54
   6   1  -2    9.97    9.22
   6   1  -2   19.25    7.92
  -6  -1   2   31.92   11.54
  -6  -1   2   29.92   10.67
   5   1  -2   68.31   12.00
   5   1  -2  129.18   14.43
   5   1  -2  102.45   11.43
   5   1  -2   90.31    8.60
  -5  -1   2  131.42   16.26
  -5  -1   2   81.33   11.63
   4   1  -2   27.53    4.51
   4   1  -2   39.99    5.72
   4   1  -2   27.16    8.02
   4   1  -2   36.63    7.32
   4   1  -2   32.29    5.39
  -4  -1   2   28.36    8.64
  -4  -1   2   16.74    6.31
   3   1  -2  106.83   11.48
   3   1  -2  105.89    6.51
   3   1  -2   98.95    7.98
   3   1  -2   99.50    7.95
   3   1  -2  120.56   10.20
  -3  -1   2  127.06   12.43
  -3  -1   2   83.50    8.20
   2   1  -2  346.55   15.61
   2   1  -2  370.18   17.77
   2   1  -2  362.19   14.11
   2   1  -2  376.04   16.47
   2   1  -2  367.71   15.83
  -2  -1   2  353.02   14.46
  -2  -1   2  367.22   17.38
   1   1  -2 9266.83  302.76
   1   1  -2 9347.47  302.55
   1   1  -2 9474.64  303.23
  -1  -1   2 9599.65  300.37
  -1  -1   2 9497.60  303.31
  -1  -1   2 9999.00  302.83
   0   1  -2  117.78    7.71
   0   1  -2   95.19    6.68
   0   1  -2   94.40    7.74
   0  -1   2   81.65    6.93
   0  -1   2   95.60    6.28
   0  -1   2   90.60    7.85
   0  -1   2  114.08    6.99
  -1   1  -2  959.66   35.15
  -1   1  -2 1001.47   34.96
  -1   1  -2  972.95   32.62
   1  -1   2  986.19   34.73
   1  -1   2  981.07   34.63
   1  -1   2  970.73   33.38
   1  -1   2  977.70   35.66
   1  -1   2  956.44   34.62
  -2   1  -2    5.64    4.69
  -2   1  -2    0.37    2.05
   2  -1   2    6.20    3.92
   2  -1   2   14.07    5.73
   2  -1   2   -2.03    4.62
   2  -1   2    5.21    3.40
   2  -1   2    5.35    3.22
  -3   1  -2    4.95    2.49
  -3   1  -2    5.52    4.74
   3  -1   2    7.32    5.81
   3  -1   2   17.93    4.21
   3  -1   2    2.76    3.02
   3  -1   2   25.50    7.17
   3  -1   2    0.80    4.44
  -4   1  -2  153.44   13.66
  -4   1  -2  179.28   16.40
  -4   1  -2  154.77    8.28
   4  -1   2  120.79    9.59
   4  -1   2  141.99    9.46
   4  -1   2  138.43   15.44
   4  -1   2  143.32   11.63
  -5   1  -2   10.88    6.80
  -5   1  -2    5.72    7.23
   5  -1   2    3.14    8.06
   5  -1   2    8.47    7.42
   5  -1   2    3.35    3.70
   5  -1   2    4.87    4.18
  -6   1  -2   30.47   11.43
  -6   1  -2   46.94   10.18
   6  -1   2   30.95    5.76
   6  -1   2   34.61   10.29
   6  -1   2   62.05   13.32
  -7   1  -2   39.87   13.21
   7  -1   2   51.40   14.95
   7  -1   2   57.91    6.07
   7  -1   2   50.35   12.48
  -8   1  -2   76.68   18.00
   8  -1   2   61.57   17.85
   9   0  -2   -1.48   12.00
  -9   0   2   18.65   16.30
   8   0  -2    1.50   11.27
  -8   0   2    0.75   11.23
   7   0  -2   41.15   12.41
   7   0  -2   62.13   11.28
  -7   0   2   49.71   14.21
   6   0  -2   10.31    7.06
   6   0  -2    3.85    7.82
  -6   0   2    7.50    7.19
  -6   0   2   -2.65    8.00
   5   0  -2   16.15    6.98
   5   0  -2    9.92    3.27
   5   0  -2   10.94    3.31
   5   0  -2    8.28    5.20
   5   0  -2   15.26    7.28
  -5   0   2   -9.34    6.61
  -5   0   2    9.67    5.65
   4   0  -2    8.52    2.94
   4   0  -2   11.35    5.53
   4   0  -2   18.73    6.71
   4   0  -2   10.78    3.34
   4   0  -2   18.67    4.84
  -4   0   2    6.85    4.39
  -4   0   2    8.70    6.08
   3   0  -2  123.32    7.62
   3   0  -2  133.16    9.87
   3   0  -2  133.01   12.16
   3   0  -2  124.05    8.22
   3   0  -2  122.95    7.25
  -3   0   2  111.02    7.83
  -3   0   2  117.85   10.13
   2   0  -2 2118.39   70.87
   2   0  -2 2166.19   73.25
   2   0  -2 2219.22   72.28
   2   0  -2 2178.23   70.77
   2   0  -2 2223.86   71.21
  -2   0   2 2159.67   72.14
  -2   0   2 2048.14   69.16
   1   0  -2  253.71   11.69
   1   0  -2  248.27   11.66
   1   0  -2  238.74   11.40
   1   0  -2  256.89   11.56
  -1   0   2  245.28   12.03
  -1   0   2  244.27   11.27
  -1   0   2  237.80   11.62
   0   0  -2  691.00   24.36
   0   0  -2  684.10   25.94
   0   0  -2  686.91   25.54
   0   0  -2  713.41   23.84
   0   0   2  693.37   25.43
   0   0   2  672.38   25.48
   0   0   2  695.21   25.71
  -1   0  -2 1711.07   59.33
  -1   0  -2 1771.83   59.61
  -1   0  -2 1772.08   59.80
   1   0   2 1771.72   59.48
   1   0   2 1759.06   59.55
   1   0   2 1738.07   60.23
   1   0   2 1762.72   61.67
  -2   0  -2  737.57   29.87
  -2   0  -2  758.66   28.77
   2   0   2  713.60   30.35
   2   0   2  727.01   28.51
   2   0   2  763.16   29.46
   2   0   2  715.09   28.34
  -3   0  -2    1.16    4.55
  -3   0  -2   -8.33    4.82
   3   0   2    3.62    5.94
   3   0   2   -5.52    2.99
   3   0   2    7.67    5.24
   3   0   2    3.86    3.62
  -4   0  -2   11.86    7.61
  -4   0  -2   -3.38    4.76
   4   0   2    5.92    4.57
   4   0   2    9.37    7.00
   4   0   2    7.95    5.98
   4   0   2    3.55    4.16
  -5   0  -2   17.88    7.49
  -5   0  -2   23.05    9.59
   5   0   2   25.95    9.67
   5   0   2    2.55    7.28
   5   0   2   25.78    6.29
  -6   0  -2   -9.93    7.89
   6   0   2   -3.19    4.63
   6   0   2   -4.24    8.33
   6   0   2    8.39    8.91
  -7   0  -2   38.95   14.54
   7   0   2   26.16   12.97
   7   0   2   25.67    6.63
   7   0   2   54.92   13.69
  -8   0  -2   24.64   14.40
   8   0   2   22.24   12.12
   8   0   2   48.18   17.09
   9  -1  -2   14.03   12.82
  -9   1   2   33.16   14.18
   8  -1  -2   51.79   15.28
  -8   1   2   34.83   13.51
   7  -1  -2    0.83    9.43
   7  -1  -2  -10.39    6.95
  -7   1   2   -0.33    8.16
  -7   1   2    7.10    8.02
   6  -1  -2   45.68    9.44
   6  -1  -2   68.22   13.29
   6  -1  -2   36.81    9.32
  -6   1   2   49.61    9.90
  -6   1   2   42.72   10.48
   5  -1  -2  394.63   23.56
   5  -1  -2  411.13   21.68
   5  -1  -2  475.19   20.95
  -5   1   2  420.39   22.81
  -5   1   2  415.97   20.42
   4  -1  -2   45.03    3.53
   4  -1  -2   44.55    7.43
   4  -1  -2   47.78    7.31
   4  -1  -2   39.15    6.19
   4  -1  -2   33.65    7.67
   4  -1  -2   35.77    3.50
  -4   1   2   42.39    6.97
   3  -1  -2  122.71    9.12
   3  -1  -2  114.65    6.74
   3  -1  -2  125.19    7.51
   3  -1  -2  126.57    7.18
   3  -1  -2  126.30   10.31
  -3   1   2  110.60    8.97
   2  -1  -2   37.64    4.34
   2  -1  -2   46.47    5.84
   2  -1  -2   36.95    4.76
   2  -1  -2   37.89    5.79
   2  -1  -2   43.18    4.26
  -2   1   2   39.71    4.64
  -2   1   2   45.47    7.07
   1  -1  -2  480.46   19.06
   1  -1  -2  452.96   18.69
   1  -1  -2  466.63   18.26
   1  -1  -2  451.08   16.85
  -1   1   2  470.30   17.04
  -1   1   2  438.70   19.60
  -1   1   2  453.03   18.57
   0  -1  -2 1603.91   54.96
   0  -1  -2 1626.40   53.76
   0  -1  -2 1596.10   53.84
   0   1   2 1579.50   53.42
   0   1   2 1547.56   54.69
   0   1   2 1569.07   55.09
  -1  -1  -2  978.01   34.82
  -1  -1  -2 1010.44   36.17
  -1  -1  -2  969.67   36.32
   1   1   2  929.07   35.64
   1   1   2  938.79   31.79
   1   1   2  934.38   36.01
   1   1   2  983.01   36.70
  -2  -1  -2    7.17    4.35
  -2  -1  -2    6.28    5.71
  -2  -1  -2   -0.78    3.76
   2   1   2    3.35    3.94
   2   1   2   -3.87    4.60
   2   1   2    5.53    5.40
   2   1   2   -1.29    3.60
   2   1   2    2.78    1.96
  -3  -1  -2  126.72   13.62
  -3  -1  -2  119.98   10.33
   3   1   2  111.53   12.95
   3   1   2  104.98   13.05
   3   1   2  101.10    6.02
   3   1   2  110.98   11.43
   3   1   2  101.70   10.19
  -4  -1  -2   -8.96    7.11
  -4  -1  -2   -7.02    4.27
   4   1   2    4.23    4.99
   4   1   2   -3.71    6.93
   4   1   2   -4.27    6.80
  -5  -1  -2   25.59   10.85
   5   1   2   20.29   10.34
   5   1   2   25.17    6.92
   5   1   2   39.40   10.91
  -6  -1  -2    0.35    9.73
   6   1   2    6.20    6.09
   6   1   2    3.81   10.02
   6   1   2    1.68    9.44
  -7  -1  -2    5.31   12.37
   7   1   2   16.76   12.60
   7   1   2    5.62    6.65
   7   1   2   -3.29    9.96
   9  -2  -2    8.44   12.42
  -9   2   2    8.76   11.32
   8  -2  -2   55.60   12.61
   8  -2  -2   13.21   10.69
  -8   2   2   46.03   12.53
   7  -2  -2   63.36   12.26
   7  -2  -2   63.54   13.12
   7  -2  -2   67.73   12.35
  -7   2   2   46.93   11.25
  -7   2   2   82.27   13.25
   6  -2  -2  143.47   14.25
   6  -2  -2  133.66   14.96
   6  -2  -2  118.18   14.33
   6  -2  -2  127.42   15.97
  -6   2   2  124.10   14.51
   5  -2  -2  519.90   24.01
   5  -2  -2  525.51   25.66
   5  -2  -2  548.04   25.69
  -5   2   2  525.68   24.80
   4  -2  -2   58.89    7.09
   4  -2  -2   65.39    9.06
   4  -2  -2   48.47    4.38
   4  -2  -2   55.79    4.43
   4  -2  -2   49.23    8.19
  -4   2   2   56.40    9.14
  -4   2   2   35.34    6.11
   3  -2  -2  151.43   11.27
   3  -2  -2  124.71    7.72
   3  -2  -2  114.61    8.20
   3  -2  -2  113.31    7.83
   3  -2  -2  127.30   10.05
  -3   2   2  112.71    7.64
  -3   2   2  125.24   12.10
   2  -2  -2 1169.15   40.99
   2  -2  -2 1136.43   41.33
   2  -2  -2 1178.16   40.47
   2  -2  -2 1124.47   39.17
   2  -2  -2 1203.41   40.75
  -2   2   2  977.73   41.52
   1  -2  -2  731.66   28.29
   1  -2  -2  710.75   28.89
   1  -2  -2  758.08   27.40
  -1   2   2  758.70   27.66
  -1   2   2  747.92   28.64
  -1   2   2  718.10   29.65
  -1   2   2  724.29   25.12
   0  -2  -2 2112.26   70.81
   0  -2  -2 2109.21   69.24
   0  -2  -2 2088.15   69.70
   0   2   2 1903.79   70.55
   0   2   2 2044.98   70.39
   0   2   2 2003.13   68.20
   0   2   2 2043.41   67.70
  -1  -2  -2   30.01    6.63
  -1  -2  -2   36.08    5.71
  -1  -2  -2   26.52    6.26
   1   2   2   30.51    5.99
   1   2   2   32.29    4.53
   1   2   2   21.74    5.88
   1   2   2   49.70    8.79
  -2  -2  -2   96.94   11.09
  -2  -2  -2  107.76    8.57
  -2  -2  -2  142.85   14.01
   2   2   2  103.59    6.97
   2   2   2  141.17   14.38
   2   2   2  103.59   11.68
   2   2   2  111.72   11.01
  -3  -2  -2   22.07    5.66
  -3  -2  -2    8.85    7.65
   3   2   2   24.00    8.34
   3   2   2   21.60    9.48
   3   2   2   20.35    6.66
  -4  -2  -2  155.95   18.40
   4   2   2  167.15   15.01
   4   2   2  173.14   19.05
   4   2   2  163.65   18.26
  -5  -2  -2   -0.02   11.04
   5   2   2  -10.07    5.70
   5   2   2    7.96    8.87
   5   2   2   -6.65    7.98
  -6  -2  -2   -5.40   10.56
   6   2   2    5.00   10.16
   6   2   2    5.08    7.42
   6   2   2   -1.67    9.40
  -7  -2  -2   21.83   14.50
   7   2   2   40.68   15.00
   7   2   2   38.88   15.27
   7   2   2   52.36   11.11
   8  -3  -2  -10.43    8.43
   8  -3  -2  -11.71    8.10
  -8   3   2   -7.55    8.55
  -8   3   2    6.47   11.07
   7  -3  -2   15.18    8.74
   7  -3  -2   15.03    9.03
   7  -3  -2    9.23    8.50
  -7   3   2   12.73    9.60
  -7   3   2   23.12    8.95
   6  -3  -2   -1.31    6.65
   6  -3  -2   -1.59    6.68
   6  -3  -2   -6.21    6.65
  -6   3   2   -2.10    6.02
  -6   3   2   -2.61    6.27
   5  -3  -2  185.60   16.83
   5  -3  -2  213.51   17.06
   5  -3  -2  205.61   13.78
   5  -3  -2  195.74    8.37
   5  -3  -2  185.77    8.32
  -5   3   2  194.42   15.31
  -5   3   2  166.46   12.30
   4  -3  -2  394.82   16.65
   4  -3  -2  364.42   20.61
   4  -3  -2  385.12   16.44
   4  -3  -2  403.56   20.66
   4  -3  -2  398.69   18.65
  -4   3   2  379.57   20.44
   3  -3  -2    6.16    4.02
   3  -3  -2   -2.00    3.33
   3  -3  -2   10.08    5.74
   3  -3  -2   -0.68    3.94
  -3   3   2   10.15    2.24
  -3   3   2    3.38    5.41
   2  -3  -2   -0.76    4.54
   2  -3  -2    0.35    4.12
   2  -3  -2    0.11    4.23
   2  -3  -2   -1.66    4.13
  -2   3   2   -0.86    3.61
  -2   3   2    3.70    5.04
  -2   3   2   -3.01    4.62
   1  -3  -2    9.68    4.99
   1  -3  -2   20.44    5.69
   1  -3  -2   11.96    5.31
  -1   3   2   14.25    4.99
  -1   3   2   21.16    6.36
  -1   3   2   16.61    5.37
   0  -3  -2  848.42   32.89
   0  -3  -2  861.61   35.81
   0  -3  -2  871.62   34.27
   0   3   2  805.72   35.43
   0   3   2  845.48   32.33
   0   3   2  912.54   32.58
   0   3   2  905.10   35.33
  -1  -3  -2   -8.41    4.43
  -1  -3  -2   -3.62    3.76
  -1  -3  -2   -6.77    4.25
   1   3   2   -5.55    5.22
   1   3   2   -3.99    3.65
   1   3   2   -9.10    3.97
   1   3   2   -5.41    4.54
  -2  -3  -2  120.12   14.28
  -2  -3  -2  149.89   10.09
   2   3   2  140.42    9.93
   2   3   2  175.24   13.99
   2   3   2  139.63   14.22
   2   3   2  107.35   14.80
  -3  -3  -2   75.01   13.44
   3   3   2   75.84   11.44
   3   3   2   68.93   12.25
   3   3   2   73.57   13.79
  -4  -3  -2  193.55   20.26
   4   3   2  177.91   21.98
   4   3   2  243.64   18.85
   4   3   2  209.13   21.56
  -5  -3  -2    5.61   10.86
   5   3   2   14.55   10.27
   5   3   2   42.70   13.02
   5   3   2   16.42    8.74
  -6  -3  -2    7.52   12.11
   6   3   2    6.55   11.21
   6   3   2   36.94   11.17
   8  -4  -2   18.11   10.93
  -8   4   2   38.05   13.16
   7  -4  -2   40.77   11.56
   7  -4  -2   54.09   11.97
  -7   4   2   63.39   12.80
  -7   4   2   39.48   11.51
   6  -4  -2   86.70   12.66
   6  -4  -2  120.77   13.66
  -6   4   2   98.19   14.06
  -6   4   2  120.01   14.86
   5  -4  -2   56.08    6.68
   5  -4  -2   79.26   10.87
   5  -4  -2   51.35    6.39
   5  -4  -2   48.09   10.77
  -5   4   2   42.54    9.23
  -5   4   2   64.84   10.99
   4  -4  -2   13.46    6.79
   4  -4  -2   14.37    6.04
   4  -4  -2   13.03    4.56
   4  -4  -2   15.00    5.04
  -4   4   2    3.74    6.21
  -4   4   2   19.23    6.98
   3  -4  -2   70.99    9.17
   3  -4  -2   71.99    9.47
   3  -4  -2   65.39    8.16
   3  -4  -2   33.75    7.56
  -3   4   2   61.94    9.66
  -3   4   2   60.81    9.86
   2  -4  -2  305.98   16.98
   2  -4  -2  286.22   16.82
   2  -4  -2  281.47   16.28
  -2   4   2  294.91   16.94
  -2   4   2  270.24   17.18
  -2   4   2  295.67   16.60
   1  -4  -2  157.26   13.41
   1  -4  -2  147.44    8.39
   1  -4  -2  139.05   13.33
   1  -4  -2  153.87   11.68
  -1   4   2  138.39   12.89
  -1   4   2  158.90   11.47
  -1   4   2  161.72   13.32
   0  -4  -2  485.43   21.89
   0  -4  -2  483.78   21.40
   0  -4  -2  492.93   23.90
   0  -4  -2  496.09   25.08
   0   4   2  467.55   24.90
   0   4   2  444.18   24.16
   0   4   2  455.82   21.43
  -1  -4  -2   24.14    8.34
  -1  -4  -2   10.13    7.20
  -1  -4  -2    9.11    5.37
   1   4   2   17.14    8.27
   1   4   2    3.74    6.54
   1   4   2    9.40    5.68
  -2  -4  -2  163.50   17.40
   2   4   2  129.61   17.22
   2   4   2  149.69   12.96
   2   4   2  153.96   15.63
   2   4   2  121.34   14.86
  -3  -4  -2   34.33   12.44
   3   4   2   71.76   12.83
   3   4   2   52.25   13.31
  -4  -4  -2   30.73   12.16
  -4  -4  -2   65.50   15.18
   4   4   2   56.69   12.32
   4   4   2   49.45   13.81
  -5  -4  -2   -2.02   12.40
  -5  -4  -2    9.88   11.59
   5   4   2    8.96   10.99
   5   4   2   -7.38    8.89
  -6  -4  -2   -2.21   14.89
  -6  -4  -2   -0.42   14.60
   9  -5  -2   69.31   16.74
  -9   5   2   54.71   16.67
   8  -5  -2   63.64   14.89
  -8   5   2   67.47   15.78
   7  -5  -2   62.97   12.63
   7  -5  -2   51.49   12.32
  -7   5   2   51.98   12.95
   6  -5  -2   11.59    4.49
   6  -5  -2   27.27    9.48
   6  -5  -2   19.66    8.73
  -6   5   2   11.63    9.33
  -6   5   2   14.29    9.74
   5  -5  -2   16.25    7.89
   5  -5  -2   14.15    5.47
   5  -5  -2   22.84    9.32
  -5   5   2   10.91    7.90
  -5   5   2    9.72    8.30
   4  -5  -2    6.97    6.57
   4  -5  -2    9.38    7.31
   4  -5  -2   -1.27    4.85
  -4   5   2    0.61    7.06
  -4   5   2   14.33    7.30
   3  -5  -2 1033.75   42.85
   3  -5  -2 1090.57   43.07
   3  -5  -2 1027.87   44.14
  -3   5   2 1117.78   44.55
  -3   5   2 1087.93   43.84
   2  -5  -2   50.83    9.19
   2  -5  -2   44.27    8.86
   2  -5  -2   59.01   10.29
  -2   5   2   46.05    9.15
  -2   5   2   70.72   11.66
   1  -5  -2   85.20   11.91
   1  -5  -2   98.12   11.55
   1  -5  -2  109.56   13.55
  -1   5   2  106.33   12.43
  -1   5   2   95.44   13.11
  -1   5   2   61.95   11.03
   0  -5  -2   46.74    8.64
   0  -5  -2   51.79   10.32
   0  -5  -2   65.25    9.47
   0  -5  -2   80.34   12.87
   0   5   2   40.14    9.69
   0   5   2   66.70   12.97
   0   5   2   55.15    9.20
  -1  -5  -2   19.14    9.44
  -1  -5  -2   12.54    8.67
   1   5   2    9.26    7.76
   1   5   2    1.60    8.43
   1   5   2    7.13    6.31
  -2  -5  -2  200.27   21.09
  -2  -5  -2  185.88   18.93
   2   5   2  178.91   19.37
   2   5   2  229.67   24.03
  -3  -5  -2   -5.75   10.01
  -3  -5  -2    1.96   10.35
   3   5   2    2.26    8.16
   3   5   2    5.02   10.45
  -4  -5  -2    2.32   12.05
  -4  -5  -2    3.84   11.48
   4   5   2    3.66    9.38
   4   5   2   20.65   11.16
  -5  -5  -2   12.32   13.63
  -5  -5  -2    1.47   12.87
   5   5   2   33.22   12.98
   5   5   2   24.56   14.53
   9  -6  -2   22.97   13.76
  -9   6   2   27.10   13.84
   8  -6  -2  -12.33    8.74
  -8   6   2    3.98   10.15
   7  -6  -2   26.11   10.93
   7  -6  -2    8.19    4.05
   7  -6  -2    5.21    9.56
  -7   6   2    3.67    9.29
   6  -6  -2    7.59    5.87
   6  -6  -2    6.97    8.17
   6  -6  -2   22.75    9.88
  -6   6   2   32.03   10.90
   5  -6  -2   76.42   12.91
   5  -6  -2   46.13   10.98
   5  -6  -2   57.75    9.66
  -5   6   2   57.89   12.82
  -5   6   2   46.25   11.58
   4  -6  -2  446.48   25.25
   4  -6  -2  471.79   24.64
   4  -6  -2  426.23   26.38
  -4   6   2  474.65   26.38
  -4   6   2  429.85   25.44
   3  -6  -2   26.99    9.49
   3  -6  -2   28.54    8.99
   3  -6  -2   25.77    8.08
  -3   6   2   38.53    9.95
  -3   6   2   12.93    8.03
   2  -6  -2   12.55    8.49
   2  -6  -2    5.96    7.58
   2  -6  -2   15.96    7.72
  -2   6   2   30.12    9.41
  -2   6   2    6.24    8.05
   1  -6  -2  176.62   18.61
   1  -6  -2  198.87   15.72
   1  -6  -2  176.83   18.79
  -1   6   2  205.02   20.87
  -1   6   2  187.37   17.49
   0  -6  -2   36.22   11.71
   0   6   2   45.95   10.01
   0   6   2   63.16   13.25
  -1  -6  -2   20.50   10.60
   1   6   2   10.91   10.71
   1   6   2    2.86    8.66
  -2  -6  -2  -11.80    9.65
   2   6   2   -6.05    8.69
   2   6   2   -4.76   10.14
  -3  -6  -2   30.30   13.62
   3   6   2   39.50   13.60
   3   6   2   29.72   13.72
  -4  -6  -2    1.22   12.78
   4   6   2   13.05   12.74
   4   6   2    6.92   12.08
   8  -7  -2   28.85   14.04
  -8   7   2   43.97   15.10
   7  -7  -2   50.86   14.36
   7  -7  -2   63.29   15.18
   7  -7  -2   45.10    8.12
  -7   7   2   30.16   12.15
   6  -7  -2   -0.45    8.25
   6  -7  -2    5.73    7.04
   6  -7  -2   12.07   10.18
  -6   7   2   12.17   10.03
   5  -7  -2   25.37   10.41
   5  -7  -2   23.22    8.74
   5  -7  -2   35.50   11.50
  -5   7   2   32.19   10.77
   4  -7  -2  129.23   17.63
   4  -7  -2  102.08   15.56
   4  -7  -2  117.31   15.31
  -4   7   2  114.50   15.88
   3  -7  -2   -6.56    7.45
   3  -7  -2   -9.27    6.62
   3  -7  -2   -9.79    6.28
  -3   7   2   -7.41    6.92
  -3   7   2   11.25    8.81
   2  -7  -2  197.75   21.00
   2  -7  -2  228.44   21.52
   2  -7  -2  247.96   23.39
  -2   7   2  271.07   24.26
  -2   7   2  257.98   22.83
   1  -7  -2   21.17   11.06
   1  -7  -2   19.53   12.25
   1  -7  -2    5.07   11.95
  -1   7   2   17.96   10.48
  -1   7   2   25.15    9.39
   0  -7  -2   59.13   14.49
   0   7   2   27.39   10.16
   0   7   2   70.81   16.13
  -1  -7  -2    3.25   11.71
   1   7   2    8.85   12.52
  -2  -7  -2  -12.49   11.18
   2   7   2   -0.04   10.98
  -3  -7  -2    1.37   12.80
   3   7   2    6.06   13.59
   3   7   2   -6.67   10.77
   8  -8  -2    1.34    5.15
  -8   8   2   -2.58   11.67
   7  -8  -2    4.47   11.19
   7  -8  -2   -9.54    6.14
   7  -8  -2    7.27   11.89
  -7   8   2   -0.07    9.75
   6  -8  -2   -7.23    9.10
   6  -8  -2   -8.45    6.99
   6  -8  -2    0.32   11.35
  -6   8   2  -10.06    9.20
   5  -8  -2   20.33   10.93
   5  -8  -2   18.20    9.81
   5  -8  -2    9.17   11.05
  -5   8   2   24.59   12.48
   4  -8  -2    4.49   10.68
   4  -8  -2   16.19    9.67
   4  -8  -2   23.43   10.52
  -4   8   2    9.10    9.86
   3  -8  -2   66.86   14.88
   3  -8  -2   75.31   15.69
   3  -8  -2   74.19   14.95
  -3   8   2   74.16   14.69
   2  -8  -2   -3.07   10.10
   2  -8  -2    2.34    8.86
   2  -8  -2   18.96   10.82
  -2   8   2   12.21   10.31
  -2   8   2    3.77    9.13
   1  -8  -2   42.16   14.26
  -1   8   2   48.60   14.74
  -1   8   2   28.29   11.74
   0  -8  -2   -7.52   11.40
   0   8   2   23.10   14.55
   0   8   2    4.20    9.90
  -1  -8  -2  -21.14   12.12
   1   8   2    3.64   12.37
   7  -9  -2   32.22   14.22
   6  -9  -2   16.07   12.56
   6  -9  -2    9.34   12.08
   6  -9  -2   -3.36    8.77
  -6   9   2   -1.03   10.94
   5  -9  -2   17.83   12.48
   5  -9  -2    8.90   10.75
   5  -9  -2   20.58   12.47
  -5   9   2   23.00   13.47
   4  -9  -2   -3.88    9.20
   4  -9  -2   -9.43    9.59
   4  -9  -2   -4.73   11.48
  -4   9   2    9.41   10.87
   3  -9  -2    7.64   11.41
   3  -9  -2   10.87   17.34
   3  -9  -2    9.41   11.95
  -3   9   2   24.80   12.46
   2  -9  -2   79.76   18.37
  -2   9   2   53.82   14.30
   1  -9  -2   31.11   15.73
  -1   9   2   -2.29   10.07
   0   9   2   80.24   20.74
  -1  10  -3    2.03   13.76
   1 -10   3  -11.10   11.34
  -2  10  -3   15.06   13.36
   2 -10   3   13.76   12.72
  -3  10  -3  -12.52   10.08
   3 -10   3   10.23   11.69
   3 -10   3    6.74   11.15
  -4  10  -3   13.57   15.09
  -4  10  -3   13.35   12.40
   4 -10   3   13.72   12.03
   4 -10   3    0.62   12.38
  -5  10  -3  -21.74    9.48
  -5  10  -3  -10.72   14.90
   5 -10   3   -4.30   10.88
   2   9  -3    7.89   13.91
   1   9  -3    8.45   11.07
  -1  -9   3   -3.60   11.19
   0   9  -3    4.75   10.38
   0  -9   3   -1.67   11.80
  -1   9  -3   -7.27   10.71
   1  -9   3   -2.43   10.87
  -2   9  -3   68.55   14.92
   2  -9   3   37.96   12.85
   2  -9   3   40.83   13.12
  -3   9  -3   13.96   13.42
  -3   9  -3   21.99   11.46
   3  -9   3   18.77   12.72
   3  -9   3   21.86   12.04
  -4   9  -3   -2.46   13.50
  -4   9  -3    0.85   10.98
   4  -9   3   -6.51   10.22
   4  -9   3    7.34   10.00
  -5   9  -3   32.11   13.95
  -5   9  -3   39.77   16.60
   5  -9   3    3.95    9.62
   5  -9   3    3.22   13.36
  -6   9  -3   -5.14   14.51
  -6   9  -3    7.44   11.63
   6  -9   3   10.24   13.75
   6  -9   3    1.43   10.03
   3   8  -3    2.07   10.47
   3   8  -3  -16.80    9.55
  -3  -8   3  -15.85   13.77
  -3  -8   3  -10.91   12.39
   2   8  -3    5.87   10.88
  -2  -8   3    3.92   11.73
  -2  -8   3  -22.83   12.65
   1   8  -3    7.65   10.26
  -1  -8   3  -18.93    8.83
  -1  -8   3   -9.55   14.83
   0   8  -3  104.17   15.95
   0  -8   3   76.58   15.45
   0  -8   3   55.16   16.27
  -1   8  -3   49.82   13.12
   1  -8   3   48.76   13.31
  -2   8  -3    4.44    9.06
  -2   8  -3   18.77   10.89
   2  -8   3   13.01    9.34
   2  -8   3   -2.47    7.98
  -3   8  -3   19.49   12.00
  -3   8  -3    2.17    9.04
   3  -8   3   22.96   11.41
   3  -8   3   22.86    9.77
  -4   8  -3   10.25   10.23
  -4   8  -3   26.06   14.02
   4  -8   3   12.80   10.75
   4  -8   3    6.57    8.65
  -5   8  -3   16.34   13.36
  -5   8  -3   18.00   11.36
   5  -8   3   -9.59    9.53
   5  -8   3   23.81   10.22
  -6   8  -3   31.21   13.33
  -6   8  -3   23.46   14.74
   6  -8   3   -9.53    7.65
   6  -8   3   15.20   12.54
  -7   8  -3   -4.16   12.83
   7  -8   3   24.23   14.21
   7  -8   3   14.00    8.35
   4   7  -3   -2.00    9.93
   4   7  -3   13.23   12.57
  -4  -7   3   -4.72   13.37
   3   7  -3    7.52   10.81
   3   7  -3   29.98   13.19
   3   7  -3   12.95   10.16
  -3  -7   3    3.94   12.58
  -3  -7   3   -4.51   13.74
   2   7  -3  -10.37    8.07
   2   7  -3   -7.43    7.78
   2   7  -3    9.45   10.70
  -2  -7   3    3.63    9.86
  -2  -7   3   10.85   12.13
   1   7  -3   69.75   12.61
   1   7  -3   47.75   12.16
  -1  -7   3   48.00   13.95
  -1  -7   3   52.66   12.80
   0   7  -3   93.60   14.67
   0  -7   3   60.42   12.65
   0  -7   3   68.27   16.02
  -1   7  -3  101.77   14.82
  -1   7  -3   96.44   13.28
   1  -7   3   73.00   13.28
   1  -7   3  105.96   14.50
   1  -7   3  102.91   16.12
  -2   7  -3   10.43    8.78
  -2   7  -3    6.05    9.00
   2  -7   3    6.25    7.56
   2  -7   3    0.62    8.00
   2  -7   3    4.51    9.96
  -3   7  -3  518.55   29.06
  -3   7  -3  516.81   29.84
   3  -7   3  471.70   28.53
   3  -7   3  486.43   27.10
  -4   7  -3  112.87   15.40
  -4   7  -3   96.47   16.71
   4  -7   3  110.44   16.11
   4  -7   3  133.56   16.09
   4  -7   3  141.96   15.72
  -5   7  -3   -7.32    8.17
  -5   7  -3   14.22   10.86
   5  -7   3   16.95   10.58
   5  -7   3   -1.57    6.87
  -6   7  -3   20.22   12.88
  -6   7  -3   26.79   11.05
   6  -7   3   35.21   13.47
   6  -7   3   27.85    8.44
  -7   7  -3    2.30   11.21
   7  -7   3   -4.94    6.04
   7  -7   3    4.04   11.49
  -8   7  -3    2.88   13.09
   8  -7   3    6.56   19.65
   5   6  -3   69.41   16.85
   5   6  -3   89.35   15.91
   5   6  -3  100.30   16.64
  -5  -6   3   72.56   18.71
   4   6  -3   11.16   10.25
   4   6  -3   39.05   13.04
  -4  -6   3   20.71   13.04
  -4  -6   3   31.27   11.93
   3   6  -3   52.04   12.96
   3   6  -3   24.19   11.05
   3   6  -3   46.72   11.93
  -3  -6   3   26.02   12.96
  -3  -6   3   26.51   11.41
   2   6  -3   19.84    9.10
   2   6  -3   32.75   11.37
   2   6  -3    8.56    8.37
  -2  -6   3   18.13   11.03
  -2  -6   3    8.48    9.74
   1   6  -3    4.40    7.10
   1   6  -3    3.78    8.02
   1   6  -3    7.17    8.47
  -1  -6   3    3.74    8.01
  -1  -6   3    6.48   11.91
   0   6  -3   12.38    6.50
   0   6  -3   22.22    7.18
   0   6  -3   18.42    8.88
   0   6  -3   21.23    9.57
   0  -6   3   29.34    9.53
   0  -6   3   17.07    8.56
   0  -6   3   25.67   11.80
  -1   6  -3   89.75   12.01
  -1   6  -3   86.59   13.12
   1  -6   3   63.96   10.91
   1  -6   3   40.45    9.84
   1  -6   3   76.74   13.65
  -2   6  -3   50.95   10.91
  -2   6  -3   37.27    9.78
   2  -6   3   38.92    9.77
   2  -6   3   29.89    8.61
   2  -6   3   57.08   11.74
  -3   6  -3    0.52    7.60
  -3   6  -3    1.71    8.55
   3  -6   3    7.70    7.58
   3  -6   3    6.24    7.07
   3  -6   3    2.61    6.88
  -4   6  -3  169.23   17.43
  -4   6  -3  213.83   21.59
   4  -6   3  146.03   17.96
   4  -6   3  202.69   15.95
   4  -6   3  194.97   18.34
  -5   6  -3   55.16   13.35
  -5   6  -3  103.22   14.32
   5  -6   3   71.15   10.62
   5  -6   3   91.01   14.51
   5  -6   3   86.28   14.55
  -6   6  -3    4.64   10.13
   6  -6   3    1.68    9.48
   6  -6   3    1.59    9.20
   6  -6   3    2.84    6.01
  -7   6  -3   -4.70   10.15
   7  -6   3   -2.08    5.11
   7  -6   3   -5.00   11.11
  -8   6  -3   -2.76   10.97
   8  -6   3    4.83   14.08
   6   5  -3    1.71   10.95
   6   5  -3   20.80   10.39
  -6  -5   3   12.36   13.10
   5   5  -3    6.38    9.38
   5   5  -3   11.02   10.33
   5   5  -3    4.32    8.44
  -5  -5   3   10.10   13.10
   4   5  -3   38.91   11.82
   4   5  -3   78.40   13.00
  -4  -5   3   67.82   15.95
  -4  -5   3   74.33   13.65
   3   5  -3   -2.13    7.25
   3   5  -3    0.70    7.26
   3   5  -3   -8.97    6.25
  -3  -5   3  -20.80    7.86
  -3  -5   3    0.51    7.53
   2   5  -3    3.76    7.23
   2   5  -3   -7.24    6.37
   2   5  -3   -1.91    6.00
  -2  -5   3   -3.59    8.51
  -2  -5   3   -5.17    6.98
   1   5  -3    0.92    6.27
   1   5  -3    2.77    5.70
   1   5  -3    2.69    6.61
  -1  -5   3    1.52    6.26
  -1  -5   3    0.09    6.05
  -1  -5   3   -9.61    8.77
   0   5  -3    8.28    6.58
   0   5  -3    4.13    5.17
   0   5  -3   12.09    5.65
   0  -5   3    6.45    6.44
   0  -5   3    4.48    6.63
   0  -5   3   12.92    9.10
  -1   5  -3  139.05   13.29
  -1   5  -3  141.69    9.22
  -1   5  -3  166.08   14.28
  -1   5  -3  153.06   14.88
   1  -5   3  159.27   14.78
   1  -5   3  158.16   15.02
   1  -5   3  135.11   14.03
  -2   5  -3    7.66    7.12
  -2   5  -3    2.98    5.94
   2  -5   3    5.10    5.57
   2  -5   3   -1.05    5.93
   2  -5   3   -7.20    6.36
  -3   5  -3   -3.42    7.02
  -3   5  -3    0.45    5.43
   3  -5   3    4.29    7.03
   3  -5   3   13.77    7.40
   3  -5   3    4.97    5.51
  -4   5  -3   63.58   10.23
  -4   5  -3   73.59   13.32
   4  -5   3   61.93   11.32
   4  -5   3   68.47    9.81
   4  -5   3  100.35   13.48
  -5   5  -3  148.63   18.64
  -5   5  -3  158.70   15.06
   5  -5   3  184.70   19.65
   5  -5   3  121.66   12.01
   5  -5   3  145.26   16.92
  -6   5  -3   52.84   13.35
   6  -5   3   52.66    8.23
   6  -5   3   40.70   12.08
   6  -5   3   69.93   15.16
  -7   5  -3    7.03    9.95
   7  -5   3   38.58   13.49
   7  -5   3   21.45   13.65
   7  -5   3   16.06    5.23
  -8   5  -3   43.26   15.15
   8  -5   3   61.65   16.11
   8  -5   3   31.28   15.77
   6   4  -3    5.70    8.39
   6   4  -3    5.13    7.68
   6   4  -3   -0.23    9.63
  -6  -4   3    9.16   12.70
   5   4  -3   10.12    9.19
   5   4  -3    3.65    7.61
   5   4  -3   17.77   10.92
  -5  -4   3   25.52   12.70
   4   4  -3    9.80    7.57
   4   4  -3    3.86    7.91
  -4  -4   3    2.51    7.45
  -4  -4   3   17.86   10.24
   3   4  -3  181.58   16.43
   3   4  -3  168.14   18.17
  -3  -4   3  153.94   18.50
  -3  -4   3  167.78   15.49
   2   4  -3   -2.97    5.75
   2   4  -3    0.89    5.92
   2   4  -3   -1.78    5.40
  -2  -4   3    7.98    7.76
  -2  -4   3   -1.22    5.59
   1   4  -3   17.22    5.23
   1   4  -3   11.25    6.28
   1   4  -3   19.36    6.09
  -1  -4   3   23.67    6.82
  -1  -4   3   15.87    7.91
  -1  -4   3   16.86    6.16
   0   4  -3   97.32   10.65
   0   4  -3  107.02   11.99
   0   4  -3  111.99   10.20
   0   4  -3   96.80    8.36
   0  -4   3   98.58   10.59
   0  -4   3   79.98   11.37
   0  -4   3   89.78   10.33
  -1   4  -3   34.13    7.42
  -1   4  -3   34.49    6.90
  -1   4  -3   33.01    6.68
   1  -4   3   36.22    7.18
   1  -4   3   50.12    8.90
   1  -4   3   34.43    7.03
  -2   4  -3  376.49   19.06
  -2   4  -3  390.26   20.60
  -2   4  -3  372.50   20.10
   2  -4   3  387.73   20.32
   2  -4   3  394.47   20.24
   2  -4   3  381.16   19.64
  -3   4  -3   12.05    5.30
  -3   4  -3   -4.01    6.45
   3  -4   3    3.44    4.68
   3  -4   3    6.55    6.32
   3  -4   3    7.70    6.32
  -4   4  -3  130.96   15.59
  -4   4  -3  124.49   11.84
   4  -4   3  124.36   14.72
   4  -4   3  106.57   10.46
   4  -4   3  122.91   13.91
  -5   4  -3  471.14   27.48
  -5   4  -3  441.78   26.41
   5  -4   3  491.85   27.80
   5  -4   3  488.80   22.25
   5  -4   3  456.51   27.46
  -6   4  -3   75.58   14.39
   6  -4   3   91.00    9.53
   6  -4   3  116.10   18.06
   6  -4   3   97.58   16.30
  -7   4  -3  -17.30    8.09
   7  -4   3    1.29    9.51
   7  -4   3  -11.67    9.58
   7  -4   3    3.59    3.66
  -8   4  -3   -4.86   11.02
  -8   4  -3   -0.27   10.85
   8  -4   3    7.80   12.21
   7   3  -3    9.42    7.15
   7   3  -3   12.57   12.58
  -7  -3   3   12.68   13.56
   6   3  -3   23.75    9.89
   6   3  -3   66.56   10.37
   6   3  -3   50.26   13.01
  -6  -3   3   77.42   16.73
   5   3  -3  135.93   13.72
   5   3  -3  107.87   16.49
   5   3  -3  147.68   15.64
  -5  -3   3  132.43   18.38
  -5  -3   3  146.74   15.42
   4   3  -3   55.27    9.96
   4   3  -3   53.61    9.19
   4   3  -3   71.61   12.95
  -4  -3   3   60.60   12.90
  -4  -3   3   49.25    9.95
   3   3  -3    0.06    6.56
   3   3  -3    4.56    5.67
   3   3  -3   -9.41    5.08
  -3  -3   3    5.34    5.34
  -3  -3   3   -3.16    6.57
   2   3  -3  107.66   11.11
   2   3  -3   99.30    6.96
   2   3  -3  110.12   11.64
   2   3  -3   98.19   11.24
  -2  -3   3   94.03   11.56
  -2  -3   3   95.86    9.11
  -2  -3   3   94.81   10.36
   1   3  -3  244.21   12.16
   1   3  -3  201.56   13.77
   1   3  -3  222.97   14.48
   1   3  -3  235.63   13.63
  -1  -3   3  228.00   16.00
  -1  -3   3  241.49   14.64
  -1  -3   3  250.83   12.76
   0   3  -3  408.42   18.29
   0   3  -3  365.36   16.68
   0   3  -3  400.72   18.93
   0   3  -3  392.27   19.65
   0  -3   3  392.55   17.56
   0  -3   3  365.66   20.76
   0  -3   3  403.96   19.45
  -1   3  -3  183.44   12.50
  -1   3  -3  164.76   11.92
  -1   3  -3  175.89   11.11
   1  -3   3  172.77   11.81
   1  -3   3  162.81   11.47
   1  -3   3  158.24   12.74
  -2   3  -3   11.26    5.04
  -2   3  -3   13.85    6.16
  -2   3  -3   18.31    4.93
   2  -3   3   13.82    5.80
   2  -3   3   14.93    4.90
   2  -3   3    1.84    5.16
  -3   3  -3    1.22    3.75
  -3   3  -3   -2.52    5.21
   3  -3   3    1.74    2.86
   3  -3   3    6.03    6.01
   3  -3   3   10.02    6.13
   3  -3   3    1.26    2.99
   3  -3   3   -1.80    3.78
  -4   3  -3 1430.59   55.45
  -4   3  -3 1434.08   50.09
   4  -3   3 1423.81   50.80
   4  -3   3 1414.78   55.93
   4  -3   3 1375.83   56.04
   4  -3   3 1427.23   51.37
  -5   3  -3   -2.14    6.97
   5  -3   3    2.94    4.84
   5  -3   3    5.17    8.40
   5  -3   3   -9.43    6.98
  -6   3  -3   25.24   10.34
   6  -3   3   51.33   13.99
   6  -3   3   47.74   13.29
   6  -3   3   44.68    6.93
  -7   3  -3   19.33   11.12
  -7   3  -3   21.00   11.72
   7  -3   3   26.21   12.00
   7  -3   3   19.14    4.29
  -8   3  -3   20.59   13.51
   8  -3   3   59.74   16.47
   8   2  -3   16.69    5.45
   8   2  -3   19.07   13.01
  -8  -2   3   31.11   15.81
   7   2  -3   11.54    6.19
   7   2  -3   14.86    8.94
   7   2  -3    3.29   11.04
  -7  -2   3   11.58   12.90
   6   2  -3   -0.61    8.53
   6   2  -3    6.74    5.71
   6   2  -3    6.08    7.61
  -6  -2   3    3.13   10.36
   5   2  -3   -2.10    6.60
   5   2  -3    5.03    5.53
   5   2  -3   -0.83    5.90
  -5  -2   3    4.96    9.20
  -5  -2   3   -2.87    6.63
   4   2  -3   95.59   10.26
   4   2  -3  112.43   12.61
   4   2  -3   78.73   11.99
  -4  -2   3   99.71   10.24
  -4  -2   3  139.78   15.44
   3   2  -3  162.03   13.56
   3   2  -3  162.44   12.20
   3   2  -3  152.00    8.23
   3   2  -3  169.59   12.19
   3   2  -3  149.93   11.51
  -3  -2   3  169.31   15.48
  -3  -2   3  170.77   10.22
   2   2  -3   -6.40    4.28
   2   2  -3   -0.71    4.64
   2   2  -3   -1.14    3.96
   2   2  -3   -3.45    2.91
   2   2  -3   -0.80    3.95
  -2  -2   3    0.31    3.70
  -2  -2   3   -0.72    4.83
  -2  -2   3    1.39    3.11
   1   2  -3  326.52   15.05
   1   2  -3  344.51   16.40
   1   2  -3  360.16   16.87
   1   2  -3  303.52   16.54
  -1  -2   3  329.41   14.25
  -1  -2   3  341.10   16.71
  -1  -2   3  335.75   17.92
   0   2  -3  503.37   20.70
   0   2  -3  493.84   21.97
   0   2  -3  513.28   21.48
   0  -2   3  502.70   19.83
   0  -2   3  503.75   19.81
   0  -2   3  504.89   22.46
   0  -2   3  474.03   21.65
  -1   2  -3   71.06    6.88
  -1   2  -3   60.48    7.26
  -1   2  -3   65.76    8.81
   1  -2   3   69.08    7.79
   1  -2   3   70.58    6.15
   1  -2   3   55.13    7.09
   1  -2   3   82.41    9.30
  -2   2  -3    5.17    3.29
  -2   2  -3    0.14    5.04
  -2   2  -3   -0.33    3.98
   2  -2   3   -2.10    3.32
   2  -2   3    1.37    4.77
   2  -2   3    3.50    3.93
   2  -2   3    0.73    3.10
   2  -2   3   12.71    5.75
  -3   2  -3  145.22    8.34
  -3   2  -3  161.61   13.09
   3  -2   3  157.38   10.54
   3  -2   3  157.13   11.03
   3  -2   3  149.26    9.88
   3  -2   3  158.85   13.60
   3  -2   3  167.42   14.78
  -4   2  -3   22.33    8.32
   4  -2   3    8.55    4.90
   4  -2   3   14.84    7.73
   4  -2   3   -4.36    6.59
   4  -2   3   10.90    5.51
  -5   2  -3    7.27    7.37
   5  -2   3   41.94   10.63
   5  -2   3   18.66    5.69
   5  -2   3   29.36    8.25
  -6   2  -3  324.22   25.06
   6  -2   3  319.89   24.87
   6  -2   3  326.02   16.66
  -7   2  -3   -0.33   10.66
   7  -2   3    0.61    4.10
   7  -2   3   -6.70    8.23
  -8   2  -3   -3.23   12.35
   8  -2   3  -10.94   10.72
   8   1  -3    9.57   11.39
  -8  -1   3   31.21   15.13
   7   1  -3    1.89    3.95
   7   1  -3    0.59    7.54
   7   1  -3    6.11    9.50
  -7  -1   3    5.25   10.49
   6   1  -3   71.49    8.14
   6   1  -3   68.93   13.88
   6   1  -3   72.16   12.14
  -6  -1   3   98.35   16.04
   5   1  -3   14.14    5.06
   5   1  -3   19.33    9.10
   5   1  -3   27.43    7.93
  -5  -1   3    9.46    8.46
  -5  -1   3    4.16    6.38
   4   1  -3   65.04    6.74
   4   1  -3   55.82    7.11
   4   1  -3   45.34    8.37
   4   1  -3   49.47    9.41
   4   1  -3   55.99    7.17
  -4  -1   3   74.50   11.07
  -4  -1   3   34.83    6.21
   3   1  -3  219.45   15.34
   3   1  -3  239.97   12.75
   3   1  -3  231.58   11.54
   3   1  -3  236.39   13.96
   3   1  -3  243.48   13.17
  -3  -1   3  226.24   10.81
  -3  -1   3  232.16   15.07
   2   1  -3   99.34    9.56
   2   1  -3  102.12    8.68
   2   1  -3   99.35    7.65
   2   1  -3  100.52   10.31
   2   1  -3  104.13    9.15
  -2  -1   3  107.04    5.40
  -2  -1   3   96.72   10.04
  -2  -1   3   97.27    8.62
   1   1  -3    7.61    4.32
   1   1  -3    9.41    4.41
   1   1  -3   11.00    4.59
  -1  -1   3    5.53    2.31
  -1  -1   3    8.22    4.73
  -1  -1   3    6.54    5.23
  -1  -1   3    3.25    3.66
   0   1  -3  386.07   15.84
   0   1  -3  367.58   17.72
   0   1  -3  373.52   17.10
   0  -1   3  358.29   17.51
   0  -1   3  345.86   15.20
   0  -1   3  421.39   16.94
   0  -1   3  374.26   17.28
  -1   1  -3 1237.83   41.38
  -1   1  -3 1215.11   44.98
  -1   1  -3 1242.14   45.07
   1  -1   3 1269.80   44.35
   1  -1   3 1211.46   44.61
   1  -1   3 1253.11   43.46
   1  -1   3 1230.22   45.56
  -2   1  -3   98.75   10.90
  -2   1  -3  102.55    9.69
   2  -1   3  102.42   11.29
   2  -1   3   96.27    9.30
   2  -1   3   93.79    8.70
   2  -1   3   86.92    9.95
   2  -1   3  103.79    8.65
  -3   1  -3   59.14    9.38
   3  -1   3   55.70    7.41
   3  -1   3   59.01    8.72
   3  -1   3   55.69    7.36
   3  -1   3   72.40   10.75
  -4   1  -3   94.45   13.45
  -4   1  -3  111.54   13.08
   4  -1   3   88.66    9.79
   4  -1   3   73.81   12.73
   4  -1   3   72.74   10.80
  -5   1  -3  140.20   15.27
  -5   1  -3  142.83   17.60
   5  -1   3  130.65   14.87
   5  -1   3  163.87   19.37
   5  -1   3  125.23   11.84
  -6   1  -3  -14.53    8.27
  -6   1  -3    3.50    8.07
   6  -1   3   -5.84    4.50
   6  -1   3    0.39    8.04
   6  -1   3   13.71    9.32
  -7   1  -3   -5.92   10.45
   7  -1   3   10.13    5.51
   7  -1   3   10.97   11.60
  -8   1  -3   40.44   15.12
   8  -1   3   47.10   18.53
   9   0  -3   -9.54   11.06
  -9   0   3    6.15   12.58
   8   0  -3    0.44    8.67
   8   0  -3    1.17   10.16
  -8   0   3   15.09   11.44
   7   0  -3  221.94   24.51
   7   0  -3  201.49   19.16
  -7   0   3  206.90   23.09
   6   0  -3   21.34    9.38
   6   0  -3   20.32    4.16
   6   0  -3   15.00    4.16
   6   0  -3   28.39    9.11
  -6   0   3   26.18   10.10
   5   0  -3    7.39    6.53
   5   0  -3    2.38    3.43
   5   0  -3   -1.70    5.08
   5   0  -3    6.75    3.92
   5   0  -3    7.30    7.74
  -5   0   3   -1.39    6.68
  -5   0   3    1.35    5.33
   4   0  -3   83.84    7.66
   4   0  -3   80.03    8.55
   4   0  -3   81.19    7.14
   4   0  -3   84.46   10.34
   4   0  -3   73.81   10.65
  -4   0   3   88.86   10.93
  -4   0   3   84.78    7.52
   3   0  -3  567.56   22.92
   3   0  -3  566.18   24.46
   3   0  -3  549.37   22.57
   3   0  -3  565.31   22.13
   3   0  -3  591.43   26.21
  -3   0   3  545.45   19.89
  -3   0   3  551.40   24.29
   2   0  -3  366.91   17.29
   2   0  -3  367.76   16.91
   2   0  -3  373.19   16.99
   2   0  -3  380.49   16.79
  -2   0   3  368.10   17.27
  -2   0   3  404.12   18.98
  -2   0   3  376.16   19.90
   1   0  -3  383.71   16.36
   1   0  -3  377.88   17.48
   1   0  -3  402.28   17.24
  -1   0   3  372.43   17.23
  -1   0   3  381.35   17.11
  -1   0   3  395.13   18.01
   0   0  -3  318.68   16.16
   0   0  -3  333.71   15.86
   0   0  -3  334.24   13.51
   0   0  -3  333.72   14.28
   0   0   3  332.62   15.95
   0   0   3  315.82   15.65
   0   0   3  317.04   15.46
  -1   0  -3 1073.29   40.29
  -1   0  -3 1047.62   35.02
  -1   0  -3 1115.97   39.63
  -1   0  -3 1035.59   39.68
   1   0   3 1148.51   40.14
   1   0   3 1066.12   40.37
   1   0   3 1024.74   39.82
  -2   0  -3  606.38   26.84
  -2   0  -3  628.87   26.80
  -2   0  -3  658.09   27.77
   2   0   3  624.96   26.36
   2   0   3  574.78   27.68
   2   0   3  643.34   26.79
   2   0   3  636.61   27.26
  -3   0  -3  892.45   36.52
  -3   0  -3  966.84   38.97
   3   0   3  898.86   36.10
   3   0   3  912.82   38.13
   3   0   3  875.55   39.31
  -4   0  -3   32.12    8.44
  -4   0  -3   34.10    9.48
   4   0   3   11.83    8.71
   4   0   3   24.08    8.39
   4   0   3   31.78    6.89
  -5   0  -3   62.49   12.47
  -5   0  -3   58.66   10.92
   5   0   3   48.62   11.34
   5   0   3   69.84   13.46
   5   0   3   49.38    8.72
  -6   0  -3   45.29   13.43
   6   0   3   77.09   10.34
   6   0   3   48.29   13.15
   6   0   3   51.45   13.54
  -7   0  -3   -9.70   10.91
   7   0   3   14.39   12.46
   7   0   3  -14.55    7.96
   7   0   3   -2.80    5.83
   9  -1  -3   41.60   16.37
  -9   1   3   51.27   15.77
   8  -1  -3  176.99   19.97
   8  -1  -3  147.89   21.81
  -8   1   3  150.80   20.56
   7  -1  -3  -21.99    7.16
   7  -1  -3    6.12    8.10
  -7   1   3   -2.81    7.58
   6  -1  -3    4.59    7.44
   6  -1  -3   10.21    8.79
   6  -1  -3    9.25    6.55
  -6   1   3   18.07    8.19
   5  -1  -3   79.29    6.36
   5  -1  -3   72.63    5.76
   5  -1  -3   78.85   12.63
   5  -1  -3   60.82    9.88
   5  -1  -3   95.18   11.22
  -5   1   3   92.65    9.55
  -5   1   3   74.85   10.90
   4  -1  -3   67.30    9.10
   4  -1  -3   61.19    8.29
   4  -1  -3   56.52    5.62
   4  -1  -3   67.59    6.57
   4  -1  -3   65.78    6.21
  -4   1   3   46.42    7.43
  -4   1   3   63.48   10.51
   3  -1  -3   37.27    5.36
   3  -1  -3   47.64    7.49
   3  -1  -3   38.72    5.21
   3  -1  -3   45.05    4.37
   3  -1  -3   53.53    7.31
  -3   1   3   40.54    7.98
  -3   1   3   43.42    6.51
   2  -1  -3   -3.68    3.75
   2  -1  -3   -2.14    2.19
   2  -1  -3   -5.88    3.86
   2  -1  -3    2.28    3.44
   2  -1  -3    0.32    3.59
  -2   1   3   -2.54    3.70
  -2   1   3   -1.47    3.54
  -2   1   3   -1.68    5.04
   1  -1  -3    6.64    3.22
   1  -1  -3   11.34    4.69
   1  -1  -3    9.26    5.03
   1  -1  -3    1.85    3.71
  -1   1   3   11.89    4.57
  -1   1   3   15.07    5.97
  -1   1   3    6.25    3.86
   0  -1  -3  597.23   26.02
   0  -1  -3  601.03   22.35
   0  -1  -3  589.78   24.70
   0  -1  -3  637.35   24.52
   0   1   3  647.83   25.94
   0   1   3  579.46   26.08
   0   1   3  603.03   24.31
  -1  -1  -3   25.54    6.14
  -1  -1  -3   36.17    7.21
  -1  -1  -3   28.64    6.64
   1   1   3   34.36    7.44
   1   1   3   27.66    6.17
   1   1   3   21.74    6.41
   1   1   3   31.22    3.30
  -2  -1  -3   21.66    6.17
  -2  -1  -3   20.25    6.97
  -2  -1  -3    9.17    5.46
   2   1   3   14.99    5.74
   2   1   3   22.35    7.33
   2   1   3   16.34    7.06
  -3  -1  -3  122.26   14.91
  -3  -1  -3  119.80   12.26
   3   1   3  102.63   13.17
   3   1   3  108.70   11.89
   3   1   3  123.96   14.74
  -4  -1  -3   44.08    8.92
  -4  -1  -3   43.01   11.45
   4   1   3   23.76    7.69
   4   1   3   42.81   10.95
   4   1   3   35.17   10.34
  -5  -1  -3   66.13   13.84
   5   1   3   59.69   13.69
   5   1   3   74.77   10.97
   5   1   3   74.67   14.11
  -6  -1  -3   19.73   12.28
   6   1   3   26.83    8.79
   6   1   3   17.18   12.26
   6   1   3   27.17   12.25
  -7  -1  -3  -20.10   12.53
   7   1   3    5.80   11.60
   7   1   3    0.35    7.07
   7   1   3  -16.35   10.12
  -9   2   3   28.60   14.60
   8  -2  -3   16.63   11.32
  -8   2   3   22.51   11.06
   7  -2  -3    8.70    9.10
   7  -2  -3   14.20    8.93
  -7   2   3    3.98    9.83
  -7   2   3   14.11    8.41
   6  -2  -3    3.45    6.90
   6  -2  -3   -5.27    6.40
  -6   2   3   10.29    6.78
  -6   2   3   -0.38    7.35
   5  -2  -3   -0.49    5.11
   5  -2  -3    1.94    6.66
   5  -2  -3    1.50    2.55
   5  -2  -3    3.50    2.70
   5  -2  -3    3.84    5.99
  -5   2   3    3.77    5.29
  -5   2   3   -7.37    5.57
   4  -2  -3  120.30    8.72
   4  -2  -3  128.53   12.56
   4  -2  -3  107.33   11.50
   4  -2  -3  122.77    8.34
   4  -2  -3  105.73    8.52
  -4   2   3  120.64   13.42
  -4   2   3  114.22    9.17
   3  -2  -3   -0.68    3.57
   3  -2  -3    8.39    5.30
   3  -2  -3    2.65    3.58
   3  -2  -3   -4.08    4.31
   3  -2  -3    4.94    3.40
  -3   2   3    4.29    3.47
  -3   2   3   -2.00    5.96
   2  -2  -3    9.84    4.10
   2  -2  -3   11.90    4.56
   2  -2  -3    8.01    5.18
   2  -2  -3   17.33    5.52
   2  -2  -3   13.43    4.87
  -2   2   3   10.15    6.45
  -2   2   3   14.21    3.53
  -2   2   3   11.82    4.48
   1  -2  -3   43.33    7.26
   1  -2  -3   30.25    6.14
   1  -2  -3   48.22    7.49
  -1   2   3   46.05    5.42
  -1   2   3   45.23    6.96
  -1   2   3   30.36    8.01
   0  -2  -3   -0.76    3.97
   0  -2  -3   -0.76    4.44
   0  -2  -3   -2.81    4.41
   0   2   3    4.47    3.38
   0   2   3    2.61    4.46
   0   2   3   -3.28    5.23
   0   2   3    1.86    4.10
  -1  -2  -3  491.13   22.38
  -1  -2  -3  487.89   24.77
  -1  -2  -3  540.16   24.18
   1   2   3  507.99   23.39
   1   2   3  492.67   19.23
   1   2   3  512.98   25.33
   1   2   3  537.34   24.45
  -2  -2  -3   69.21    8.76
  -2  -2  -3   71.97   12.22
   2   2   3   93.33   12.93
   2   2   3   78.42   10.96
   2   2   3   45.76    8.43
  -3  -2  -3   30.47   11.17
  -3  -2  -3   28.93    7.28
   3   2   3   16.51    8.71
   3   2   3   26.64    7.89
   3   2   3   23.36   10.35
  -4  -2  -3   12.71   10.51
   4   2   3   14.91    9.41
   4   2   3   28.15    8.73
   4   2   3   17.49    9.28
  -5  -2  -3    3.60   10.87
   5   2   3   22.45    7.67
   5   2   3   -4.22    8.34
   5   2   3   -9.14    7.46
  -6  -2  -3   13.12   14.07
   6   2   3   -4.36   10.15
   6   2   3   -2.40    7.75
   6   2   3   -3.02   11.30
   9  -3  -3    9.18   11.56
  -9   3   3    8.43   12.40
   8  -3  -3    4.34    9.47
   8  -3  -3    7.31    9.38
  -8   3   3   -1.34    9.73
   7  -3  -3  125.94   16.11
   7  -3  -3  166.44   18.00
  -7   3   3  159.70   20.05
   6  -3  -3   18.97    9.29
   6  -3  -3   41.42   10.50
   6  -3  -3   20.79    7.61
  -6   3   3   27.21    7.50
  -6   3   3   18.38    9.85
   5  -3  -3   64.42    6.47
   5  -3  -3   67.74    9.26
   5  -3  -3   60.32   10.63
   5  -3  -3   61.13    6.67
   5  -3  -3   70.25   11.07
  -5   3   3   71.29   12.12
  -5   3   3   71.73    8.21
   4  -3  -3  275.39   17.70
   4  -3  -3  316.36   15.63
   4  -3  -3  301.65   18.05
   4  -3  -3  303.97   15.26
   4  -3  -3  283.88   15.22
  -4   3   3  280.04   13.21
  -4   3   3  310.37   19.58
   3  -3  -3  202.82   12.30
   3  -3  -3  134.09   10.21
   3  -3  -3  135.31   11.24
   3  -3  -3  168.65   12.58
   3  -3  -3  181.71   13.47
  -3   3   3  124.11   14.17
   2  -3  -3    2.41    5.07
   2  -3  -3   -7.87    4.07
   2  -3  -3    1.87    4.74
  -2   3   3   -3.95    4.45
  -2   3   3    2.10    5.67
  -2   3   3   -0.70    4.24
   1  -3  -3   11.80    5.75
   1  -3  -3    6.04    5.18
   1  -3  -3   19.71    5.91
  -1   3   3   14.89    5.62
  -1   3   3   13.29    3.74
  -1   3   3   13.72    7.05
  -1   3   3   14.49    5.33
   0  -3  -3  268.43   15.69
   0  -3  -3  263.19   14.95
   0  -3  -3  261.26   17.36
   0   3   3  246.10   16.99
   0   3   3  284.24   16.68
   0   3   3  251.53   13.81
   0   3   3  247.48   13.43
  -1  -3  -3   44.66    8.94
  -1  -3  -3   50.02    9.31
  -1  -3  -3   54.57    8.26
   1   3   3   53.11   10.62
   1   3   3   46.53    8.36
   1   3   3   52.98    6.71
   1   3   3   42.73    8.37
  -2  -3  -3  996.39   39.67
  -2  -3  -3 1066.38   44.28
   2   3   3  981.65   43.05
   2   3   3 1034.37   43.03
   2   3   3  976.50   44.74
  -3  -3  -3   63.58   13.08
   3   3   3   39.99   10.17
   3   3   3   56.76   12.05
   3   3   3   62.07   13.63
  -4  -3  -3   12.29   11.38
   4   3   3   22.70   10.92
   4   3   3   24.09   11.72
   4   3   3   16.93    8.99
  -5  -3  -3   10.64   12.88
   5   3   3   39.75   12.89
   5   3   3    4.56   10.78
   5   3   3   13.36    9.65
  -6  -3  -3    0.68   12.07
   6   3   3    5.09    9.93
   6   3   3   24.14   13.34
   6   3   3   22.32   12.83
  -9   4   3   36.26   14.22
   8  -4  -3   18.25   10.60
  -8   4   3    7.34   11.50
   7  -4  -3  101.05   15.00
  -7   4   3  130.34   18.64
   6  -4  -3  186.53   14.98
   6  -4  -3  205.51   10.98
   6  -4  -3  199.31   10.74
   6  -4  -3  230.08   20.94
  -6   4   3  217.87   21.55
   5  -4  -3   65.18   10.04
   5  -4  -3   56.01   11.10
   5  -4  -3   40.55    6.79
  -5   4   3   21.91    9.79
   4  -4  -3  156.45   13.37
   4  -4  -3  139.98   14.50
   4  -4  -3  135.88   12.05
  -4   4   3  145.15   14.82
  -4   4   3  107.75   14.91
   3  -4  -3  116.25   13.01
   3  -4  -3  108.58   11.79
   3  -4  -3  146.11   12.98
  -3   4   3  126.57   14.74
  -3   4   3  129.66   13.70
   2  -4  -3  120.01   12.55
   2  -4  -3  108.96   12.03
   2  -4  -3  111.55   12.22
  -2   4   3   71.53   11.58
  -2   4   3  118.45   11.79
  -2   4   3   70.53   14.56
   1  -4  -3   20.62    6.71
   1  -4  -3   24.75    7.28
   1  -4  -3   49.33    8.95
  -1   4   3   19.54    7.61
  -1   4   3   16.40    6.88
  -1   4   3   24.42    6.36
   0  -4  -3    9.92    6.08
   0  -4  -3   18.18    7.72
   0  -4  -3   19.44    7.97
   0   4   3    0.99    6.35
   0   4   3    3.40    7.37
   0   4   3   10.47    5.63
   0   4   3   12.66    5.58
  -1  -4  -3   40.47   10.46
  -1  -4  -3   29.54    7.76
   1   4   3   35.53    7.21
   1   4   3   48.69   10.48
   1   4   3   30.88   10.50
   1   4   3   26.88    8.12
  -2  -4  -3   60.33   13.56
   2   4   3   56.76   13.44
   2   4   3   48.41   11.16
   2   4   3   48.85   10.68
  -3  -4  -3   12.74   10.64
   3   4   3   17.49   10.09
   3   4   3   12.49   10.65
   3   4   3   21.33    9.60
  -4  -4  -3  116.21   19.69
   4   4   3   96.20   16.21
   4   4   3  114.46   19.49
   4   4   3   98.21   16.89
  -5  -4  -3   17.45   14.48
   5   4   3   25.52   11.57
   5   4   3    8.81   13.04
   9  -5  -3    5.68   11.90
  -9   5   3    5.32   12.50
   8  -5  -3   29.94   12.68
  -8   5   3   25.30   12.38
   7  -5  -3   18.74    9.43
  -7   5   3   -5.28    8.61
  -7   5   3    2.09    9.97
   6  -5  -3   52.93   12.69
   6  -5  -3   59.59    7.74
   6  -5  -3   46.20   10.81
  -6   5   3   50.17   12.26
  -6   5   3   48.17   13.39
   5  -5  -3    0.83    7.21
   5  -5  -3   -3.39    4.62
   5  -5  -3    2.62    6.63
  -5   5   3    0.13    7.69
  -5   5   3    3.19    8.35
   4  -5  -3   86.49   11.11
   4  -5  -3  100.94   12.00
   4  -5  -3   74.73   12.34
  -4   5   3   65.60   12.56
  -4   5   3  102.08   14.87
   3  -5  -3  186.76   18.02
   3  -5  -3  236.12   16.44
   3  -5  -3  251.77   17.59
  -3   5   3  270.85   20.07
  -3   5   3  233.18   17.26
   2  -5  -3   -7.81    6.63
   2  -5  -3   13.44    6.74
   2  -5  -3   21.42    8.11
  -2   5   3   20.38    7.67
  -2   5   3   19.06    8.84
   1  -5  -3    2.19    6.38
   1  -5  -3   -2.73    6.01
  -1   5   3   -9.26    6.46
  -1   5   3  -11.38    5.36
   0  -5  -3    4.36    8.36
   0  -5  -3    2.64    6.42
   0  -5  -3   -5.51    7.64
   0   5   3    1.71    8.63
   0   5   3    6.08    7.38
   0   5   3   -0.34    6.32
  -1  -5  -3    7.87    9.63
   1   5   3    3.82    8.62
   1   5   3   -6.48    7.24
  -2  -5  -3   13.44   10.64
  -2  -5  -3   24.02   10.51
   2   5   3   10.73    9.86
   2   5   3    7.74   11.10
  -3  -5  -3  133.37   20.25
  -3  -5  -3  126.39   18.62
   3   5   3  133.54   18.31
   3   5   3  131.10   20.70
  -4  -5  -3   -6.36   11.10
  -4  -5  -3  -13.03   11.19
   4   5   3    0.85   11.82
   4   5   3    3.78   10.49
   9  -6  -3   -6.93   10.09
  -9   6   3   21.59   13.99
   8  -6  -3   47.34   13.80
  -8   6   3   17.41   11.88
   7  -6  -3   22.30   11.19
   7  -6  -3   40.51    6.93
  -7   6   3   14.63   10.60
   6  -6  -3   55.83    9.58
   6  -6  -3   54.57   13.75
   6  -6  -3   48.95   11.81
  -6   6   3   45.94   12.09
  -6   6   3   46.83   13.06
   5  -6  -3   47.73    9.82
   5  -6  -3   61.65   12.55
   5  -6  -3   39.06   10.00
  -5   6   3   42.05   12.74
  -5   6   3   50.93   11.80
   4  -6  -3    6.89    8.72
   4  -6  -3    7.58    7.35
   4  -6  -3   12.80    8.86
  -4   6   3    3.72    7.74
  -4   6   3    4.42    9.14
   3  -6  -3    8.24    7.18
   3  -6  -3    1.71    7.49
   3  -6  -3    5.27    7.48
  -3   6   3    3.07    8.10
  -3   6   3   -1.56    6.72
   2  -6  -3   16.32   10.32
   2  -6  -3    9.96    7.46
   2  -6  -3   -0.78    7.09
  -2   6   3   18.85    8.78
  -2   6   3   10.14    8.88
   1  -6  -3   23.66   10.69
   1  -6  -3   19.99    8.40
   1  -6  -3   23.78   10.52
  -1   6   3   22.40    8.61
  -1   6   3    5.37    8.81
   0  -6  -3   30.05   12.24
   0   6   3   35.20    9.57
   0   6   3   23.84   11.60
  -1  -6  -3    7.76   10.50
   1   6   3   10.79   10.89
  -2  -6  -3    4.08   11.52
   2   6   3   18.42   11.77
   2   6   3  -13.41   10.16
  -3  -6  -3    2.49   12.12
   3   6   3  -12.46    9.99
   3   6   3  -10.28   10.17
   8  -7  -3   32.24   13.80
  -8   7   3   30.04   15.10
   7  -7  -3    1.36    6.18
   7  -7  -3    1.51   10.16
  -7   7   3    2.88   10.17
   6  -7  -3   10.89   10.53
   6  -7  -3    5.92    9.68
   6  -7  -3   -5.97    6.64
  -6   7   3    8.47   10.42
   5  -7  -3   41.63   12.36
   5  -7  -3   39.67   10.76
   5  -7  -3   46.59   12.06
  -5   7   3   25.88   11.15
   4  -7  -3    5.47    9.82
   4  -7  -3   18.59    9.35
   4  -7  -3   -0.49    8.45
  -4   7   3   16.35    9.42
  -4   7   3   16.97   10.36
   3  -7  -3    5.74    8.51
   3  -7  -3    5.55   10.06
   3  -7  -3   -2.68    8.07
  -3   7   3   -5.32    8.13
  -3   7   3    6.00    9.29
   2  -7  -3  -17.92    8.33
   2  -7  -3   -6.35    7.93
   2  -7  -3   -1.61    8.87
  -2   7   3    9.14   10.15
  -2   7   3    4.43    8.84
   1  -7  -3   35.15   12.93
  -1   7   3   64.78   12.67
  -1   7   3   63.89   14.72
   0  -7  -3   21.68   12.53
   0   7   3    9.16   11.36
  -1  -7  -3   29.72   14.44
   1   7   3   37.24   15.89
  -2  -7  -3   -0.32   12.28
   2   7   3   -5.19   11.72
   7  -8  -3   -3.37    7.52
   7  -8  -3    7.67   11.49
  -7   8   3    1.32   10.49
   6  -8  -3   14.24    9.64
   6  -8  -3  -17.73    7.57
   6  -8  -3   31.34   12.60
  -6   8   3   -8.42    8.62
   5  -8  -3   -0.73    9.31
   5  -8  -3    2.40   10.32
   5  -8  -3   -4.05    9.32
  -5   8   3   -8.60    9.81
   4  -8  -3   11.66   12.01
   4  -8  -3    3.85    9.70
   4  -8  -3    0.61    9.96
  -4   8   3    8.68   10.46
   3  -8  -3   41.78   13.15
   3  -8  -3   21.53   12.06
   3  -8  -3   20.28   11.70
  -3   8   3   49.15   13.20
  -3   8   3   23.00   12.21
   2  -8  -3   16.96   13.16
  -2   8   3   31.02   13.04
  -2   8   3   14.23   10.94
   1  -8  -3   -7.77   11.16
  -1   8   3   -4.15    9.65
  -1   8   3   -4.90   10.86
   0  -8  -3   13.97   14.19
   0   8   3    6.24   12.76
   1   8   3   15.60   15.27
   6  -9  -3    2.33   11.44
   6  -9  -3    5.06   10.70
   6  -9  -3    9.71   11.86
   5  -9  -3   14.46   11.44
   5  -9  -3   30.36   13.04
   5  -9  -3   40.48   13.70
  -5   9   3   31.60   13.82
   4  -9  -3    5.60   10.07
   4  -9  -3  -25.00   11.47
   4  -9  -3   -5.02   10.59
  -4   9   3    5.52   10.33
   3  -9  -3   -0.87   11.24
   3  -9  -3   -3.09    9.84
  -3   9   3   -9.10   10.10
   2  -9  -3   32.24   14.63
  -2   9   3    7.21   11.61
  -1   9   3   -6.34   12.58
   1 -10   4   18.73   12.73
  -2  10  -4   -2.30   11.17
   2 -10   4   -5.81   10.47
  -3  10  -4    1.45   12.06
   3 -10   4   -6.90   10.89
   3 -10   4    4.04   11.99
  -4  10  -4    5.64   12.25
  -4  10  -4   38.71   16.01
   4 -10   4   23.35   15.47
   4 -10   4   10.51   11.87
   1   9  -4   20.53   12.49
  -1  -9   4   31.97   13.21
   0   9  -4   13.61   11.29
   0  -9   4   20.09   13.13
  -1   9  -4   87.06   16.56
   1  -9   4   33.82   13.00
  -2   9  -4   19.72   12.16
   2  -9   4   21.35   15.49
   2  -9   4   15.90   11.70
  -3   9  -4   -5.76   12.26
  -3   9  -4    5.38   10.46
   3  -9   4    6.13   11.86
   3  -9   4    2.52   10.64
  -4   9  -4   36.04   15.19
  -4   9  -4   17.52   11.21
   4  -9   4   20.38   12.11
   4  -9   4    7.07   11.98
  -5   9  -4   -3.39   10.10
  -5   9  -4   -9.05   13.95
   5  -9   4   -1.43   11.45
   5  -9   4   -5.39   11.32
  -6   9  -4   40.85   18.13
  -6   9  -4   63.07   18.26
   6  -9   4   47.63   18.18
   6  -9   4   36.51   13.92
   3   8  -4   -5.87    9.59
  -3  -8   4  -19.46   14.68
   2   8  -4    0.73    9.42
  -2  -8   4   -8.72   15.98
  -2  -8   4   -6.99    9.94
   1   8  -4   39.29   13.37
  -1  -8   4   -5.30   18.99
  -1  -8   4   40.44   13.98
   0   8  -4  186.55   21.56
   0  -8   4  193.86   22.53
  -1   8  -4   28.17   11.69
   1  -8   4   45.69   14.37
   1  -8   4   27.06   10.95
  -2   8  -4    3.58    8.87
  -2   8  -4  -13.59    9.15
   2  -8   4    0.30   10.27
   2  -8   4    8.12    9.41
   2  -8   4   -2.17    8.65
  -3   8  -4   -3.56   10.67
  -3   8  -4   -4.20    8.77
   3  -8   4  -10.08    8.46
   3  -8   4   -2.02    9.31
  -4   8  -4   19.21   12.30
  -4   8  -4   27.77   12.19
   4  -8   4    5.50    9.43
   4  -8   4   24.84   11.99
  -5   8  -4   67.46   17.74
  -5   8  -4   89.74   16.08
   5  -8   4   69.81   14.07
   5  -8   4   59.80   16.17
   6  -8   4   53.43   14.94
   6  -8   4   23.15   10.16
  -7   8  -4   19.23   22.53
   7  -8   4   44.36   14.78
   4   7  -4    4.23   10.92
   4   7  -4   25.15   12.61
   4   7  -4   -8.74    9.82
  -4  -7   4   20.23   15.16
   3   7  -4   29.36   12.25
   3   7  -4   17.34   11.53
   3   7  -4   14.03   11.69
  -3  -7   4   34.87   16.81
   2   7  -4   10.78   10.26
   2   7  -4   10.31    9.76
   2   7  -4   20.98   10.81
  -2  -7   4   22.56   14.63
  -2  -7   4    2.37    9.25
   1   7  -4    9.22    8.69
  -1  -7   4  -20.03   12.30
  -1  -7   4    5.46    8.85
   0   7  -4    4.94    8.46
   0  -7   4    9.24    9.35
   0  -7   4   -4.48   11.64
  -1   7  -4   10.48    8.36
  -1   7  -4    1.01    8.08
   1  -7   4   -2.24    7.43
   1  -7   4   -0.97    8.01
   1  -7   4   -3.19    9.61
  -2   7  -4    0.97    8.36
  -2   7  -4   -9.52    8.60
   2  -7   4    3.17    8.43
   2  -7   4   25.52   10.24
   2  -7   4    3.42    9.73
  -3   7  -4   94.94   14.56
  -3   7  -4   84.44   15.35
   3  -7   4   76.63   14.42
   3  -7   4   94.90   14.42
   3  -7   4   96.68   14.99
  -4   7  -4   59.90   12.57
  -4   7  -4   45.59   13.42
   4  -7   4   41.27   11.72
   4  -7   4   53.91   14.25
   4  -7   4   28.50   10.35
  -5   7  -4   37.32   12.00
  -5   7  -4   25.80   13.39
   5  -7   4   65.65   15.33
   5  -7   4   63.48   14.09
   5  -7   4   25.95    9.82
  -6   7  -4   18.95   12.80
   6  -7   4   33.31   12.43
   6  -7   4    7.97    7.90
  -7   7  -4  -12.15    9.69
   7  -7   4  -16.62   10.64
   7  -7   4    0.72    7.19
   5   6  -4   17.52   12.62
   5   6  -4  -19.39    9.01
   5   6  -4   -4.15    9.04
  -5  -6   4  -14.21   11.44
   4   6  -4   -6.72    8.60
   4   6  -4    3.15    9.29
   4   6  -4    8.69   10.10
  -4  -6   4  -16.27   11.62
   3   6  -4   39.24   11.88
   3   6  -4   77.16   14.80
   3   6  -4   69.25   13.61
  -3  -6   4   49.59   12.72
  -3  -6   4   45.46   15.50
   2   6  -4   10.19    8.45
   2   6  -4    2.85    8.58
   2   6  -4   10.29    9.18
  -2  -6   4    7.94    8.43
  -2  -6   4   11.80   11.61
   1   6  -4    0.18    7.52
   1   6  -4   -7.67    6.64
   1   6  -4    0.15    6.23
  -1  -6   4    5.22   10.75
  -1  -6   4   -0.72    7.60
   0   6  -4   24.68    9.01
   0   6  -4    8.09    7.33
   0  -6   4   13.38    8.12
   0  -6   4   23.42   12.13
   0  -6   4   26.57    9.61
  -1   6  -4  197.16   17.76
  -1   6  -4  201.24   18.64
   1  -6   4  183.73   17.74
   1  -6   4  179.95   18.83
   1  -6   4  205.80   19.00
  -2   6  -4    8.30    8.05
  -2   6  -4    0.41    8.03
   2  -6   4   11.02    8.70
   2  -6   4    7.58    7.91
   2  -6   4    8.57    7.30
  -3   6  -4   28.61   10.99
  -3   6  -4   42.87    9.99
   3  -6   4   36.81   10.45
   3  -6   4   37.88   10.05
   3  -6   4   25.81    9.97
  -4   6  -4    0.59    7.53
  -4   6  -4    1.60    9.04
   4  -6   4   14.46    9.01
   4  -6   4    4.24    7.07
   4  -6   4  -13.80    7.60
  -5   6  -4   24.60    9.90
  -5   6  -4    3.71   10.14
   5  -6   4   12.57    9.77
   5  -6   4   26.17   10.42
   5  -6   4   22.15    7.84
  -6   6  -4    5.00   10.95
   6  -6   4    3.71    6.18
   6  -6   4   -2.74    9.25
   6  -6   4   -1.38    8.81
  -7   6  -4   14.83   12.23
   7  -6   4   12.03   12.49
   7  -6   4    1.00   11.65
   7  -6   4    5.13    6.79
  -8   6  -4   -1.05   11.81
   6   5  -4   -2.97    9.16
   6   5  -4   -3.55   10.41
   6   5  -4    8.29    9.11
  -6  -5   4   15.01   13.87
   5   5  -4    3.00    9.76
   5   5  -4   12.79    9.46
   5   5  -4    6.34    9.75
  -5  -5   4    8.63   12.61
   4   5  -4   59.02   14.30
   4   5  -4   44.69   11.46
   4   5  -4   28.55   10.39
  -4  -5   4   50.22   14.48
   3   5  -4  136.42   16.93
   3   5  -4  125.77   15.68
   3   5  -4  131.07   15.88
  -3  -5   4  109.18   13.79
  -3  -5   4   97.21   17.03
   2   5  -4   -0.87    7.48
   2   5  -4    5.41    7.36
   2   5  -4    5.34    7.42
  -2  -5   4    6.94   10.38
  -2  -5   4    7.73    7.49
   1   5  -4  159.54   16.60
   1   5  -4  152.12   14.68
   1   5  -4  147.65   11.72
   1   5  -4  133.52   14.96
  -1  -5   4  142.07   17.44
  -1  -5   4  133.42   14.03
   0   5  -4   77.87   11.76
   0   5  -4  105.37   10.77
   0   5  -4   88.25   10.76
   0   5  -4   91.83   11.84
   0  -5   4   85.59   11.47
   0  -5   4   93.24   13.00
   0  -5   4  107.68   17.25
  -1   5  -4   38.18    9.42
  -1   5  -4   43.33    9.34
  -1   5  -4   45.97   13.69
   1  -5   4   53.53    9.96
   1  -5   4   70.44   10.93
   1  -5   4   51.37   10.73
  -2   5  -4  252.48   18.79
  -2   5  -4  249.13   17.29
   2  -5   4  262.57   18.54
   2  -5   4  292.38   18.75
   2  -5   4  265.25   18.71
  -3   5  -4   73.86   10.37
  -3   5  -4   67.29   12.26
   3  -5   4   43.19   10.67
   3  -5   4   49.78   10.96
   3  -5   4   62.45   10.25
  -4   5  -4  141.59   17.14
  -4   5  -4  126.94   13.69
   4  -5   4  112.74   15.37
   4  -5   4  127.02   16.24
   4  -5   4  122.05   13.01
  -5   5  -4   48.81   12.70
   5  -5   4   66.74   13.57
   5  -5   4   69.50   14.65
   5  -5   4   34.61    8.59
  -6   5  -4    8.25    9.78
   6  -5   4   16.03   11.38
   6  -5   4   15.82   11.16
   6  -5   4   -7.09    6.01
  -7   5  -4   -0.23   10.39
   7  -5   4    4.78    6.17
   7  -5   4   22.65   12.54
   7  -5   4   40.87   15.61
  -8   5  -4   -0.17   11.95
   8  -5   4   -2.84   10.28
   8  -5   4   -3.55   13.23
   6   4  -4    4.03    7.58
   6   4  -4   10.21   10.28
   6   4  -4   -0.43   10.07
  -6  -4   4   23.50   14.21
   5   4  -4    1.27    8.01
   5   4  -4   14.32   10.05
   5   4  -4    0.24    6.75
  -5  -4   4    4.53   10.81
   4   4  -4   43.23   10.25
   4   4  -4   29.58   10.15
   4   4  -4   39.17   10.42
  -4  -4   4   31.99   12.56
   3   4  -4  110.59   13.98
   3   4  -4  148.68   16.85
   3   4  -4  114.38   13.64
  -3  -4   4  110.94   11.97
  -3  -4   4  142.98   17.15
   2   4  -4    8.42    6.55
   2   4  -4   -0.60    5.90
   2   4  -4    0.03    6.43
  -2  -4   4   17.46    9.81
  -2  -4   4   11.45    6.30
   1   4  -4    1.44    5.23
   1   4  -4   -3.29    4.71
   1   4  -4    7.27    6.17
   1   4  -4    1.80    5.70
  -1  -4   4    1.41    5.14
  -1  -4   4    5.10    8.56
  -1  -4   4   -2.45    5.33
   0   4  -4  123.58   11.73
   0   4  -4  100.98   12.03
   0   4  -4  116.80    9.42
   0   4  -4  109.47   11.84
   0  -4   4  123.32   11.58
   0  -4   4  119.03   14.58
   0  -4   4  123.29   13.40
  -1   4  -4   -1.13    5.90
  -1   4  -4   -2.70    4.86
  -1   4  -4   11.92    5.86
   1  -4   4    1.69    5.30
   1  -4   4    1.89    3.19
   1  -4   4  -14.78    5.57
   1  -4   4   -4.82    4.63
  -2   4  -4  545.46   26.92
  -2   4  -4  554.71   24.57
   2  -4   4  532.31   27.05
   2  -4   4  548.62   26.29
   2  -4   4  536.80   26.14
  -3   4  -4   62.69    8.89
  -3   4  -4   85.29   12.86
   3  -4   4   94.26   12.23
   3  -4   4   58.46    9.26
   3  -4   4   89.69   13.09
  -4   4  -4    3.90    8.29
  -4   4  -4    8.29    5.68
   4  -4   4   15.54    8.29
   4  -4   4   16.64    8.64
   4  -4   4    8.82    6.19
  -5   4  -4   48.43   12.41
   5  -4   4   57.54   13.32
   5  -4   4   69.94    9.58
   5  -4   4   73.80   14.39
  -6   4  -4   26.66   11.56
   6  -4   4   38.97   13.88
   6  -4   4   36.84    8.00
   6  -4   4   34.57   13.01
  -7   4  -4   12.16   11.32
   7  -4   4   25.13   12.51
   7  -4   4   38.21   15.29
   7  -4   4   27.38    6.94
  -8   4  -4   63.43   17.99
  -8   4  -4   19.05   13.21
   8  -4   4   34.55   13.97
   7   3  -4   22.59   10.97
   7   3  -4   -3.59    6.33
   7   3  -4   -1.94    9.86
  -7  -3   4    2.42   13.11
   6   3  -4   23.63   10.42
   6   3  -4    6.89    8.75
   6   3  -4   14.70    7.10
  -6  -3   4   29.46   13.95
   5   3  -4   78.59   14.22
   5   3  -4   72.36   12.55
   5   3  -4   94.62   12.12
  -5  -3   4  122.26   17.69
   4   3  -4   54.00   12.20
   4   3  -4   81.80   11.01
   4   3  -4   78.54   12.11
  -4  -3   4   67.68   13.53
   3   3  -4  235.52   17.68
   3   3  -4  210.51   15.80
   3   3  -4  201.90   15.56
  -3  -3   4  243.67   18.81
  -3  -3   4  201.02   12.95
   2   3  -4  130.12   13.49
   2   3  -4  103.30   11.41
   2   3  -4  118.49    9.41
   2   3  -4  107.77   11.92
  -2  -3   4  105.62   11.42
  -2  -3   4  123.98    9.14
  -2  -3   4  111.39   14.07
   1   3  -4  260.34   16.79
   1   3  -4  277.10   15.47
   1   3  -4  256.81   14.28
   1   3  -4  248.89   15.37
  -1  -3   4  256.33   18.26
  -1  -3   4  259.57   16.00
  -1  -3   4  253.68   13.35
   0   3  -4    1.68    4.41
   0   3  -4    4.01    5.22
   0   3  -4    3.65    4.90
   0  -3   4    4.92    4.41
   0  -3   4   -1.64    4.61
   0  -3   4   -1.63    4.01
   0  -3   4    4.25    6.41
  -1   3  -4   14.58    6.50
  -1   3  -4   14.93    5.76
  -1   3  -4    6.61    4.96
   1  -3   4    4.79    3.41
   1  -3   4   12.69    5.99
   1  -3   4   12.79    6.97
   1  -3   4   10.27    5.42
  -2   3  -4   20.76    7.12
  -2   3  -4   47.98    6.93
  -2   3  -4   46.76    8.17
   2  -3   4   38.27    8.23
   2  -3   4   43.86    7.47
   2  -3   4   36.21    4.58
   2  -3   4   26.54    7.82
  -3   3  -4    2.09    4.21
  -3   3  -4    6.65    6.76
   3  -3   4   -4.74    4.78
   3  -3   4    7.14    6.85
   3  -3   4  -14.37    4.74
   3  -3   4   -2.17    5.05
  -4   3  -4   72.24   12.91
   4  -3   4  111.87   15.09
   4  -3   4  110.20   11.41
   4  -3   4  119.63   15.51
  -5   3  -4    7.55    8.69
   5  -3   4   11.13    9.74
   5  -3   4   23.79    7.22
   5  -3   4   19.03   10.37
  -6   3  -4   16.78   10.46
   6  -3   4   29.43   12.53
   6  -3   4   44.17    8.19
  -7   3  -4   15.62   12.77
  -7   3  -4   12.70   11.14
   7  -3   4   -6.88    9.32
   7  -3   4    7.38    5.36
  -8   3  -4    2.45   12.86
   8  -3   4   18.24   13.28
   8   2  -4    2.39    5.22
   8   2  -4  -14.81   11.35
  -8  -2   4   13.21   13.55
   7   2  -4   11.19    6.08
   7   2  -4    3.09    9.44
   7   2  -4    4.07   10.76
  -7  -2   4    8.64   12.09
   6   2  -4   -4.28    5.26
   6   2  -4   11.87    8.48
   6   2  -4    2.62    7.96
  -6  -2   4   26.80   11.51
   5   2  -4    4.28    7.13
   5   2  -4    0.72    7.45
   5   2  -4    9.03    6.34
  -5  -2   4   -3.01    8.40
   4   2  -4   25.34    7.04
   4   2  -4   23.99    8.03
   4   2  -4   22.25    9.31
  -4  -2   4   17.83    9.03
   3   2  -4  173.16   13.46
   3   2  -4  205.19   11.17
   3   2  -4  196.94   15.78
   3   2  -4  196.35   14.71
  -3  -2   4  178.26   10.04
  -3  -2   4  191.92   15.96
   2   2  -4 2382.97   82.17
   2   2  -4 2368.10   79.35
   2   2  -4 2286.81   82.60
   2   2  -4 2260.25   81.28
  -2  -2   4 2371.50   77.04
  -2  -2   4 2355.78   83.50
  -2  -2   4 2442.16   82.39
   1   2  -4   30.86    7.00
   1   2  -4   29.84    6.40
   1   2  -4   37.45    7.00
  -1  -2   4   27.50    6.46
  -1  -2   4   33.92    6.73
  -1  -2   4   40.18    5.06
  -1  -2   4   30.88    8.96
   0   2  -4    3.90    5.24
   0   2  -4   -2.95    3.89
   0   2  -4    2.75    4.08
   0  -2   4   -3.48    3.72
   0  -2   4   -2.26    3.32
   0  -2   4   -4.22    5.18
   0  -2   4    0.48    3.97
  -1   2  -4   27.52    6.99
  -1   2  -4   42.83    8.34
  -1   2  -4   22.89    5.05
   1  -2   4   32.51    5.58
   1  -2   4   37.16    6.66
   1  -2   4   18.76    5.74
   1  -2   4   40.39    8.26
  -2   2  -4  158.86   14.87
  -2   2  -4  169.09   13.16
  -2   2  -4  178.26    9.55
   2  -2   4  172.13   13.63
   2  -2   4  166.12   12.80
   2  -2   4  173.35   10.57
   2  -2   4  160.65   12.81
  -3   2  -4  114.02    9.46
  -3   2  -4  117.13   13.48
   3  -2   4  125.80   11.79
   3  -2   4  113.10   13.71
   3  -2   4  115.00   10.97
   3  -2   4  127.69   15.27
  -4   2  -4   15.67    7.89
   4  -2   4    0.14    7.17
   4  -2   4   11.34    8.93
   4  -2   4    9.89    6.30
   4  -2   4   -5.89    4.85
  -5   2  -4   -6.98    8.08
  -5   2  -4    8.86    8.96
   5  -2   4    0.40    8.11
   5  -2   4   -3.65    5.60
  -6   2  -4   -2.91    8.96
  -6   2  -4   -1.90   11.24
   6  -2   4    8.72    9.92
   6  -2   4   -4.42    5.44
  -7   2  -4   19.58   13.73
   7  -2   4   43.09    8.15
   7  -2   4   55.13   15.76
   8   1  -4   15.03   11.25
   8   1  -4   18.76   10.88
  -8  -1   4   26.25   14.14
   7   1  -4   -0.07    4.50
   7   1  -4    4.86    9.65
   7   1  -4   -1.63    8.39
  -7  -1   4   16.55   11.74
   6   1  -4    1.89    7.24
   6   1  -4    3.53    4.98
   6   1  -4  -10.12    6.37
  -6  -1   4    8.28    9.43
   5   1  -4   48.39   10.38
   5   1  -4   41.06    7.20
   5   1  -4   50.67   11.42
  -5  -1   4   75.99   13.26
   4   1  -4  105.69   13.77
   4   1  -4   52.03    7.48
   4   1  -4   75.73    8.94
   4   1  -4   73.84   10.24
  -4  -1   4   87.91   12.38
   3   1  -4  659.93   28.96
   3   1  -4  655.06   26.67
   3   1  -4  668.02   27.94
   3   1  -4  651.43   30.63
   3   1  -4  713.77   28.35
  -3  -1   4  697.63   30.34
   2   1  -4   13.94    5.10
   2   1  -4   23.41    6.25
   2   1  -4   28.66    6.37
  -2  -1   4    4.83    6.02
  -2  -1   4   17.12    6.96
  -2  -1   4   12.66    4.98
   1   1  -4  140.59   10.43
   1   1  -4  137.86   10.69
   1   1  -4  131.86   11.54
  -1  -1   4  131.62   11.27
  -1  -1   4  132.41   11.09
  -1  -1   4  130.52    7.10
  -1  -1   4  200.05   14.70
   0   1  -4  444.65   20.97
   0   1  -4  427.46   18.66
   0   1  -4  423.67   21.23
   0  -1   4  468.10   18.71
   0  -1   4  435.49   20.91
   0  -1   4  428.60   21.10
   0  -1   4  469.55   20.60
  -1   1  -4   -5.20    4.93
  -1   1  -4    5.03    3.29
  -1   1  -4    8.97    5.26
   1  -1   4   -0.02    4.48
   1  -1   4   -2.43    4.33
   1  -1   4   10.77    5.59
   1  -1   4    1.13    4.42
  -2   1  -4    0.45    5.68
  -2   1  -4   -2.84    5.08
  -2   1  -4    7.95    5.24
   2  -1   4    5.96    4.94
   2  -1   4    5.14    4.94
   2  -1   4    5.10    6.06
  -3   1  -4   36.48    8.57
  -3   1  -4   18.09    7.24
   3  -1   4   16.82    6.45
   3  -1   4   37.86    7.81
   3  -1   4   19.81    8.88
  -4   1  -4    2.53    7.93
  -4   1  -4  -12.62    5.65
   4  -1   4   -9.55    6.58
   4  -1   4   15.18    6.62
   4  -1   4    0.02    5.93
  -5   1  -4   86.03   13.68
  -5   1  -4   93.04   15.95
   5  -1   4   96.40   11.79
   5  -1   4   93.50   13.99
   5  -1   4  125.57   18.77
  -6   1  -4   23.13   12.38
   6  -1   4    7.63   10.19
   6  -1   4    2.24   12.66
   6  -1   4    7.22    6.67
  -7   1  -4   -2.07   11.50
   7  -1   4   13.98    7.38
   7  -1   4   33.01   14.50
  -9   0   4   26.90   13.92
   8   0  -4    9.53   11.26
   8   0  -4   13.19   10.05
  -8   0   4   28.29   12.93
   7   0  -4    7.93    3.40
   7   0  -4    7.03    8.39
   7   0  -4    9.34    9.70
  -7   0   4   28.83   11.30
   6   0  -4   12.19    8.19
   6   0  -4    8.08    4.28
   6   0  -4   17.73    9.96
  -6   0   4    7.29    9.02
   5   0  -4   10.85    7.25
   5   0  -4   11.60    4.89
   5   0  -4   -2.51    7.01
   5   0  -4   16.87    6.46
  -5   0   4   19.37    8.27
   4   0  -4    5.66    3.96
   4   0  -4    2.14    4.88
   4   0  -4   15.97    6.76
   4   0  -4   15.72    5.11
  -4   0   4    4.39    6.84
   3   0  -4    8.69    4.76
   3   0  -4    6.16    4.70
   3   0  -4    8.29    4.19
   3   0  -4    5.20    5.12
  -3   0   4   -2.05    5.74
  -3   0   4    0.87    5.26
   2   0  -4   19.77    5.93
   2   0  -4   40.30    6.66
   2   0  -4   34.40    6.83
   2   0  -4   33.70    5.87
  -2   0   4   25.45    7.14
  -2   0   4   28.39    6.01
  -2   0   4   27.90    7.27
   1   0  -4  790.12   31.29
   1   0  -4  753.13   32.06
   1   0  -4  749.46   29.92
  -1   0   4  829.16   31.83
  -1   0   4  791.07   31.68
  -1   0   4  805.77   32.99
   0   0  -4   36.00    5.16
   0   0  -4   34.78    5.91
   0   0  -4   38.43    7.44
   0   0  -4   28.76    6.58
   0   0   4   43.92    7.34
   0   0   4   41.65    7.80
   0   0   4   36.64    6.77
  -1   0  -4   -1.95    2.30
  -1   0  -4   -5.91    4.50
  -1   0  -4    3.41    4.88
  -1   0  -4    2.01    5.55
   1   0   4   -1.09    4.72
   1   0   4   -2.21    4.77
   1   0   4    2.79    4.53
  -2   0  -4  245.11   16.70
  -2   0  -4  256.69   16.58
  -2   0  -4  259.23   16.39
   2   0   4  251.23   16.47
   2   0   4  233.82   17.15
   2   0   4  238.75   15.75
  -3   0  -4    2.19    6.25
  -3   0  -4   -0.43    7.19
   3   0   4   21.36    7.91
   3   0   4    6.33    7.93
   3   0   4    6.82    5.88
  -4   0  -4   11.39    8.67
  -4   0  -4   39.73    9.93
   4   0   4   27.61    8.13
   4   0   4   28.19   10.38
   4   0   4   23.40    9.31
  -5   0  -4  -10.43    6.93
  -5   0  -4  -18.70    7.77
   5   0   4    5.00    6.40
   5   0   4    1.62    8.77
   5   0   4   -3.99    7.04
  -6   0  -4   -7.08   10.88
   6   0   4   -7.65    8.26
   6   0   4    5.56    7.04
   6   0   4   -4.34    8.48
  -7   0  -4    5.02   13.88
   7   0   4   -9.76    6.71
   7   0   4    7.60   12.27
   9  -1  -4   23.09   11.82
  -9   1   4    2.53   11.09
  -9   1   4   -1.60   13.41
   8  -1  -4   -5.36    8.57
  -8   1   4    4.73    9.51
   7  -1  -4   -3.01    7.54
  -7   1   4   -2.37    7.60
   6  -1  -4  179.41   16.52
   6  -1  -4  174.35   16.97
   6  -1  -4  157.03    9.68
   6  -1  -4  169.52    9.83
  -6   1   4  145.87   16.20
   5  -1  -4   24.93    4.85
   5  -1  -4   14.28    7.28
   5  -1  -4   24.17    5.19
   5  -1  -4   29.80    7.73
  -5   1   4    8.06    7.97
  -5   1   4   16.34    7.34
   4  -1  -4    8.40    5.81
   4  -1  -4    3.84    4.05
   4  -1  -4   -2.75    3.45
   4  -1  -4    9.76    5.89
  -4   1   4   -0.02    5.42
  -4   1   4    1.57    6.58
   3  -1  -4    0.49    3.94
   3  -1  -4    1.97    2.21
   3  -1  -4    4.85    4.91
   3  -1  -4   12.40    4.22
   3  -1  -4    1.14    4.54
  -3   1   4    1.11    5.29
  -3   1   4    7.20    4.84
   2  -1  -4  624.82   25.79
   2  -1  -4  631.00   22.28
   2  -1  -4  588.59   26.48
   2  -1  -4  622.65   26.40
  -2   1   4  641.55   27.06
  -2   1   4  661.94   25.47
  -2   1   4  592.85   28.63
   1  -1  -4  144.22   11.45
   1  -1  -4  154.56   12.21
   1  -1  -4  153.91   10.22
   1  -1  -4  140.71    9.09
  -1   1   4  156.69   11.76
  -1   1   4  178.55   11.01
  -1   1   4  151.20   13.88
   0  -1  -4    6.18    5.04
   0  -1  -4    3.10    3.36
   0  -1  -4   -0.97    4.50
   0  -1  -4   -2.45    4.75
   0   1   4   -1.93    4.15
   0   1   4   -0.28    4.44
   0   1   4    5.07    6.12
  -1  -1  -4  190.42   16.22
  -1  -1  -4  155.34   13.03
  -1  -1  -4  180.57   13.36
   1   1   4  174.68   13.26
   1   1   4  169.98    8.13
   1   1   4  197.37   14.38
   1   1   4  183.59   13.90
  -2  -1  -4   -3.15    5.87
  -2  -1  -4    9.17    6.27
   2   1   4   -4.97    5.24
   2   1   4   14.83    7.56
   2   1   4   14.04    7.62
  -3  -1  -4   -8.96    7.40
  -3  -1  -4    0.71    6.73
   3   1   4    2.07    6.34
   3   1   4    6.47    7.97
   3   1   4    6.76    7.49
  -4  -1  -4   36.32   12.32
  -4  -1  -4   16.45    8.54
   4   1   4   14.44    7.73
   4   1   4   27.58   10.74
   4   1   4    7.53    9.26
  -5  -1  -4   14.43   11.50
   5   1   4   40.04   10.46
   5   1   4   30.89   12.22
   5   1   4   22.84   11.11
  -6  -1  -4   38.04   15.07
   6   1   4   56.62   15.74
   6   1   4   58.48   12.05
   6   1   4   58.68   15.84
   7   1   4   47.92   16.52
   9  -2  -4    4.09   10.85
  -9   2   4   18.48   16.24
   8  -2  -4   31.83   12.19
  -8   2   4    8.75   11.55
   7  -2  -4   16.52    9.94
   7  -2  -4   23.01    9.52
  -7   2   4    7.14   10.38
  -7   2   4   21.64    8.88
   6  -2  -4   51.87    5.38
   6  -2  -4   59.26   11.81
   6  -2  -4   73.27   12.09
   6  -2  -4   53.71    5.70
  -6   2   4   71.10   13.81
  -6   2   4   52.03    9.54
   5  -2  -4  195.38   11.84
   5  -2  -4  185.78   11.78
   5  -2  -4  208.74   17.78
   5  -2  -4  196.47   17.32
  -5   2   4  186.21   13.92
  -5   2   4  195.42   19.89
   4  -2  -4  195.72   16.59
   4  -2  -4  225.84   11.52
   4  -2  -4  202.72   13.32
   4  -2  -4  255.44   13.78
   4  -2  -4  229.85   16.13
  -4   2   4  214.85   17.42
  -4   2   4  221.92   13.19
   3  -2  -4    4.44    4.95
   3  -2  -4   19.33    5.44
   3  -2  -4   16.49    6.54
   3  -2  -4   21.02    6.67
   3  -2  -4    4.19    3.71
  -3   2   4   14.65    7.37
  -3   2   4    5.27    4.54
   2  -2  -4  277.87   16.43
   2  -2  -4  263.10   15.29
   2  -2  -4  295.66   13.50
   2  -2  -4  286.65   16.30
  -2   2   4  205.42   16.34
  -2   2   4  287.29   13.36
  -2   2   4  284.79   16.47
   1  -2  -4  579.02   25.07
   1  -2  -4  589.91   24.73
   1  -2  -4  643.08   28.36
   1  -2  -4  584.52   26.88
  -1   2   4  631.59   27.97
  -1   2   4  669.03   29.97
  -1   2   4  623.86   24.76
   0  -2  -4    8.50    5.51
   0  -2  -4   -1.73    5.10
   0  -2  -4    0.53    5.30
   0   2   4    2.29    4.80
   0   2   4    5.89    4.18
   0   2   4    1.76    6.50
   0   2   4    2.55    5.23
  -1  -2  -4  189.60   16.72
  -1  -2  -4  145.86   14.18
  -1  -2  -4  157.42   12.96
   1   2   4  152.19   14.81
   1   2   4  164.09   15.30
   1   2   4  223.06   16.58
   1   2   4  152.23    8.83
  -2  -2  -4  501.58   27.66
  -2  -2  -4  468.81   23.90
   2   2   4  480.39   27.43
   2   2   4  484.03   26.16
   2   2   4  467.29   25.53
  -3  -2  -4  190.15   20.14
  -3  -2  -4  219.41   16.21
   3   2   4  204.73   21.76
   3   2   4  243.85   18.43
   3   2   4  222.55   20.84
  -4  -2  -4    2.05    9.86
   4   2   4    3.13    8.90
   4   2   4    6.07   10.11
   4   2   4   -6.94    7.22
  -5  -2  -4   37.80   14.80
   5   2   4   25.54   12.21
   5   2   4   19.68    9.91
   5   2   4   18.06   11.39
  -6  -2  -4    3.93   14.42
   6   2   4   -3.79   10.37
   6   2   4    7.53    9.35
   6   2   4    8.52   11.29
   9  -3  -4   -7.55   10.06
  -9   3   4  -33.66   10.90
   8  -3  -4   11.32    9.38
   8  -3  -4    3.21    9.59
  -8   3   4   -2.61    9.14
   7  -3  -4   30.77   11.30
   7  -3  -4   24.58   10.12
  -7   3   4   26.93   12.22
   6  -3  -4   17.08    4.72
   6  -3  -4    5.37    8.49
   6  -3  -4   13.01    8.32
  -6   3   4   16.47    9.14
   5  -3  -4   19.13    7.85
   5  -3  -4   28.49    6.09
   5  -3  -4   15.85    8.32
  -5   3   4   18.24    9.11
   4  -3  -4    4.27    4.75
   4  -3  -4   -3.68    6.01
   4  -3  -4   12.75    7.10
   4  -3  -4   -7.04    4.46
  -4   3   4    1.44    7.10
   3  -3  -4    3.12    5.69
   3  -3  -4    0.12    4.29
   3  -3  -4   -3.37    5.39
   3  -3  -4   -0.01    5.11
  -3   3   4    0.55    6.85
   2  -3  -4   63.87    8.64
   2  -3  -4   59.96    9.51
   2  -3  -4   55.53    9.60
  -2   3   4   58.86    5.61
  -2   3   4   48.78    8.13
  -2   3   4   49.66    8.52
  -2   3   4   60.21   11.66
   1  -3  -4  567.30   25.80
   1  -3  -4  576.24   28.75
   1  -3  -4  564.74   26.72
  -1   3   4  598.45   23.87
  -1   3   4  592.80   25.43
  -1   3   4  607.05   29.76
  -1   3   4  563.85   27.83
   0  -3  -4   33.43    8.29
   0  -3  -4   27.39    7.49
   0  -3  -4   37.43    8.48
   0   3   4   19.25    8.19
   0   3   4   24.91    7.81
   0   3   4   33.37    7.23
   0   3   4   32.11    6.07
  -1  -3  -4    3.43    5.58
  -1  -3  -4    6.40    7.74
   1   3   4    0.24    5.59
   1   3   4   -8.46    6.52
   1   3   4    5.25    6.25
  -2  -3  -4   59.94   10.58
  -2  -3  -4   60.04   12.66
   2   3   4   59.32   11.13
   2   3   4   84.24   14.65
   2   3   4   51.86   10.69
  -3  -3  -4   11.82   10.85
   3   3   4    0.34    7.67
   3   3   4    9.30    8.52
   3   3   4   12.85   10.96
  -4  -3  -4   -4.11   10.70
   4   3   4    8.77    9.64
   4   3   4   -5.60    9.15
   4   3   4   -7.86    7.83
  -5  -3  -4    0.91   11.70
   5   3   4   -7.00    8.99
   5   3   4    4.88   11.24
   5   3   4   -6.98    9.23
  -9   4   4   -2.94   12.53
   8  -4  -4   21.69   11.23
   8  -4  -4   43.07   13.68
  -8   4   4   40.87   14.86
   7  -4  -4   16.91   10.53
   7  -4  -4   21.46   10.60
  -7   4   4   27.23   12.66
   6  -4  -4   92.60   14.57
   6  -4  -4   91.92    9.16
   6  -4  -4   81.30   13.99
  -6   4   4   94.54   16.08
   5  -4  -4   36.90    7.59
   5  -4  -4   34.76    7.98
   5  -4  -4   20.94    9.14
  -5   4   4   28.85   11.87
   4  -4  -4  226.73   17.84
   4  -4  -4  203.75   15.60
   4  -4  -4  232.06   14.53
  -4   4   4  174.85   19.81
  -4   4   4  231.91   17.14
   3  -4  -4    1.25    5.59
   3  -4  -4    5.12    6.63
   3  -4  -4    0.56    5.93
  -3   4   4    8.76    8.47
  -3   4   4    5.15    6.84
   2  -4  -4   54.43   10.41
   2  -4  -4   51.92    9.14
   2  -4  -4   58.96   10.43
  -2   4   4   48.96    9.43
  -2   4   4   60.13   11.86
   1  -4  -4   70.86   11.19
   1  -4  -4   34.20    8.56
   1  -4  -4   44.92   10.13
  -1   4   4   35.55   10.33
  -1   4   4   56.19   16.90
  -1   4   4   40.08    8.05
   0  -4  -4  152.54   16.61
   0  -4  -4  130.46   15.09
   0  -4  -4  128.39   13.93
   0   4   4  179.59   14.34
   0   4   4  136.68   17.97
   0   4   4  143.75   15.57
   0   4   4  138.90   13.49
  -1  -4  -4  206.94   15.85
  -1  -4  -4  237.51   21.00
   1   4   4  261.50   24.71
   1   4   4  207.98   16.96
   1   4   4  185.96   19.79
  -2  -4  -4   29.42   11.75
   2   4   4   49.50   13.50
   2   4   4   44.34   11.04
   2   4   4   48.99   11.80
  -3  -4  -4   11.19   10.93
   3   4   4   -1.05    8.69
   3   4   4   -0.71    8.73
   3   4   4   -6.20    9.99
  -4  -4  -4   26.83   13.70
   4   4   4    5.22   12.27
   4   4   4    1.16   10.02
   4   4   4   40.71   13.09
   5   4   4   42.96   15.39
   5   4   4   48.63   19.26
   9  -5  -4    0.08   11.26
  -9   5   4   -4.44   11.68
   8  -5  -4   -7.71    8.90
  -8   5   4    3.69   11.30
  -8   5   4    0.33   12.75
   7  -5  -4   35.43   12.21
   7  -5  -4   30.96    6.01
  -7   5   4   30.21   12.11
  -7   5   4   42.93   15.72
   6  -5  -4   -1.98    8.24
   6  -5  -4    1.01    5.62
  -6   5   4    3.75    9.20
  -6   5   4  -10.65    8.02
   5  -5  -4  774.50   33.45
   5  -5  -4  668.22   32.39
   5  -5  -4  739.06   37.01
  -5   5   4  763.78   38.79
  -5   5   4  757.52   36.83
   4  -5  -4   35.54    9.22
   4  -5  -4   28.86    9.73
   4  -5  -4   38.85    9.35
  -4   5   4   53.79   14.03
  -4   5   4   40.87   10.95
   3  -5  -4   -0.86    6.67
   3  -5  -4   -2.90    7.07
   3  -5  -4    7.71    7.27
  -3   5   4   -4.86    7.86
  -3   5   4    6.10    7.60
   2  -5  -4  105.25   14.60
   2  -5  -4   94.28   13.12
   2  -5  -4  123.09   15.08
  -2   5   4  118.11   13.77
  -2   5   4  119.35   16.77
   1  -5  -4  212.93   17.10
   1  -5  -4  220.18   21.88
   1  -5  -4  184.00   18.40
  -1   5   4  187.34   16.96
  -1   5   4  198.06   20.77
   0  -5  -4   68.24   11.55
   0  -5  -4   68.35   14.11
   0   5   4   62.64   10.36
   0   5   4   35.91   12.07
  -1  -5  -4   10.19    9.78
   1   5   4   16.15    9.62
   1   5   4   13.65   10.29
  -2  -5  -4   27.11   12.87
   2   5   4   30.58   13.05
   2   5   4   56.67   13.61
  -3  -5  -4   -4.39   11.81
   3   5   4   14.73   12.21
   3   5   4   19.81   12.91
  -4  -5  -4   -7.55   20.68
   4   5   4   10.36   11.46
   8  -6  -4   83.05   17.04
  -8   6   4   55.01   15.71
   7  -6  -4   70.84   16.12
   7  -6  -4   63.20    9.51
  -7   6   4   29.26   12.90
   6  -6  -4   14.47    9.93
   6  -6  -4    8.16    6.77
  -6   6   4   -7.02    9.00
  -6   6   4    1.01   11.03
   5  -6  -4   23.34   11.19
   5  -6  -4   15.59    9.58
   5  -6  -4   31.10    9.09
  -5   6   4   29.72   11.14
  -5   6   4   15.02   11.20
   4  -6  -4   -1.77    7.25
   4  -6  -4    6.27    8.34
   4  -6  -4   -2.28    7.66
  -4   6   4  -18.33    6.56
  -4   6   4    3.93    9.70
   3  -6  -4  300.84   23.46
   3  -6  -4  347.07   23.52
   3  -6  -4  324.91   22.09
  -3   6   4  392.39   25.96
  -3   6   4  327.22   21.83
   2  -6  -4   -4.95    7.53
   2  -6  -4   16.73    9.56
   2  -6  -4    8.71    8.25
  -2   6   4   -2.84    8.23
  -2   6   4    3.38    7.40
   1  -6  -4   -4.76    6.93
   1  -6  -4    9.14   10.03
  -1   6   4   -7.00    7.25
  -1   6   4   14.50   10.71
   0  -6  -4    9.33   11.03
   0   6   4   17.35   11.90
  -1  -6  -4    1.75   11.67
   1   6   4    5.92   10.88
  -2  -6  -4    7.71   12.57
   2   6   4   14.98   13.70
   3   6   4   30.46   14.36
   8  -7  -4   35.25    6.66
   8  -7  -4   20.55   12.98
  -8   7   4   10.83   13.05
   7  -7  -4   20.76   12.38
   7  -7  -4    3.96    7.49
  -7   7   4   19.75   12.72
   6  -7  -4    9.55    8.11
   6  -7  -4   -9.81    9.05
  -6   7   4   -2.84    9.30
   5  -7  -4   -0.49    8.12
   5  -7  -4   -4.98    8.85
   5  -7  -4   -2.60    8.97
  -5   7   4   -9.57    8.40
  -5   7   4   -6.69    9.96
   4  -7  -4   42.46   13.35
   4  -7  -4   60.55   14.29
   4  -7  -4   61.66   13.05
  -4   7   4   60.01   14.00
  -4   7   4   73.31   13.65
   3  -7  -4    8.58   10.82
   3  -7  -4   12.49    9.86
   3  -7  -4   25.25   11.12
  -3   7   4   22.72   12.33
  -3   7   4   39.31   11.39
   2  -7  -4   -4.57   10.48
   2  -7  -4    7.66    8.51
   2  -7  -4   -6.58    8.41
  -2   7   4    2.06    9.63
  -2   7   4    2.08    8.99
   1  -7  -4   24.44   12.91
  -1   7   4   52.45   15.81
  -1   7   4   45.19   12.58
   0  -7  -4    0.86   11.86
   0   7   4    5.87   11.95
  -1  -7  -4   13.02   13.51
   1   7   4    5.22   13.07
   7  -8  -4   -2.42   10.13
   7  -8  -4   12.60   13.28
   6  -8  -4   39.85   12.11
   6  -8  -4   41.94   14.79
  -6   8   4   46.61   15.03
   5  -8  -4   22.36   12.77
   5  -8  -4   19.18   11.25
   5  -8  -4   26.09   13.05
  -5   8   4    6.10   11.09
   4  -8  -4   15.82   11.50
   4  -8  -4   -3.77    9.09
   4  -8  -4   18.57   11.50
  -4   8   4    6.06    9.99
  -4   8   4  -13.40    9.74
   3  -8  -4   12.22   11.30
   3  -8  -4    1.39    9.33
   3  -8  -4   -4.81   11.59
  -3   8   4    6.31   10.21
  -3   8   4   18.41   12.72
   2  -8  -4    8.53   13.44
  -2   8   4   22.28   11.23
  -2   8   4   10.20   13.00
   1  -8  -4   26.75   15.30
  -1   8   4   54.36   16.80
   0  -8  -4  -26.39   16.73
   0   8   4   22.34   14.97
   5  -9  -4    2.18   11.34
   5  -9  -4   10.50   12.85
   5  -9  -4   -9.76   11.66
   4  -9  -4  133.18   22.74
   4  -9  -4   88.30   19.10
   4  -9  -4  129.86   22.56
  -4   9   4  109.79   19.24
   3  -9  -4   20.13   15.42
  -3   9   4   37.10   14.29
   2 -10   5   10.55   12.96
  -3  10  -5    4.65   14.80
   3 -10   5   -3.75   11.86
   3 -10   5    9.85   11.83
   1   9  -5   47.51   15.50
  -1  -9   5   20.42   20.27
   0   9  -5   43.28   14.29
   0  -9   5   18.89   11.65
   0  -9   5   42.46   18.56
  -1   9  -5   -0.81   10.80
   1  -9   5    2.63   10.94
  -2   9  -5   24.35   13.01
   2  -9   5    8.21   12.43
  -3   9  -5   65.20   18.14
  -3   9  -5   46.39   15.02
   3  -9   5   69.03   15.89
   3  -9   5   60.49   16.41
  -4   9  -5   10.27   12.45
  -4   9  -5   48.77   17.89
   4  -9   5   39.52   14.58
   4  -9   5   10.80   12.27
  -5   9  -5   -8.31   14.38
  -5   9  -5   13.06   12.68
   5  -9   5   23.84   12.39
   5  -9   5   17.98   14.60
   3   8  -5   -5.77   12.73
  -3  -8   5   17.86   19.35
   2   8  -5   37.24   13.09
  -2  -8   5   10.54   21.11
   1   8  -5   38.83   12.89
  -1  -8   5   36.52   13.49
  -1  -8   5   24.39   19.20
   0   8  -5    1.44    9.26
   0  -8   5   -4.77   14.58
   0  -8   5    8.73   10.25
  -1   8  -5   10.17   10.19
   1  -8   5   -1.75    9.40
   1  -8   5   10.58   13.53
  -2   8  -5  101.45   16.37
  -2   8  -5  121.75   18.90
   2  -8   5  111.35   17.96
   2  -8   5   89.43   16.42
   2  -8   5  120.21   18.85
  -3   8  -5   15.64   13.42
  -3   8  -5   42.28   12.97
   3  -8   5   24.87   12.15
   3  -8   5    1.55    9.79
   3  -8   5   39.83   13.70
  -4   8  -5   -5.60    9.28
  -4   8  -5  -21.98   10.57
   4  -8   5   -7.24   10.19
   4  -8   5   -1.08    9.40
   4  -8   5    0.81   11.17
  -5   8  -5   16.62   13.84
   5  -8   5   18.82   10.92
   5  -8   5   19.16   12.87
  -6   8  -5   71.52   19.26
   6  -8   5   56.12   12.98
   6  -8   5   94.42   19.67
   4   7  -5  -11.03    9.81
   4   7  -5   -1.76   10.08
   4   7  -5  -14.06    9.07
  -4  -7   5   -6.18   15.35
   3   7  -5    4.42   10.67
   3   7  -5   -2.08   10.32
  -3  -7   5    8.73   16.21
   2   7  -5    3.27    9.00
   2   7  -5    0.59   11.27
  -2  -7   5  -12.13   12.84
   1   7  -5    0.50    8.42
  -1  -7   5  -15.23   13.76
  -1  -7   5   16.96   10.10
   0   7  -5   -7.77    7.71
   0  -7   5   -7.41   11.91
   0  -7   5   -4.19    8.15
  -1   7  -5   15.55    9.33
  -1   7  -5    5.94    8.99
   1  -7   5   14.90    9.72
   1  -7   5    3.76   10.81
   1  -7   5   33.24   11.69
  -2   7  -5    8.52    9.12
  -2   7  -5   14.76   10.77
   2  -7   5   -0.66   10.09
   2  -7   5   10.43    9.53
   2  -7   5   13.88    9.79
  -3   7  -5   63.75   12.80
  -3   7  -5   84.79   16.58
   3  -7   5   78.27   15.25
   3  -7   5   62.92   13.92
   3  -7   5   48.53   12.23
  -4   7  -5   63.09   13.53
  -4   7  -5   72.20   16.85
   4  -7   5   29.48   12.01
   4  -7   5   56.61   12.68
   4  -7   5   58.64   15.22
  -5   7  -5   49.95   16.36
   5  -7   5   21.09    9.88
   5  -7   5   24.38   12.36
   5  -7   5   44.29   13.80
  -6   7  -5   19.21   13.65
   6  -7   5    4.31   11.60
   6  -7   5   -5.67    8.04
   6  -7   5  -13.54    9.88
  -7   7  -5    8.16   14.73
   7  -7   5   16.98   11.98
   7  -7   5   29.63   23.76
   5   6  -5    2.10   10.63
   5   6  -5  -10.71    8.78
   5   6  -5   -9.19    9.67
  -5  -6   5   -5.96   14.19
   4   6  -5   -0.06    9.57
   4   6  -5    3.06   10.00
   4   6  -5    2.10   10.42
  -4  -6   5  -17.55   11.33
   3   6  -5    5.00    9.24
   3   6  -5    2.19    9.08
   3   6  -5    0.26    8.97
  -3  -6   5   -6.10   11.63
   2   6  -5    7.37    8.72
   2   6  -5   -0.21    7.92
   2   6  -5   -7.09    7.76
  -2  -6   5    1.38   12.18
   1   6  -5   38.26   10.86
   1   6  -5   18.29    9.67
  -1  -6   5   21.06    9.06
  -1  -6   5   21.77   14.14
   0   6  -5   -4.34    6.96
   0   6  -5   14.65    8.10
   0  -6   5    7.21   11.34
   0  -6   5   -1.41    6.85
  -1   6  -5   31.39    9.74
  -1   6  -5   16.61    9.30
   1  -6   5   11.66   10.49
   1  -6   5   20.47    9.50
   1  -6   5   12.52    8.63
  -2   6  -5    4.25    8.54
  -2   6  -5    9.89    7.47
   2  -6   5    7.89    8.80
   2  -6   5   10.02    8.76
   2  -6   5    7.70    8.00
  -3   6  -5   57.58   13.55
  -3   6  -5   99.48   14.05
   3  -6   5   65.08   13.81
   3  -6   5   88.93   13.66
   3  -6   5  111.22   16.18
  -4   6  -5   12.04   10.72
  -4   6  -5    9.88    7.87
   4  -6   5   -2.12    8.08
   4  -6   5   -0.72    7.62
   4  -6   5   -2.55    8.31
  -5   6  -5   12.30   11.39
   5  -6   5   -1.76    8.91
   5  -6   5   13.81   10.52
   5  -6   5   -2.94    7.33
  -6   6  -5   -5.77   10.51
   6  -6   5  -12.04    9.25
   6  -6   5  -10.73   10.17
   6  -6   5   15.04    8.80
  -7   6  -5   25.26   14.51
   7  -6   5   84.31   18.57
   7  -6   5   82.52   12.29
   7  -6   5   97.70   20.56
   6   5  -5   -1.85   11.32
   6   5  -5    8.55    9.35
   6   5  -5    4.78   10.57
  -6  -5   5   -8.86   13.69
   5   5  -5    9.63    9.23
   5   5  -5  -11.96    8.18
   5   5  -5    1.72   10.39
  -5  -5   5   -9.17   12.57
   4   5  -5   41.61   11.38
   4   5  -5   48.75   13.82
   4   5  -5   42.57   12.12
  -4  -5   5   45.32   14.81
   3   5  -5   14.91    8.55
   3   5  -5   26.97   10.04
   3   5  -5    6.89    8.59
  -3  -5   5    0.69   10.92
   2   5  -5  113.30   15.07
   2   5  -5  115.26   14.65
   2   5  -5   68.54   12.13
  -2  -5   5  115.82   18.70
  -2  -5   5  120.86   13.82
   1   5  -5    7.13    7.59
   1   5  -5   13.03    7.35
   1   5  -5    9.00    6.36
   1   5  -5    0.15    6.90
  -1  -5   5   13.76   11.79
  -1  -5   5   -0.49    6.54
   0   5  -5   53.56    9.94
   0   5  -5   53.31   10.94
   0   5  -5   47.08   10.27
   0  -5   5   63.83   10.68
   0  -5   5   49.64   10.60
   0  -5   5   58.21   14.84
  -1   5  -5  123.83   14.40
  -1   5  -5   83.86   12.26
   1  -5   5  129.43   14.34
   1  -5   5  125.08   17.01
   1  -5   5   88.06   13.36
  -2   5  -5   -9.35    6.91
  -2   5  -5    8.54    6.95
   2  -5   5   10.55    8.46
   2  -5   5   -0.63    6.49
   2  -5   5   11.84    8.24
  -3   5  -5  315.80   22.71
  -3   5  -5  299.69   18.72
   3  -5   5  259.14   21.74
   3  -5   5  294.11   20.53
   3  -5   5  298.25   20.64
   4  -5   5  548.42   31.61
   4  -5   5  573.81   29.23
   4  -5   5  531.30   30.58
  -5   5  -5    2.86    9.80
   5  -5   5   -1.97    8.81
   5  -5   5   -0.33    6.89
   5  -5   5  -10.68    7.80
  -6   5  -5   21.35   12.77
   6  -5   5   15.96   12.34
   6  -5   5   20.14    8.55
   6  -5   5    6.51   11.23
  -7   5  -5    0.97   10.77
   7  -5   5    7.94   12.72
   7  -5   5   19.98    7.90
   7  -5   5    5.65   12.97
   7   4  -5   38.63   12.27
   6   4  -5   33.11   11.81
   6   4  -5   32.80   10.64
   6   4  -5   36.82   13.86
  -6  -4   5   30.58   15.36
   5   4  -5   -6.61    8.35
   5   4  -5    0.46    7.33
   5   4  -5    4.50    8.53
  -5  -4   5   28.51   12.76
   4   4  -5   11.42    8.86
   4   4  -5  -11.07    6.93
   4   4  -5   -5.27    7.36
  -4  -4   5   -1.28    9.73
   3   4  -5   16.39    8.56
   3   4  -5   28.17    9.05
   3   4  -5    9.13    8.40
  -3  -4   5   21.26   11.73
   2   4  -5   16.52    7.37
   2   4  -5    5.74    6.03
   2   4  -5    4.92    6.95
   2   4  -5    3.21    7.24
  -2  -4   5  -19.47    9.65
  -2  -4   5    5.16    5.90
   1   4  -5    1.81    6.16
   1   4  -5    6.62    6.17
   1   4  -5   -3.67    5.99
  -1  -4   5    7.66   11.16
  -1  -4   5   -5.81    4.72
  -1  -4   5    3.13    6.50
   0   4  -5   25.46    8.12
   0   4  -5   16.61    7.03
   0   4  -5   23.67    7.63
   0  -4   5    6.17    7.74
   0  -4   5   20.57    6.79
   0  -4   5   17.91    6.09
   0  -4   5   17.57    6.93
  -1   4  -5   -5.04    5.75
  -1   4  -5   -0.04    7.33
  -1   4  -5   -1.63    5.48
   1  -4   5   -9.40    6.54
   1  -4   5    6.62    6.72
   1  -4   5   -1.95    6.00
  -2   4  -5   17.35    8.52
  -2   4  -5   33.57    7.96
   2  -4   5   43.23    9.16
   2  -4   5   18.78    7.44
   2  -4   5   17.62    8.69
  -3   4  -5  489.81   27.48
  -3   4  -5  457.24   22.26
   3  -4   5  473.15   25.94
   3  -4   5  464.14   25.18
   3  -4   5  429.32   26.11
  -4   4  -5   41.92   11.61
   4  -4   5   48.71    9.88
   4  -4   5   26.94   10.06
   4  -4   5   39.53   11.64
  -5   4  -5    6.26    9.21
   5  -4   5   19.93   10.34
   5  -4   5    5.03   10.03
   5  -4   5   14.45    7.85
  -6   4  -5   30.65   13.04
   6  -4   5   23.41    8.70
   6  -4   5   34.63   14.49
   6  -4   5   15.34   12.32
  -7   4  -5   19.17   13.45
  -7   4  -5   52.98   16.79
   7  -4   5   45.10    9.70
   7  -4   5   34.57   14.21
   7   3  -5    1.51   10.93
   7   3  -5   14.29   10.99
   7   3  -5    5.16    7.10
  -7  -3   5   11.48   13.39
   6   3  -5   -2.37    8.57
   6   3  -5    5.66    7.44
   6   3  -5   15.05   11.38
  -6  -3   5    9.26   12.07
   5   3  -5   29.01    8.91
   5   3  -5   39.60   10.81
   5   3  -5   11.15    9.53
  -5  -3   5    6.76   10.13
   4   3  -5   19.53    9.67
   4   3  -5    4.96    7.45
   4   3  -5    5.84    6.87
  -4  -3   5   -7.84    9.39
   3   3  -5   18.53    7.52
   3   3  -5   27.35    8.32
   3   3  -5    5.34    7.58
  -3  -3   5   26.04   10.85
   2   3  -5    8.79    6.45
   2   3  -5    6.24    6.61
   2   3  -5    7.62    5.94
   2   3  -5   15.43    6.89
  -2  -3   5   16.45    9.12
  -2  -3   5   11.72    4.55
   1   3  -5  127.60   12.51
   1   3  -5  111.09   12.16
   1   3  -5  114.45   12.53
  -1  -3   5  124.33   16.11
  -1  -3   5  100.78   12.16
  -1  -3   5   96.67    9.15
  -1  -3   5  109.27   11.41
   0   3  -5    7.68    5.47
   0   3  -5    5.30    6.32
   0   3  -5   15.03    6.46
   0  -3   5    1.75    7.16
   0  -3   5    5.44    5.52
   0  -3   5    1.75    5.10
   0  -3   5   -0.29    4.40
  -1   3  -5   56.03   10.29
  -1   3  -5   70.31   10.43
  -1   3  -5   57.20    8.04
   1  -3   5   60.28   10.06
   1  -3   5   56.54    7.24
   1  -3   5   47.67    9.69
   1  -3   5   72.51    9.32
  -2   3  -5   26.64    8.82
  -2   3  -5   40.92    6.99
   2  -3   5   30.90    8.05
   2  -3   5   29.06    8.37
   2  -3   5   40.99    6.15
   2  -3   5   38.23    9.36
  -3   3  -5   29.91    9.61
   3  -3   5   46.82    9.30
   3  -3   5   48.55   11.78
   3  -3   5   36.76   10.77
  -4   3  -5    1.59    7.97
   4  -3   5   15.20    8.79
   4  -3   5    6.98    8.67
   4  -3   5   13.83    7.34
   5  -3   5  284.28   23.20
   5  -3   5  290.80   20.02
   5  -3   5  281.47   24.15
  -6   3  -5    2.50    9.53
  -6   3  -5    0.79   11.15
   6  -3   5   -8.89    9.61
   6  -3   5   -2.64    6.86
  -7   3  -5    3.24   13.20
  -7   3  -5   20.72   12.84
   7  -3   5   28.56    8.58
   7  -3   5   45.62   15.54
   8   2  -5    0.00    5.33
   8   2  -5   -6.01    9.55
  -8  -2   5  -11.34   11.89
   7   2  -5   21.65   11.67
   7   2  -5   16.54    7.41
   7   2  -5   18.14   10.84
  -7  -2   5   14.91   12.69
   6   2  -5    3.92    8.65
   6   2  -5    5.11    8.38
   6   2  -5    0.81    5.72
  -6  -2   5    6.27   10.63
   5   2  -5  112.94   16.05
   5   2  -5  112.39   14.01
   5   2  -5  128.23   13.19
  -5  -2   5  109.95   16.70
   4   2  -5  121.09   12.85
   4   2  -5  115.42   13.85
   4   2  -5  116.46   16.16
  -4  -2   5  109.33   16.59
   3   2  -5   73.28   10.41
   3   2  -5   84.25    9.58
   3   2  -5   75.45   10.82
  -3  -2   5  112.40   13.82
   2   2  -5   12.38    5.82
   2   2  -5    3.88    5.73
   2   2  -5    4.51    5.76
  -2  -2   5    6.94    7.10
  -2  -2   5    4.66    5.26
  -2  -2   5   -0.23    2.55
  -2  -2   5   17.74    9.28
   1   2  -5  107.43   11.92
   1   2  -5   94.61   10.74
   1   2  -5  101.58   10.64
  -1  -2   5   65.17   10.63
  -1  -2   5   78.53   10.09
  -1  -2   5   92.90   11.05
  -1  -2   5   97.43    7.14
   0   2  -5  746.59   33.16
   0   2  -5  736.34   29.81
   0   2  -5  746.78   32.14
   0  -2   5  749.20   32.70
   0  -2   5  773.95   30.69
   0  -2   5  731.04   29.08
   0  -2   5  692.82   32.82
  -1   2  -5  473.91   20.55
  -1   2  -5  486.53   25.02
  -1   2  -5  495.59   24.86
   1  -2   5  478.43   21.72
   1  -2   5  533.14   24.58
   1  -2   5  435.57   22.19
   1  -2   5  441.27   24.30
  -2   2  -5   17.65    4.50
  -2   2  -5    3.22    6.89
   2  -2   5   13.12    7.02
   2  -2   5   11.15    6.38
   2  -2   5   17.96    7.20
   2  -2   5   12.67    5.60
  -3   2  -5  -10.09    6.67
   3  -2   5    3.62    5.85
   3  -2   5    1.10    7.45
   3  -2   5   -6.09    4.50
   3  -2   5   -5.34    6.58
  -4   2  -5  221.02   20.63
  -4   2  -5  170.17   17.98
   4  -2   5  185.10   20.65
   4  -2   5  201.36   17.57
  -5   2  -5   11.20    9.78
  -5   2  -5   42.25   13.34
   5  -2   5   21.17   11.97
   5  -2   5   13.80    8.20
  -6   2  -5    2.31   11.02
  -6   2  -5  -10.92    8.41
   6  -2   5    7.75   10.52
   6  -2   5   -5.83    6.27
  -7   2  -5   -3.13   13.11
   7  -2   5    9.43   12.04
   7  -2   5   11.67    7.68
   8   1  -5   44.55    6.14
   8   1  -5   64.45   17.47
   8   1  -5   52.44   13.30
  -8  -1   5   53.94   15.88
   7   1  -5    5.43    8.88
   7   1  -5    4.88   10.58
   7   1  -5   11.11    5.63
  -7  -1   5   17.02   10.91
   6   1  -5   54.61    8.84
   6   1  -5   57.76   12.13
   6   1  -5   51.85   13.36
  -6  -1   5   61.86   14.01
   5   1  -5   19.27    7.98
   5   1  -5    1.63    8.47
   5   1  -5   10.42    6.20
  -5  -1   5   14.14    9.74
   4   1  -5   -1.75    6.24
   4   1  -5   -5.27    4.85
   4   1  -5   16.88    6.46
  -4  -1   5   -2.72    6.84
  -4  -1   5    1.17    8.54
   3   1  -5  144.33   12.75
   3   1  -5  120.85   12.43
   3   1  -5  114.79   12.29
  -3  -1   5  117.37   14.01
  -3  -1   5  153.76   15.15
   2   1  -5  131.22   12.89
   2   1  -5  176.71   12.33
   2   1  -5  117.31   11.51
  -2  -1   5  120.02   12.24
  -2  -1   5  167.39   13.87
  -2  -1   5  143.10   14.96
   1   1  -5  149.19   11.08
   1   1  -5  172.55   13.58
   1   1  -5  147.68    8.48
   1   1  -5  145.51   13.80
  -1  -1   5  158.62   12.97
  -1  -1   5  142.73   13.29
  -1  -1   5  150.40   13.83
   0   1  -5    8.15    4.91
   0   1  -5   20.17    7.31
   0   1  -5    4.32    5.70
   0   1  -5   13.74    4.76
   0  -1   5   11.46    6.39
   0  -1   5   21.47    6.32
   0  -1   5   23.75    6.66
  -1   1  -5  452.45   18.30
  -1   1  -5  453.18   23.74
  -1   1  -5  469.34   24.36
  -1   1  -5  455.81   21.66
   1  -1   5  420.23   23.28
   1  -1   5  442.56   23.18
   1  -1   5  446.68   21.79
  -2   1  -5  259.64   17.78
  -2   1  -5  237.69   17.19
   2  -1   5  215.27   15.27
   2  -1   5  217.90   16.39
   2  -1   5  209.24   17.07
  -3   1  -5   35.50    9.92
  -3   1  -5    0.75    8.75
   3  -1   5   23.76    8.10
   3  -1   5   27.82    8.43
   3  -1   5   15.96    8.98
  -4   1  -5  125.45   17.72
  -4   1  -5  116.94   16.11
   4  -1   5  153.68   17.52
   4  -1   5  156.11   19.38
   4  -1   5  129.84   15.17
  -5   1  -5    3.10    9.49
  -5   1  -5   17.40   11.03
   5  -1   5    4.80    7.27
   5  -1   5   -8.50    8.82
   5  -1   5    9.80    8.39
  -6   1  -5   40.34   14.16
   6  -1   5   26.73    9.52
   6  -1   5   41.74   14.41
  -7   1  -5   22.68   15.36
   7  -1   5   -0.88   11.78
   7  -1   5   -2.76    7.55
   8   0  -5   -3.36    8.96
  -8   0   5    0.15    9.42
   7   0  -5   -3.44    7.98
   7   0  -5    1.78    4.13
  -7   0   5   18.80   10.75
   6   0  -5    0.32    7.35
   6   0  -5   10.27    5.55
  -6   0   5  -10.09    9.04
  -6   0   5   10.24    8.30
   5   0  -5   52.19    8.28
   5   0  -5   57.32    9.96
   5   0  -5   45.48   10.14
  -5   0   5   54.47   10.77
  -5   0   5   54.05   13.04
   4   0  -5   -1.27    5.40
   4   0  -5   -4.82    5.72
   4   0  -5   -3.23    4.63
  -4   0   5    8.77    7.13
  -4   0   5   -8.84    6.28
   3   0  -5    5.33    5.42
   3   0  -5    0.33    4.82
   3   0  -5    0.03    5.27
  -3   0   5    3.02    6.95
  -3   0   5   -9.11    6.51
   2   0  -5   10.23    5.88
   2   0  -5    5.34    5.27
   2   0  -5    6.61    5.58
  -2   0   5    5.64    5.81
  -2   0   5   11.74    5.46
  -2   0   5    8.81    6.87
   1   0  -5   11.40    4.14
   1   0  -5   20.86    6.24
   1   0  -5   25.55    5.81
   1   0  -5   21.38    6.80
  -1   0   5   17.04    7.27
  -1   0   5   24.65    7.04
  -1   0   5   15.57    6.28
   0   0  -5   -2.10    5.11
   0   0  -5    8.05    6.33
   0   0  -5   -2.28    4.28
   0   0  -5    5.42    3.85
   0   0   5    0.50    5.87
   0   0   5    4.75    5.35
   0   0   5    5.48    6.27
  -1   0  -5  113.81   12.85
  -1   0  -5  191.84   16.43
  -1   0  -5  140.36    7.95
  -1   0  -5  158.06   12.83
   1   0   5  126.46   13.81
   1   0   5  143.32   14.30
   1   0   5  134.60   13.54
  -2   0  -5   53.32   10.24
  -2   0  -5   71.33   11.13
   2   0   5   53.81   11.12
   2   0   5   74.47   11.74
   2   0   5   56.16   10.08
  -3   0  -5   40.68   10.41
  -3   0  -5   26.62    9.38
   3   0   5   51.43   10.93
   3   0   5   30.08    9.05
   3   0   5   34.90   10.98
  -4   0  -5  125.75   17.71
  -4   0  -5   94.00   14.46
   4   0   5  130.88   17.34
   4   0   5  158.85   16.48
   4   0   5  125.83   18.18
  -5   0  -5   -6.78   11.61
  -5   0  -5    1.51   11.47
   5   0   5   -8.46    6.58
   5   0   5    0.31    8.80
   5   0   5    7.34    9.66
  -6   0  -5   21.99   14.90
   6   0   5   15.54   11.57
   6   0   5   -2.93   10.13
   6   0   5   -7.17    7.19
   9  -1  -5   20.75   12.28
  -9   1   5  -10.95   16.12
   8  -1  -5   11.58   10.22
  -8   1   5    7.34    9.91
  -8   1   5    7.97   13.31
   7  -1  -5   13.45    4.31
   7  -1  -5    4.78    8.53
  -7   1   5   13.75    8.94
  -7   1   5   -4.98   10.88
   6  -1  -5   48.02    7.04
   6  -1  -5   60.98   10.66
   6  -1  -5   58.93   11.39
  -6   1   5   27.40    9.98
  -6   1   5   23.04   11.27
   5  -1  -5   37.31    7.05
   5  -1  -5   38.99    9.14
   5  -1  -5   30.61    8.92
  -5   1   5   36.72    9.25
  -5   1   5   29.82   10.54
   4  -1  -5   -7.81    5.69
   4  -1  -5    7.20    6.45
   4  -1  -5    1.74    4.62
  -4   1   5   -5.96    6.23
  -4   1   5    1.14    7.32
   3  -1  -5   -0.07    4.82
   3  -1  -5    2.63    5.57
   3  -1  -5    2.05    5.56
  -3   1   5    0.81    5.87
  -3   1   5    7.11    6.59
   2  -1  -5  338.74   18.87
   2  -1  -5  340.98   19.25
   2  -1  -5  334.15   13.72
   2  -1  -5  342.46   17.62
  -2   1   5  337.92   20.89
  -2   1   5  278.19   17.19
  -2   1   5  336.21   19.20
   1  -1  -5    1.55    5.30
   1  -1  -5   -5.23    3.77
   1  -1  -5   -0.37    3.93
   1  -1  -5    8.04    6.01
  -1   1   5    8.92    5.17
  -1   1   5   -3.04    4.69
  -1   1   5    5.62    6.90
   0  -1  -5   34.49    7.92
   0  -1  -5   46.21    6.31
   0  -1  -5   41.93    7.99
   0  -1  -5   42.17    8.47
   0   1   5   54.61   10.06
   0   1   5   27.66    7.41
   0   1   5   27.41    7.50
  -1  -1  -5  108.28   12.88
  -1  -1  -5   77.00   11.34
  -1  -1  -5   80.83   11.11
   1   1   5   83.64   11.94
   1   1   5   74.28   11.33
   1   1   5   83.18   11.88
  -2  -1  -5   -4.82    6.60
  -2  -1  -5    0.86    8.23
   2   1   5   -0.30    7.11
   2   1   5    3.83    7.45
   2   1   5   -8.79    6.05
  -3  -1  -5   26.45    9.60
  -3  -1  -5   34.61   11.70
   3   1   5   22.46   10.52
   3   1   5   42.53   11.87
   3   1   5   10.64    8.60
  -4  -1  -5   43.76   13.83
  -4  -1  -5   51.12   12.28
   4   1   5   46.68   12.80
   4   1   5   53.61   11.64
   4   1   5   46.98   13.76
  -5  -1  -5    0.15   12.37
   5   1   5   -7.44    8.91
   5   1   5    3.47    8.62
   5   1   5  -22.54    7.84
  -6  -1  -5   19.44   16.10
   6   1   5    9.31    9.46
   6   1   5    3.39   11.11
   6   1   5    2.32   11.15
   9  -2  -5    1.28   11.73
  -9   2   5    8.89   13.69
   8  -2  -5   18.64   10.52
  -8   2   5    9.48   13.99
   7  -2  -5    5.17    9.72
   7  -2  -5    0.96    8.28
   7  -2  -5    1.28    3.24
  -7   2   5    4.46   11.50
   6  -2  -5    5.73    8.07
   6  -2  -5    9.13    5.24
   6  -2  -5   -5.09    7.13
  -6   2   5   -6.11    8.96
   5  -2  -5  108.69   14.10
   5  -2  -5  115.91   14.31
   5  -2  -5   82.23    9.61
  -5   2   5  116.57   16.82
  -5   2   5   92.17   11.41
   4  -2  -5   91.15   10.64
   4  -2  -5   97.76   12.80
   4  -2  -5  113.54   13.16
  -4   2   5  100.29   14.62
  -4   2   5   88.91   10.97
   3  -2  -5  201.24   10.86
   3  -2  -5  203.33   15.09
   3  -2  -5  196.22   14.80
   3  -2  -5  222.07   15.49
  -3   2   5  231.54   18.53
  -3   2   5  183.58   13.05
   2  -2  -5    2.64    5.63
   2  -2  -5   -0.57    4.09
   2  -2  -5   10.51    5.99
   2  -2  -5    2.22    5.89
  -2   2   5   12.62    5.20
  -2   2   5    6.50    6.84
   1  -2  -5    8.22    4.83
   1  -2  -5   16.18    7.04
   1  -2  -5   12.14    6.90
   1  -2  -5   11.01    5.56
  -1   2   5   -0.99    4.42
  -1   2   5    0.84    6.95
  -1   2   5    4.49    6.14
   0  -2  -5   15.51    6.95
   0  -2  -5    9.98    6.96
   0  -2  -5   15.43    7.00
   0   2   5   14.99    7.87
   0   2   5   12.16    5.13
   0   2   5    4.47    6.36
   0   2   5    4.06    6.24
  -1  -2  -5 1097.80   45.84
   1   2   5 1143.29   47.45
   1   2   5 1148.68   46.53
   1   2   5 1047.57   47.69
  -2  -2  -5   43.85    9.34
  -2  -2  -5   29.70   10.36
   2   2   5   31.66    9.62
   2   2   5   22.48    9.99
   2   2   5   39.69   10.86
  -3  -2  -5  143.88   19.48
  -3  -2  -5  218.52   17.64
   3   2   5  230.02   22.79
   3   2   5  229.09   24.42
   3   2   5  195.90   19.30
  -4  -2  -5   15.49   12.30
   4   2   5   18.60    9.94
   4   2   5   -6.37    8.51
   4   2   5    5.52   11.22
  -5  -2  -5   -0.83   14.20
   5   2   5    8.42    9.64
   5   2   5   -6.62   10.46
   5   2   5  -10.69    9.84
   9  -3  -5   50.51   14.65
  -9   3   5   41.20   17.17
   8  -3  -5   19.30   10.73
   8  -3  -5   -1.71    9.96
  -8   3   5    9.99   13.39
   7  -3  -5   35.06   11.65
   7  -3  -5   36.91   11.84
   7  -3  -5   34.03    5.28
  -7   3   5   38.70   14.43
   6  -3  -5   12.35    8.42
   6  -3  -5    9.42    8.87
   6  -3  -5   16.24    5.79
  -6   3   5    9.55   10.78
   5  -3  -5  149.54   17.07
   5  -3  -5  104.18   11.56
   5  -3  -5  126.11   15.30
  -5   3   5  174.03   21.04
   4  -3  -5   -7.56    5.88
   4  -3  -5   -1.35    6.88
   4  -3  -5    4.49    5.75
  -4   3   5   14.21   10.55
   3  -3  -5    7.96    5.35
   3  -3  -5   16.41    7.64
   3  -3  -5    4.55    6.29
   3  -3  -5    5.97    6.69
  -3   3   5   10.79    9.28
   2  -3  -5   61.97   10.76
   2  -3  -5   74.07   11.17
  -2   3   5   72.05   10.17
  -2   3   5   59.48   12.76
   1  -3  -5    1.01    5.89
   1  -3  -5    7.24    6.09
   1  -3  -5    3.24    6.21
  -1   3   5    0.36    5.60
  -1   3   5   -1.81    6.15
  -1   3   5   -7.45    7.23
  -1   3   5    2.46    5.23
   0  -3  -5   64.81   11.91
   0  -3  -5   53.22    9.94
   0  -3  -5   53.64   10.00
   0   3   5   47.59    7.37
   0   3   5   67.67   10.47
   0   3   5   52.02   10.83
   0   3   5   51.91   11.70
  -1  -3  -5   31.62   10.49
  -1  -3  -5   21.68    8.68
   1   3   5    3.49    8.70
   1   3   5   22.86    9.00
   1   3   5   16.10    8.01
  -2  -3  -5  114.09   14.58
  -2  -3  -5   85.10   14.50
   2   3   5   87.45   13.83
   2   3   5  112.48   17.66
   2   3   5  103.33   14.90
  -3  -3  -5  110.65   19.46
   3   3   5  194.87   20.89
   3   3   5  159.44   19.89
   3   3   5  169.41   22.64
  -4  -3  -5   63.09   16.30
   4   3   5   90.63   17.51
   4   3   5  105.98   17.21
   4   3   5   65.82   17.66
  -5  -3  -5  -18.11   13.93
   5   3   5   27.85   12.57
   5   3   5   10.81   11.99
   5   3   5   -8.40   10.96
   9  -4  -5   47.58   15.69
  -9   4   5   57.42   18.51
   8  -4  -5   20.98   11.93
   8  -4  -5   14.98   10.57
  -8   4   5   37.78   15.27
   7  -4  -5   60.54   14.08
   7  -4  -5   61.53   14.20
   7  -4  -5   64.55    8.02
  -7   4   5   65.35   15.99
   6  -4  -5    6.16    5.99
   6  -4  -5    0.38    7.75
   6  -4  -5   25.08    9.43
  -6   4   5   -4.14   10.84
   5  -4  -5  152.88   15.05
   5  -4  -5  189.83   20.32
   5  -4  -5  171.28   18.31
  -5   4   5  237.06   25.30
   4  -4  -5  339.18   21.15
   4  -4  -5  329.19   22.57
  -4   4   5  372.32   25.56
   3  -4  -5   60.76   11.24
   3  -4  -5   64.69   11.98
   3  -4  -5   52.82    9.54
  -3   4   5   56.64   13.50
  -3   4   5   70.47   11.06
   2  -4  -5   14.18    7.32
   2  -4  -5   14.05    7.70
   2  -4  -5   11.60    7.19
  -2   4   5   15.24    7.95
  -2   4   5    6.45    9.05
   1  -4  -5    7.51    7.82
   1  -4  -5   -2.43    6.12
   1  -4  -5   14.66    8.40
  -1   4   5   -3.16    8.14
  -1   4   5   -2.70    6.11
   0  -4  -5    9.80    8.15
   0  -4  -5   15.68    8.54
   0   4   5   15.78   10.41
  -1  -4  -5    9.26    9.35
  -1  -4  -5   30.62    9.32
   1   4   5   24.85   11.51
   1   4   5   13.34    9.49
  -2  -4  -5  247.52   25.61
   2   4   5  256.43   24.91
   2   4   5  280.70   27.48
   2   4   5  235.33   22.72
  -3  -4  -5   -8.86   11.10
   3   4   5    1.18   10.02
   3   4   5   20.48   11.87
   3   4   5   15.86   13.18
  -4  -4  -5   28.76   16.06
   4   4   5   18.77   14.29
   4   4   5   -1.94   10.72
   4   4   5   -8.11   10.05
   9  -5  -5   -9.47    9.76
   8  -5  -5   18.20   11.51
  -8   5   5   15.09   12.70
  -8   5   5   11.53   15.55
   7  -5  -5   50.80   14.58
   7  -5  -5   42.21    8.24
  -7   5   5   22.40   13.85
  -7   5   5   69.90   15.42
   6  -5  -5    2.37    6.35
   6  -5  -5   -4.21    7.86
  -6   5   5  -10.74   11.30
  -6   5   5   -3.99    9.01
   5  -5  -5   62.79   11.29
   5  -5  -5   60.92   13.49
  -5   5   5   46.47   14.28
  -5   5   5   34.46   11.50
   4  -5  -5   44.07   10.67
   4  -5  -5   43.81   10.43
   4  -5  -5   30.00   10.19
  -4   5   5   36.07   13.22
  -4   5   5   27.69   10.72
   3  -5  -5   43.65   11.32
   3  -5  -5   52.05   11.32
   3  -5  -5   63.36   12.60
  -3   5   5   72.51   16.13
  -3   5   5   61.05   11.71
   2  -5  -5   17.18    8.80
   2  -5  -5   18.54    9.04
   2  -5  -5    1.74    8.31
  -2   5   5   19.39   10.44
  -2   5   5   12.43    8.29
   1  -5  -5   65.83   13.72
   1  -5  -5   49.56   11.65
   1  -5  -5   60.30   12.34
  -1   5   5   45.51   10.32
  -1   5   5   37.12   12.69
   0  -5  -5   77.91   15.07
   0  -5  -5   50.32   11.61
   0   5   5   82.69   16.19
  -1  -5  -5    6.16   10.43
   1   5   5  -13.41    9.35
  -2  -5  -5   16.24   12.24
   2   5   5   30.50   13.84
   2   5   5   44.23   16.72
  -3  -5  -5   26.96   14.68
   3   5   5    4.27   13.39
   3   5   5   -3.36   10.92
   8  -6  -5   -4.62    4.22
   8  -6  -5    0.06   10.60
  -8   6   5   -8.44   11.59
   7  -6  -5   -3.90    9.92
   7  -6  -5    4.83    6.69
  -7   6   5   14.84   11.77
  -7   6   5  -20.53   11.32
   6  -6  -5    2.17   10.41
   6  -6  -5   -3.07    6.86
  -6   6   5   -8.57    8.84
  -6   6   5    1.35   12.20
   5  -6  -5   -1.31    8.24
   5  -6  -5   15.41    8.97
  -5   6   5   22.73   10.64
  -5   6   5    9.87   12.38
   4  -6  -5    6.74    8.57
   4  -6  -5    0.47    7.86
   4  -6  -5    3.87    9.02
  -4   6   5  -11.30    9.67
  -4   6   5    4.92    8.85
   3  -6  -5   21.01   10.30
   3  -6  -5  -13.42    6.46
   3  -6  -5   -7.31    8.65
  -3   6   5   18.20    9.29
  -3   6   5   12.94    9.95
   2  -6  -5   47.72   12.58
   2  -6  -5   32.61   12.24
   2  -6  -5   21.71   10.47
  -2   6   5   14.57   10.99
  -2   6   5   19.80   10.01
   1  -6  -5    6.35   10.15
   1  -6  -5   -9.94    7.45
  -1   6   5   18.01   11.04
   0  -6  -5   10.21   10.93
   0   6   5   21.98   12.03
  -1  -6  -5    4.69   10.97
   1   6   5   -1.62   10.47
  -2  -6  -5   29.63   15.36
   2   6   5   51.17   18.50
   7  -7  -5   15.85    8.63
   7  -7  -5   51.59   15.27
  -7   7   5   36.06   14.22
   6  -7  -5   -7.98    9.73
   6  -7  -5   -9.17    7.98
  -6   7   5  -22.27    8.37
  -6   7   5   -3.37   11.59
   5  -7  -5    5.04    9.50
   5  -7  -5    9.11   10.21
  -5   7   5  -10.62   12.00
  -5   7   5   10.65   11.39
   4  -7  -5   31.58   12.54
   4  -7  -5   37.87   13.26
   4  -7  -5   16.95   11.61
  -4   7   5   27.46   10.99
  -4   7   5   38.14   14.24
   3  -7  -5  -13.87    8.50
   3  -7  -5   28.08   11.95
   3  -7  -5    8.97   11.45
  -3   7   5    9.50   10.52
  -3   7   5    9.27   10.22
   2  -7  -5   17.46   11.42
   2  -7  -5   49.26   15.43
  -2   7   5   11.00   12.29
  -2   7   5   31.65   11.87
   1  -7  -5    5.48   12.60
  -1   7   5   26.04   13.98
   0  -7  -5  -11.88   11.47
   0   7   5    9.41   12.03
   6  -8  -5   38.11   14.13
   6  -8  -5   30.22   14.15
  -6   8   5   40.53   17.23
   5  -8  -5   -1.41   10.57
   5  -8  -5  -23.29    9.22
  -5   8   5   -0.71    9.85
   4  -8  -5   19.38   12.25
   4  -8  -5   11.51   12.37
   4  -8  -5   21.46   12.66
  -4   8   5   13.69   12.75
  -4   8   5   10.98   12.83
   3  -8  -5    7.68   12.17
   3  -8  -5   12.37   11.98
   3  -8  -5    3.12   10.89
  -3   8   5   19.18   13.23
  -3   8   5   23.00   13.02
   2  -8  -5   -0.80   12.55
  -2   8   5   43.73   16.67
   1  -8  -5   -7.52   15.03
  -1   8   5    7.35   13.65
  -1  -9   6   18.77   19.83
   0   9  -6   -8.67   10.74
   0  -9   6    2.27   17.35
  -1   9  -6   -4.85   10.65
   1  -9   6    8.90   15.41
   1  -9   6    0.35   12.02
  -2   9  -6    8.60   12.60
   2  -9   6   -5.23   11.37
   2  -9   6   32.41   15.10
  -3   9  -6   11.46   13.85
  -3   9  -6   30.85   13.63
   3  -9   6   -3.61   11.16
   3  -9   6  -18.73   10.45
  -4   9  -6    2.48   12.09
  -4   9  -6   -5.29   13.88
   4  -9   6   14.18   13.09
   4  -9   6  -15.30    9.85
   2   8  -6    9.84   11.74
  -2  -8   6   18.15   20.16
   1   8  -6  -12.04    8.72
  -1  -8   6    3.53   16.30
   0   8  -6   13.09   11.32
   0  -8   6   20.12   16.42
  -1   8  -6   10.39   10.42
   1  -8   6   20.75   15.92
   1  -8   6   22.14   11.78
  -2   8  -6   13.98   10.90
  -2   8  -6   21.34   13.29
   2  -8   6   19.35   12.60
   2  -8   6   16.09   12.40
   2  -8   6   30.90   13.62
  -3   8  -6  -21.20   11.60
  -3   8  -6    2.77   10.02
   3  -8   6  -12.43   10.02
   3  -8   6    0.87   11.36
   3  -8   6   11.25   11.40
  -4   8  -6    2.61   14.34
  -4   8  -6   12.77   11.17
   4  -8   6   20.53   12.81
   4  -8   6   20.67   13.03
   4  -8   6   24.08   12.40
  -5   8  -6   19.81   16.28
   5  -8   6   31.93   13.90
   5  -8   6   24.52   11.94
   5  -8   6    3.94   12.56
   4   7  -6   17.41   13.60
   4   7  -6   57.68   15.54
   3   7  -6   -1.78   10.88
   3   7  -6    1.29   10.29
  -3  -7   6   14.28   19.60
   2   7  -6    6.99   10.87
  -2  -7   6   -5.84   18.42
   1   7  -6   15.94   10.42
  -1  -7   6   15.78   15.42
   0   7  -6   13.10   10.49
   0  -7   6   20.25   10.76
   0  -7   6   22.37   14.43
  -1   7  -6   16.20   10.50
  -1   7  -6   21.92   11.68
   1  -7   6   32.74   15.08
   1  -7   6   11.43   10.19
  -2   7  -6    0.48   11.75
  -2   7  -6   -4.32    8.43
   2  -7   6    1.77    9.82
   2  -7   6   21.96   11.67
   2  -7   6    1.52    9.78
  -3   7  -6    6.20   10.91
  -3   7  -6    9.08   10.00
   3  -7   6    9.50   11.19
   3  -7   6   15.87   11.52
   3  -7   6    3.12   10.32
  -4   7  -6   -9.60   12.06
   4  -7   6    3.54   10.17
   4  -7   6   -2.58    9.09
   4  -7   6    8.03    9.58
  -5   7  -6   -3.90   13.31
   5  -7   6    3.32   10.53
   5  -7   6   15.61   10.85
   5  -7   6    1.06   11.03
  -6   7  -6   54.16   16.76
   6  -7   6   38.43   16.65
   6  -7   6   44.33   15.97
   6  -7   6   46.64   13.07
   5   6  -6   16.16   11.59
   5   6  -6   18.99   12.70
   5   6  -6   22.98   13.23
   4   6  -6   24.32   12.54
   4   6  -6   -6.40    9.21
   4   6  -6    1.10   10.66
  -4  -6   6   25.40   16.07
   3   6  -6   13.71    9.54
   3   6  -6   10.12   10.24
   3   6  -6   12.36    9.95
  -3  -6   6    8.73   14.18
   2   6  -6   17.46   10.75
   2   6  -6   37.97   11.76
  -2  -6   6    7.18   16.13
   1   6  -6   54.59   11.74
  -1  -6   6   68.26   17.39
   0   6  -6  100.74   14.21
   0   6  -6  100.52   14.97
   0  -6   6   64.82   15.56
   0  -6   6   91.49   13.84
  -1   6  -6    3.00    7.83
  -1   6  -6    3.03    9.64
   1  -6   6   -3.34    7.92
   1  -6   6   -9.64    7.42
   1  -6   6  -14.20   10.23
  -2   6  -6   -5.62    7.70
  -2   6  -6    4.57   10.36
   2  -6   6   -1.51    8.66
   2  -6   6   -9.06    8.26
   2  -6   6    5.94    9.12
  -3   6  -6   50.85   11.63
  -3   6  -6   59.67   14.76
   3  -6   6   55.84   13.17
   3  -6   6   48.83   11.41
   3  -6   6   65.68   14.47
  -4   6  -6    7.43   11.46
   4  -6   6   22.81   11.17
   4  -6   6   25.52   12.13
   4  -6   6   42.69   11.94
  -5   6  -6   -7.28   11.23
   5  -6   6   -2.50    8.46
   5  -6   6    5.88   10.64
   5  -6   6   -5.91   10.05
  -6   6  -6    0.60   12.49
   6  -6   6    8.97   11.51
   6  -6   6   -4.89   11.17
   6  -6   6    4.22    9.20
   7  -6   6    7.98   14.31
   6   5  -6    0.88   10.52
   6   5  -6   -5.05   10.27
   5   5  -6   10.11   10.57
   5   5  -6    5.61    9.32
   5   5  -6    5.32   10.84
  -5  -5   6   -5.19   12.06
   4   5  -6   19.34   10.19
   4   5  -6   28.26   11.22
   4   5  -6   25.46   11.78
  -4  -5   6   14.15   13.36
   3   5  -6    2.22    8.41
   3   5  -6    6.48    8.82
   3   5  -6   16.71    9.26
  -3  -5   6  -11.71   11.46
   2   5  -6   26.65    9.55
   2   5  -6    9.94    9.09
   2   5  -6   -5.02    7.64
  -2  -5   6   11.25   13.25
   1   5  -6    1.91    6.92
   1   5  -6   -0.68    7.27
   1   5  -6    4.01    7.42
  -1  -5   6   -4.33   11.63
   0   5  -6   27.40    9.63
   0   5  -6   15.52    8.62
   0  -5   6   25.71   12.76
   0  -5   6   34.73    9.36
   0  -5   6   35.00   10.96
  -1   5  -6   68.51   13.13
  -1   5  -6   67.27   11.71
   1  -5   6   72.66   11.95
   1  -5   6   68.98   14.42
   1  -5   6   62.66   12.76
  -2   5  -6   18.01    8.39
  -2   5  -6   39.12   11.99
   2  -5   6   38.34   11.95
   2  -5   6   25.99    9.52
   2  -5   6   28.95   10.03
  -3   5  -6   17.95   11.00
   3  -5   6   27.69   11.69
   3  -5   6    5.08    8.43
   3  -5   6   21.53    9.63
  -4   5  -6  120.35   17.94
   4  -5   6  183.15   21.58
   4  -5   6  149.22   20.30
   4  -5   6  177.35   18.08
  -5   5  -6   -1.79   10.09
   5  -5   6    0.68    8.19
   5  -5   6   -0.78    9.41
   5  -5   6    9.79   10.93
  -6   5  -6    2.40   12.10
   6  -5   6   -1.73   10.39
   6  -5   6    8.78   11.97
   6  -5   6   -1.62    8.67
  -7   5  -6   15.61   14.61
   7  -5   6   19.48   13.63
   6   4  -6   -3.09    9.39
   6   4  -6    0.54    8.00
   6   4  -6   -2.78   10.10
  -6  -4   6   22.35   15.70
   5   4  -6   43.34   13.39
   5   4  -6   19.57   10.86
   5   4  -6   24.14    9.58
  -5  -4   6    2.20   12.29
   4   4  -6   74.24   14.38
   4   4  -6   99.00   16.62
   4   4  -6   78.29   13.32
  -4  -4   6   95.57   17.53
   3   4  -6   12.30    8.52
   3   4  -6   15.94    8.85
   3   4  -6   -0.03    7.61
  -3  -4   6   10.16   12.98
   2   4  -6    3.14    7.42
   2   4  -6    5.93    7.72
   2   4  -6   11.50    7.65
  -2  -4   6    0.76   11.59
  -2  -4   6    2.60    7.75
   1   4  -6   39.04    9.67
   1   4  -6   25.04    9.02
   1   4  -6   29.30    9.19
  -1  -4   6   49.87   12.95
  -1  -4   6   48.92   13.50
  -1  -4   6   33.87    9.02
   0   4  -6   93.51   11.87
   0   4  -6  111.35   14.09
   0   4  -6  106.29   14.05
   0  -4   6  108.52   11.92
   0  -4   6   73.05   12.23
   0  -4   6   89.61   11.60
   0  -4   6  135.46   18.57
  -1   4  -6   17.72    8.84
  -1   4  -6   -4.40    5.87
   1  -4   6  -11.50    5.90
   1  -4   6   -0.02    6.02
   1  -4   6  -12.27    6.38
  -2   4  -6    8.97    9.22
  -2   4  -6    8.72    6.67
   2  -4   6    1.42    6.88
   2  -4   6   -2.89    6.68
   2  -4   6   -7.25    6.67
  -3   4  -6  175.82   19.60
   3  -4   6  223.96   21.43
   3  -4   6  212.61   19.11
   3  -4   6  166.90   18.94
  -4   4  -6   65.87   14.46
   4  -4   6   72.20   12.65
   4  -4   6   87.98   15.64
   4  -4   6  113.52   17.08
  -5   4  -6  129.68   19.42
   5  -4   6  134.23   19.25
   5  -4   6  119.26   20.10
   5  -4   6  149.73   17.02
  -6   4  -6    3.87   11.27
  -6   4  -6   15.76   12.57
   6  -4   6   33.73   10.68
   6  -4   6   11.23   13.05
  -7   4  -6    3.65   12.78
   7  -4   6   -2.27   13.57
   7   3  -6   11.58   12.76
   7   3  -6   35.65   10.20
   7   3  -6   13.95   11.39
  -7  -3   6   44.76   16.17
   6   3  -6   -8.69    9.09
   6   3  -6    6.75    7.46
   6   3  -6    9.44   10.49
  -6  -3   6   -0.69   12.69
   5   3  -6   -9.21    7.44
   5   3  -6    2.06    8.84
   5   3  -6   -2.08    6.63
  -5  -3   6   -1.72   11.60
   4   3  -6   95.70   15.18
   4   3  -6   86.95   13.01
   4   3  -6   82.06   13.22
  -4  -3   6   72.63   15.78
   3   3  -6 1163.10   48.24
   3   3  -6 1091.05   47.35
   3   3  -6 1094.65   43.75
  -3  -3   6 1114.66   51.49
   2   3  -6    1.16    6.86
   2   3  -6   14.04    7.70
   2   3  -6    2.36    6.90
  -2  -3   6   -0.28   10.89
  -2  -3   6    1.44    7.49
   1   3  -6  118.86   13.96
   1   3  -6  129.58   14.07
   1   3  -6  159.98   17.32
  -1  -3   6  141.71   17.53
  -1  -3   6  120.08   13.39
  -1  -3   6  138.33   10.13
  -1  -3   6  165.10   16.47
   0   3  -6   -3.36    6.30
   0   3  -6   -7.48    6.42
   0   3  -6    7.19    6.02
   0  -3   6    2.73    6.62
   0  -3   6    6.60    6.27
   0  -3   6    4.34    8.97
   0  -3   6   -6.16    4.90
  -1   3  -6  156.30   13.54
  -1   3  -6  144.72   16.11
   1  -3   6  135.81   13.90
   1  -3   6  151.64   12.06
   1  -3   6  125.50   15.35
   1  -3   6  132.19   15.03
  -2   3  -6    1.34    7.65
  -2   3  -6   12.14    9.48
   2  -3   6   12.10    8.96
   2  -3   6   31.82    9.57
   2  -3   6   12.43    8.20
  -3   3  -6   56.51   12.15
   3  -3   6   44.85   10.99
   3  -3   6   50.13   11.88
   3  -3   6   50.02   10.60
  -4   3  -6   26.59   10.47
   4  -3   6   34.28   11.69
   4  -3   6   18.17    9.52
   4  -3   6   16.15   10.15
  -5   3  -6   -8.67   10.31
  -5   3  -6    3.63    9.45
   5  -3   6   -4.86    9.03
   5  -3   6   15.87    9.05
  -6   3  -6   46.43   16.11
  -6   3  -6   19.06   11.53
   6  -3   6   39.61   11.06
   6  -3   6   72.95   18.35
  -7   3  -6   26.93   14.00
   7   2  -6    6.69   10.49
   7   2  -6    5.43    6.55
   7   2  -6   -3.62   10.33
  -7  -2   6   15.55   13.12
   6   2  -6    6.53    7.25
   6   2  -6    8.28    9.51
  -6  -2   6   17.53   11.71
   5   2  -6   47.77   11.36
   5   2  -6   28.22    9.22
  -5  -2   6   33.04   11.98
   4   2  -6   39.32    9.13
   4   2  -6   12.76   10.36
   4   2  -6   16.03    7.85
  -4  -2   6    6.58   10.71
  -4  -2   6   35.44   11.73
   3   2  -6   18.96    7.89
   3   2  -6   -2.31    5.86
   3   2  -6    1.67    6.78
  -3  -2   6    5.66    8.37
  -3  -2   6    2.22   11.41
   2   2  -6   27.47    8.06
   2   2  -6   53.51   10.31
   2   2  -6   40.69    8.91
  -2  -2   6   38.93    9.64
  -2  -2   6   39.41   11.45
   1   2  -6  154.30   14.34
   1   2  -6  130.20   14.54
   1   2  -6  141.90   15.35
  -1  -2   6  151.47   14.63
  -1  -2   6  152.39   16.47
  -1  -2   6  126.46   14.38
  -1  -2   6  122.65    9.08
   0   2  -6    4.13    5.48
   0   2  -6    0.37    6.41
   0   2  -6    0.60    6.58
   0  -2   6    4.43    5.18
   0  -2   6    4.09    6.93
   0  -2   6    1.17    6.12
   0  -2   6    6.79    6.09
  -1   2  -6   42.61    7.58
  -1   2  -6   46.96   10.67
   1  -2   6   55.51    9.48
   1  -2   6   44.94    8.91
   1  -2   6   25.55    8.85
   1  -2   6   53.12   10.77
  -2   2  -6   57.32   12.18
   2  -2   6   53.33    9.59
   2  -2   6   43.92   10.19
   2  -2   6   58.03   11.48
  -3   2  -6   28.47   10.08
  -3   2  -6   22.89    9.62
   3  -2   6   24.92    9.94
   3  -2   6   52.22   10.97
  -4   2  -6   -0.35    9.42
  -4   2  -6    7.22    9.23
   4  -2   6   31.57   11.55
   4  -2   6   22.08    9.42
  -5   2  -6   13.11   10.55
  -5   2  -6    7.09   12.70
   5  -2   6   -1.32    9.57
   5  -2   6    6.67    8.76
  -6   2  -6   14.69   12.12
  -6   2  -6   17.16   14.65
   6  -2   6   25.27    9.74
   6  -2   6   25.69   14.04
   8   1  -6   19.89    6.28
   8   1  -6   22.63   11.24
  -8  -1   6   10.20   11.96
  -8  -1   6    4.76   16.23
   7   1  -6    9.45    6.52
   7   1  -6    5.35    9.36
  -7  -1   6   19.25   11.97
  -7  -1   6   -4.39   11.92
   6   1  -6   -4.94    8.19
   6   1  -6    5.82    6.52
  -6  -1   6    5.88   10.10
  -6  -1   6    1.88    9.84
   5   1  -6   26.13    8.13
   5   1  -6   71.62   12.05
  -5  -1   6   35.50   11.56
  -5  -1   6   43.26   12.66
   4   1  -6   -8.31    6.15
   4   1  -6   -1.66    5.56
   4   1  -6    0.05    5.94
  -4  -1   6    2.49    8.45
  -4  -1   6    8.19    8.35
   3   1  -6  116.86   13.28
   3   1  -6  108.66   13.06
   3   1  -6   91.38   11.85
  -3  -1   6   84.86   13.17
  -3  -1   6   81.99   14.00
   2   1  -6  206.72   15.49
   2   1  -6  200.29   16.23
   2   1  -6  174.31   15.34
  -2  -1   6  190.50   16.38
  -2  -1   6  203.58   16.67
   1   1  -6   23.15    6.62
   1   1  -6   13.89    7.28
   1   1  -6   22.32    7.50
   1   1  -6    7.75    4.36
  -1  -1   6    6.87    7.20
  -1  -1   6   26.96    7.84
  -1  -1   6   19.97    8.08
   0   1  -6    6.36    6.06
   0   1  -6   16.75    8.26
   0   1  -6    6.18    5.08
   0   1  -6   23.89    8.53
   0  -1   6   18.61    7.58
   0  -1   6   25.17    8.09
   0  -1   6   24.06    8.19
  -1   1  -6   -0.38    6.97
  -1   1  -6    1.83    5.84
  -1   1  -6   -0.44    6.75
   1  -1   6   -2.26    5.82
   1  -1   6    6.70    6.93
   1  -1   6   -8.08    5.77
  -2   1  -6   10.33    8.40
  -2   1  -6    7.43    8.10
   2  -1   6    6.43    7.95
   2  -1   6   13.16    9.09
   2  -1   6    1.99    6.29
  -3   1  -6   -3.06    9.44
  -3   1  -6    0.94    7.94
   3  -1   6    3.06    6.95
   3  -1   6    7.63    8.18
   3  -1   6   -1.00    8.60
  -4   1  -6  -11.39    9.16
  -4   1  -6    4.85    8.86
   4  -1   6    1.12    7.88
   4  -1   6   -5.23    8.90
   4  -1   6   -2.70    8.50
  -5   1  -6   27.14   14.31
  -5   1  -6    8.80   10.65
   5  -1   6   24.01   12.67
   5  -1   6   17.93    9.86
  -6   1  -6    4.07   13.69
   6  -1   6   -3.10    8.49
   6  -1   6    3.85   11.92
   8   0  -6   10.71   10.19
   8   0  -6    6.95    4.50
  -8   0   6   28.67   16.26
  -8   0   6   -5.99    9.47
   7   0  -6   48.02    7.96
   7   0  -6   47.32   12.29
  -7   0   6   35.69   14.35
  -7   0   6   33.16   11.77
   6   0  -6   34.96   10.92
   6   0  -6   40.20    8.19
  -6   0   6   13.97   10.52
  -6   0   6   47.40   12.10
   5   0  -6    3.82    7.15
   5   0  -6   -4.57    5.14
   5   0  -6    1.93    7.12
  -5   0   6    5.25    9.24
  -5   0   6   -3.87    8.05
   4   0  -6   69.45   10.99
   4   0  -6   93.47   11.87
   4   0  -6   85.67   12.26
  -4   0   6   75.46   13.54
  -4   0   6   94.31   14.57
   3   0  -6  206.69   16.11
   3   0  -6  226.19   16.10
   3   0  -6  253.46   17.87
  -3   0   6  240.98   18.51
  -3   0   6  219.59   18.69
   2   0  -6   22.03    7.66
   2   0  -6   36.84    7.78
   2   0  -6   13.65    7.52
  -2   0   6   28.83    8.97
  -2   0   6   19.45    8.14
   1   0  -6   -2.09    5.89
   1   0  -6   -0.03    4.37
   1   0  -6    5.38    5.26
   1   0  -6   -7.02    5.90
  -1   0   6  -10.42    5.54
  -1   0   6   -5.39    5.57
  -1   0   6    6.33    6.40
   0   0  -6   32.56    7.73
   0   0  -6   34.50    5.98
   0   0  -6   31.97    9.01
   0   0  -6    8.13    7.72
   0   0   6   21.20    8.22
   0   0   6   14.49    7.94
   0   0   6    4.74    7.23
  -1   0  -6   16.42    8.17
  -1   0  -6   17.73    8.71
   1   0   6   20.72    8.15
   1   0   6    6.74    7.59
   1   0   6   29.02    9.03
  -2   0  -6   71.31   12.69
  -2   0  -6   72.06   13.26
   2   0   6   70.35   13.12
   2   0   6   89.31   13.25
   2   0   6   82.26   13.23
  -3   0  -6   21.66   10.84
  -3   0  -6   11.91   10.02
   3   0   6   13.66    9.53
   3   0   6   22.18   10.26
   3   0   6   35.39   10.66
  -4   0  -6   50.12   14.79
  -4   0  -6   65.45   14.34
   4   0   6   81.40   14.40
   4   0   6   72.98   16.24
   4   0   6   73.59   15.56
  -5   0  -6   37.37   15.58
   5   0   6   23.68   12.25
   5   0   6   40.93   12.17
   5   0   6   41.92   14.82
  -6   0  -6   92.55   20.41
   6   0   6  125.24   22.31
   6   0   6  190.06   22.62
   8  -1  -6   19.78   12.44
  -8   1   6    3.82   11.96
   7  -1  -6   -3.74    8.87
   7  -1  -6   -3.71    4.52
  -7   1   6   -3.37    9.85
   6  -1  -6   21.61   10.01
   6  -1  -6   30.37   10.16
   6  -1  -6   27.55    7.08
  -6   1   6   12.69    9.26
  -6   1   6   14.38   11.29
   5  -1  -6   -1.46    6.80
   5  -1  -6    3.65    7.01
   5  -1  -6   -7.96    4.57
  -5   1   6   -6.39    7.36
  -5   1   6   -2.10    7.73
   4  -1  -6   -2.79    6.31
   4  -1  -6   -3.48    5.55
   4  -1  -6   -2.96    6.04
  -4   1   6   -2.56    7.21
  -4   1   6    8.68    8.93
   3  -1  -6  115.85   12.86
   3  -1  -6  121.36   13.02
   3  -1  -6  107.66   13.31
  -3   1   6   95.08   15.41
  -3   1   6  108.69   12.43
   2  -1  -6  244.49   15.88
   2  -1  -6  210.40   16.84
   2  -1  -6  218.29   17.57
  -2   1   6  258.35   19.72
  -2   1   6  252.55   16.24
   1  -1  -6  261.75   19.15
   1  -1  -6  278.63   18.27
   1  -1  -6  248.75   15.28
   1  -1  -6  255.02   14.54
  -1   1   6  287.40   20.52
  -1   1   6  246.57   16.90
  -1   1   6  257.51   19.09
   0  -1  -6  104.47    9.86
   0  -1  -6  100.57   13.43
   0  -1  -6  101.44   14.86
   0  -1  -6  102.87   11.78
   0   1   6  117.62   14.60
   0   1   6  117.23   15.22
   0   1   6  126.65   14.19
  -1  -1  -6   66.17   12.36
  -1  -1  -6   89.59   13.13
   1   1   6   88.46   13.82
   1   1   6  141.92   16.79
   1   1   6   98.30   14.13
  -2  -1  -6  175.70   19.26
  -2  -1  -6  198.35   19.86
   2   1   6  228.49   21.97
   2   1   6  224.73   20.97
   2   1   6  249.56   20.87
  -3  -1  -6   -0.49    8.88
  -3  -1  -6    9.89   11.32
   3   1   6    6.34    8.78
   3   1   6    2.53    9.30
   3   1   6  -18.76    6.68
  -4  -1  -6    2.34   13.51
  -4  -1  -6   23.15   13.03
   4   1   6   21.86   10.67
   4   1   6    0.09   10.39
   4   1   6   -1.68   10.04
  -5  -1  -6   -3.29   13.56
   5   1   6    9.22   11.86
   5   1   6   16.58   11.68
   5   1   6   13.60   11.12
   8  -2  -6   -5.29    9.83
  -8   2   6  -14.92   11.78
   7  -2  -6   35.22    7.04
   7  -2  -6   33.75   11.35
   7  -2  -6   43.67   12.32
  -7   2   6    3.19   11.59
   6  -2  -6   23.77    7.03
   6  -2  -6   24.35    9.99
   6  -2  -6   12.54    9.39
  -6   2   6   13.02   10.31
   5  -2  -6   -7.22    4.93
   5  -2  -6    3.72    7.52
   5  -2  -6   -0.28    7.13
  -5   2   6   15.50   10.85
   4  -2  -6    1.87    6.16
   4  -2  -6   13.25    7.71
   4  -2  -6    4.86    7.44
  -4   2   6    7.45    9.22
   3  -2  -6   17.67    7.79
   3  -2  -6    2.73    7.09
   3  -2  -6   -4.80    6.22
  -3   2   6   13.99   10.10
  -3   2   6    6.30    5.84
   2  -2  -6   81.82   10.51
   2  -2  -6   90.53   12.69
   2  -2  -6   44.05    9.21
   2  -2  -6   73.41   11.24
  -2   2   6   75.78   10.12
  -2   2   6   62.45   13.14
   1  -2  -6    3.36    5.92
   1  -2  -6    8.02    7.31
   1  -2  -6    5.85    6.98
   1  -2  -6    1.32    5.95
  -1   2   6   -7.41    5.25
  -1   2   6    1.29    8.28
   0  -2  -6   64.55   12.14
   0  -2  -6   73.99   12.26
   0  -2  -6   55.26   10.21
   0   2   6   46.40   11.52
   0   2   6   61.52   11.39
   0   2   6   52.65   10.27
  -1  -2  -6   34.92   10.40
  -1  -2  -6   59.75   11.89
   1   2   6   53.83   12.20
   1   2   6   61.91   13.74
   1   2   6   61.18   12.37
  -2  -2  -6    7.52   10.43
  -2  -2  -6   -0.54    7.35
   2   2   6    5.51    8.59
   2   2   6    3.86    8.97
   2   2   6   -4.01    8.19
  -3  -2  -6    6.69   11.73
  -3  -2  -6  -12.15    7.29
   3   2   6    4.21    9.20
   3   2   6   -5.65    8.07
   3   2   6    1.77    8.93
  -4  -2  -6   19.90   13.81
   4   2   6   16.25   13.98
   4   2   6   20.34   11.10
   4   2   6   -1.29   10.98
  -5  -2  -6   25.59   17.03
   5   2   6   21.53   12.20
   5   2   6   11.60   12.68
   5   2   6   -9.43   10.30
   8  -3  -6    9.58   11.11
   8  -3  -6   -3.77    9.86
  -8   3   6   -1.78   12.02
   7  -3  -6    2.93    9.32
   7  -3  -6    4.41    5.11
   7  -3  -6   -1.08    9.36
  -7   3   6    4.43   12.12
   6  -3  -6   -5.50    8.02
   6  -3  -6   -4.45    5.73
   6  -3  -6    5.07    9.13
  -6   3   6    5.31    9.81
   5  -3  -6  106.71   14.91
   5  -3  -6  122.31   13.41
  -5   3   6   95.94   17.81
   4  -3  -6   16.69    8.46
   4  -3  -6    6.88    7.79
   4  -3  -6    8.69    6.94
  -4   3   6   -2.67   10.03
   3  -3  -6   11.07    7.57
   3  -3  -6    6.11    7.53
   3  -3  -6    5.89    7.57
  -3   3   6   10.55    9.70
   2  -3  -6   56.41   11.12
   2  -3  -6   95.96   13.44
   2  -3  -6  102.61   11.63
  -2   3   6   76.98   11.20
  -2   3   6   87.55   15.57
   1  -3  -6   -4.42    6.97
   1  -3  -6   -0.57    7.65
   1  -3  -6   -4.02    6.52
  -1   3   6   -2.92    7.86
  -1   3   6   -0.36    6.40
   0  -3  -6  224.43   20.38
   0  -3  -6  221.77   17.50
   0   3   6  258.84   21.07
   0   3   6  221.02   17.69
  -1  -3  -6   40.04   11.95
  -1  -3  -6   55.08   11.97
   1   3   6   51.56   11.68
   1   3   6   51.09   13.83
   1   3   6   67.50   13.49
  -2  -3  -6   -1.65    8.02
  -2  -3  -6   -3.87    9.90
   2   3   6    5.26   10.33
   2   3   6   -3.83    7.62
   2   3   6   -3.07    8.57
  -3  -3  -6    7.76   13.60
   3   3   6    2.33   10.74
   3   3   6   -1.00   10.64
   3   3   6   -2.90    9.14
  -4  -3  -6   41.25   16.32
   4   3   6   53.70   16.23
   4   3   6   59.27   18.42
   4   3   6   75.04   16.45
   8  -4  -6  -20.60    9.07
   8  -4  -6   -0.81   10.29
  -8   4   6    1.54   15.66
   7  -4  -6   35.22   12.75
   7  -4  -6   23.46    7.23
   7  -4  -6   13.99   10.91
  -7   4   6   14.52   15.28
   6  -4  -6  380.43   26.23
   6  -4  -6  384.54   26.21
   6  -4  -6  373.64   22.24
  -6   4   6  368.37   30.07
   5  -4  -6   15.46    7.65
   5  -4  -6   25.50   10.58
   5  -4  -6   16.52   10.17
  -5   4   6   17.09   12.65
   4  -4  -6   54.69   10.51
   4  -4  -6   46.24   11.20
  -4   4   6  109.93   18.91
   3  -4  -6  139.19   17.38
   3  -4  -6  124.70   16.21
  -3   4   6  129.36   15.31
  -3   4   6  189.91   22.86
   2  -4  -6   29.44    9.50
   2  -4  -6   30.25    9.71
   2  -4  -6   47.04   11.43
  -2   4   6   20.57   11.49
  -2   4   6   27.67    9.37
   1  -4  -6   36.71   10.35
   1  -4  -6   47.48   11.08
   1  -4  -6   18.57    9.71
  -1   4   6   26.26   10.63
   0  -4  -6    4.87    9.33
   0  -4  -6   15.12    8.44
   0   4   6   -4.13    9.24
  -1  -4  -6   -1.33    9.16
  -1  -4  -6    5.80    8.63
   1   4   6   14.37   11.75
  -2  -4  -6   44.12   15.55
   2   4   6   59.48   16.13
   2   4   6   43.50   13.89
  -3  -4  -6    5.98   13.78
   3   4   6   -3.74   11.36
   3   4   6   -1.01   11.12
   8  -5  -6   14.86    5.68
   8  -5  -6    4.40   11.83
  -8   5   6    8.64   11.08
  -8   5   6    3.71   13.69
   7  -5  -6   -3.32    9.82
   7  -5  -6    4.80    7.37
  -7   5   6    0.37   10.45
  -7   5   6   -9.35   11.96
   6  -5  -6    1.53    7.56
   6  -5  -6    5.77    9.11
  -6   5   6   -9.99   10.99
  -6   5   6  -20.22    7.69
   5  -5  -6   10.69    9.25
   5  -5  -6   17.43   10.67
  -5   5   6   11.59    9.57
  -5   5   6   19.03   12.42
   4  -5  -6   90.33   16.04
   4  -5  -6  121.30   16.60
  -4   5   6  145.91   22.40
  -4   5   6   99.33   15.71
   3  -5  -6    5.59    8.81
   3  -5  -6   19.02    9.52
  -3   5   6   19.93    9.97
  -3   5   6   19.86   12.63
   2  -5  -6   18.40    9.30
   2  -5  -6   13.29    9.73
   2  -5  -6   15.13   10.27
  -2   5   6   12.37    8.79
  -2   5   6   10.67   10.29
   1  -5  -6   40.27   11.88
   1  -5  -6   23.43   10.57
  -1   5   6   22.18   11.79
   0  -5  -6   -5.37    8.10
   0  -5  -6   -0.64   10.02
   0   5   6    2.45   10.66
  -1  -5  -6    1.78   12.23
   1   5   6    5.93   11.59
  -2  -5  -6   37.99   15.94
   2   5   6   21.03   13.58
  -8   6   6    7.91   16.21
   7  -6  -6    8.91   10.70
   7  -6  -6    8.90    8.35
  -7   6   6    6.96   13.20
  -7   6   6  -13.32   10.09
   6  -6  -6   -5.73    8.21
   6  -6  -6    3.45    8.86
  -6   6   6   -2.35   12.96
  -6   6   6    0.54   10.64
   5  -6  -6  159.92   18.99
   5  -6  -6   96.47   16.45
  -5   6   6  135.00   18.31
  -5   6   6  122.22   22.33
   4  -6  -6   -9.26    8.85
   4  -6  -6    7.28   10.63
  -4   6   6   -1.12   11.18
  -4   6   6    2.73    9.41
   3  -6  -6   22.92   10.60
   3  -6  -6    5.26    9.97
  -3   6   6    8.83   11.21
  -3   6   6   20.92   10.49
   2  -6  -6   -2.42    9.76
   2  -6  -6   34.21   13.29
  -2   6   6   31.68   13.97
   1  -6  -6  -10.45   10.45
   1  -6  -6    9.51   10.39
  -1   6   6  -12.41    9.39
   0  -6  -6    8.07   11.70
   0   6   6    5.02   11.00
  -1  -6  -6   -3.69   11.82
   1   6   6   14.23   14.29
   6  -7  -6  -23.49    8.25
   6  -7  -6   -1.50    9.87
  -6   7   6   -3.33   13.68
  -6   7   6   -5.17   10.01
   5  -7  -6    1.51    9.90
   5  -7  -6    5.56   11.65
  -5   7   6   -1.88   11.11
  -5   7   6   24.67   15.34
   4  -7  -6   27.03   12.50
   4  -7  -6    4.47   10.77
  -4   7   6    2.62   11.78
  -4   7   6   19.37   11.26
   3  -7  -6   28.94   12.85
   3  -7  -6   20.54   12.36
  -3   7   6   41.50   13.21
  -3   7   6   41.45   16.05
   2  -7  -6   23.26   14.37
   2  -7  -6   15.71   11.55
  -2   7   6   26.17   14.10
   1  -7  -6   60.31   17.13
  -1   7   6   30.37   14.86
   4  -8  -6   57.98   16.96
   4  -8  -6   39.23   15.24
  -4   8   6   29.22   13.95
  -4   8   6   25.91   15.83
  -3   8   6   55.09   17.25
   0  -9   7    6.31   17.77
  -1   9  -7   57.85   15.49
   1  -9   7   82.84   19.66
  -2   9  -7   12.02   12.14
   2  -9   7   -2.94   12.97
   2  -9   7   21.19   17.67
  -3   9  -7   -5.15   15.01
  -3   9  -7    3.15   11.63
   3  -9   7    0.87   13.61
   3  -9   7   11.90   13.46
   3  -9   7  -15.63   11.11
  -2  -8   7   27.60   20.68
   1   8  -7   16.07   11.87
  -1  -8   7  -28.33   15.30
   0   8  -7   -6.47    9.91
   0  -8   7   41.25   19.56
  -1   8  -7   -8.99   10.48
   1  -8   7    5.31   13.79
  -2   8  -7   -2.29   10.82
  -2   8  -7   -8.20   13.00
   2  -8   7  -19.53   10.87
   2  -8   7   -4.80   10.56
  -3   8  -7   42.76   16.66
  -3   8  -7   33.13   13.77
   3  -8   7   35.16   13.78
   3  -8   7   43.86   15.23
   3  -8   7   66.52   17.10
  -4   8  -7   18.53   16.84
   4  -8   7    1.29   12.38
   4  -8   7    2.84   11.25
   4  -8   7   -0.46   11.98
   5  -8   7    7.80   12.58
   5  -8   7  -16.66   11.58
   3   7  -7   10.20   11.08
  -3  -7   7    1.39   19.21
   2   7  -7    8.23   11.17
  -2  -7   7   -6.75   15.72
   1   7  -7   -5.33    9.02
  -1  -7   7    8.73   16.17
   0   7  -7    9.67   10.41
   0  -7   7   16.57   15.06
  -1   7  -7   28.75   11.89
  -1   7  -7   17.42   11.13
   1  -7   7   21.57   14.52
   1  -7   7   21.79   16.02
  -2   7  -7   22.23   13.87
  -2   7  -7   18.69   11.24
   2  -7   7    3.09   11.37
   2  -7   7   18.57   11.09
   2  -7   7   -3.57   10.11
  -3   7  -7   40.79   16.55
   3  -7   7   64.57   14.81
   3  -7   7   86.12   17.90
   3  -7   7   40.69   12.98
  -4   7  -7   11.82   14.84
   4  -7   7   -2.77   10.48
   4  -7   7    1.75   11.06
   4  -7   7    1.13   11.33
  -5   7  -7   13.73   15.76
   5  -7   7    2.07   12.73
   5  -7   7    0.14   11.13
   5  -7   7   -9.34    9.42
   4   6  -7  -18.14    8.77
   4   6  -7   13.01   11.47
   4   6  -7    6.98   14.67
  -4  -6   7    2.62   16.24
   3   6  -7   -4.63    8.92
   3   6  -7   -0.95   10.71
  -3  -6   7   12.83   18.28
   2   6  -7    0.33   12.57
   2   6  -7   -6.12    8.35
  -2  -6   7   -3.35   14.03
   1   6  -7   22.16   10.00
  -1  -6   7   29.16   15.68
   0   6  -7   27.59   10.68
   0   6  -7   12.49    8.80
   0  -6   7   13.63   13.14
  -1   6  -7   48.01   12.38
  -1   6  -7   77.05   13.73
   1  -6   7   60.94   15.36
   1  -6   7   57.18   12.60
   1  -6   7   59.46   14.80
  -2   6  -7   50.33   12.02
  -2   6  -7   39.36   13.47
   2  -6   7   34.28   12.08
   2  -6   7   36.82   13.19
   2  -6   7   50.09   12.38
  -3   6  -7  164.65   22.22
   3  -6   7  158.74   22.02
   3  -6   7  117.83   17.99
   3  -6   7  156.34   20.23
  -4   6  -7    0.05   12.79
   4  -6   7   -5.93   10.09
   4  -6   7    1.32    9.78
   4  -6   7    0.04    9.79
  -5   6  -7    4.84   13.36
   5  -6   7   10.36   12.57
   5  -6   7   33.81   14.80
   5  -6   7   10.77   10.04
   6  -6   7   11.46   13.43
   6  -6   7    4.01   12.53
   5   5  -7    5.67   10.93
   5   5  -7   -1.83    9.19
   5   5  -7    1.65   11.18
  -5  -5   7  -14.40   14.63
   4   5  -7   11.39   10.70
   4   5  -7   32.04   11.74
  -4  -5   7   26.09   16.96
   3   5  -7    6.30    9.22
   3   5  -7   10.51    9.24
  -3  -5   7   -3.46   13.29
  -3  -5   7   -9.33    9.27
   2   5  -7  -11.28    7.20
   2   5  -7   -0.31    9.05
  -2  -5   7   10.13   13.47
   1   5  -7    8.00    8.91
   1   5  -7    0.96    8.45
  -1  -5   7    8.47   12.14
   0   5  -7   47.96   11.99
   0   5  -7   47.45   11.16
   0  -5   7   48.87   14.15
  -1   5  -7   16.89   10.15
  -1   5  -7   13.10    8.00
   1  -5   7   21.99    9.35
   1  -5   7   15.35   10.31
   1  -5   7   14.12   11.03
  -2   5  -7  383.00   23.13
  -2   5  -7  414.37   27.37
   2  -5   7  371.98   26.96
   2  -5   7  373.75   24.76
  -3   5  -7   10.16   10.97
   3  -5   7    2.63    9.27
   3  -5   7    0.97    9.26
   3  -5   7    3.91    9.14
  -4   5  -7   -5.00   10.73
   4  -5   7  -12.25    7.94
   4  -5   7    8.38   11.23
   4  -5   7    9.52   10.20
  -5   5  -7   43.60   14.52
   5  -5   7   52.02   15.52
   5  -5   7   67.94   17.06
   5  -5   7   45.20   12.78
  -6   5  -7   43.59   14.76
   6  -5   7   55.22   13.82
   6  -5   7   65.49   17.45
   6   4  -7    4.77    8.39
   6   4  -7   11.36   11.16
  -6  -4   7   16.10   15.18
   5   4  -7    5.15    9.69
   5   4  -7    5.41    9.11
  -5  -4   7   16.95   13.50
   4   4  -7    1.49    7.96
   4   4  -7  -15.10    7.32
  -4  -4   7    2.07   10.37
  -4  -4   7  -10.09   10.95
   3   4  -7   -0.40    7.44
   3   4  -7   11.28    9.32
  -3  -4   7   -2.37   11.43
  -3  -4   7    2.83    8.65
   2   4  -7   13.80    8.72
   2   4  -7   14.94    8.71
   2   4  -7    3.22    7.60
  -2  -4   7   17.18   13.40
  -2  -4   7   -2.18    7.31
   1   4  -7   61.89   12.46
   1   4  -7   90.60   14.48
   1   4  -7   72.91   11.98
  -1  -4   7   57.97   11.25
  -1  -4   7   58.67   14.93
   0   4  -7   -7.37    6.81
   0   4  -7   -2.79    8.49
   0  -4   7   -7.74    9.23
   0  -4   7   -8.24    7.87
  -1   4  -7   -6.05    7.90
  -1   4  -7    5.33    7.08
   1  -4   7    2.43    8.44
   1  -4   7   11.03    8.97
   1  -4   7    7.29    7.94
  -2   4  -7   20.01   11.13
   2  -4   7    3.34    8.81
   2  -4   7   18.94    9.49
   2  -4   7    1.08    8.58
  -3   4  -7    9.55    9.81
   3  -4   7    5.52    9.73
   3  -4   7   15.45    9.58
   3  -4   7   22.63   11.25
  -4   4  -7   76.58   15.40
   4  -4   7   49.57   14.97
   4  -4   7   75.25   14.12
   4  -4   7   65.42   14.94
  -5   4  -7   13.46   11.84
  -5   4  -7   26.40   13.63
   5  -4   7    3.74    9.95
   5  -4   7   18.84   13.00
  -6   4  -7    4.43   14.55
  -6   4  -7    1.50   11.76
   6  -4   7    5.55    9.59
   6  -4   7    6.41   12.85
   7   3  -7   -0.22   16.48
  -7  -3   7   -2.66   16.05
   6   3  -7   -4.31    9.39
   6   3  -7   -8.60    7.21
  -6  -3   7    3.74   12.44
  -6  -3   7   -4.80   10.49
   5   3  -7   51.43   12.11
   5   3  -7   24.33   11.10
  -5  -3   7   29.05   13.44
  -5  -3   7   24.48   12.21
   4   3  -7   21.05    9.99
   4   3  -7    6.68    8.64
  -4  -3   7   16.94   10.40
  -4  -3   7   29.94   13.17
   3   3  -7   17.48    8.45
   3   3  -7   22.74    9.97
   3   3  -7   27.73    9.17
  -3  -3   7   19.84   14.20
  -3  -3   7    8.49    9.83
   2   3  -7   15.21    9.68
   2   3  -7   24.48    9.57
   2   3  -7    9.80    8.24
  -2  -3   7   13.24   12.17
  -2  -3   7   14.28    9.14
   1   3  -7   97.18   12.92
   1   3  -7  105.64   14.32
   1   3  -7   84.16   13.79
  -1  -3   7   93.88   13.21
  -1  -3   7  100.54   16.00
   0   3  -7    6.54    6.89
   0   3  -7   -0.60    8.18
   0  -3   7   22.97   10.10
   0  -3   7   21.56    9.00
   0  -3   7   -1.18    6.44
   0  -3   7   18.52   12.40
  -1   3  -7   10.60    6.65
  -1   3  -7   19.76    9.99
   1  -3   7   -5.13    7.68
   1  -3   7    2.26    7.21
   1  -3   7    2.64    8.10
  -2   3  -7   -0.50    8.25
   2  -3   7    0.99    8.75
   2  -3   7    0.75    7.43
   2  -3   7    5.30    8.64
  -3   3  -7  244.98   24.07
   3  -3   7  286.82   22.69
   3  -3   7  268.19   26.51
  -4   3  -7  -12.37    8.22
  -4   3  -7   -1.63   10.76
   4  -3   7   12.88   10.44
   4  -3   7   -2.47    9.16
  -5   3  -7   25.46   13.76
  -5   3  -7   30.72   13.75
   5  -3   7   11.62   10.63
   5  -3   7   47.64   15.34
  -6   3  -7    1.96   11.29
  -6   3  -7   -1.21   13.55
   6  -3   7    7.56   13.05
   6  -3   7   28.85   11.86
   7   2  -7    3.13    7.01
   7   2  -7  -16.22    9.25
  -7  -2   7   15.58   13.76
  -7  -2   7   -0.94   13.15
   6   2  -7    3.40    7.67
   6   2  -7    7.30   10.28
  -6  -2   7    6.01   10.95
  -6  -2   7   -1.56   12.43
   5   2  -7   -2.87    7.54
   5   2  -7    0.27    8.34
  -5  -2   7  -10.91   11.46
  -5  -2   7  -24.54    7.39
   4   2  -7   74.54   13.02
   4   2  -7   64.69   12.20
   4   2  -7   59.72   10.58
  -4  -2   7   36.23   12.46
  -4  -2   7   48.44   14.05
   3   2  -7   -6.48    6.36
   3   2  -7    1.26    7.14
   3   2  -7    9.99    7.52
  -3  -2   7    9.16   11.61
  -3  -2   7    8.58    8.73
   2   2  -7  164.99   16.43
   2   2  -7  169.50   19.03
   2   2  -7  179.35   17.46
  -2  -2   7  121.78   16.84
   1   2  -7  123.56   15.66
   1   2  -7  117.45   13.06
   1   2  -7   99.98   14.78
  -1  -2   7  113.42   14.95
  -1  -2   7  136.76   17.13
   0   2  -7  110.56   12.00
   0   2  -7   80.55   13.91
   0   2  -7  114.07   13.54
   0   2  -7   89.36   15.08
   0  -2   7   76.20   12.80
   0  -2   7  101.50   12.64
   0  -2   7   85.58   14.10
  -1   2  -7   71.34   13.44
  -1   2  -7   49.27   10.20
   1  -2   7   64.72   12.76
   1  -2   7   71.56   11.62
   1  -2   7   66.13   13.13
  -2   2  -7   36.89   11.58
  -2   2  -7   10.19    8.89
   2  -2   7   27.19   10.03
   2  -2   7   12.76    9.37
  -3   2  -7   20.89   11.78
  -3   2  -7    6.01    9.95
   3  -2   7    8.28    9.11
   3  -2   7   23.47   10.78
  -4   2  -7   25.43   12.05
  -4   2  -7   19.08   10.84
   4  -2   7   24.04   12.47
   4  -2   7   24.19   11.49
  -5   2  -7    8.87   13.90
  -5   2  -7   24.02   12.28
   5  -2   7   23.60   11.25
   5  -2   7   36.40   14.89
  -6   2  -7   17.29   13.99
  -6   2  -7    2.95   11.40
  -8  -1   7   19.99   13.83
   7   1  -7    0.56    9.80
   7   1  -7    4.73    7.05
  -7  -1   7   -8.19   10.23
  -7  -1   7   14.06   13.60
   6   1  -7   18.24    8.18
   6   1  -7   23.78   10.74
  -6  -1   7   31.74   13.28
  -6  -1   7    7.87   10.22
   5   1  -7    1.48    6.90
   5   1  -7    5.44    8.51
  -5  -1   7   -0.16    9.20
  -5  -1   7    2.54   10.27
   4   1  -7   63.78   12.75
   4   1  -7   83.86   12.81
   4   1  -7   75.03   11.54
  -4  -1   7   58.14   13.90
  -4  -1   7   51.86   15.34
   3   1  -7   -8.48    6.01
   3   1  -7   -5.99    6.82
   3   1  -7   -0.80    7.10
  -3  -1   7   -6.75    8.43
  -3  -1   7   -7.58    8.36
   2   1  -7   38.29    9.34
   2   1  -7   57.03   11.02
   2   1  -7   58.28   11.69
  -2  -1   7   46.91   12.08
  -2  -1   7   56.34   12.19
   1   1  -7   11.24    7.99
   1   1  -7   10.20    6.88
   1   1  -7   24.13    8.84
  -1  -1   7    1.01    8.41
  -1  -1   7   -0.19    7.48
   0   1  -7  118.82   16.28
   0   1  -7   91.01   10.67
   0   1  -7   96.17   15.31
   0   1  -7  105.58   11.12
   0  -1   7   93.24   13.44
   0  -1   7  113.94   15.21
   0  -1   7   91.37   13.72
  -1   1  -7   10.57    8.87
  -1   1  -7   -1.48    7.39
   1  -1   7   11.45    7.40
   1  -1   7   -4.09    8.10
   1  -1   7   10.69    7.93
  -2   1  -7   42.84   12.74
  -2   1  -7   43.74   11.62
   2  -1   7   22.61   10.55
   2  -1   7   27.74   10.88
   2  -1   7   37.56   10.64
  -3   1  -7   18.13   10.85
  -3   1  -7   38.61   12.21
   3  -1   7   28.52   11.07
   3  -1   7   41.13   11.23
   3  -1   7   43.54   13.03
  -4   1  -7    9.37   11.90
  -4   1  -7   30.14   12.12
   4  -1   7   20.60   10.91
   4  -1   7    8.73   12.03
  -5   1  -7  -11.84   12.48
  -5   1  -7    0.54   11.72
   5  -1   7   10.98   10.29
   5  -1   7   19.66   12.33
   8   0  -7   -4.62    5.26
   8   0  -7   -2.15   10.54
  -8   0   7    3.20   18.64
   7   0  -7   -3.44    8.68
   7   0  -7    4.26    6.35
  -7   0   7   -9.40   10.08
  -7   0   7    4.96   11.37
   6   0  -7    4.66    6.22
   6   0  -7   17.83    9.31
  -6   0   7   24.37   13.05
  -6   0   7   30.68   11.79
   5   0  -7   44.80    9.66
   5   0  -7   71.56   12.65
   5   0  -7   67.86   12.25
  -5   0   7   60.12   15.30
  -5   0   7   51.81   13.30
   4   0  -7    5.35    7.40
   4   0  -7   -0.61    7.30
   4   0  -7    2.26    7.18
  -4   0   7   -7.88    9.55
  -4   0   7    0.54    9.47
   3   0  -7    2.94    6.98
   3   0  -7    1.92    6.77
   3   0  -7   -1.42    6.52
  -3   0   7   -5.36    7.71
  -3   0   7   -4.07    7.87
   2   0  -7    3.55    6.40
   2   0  -7   14.75    8.61
   2   0  -7    5.51    7.87
  -2   0   7    6.05    8.57
  -2   0   7   -2.45    7.57
   1   0  -7   30.42    9.23
   1   0  -7   40.34    8.12
   1   0  -7   11.51    7.91
  -1   0   7   38.11   10.86
  -1   0   7   24.81    8.95
   0   0  -7   49.02    9.30
   0   0  -7   75.26   13.70
   0   0   7   60.13   12.05
   0   0   7   49.30   10.87
   0   0   7   74.99   12.87
  -1   0  -7   57.80   12.57
  -1   0  -7   83.66   13.23
   1   0   7   80.42   13.16
   1   0   7   40.96   11.42
   1   0   7   42.48   11.38
  -2   0  -7   29.76   11.11
  -2   0  -7   56.04   13.22
   2   0   7   44.48   11.28
   2   0   7   77.43   14.07
   2   0   7   80.01   14.49
  -3   0  -7    0.70   11.10
  -3   0  -7    3.78    9.56
   3   0   7   12.18   10.16
   3   0   7    3.88    8.74
   3   0   7    3.24    9.85
  -4   0  -7   -3.12   11.58
  -4   0  -7    9.11   11.73
   4   0   7  -17.24    8.34
   4   0   7    2.37   11.40
   4   0   7    3.25   10.25
  -5   0  -7   -2.60   14.07
   5   0   7   12.19   11.25
   5   0   7  -23.97   10.07
   8  -1  -7   -9.16    4.57
   8  -1  -7   24.12   12.07
  -8   1   7    9.25   13.39
   7  -1  -7    1.85    6.54
   7  -1  -7    2.11    9.16
  -7   1   7    3.99   12.41
   6  -1  -7   -3.21    8.68
   6  -1  -7   -4.59    5.69
   6  -1  -7    7.07    9.38
  -6   1   7    1.18   10.41
   5  -1  -7    3.19    8.03
   5  -1  -7   19.75    9.57
   5  -1  -7   21.42    8.14
  -5   1   7    7.37   10.67
   4  -1  -7    6.15    7.12
   4  -1  -7    6.48    7.48
   4  -1  -7   -9.66    6.67
  -4   1   7   10.29   11.00
  -4   1   7   -5.33    8.04
   3  -1  -7   10.21    7.34
   3  -1  -7    4.38    6.95
   3  -1  -7   12.19    7.56
  -3   1   7   27.95    9.31
  -3   1   7    7.40   10.91
   2  -1  -7   16.91    8.07
   2  -1  -7   14.13    8.63
   2  -1  -7   16.84    7.42
  -2   1   7   10.60   10.04
  -2   1   7   20.54    8.07
   1  -1  -7    7.28    6.45
   1  -1  -7   -7.29    6.80
   1  -1  -7   -2.64    7.31
  -1   1   7   -2.67    6.93
  -1   1   7   14.48   10.10
   0  -1  -7  267.42   20.63
   0   1   7  284.28   22.84
   0   1   7  271.38   21.07
   0   1   7  308.00   21.08
  -1  -1  -7   19.42   10.40
  -1  -1  -7   14.90    9.32
   1   1   7   22.72    9.75
   1   1   7   20.92   10.66
   1   1   7   14.57    9.71
  -2  -1  -7   35.57   12.61
  -2  -1  -7   63.55   13.54
   2   1   7   56.76   13.63
   2   1   7   66.09   14.72
   2   1   7   76.48   15.60
  -3  -1  -7    2.76   12.40
  -3  -1  -7   -1.48    8.98
   3   1   7   -3.21    8.10
   3   1   7   -0.49    9.55
   3   1   7   19.08   12.27
  -4  -1  -7   31.62   16.81
   4   1   7   14.81   12.29
   4   1   7   -2.65   10.44
   4   1   7   11.62   11.57
   5   1   7  140.20   31.62
   5   1   7  105.42   32.13
   8  -2  -7   -1.12    4.51
   8  -2  -7    2.08   10.30
  -8   2   7   23.00   17.45
   7  -2  -7   -0.85    8.56
   7  -2  -7   -6.23    5.10
   7  -2  -7   19.00   11.50
  -7   2   7   10.18   11.86
   6  -2  -7   30.50    8.38
   6  -2  -7   17.93   10.90
   6  -2  -7   17.49   10.87
  -6   2   7   12.59   10.94
   5  -2  -7   36.05   11.45
   5  -2  -7   26.56   10.43
   5  -2  -7   41.99    9.89
  -5   2   7   15.08   11.99
   4  -2  -7    4.60    7.89
   4  -2  -7    8.86    7.44
   4  -2  -7    0.31    7.52
  -4   2   7   20.58   11.53
   3  -2  -7   31.94    9.55
   3  -2  -7   26.81    9.33
   3  -2  -7   16.00    8.74
  -3   2   7   29.31   12.45
   2  -2  -7    2.60    6.92
   2  -2  -7    0.18    6.58
   2  -2  -7   -6.28    6.66
  -2   2   7    2.28    9.29
   1  -2  -7  300.85   22.05
   1  -2  -7  305.40   23.62
  -1   2   7  323.22   24.50
  -1   2   7  312.29   20.64
   0  -2  -7   -4.58    7.13
   0  -2  -7    6.03    8.73
   0   2   7   22.44   10.53
   0   2   7   11.53    8.73
  -1  -2  -7   15.69   10.31
  -1  -2  -7   -3.22    8.17
   1   2   7   11.46   10.24
   1   2   7    4.67    8.59
   1   2   7   -1.41    8.81
  -2  -2  -7  134.86   17.72
  -2  -2  -7   84.65   16.70
   2   2   7  141.83   19.62
   2   2   7  130.09   19.47
   2   2   7  156.38   20.29
  -3  -2  -7   38.94   14.77
   3   2   7  109.03   18.61
   3   2   7   92.03   17.36
   3   2   7   67.26   15.99
  -4  -2  -7    1.22   14.52
   4   2   7    9.50   12.94
   4   2   7   18.98   11.97
   4   2   7   18.49   12.45
   8  -3  -7   70.61   15.67
   8  -3  -7   65.21   15.84
   8  -3  -7   67.16    8.75
  -8   3   7   70.63   20.40
   7  -3  -7   -7.86    8.72
   7  -3  -7    6.36   10.75
   7  -3  -7   -5.32    5.51
  -7   3   7    2.13   13.51
   6  -3  -7    4.47    9.67
   6  -3  -7   -4.36    9.53
   6  -3  -7    8.42    7.07
  -6   3   7   -2.64   11.15
   5  -3  -7  150.79   18.45
   5  -3  -7  128.02   15.86
   5  -3  -7  155.69   18.30
  -5   3   7  122.79   21.05
   4  -3  -7   28.69   10.67
   4  -3  -7   32.99   10.10
   4  -3  -7   28.85    9.86
  -4   3   7    8.92   11.22
   3  -3  -7   18.96    9.49
   3  -3  -7   32.97   10.22
   3  -3  -7    7.76    7.98
  -3   3   7   29.68   12.19
   2  -3  -7   39.31   11.47
   2  -3  -7   23.70    9.16
  -2   3   7   11.19   10.93
  -2   3   7   23.41    8.81
   1  -3  -7   15.41    8.35
   1  -3  -7   10.82    8.18
  -1   3   7   -1.77    9.68
   0  -3  -7    1.94    8.75
   0  -3  -7   -6.03    7.45
   0   3   7   -4.24    8.34
  -1  -3  -7  195.15   21.63
  -1  -3  -7  189.77   21.37
   1   3   7  229.87   26.05
  -2  -3  -7   25.71   13.94
  -2  -3  -7   11.05   10.47
   2   3   7   39.25   13.13
   2   3   7   37.84   14.54
  -3  -3  -7    0.89   13.99
   3   3   7   33.06   13.85
   3   3   7    0.18   11.99
   3   3   7    6.44   15.46
   8  -4  -7   11.63   11.75
   8  -4  -7    4.45    5.89
   8  -4  -7    3.54   14.51
  -8   4   7   12.68   17.60
   7  -4  -7   22.56   11.52
   7  -4  -7   18.01   11.24
   7  -4  -7   16.65    8.34
  -7   4   7   21.64   13.91
   6  -4  -7    3.45    9.55
   6  -4  -7   15.84    7.97
   6  -4  -7   27.85   11.98
  -6   4   7   -8.92   12.40
   5  -4  -7    9.32    8.03
   5  -4  -7   10.52    9.56
   5  -4  -7   13.95   10.76
  -5   4   7   18.42   13.34
   4  -4  -7   77.46   13.92
   4  -4  -7   85.25   15.46
  -4   4   7   71.22   17.13
  -4   4   7   48.16   12.20
   3  -4  -7    3.76    8.02
   3  -4  -7    1.86    8.26
  -3   4   7   17.77    9.78
  -3   4   7   14.81   11.92
   2  -4  -7    3.49    8.49
   2  -4  -7   -8.54    7.34
  -2   4   7    1.98   10.11
   1  -4  -7   -2.56    7.78
   1  -4  -7   11.19    8.93
  -1   4   7   11.85   10.65
   0  -4  -7   21.09   11.63
   0  -4  -7   -1.57    9.03
   0   4   7   13.28   11.79
  -1  -4  -7   38.79   14.12
  -1  -4  -7   21.40   10.98
   1   4   7   36.50   14.45
  -2  -4  -7    3.38   12.98
   2   4   7   -9.06   10.32
   7  -5  -7   -1.53    7.43
   7  -5  -7   32.42   13.38
  -7   5   7    9.73   13.79
  -7   5   7    9.79   11.63
   6  -5  -7    3.67    9.12
   6  -5  -7   -9.36    9.66
  -6   5   7    2.03   10.44
  -6   5   7  -13.65   11.94
   5  -5  -7   -0.25    9.95
   5  -5  -7   -3.25    8.89
  -5   5   7    6.73   12.31
  -5   5   7    0.40    9.76
   4  -5  -7   34.31   12.39
   4  -5  -7   15.51   10.29
  -4   5   7   45.65   13.04
  -4   5   7   17.12   15.15
   3  -5  -7   41.87   12.94
   3  -5  -7   47.39   12.54
  -3   5   7   65.85   13.29
  -3   5   7   54.20   17.00
   2  -5  -7   26.74   11.03
  -2   5   7   38.14   13.82
   1  -5  -7   -1.10    9.15
   1  -5  -7   20.82   11.85
  -1   5   7    7.33   11.93
   0  -5  -7   19.49   13.55
   0  -5  -7    4.29    9.84
   0   5   7   -4.23   10.54
  -1  -5  -7   49.13   15.81
   1   5   7   51.72   17.25
  -7   6   7  -18.37   12.86
   6  -6  -7   -2.22   10.11
   6  -6  -7    1.90    9.47
  -6   6   7   21.87   17.47
  -6   6   7   -8.69   10.91
   5  -6  -7   40.17   12.61
   5  -6  -7   86.70   16.95
  -5   6   7   73.14   15.22
  -5   6   7   60.95   19.00
   4  -6  -7   11.60   11.04
   4  -6  -7   30.78   12.31
  -4   6   7    2.44   11.49
  -4   6   7   33.17   12.70
   3  -6  -7    4.44   11.16
   3  -6  -7   -0.02    9.72
  -3   6   7   13.44   13.37
   2  -6  -7   -0.96    9.99
  -2   6   7   -2.73   11.16
   1  -6  -7    1.28    9.87
   1  -6  -7   15.51   12.95
  -1   6   7  -10.27   11.78
   0  -6  -7   68.36   17.49
   5  -7  -7   -0.17   11.60
  -5   7   7    4.98   11.48
  -5   7   7    4.65   13.78
   4  -7  -7   21.31   12.65
   4  -7  -7   53.16   16.27
  -4   7   7   61.21   19.02
  -4   7   7    4.88   11.52
   3  -7  -7    2.39   10.99
  -3   7   7   16.86   13.92
  -1  -8   8  -14.94   30.11
   0   8  -8   -4.12   10.19
   0  -8   8    8.01   17.80
  -1   8  -8   -6.26   10.16
   1  -8   8   -6.70   12.72
  -2   8  -8   -9.61   12.48
  -2   8  -8    4.87   11.25
   2  -8   8  -10.50   12.22
  -3   8  -8   29.81   16.72
   3  -8   8   27.11   15.97
   3  -8   8   20.71   18.71
   3  -8   8   17.81   12.81
   2   7  -8   31.96   13.27
  -2  -7   8   12.77   18.15
   1   7  -8   -0.60    9.54
  -1  -7   8   -2.68   16.68
   0   7  -8   -9.57    9.52
   0  -7   8   14.51   15.97
  -1   7  -8  -16.71    8.14
  -1   7  -8    4.66   11.98
   1  -7   8   -4.37   11.33
  -2   7  -8   -2.53   11.81
   2  -7   8  -11.62   11.38
  -3   7  -8   -4.61   13.21
   3  -7   8  -10.04    9.92
   3  -7   8   -8.94   11.65
   3  -7   8  -12.10   11.14
  -4   7  -8    6.97   14.78
   4  -7   8   14.16   13.05
   4  -7   8   26.04   13.69
   4  -7   8   11.65   14.07
   4   6  -8   24.67   21.33
   4   6  -8   10.96   12.12
   3   6  -8   15.16   12.39
   3   6  -8   -2.67   10.51
  -3  -6   8  -29.24   16.87
   2   6  -8    0.69    9.61
  -2  -6   8   11.95   16.74
   1   6  -8    1.06    9.04
  -1  -6   8    1.57   15.07
   0   6  -8   -1.58   10.85
   0   6  -8   23.30   11.10
   0  -6   8    2.03   14.31
  -1   6  -8   65.68   16.82
  -1   6  -8   -7.52    8.16
   1  -6   8  -13.69    9.80
  -2   6  -8   -7.94   11.10
   2  -6   8    0.75   10.70
   2  -6   8   -1.31   10.89
  -3   6  -8   -0.58   10.75
   3  -6   8   10.46   11.77
   3  -6   8   27.55   12.60
   3  -6   8   34.24   14.80
  -4   6  -8   -3.80   12.17
   4  -6   8   -0.16   11.18
   4  -6   8   -3.44   10.60
   4  -6   8   -8.23   10.13
   5  -6   8  -16.41   10.18
   5  -6   8    6.18   12.95
   5  -6   8  -12.16   10.28
   5   5  -8   -1.74   10.27
  -5  -5   8   -0.34   12.22
   4   5  -8    3.04   10.60
   4   5  -8   14.85   10.75
  -4  -5   8   23.59   19.81
  -4  -5   8   13.00   12.83
   3   5  -8   -8.49    9.20
   3   5  -8   -1.56    8.46
  -3  -5   8   -1.04   15.77
   2   5  -8   -3.79    8.07
   2   5  -8   -4.99    9.39
  -2  -5   8   25.67   14.75
   1   5  -8   30.66   11.10
   1   5  -8   29.42   10.85
  -1  -5   8   21.25   13.76
   0   5  -8   26.62   12.12
   0   5  -8   33.43   10.73
   0  -5   8   52.06   15.74
  -1   5  -8   30.44   10.87
  -1   5  -8   38.07   13.25
   1  -5   8   34.39   12.63
  -2   5  -8   25.65   13.11
   2  -5   8   17.12   11.47
   2  -5   8   34.34   12.50
   2  -5   8    7.36    9.98
  -3   5  -8   30.30   13.60
   3  -5   8    7.37   11.99
   3  -5   8   10.65   11.07
   3  -5   8   15.98   11.69
  -4   5  -8  106.05   19.81
   4  -5   8   96.09   18.30
   4  -5   8   79.89   17.47
   4  -5   8  134.93   19.19
  -5   5  -8   21.41   14.04
   5  -5   8   26.42   13.49
   5  -5   8    6.80   12.49
   5   4  -8    6.50   10.49
   5   4  -8   11.34   10.15
  -5  -4   8  -14.09   16.91
  -5  -4   8   -8.57   12.48
   4   4  -8  100.28   15.70
   4   4  -8  101.37   16.10
  -4  -4   8   25.72   18.21
   3   4  -8   -5.67    8.24
   3   4  -8    5.42    8.46
  -3  -4   8  -17.40   11.59
  -3  -4   8   -1.36    9.02
   2   4  -8   48.74   12.22
   2   4  -8   69.04   14.97
   2   4  -8   72.92   13.54
  -2  -4   8   46.10   12.83
  -2  -4   8   47.15   15.66
   1   4  -8   20.00   10.72
   1   4  -8    4.45    8.00
  -1  -4   8    7.28   11.02
   0   4  -8   -2.40    6.80
   0   4  -8   -4.55    9.29
   0  -4   8    1.44    9.89
  -1   4  -8   66.27   14.28
   1  -4   8   63.00   13.65
   1  -4   8   60.58   13.96
  -2   4  -8    4.55   10.22
   2  -4   8    7.17   11.08
   2  -4   8   -8.19    7.85
   2  -4   8  -15.99    7.40
  -3   4  -8    9.89   11.43
   3  -4   8   11.37    9.97
   3  -4   8   10.75   10.57
   3  -4   8   21.85   11.23
  -4   4  -8    9.35   12.46
  -4   4  -8    8.77   11.70
   4  -4   8   16.57   11.60
   4  -4   8    2.04   10.84
  -5   4  -8   48.63   17.97
  -5   4  -8   61.90   16.38
   5  -4   8   89.76   17.13
   5  -4   8   99.77   20.91
   6   3  -8   25.75   11.06
   6   3  -8   10.29   12.00
  -6  -3   8   33.08   16.67
  -6  -3   8   18.24   12.96
   5   3  -8   62.48   14.54
   5   3  -8   82.44   14.83
  -5  -3   8   42.74   17.18
  -5  -3   8   24.04   13.30
   4   3  -8   -2.16    8.50
   4   3  -8    2.04    9.09
  -4  -3   8    6.87   11.21
  -4  -3   8    0.33   12.71
   3   3  -8    9.73    8.44
   3   3  -8   27.85   10.79
   3   3  -8    9.49    9.07
  -3  -3   8    8.51   10.24
  -3  -3   8   -0.19   11.73
   2   3  -8   36.64   11.58
   2   3  -8   67.40   13.11
   2   3  -8   46.03   12.89
  -2  -3   8   49.72   14.50
  -2  -3   8   48.15   11.82
   1   3  -8   91.39   13.17
   1   3  -8   63.50   15.21
   1   3  -8  106.73   16.58
  -1  -3   8   71.27   15.91
   0   3  -8    0.93    6.63
   0   3  -8    4.07    9.23
   0  -3   8    0.74    8.61
  -1   3  -8   -1.69    8.85
   1  -3   8   -4.25    8.05
   1  -3   8    9.03    9.24
  -2   3  -8   11.98    9.92
  -2   3  -8   -4.11    9.80
   2  -3   8   22.78   11.71
   2  -3   8   13.37    9.84
  -3   3  -8   10.69   11.21
  -3   3  -8    1.87   10.06
   3  -3   8   -2.51    9.32
   3  -3   8    9.50   10.42
  -4   3  -8   12.97   11.47
  -4   3  -8   37.80   14.79
   4  -3   8   28.48   13.23
   4  -3   8   23.07   13.18
  -5   3  -8   19.64   14.46
  -5   3  -8   46.77   17.63
   5  -3   8   60.12   17.62
   5  -3   8   59.55   14.97
  -7  -2   8    7.56   14.32
   6   2  -8   -4.42    7.76
   6   2  -8   13.76   11.05
  -6  -2   8    0.22   13.41
  -6  -2   8    2.42   13.33
   5   2  -8    8.54    9.54
   5   2  -8   10.10    8.91
  -5  -2   8   10.18   11.18
  -5  -2   8   -3.41   12.09
   4   2  -8   48.90   12.67
   4   2  -8   33.47   10.06
   4   2  -8   13.24    9.77
  -4  -2   8   17.38   11.95
  -4  -2   8   14.86   13.62
   3   2  -8   33.76   11.51
   3   2  -8   24.83   10.21
   3   2  -8   40.46   11.11
  -3  -2   8   11.46   10.67
  -3  -2   8   30.11   12.61
   2   2  -8  135.39   17.49
   2   2  -8  105.49   15.86
   2   2  -8  118.80   15.28
  -2  -2   8   86.09   16.21
  -2  -2   8  109.54   16.09
   1   2  -8    8.20    8.96
   1   2  -8    8.68    7.69
   1   2  -8    8.82    9.02
  -1  -2   8    0.66    8.54
  -1  -2   8   10.18    8.74
   0   2  -8   42.47   12.27
   0  -2   8   47.51   11.19
   0  -2   8   45.59   12.27
  -1   2  -8    2.10    9.08
   1  -2   8    5.06    8.73
   1  -2   8    3.05    8.32
   1  -2   8    7.55    8.93
  -2   2  -8   -2.54    9.34
  -2   2  -8    8.61   10.41
   2  -2   8   -3.92    9.71
   2  -2   8   -0.80    8.30
  -3   2  -8   -0.48   10.98
  -3   2  -8    8.33   11.20
   3  -2   8   26.58   13.11
   3  -2   8   13.34   11.53
  -4   2  -8    2.43   11.56
  -4   2  -8    1.37   12.58
   4  -2   8    0.08   10.24
   4  -2   8   12.50   11.29
  -5   2  -8    7.69   14.02
  -5   2  -8   24.64   13.49
   5  -2   8   19.00   12.14
   5  -2   8   24.12   14.36
   7   1  -8    2.26    7.85
   7   1  -8    2.44   10.56
  -7  -1   8    6.99   13.94
  -7  -1   8    2.26   11.37
   6   1  -8  -11.45    8.04
   6   1  -8   -0.92    7.30
  -6  -1   8    5.01   10.34
  -6  -1   8   12.93   13.47
   5   1  -8   22.61   10.46
   5   1  -8    0.74    8.06
  -5  -1   8   -5.39   10.93
  -5  -1   8   12.92   13.04
   4   1  -8   78.96   14.40
   4   1  -8   79.08   14.32
   4   1  -8  107.58   14.88
  -4  -1   8   48.29   14.75
  -4  -1   8   72.51   15.97
   3   1  -8   64.97   13.23
   3   1  -8   79.16   14.00
   3   1  -8   95.31   14.47
  -3  -1   8   80.26   15.46
  -3  -1   8   66.26   14.51
   2   1  -8   21.41   10.03
   2   1  -8   14.49    8.62
   2   1  -8   11.00    9.62
  -2  -1   8   26.04   10.80
  -2  -1   8    4.93   10.10
   1   1  -8   18.82    9.96
   1   1  -8   33.08    9.10
   1   1  -8   18.88   10.47
  -1  -1   8    5.06    8.21
  -1  -1   8   25.03   10.21
   0   1  -8   -0.23    9.01
   0  -1   8   -3.51    8.08
   0  -1   8   -2.17    7.84
  -1   1  -8   53.10   13.54
  -1   1  -8   98.95   21.28
   1  -1   8   60.13   13.47
   1  -1   8   35.51   12.74
   1  -1   8   59.65   12.20
  -2   1  -8   -0.63    9.53
  -2   1  -8    2.35   10.37
   2  -1   8   17.27    9.25
   2  -1   8    8.37   10.07
   2  -1   8    2.26    9.92
  -3   1  -8    9.66   10.73
  -3   1  -8   -4.53   10.61
   3  -1   8   11.51   11.30
   3  -1   8   -1.50   10.20
  -4   1  -8   32.27   13.92
  -4   1  -8   31.11   15.09
   4  -1   8   33.44   14.20
   4  -1   8   74.19   15.71
  -5   1  -8   74.48   17.67
  -5   1  -8   50.06   18.67
   7   0  -8    9.80    7.56
   7   0  -8   21.80   11.84
  -7   0   8   13.87   14.91
   6   0  -8  -10.61    6.32
   6   0  -8    1.52    8.76
  -6   0   8   15.35   14.31
   5   0  -8    0.94    8.62
   5   0  -8    9.90    8.25
   5   0  -8    3.92    9.03
  -5   0   8  -17.59   10.01
  -5   0   8   -0.85   10.40
   4   0  -8   -3.97    8.06
   4   0  -8    3.45    7.80
   4   0  -8   -2.00    7.91
  -4   0   8   -5.13    9.39
  -4   0   8   12.10   11.46
   3   0  -8   65.28   12.26
   3   0  -8   78.65   13.80
   3   0  -8   84.63   14.76
  -3   0   8   52.51   13.20
  -3   0   8   39.18   13.05
   2   0  -8   15.03    9.37
   2   0  -8    2.04    6.79
   2   0  -8   24.00   10.42
  -2   0   8   -2.88    7.90
  -2   0   8   21.63   10.81
   1   0  -8   57.94   13.49
   1   0  -8   58.69   12.62
  -1   0   8   59.64   12.38
  -1   0   8   51.14   13.03
   0   0  -8   23.28   10.88
   0   0   8   14.10    9.43
   0   0   8   28.45   10.14
  -1   0  -8  150.45   19.36
   1   0   8  149.99   18.65
   1   0   8  164.93   20.27
   1   0   8  157.14   20.29
  -2   0  -8   24.41   11.97
  -2   0  -8   18.21   11.96
   2   0   8   29.58   11.68
   2   0   8    8.60    9.18
   2   0   8   16.22   11.94
  -3   0  -8    6.52   12.53
  -3   0  -8   30.85   13.72
   3   0   8   34.56   13.15
   3   0   8   23.35   12.81
   3   0   8   22.78   13.01
  -4   0  -8    7.73   14.09
  -4   0  -8   26.09   13.64
   4   0   8    6.25   13.52
   4   0   8    7.96   12.18
   7  -1  -8   20.05    8.74
   7  -1  -8   -3.97   10.11
  -7   1   8    9.45   14.34
   6  -1  -8  -11.97    8.50
   6  -1  -8   -1.36    9.25
   6  -1  -8   -4.71    6.80
  -6   1   8   -8.38   10.68
   5  -1  -8   86.15   14.78
   5  -1  -8   63.83   13.82
   5  -1  -8   75.14   13.00
  -5   1   8   67.47   18.19
   4  -1  -8    2.83    8.27
   4  -1  -8   11.75    8.75
   4  -1  -8   -6.36    8.22
  -4   1   8   -0.71    9.51
   3  -1  -8  193.94   18.91
   3  -1  -8  173.78   18.90
   3  -1  -8  186.70   20.22
  -3   1   8  188.35   22.78
   2  -1  -8    3.39    8.81
   2  -1  -8   -3.58    6.87
   2  -1  -8    9.34    8.80
  -2   1   8  -18.34    6.31
  -2   1   8    3.73   10.35
   1  -1  -8   33.13   11.68
  -1   1   8   36.26   11.77
  -1   1   8   27.73    9.64
   0  -1  -8   14.45    9.66
   0   1   8   31.60   11.14
   0   1   8   40.21   11.95
  -1  -1  -8   35.14   12.15
  -1  -1  -8   36.58   12.03
   1   1   8   73.10   15.37
   1   1   8   37.60   12.37
  -2  -1  -8    2.24    9.27
  -2  -1  -8    5.75   12.48
   2   1   8   -0.52    8.92
   2   1   8   -1.05    9.96
   2   1   8   17.85   11.95
  -3  -1  -8   -6.10    9.95
  -3  -1  -8    2.43   13.09
   3   1   8   14.54   12.81
   3   1   8   -7.00   10.94
   3   1   8    0.50    9.79
  -4  -1  -8   -2.24   15.74
   4   1   8   12.23   14.65
   4   1   8    5.85   13.28
   4   1   8    7.39   12.13
   7  -2  -8   -6.38   10.65
   7  -2  -8    8.25   11.57
   7  -2  -8  -11.29    5.73
  -7   2   8  -10.93   12.13
   6  -2  -8   80.61   16.01
   6  -2  -8  101.27   13.94
   6  -2  -8  108.70   17.78
  -6   2   8   94.22   22.67
   5  -2  -8    5.21    9.34
   5  -2  -8   -0.94    8.76
   5  -2  -8   -8.78    6.31
  -5   2   8    7.30   11.75
   4  -2  -8   15.99    8.78
   4  -2  -8   27.78   11.15
   4  -2  -8   14.99    9.56
  -4   2   8    6.19   11.10
   3  -2  -8   14.99    9.97
   3  -2  -8   27.68   10.28
   3  -2  -8   22.42   10.18
  -3   2   8   26.28   12.15
   2  -2  -8    6.62    9.17
   2  -2  -8   -4.08    6.86
   2  -2  -8   -4.74    7.30
  -2   2   8   -8.43   10.13
   1  -2  -8  134.40   18.10
  -1   2   8  183.72   21.35
   0  -2  -8    4.30    9.53
   0   2   8  -11.84    7.57
  -1  -2  -8   -6.93    8.71
  -1  -2  -8   -7.16    9.45
   1   2   8   -5.38    8.56
   1   2   8    0.02    9.66
  -2  -2  -8    0.45   11.52
  -2  -2  -8    4.58   11.14
   2   2   8   -8.47   10.16
   2   2   8    9.74   11.55
  -3  -2  -8   55.01   16.89
   3   2   8   41.34   14.35
   3   2   8   73.17   17.48
   3   2   8   43.54   15.72
   7  -3  -8   73.64   16.71
   7  -3  -8   49.09   14.97
   7  -3  -8   79.44   13.06
  -7   3   8   93.51   23.09
   6  -3  -8   -2.48    7.57
   6  -3  -8  -10.33    8.45
   6  -3  -8  -16.56    9.63
  -6   3   8    8.28   13.58
   5  -3  -8   10.09   10.32
   5  -3  -8   -3.86    7.83
   5  -3  -8   17.96   11.10
  -5   3   8   -5.79   11.09
   4  -3  -8   40.07   12.02
   4  -3  -8   44.62   11.88
   4  -3  -8   51.71   12.86
  -4   3   8   77.65   17.84
   3  -3  -8   -0.09    8.40
   3  -3  -8   12.38    8.99
  -3   3   8   24.05   13.84
   2  -3  -8    2.42    8.42
   2  -3  -8   10.69    9.86
  -2   3   8   10.54   12.10
   1  -3  -8    9.30    9.42
  -1   3   8   11.85   11.12
   0  -3  -8   -1.04    9.25
   0   3   8   -8.13    9.32
  -1  -3  -8   20.84   13.15
  -1  -3  -8    9.23   10.07
   1   3   8    1.89   10.63
  -2  -3  -8   11.17   14.22
   2   3   8   -0.77   11.62
   7  -4  -8   23.02   12.47
   7  -4  -8   17.53    8.76
   7  -4  -8   -6.55   10.00
  -7   4   8   -8.03   13.53
   6  -4  -8    5.32   10.99
   6  -4  -8    4.91    7.35
   6  -4  -8   84.58   17.16
  -6   4   8    9.74   15.50
   5  -4  -8   92.51   15.71
   5  -4  -8   91.34   17.01
  -5   4   8  113.53   23.41
   4  -4  -8    6.67   10.03
   4  -4  -8    3.57    9.17
  -4   4   8   -6.91    7.85
  -4   4   8   18.81   12.93
   3  -4  -8   28.55   12.49
   3  -4  -8   16.96   10.56
  -3   4   8   17.12   11.08
  -3   4   8   42.21   15.86
   2  -4  -8    3.02    8.94
  -2   4   8    2.66   11.84
   1  -4  -8   13.40   10.63
  -1   4   8   -0.48   10.16
   0  -4  -8  -19.23    7.87
   0   4   8  -12.78   10.21
  -1  -4  -8   22.05   13.63
   1   4   8   -4.61   11.31
   6  -5  -8   67.04   18.20
   6  -5  -8   88.99   15.85
  -6   5   8   73.35   21.15
  -6   5   8   25.76   13.43
   5  -5  -8  -11.74    8.06
   5  -5  -8    0.26   10.41
  -5   5   8    3.68   11.00
  -5   5   8   12.43   15.34
   4  -5  -8   25.59   12.41
   4  -5  -8   42.64   13.01
  -4   5   8   24.10   12.03
  -4   5   8   37.10   17.43
   3  -5  -8   -3.33   10.00
   3  -5  -8   -3.40    8.43
  -3   5   8   -1.56   13.48
   2  -5  -8   -1.22   10.54
  -2   5   8   27.39   14.13
   1  -5  -8    6.89   10.71
  -1   5   8    7.38   12.08
   5  -6  -8   25.52   13.67
  -5   6   8   33.29   17.74
  -5   6   8   14.53   11.79
   4  -6  -8  114.68   21.03
   4  -6  -8   40.94   14.75
  -4   6   8   67.85   20.13
   3  -6  -8   14.21   12.23
  -3   6   8   38.89   17.47
   2  -6  -8   -6.94   10.25
   1   7  -9   13.50   10.53
  -1  -7   9    4.33   17.03
   0   7  -9   32.65   12.77
   0  -7   9   13.04   16.28
  -1   7  -9   20.81   13.90
   1  -7   9   24.67   15.00
  -2   7  -9   56.71   17.34
   2  -7   9   41.65   16.53
   3  -7   9   -0.04   13.09
   3   6  -9    8.35   11.68
   2   6  -9   -1.34   10.56
  -2  -6   9   -5.34   15.71
   1   6  -9   -4.69    9.47
  -1  -6   9   25.09   18.37
   0   6  -9   12.25    9.71
   0   6  -9   -0.02   12.08
   0  -6   9   27.06   14.76
   1  -6   9  143.08   23.21
  -2   6  -9    7.33   12.96
   2  -6   9   12.46   12.88
  -3   6  -9   19.25   13.95
   3  -6   9   24.33   14.47
   3  -6   9    9.26   13.01
   4  -6   9   -7.19   12.69
   4  -6   9   14.20   13.01
   4   5  -9    3.57   11.18
   4   5  -9    9.18   11.89
  -4  -5   9   17.12   18.17
   3   5  -9   17.22   12.86
   3   5  -9   19.38   11.63
  -3  -5   9   10.07   19.01
   2   5  -9   11.91   10.03
  -2  -5   9  -14.90   13.11
   1   5  -9    6.73   11.65
   1   5  -9    8.73    9.68
  -1  -5   9    4.90   15.17
   0   5  -9   13.66   12.24
   0   5  -9   17.34   10.27
   0  -5   9   12.32   12.88
  -1   5  -9   -8.88   10.37
   1  -5   9   -1.99   10.45
  -2   5  -9   13.46   13.61
   2  -5   9   10.77   12.51
   2  -5   9   16.23   12.52
  -3   5  -9   43.76   16.76
   3  -5   9   47.20   15.32
   3  -5   9   78.47   17.97
  -4   5  -9   18.28   14.76
  -4   5  -9   25.73   23.52
   4  -5   9   23.29   17.46
   4  -5   9   11.61   12.40
   5   4  -9    8.39   12.09
   5   4  -9   22.50   11.79
  -5  -4   9   15.26   13.53
  -5  -4   9    8.26   17.97
   4   4  -9  -11.94    8.73
   4   4  -9   10.23   10.33
  -4  -4   9   -0.90   12.36
  -4  -4   9   15.58   18.17
   3   4  -9    0.63   10.09
   3   4  -9   13.16   11.66
  -3  -4   9    1.21   13.95
  -3  -4   9  -14.98   14.64
   2   4  -9   59.45   14.86
   2   4  -9   82.71   15.37
  -2  -4   9   25.45   15.27
   1   4  -9    4.55    8.53
   1   4  -9    7.58   11.21
  -1  -4   9   16.70   13.10
   0   4  -9    4.06   12.06
   0  -4   9  -11.39    8.84
  -1   4  -9   21.40   13.02
   1  -4   9   43.37   13.80
  -2   4  -9   39.78   15.09
   2  -4   9   61.54   15.62
   2  -4   9   55.75   14.84
  -3   4  -9   20.36   13.80
   3  -4   9   33.25   13.93
   3  -4   9   33.86   13.66
  -4   4  -9    1.90   14.05
  -4   4  -9   21.41   13.71
   4  -4   9   38.60   15.10
   4  -4   9   43.36   15.32
  -6  -3   9   16.46   17.70
   5   3  -9   30.55   12.93
   5   3  -9   18.06   11.40
  -5  -3   9   22.03   14.96
  -5  -3   9   -4.80   15.14
   4   3  -9    3.41    9.65
   4   3  -9   22.14   10.96
  -4  -3   9    9.45   12.46
  -4  -3   9   -6.05   14.41
   3   3  -9   27.34   11.43
   3   3  -9   52.33   13.60
   3   3  -9   52.57   13.45
  -3  -3   9   23.48   12.53
  -3  -3   9   35.62   15.11
   2   3  -9   33.13   11.21
   2   3  -9   43.59   13.31
   2   3  -9   28.35   11.69
  -2  -3   9   16.51   12.18
  -2  -3   9   27.98   14.46
   1   3  -9   -2.16   10.00
   1   3  -9    5.47    8.25
  -1  -3   9   20.42   11.86
   0   3  -9  102.41   18.56
   0  -3   9   72.55   15.84
  -1   3  -9   19.56   12.61
   1  -3   9   -6.54    9.13
  -2   3  -9   28.70   13.90
   2  -3   9   29.91   13.14
   2  -3   9   27.07   11.97
  -3   3  -9    6.89   13.29
   3  -3   9  -13.64    9.27
   3  -3   9   13.98   12.45
  -4   3  -9   -0.55   14.10
  -4   3  -9   14.25   13.08
   4  -3   9   16.91   13.24
   4  -3   9   -3.78   11.68
   6   2  -9   -3.39    9.17
   6   2  -9   -9.95    9.04
  -6  -2   9   -8.21   14.68
  -6  -2   9    0.00   13.23
   5   2  -9   -5.29    8.70
   5   2  -9   18.55   11.96
  -5  -2   9   -5.35   13.46
  -5  -2   9    3.50   13.48
   4   2  -9    9.95    9.41
   4   2  -9   -2.30    8.69
   4   2  -9    5.96   10.12
  -4  -2   9  -14.91   11.47
  -4  -2   9   -4.29   11.08
   3   2  -9   25.39   11.84
   3   2  -9    8.19    9.28
   3   2  -9   13.42   10.80
  -3  -2   9   18.67   12.00
  -3  -2   9   10.16   11.84
   2   2  -9    6.60   10.12
   2   2  -9   16.48   10.79
   2   2  -9   19.39   10.57
  -2  -2   9   12.96   12.40
  -2  -2   9   24.63   11.92
   1   2  -9    1.76   10.10
   1   2  -9    7.01    9.79
  -1  -2   9  -12.53    8.12
  -1  -2   9   -0.44    9.43
   0   2  -9   14.97   12.61
   0  -2   9   20.39   10.47
  -1   2  -9   -5.75   10.37
   1  -2   9    0.13    8.24
  -2   2  -9   16.82   12.16
   2  -2   9   56.58   14.92
   2  -2   9    7.51   11.43
  -3   2  -9   20.00   13.29
  -3   2  -9   37.04   14.07
   3  -2   9   30.74   14.11
   3  -2   9   26.01   13.57
  -4   2  -9   16.08   13.97
  -4   2  -9   -3.40   11.66
   4  -2   9   -1.95   12.27
   4  -2   9    5.67   12.27
   6   1  -9   20.91   10.34
   6   1  -9   -7.16    9.73
  -6  -1   9    9.12   14.76
  -6  -1   9   23.87   15.61
   5   1  -9   -1.60    8.54
   5   1  -9   12.54   10.55
  -5  -1   9   -5.57   12.46
  -5  -1   9  -21.74   12.64
   4   1  -9   -2.71    9.06
   4   1  -9    0.76    9.29
   4   1  -9    6.60    9.22
  -4  -1   9    3.64   11.64
  -4  -1   9    8.27   13.32
   3   1  -9  -11.53    7.34
   3   1  -9    8.06    9.39
   3   1  -9   19.99   11.27
  -3  -1   9   -2.45   12.01
  -3  -1   9    1.94   11.13
   2   1  -9  101.66   17.89
   2   1  -9  158.87   17.37
   2   1  -9  150.25   19.69
  -2  -1   9  118.29   18.45
  -2  -1   9  103.89   17.09
   1   1  -9  -12.79    8.60
  -1  -1   9   10.50    9.67
  -1  -1   9   15.80   11.04
   0   1  -9    3.83   10.66
   0  -1   9    6.54    9.21
   0  -1   9   -0.68    8.91
  -1   1  -9    4.91   10.13
   1  -1   9   31.46   11.07
   1  -1   9   -1.88    9.63
  -2   1  -9   -5.14   10.71
   2  -1   9   -1.42   10.25
   2  -1   9   -2.95   11.56
  -3   1  -9   -1.05   12.72
  -3   1  -9   11.31   12.68
   3  -1   9   -9.55   10.88
   3  -1   9   25.47   14.63
  -4   1  -9   25.01   16.20
  -4   1  -9   -0.58   12.49
   4  -1   9   17.69   13.05
   6   0  -9   -6.75    9.22
   6   0  -9   -4.63    7.98
  -6   0   9  -16.72   11.60
   5   0  -9   -1.91    9.10
   5   0  -9  -10.60    8.84
   5   0  -9   13.66    9.59
  -5   0   9   13.80   15.30
   4   0  -9   -4.98    9.30
   4   0  -9   10.62    9.20
   4   0  -9    8.52    9.24
  -4   0   9   14.39   14.08
   3   0  -9   12.63   10.67
   3   0  -9   12.37    9.04
   3   0  -9    0.40    8.68
  -3   0   9   -1.29    9.07
  -3   0   9   -2.17   10.89
   2   0  -9    0.90    9.97
   2   0  -9    4.42   10.22
   2   0  -9   16.34    8.98
  -2   0   9   11.06    9.83
  -2   0   9  -10.55    9.18
   1   0  -9  264.67   27.02
  -1   0   9  338.20   25.06
  -1   0   9  335.65   26.65
   0   0  -9    0.52    9.77
   0   0   9   -5.40    7.93
   0   0   9   -0.78    9.02
  -1   0  -9   42.01   13.53
   1   0   9   28.20   12.75
   1   0   9   26.86   11.66
  -2   0  -9    7.04   11.38
   2   0   9   -1.81   10.79
   2   0   9   -3.90    9.80
   2   0   9   23.55   18.97
  -3   0  -9   14.81   16.10
  -3   0  -9   30.51   14.03
   3   0   9   14.79   13.84
   3   0   9   -8.06   11.99
   6  -1  -9    1.58    8.71
   6  -1  -9    1.35   10.40
   6  -1  -9   31.05   12.11
  -6   1   9   21.94   17.39
   5  -1  -9   10.84    9.31
   5  -1  -9    4.02    9.98
   5  -1  -9    0.87   10.11
  -5   1   9   -6.95   12.20
   4  -1  -9    4.41    8.91
   4  -1  -9   26.14   11.17
   4  -1  -9  -12.15    7.95
  -4   1   9    5.07   12.09
   3  -1  -9    1.68    8.52
   3  -1  -9    8.16    9.78
   3  -1  -9   19.23   10.58
  -3   1   9    5.32   11.10
   2  -1  -9   61.05   15.42
   2  -1  -9   85.55   16.46
  -2   1   9   53.76   15.51
   1  -1  -9    6.16    9.32
  -1   1   9    2.53   10.56
   0  -1  -9    5.17   10.41
   0   1   9   -0.61    9.19
   0   1   9   -0.72    9.48
  -1  -1  -9   44.89   13.50
   1   1   9   78.54   16.85
   1   1   9   69.61   16.38
  -2  -1  -9   38.19   14.10
   2   1   9   36.22   15.12
   2   1   9   16.04   12.04
  -3  -1  -9    3.24   14.97
  -3  -1  -9   17.31   13.37
   3   1   9   10.88   12.49
   7  -2  -9    8.35   12.91
   6  -2  -9   42.45   15.00
   6  -2  -9   66.70   16.54
   6  -2  -9   55.07   11.99
  -6   2   9   32.67   18.42
   5  -2  -9   22.40   12.05
   5  -2  -9    7.61   10.05
   5  -2  -9    1.88    8.74
  -5   2   9   -4.37   11.76
   4  -2  -9    7.94   10.67
   4  -2  -9    0.37    8.60
   4  -2  -9   19.26   10.85
  -4   2   9   36.50   15.72
   3  -2  -9   10.89   10.49
   3  -2  -9   -6.70    8.70
   3  -2  -9   -5.23    9.77
  -3   2   9   -4.48   11.77
   2  -2  -9   13.76   10.04
  -2   2   9   13.33   12.62
   1  -2  -9   -5.73    8.68
  -1   2   9    3.97   10.28
   0  -2  -9  145.25   21.43
   0   2   9  146.74   21.19
  -1  -2  -9   -0.82   10.41
   1   2   9    4.82   11.00
  -2  -2  -9   -0.49   12.05
   2   2   9    0.69   11.44
   6  -3  -9   -4.67   10.43
   6  -3  -9   -7.75   10.32
   6  -3  -9   13.65    9.68
  -6   3   9   11.28   15.26
   5  -3  -9   22.81   11.88
   5  -3  -9   31.21   11.78
   5  -3  -9   22.34   12.17
  -5   3   9   17.42   16.25
   4  -3  -9    9.95   10.40
   4  -3  -9    6.29   10.09
   4  -3  -9    1.43    9.91
  -4   3   9    1.13   13.14
   3  -3  -9   -6.52    8.16
   3  -3  -9    1.80    9.38
  -3   3   9   -0.60   13.29
   2  -3  -9    5.58   10.16
  -2   3   9   21.98   14.48
   1  -3  -9   16.48   11.60
  -1   3   9   17.52   12.36
   0  -3  -9    8.36   11.36
   0   3   9   25.44   14.21
  -1  -3  -9    5.68   11.48
   1   3   9   23.99   15.17
   5  -4  -9   -5.74    8.43
   5  -4  -9   -1.57   10.13
  -5   4   9   23.88   15.62
  -5   4   9   -0.42   10.25
   4  -4  -9   26.68   12.45
   4  -4  -9   19.32   11.32
  -4   4   9   25.94   16.73
  -4   4   9   20.06   14.19
   3  -4  -9   27.76   13.06
   3  -4  -9   12.39   10.43
  -3   4   9   11.46   13.84
   2  -4  -9    4.58    9.94
  -2   4   9    1.04   12.41
   1  -4  -9   10.25   11.58
  -1   4   9    9.42   12.77
   0  -4  -9   24.08   13.19
   4  -5  -9  -11.84    8.91
   2   6 -10   -9.41   10.71
   1   6 -10   -4.10   10.45
   0   6 -10    4.17   14.03
   0  -6  10    9.40   15.60
  -1   6 -10    9.20   14.91
   3   5 -10   19.59   13.02
   2   5 -10   -1.23   10.38
  -2  -5  10  -23.26   14.05
   1   5 -10    4.23   10.32
   1   5 -10   33.35   15.18
  -1  -5  10    3.96   14.48
   0   5 -10   21.07   14.84
   0  -5  10   10.54   13.88
  -1   5 -10  -28.90   10.44
   1  -5  10   -5.46   11.43
  -2   5 -10    1.84   13.90
   2  -5  10   12.30   13.14
   4   4 -10   15.40   12.25
   4   4 -10   16.42   13.02
  -4  -4  10  -11.26   15.61
   3   4 -10  -13.66    9.55
  -3  -4  10   -8.03   14.47
   2   4 -10    8.13   10.76
   2   4 -10    8.06   12.15
  -2  -4  10   11.09   15.33
   1   4 -10  -18.84   10.24
  -1  -4  10    2.91   12.37
   0   4 -10   -9.38   12.45
   0  -4  10    3.82   11.87
  -1   4 -10   16.74   14.78
   1  -4  10  -13.77   10.13
  -2   4 -10    8.34   14.41
   2  -4  10   16.43   12.98
   3  -4  10   16.53   13.80
   5   3 -10  -10.39    8.97
  -5  -3  10   -0.41   13.05
  -5  -3  10   -9.96   15.69
   4   3 -10    1.42   11.22
   4   3 -10    9.42   11.42
  -4  -3  10    7.17   14.25
  -4  -3  10    7.51   15.39
   3   3 -10   -1.62    9.85
   3   3 -10   16.75   12.84
   3   3 -10    9.45   12.75
  -3  -3  10    7.59   14.01
  -3  -3  10    6.75   14.39
   2   3 -10   -0.02    9.62
   2   3 -10   -1.55   10.45
  -2  -3  10    5.87   12.69
   1   3 -10   26.00   13.91
  -1  -3  10   22.17   13.80
   0   3 -10   18.41   13.83
   0  -3  10    6.20   11.80
  -1   3 -10    3.95   12.62
   1  -3  10   12.14   11.96
  -2   3 -10   22.46   15.33
   2  -3  10    3.60   10.98
   3  -3  10   19.84   14.72
   5   2 -10   26.88   13.17
   5   2 -10   36.43   14.18
  -5  -2  10   18.80   14.95
  -5  -2  10   -3.95   15.62
   4   2 -10   12.78   12.10
   4   2 -10    9.70   11.90
   4   2 -10    6.75   11.55
  -4  -2  10  -19.29   13.90
  -4  -2  10    9.49   15.22
   3   2 -10    0.94    9.77
   3   2 -10    9.38   10.67
   3   2 -10    8.55   12.80
  -3  -2  10   -4.23   11.59
  -3  -2  10  -23.69   10.26
   2   2 -10   20.91   13.04
   2   2 -10   11.38   12.36
  -2  -2  10   23.13   12.88
  -2  -2  10   -1.30   10.50
   1   2 -10    0.51   11.69
  -1  -2  10    2.04   11.01
   0   2 -10   17.26   13.84
   0  -2  10    4.63   10.88
  -1   2 -10   13.74   14.00
   1  -2  10   14.07   12.07
  -2   2 -10    8.95   13.63
   2  -2  10   14.17   13.51
   3  -2  10   -6.87   12.94
   5   1 -10   16.42   11.55
   5   1 -10    3.06   10.25
  -5  -1  10    0.74   15.40
   4   1 -10   34.38   13.96
   4   1 -10   19.60   11.30
   4   1 -10   15.53   11.66
  -4  -1  10   -6.74   14.22
  -4  -1  10   11.45   14.88
   3   1 -10    3.29   10.82
   3   1 -10   -5.02   11.26
   3   1 -10    9.52    9.75
  -3  -1  10  -16.72   11.33
  -3  -1  10    3.65   12.37
   2   1 -10   34.89   14.65
  -2  -1  10   30.32   13.34
  -2  -1  10   36.77   14.61
   1   1 -10   86.37   18.22
  -1  -1  10   69.60   16.55
  -1  -1  10   54.23   15.15
   0   1 -10   63.42   16.59
   0  -1  10   35.64   13.71
   0  -1  10   21.01   12.25
  -1   1 -10    3.64   10.70
   1  -1  10    0.15   10.84
  -2   1 -10   13.92   12.14
   2  -1  10   10.80   12.65
   6   0 -10   -8.31   12.57
   5   0 -10    6.92   10.77
   5   0 -10   -1.08    9.74
   5   0 -10   12.87   10.81
  -5   0  10   -2.48   15.32
   4   0 -10   74.54   16.52
   4   0 -10   63.94   15.78
   4   0 -10   78.37   16.68
  -4   0  10   57.14   17.50
   3   0 -10   10.09   11.94
   3   0 -10   -0.69    9.35
   3   0 -10    1.53   10.53
  -3   0  10   20.04   13.35
   2   0 -10    9.56   12.31
  -2   0  10    8.17   12.60
   1   0 -10   54.87   15.71
  -1   0  10   25.11   12.98
  -1   0  10   27.14   11.73
   0   0 -10   15.56   11.72
   0   0  10   -1.22   10.05
   0   0  10    9.26   10.50
  -1   0 -10   -5.36   10.17
   1   0  10   -1.97   11.40
   1   0  10   -2.52   10.06
  -2   0 -10   18.40   13.61
   2   0  10   -7.31   10.89
   6  -1 -10    9.24   11.45
   6  -1 -10   16.71   13.28
   5  -1 -10   16.75   12.61
   5  -1 -10   21.64   13.52
   5  -1 -10  -12.74    9.45
  -5   1  10   -8.62   15.10
   4  -1 -10    9.68   11.39
   4  -1 -10    6.95   10.25
   4  -1 -10    4.46   10.78
  -4   1  10   14.82   15.75
   3  -1 -10    9.32   11.94
   3  -1 -10   11.39   11.35
  -3   1  10   25.17   15.51
   2  -1 -10  109.81   19.66
  -2   1  10   58.47   16.60
   1  -1 -10   17.14   12.75
  -1   1  10    3.26    9.87
   0  -1 -10   12.31   12.03
   0   1  10   14.68   11.67
  -1  -1 -10   12.62   12.95
   1   1  10   18.11   12.27
   5  -2 -10   11.09   11.88
   5  -2 -10   -1.60    9.21
   5  -2 -10  -11.48   10.01
  -5   2  10  -11.88   15.07
   4  -2 -10   73.52   16.33
   4  -2 -10   45.79   15.17
   4  -2 -10   65.52   15.94
  -4   2  10   78.09   20.48
   3  -2 -10   11.13   11.99
   3  -2 -10    1.10   11.03
  -3   2  10   25.79   14.71
   2  -2 -10   -9.30    9.18
  -2   2  10    1.95   12.01
   1  -2 -10   -2.72   10.14
  -1   2  10   -5.76    9.67
   0  -2 -10  -11.14   10.39
   0   2  10  -14.19   10.92
   5  -3 -10   10.14   11.34
   5  -3 -10   -9.46    9.18
   4  -3 -10   21.62   12.07
   4  -3 -10   -0.31   12.75
  -4   3  10   -9.74   15.52
   3  -3 -10    5.86   10.43
  -3   3  10   21.23   17.50
   2  -3 -10    5.39   11.35
  -2   3  10   10.54   14.06
   2   4 -11   -7.44   12.17
  -2  -4  11   11.40   24.61
   1   4 -11   30.52   15.31
  -1  -4  11  -18.29   10.84
   0   4 -11   -4.32   14.68
   0  -4  11  -14.26   13.49
   3   3 -11   -4.85   12.65
   3   3 -11   -4.43   10.54
  -3  -3  11  -35.33   11.79
   2   3 -11   13.47   13.81
  -2  -3  11   -2.59   12.14
   1   3 -11   -1.53   12.05
  -1  -3  11    4.79   11.51
   0   3 -11    3.68   13.09
   0  -3  11    3.54   12.53
   4   2 -11   -0.92   10.94
   4   2 -11   -0.16   10.74
  -4  -2  11    3.22   15.52
  -4  -2  11  -12.61   14.90
   3   2 -11   37.16   16.46
  -3  -2  11   15.06   14.60
  -3  -2  11    1.95   13.21
   2   2 -11   31.76   15.36
  -2  -2  11  -11.26   10.90
   1   2 -11   -2.75   11.85
  -1  -2  11    8.94   13.05
   0   2 -11   -2.45   12.43
   0  -2  11  -20.12    9.27
   1  -2  11   12.32   13.57
   4   1 -11   25.61   12.47
   4   1 -11    1.72   11.27
   4   1 -11   21.25   13.52
  -4  -1  11  -11.88   13.09
   3   1 -11    4.62   13.48
  -3  -1  11    0.15   14.62
   2   1 -11  150.03   24.40
  -2  -1  11  119.30   21.79
  -2  -1  11  136.18   22.45
   1   1 -11    3.23   12.96
  -1  -1  11   -7.83   10.51
   0  -1  11   46.96   15.73
   4   0 -11   14.04   13.45
   4   0 -11  -12.79   10.10
  -4   0  11    6.85   14.72
   3   0 -11   26.57   13.88
  -3   0  11    1.82   15.19
   2   0 -11   -7.10   12.09
  -2   0  11    1.44   12.82
   1   0 -11    3.62   16.90
  -1   0  11   18.34   12.27
   4  -1 -11    1.47   11.11
  -3   1  11  -14.50   12.95
  -2   1  11   25.63   14.85
  -1   1  11   75.38   18.95
   0   0   0    0.00    0.00


 _exptl_absorpt_process_details
)
 SADABS 2016/2: Krause, L., Herbst-Irmer, R., Sheldrick G.M. & Stalke D.,
 J. Appl. Cryst. 48 (2015) 3-10
)
 _exptl_absorpt_correction_type   multi-scan
 _exptl_absorpt_correction_T_max  0.7461
 _exptl_absorpt_correction_T_min  0.6041
 _exptl_special_details
)
 The following wavelength and cell were deduced by SADABS from the
 direction cosines etc. They are given here for emergency use only:
 CELL 0.71095    6.766    7.395    8.065   99.001  100.242  109.885
)

_computing_structure_solution     'SHELXT 2014/5 (Sheldrick, 2014)'
;
_shelx_hkl_checksum              66070
_olex2_date_sample_completion    2016-11-16
_olex2_date_sample_data_collection 2016-11-16
_olex2_date_sample_submission    2016-11-16
_olex2_submission_original_sample_id IM04
_olex2_submission_special_instructions 'No special instructions were received'
loop_
_space_group_symop_operation_xyz
'x, y, z'
'-x, -y, -z'
loop_
_atom_site_label
_atom_site_type_symbol
_atom_site_fract_x
_atom_site_fract_y
_atom_site_fract_z
_atom_site_U_iso_or_equiv
_atom_site_adp_type
_atom_site_occupancy
_atom_site_site_symmetry_order
_atom_site_calc_flag
C1 C 0.4294(3) 0.6054(3) 0.7565(3) 0.0176(5) Uani 1 1 d
C2 C 0.1778(4) 0.9169(3) 0.3020(3) 0.0164(5) Uani 1 1 d
H4A H 0.068(5) 1.112(5) 0.344(4) 0.044(9) Uiso 1 1 d
H4B H -0.074(5) 0.953(4) 0.192(4) 0.042(9) Uiso 1 1 d
H2 H 0.311(4) 0.986(3) 0.395(3) 0.021(6) Uiso 1 1 d
H5A H 0.241(5) 0.694(4) 0.228(4) 0.038(8) Uiso 1 1 d
H5B H 0.037(5) 0.679(4) 0.112(4) 0.045(9) Uiso 1 1 d
N1 N 0.6042(3) 0.6736(3) 0.8976(2) 0.0170(4) Uani 1 1 d
N2 N 0.2924(3) 0.7218(3) 0.7480(2) 0.0158(4) Uani 1 1 d
N3 N 0.3537(3) 0.4291(3) 0.6361(2) 0.0170(4) Uani 1 1 d
N4 N 0.0433(3) 1.0077(3) 0.2804(3) 0.0207(4) Uani 1 1 d
N5 N 0.1496(3) 0.7484(3) 0.2050(3) 0.0205(5) Uani 1 1 d
O1 O 0.7191(2) 0.5750(2) 0.9272(2) 0.0210(4) Uani 1 1 d
O2 O 0.6406(3) 0.8383(2) 0.9937(2) 0.0221(4) Uani 1 1 d
O3 O 0.1494(2) 0.6851(2) 0.8245(2) 0.0224(4) Uani 1 1 d
O4 O 0.3305(3) 0.8487(2) 0.6639(2) 0.0239(4) Uani 1 1 d
O5 O 0.1792(2) 0.3930(2) 0.5261(2) 0.0228(4) Uani 1 1 d
O6 O 0.4517(2) 0.3141(2) 0.6329(2) 0.0234(4) Uani 1 1 d
loop_
_atom_site_aniso_label
_atom_site_aniso_U_11
_atom_site_aniso_U_22
_atom_site_aniso_U_33
_atom_site_aniso_U_23
_atom_site_aniso_U_13
_atom_site_aniso_U_12
C1 0.0178(10) 0.0171(11) 0.0164(11) -0.0008(9) -0.0028(9) 0.0102(9)
C2 0.0158(10) 0.0180(12) 0.0147(11) 0.0043(9) 0.0027(9) 0.0060(9)
N1 0.0148(9) 0.0173(10) 0.0172(10) 0.0012(8) -0.0002(7) 0.0073(8)
N2 0.0154(9) 0.0164(10) 0.0140(9) -0.0005(8) -0.0014(7) 0.0082(8)
N3 0.0136(9) 0.0186(10) 0.0160(10) 0.0007(8) -0.0001(7) 0.0064(8)
N4 0.0206(10) 0.0189(11) 0.0198(11) -0.0034(9) -0.0025(8) 0.0114(9)
N5 0.0199(10) 0.0189(11) 0.0217(11) -0.0014(9) -0.0009(8) 0.0118(9)
O1 0.0175(8) 0.0206(9) 0.0242(9) 0.0010(7) -0.0029(6) 0.0121(7)
O2 0.0233(8) 0.0166(9) 0.0199(9) -0.0058(7) -0.0049(7) 0.0092(7)
O3 0.0201(8) 0.0265(9) 0.0230(9) 0.0041(7) 0.0055(7) 0.0123(7)
O4 0.0255(9) 0.0228(9) 0.0273(10) 0.0108(8) 0.0041(7) 0.0132(7)
O5 0.0188(8) 0.0226(9) 0.0202(9) -0.0037(7) -0.0075(7) 0.0097(7)
O6 0.0219(8) 0.0188(9) 0.0267(9) -0.0045(7) -0.0028(7) 0.0131(7)
loop_
_atom_type_symbol
_atom_type_description
_atom_type_scat_dispersion_real
_atom_type_scat_dispersion_imag
_atom_type_scat_source
C C 0.0033 0.0016 'International Tables Vol C Tables 4.2.6.8 and 6.1.1.4'
H H 0.0000 0.0000 'International Tables Vol C Tables 4.2.6.8 and 6.1.1.4'
N N 0.0061 0.0033 'International Tables Vol C Tables 4.2.6.8 and 6.1.1.4'
O O 0.0106 0.0060 'International Tables Vol C Tables 4.2.6.8 and 6.1.1.4'
loop_
_geom_angle_atom_site_label_1
_geom_angle_atom_site_label_2
_geom_angle_atom_site_label_3
_geom_angle
N1 C1 N2 115.84(18)
N3 C1 N1 127.23(18)
N3 C1 N2 116.35(18)
N4 C2 H2 116.6(14)
N5 C2 H2 119.1(14)
N5 C2 N4 124.3(2)
O1 N1 C1 121.15(18)
O1 N1 O2 122.58(18)
O2 N1 C1 116.27(17)
O3 N2 C1 117.66(19)
O3 N2 O4 124.96(18)
O4 N2 C1 117.37(18)
O5 N3 C1 115.22(17)
O6 N3 C1 122.55(18)
O6 N3 O5 122.22(18)
C2 N4 H4A 121(2)
C2 N4 H4B 118.8(18)
H4A N4 H4B 121(3)
C2 N5 H5A 120(2)
C2 N5 H5B 124.7(18)
H5A N5 H5B 115(3)
loop_
_geom_bond_atom_site_label_1
_geom_bond_atom_site_label_2
_geom_bond_distance
C1 N1 1.370(3)
C1 N2 1.462(3)
C1 N3 1.367(3)
C2 H2 0.98(2)
C2 N4 1.304(3)
C2 N5 1.294(3)
N1 O1 1.250(2)
N1 O2 1.253(2)
N2 O3 1.215(2)
N2 O4 1.224(2)
N3 O5 1.260(2)
N3 O6 1.241(2)
N4 H4A 0.80(3)
N4 H4B 0.89(3)
N5 H5A 0.86(3)
N5 H5B 0.90(3)
loop_
_geom_torsion_atom_site_label_1
_geom_torsion_atom_site_label_2
_geom_torsion_atom_site_label_3
_geom_torsion_atom_site_label_4
_geom_torsion
N1 C1 N2 O3 -85.7(3)
N1 C1 N2 O4 94.4(2)
N1 C1 N3 O5 174.4(2)
N1 C1 N3 O6 -6.9(4)
N2 C1 N1 O1 172.66(19)
N2 C1 N1 O2 -7.2(3)
N2 C1 N3 O5 3.5(3)
N2 C1 N3 O6 -177.78(19)
N3 C1 N1 O1 1.7(3)
N3 C1 N1 O2 -178.2(2)
N3 C1 N2 O3 86.2(3)
N3 C1 N2 O4 -93.7(2)
