#------------------------------------------------------------------------------
#$Date: 2019-11-26 12:43:38 +0200 (Tue, 26 Nov 2019) $
#$Revision: 243384 $
#$URL: file:///home/coder/svn-repositories/cod/cif/4/13/36/4133645.cif $
#------------------------------------------------------------------------------
#
# This file is available in the Crystallography Open Database (COD),
# http://www.crystallography.net/
#
# All data on this site have been placed in the public domain by the
# contributors.
#
data_4133645
loop_
_publ_author_name
'Bingham, Tanner W.'
'Hernandez, Lucas W.'
'Olson, Daniel G.'
'Svec, Riley L.'
'Hergenrother, Paul J.'
'Sarlah, David'
_publ_section_title
;
 Enantioselective Synthesis of Isocarbostyril Alkaloids and Analogs Using
 Catalytic Dearomative Functionalization of Benzene.
;
_journal_issue                   1
_journal_name_full               'Journal of the American Chemical Society'
_journal_page_first              657
_journal_page_last               670
_journal_paper_doi               10.1021/jacs.8b12123
_journal_volume                  141
_journal_year                    2019
_chemical_absolute_configuration ad
_chemical_formula_moiety         'C14 H13 N O6, H2 O'
_chemical_formula_sum            'C14 H15 N O7'
_chemical_formula_weight         309.27
_chemical_name_systematic        (+)-lycoricidine
_space_group_crystal_system      triclinic
_space_group_IT_number           1
_space_group_name_Hall           'P 1'
_space_group_name_H-M_alt        'P 1'
_atom_sites_solution_hydrogens   mixed
_atom_sites_solution_primary     dual
_audit_creation_date             2018-05-30
_audit_creation_method
;
Olex2 1.2
(compiled 2017.03.28 svn.r3405 for OlexSys, GUI svn.r5335)
;
_cell_angle_alpha                67.5140(10)
_cell_angle_beta                 89.8880(10)
_cell_angle_gamma                75.5250(10)
_cell_formula_units_Z            2
_cell_length_a                   7.2381(3)
_cell_length_b                   9.3207(4)
_cell_length_c                   11.0024(4)
_cell_measurement_reflns_used    18364
_cell_measurement_temperature    100(2)
_cell_measurement_theta_max      68.15
_cell_measurement_theta_min      4.37
_cell_volume                     660.42(5)
_computing_cell_refinement       'SAINT v8.37A (Bruker, 2015)'
_computing_data_reduction        'SAINT v8.37A (Bruker, 2015)'
_computing_molecular_graphics    'Olex2 (Dolomanov et al., 2009)'
_computing_publication_material  'Olex2 (Dolomanov et al., 2009)'
_computing_structure_refinement  'XL (Sheldrick, 2008)'
_computing_structure_solution    'XT (Sheldrick, 2015)'
_diffrn_ambient_temperature      100.01
_diffrn_detector                 'Bruker Photon 100 area detector'
_diffrn_detector_type            'photon counter area detector'
_diffrn_measured_fraction_theta_full 0.999
_diffrn_measured_fraction_theta_max 0.999
_diffrn_measurement_device       'kappa diffractometer'
_diffrn_measurement_device_type  'Bruker D8 Venture/Photon 100'
_diffrn_measurement_method       '\f and \w scans'
_diffrn_radiation_monochromator  'multilayer mirrors'
_diffrn_radiation_probe          x-ray
_diffrn_radiation_type           CuK\a
_diffrn_radiation_wavelength     1.54178
_diffrn_reflns_av_R_equivalents  0.0293
_diffrn_reflns_av_unetI/netI     0.0261
_diffrn_reflns_Laue_measured_fraction_full 0.999
_diffrn_reflns_Laue_measured_fraction_max 0.999
_diffrn_reflns_limit_h_max       8
_diffrn_reflns_limit_h_min       -8
_diffrn_reflns_limit_k_max       11
_diffrn_reflns_limit_k_min       -11
_diffrn_reflns_limit_l_max       13
_diffrn_reflns_limit_l_min       -13
_diffrn_reflns_number            18788
_diffrn_reflns_point_group_measured_fraction_full 0.968
_diffrn_reflns_point_group_measured_fraction_max 0.968
_diffrn_reflns_theta_full        67.679
_diffrn_reflns_theta_max         68.230
_diffrn_reflns_theta_min         4.373
_diffrn_source                   'microfocus sealed X-ray tube'
_diffrn_source_target            Cu
_diffrn_source_type              'Incoatec I\ms'
_diffrn_standards_number         0
_exptl_absorpt_coefficient_mu    1.081
_exptl_absorpt_correction_T_max  0.7531
_exptl_absorpt_correction_T_min  0.6327
_exptl_absorpt_correction_type   multi-scan
_exptl_absorpt_process_details
'SADABS-2016/2 (Bruker,2016/2) was used for absorption correction. wR2(int) was 0.0851 before and 0.0468 after correction. The Ratio of minimum to maximum transmission is 0.8401. The \l/2 correction factor is Not present.'
_exptl_crystal_colour            colourless
_exptl_crystal_colour_primary    colourless
_exptl_crystal_density_diffrn    1.555
_exptl_crystal_description       plate
_exptl_crystal_F_000             324
_exptl_crystal_recrystallization_method
'Recrystalization was done with enantiopure material (>99% ee) using methanol/water co-solvent at rt.'
_exptl_crystal_size_max          0.333
_exptl_crystal_size_mid          0.317
_exptl_crystal_size_min          0.15
_refine_diff_density_max         0.258
_refine_diff_density_min         -0.281
_refine_diff_density_rms         0.090
_refine_ls_abs_structure_details
;
 Flack x determined using 2213 quotients [(I+)-(I-)]/[(I+)+(I-)]
 (Parsons, Flack and Wagner, Acta Cryst. B69 (2013) 249-259).
;
_refine_ls_abs_structure_Flack   -0.07(8)
_refine_ls_extinction_coef       0.062(3)
_refine_ls_extinction_expression Fc^*^=kFc[1+0.001xFc^2^\l^3^/sin(2\q)]^-1/4^
_refine_ls_extinction_method     'SHELXL-2014/7 (Sheldrick 2014'
_refine_ls_goodness_of_fit_ref   1.072
_refine_ls_hydrogen_treatment    mixed
_refine_ls_matrix_type           full
_refine_ls_number_parameters     437
_refine_ls_number_reflns         4675
_refine_ls_number_restraints     3
_refine_ls_restrained_S_all      1.072
_refine_ls_R_factor_all          0.0306
_refine_ls_R_factor_gt           0.0304
_refine_ls_shift/su_max          0.000
_refine_ls_shift/su_mean         0.000
_refine_ls_structure_factor_coef Fsqd
_refine_ls_weighting_details
'w=1/[\s^2^(Fo^2^)+(0.0497P)^2^+0.1780P] where P=(Fo^2^+2Fc^2^)/3'
_refine_ls_weighting_scheme      calc
_refine_ls_wR_factor_gt          0.0778
_refine_ls_wR_factor_ref         0.0780
_reflns_Friedel_coverage         0.937
_reflns_Friedel_fraction_full    0.937
_reflns_Friedel_fraction_max     0.936
_reflns_number_gt                4632
_reflns_number_total             4675
_reflns_threshold_expression     'I > 2\s(I)'
_cod_data_source_file            ja8b12123_si_002.cif
_cod_data_source_block           cu_dd85l_0m
_cod_database_code               4133645
_shelx_shelxl_version_number     2014/7
_shelx_space_group_comment
;
The symmetry employed for this shelxl refinement is uniquely defined
by the following loop, which should always be used as a source of
symmetry information in preference to the above space-group names.
They are only intended as comments.
;
_shelx_estimated_absorpt_t_max   0.855
_shelx_estimated_absorpt_t_min   0.715
_olex2_refinement_description
;
1. Fixed Uiso
 At 1.2 times of:
  All C(H) groups, All C(H,H) groups
 At 1.5 times of:
  All N(H) groups, All O(H) groups, All O(H,H) groups
2.a Ternary CH refined with riding coordinates:
 C2(H2B), C3(H3A), C4(H4A), C5(H5), C16(H16), C17(H17), C18(H18), C19(H19)
2.b Secondary CH2 refined with riding coordinates:
 C14(H14A,H14B), C28(H28A,H28B)
2.c Aromatic/amide H refined with riding coordinates:
 C1(H1A), C7(H7), C10(H10A), C15(H15), C21(H21), C24(H24)
;
_shelx_res_file
;
    cu_dd85l_0m.res created by SHELXL-2014/7

TITL cu_dd85l_0m_a.res in P1
REM Old TITL cu_dd85l_0m in P1
REM SHELXT solution in P1
REM R1 0.078, Rweak 0.039, Alpha 0.000, Orientation as input
REM Flack x = -0.064 ( 0.085 ) from Parsons' quotients
REM Formula found by SHELXT: H18 N5 O9
CELL 1.54178 7.2381 9.3207 11.0024 67.514 89.888 75.525
ZERR 2 0.0003 0.0004 0.0004 0.001 0.001 0.001
LATT -1
SFAC C H N O
UNIT 28 30 2 14
EQIV $1 1+X,+Y,+Z
EQIV $2 -1+X,+Y,+Z
EQIV $3 +X,-1+Y,1+Z
EQIV $4 +X,-1+Y,+Z
EQIV $5 +X,+Y,1+Z
EQIV $6 +X,+Y,-1+Z

L.S. 10
PLAN  20
SIZE 0.15 0.317 0.333
TEMP -173.14
HTAB O2 O13
HTAB O3 O9_$1
HTAB O4 O8
HTAB O8 O14
HTAB O9 O4_$2
HTAB O9 O11_$3
HTAB O10 O2_$4
HTAB O13 O3_$2
HTAB O13 O7_$5
HTAB O14 O10_$1
HTAB O14 O1_$6
HTAB N1 O6_$4
HTAB N2 O12_$4
BOND $H
HTAB
WPDB -2
CONF
list 4
fmap 2 53
acta
OMIT 6 -1 -7
REM <olex2.extras>
REM <HklSrc "%.\\cu_dd85l_0m.hkl">
REM </olex2.extras>

WGHT    0.049700    0.178000
EXTI    0.061904
FVAR       1.49351
O1    4    0.682886    0.223080    1.098437    11.00000    0.02905    0.01342 =
         0.01251   -0.00429    0.00445   -0.00805
O2    4    0.433923    0.679706    0.457911    11.00000    0.01265    0.01242 =
         0.01290   -0.00296   -0.00042   -0.00169
H2A   2    0.385371    0.626273    0.528689    11.00000   -1.50000
O3    4    0.942138    0.475223    0.506635    11.00000    0.01302    0.01678 =
         0.01715   -0.00854    0.00318   -0.00425
H3    2    0.990550    0.391539    0.492508    11.00000   -1.50000
O4    4    0.805987    0.197161    0.675850    11.00000    0.01477    0.00942 =
         0.01547   -0.00639   -0.00004   -0.00253
H4    2    0.733757    0.162759    0.637360    11.00000   -1.50000
O5    4    0.732716    0.714587    1.189123    11.00000    0.04549    0.01474 =
         0.01250   -0.00806    0.00512   -0.00965
O6    4    0.744625    0.917952    0.987058    11.00000    0.03876    0.01395 =
         0.01350   -0.00771    0.00497   -0.01012
O7    4    0.242185    0.336522   -0.098410    11.00000    0.02691    0.01361 =
         0.01120   -0.00560    0.00063   -0.00703
O8    4    0.576549    0.106045    0.543685    11.00000    0.01353    0.01512 =
         0.01293   -0.00666    0.00006   -0.00129
H8    2    0.631810    0.095956    0.481605    11.00000    0.02285
O9    4    0.058513    0.167369    0.494528    11.00000    0.01471    0.02073 =
         0.01738   -0.00977    0.00670   -0.00543
H9    2    0.034746    0.122787    0.581967    11.00000    0.03125
O10   4    0.170785   -0.029271    0.342820    11.00000    0.01547    0.01018 =
         0.01650   -0.00564    0.00080   -0.00456
H10   2    0.255745   -0.130281    0.379654    11.00000    0.04562
O11   4    0.231306    0.924899   -0.188953    11.00000    0.03768    0.00891 =
         0.01411   -0.00349    0.00221   -0.00830
O12   4    0.255480    0.943561    0.014701    11.00000    0.04155    0.00967 =
         0.01333   -0.00448    0.00362   -0.00965
O13   4    0.230725    0.521230    0.638380    11.00000    0.02075    0.03312 =
         0.01269   -0.00644    0.00193   -0.01498
H     2    0.133845    0.514847    0.599871    11.00000   -1.50000
HA    2    0.231114    0.470815    0.720089    11.00000   -1.50000
O14   4    0.766267    0.033674    0.359478    11.00000    0.01364    0.02237 =
         0.01322   -0.00629    0.00196   -0.00384
HB    2    0.891711    0.013901    0.365030    11.00000   -1.50000
HC    2    0.735041    0.093223    0.281188    11.00000   -1.50000
N1    3    0.741251    0.290844    0.886311    11.00000    0.02170    0.01061 =
         0.01107   -0.00404    0.00301   -0.00608
H1    2    0.746723    0.189379    0.893109    11.00000   -1.50000
N2    3    0.218232    0.231466    0.120013    11.00000    0.02076    0.01069 =
         0.01170   -0.00578    0.00159   -0.00689
H2    2    0.203234    0.143199    0.112447    11.00000   -1.50000
C1    1    0.654592    0.685627    0.619922    11.00000    0.01286    0.00935 =
         0.01338   -0.00541    0.00363   -0.00323
AFIX  43
H1A   2    0.618544    0.794849    0.610614    11.00000   -1.20000
AFIX   0
C2    1    0.634113    0.652239    0.497843    11.00000    0.01159    0.01168 =
         0.01048   -0.00385    0.00176   -0.00248
AFIX  13
H2B   2    0.686818    0.729252    0.424893    11.00000   -1.20000
AFIX   0
C3    1    0.743867    0.480712    0.516888    11.00000    0.01066    0.01336 =
         0.01226   -0.00768    0.00141   -0.00293
AFIX  13
H3A   2    0.694774    0.454023    0.445489    11.00000   -1.20000
AFIX   0
C4    1    0.712762    0.362006    0.651095    11.00000    0.01174    0.01021 =
         0.01186   -0.00564    0.00163   -0.00192
AFIX  13
H4A   2    0.571928    0.374648    0.655751    11.00000   -1.20000
AFIX   0
C5    1    0.791618    0.396955    0.761290    11.00000    0.01386    0.01055 =
         0.00917   -0.00361    0.00165   -0.00337
AFIX  13
H5    2    0.934649    0.369024    0.763937    11.00000   -1.20000
AFIX   0
C6    1    0.727850    0.484457    0.983743    11.00000    0.01097    0.01192 =
         0.01081   -0.00401    0.00106   -0.00197
C7    1    0.725701    0.510582    1.101266    11.00000    0.01433    0.01347 =
         0.01058   -0.00391    0.00161   -0.00385
AFIX  43
H7    2    0.719715    0.428483    1.184210    11.00000   -1.20000
AFIX   0
C8    1    0.732661    0.660196    1.090219    11.00000    0.01772    0.01522 =
         0.01028   -0.00657    0.00240   -0.00310
C9    1    0.739182    0.781407    0.968692    11.00000    0.01571    0.01031 =
         0.01495   -0.00554    0.00191   -0.00337
C10   1    0.737037    0.760124    0.852380    11.00000    0.01538    0.01356 =
         0.01006   -0.00342    0.00192   -0.00361
AFIX  43
H10A  2    0.739245    0.844893    0.770151    11.00000   -1.20000
AFIX   0
C11   1    0.731405    0.606757    0.859997    11.00000    0.00850    0.01241 =
         0.01075   -0.00413    0.00104   -0.00205
C12   1    0.720152    0.571715    0.740538    11.00000    0.00967    0.01182 =
         0.01258   -0.00570    0.00358   -0.00350
C13   1    0.716174    0.323133    0.994365    11.00000    0.01215    0.01264 =
         0.01193   -0.00380    0.00018   -0.00318
C14   1    0.738439    0.879836    1.127007    11.00000    0.03129    0.01545 =
         0.01315   -0.00777    0.00272   -0.00700
AFIX  23
H14A  2    0.853499    0.894539    1.164101    11.00000   -1.20000
H14B  2    0.623084    0.951658    1.142335    11.00000   -1.20000
AFIX   0

C15   1    0.355443    0.346534    0.379746    11.00000    0.01546    0.01132 =
         0.01457   -0.00555    0.00130   -0.00438
AFIX  43
H15   2    0.402443    0.430979    0.384386    11.00000   -1.20000
AFIX   0
C16   1    0.378833    0.196378    0.504215    11.00000    0.01351    0.01273 =
         0.01168   -0.00651    0.00173   -0.00180
AFIX  13
H16   2    0.332519    0.232087    0.576434    11.00000   -1.20000
AFIX   0
C17   1    0.254629    0.090892    0.491051    11.00000    0.01324    0.01179 =
         0.01239   -0.00469    0.00181   -0.00268
AFIX  13
H17   2    0.295077   -0.018489    0.564535    11.00000   -1.20000
AFIX   0
C18   1    0.271860    0.076961    0.357688    11.00000    0.01038    0.00926 =
         0.01321   -0.00420    0.00133   -0.00365
AFIX  13
H18   2    0.410460    0.037297    0.347775    11.00000   -1.20000
AFIX   0
C19   1    0.188104    0.242467    0.247598    11.00000    0.01175    0.01225 =
         0.01142   -0.00531    0.00197   -0.00325
AFIX  13
H19   2    0.046731    0.274898    0.252770    11.00000   -1.20000
AFIX   0
C20   1    0.235493    0.506880    0.018389    11.00000    0.01213    0.01121 =
         0.01265   -0.00481    0.00079   -0.00354
C21   1    0.227127    0.641199   -0.100282    11.00000    0.01608    0.01133 =
         0.01223   -0.00460    0.00072   -0.00352
AFIX  43
H21   2    0.215443    0.635402   -0.184161    11.00000   -1.20000
AFIX   0
C22   1    0.236584    0.779290   -0.088856    11.00000    0.01558    0.01175 =
         0.01260   -0.00277    0.00127   -0.00252
C23   1    0.250565    0.790835    0.032917    11.00000    0.01576    0.01126 =
         0.01820   -0.00842    0.00162   -0.00345
C24   1    0.258166    0.662557    0.150207    11.00000    0.01666    0.01444 =
         0.01228   -0.00717    0.00184   -0.00438
AFIX  43
H24   2    0.266836    0.671950    0.232863    11.00000   -1.20000
AFIX   0
C25   1    0.252487    0.515736    0.142268    11.00000    0.00940    0.01277 =
         0.01270   -0.00516    0.00116   -0.00241
C26   1    0.272198    0.367918    0.262862    11.00000    0.00948    0.01240 =
         0.01463   -0.00625    0.00347   -0.00234
C27   1    0.232477    0.353011    0.008240    11.00000    0.01207    0.01210 =
         0.01288   -0.00494   -0.00035   -0.00328
C28   1    0.248260    1.031193   -0.126093    11.00000    0.02977    0.01053 =
         0.01424   -0.00444    0.00031   -0.00595
AFIX  23
H28A  2    0.136735    1.127663   -0.157164    11.00000   -1.20000
H28B  2    0.366458    1.066863   -0.147771    11.00000   -1.20000
AFIX   0
HKLF 4

REM  cu_dd85l_0m_a.res in P1
REM R1 =  0.0304 for    4632 Fo > 4sig(Fo)  and  0.0306 for all    4675 data
REM    437 parameters refined using      3 restraints

END

WGHT      0.0497      0.1780

REM Instructions for potential hydrogen bonds
HTAB O2 O13
HTAB O3 O9_$1
HTAB O4 O8
HTAB O8 O14
HTAB O9 O4_$2
HTAB O9 O11_$3
HTAB O10 O2_$4
HTAB O13 O3_$2
HTAB O13 O7_$5
HTAB O14 O10_$1
HTAB O14 O1_$6
HTAB N1 O6_$4
HTAB N2 O12_$4
EQIV $7 x, y+1, z
HTAB C1 O8_$7
HTAB C4 O13
EQIV $8 x+1, y, z+1
HTAB C5 O7_$8
HTAB C17 O11_$3
HTAB C18 O14
HTAB C21 O13_$6

REM Highest difference peak  0.258,  deepest hole -0.281,  1-sigma level  0.090
Q1    1   0.0072  0.6186 -0.2429  11.00000  0.05    0.26
Q2    1   0.0203 -0.1325  0.6228  11.00000  0.05    0.25
Q3    1   0.5175  0.2990  0.8382  11.00000  0.05    0.25
Q4    1   0.9754  0.9384  1.1727  11.00000  0.05    0.24
Q5    1   0.5021  0.2589  0.8571  11.00000  0.05    0.24
Q6    1  -0.0315  0.1590  0.1003  11.00000  0.05    0.24
Q7    1  -0.0279  1.0596 -0.0642  11.00000  0.05    0.24
Q8    1   0.4672  1.1051 -0.0170  11.00000  0.05    0.23
Q9    1   0.9813  0.1037  0.2625  11.00000  0.05    0.22
Q10   1  -0.0363  0.2311  0.1767  11.00000  0.05    0.22
Q11   1   0.9835  0.2788  0.9030  11.00000  0.05    0.22
Q12   1   0.5034  1.0575 -0.1979  11.00000  0.05    0.22
Q13   1   0.4747  1.1311  1.0386  11.00000  0.05    0.22
Q14   1   0.4760  0.4861  0.1796  11.00000  0.05    0.22
Q15   1  -0.0171  1.1059 -0.1327  11.00000  0.05    0.22
Q16   1   0.4728  0.9936  1.1397  11.00000  0.05    0.21
Q17   1  -0.0052  0.4650  0.1169  11.00000  0.05    0.21
Q18   1   0.4996  0.2496  1.1021  11.00000  0.05    0.21
Q19   1   0.4950  0.3967  0.8347  11.00000  0.05    0.21
Q20   1   0.9683  0.6754  1.2349  11.00000  0.05    0.21
;
_shelx_res_checksum              21894
_shelx_hkl_file
;
  -1   0   0  314.57   12.30
   1   0   0  322.77   12.60
   1   0   0  322.57   12.40
   1   0   0  330.57   12.60
  -2   0   0 9741.83  366.76
  -2   0   0 9675.93  367.16
   2   0   0 9146.48  342.97
   2   0   0 9017.90  343.47
  -3   0   0  463.65   17.90
  -3   0   0  398.56   17.40
  -3   0   0  454.35   17.70
   3   0   0  487.75   18.60
   3   0   0  483.45   18.80
   3   0   0  454.55   17.70
   3   0   0  421.26   17.90
  -4   0   0 8488.05  307.07
  -4   0   0 7585.04  306.77
  -4   0   0 9325.47  308.37
  -4   0   0 7023.70  307.77
   4   0   0 9386.56  350.96
   4   0   0 8861.71  350.66
   4   0   0 9999.00  352.36
   4   0   0 9078.99  351.76
   4   0   0 9163.38  351.06
   4   0   0 9280.47  350.96
   4   0   0 9089.49  350.86
  -5   0   0   56.69    3.50
  -5   0   0   59.89    3.90
  -5   0   0   56.89    4.30
  -5   0   0   59.49    3.80
  -5   0   0   55.69    4.70
  -5   0   0   62.19    3.50
   5   0   0   58.29    3.60
   5   0   0   61.39    4.90
   5   0   0   63.29    4.10
   5   0   0   59.79    6.90
  -6   0   0 3003.90  124.09
  -6   0   0 3287.87  123.39
  -6   0   0 3279.77  121.99
  -6   0   0 3367.76  122.29
  -6   0   0 3111.69  121.99
  -6   0   0 3086.69  122.09
   6   0   0 3408.96  128.89
   6   0   0 3306.07  130.19
   6   0   0 3431.36  128.49
   6   0   0 3340.07  128.59
   6   0   0 3372.36  129.79
  -7   0   0   27.80    4.30
  -7   0   0   25.80    2.70
  -7   0   0   36.10    3.60
  -7   0   0   28.50    3.60
  -7   0   0   28.10    4.20
   7   0   0   34.00    2.80
   7   0   0   33.30    2.70
   7   0   0   26.60    7.80
   7   0   0   31.20    3.00
  -8   0   0  459.15   19.60
  -8   0   0  501.35   19.40
  -8   0   0  501.35   20.60
   8   0   0  563.74   22.00
   8   0   0  544.65   22.10
   8   0   0  566.24   22.40
   8   0   0  591.64   22.60
   8  -1   0  585.64   22.40
   8  -1   0  522.95   21.80
   8  -1   0  602.44   22.50
  -8   1   0  503.55   19.30
  -8   1   0  495.35   20.30
  -8   1   0  469.95   19.60
   7  -1   0  183.98    8.00
   7  -1   0  181.08    7.80
   7  -1   0  154.48    9.00
   7  -1   0  176.28    7.70
  -7   1   0  178.58    8.80
  -7   1   0  161.18    8.00
  -7   1   0  165.58    8.20
  -7   1   0  170.38    7.70
  -7   1   0  158.48   10.20
   6  -1   0  429.26   23.20
   6  -1   0  419.36   19.00
   6  -1   0  450.25   17.90
   6  -1   0  475.55   18.70
   6  -1   0  430.16   17.70
   6  -1   0  411.96   19.80
   6  -1   0  445.46   18.20
  -6   1   0  395.06   17.10
  -6   1   0  411.26   16.70
  -6   1   0  409.76   17.00
  -6   1   0  397.06   17.20
   5  -1   0   99.79    5.50
   5  -1   0  100.29    5.70
   5  -1   0  106.49    5.80
   5  -1   0  104.09    6.50
   5  -1   0  112.89    8.90
   5  -1   0  103.29    5.20
  -5   1   0   91.09    5.10
  -5   1   0   91.79    5.80
  -5   1   0   95.79    5.10
  -5   1   0   94.99    5.70
  -5   1   0  103.89    5.30
  -5   1   0   91.79    4.80
   4  -1   0 1244.38   48.60
   4  -1   0 1235.18   48.90
   4  -1   0 1164.68   48.50
   4  -1   0 1298.17   48.90
   4  -1   0 1253.77   48.80
   4  -1   0 1272.67   49.80
   4  -1   0 1379.06   51.69
   4  -1   0 1207.78   50.19
   4  -1   0 1266.27   49.70
  -4   1   0 1195.78   46.30
  -4   1   0 1239.88   46.40
  -4   1   0 1174.58   46.10
  -4   1   0 1174.58   46.90
  -4   1   0 1202.78   46.20
   3  -1   0  680.83   28.10
   3  -1   0  704.63   26.60
   3  -1   0  692.93   26.60
  -3   1   0  675.73   25.40
  -3   1   0  647.04   25.60
  -3   1   0  637.84   25.10
  -3   1   0  636.34   25.20
   2  -1   0  121.29    5.10
   2  -1   0  121.49    5.40
   2  -1   0  125.89    5.00
  -2   1   0  121.49    5.40
  -2   1   0  137.59    5.70
  -2   1   0  115.89    5.00
   1  -1   0  814.62   30.50
   1  -1   0  790.52   30.40
   1  -1   0  809.52   30.20
   1  -1   0  764.52   30.30
  -1   1   0  756.82   29.80
  -1   1   0  797.82   29.70
   0  -1   0 1005.10   40.90
   0  -1   0 1101.19   41.00
   0  -1   0 1109.29   41.20
   0  -1   0 1100.09   41.00
   0   1   0  936.41   35.50
  -1  -1   0 2035.40   76.99
  -1  -1   0 1852.41   76.79
  -1  -1   0 2189.38   76.69
   1   1   0 1772.72   62.79
   1   1   0 1534.85   62.69
  -2  -1   0  936.51   34.40
  -2  -1   0  870.21   34.00
  -2  -1   0  846.52   33.80
   2   1   0  872.11   33.60
  -3  -1   0  357.56   14.70
  -3  -1   0  360.66   14.50
  -3  -1   0  381.46   15.10
  -3  -1   0  359.96   15.20
  -3  -1   0  357.46   14.40
   3   1   0  393.36   16.20
   3   1   0  399.76   16.10
  -4  -1   0 1619.14   60.59
  -4  -1   0 1554.44   60.59
  -4  -1   0 1478.35   59.69
  -4  -1   0 1532.85   59.29
  -4  -1   0 1586.54   59.69
   4   1   0 1579.34   61.99
   4   1   0 1560.34   61.09
   4   1   0 1557.84   61.59
   4   1   0 1612.34   61.09
   4   1   0 1626.94   61.59
   4   1   0 1592.14   60.99
  -5  -1   0  319.17   13.30
  -5  -1   0  310.97   14.20
  -5  -1   0  304.07   13.60
  -5  -1   0  317.97   13.20
  -5  -1   0  302.37   13.10
  -5  -1   0  325.97   14.40
   5   1   0  328.77   13.50
   5   1   0  297.17   14.40
   5   1   0  330.17   13.50
   5   1   0  350.66   13.80
   5   1   0  313.47   16.60
  -6  -1   0    7.10    2.50
  -6  -1   0    3.00    1.90
  -6  -1   0    6.00    1.50
  -6  -1   0    7.30    1.80
  -6  -1   0    5.30    1.40
  -6  -1   0    3.90    1.90
   6   1   0    4.80    1.40
   6   1   0    4.30    1.40
   6   1   0    4.60    3.30
   6   1   0    5.60    1.60
  -7  -1   0   49.30    4.30
  -7  -1   0   49.10    4.50
  -7  -1   0   54.49    3.60
  -7  -1   0   56.19    5.40
   7   1   0   57.99    3.40
   7   1   0   56.39    3.40
   7   1   0   46.00   11.10
   7   1   0   56.19    3.70
  -8  -1   0   28.70    4.60
  -8  -1   0   37.90    2.80
  -8  -1   0   29.20    4.40
  -8  -1   0   28.70    5.30
   8   1   0   37.40    2.80
   8   1   0   40.00    2.80
   8   1   0   45.30    2.70
   8   1   0   42.90    2.50
   7  -2   0   15.70    1.70
   7  -2   0   22.00    2.30
   7  -2   0   18.20    2.30
  -7   2   0   15.30    2.80
  -7   2   0   18.10    2.20
  -7   2   0   13.10    2.50
  -7   2   0   18.00    3.20
   6  -2   0  187.88    8.50
   6  -2   0  164.28    8.20
   6  -2   0  169.88    7.60
   6  -2   0  156.88    8.80
   6  -2   0  175.18    8.10
   6  -2   0  163.08    9.90
  -6   2   0  156.68    7.30
  -6   2   0  157.18    7.70
  -6   2   0  163.28    9.30
  -6   2   0  142.89    8.40
  -6   2   0  160.38    8.00
  -6   2   0  163.58    7.80
   5  -2   0  253.57   11.30
   5  -2   0  251.67   15.50
   5  -2   0  251.87   11.20
   5  -2   0  252.67   10.80
   5  -2   0  248.98   12.70
   5  -2   0  250.67   11.10
   5  -2   0  246.28   12.10
  -5   2   0  236.68   10.60
  -5   2   0  251.67   10.80
  -5   2   0  257.27   11.30
  -5   2   0  241.38   10.70
   4  -2   0  552.04   22.70
   4  -2   0  550.24   23.90
   4  -2   0  561.84   23.70
   4  -2   0  611.54   24.90
   4  -2   0  560.54   23.10
   4  -2   0  527.95   22.70
   4  -2   0  579.74   25.90
  -4   2   0  486.35   21.40
  -4   2   0  536.25   21.70
  -4   2   0  525.95   21.30
  -4   2   0  605.74   21.40
   3  -2   0  870.31   33.50
   3  -2   0  905.51   36.30
   3  -2   0  877.71   34.50
   3  -2   0  805.72   34.10
   3  -2   0  874.71   34.40
   3  -2   0  882.31   33.60
  -3   2   0  829.92   31.50
  -3   2   0  834.92   31.10
  -3   2   0  789.22   31.30
  -3   2   0  767.62   32.20
   2  -2   0  821.02   31.20
   2  -2   0  805.72   32.80
   2  -2   0  810.42   31.30
  -2   2   0  771.92   29.90
  -2   2   0  770.72   29.50
  -2   2   0  739.23   29.10
   1  -2   0 1406.96   53.59
   1  -2   0 1371.16   53.39
   1  -2   0 1426.66   53.59
   1  -2   0 1472.65   54.59
   1  -2   0 1357.26   53.79
  -1   2   0 1398.36   51.79
  -1   2   0 1309.47   51.49
  -1   2   0 1366.06   51.99
   0  -2   0  198.58    8.00
   0  -2   0  208.78    8.30
   0  -2   0  209.58    8.20
   0  -2   0  207.78    8.80
   0   2   0  191.38    7.60
   0   2   0  200.48    7.80
  -1  -2   0  710.93   27.60
  -1  -2   0  726.53   27.80
   1   2   0  656.43   26.10
   1   2   0  682.33   26.20
   1   2   0  714.43   26.40
  -2  -2   0  770.32   31.30
  -2  -2   0  858.11   31.80
   2   2   0  825.22   31.70
   2   2   0  787.22   31.20
   2   2   0  844.22   31.50
  -3  -2   0  937.61   35.50
  -3  -2   0  852.31   35.70
  -3  -2   0  879.41   35.50
  -3  -2   0  974.90   36.00
   3   2   0  965.00   36.30
   3   2   0  933.41   37.00
  -4  -2   0  303.07   12.50
  -4  -2   0  286.27   12.10
  -4  -2   0  302.07   12.30
  -4  -2   0  259.57   12.70
  -4  -2   0  275.77   12.30
  -4  -2   0  309.87   13.00
  -4  -2   0  321.27   13.20
   4   2   0  299.27   12.40
   4   2   0  306.07   12.30
   4   2   0  309.77   12.80
   4   2   0  312.17   13.40
   4   2   0  253.87   13.40
  -5  -2   0  249.08   12.30
  -5  -2   0  256.17   12.20
  -5  -2   0  232.38   11.70
  -5  -2   0  278.17   11.10
  -5  -2   0  245.48   11.10
  -5  -2   0  271.17   11.10
   5   2   0  253.07   11.80
   5   2   0  267.37   11.10
   5   2   0  256.77   11.00
   5   2   0  266.17   11.90
   5   2   0  258.77   10.90
   5   2   0  241.98   12.10
  -6  -2   0  141.99    8.10
  -6  -2   0  176.68    9.00
  -6  -2   0  148.29    8.80
  -6  -2   0  149.39    7.40
  -6  -2   0  156.88    7.70
   6   2   0  134.89    8.40
   6   2   0  155.28    7.10
   6   2   0  167.68    7.50
   6   2   0  153.48    7.20
   6   2   0  159.98    7.50
  -7  -2   0   15.40    4.30
  -7  -2   0   20.70    3.70
  -7  -2   0   18.50    4.40
  -7  -2   0   15.30    2.60
   7   2   0   14.40    2.10
   7   2   0   15.60    1.90
   7   2   0   12.20    2.30
  -8  -2   0   15.40    2.50
  -8  -2   0   10.90    2.40
  -8  -2   0   19.40    8.60
  -8  -2   0    9.00    2.50
   8   2   0   14.80    1.70
   8   2   0   12.00    1.60
   8   2   0   13.50    1.90
   8   2   0   18.40    2.10
   7  -3   0    2.60    1.40
   7  -3   0    4.70    1.20
  -7   3   0    1.90    1.10
  -7   3   0    0.10    1.60
  -7   3   0    0.90    1.30
  -7   3   0    1.90    2.30
   6  -3   0  107.59    6.10
   6  -3   0  100.89    6.10
   6  -3   0   94.29    5.30
   6  -3   0   93.89    6.40
   6  -3   0   99.89    7.30
   6  -3   0   96.49    4.80
  -6   3   0   87.09    5.40
  -6   3   0   90.59    5.20
  -6   3   0   87.89    4.90
  -6   3   0   90.49    5.30
   5  -3   0   71.89    4.20
   5  -3   0   78.59    4.80
   5  -3   0   71.39    4.50
   5  -3   0   68.39    5.50
   5  -3   0   72.79    6.10
   5  -3   0   72.89   14.30
   5  -3   0   73.69    4.50
  -5   3   0   72.09    4.40
  -5   3   0   79.89    4.60
  -5   3   0   78.59    4.50
   4  -3   0  343.07   14.10
   4  -3   0  327.07   14.50
   4  -3   0  345.27   15.70
   4  -3   0  310.47   15.60
   4  -3   0  347.57   18.30
   4  -3   0  364.16   14.70
   4  -3   0  344.07   14.40
  -4   3   0  350.86   14.90
  -4   3   0  329.47   14.50
  -4   3   0  341.27   13.90
  -4   3   0  334.17   14.00
  -4   3   0  344.07   14.60
   3  -3   0   98.79    5.20
   3  -3   0  111.19    7.60
   3  -3   0  110.39    5.20
   3  -3   0  112.39    6.60
   3  -3   0  106.79    5.70
   3  -3   0   95.49    5.60
   3  -3   0   99.79    5.10
   3  -3   0  101.69    6.70
   3  -3   0   99.89    5.70
  -3   3   0  124.59    6.60
  -3   3   0  109.69    4.80
  -3   3   0  102.79    5.30
  -3   3   0  103.29    5.00
   2  -3   0 1158.38   45.80
   2  -3   0 1159.08   43.80
   2  -3   0 1080.29   43.30
   2  -3   0 1145.89   43.80
  -2   3   0 1070.29   41.00
  -2   3   0 1042.60   42.10
  -2   3   0 1105.79   41.60
  -2   3   0 1074.69   41.00
   1  -3   0 1455.75   56.89
   1  -3   0 1503.95   57.09
   1  -3   0 1516.75   56.89
   1  -3   0 1469.65   58.19
  -1   3   0 1471.85   54.99
  -1   3   0 1438.06   55.29
  -1   3   0 1397.16   54.79
   0  -3   0  335.47   13.40
   0  -3   0  316.57   13.40
   0  -3   0  339.97   14.20
   0  -3   0  352.06   13.40
   0   3   0  343.77   13.70
  -1  -3   0  264.97   10.60
  -1  -3   0  262.17   10.70
  -1  -3   0  258.97   10.00
   1   3   0  258.37   10.50
   1   3   0  245.78   10.00
   1   3   0  261.17   10.30
  -2  -3   0  581.24   22.80
  -2  -3   0  563.24   22.30
   2   3   0  549.85   21.60
   2   3   0  560.44   22.20
   2   3   0  597.44   22.20
   2   3   0  541.05   21.70
  -3  -3   0  128.89    6.70
  -3  -3   0  144.89    6.70
  -3  -3   0  132.09    6.30
  -3  -3   0  129.29    6.50
   3   3   0  139.99    6.00
   3   3   0  133.89    6.30
   3   3   0  129.99    5.60
  -4  -3   0  474.45   19.80
  -4  -3   0  454.85   19.40
  -4  -3   0  479.15   18.80
  -4  -3   0  499.95   19.00
  -4  -3   0  452.35   18.80
  -4  -3   0  427.06   21.20
   4   3   0  442.46   18.30
   4   3   0  485.95   17.90
   4   3   0  458.75   19.00
   4   3   0  454.95   18.60
   4   3   0  456.15   17.90
   4   3   0  455.35   19.40
   4   3   0  452.45   18.40
  -5  -3   0    4.90    1.20
  -5  -3   0    4.20    1.50
  -5  -3   0    2.40    2.50
  -5  -3   0    4.00    1.50
  -5  -3   0    2.70    1.40
  -5  -3   0    3.40    2.00
   5   3   0    7.60    2.00
   5   3   0    4.70    1.60
   5   3   0    5.40    1.30
   5   3   0    8.50    2.00
  -6  -3   0  699.13   29.40
  -6  -3   0  696.33   28.70
  -6  -3   0  717.13   28.50
  -6  -3   0  671.23   28.50
  -6  -3   0  708.53   28.20
  -6  -3   0  743.13   28.60
   6   3   0  757.92   30.50
   6   3   0  806.62   30.50
   6   3   0  759.42   30.50
   6   3   0  764.22   30.50
  -7  -3   0  166.88    7.70
  -7  -3   0  165.98    9.10
  -7  -3   0  172.48    8.50
  -7  -3   0  156.48    8.10
  -7  -3   0  136.09   10.00
   7   3   0  167.48    7.60
   7   3   0  182.08    7.80
   7   3   0  189.08    7.90
   7   3   0  158.98    8.10
   7   3   0  146.49   14.70
  -8  -3   0   87.49    4.60
  -8  -3   0   84.79    6.20
  -8  -3   0   86.69    5.70
   8   3   0  106.29    4.90
   8   3   0  105.99    4.90
   8   3   0   96.79    5.00
   6  -4   0  227.88    9.20
   6  -4   0  233.78   10.10
   6  -4   0  233.48    9.70
   6  -4   0  230.88   11.10
   6  -4   0  231.38   10.10
   6  -4   0  191.68   10.70
  -6   4   0  210.98    9.50
  -6   4   0  205.78    9.30
  -6   4   0  217.58    9.10
  -6   4   0  203.68    9.40
   5  -4   0    4.10    1.60
   5  -4   0    3.60    1.90
   5  -4   0   12.30    7.20
   5  -4   0    7.80    1.90
   5  -4   0    5.30    1.10
   5  -4   0    3.80    1.30
   5  -4   0    2.10    1.70
  -5   4   0    5.00    1.50
  -5   4   0    9.20    2.70
  -5   4   0    5.40    1.40
  -5   4   0    7.60    1.70
   4  -4   0 1154.18   44.50
   4  -4   0 1128.09   43.80
   4  -4   0 1068.99   48.90
   4  -4   0 1083.99   45.00
   4  -4   0 1124.79   45.50
   4  -4   0 1196.38   44.40
   4  -4   0 1130.39   44.10
  -4   4   0 1077.59   45.20
  -4   4   0 1079.19   41.20
  -4   4   0 1043.90   41.10
  -4   4   0 1012.30   41.10
  -4   4   0 1081.79   41.20
   3  -4   0  384.36   19.50
   3  -4   0  386.56   16.30
   3  -4   0  373.86   16.40
   3  -4   0  379.46   16.50
   3  -4   0  398.16   16.10
   3  -4   0  397.46   16.90
  -3   4   0  385.16   15.70
  -3   4   0  400.76   16.50
  -3   4   0  388.96   15.70
  -3   4   0  393.36   15.90
   2  -4   0  384.26   16.20
   2  -4   0  411.06   16.30
   2  -4   0  392.06   16.50
   2  -4   0  402.86   18.70
   2  -4   0  383.66   16.30
   2  -4   0  424.96   16.50
   2  -4   0  400.56   16.60
   2  -4   0  395.06   17.10
  -2   4   0  415.16   15.90
  -2   4   0  394.86   17.10
  -2   4   0  400.06   16.60
  -2   4   0  400.56   15.90
   1  -4   0  536.55   21.70
   1  -4   0  515.85   21.60
   1  -4   0  537.75   23.20
   1  -4   0  563.04   21.50
  -1   4   0  521.75   20.80
  -1   4   0  521.65   20.10
  -1   4   0  518.05   21.40
   0  -4   0  876.01   34.30
   0  -4   0  862.61   33.70
   0  -4   0  859.21   33.70
   0   4   0  784.22   31.00
   0   4   0  815.12   31.60
   0   4   0  828.72   31.10
  -1  -4   0   65.49    3.40
  -1  -4   0   63.89    3.30
  -1  -4   0   55.89    3.90
   1   4   0   63.69    3.50
   1   4   0   59.99    3.20
   1   4   0   55.19    2.80
  -2  -4   0  467.75   19.70
  -2  -4   0  483.45   19.50
  -2  -4   0  473.35   19.90
  -2  -4   0  478.15   18.80
  -2  -4   0  502.05   19.20
   2   4   0  515.75   18.90
   2   4   0  460.65   19.40
   2   4   0  480.15   19.80
  -3  -4   0   87.39    5.30
  -3  -4   0   93.29    5.20
  -3  -4   0   84.99    5.70
  -3  -4   0   95.89    5.90
   3   4   0   95.29    4.00
   3   4   0   95.49    4.70
   3   4   0   93.39    4.10
   3   4   0   85.29    4.20
   3   4   0   79.59    4.70
   3   4   0   92.39    4.90
  -4  -4   0  100.09    5.30
  -4  -4   0  104.29    6.00
  -4  -4   0   94.19    5.70
  -4  -4   0  101.39    6.60
  -4  -4   0   93.09    5.00
  -4  -4   0   95.29    5.60
  -4  -4   0   97.59    6.70
  -4  -4   0  103.09    5.50
   4   4   0  111.59    5.90
   4   4   0   99.69    5.10
   4   4   0  102.09    4.60
   4   4   0   82.69   10.60
   4   4   0  106.49    5.40
   4   4   0  115.79    5.50
   4   4   0  108.79    5.30
   4   4   0  107.69    4.80
  -5  -4   0  402.46   18.10
  -5  -4   0  404.56   17.60
  -5  -4   0  410.36   16.70
  -5  -4   0  419.36   16.70
  -5  -4   0  393.76   16.70
  -5  -4   0  370.96   17.20
   5   4   0  410.76   16.70
   5   4   0  412.46   17.40
   5   4   0  417.16   18.50
   5   4   0  429.56   17.30
   5   4   0  439.86   17.50
   5   4   0  449.06   17.70
  -6  -4   0   74.69    4.80
  -6  -4   0   72.19    5.70
  -6  -4   0   78.99    6.20
  -6  -4   0   72.29    5.40
  -6  -4   0   89.39    5.40
  -6  -4   0   91.99    5.30
   6   4   0   80.59    4.30
   6   4   0   78.39    4.40
   6   4   0   86.49    6.60
   6   4   0   73.69    4.60
   6   4   0   74.89    4.60
  -7  -4   0  142.99    8.50
  -7  -4   0  137.09    8.70
  -7  -4   0  146.59    6.90
  -7  -4   0  144.19    9.30
  -7  -4   0  137.39    7.30
   7   4   0  156.28    7.10
   7   4   0  160.08    7.30
  -8  -4   0  184.08    8.00
  -8  -4   0  184.38    8.80
  -8  -4   0  203.78   11.50
   8   4   0  220.98    9.40
   8   4   0  221.88    9.40
   8   4   0  225.48    9.30
   6  -5   0   16.10    4.50
  -6   5   0   17.00    2.60
  -6   5   0   19.30    2.30
  -6   5   0   17.80    1.80
  -6   5   0   15.00    3.30
   5  -5   0   58.49    5.10
   5  -5   0   65.69    4.20
   5  -5   0   59.79    3.40
   5  -5   0   55.89    4.10
   5  -5   0   61.49    4.00
   5  -5   0   63.39    5.40
  -5   5   0   57.09    4.00
  -5   5   0   60.29    3.60
  -5   5   0   52.19    5.20
   4  -5   0  461.85   27.80
   4  -5   0  505.05   20.40
   4  -5   0  484.65   21.10
   4  -5   0  512.45   20.70
   4  -5   0  480.15   20.10
   4  -5   0  511.45   20.00
   4  -5   0  505.65   21.80
  -4   5   0  467.75   18.30
  -4   5   0  425.46   18.10
  -4   5   0  413.16   19.40
  -4   5   0  484.15   18.30
  -4   5   0  450.55   18.10
   3  -5   0  110.29    6.30
   3  -5   0  114.19    6.40
   3  -5   0  124.59    7.60
   3  -5   0  109.39   11.80
   3  -5   0  121.89    5.80
   3  -5   0  110.09    6.10
   3  -5   0  114.19    6.30
   3  -5   0  115.19    6.90
  -3   5   0  105.79    5.50
  -3   5   0  113.59    5.80
  -3   5   0  113.79    5.40
  -3   5   0  113.19    6.50
  -3   5   0  120.49    5.50
   2  -5   0  293.97   13.30
   2  -5   0  299.47   12.40
   2  -5   0  260.57   13.50
   2  -5   0  300.07   16.00
   2  -5   0  295.67   12.80
   2  -5   0  314.57   13.00
   2  -5   0  291.07   12.80
  -2   5   0  286.37   11.50
  -2   5   0  280.47   12.40
  -2   5   0  272.27   11.60
  -2   5   0  284.77   11.40
   1  -5   0   99.59    6.10
   1  -5   0  112.59    5.70
   1  -5   0   99.79    5.90
   1  -5   0  102.79    5.70
   1  -5   0  109.49    5.30
   1  -5   0  108.49    5.30
   1  -5   0  108.09    5.60
  -1   5   0   87.69    5.30
  -1   5   0  107.79    4.60
  -1   5   0  102.69    5.10
  -1   5   0  104.79    5.30
  -1   5   0  108.29    4.60
   0  -5   0  532.35   22.10
   0  -5   0  566.54   23.10
   0  -5   0  508.45   21.90
   0  -5   0  537.05   21.80
   0  -5   0  587.54   22.20
   0  -5   0  549.65   22.10
   0   5   0  535.45   21.60
   0   5   0  530.35   20.90
   0   5   0  545.15   20.90
  -1  -5   0  922.81   34.70
  -1  -5   0  874.31   34.90
  -1  -5   0  901.31   35.30
  -1  -5   0  885.61   36.20
  -1  -5   0  868.71   35.50
  -1  -5   0  875.81   34.80
  -1  -5   0  931.41   35.20
   1   5   0  929.41   34.40
   1   5   0  867.01   34.40
   1   5   0  942.51   35.10
   1   5   0  922.41   35.40
   1   5   0  804.92   34.70
  -2  -5   0  316.37   14.10
  -2  -5   0  332.47   13.70
  -2  -5   0  343.77   14.00
  -2  -5   0  320.77   15.60
  -2  -5   0  332.37   13.80
   2   5   0  351.76   14.50
   2   5   0  320.27   14.00
   2   5   0  347.97   13.40
   2   5   0  337.87   14.90
   2   5   0  346.27   13.40
   2   5   0  325.07   13.50
  -3  -5   0  307.97   13.60
  -3  -5   0  338.77   16.80
  -3  -5   0  306.97   13.60
  -3  -5   0  279.17   13.50
  -3  -5   0  287.07   12.70
  -3  -5   0  312.97   13.70
  -3  -5   0  323.17   13.20
  -3  -5   0  316.87   13.10
   3   5   0  315.27   14.40
   3   5   0  322.87   13.80
   3   5   0  316.37   13.60
   3   5   0  322.67   13.10
   3   5   0  335.07   13.10
   3   5   0  338.87   14.30
   3   5   0  345.27   13.10
  -4  -5   0   84.89    6.00
  -4  -5   0   97.29    5.40
  -4  -5   0   97.09    5.90
  -4  -5   0   91.79    5.90
  -4  -5   0   98.89    5.90
  -4  -5   0   88.89    4.70
  -4  -5   0   96.59    5.10
  -4  -5   0   93.19    5.30
   4   5   0  106.99    4.70
   4   5   0  100.99    4.70
   4   5   0   99.69    5.90
   4   5   0  104.99    4.70
   4   5   0  106.79    5.30
   4   5   0   95.89    6.20
  -5  -5   0  125.39    6.80
  -5  -5   0  130.59    7.50
  -5  -5   0  119.59    6.20
  -5  -5   0  131.69    6.50
  -5  -5   0  137.79    9.30
  -5  -5   0  127.59    6.60
  -5  -5   0  138.59    7.70
  -5  -5   0  133.89    8.10
   5   5   0  146.39    6.00
   5   5   0  139.89    6.60
   5   5   0  134.99    6.70
   5   5   0  137.49    6.40
   5   5   0  131.49    7.70
  -6  -5   0 1057.79   45.10
  -6  -5   0 1157.28   43.40
  -6  -5   0 1097.99   45.80
  -6  -5   0 1105.59   43.90
  -6  -5   0 1076.69   42.80
   6   5   0 1220.88   46.60
   6   5   0 1159.98   48.10
   6   5   0 1205.78   46.40
   6   5   0 1182.08   46.20
  -7  -5   0  185.08    9.30
  -7  -5   0  185.78    9.20
  -7  -5   0  179.48    8.20
  -7  -5   0  190.08    9.80
   7   5   0  207.18    8.90
   7   5   0  201.98    9.30
   7   5   0  201.58    9.00
  -8  -5   0  221.18   10.70
  -8  -5   0  232.28   10.10
  -8  -5   0  238.28   11.40
   8   5   0  288.17   11.50
   8   5   0  291.77   11.40
   8   5   0  258.67   11.60
   5  -6   0   65.49    4.80
   5  -6   0   65.79    3.80
   5  -6   0   57.09    4.00
  -5   6   0   64.09    3.50
  -5   6   0   64.59    3.90
  -5   6   0   67.99    4.90
  -5   6   0   68.79    4.40
   4  -6   0   17.80    3.00
   4  -6   0   18.30    2.50
   4  -6   0   18.40    3.60
   4  -6   0   19.60    2.10
  -4   6   0   18.90    2.60
  -4   6   0   17.90    2.40
  -4   6   0   12.80    2.00
  -4   6   0   21.90    2.20
   3  -6   0  238.58   10.10
   3  -6   0  230.98   10.60
   3  -6   0  224.48   11.10
   3  -6   0  247.58   12.60
   3  -6   0  232.68   10.80
   3  -6   0  232.78   10.80
  -3   6   0  227.88    9.50
  -3   6   0  219.48    9.50
  -3   6   0  212.68    9.30
  -3   6   0  231.08    9.50
  -3   6   0  193.38   10.90
   2  -6   0   97.39    5.10
   2  -6   0   96.79    5.60
   2  -6   0  104.09    5.80
   2  -6   0  106.79    5.70
   2  -6   0   95.69    6.20
  -2   6   0   93.29    4.60
  -2   6   0   99.29    4.70
  -2   6   0   93.69    4.70
   1  -6   0  177.88    8.10
   1  -6   0  180.08    8.20
   1  -6   0  182.28    8.60
   1  -6   0  179.08    8.50
   1  -6   0  181.38    9.00
   1  -6   0  175.38    8.60
   1  -6   0  177.78    8.70
  -1   6   0  160.28    7.40
  -1   6   0  183.28    7.40
  -1   6   0  171.48    8.40
   0  -6   0  324.17   14.60
   0  -6   0  342.57   14.50
   0  -6   0  354.56   14.40
   0  -6   0  309.87   16.40
   0  -6   0  340.57   14.70
   0   6   0  352.86   13.80
   0   6   0  348.57   14.80
   0   6   0  328.67   14.10
   0   6   0  333.07   13.80
   0   6   0  350.96   13.80
  -1  -6   0   85.19    5.20
  -1  -6   0   77.09    5.20
  -1  -6   0   81.89    4.30
  -1  -6   0   83.59    4.70
  -1  -6   0   81.39    4.60
  -1  -6   0   72.19    4.80
   1   6   0   83.39    3.90
   1   6   0   78.19    4.60
   1   6   0   75.89    3.90
   1   6   0   85.19    5.10
   1   6   0   77.29    3.80
  -2  -6   0  400.96   15.70
  -2  -6   0  373.66   16.20
  -2  -6   0  381.56   15.80
  -2  -6   0  377.66   16.10
  -2  -6   0  376.06   15.90
  -2  -6   0  375.26   16.50
   2   6   0  368.56   17.40
   2   6   0  400.46   15.80
   2   6   0  385.76   16.50
   2   6   0  398.06   15.80
   2   6   0  425.76   15.80
   2   6   0  401.76   17.10
  -3  -6   0   72.89    5.20
  -3  -6   0   83.89    6.20
  -3  -6   0   78.59    5.30
  -3  -6   0   92.99    4.80
  -3  -6   0   83.59    4.70
  -3  -6   0   79.99    5.30
  -3  -6   0   77.69    5.30
   3   6   0   84.19    4.10
   3   6   0   85.79    4.10
   3   6   0   87.39    4.80
   3   6   0   84.29    5.50
   3   6   0   84.29    4.10
  -4  -6   0   59.69    4.70
  -4  -6   0   45.10    4.40
  -4  -6   0   47.50    3.50
  -4  -6   0   49.30    3.70
  -4  -6   0   47.90    4.50
  -4  -6   0   52.29    4.80
   4   6   0   55.59    3.00
   4   6   0   57.29    3.60
   4   6   0   48.90    3.70
   4   6   0   55.89    3.10
   4   6   0   57.49    4.80
   4   6   0   56.19    3.60
   4   6   0   51.29    3.00
  -5  -6   0  216.48   11.10
  -5  -6   0  228.78   10.20
  -5  -6   0  215.18   11.70
  -5  -6   0  235.08   10.90
  -5  -6   0  211.78    9.40
   5   6   0  247.08    9.80
   5   6   0  241.68   10.70
   5   6   0  235.98   10.40
   5   6   0  237.98   12.10
   5   6   0  238.08   10.20
  -6  -6   0   73.99    4.70
  -6  -6   0   76.99    5.90
  -6  -6   0   70.99    7.40
  -6  -6   0   58.49    3.90
  -6  -6   0   76.89    5.10
   6   6   0   78.69    4.20
   6   6   0   73.59    4.40
   6   6   0   74.79    4.00
   6   6   0   69.39    8.10
   6   6   0   76.99    4.30
  -7  -6   0  114.49    6.40
  -7  -6   0  122.59    7.70
  -7  -6   0  117.49    6.40
   7   6   0  132.09    5.90
   7   6   0  125.49    6.10
   7   6   0  128.09    6.00
  -8  -6   0   17.50    5.10
  -8  -6   0   21.50    4.00
   8   6   0   36.40    2.20
   8   6   0   33.30    2.10
   4  -7   0  280.57   12.50
   4  -7   0  270.77   11.60
   4  -7   0  269.67   11.50
  -4   7   0  272.77   11.90
  -4   7   0  247.68   11.10
  -4   7   0  252.27   11.20
  -4   7   0  277.87   10.80
   3  -7   0  404.96   17.50
   3  -7   0  379.26   16.10
   3  -7   0  388.76   15.60
   3  -7   0  388.66   16.30
   3  -7   0  373.66   16.80
  -3   7   0  388.46   15.40
  -3   7   0  361.06   15.40
  -3   7   0  369.66   15.30
  -3   7   0  386.26   15.20
   2  -7   0  718.33   27.80
   2  -7   0  682.63   27.70
   2  -7   0  680.23   27.40
   2  -7   0  645.34   28.00
   2  -7   0  691.13   27.10
   2  -7   0  693.23   29.00
  -2   7   0  663.83   26.10
  -2   7   0  687.63   26.10
  -2   7   0  674.93   26.00
  -2   7   0  615.74   29.10
   1  -7   0 1069.09   43.50
   1  -7   0 1129.59   43.20
   1  -7   0 1106.39   42.60
   1  -7   0 1113.19   43.10
   1  -7   0 1049.40   42.70
  -1   7   0 1057.69   41.20
  -1   7   0 1073.69   40.60
  -1   7   0 1039.20   45.10
  -1   7   0 1019.60   40.60
   0  -7   0 2359.56   89.79
   0  -7   0 2407.06   90.19
   0  -7   0 2305.97   89.39
   0  -7   0 2329.97   90.19
   0  -7   0 2248.08   89.29
   0  -7   0 2329.17   89.79
   0   7   0 2207.18   86.09
   0   7   0 2264.77   86.39
   0   7   0 2329.67   86.19
   0   7   0 2228.18   86.09
  -1  -7   0  868.71   36.00
  -1  -7   0  909.01   36.30
  -1  -7   0  943.31   36.30
  -1  -7   0  948.11   36.10
  -1  -7   0  919.11   36.50
   1   7   0  937.11   35.70
   1   7   0  907.71   35.70
   1   7   0  951.30   36.00
   1   7   0  913.91   37.40
   1   7   0  896.21   36.70
   1   7   0  912.61   35.70
  -2  -7   0 2879.41  107.99
  -2  -7   0 2793.42  108.29
  -2  -7   0 2827.12  108.49
  -2  -7   0 2796.62  108.19
   2   7   0 2925.11  107.99
   2   7   0 2813.62  107.89
   2   7   0 2803.92  108.19
   2   7   0 2838.02  109.69
   2   7   0 2793.02  107.89
  -3  -7   0 1998.80   78.09
  -3  -7   0 2095.19   78.49
  -3  -7   0 1982.60   78.89
   3   7   0 2019.70   77.39
   3   7   0 2049.09   76.99
   3   7   0 2056.99   76.89
   3   7   0 1999.00   77.49
   3   7   0 1944.71   78.89
  -4  -7   0 1299.47   53.59
  -4  -7   0 1369.46   52.89
  -4  -7   0 1393.36   53.29
   4   7   0 1356.46   52.89
   4   7   0 1466.65   56.89
   4   7   0 1366.86   52.49
   4   7   0 1269.87   52.79
   4   7   0 1355.06   52.29
   4   7   0 1366.46   52.29
  -5  -7   0  795.32   32.70
  -5  -7   0  800.82   32.20
  -5  -7   0  793.32   31.80
   5   7   0  848.42   33.80
   5   7   0  881.51   33.50
   5   7   0  879.11   34.10
   5   7   0  924.31   34.40
   5   7   0  882.71   34.40
   5   7   0  812.12   36.50
  -6  -7   0  400.66   16.50
  -6  -7   0  404.16   16.90
  -6  -7   0  374.86   17.30
   6   7   0  436.06   17.60
   6   7   0  447.16   17.20
   6   7   0  434.86   17.50
   6   7   0  397.06   17.20
  -7  -7   0  175.38    9.50
  -7  -7   0  166.18    8.00
  -7  -7   0  180.38    8.00
   7   7   0  192.98    8.60
   7   7   0  211.08    8.70
   7   7   0  198.88    8.40
   3  -8   0    2.90    1.20
   3  -8   0    4.70    1.40
  -3   8   0    1.00    1.30
  -3   8   0    1.80    1.00
   2  -8   0  121.29    6.20
   2  -8   0  115.89    6.00
   2  -8   0  105.19    8.40
   2  -8   0  120.59    6.60
   2  -8   0  119.99    7.00
   2  -8   0  117.59    5.40
  -2   8   0  117.59    5.40
  -2   8   0  106.79    5.50
  -2   8   0  114.49    5.60
  -2   8   0  119.29    5.50
   1  -8   0   14.80    2.50
   1  -8   0   20.40    3.90
   1  -8   0   17.20    3.50
   1  -8   0   19.10    3.00
  -1   8   0   13.70    2.10
  -1   8   0   13.60    1.90
   0  -8   0    4.40    1.10
   0  -8   0    5.60    1.70
   0  -8   0    4.70    1.70
   0   8   0    5.70    1.30
   0   8   0    3.30    4.00
   0   8   0    7.70    1.50
   0   8   0    6.20    1.20
  -1  -8   0   24.30    2.40
  -1  -8   0   24.50    3.40
  -1  -8   0   18.80    2.90
  -1  -8   0   21.60    3.10
   1   8   0   25.50    2.00
   1   8   0   23.70    2.20
   1   8   0   23.90    2.30
   1   8   0   22.70    2.20
   1   8   0   23.00    5.50
  -2  -8   0   26.00    3.20
  -2  -8   0   29.30    2.90
   2   8   0   25.80    5.60
   2   8   0   34.90    2.30
   2   8   0   31.90    2.50
   2   8   0   32.40    2.70
   2   8   0   31.00    2.40
  -3  -8   0  185.98    8.80
  -3  -8   0  169.38    8.40
   3   8   0  183.18    8.60
   3   8   0  181.18    8.40
   3   8   0  193.08    8.30
   3   8   0  194.38    7.90
   3   8   0  183.58    8.10
   3   8   0  189.08    8.00
   3   8   0  160.98   14.30
  -4  -8   0   47.30    3.40
  -4  -8   0   44.70    3.80
   4   8   0   45.20    2.50
   4   8   0   45.30    3.00
   4   8   0   43.90    4.30
   4   8   0   45.80    3.20
   4   8   0   43.00    2.90
  -5  -8   0  128.39    6.60
  -5  -8   0  131.99    6.80
  -5  -8   0  132.69    7.90
   5   8   0  145.89    6.90
   5   8   0  148.19    6.60
   5   8   0  127.69    5.90
   5   8   0  148.99    6.80
  -6  -8   0   37.70    3.00
  -6  -8   0   31.90    3.00
   6   8   0   34.40    2.60
   6   8   0   38.60    2.80
   6   8   0   38.30    2.60
  -7  -8   0    6.50    2.50
   7   8   0    9.30    1.40
   7   8   0   10.40    2.30
   2  -9   0   34.10    3.00
  -2   9   0   38.10    2.20
  -2   9   0   33.50    2.80
  -2   9   0   37.00    2.60
   1  -9   0  129.19    6.90
   1  -9   0  122.89    6.10
   1  -9   0  126.49    5.50
   1  -9   0  128.69    6.70
  -1   9   0  127.69    5.50
  -1   9   0  129.49    5.80
  -1   9   0  124.39    5.70
  -1   9   0  114.39    6.10
   0  -9   0  104.49    5.50
   0  -9   0   99.39    5.90
   0  -9   0  105.29    5.00
   0  -9   0  106.19    6.10
   0   9   0   96.09    5.10
   0   9   0  107.89    4.80
   0   9   0   99.99    5.10
   0   9   0  100.69    4.90
  -1  -9   0   43.20    3.50
  -1  -9   0   42.40    2.90
  -1  -9   0   37.40    3.60
   1   9   0   43.00    3.20
   1   9   0   42.00    2.90
   1   9   0   42.10    2.60
   1   9   0   42.80    2.70
  -2  -9   0    3.40    1.10
  -2  -9   0    5.00    1.10
  -2  -9   0    7.20    1.60
   2   9   0    7.10    1.30
   2   9   0    9.80    1.80
   2   9   0    5.30    1.00
   2   9   0    3.40    1.70
  -3  -9   0    3.00    1.20
  -3  -9   0    1.60    1.30
   3   9   0    4.10    1.30
   3   9   0    4.10    1.30
   3   9   0    3.50    0.90
  -4  -9   0   21.40    2.70
  -4  -9   0   18.90    2.50
   4   9   0   20.90    2.00
   4   9   0   18.50    1.70
   4   9   0   16.40    2.40
   4   9   0   21.80    3.50
  -5  -9   0   34.20    2.80
  -5  -9   0   33.20    2.80
   5   9   0   39.30    4.10
   5   9   0   43.50    2.60
   5   9   0   37.10    2.70
  -6  -9   0    1.90    1.70
  -6  -9   0    1.90    1.10
   6   9   0    0.70    1.20
   6   9   0    2.50    1.10
   6   9   0    0.50    0.70
  -1 -10   0  337.87   14.80
  -1 -10   0  355.06   14.20
  -1 -10   0  347.97   14.50
  -1 -10   0  353.66   13.80
   1  10   0  394.56   14.80
   1  10   0  325.27   14.30
   1  10   0  354.26   14.00
   1  10   0  359.76   14.30
  -2 -10   0   83.89    4.80
  -2 -10   0   83.99    4.40
  -2 -10   0   90.79    4.10
   2  10   0   84.29    3.60
   2  10   0   83.29    3.90
   2  10   0   63.59    4.70
  -3 -10   0  121.59    6.00
  -3 -10   0  122.89    5.80
  -3 -10   0  122.29    5.50
   3  10   0  112.59    5.10
  -4 -10   0   42.30    3.00
  -4 -10   0   37.50    2.70
  -4 -10   0   41.80    2.60
   4  10   0   39.60    2.30
   2  10  -1   22.30    2.00
  -2 -10   1   25.10    2.10
  -2 -10   1   21.70    1.70
   5   9  -1   33.30    3.80
   5   9  -1   29.60    2.40
   5   9  -1   30.40    2.10
  -5  -9   1   28.10    2.50
  -5  -9   1   28.40    2.50
   4   9  -1   22.20    3.00
   4   9  -1   21.20    1.90
   4   9  -1   22.10    2.60
  -4  -9   1   22.00    2.40
  -4  -9   1   22.70    2.50
   3   9  -1   47.60    2.60
   3   9  -1   43.50    5.60
   3   9  -1   51.59    3.20
  -3  -9   1   49.20    3.70
  -3  -9   1   46.10    3.40
  -3  -9   1   47.80    3.20
   2   9  -1  128.39    6.50
   2   9  -1  128.09    6.10
   2   9  -1  132.79    5.60
  -2  -9   1  135.79    6.60
  -2  -9   1  135.99    6.40
  -2  -9   1  131.29    6.80
   1   9  -1   12.10    1.50
   1   9  -1   10.00    1.90
   1   9  -1   16.80    2.30
  -1  -9   1   13.30    1.80
  -1  -9   1   16.00    2.50
  -1  -9   1   14.80    2.30
   0   9  -1    3.00    1.40
   0   9  -1    3.90    0.90
   0   9  -1    0.60    1.40
   0   9  -1    1.90    0.90
   0  -9   1    2.80    0.90
   0  -9   1    2.60    1.30
   0  -9   1    3.10    1.60
  -1   9  -1  326.57   12.50
  -1   9  -1  314.87   12.70
  -1   9  -1  303.87   12.80
   1  -9   1  324.37   12.60
   1  -9   1  329.07   13.80
   1  -9   1  289.97   12.90
   1  -9   1  323.87   13.00
   6   8  -1  164.68    8.40
   6   8  -1  195.68    8.50
   6   8  -1  201.98    8.20
  -6  -8   1  189.28    8.50
  -6  -8   1  187.18    8.40
   5   8  -1  188.28    8.20
   5   8  -1  188.98    8.40
  -5  -8   1  178.78    8.30
  -5  -8   1  172.88    8.40
   4   8  -1  146.29    6.80
   4   8  -1  136.69    6.00
   4   8  -1  147.49    6.90
   4   8  -1  138.39    7.20
  -4  -8   1  160.28    8.60
  -4  -8   1  126.99    8.70
   3   8  -1  158.88    6.50
   3   8  -1  137.69    8.30
   3   8  -1  150.98    6.70
   3   8  -1  156.18    7.00
  -3  -8   1  161.68    7.60
  -3  -8   1  139.89    8.40
  -3  -8   1  146.29    7.30
   2   8  -1  341.47   13.60
   2   8  -1  338.97   14.10
   2   8  -1  335.17   14.70
   2   8  -1  330.77   13.90
   2   8  -1  347.87   13.80
  -2  -8   1  326.17   14.40
  -2  -8   1  330.67   14.30
  -2  -8   1  353.16   14.60
   1   8  -1   70.09    4.00
   1   8  -1   68.79    3.90
   1   8  -1   71.89    3.60
   1   8  -1   71.99    3.80
  -1  -8   1   72.59    4.70
  -1  -8   1   66.49    4.50
  -1  -8   1   78.89    4.30
  -1  -8   1   75.79    5.00
   0   8  -1   34.00    2.90
   0   8  -1   38.20    2.60
   0   8  -1   35.60    2.60
   0   8  -1   32.90    3.00
   0  -8   1   37.40    4.10
   0  -8   1   40.80    4.10
   0  -8   1   33.50    3.50
   0  -8   1   37.00    2.90
  -1   8  -1   30.00    2.30
  -1   8  -1   26.80    2.70
  -1   8  -1   26.20    3.00
  -1   8  -1   25.80    2.50
   1  -8   1   29.40    3.00
   1  -8   1   26.90    2.50
   1  -8   1   28.10    3.00
   1  -8   1   31.90    4.50
  -2   8  -1    8.20    1.50
  -2   8  -1    9.70    1.60
  -2   8  -1   11.20    1.80
  -2   8  -1    7.60    2.30
   2  -8   1    6.60    1.60
   2  -8   1    5.30    1.30
   2  -8   1    5.60    1.10
  -3   8  -1   62.19    2.90
  -3   8  -1   57.59    3.10
  -3   8  -1   54.59    3.80
   3  -8   1   59.39    3.90
   3  -8   1   49.70    3.20
   7   7  -1  493.05   20.30
   7   7  -1  504.45   20.40
   7   7  -1  546.55   20.50
  -7  -7   1  450.05   18.30
  -7  -7   1  455.45   18.40
   6   7  -1  585.64   23.30
   6   7  -1  612.14   23.10
   6   7  -1  538.65   22.90
   6   7  -1  598.34   23.40
  -6  -7   1  520.15   21.50
  -6  -7   1  518.45   22.20
  -6  -7   1  531.65   21.40
   5   7  -1  520.65   20.70
   5   7  -1  506.15   20.50
   5   7  -1  511.25   20.80
  -5  -7   1  463.15   19.20
  -5  -7   1  457.95   19.80
  -5  -7   1  439.16   18.80
   4   7  -1  911.31   34.50
   4   7  -1  858.81   34.60
   4   7  -1  822.52   36.60
   4   7  -1  934.01   35.20
   4   7  -1  927.51   35.10
   4   7  -1  914.11   35.20
  -4  -7   1  884.61   35.30
  -4  -7   1  867.01   34.50
  -4  -7   1  813.32   34.40
  -4  -7   1  898.41   34.80
   3   7  -1  481.85   19.70
   3   7  -1  506.35   20.10
   3   7  -1  495.15   20.20
   3   7  -1  483.15   21.40
   3   7  -1  501.25   20.10
   3   7  -1  512.15   19.60
   3   7  -1  494.45   19.60
  -3  -7   1  465.75   20.10
  -3  -7   1  483.05   20.30
  -3  -7   1  504.15   20.10
   2   7  -1  950.00   41.00
   2   7  -1 1008.00   38.00
   2   7  -1  946.21   37.80
   2   7  -1  980.10   37.60
   2   7  -1  973.30   38.10
   2   7  -1  992.40   37.50
   2   7  -1  936.41   37.60
  -2  -7   1  987.60   38.50
  -2  -7   1  970.60   38.60
  -2  -7   1  953.30   38.50
   1   7  -1 1421.66   52.69
   1   7  -1 1381.06   52.59
   1   7  -1 1360.16   52.59
   1   7  -1 1292.87   54.39
   1   7  -1 1349.96   54.39
   1   7  -1 1405.26   52.99
  -1  -7   1 1458.45   56.09
  -1  -7   1 1421.76   56.29
  -1  -7   1 1447.06   56.29
   0   7  -1  986.40   37.10
   0   7  -1  988.40   37.10
   0   7  -1  932.11   37.30
   0   7  -1  917.31   37.10
   0  -7   1  943.81   37.80
   0  -7   1  947.31   37.40
   0  -7   1  962.90   37.70
   0  -7   1  948.41   38.00
  -1   7  -1   77.29    4.30
  -1   7  -1   74.79    4.10
  -1   7  -1   71.99    4.00
  -1   7  -1   73.89    3.80
  -1   7  -1   68.09    6.40
   1  -7   1   77.89    4.30
   1  -7   1   75.49    4.90
   1  -7   1   74.49    4.80
   1  -7   1   74.09    5.20
  -2   7  -1 1159.68   44.80
  -2   7  -1 1173.88   45.20
  -2   7  -1 1191.18   44.90
  -2   7  -1 1105.09   44.70
   2  -7   1 1153.78   45.50
   2  -7   1 1081.29   47.40
   2  -7   1 1200.88   46.30
   2  -7   1 1215.78   46.00
  -3   7  -1   40.50    2.80
  -3   7  -1   40.60    2.70
  -3   7  -1   37.50    3.40
  -3   7  -1   49.70    3.10
   3  -7   1   38.40    2.60
   3  -7   1   36.70    3.20
   3  -7   1   35.80    3.80
  -4   7  -1  706.33   27.90
  -4   7  -1  776.12   28.00
  -4   7  -1  690.63   28.10
   4  -7   1  757.42   30.50
   4  -7   1  800.42   31.10
   8   6  -1  479.05   19.00
   8   6  -1  493.05   19.00
  -8  -6   1  407.26   17.20
   7   6  -1  360.46   14.60
   7   6  -1  360.56   14.50
   7   6  -1  346.17   14.30
  -7  -6   1  324.27   14.20
  -7  -6   1  360.96   18.50
  -7  -6   1  311.07   14.10
   6   6  -1  605.64   23.70
   6   6  -1  620.64   24.10
   6   6  -1  572.44   23.90
  -6  -6   1  523.75   23.90
  -6  -6   1  600.14   24.40
  -6  -6   1  576.14   24.60
  -6  -6   1  642.44   25.30
   5   6  -1  225.48    9.70
   5   6  -1  235.58    9.90
   5   6  -1  205.28   11.60
   5   6  -1  228.98    9.60
   5   6  -1  219.08    9.90
  -5  -6   1  219.28   10.40
  -5  -6   1  207.48   12.00
  -5  -6   1  213.58   10.00
  -5  -6   1  221.28    9.30
   4   6  -1  877.91   33.90
   4   6  -1  847.52   33.20
   4   6  -1  864.61   34.00
   4   6  -1  869.41   33.80
   4   6  -1  886.11   33.30
   4   6  -1  839.22   33.50
   4   6  -1  847.92   35.00
  -4  -6   1  808.42   33.40
  -4  -6   1  804.82   34.10
  -4  -6   1  803.62   32.00
  -4  -6   1  880.71   33.40
  -4  -6   1  810.82   32.80
   3   6  -1  824.62   31.00
   3   6  -1  794.72   31.50
   3   6  -1  806.62   32.40
   3   6  -1  804.32   31.10
   3   6  -1  770.42   31.50
   3   6  -1  801.42   31.00
   3   6  -1  800.12   31.40
  -3  -6   1  811.92   31.40
  -3  -6   1  743.63   31.70
  -3  -6   1  789.92   30.90
  -3  -6   1  753.82   31.50
   2   6  -1 1266.67   48.90
   2   6  -1 1273.67   49.30
   2   6  -1 1328.97   50.29
   2   6  -1 1240.58   48.90
   2   6  -1 1259.47   49.50
   2   6  -1 1282.67   49.40
   2   6  -1 1275.57   49.00
  -2  -6   1 1290.27   50.69
  -2  -6   1 1305.07   50.59
  -2  -6   1 1269.57   50.59
  -2  -6   1 1302.77   50.09
  -2  -6   1 1289.97   50.29
   1   6  -1  240.58   10.10
   1   6  -1  256.57   10.10
   1   6  -1  235.58   10.40
   1   6  -1  246.58   11.10
   1   6  -1  240.78   10.00
   1   6  -1  245.38   11.30
  -1  -6   1  234.28   13.20
  -1  -6   1  251.37   10.70
  -1  -6   1  242.68   11.10
  -1  -6   1  257.57   11.30
  -1  -6   1  244.78   10.90
   0   6  -1  201.28    8.40
   0   6  -1  196.28    9.50
   0   6  -1  194.48    8.40
   0   6  -1  196.08    9.70
   0   6  -1  201.88    8.70
   0   6  -1  203.08    8.40
   0  -6   1  191.68    8.90
   0  -6   1  199.48    9.00
   0  -6   1  200.68    9.50
   0  -6   1  205.48    9.40
   0  -6   1  202.78    9.30
   0  -6   1  193.18    9.60
  -1   6  -1   16.10    3.10
  -1   6  -1   15.60    2.60
  -1   6  -1   15.50    1.80
  -1   6  -1   18.10    1.80
  -1   6  -1   16.90    1.90
   1  -6   1   18.90    2.90
   1  -6   1   12.80    3.60
   1  -6   1   13.10    2.10
   1  -6   1   19.30    4.20
   1  -6   1   10.60    2.00
   1  -6   1   16.00    2.70
  -2   6  -1  185.98    8.10
  -2   6  -1  185.18    8.10
  -2   6  -1  189.08   12.00
  -2   6  -1  175.18    8.00
   2  -6   1  201.68    9.20
   2  -6   1  183.28    9.00
   2  -6   1  180.78    9.10
   2  -6   1  193.58    8.60
   2  -6   1  176.08    9.50
   2  -6   1  193.18    9.60
  -3   6  -1  277.27   11.80
  -3   6  -1  296.27   12.10
  -3   6  -1  285.77   12.00
  -3   6  -1  279.97   12.00
   3  -6   1  298.27   13.00
   3  -6   1  302.57   12.70
   3  -6   1  294.77   14.30
   3  -6   1  313.87   13.50
   3  -6   1  299.27   13.20
  -4   6  -1  321.77   14.10
  -4   6  -1  352.26   13.80
  -4   6  -1  342.67   14.00
  -4   6  -1  346.77   13.80
   4  -6   1  347.37   14.80
   4  -6   1  351.36   14.50
   4  -6   1  378.36   15.30
   4  -6   1  348.37   15.90
  -5   6  -1    4.50    0.90
  -5   6  -1    4.60    1.60
  -5   6  -1    2.90    1.00
   5  -6   1    3.00    1.10
   5  -6   1    5.00    1.90
   8   5  -1  106.29    5.80
   8   5  -1   98.99    4.60
   8   5  -1   97.49    4.60
  -8  -5   1   87.79    4.80
   7   5  -1    7.00    1.50
   7   5  -1    3.80    1.00
   7   5  -1    4.10    1.00
  -7  -5   1    8.20    3.10
  -7  -5   1    6.90    3.20
  -7  -5   1    0.50    2.40
  -7  -5   1    4.70    1.50
  -7  -5   1    2.60    1.50
   6   5  -1  436.86   17.60
   6   5  -1  399.76   19.70
   6   5  -1  438.26   17.80
   6   5  -1  469.85   18.10
  -6  -5   1  408.66   16.70
  -6  -5   1  385.16   16.60
  -6  -5   1  401.26   17.50
  -6  -5   1  418.96   17.80
  -6  -5   1  369.16   19.40
  -6  -5   1  392.86   17.00
  -6  -5   1  414.26   16.50
   5   5  -1  205.48    9.10
   5   5  -1  205.38    8.90
   5   5  -1  207.68   10.50
   5   5  -1  210.48    9.30
   5   5  -1  205.38    9.10
  -5  -5   1  198.18    9.40
  -5  -5   1  194.68    8.80
  -5  -5   1  193.58    8.70
  -5  -5   1  184.88    8.70
  -5  -5   1  189.88    9.70
  -5  -5   1  192.18   10.50
  -5  -5   1  182.08    9.80
   4   5  -1  199.58    9.90
   4   5  -1  214.08    8.80
   4   5  -1  224.38   10.30
   4   5  -1  219.88    9.20
   4   5  -1  211.78    9.50
  -4  -5   1  207.88   10.30
  -4  -5   1  215.78    9.40
  -4  -5   1  214.58    9.20
  -4  -5   1  218.48   10.40
  -4  -5   1  203.88    9.30
  -4  -5   1  207.68   10.70
   3   5  -1 1351.96   46.20
   3   5  -1 1070.49   47.30
   3   5  -1 1140.69   46.30
   3   5  -1 1162.48   45.70
   3   5  -1 1168.88   45.30
   3   5  -1 1187.78   45.20
  -3  -5   1 1123.29   43.40
  -3  -5   1 1125.79   44.90
  -3  -5   1 1134.39   43.80
  -3  -5   1 1132.69   43.50
  -3  -5   1 1186.48   44.40
  -3  -5   1 1033.00   44.00
  -3  -5   1 1125.39   44.60
  -3  -5   1 1161.18   44.60
   2   5  -1   91.19    4.00
   2   5  -1   87.79    4.10
   2   5  -1   93.39    4.10
   2   5  -1   78.69    4.70
   2   5  -1   81.79    6.60
   2   5  -1   96.19    5.10
   2   5  -1   92.49    4.80
  -2  -5   1   81.49    5.20
  -2  -5   1   86.79    5.00
  -2  -5   1   80.99    4.50
  -2  -5   1   80.39    5.30
  -2  -5   1   87.99    4.70
  -2  -5   1   81.29    4.50
   1   5  -1  185.28    8.40
   1   5  -1  180.38    7.50
   1   5  -1  168.08    7.50
   1   5  -1  186.98    7.50
   1   5  -1  177.98    8.20
  -1  -5   1  175.88    9.40
  -1  -5   1  170.98    8.00
  -1  -5   1  181.68    8.50
  -1  -5   1  181.78    7.90
  -1  -5   1  184.48    8.30
  -1  -5   1  174.48    8.40
  -1  -5   1  168.88    8.10
   0   5  -1  321.67   13.90
   0   5  -1  312.37   13.40
   0   5  -1  345.37   13.10
   0   5  -1  330.17   13.10
   0  -5   1  343.17   13.80
   0  -5   1  308.67   13.40
   0  -5   1  305.57   14.80
   0  -5   1  329.27   13.30
   0  -5   1  314.77   13.70
   0  -5   1  323.77   13.80
  -1   5  -1  380.66   16.30
  -1   5  -1  362.86   15.50
  -1   5  -1  397.86   15.30
  -1   5  -1  379.46   15.30
  -1   5  -1  399.36   15.30
   1  -5   1  458.55   18.40
   1  -5   1  388.96   16.90
   1  -5   1  425.46   17.00
   1  -5   1  415.46   17.50
   1  -5   1  419.86   17.40
   1  -5   1  428.86   17.40
   1  -5   1  396.26   17.30
   1  -5   1  396.26   17.70
  -2   5  -1   84.19    5.10
  -2   5  -1   91.59    4.30
  -2   5  -1   86.29    4.30
  -2   5  -1   83.99    5.20
   2  -5   1   80.39    5.90
   2  -5   1   82.89    5.00
   2  -5   1   72.69    9.40
   2  -5   1   82.19    6.30
   2  -5   1   81.79    4.50
   2  -5   1   83.19    5.00
   2  -5   1   82.69    5.10
   2  -5   1   87.59    5.30
  -3   5  -1  506.15   20.00
  -3   5  -1  487.25   21.20
  -3   5  -1  500.15   19.90
  -3   5  -1  492.45   20.00
  -3   5  -1  501.35   20.00
   3  -5   1  555.04   22.40
   3  -5   1  543.55   31.40
   3  -5   1  504.25   22.50
   3  -5   1  530.65   22.30
   3  -5   1  520.55   21.80
   3  -5   1  532.65   21.70
   3  -5   1  551.84   23.40
   3  -5   1  554.94   22.30
   3  -5   1  537.85   22.10
  -4   5  -1  349.77   14.40
  -4   5  -1  350.56   14.30
  -4   5  -1  337.67   16.20
  -4   5  -1  357.36   14.60
  -4   5  -1  354.06   14.90
   4  -5   1  371.06   15.30
   4  -5   1  354.26   15.40
   4  -5   1  373.26   16.80
   4  -5   1  367.36   15.50
   4  -5   1  373.26   15.90
  -5   5  -1  126.79    6.60
  -5   5  -1  132.59    6.30
  -5   5  -1  136.09    6.10
   5  -5   1  132.79    6.80
   5  -5   1  128.79    6.50
   5  -5   1  146.69    7.80
   5  -5   1  139.69    6.20
   5  -5   1  137.89    6.90
   8   4  -1   89.09    4.40
   8   4  -1   95.49    4.40
   8   4  -1   99.09    4.80
  -8  -4   1   80.29    4.80
  -8  -4   1   83.09    4.10
  -8  -4   1   73.69    6.50
   7   4  -1  106.29    5.80
   7   4  -1  108.59    5.70
   7   4  -1  116.19    5.40
   7   4  -1  114.89    5.40
  -7  -4   1  104.49    7.00
  -7  -4   1   98.09    5.70
  -7  -4   1   98.89    5.60
   6   4  -1  189.48   11.10
   6   4  -1  208.38    9.00
   6   4  -1  205.08    9.10
   6   4  -1  210.68    8.90
   6   4  -1  193.58    9.00
   6   4  -1  201.98   11.60
  -6  -4   1  224.08   15.20
  -6  -4   1  200.38   10.30
  -6  -4   1  185.88    9.30
  -6  -4   1  197.28    9.50
  -6  -4   1  193.48   10.00
  -6  -4   1  204.38    9.30
   5   4  -1  263.17   12.30
   5   4  -1  261.57   11.10
   5   4  -1  247.08   11.40
   5   4  -1  271.27   11.40
   5   4  -1  275.67   11.30
   5   4  -1  259.37   13.20
  -5  -4   1  250.47   12.60
  -5  -4   1  254.17   11.40
  -5  -4   1  256.67   11.30
  -5  -4   1  261.87   12.20
  -5  -4   1  260.97   11.40
   4   4  -1  340.37   13.30
   4   4  -1  346.87   14.20
   4   4  -1  330.37   13.40
   4   4  -1  325.27   13.70
   4   4  -1  317.57   15.50
   4   4  -1  337.57   14.60
   4   4  -1  372.76   15.80
   4   4  -1  323.97   14.90
  -4  -4   1  331.67   13.90
  -4  -4   1  335.67   14.60
  -4  -4   1  340.27   15.10
  -4  -4   1  341.97   13.90
  -4  -4   1  312.57   14.30
   3   4  -1    3.90    1.20
   3   4  -1    4.40    2.20
   3   4  -1    4.10    0.90
   3   4  -1    2.40    1.70
   3   4  -1    4.10    1.20
   3   4  -1    2.80    0.60
   3   4  -1    5.10    1.10
   3   4  -1    2.80    1.00
  -3  -4   1    4.60    1.40
  -3  -4   1    4.40    1.80
  -3  -4   1    5.10    1.90
  -3  -4   1    2.80    1.30
  -3  -4   1    3.30    2.20
  -3  -4   1    4.90    1.00
   2   4  -1 1062.29   40.20
   2   4  -1 1020.20   40.80
   2   4  -1 1002.40   39.30
  -2  -4   1 1001.30   40.00
  -2  -4   1 1006.40   40.00
  -2  -4   1 1027.60   38.70
  -2  -4   1 1039.60   39.60
   1   4  -1  452.15   18.60
   1   4  -1  493.65   19.30
   1   4  -1  489.85   18.60
   1   4  -1  477.25   19.20
  -1  -4   1  458.85   19.50
  -1  -4   1  445.46   18.60
  -1  -4   1  488.95   19.20
  -1  -4   1  499.35   19.20
  -1  -4   1  496.95   19.20
  -1  -4   1  476.35   18.60
   0   4  -1   37.70    2.00
   0   4  -1   37.40    2.10
   0   4  -1   40.20    2.50
   0  -4   1   35.20    2.20
   0  -4   1   35.20    2.30
   0  -4   1   36.10    2.50
  -1   4  -1    9.10    1.50
  -1   4  -1    6.80    2.40
  -1   4  -1    9.60    1.00
  -1   4  -1   10.10    1.50
   1  -4   1    9.30    1.50
   1  -4   1    6.90    1.50
   1  -4   1    6.30    1.30
   1  -4   1    6.20    2.40
   1  -4   1   10.80    2.40
   1  -4   1    9.10    1.70
   1  -4   1   10.30    1.90
   1  -4   1    9.40    2.20
  -2   4  -1  472.05   18.40
  -2   4  -1  467.75   18.40
  -2   4  -1  462.65   19.20
   2  -4   1  455.35   20.90
   2  -4   1  395.66   18.80
   2  -4   1  481.15   18.70
   2  -4   1  456.95   18.50
   2  -4   1  489.65   18.60
   2  -4   1  433.76   18.50
  -3   4  -1  345.87   14.20
  -3   4  -1  330.37   14.80
  -3   4  -1  350.56   14.40
  -3   4  -1  348.07   15.10
  -3   4  -1  378.56   14.40
   3  -4   1  366.66   19.00
   3  -4   1  365.56   16.70
   3  -4   1  359.06   15.10
   3  -4   1  360.56   15.50
   3  -4   1  364.26   15.50
   3  -4   1  371.66   15.60
   3  -4   1  365.76   15.60
   3  -4   1  367.96   15.40
  -4   4  -1  453.25   18.40
  -4   4  -1  449.06   18.40
  -4   4  -1  443.36   19.70
  -4   4  -1  463.15   18.30
  -4   4  -1  460.25   18.40
   4  -4   1  475.85   20.80
   4  -4   1  439.36   25.40
   4  -4   1  441.36   20.20
   4  -4   1  476.05   19.20
   4  -4   1  490.55   19.50
   4  -4   1  486.75   19.50
   4  -4   1  481.65   19.80
  -5   4  -1  294.07   12.50
  -5   4  -1  303.07   12.90
  -5   4  -1  307.57   12.80
   5  -4   1  328.07   13.60
   5  -4   1  272.57   26.30
   5  -4   1  302.67   14.60
   5  -4   1  324.07   16.80
   5  -4   1  320.77   13.00
   5  -4   1  288.47   14.00
  -6   4  -1   14.40    2.60
  -6   4  -1   12.30    2.00
  -6   4  -1    8.80    2.60
  -6   4  -1   13.40    2.30
   6  -4   1   14.40    1.60
   6  -4   1   11.00    2.10
   6  -4   1   11.60    2.00
   8   3  -1   73.39    3.60
   8   3  -1   69.09    4.00
   8   3  -1   69.29    3.60
  -8  -3   1   67.69    4.00
   7   3  -1  194.78    8.80
   7   3  -1  193.78    8.60
   7   3  -1  198.98    8.60
  -7  -3   1  186.88    8.70
  -7  -3   1  197.38   15.90
  -7  -3   1  179.28    8.90
  -7  -3   1  181.08    9.80
  -7  -3   1  178.38    9.10
   6   3  -1  852.11   37.40
   6   3  -1  957.60   36.00
   6   3  -1  970.20   36.10
   6   3  -1  901.51   39.50
   6   3  -1  915.91   35.90
   6   3  -1  908.21   36.00
  -6  -3   1  851.51   36.10
  -6  -3   1  916.41   35.40
  -6  -3   1  910.21   35.20
  -6  -3   1  849.72   37.00
  -6  -3   1  916.81   35.40
   5   3  -1  192.18    8.90
   5   3  -1  178.78    9.10
   5   3  -1  188.18   10.00
   5   3  -1  185.48   10.00
   5   3  -1  208.58    9.60
   5   3  -1  211.08   11.70
   5   3  -1  202.38    8.70
  -5  -3   1  193.18    9.60
  -5  -3   1  188.28    9.90
  -5  -3   1  210.48    9.10
  -5  -3   1  195.88    8.80
  -5  -3   1  183.58   10.00
   4   3  -1 1047.10   38.40
   4   3  -1  933.71   38.60
   4   3  -1  976.90   39.10
   4   3  -1  917.01   39.20
   4   3  -1  964.60   37.70
   4   3  -1  996.50   38.80
   4   3  -1  941.31   37.50
   4   3  -1  980.90   37.70
  -4  -3   1  950.90   38.10
  -4  -3   1  939.11   38.10
  -4  -3   1 1011.00   39.20
  -4  -3   1  997.60   38.00
   3   3  -1  127.29    5.40
   3   3  -1  129.99    6.20
   3   3  -1  129.59    6.10
  -3  -3   1  108.39    6.10
  -3  -3   1  124.69    5.40
  -3  -3   1  118.29    5.70
   2   3  -1  219.08    8.40
   2   3  -1  202.98    9.30
   2   3  -1  205.58    8.50
   2   3  -1  217.08    9.00
  -2  -3   1  222.98    9.50
  -2  -3   1  209.68    9.00
   1   3  -1  314.57   12.90
   1   3  -1  307.87   12.40
   1   3  -1  331.37   12.90
  -1  -3   1  317.87   12.80
  -1  -3   1  318.87   12.80
  -1  -3   1  325.17   13.00
  -1  -3   1  317.97   12.20
  -1  -3   1  317.17   12.60
   0   3  -1 2654.83   98.49
   0   3  -1 2512.35   97.89
   0  -3   1 2822.52  102.79
   0  -3   1 2385.76  101.99
   0  -3   1 2728.73  101.79
   0  -3   1 2702.73  102.19
   0  -3   1 2785.22  102.19
  -1   3  -1  739.73   28.20
  -1   3  -1  727.43   28.30
  -1   3  -1  696.13   27.30
  -1   3  -1  715.23   27.60
   1  -3   1  763.22   29.30
   1  -3   1  755.02   29.30
   1  -3   1  734.73   30.60
  -2   3  -1  836.62   31.60
  -2   3  -1  764.22   32.50
  -2   3  -1  859.01   32.30
  -2   3  -1  816.32   31.30
  -2   3  -1  831.82   31.60
   2  -3   1  836.82   33.90
   2  -3   1  893.81   35.60
   2  -3   1  941.11   33.80
   2  -3   1  831.52   33.10
   2  -3   1  822.42   33.90
   2  -3   1  851.01   33.70
  -3   3  -1   39.30    2.30
  -3   3  -1   40.00    2.70
  -3   3  -1   36.40    3.00
  -3   3  -1   36.40    2.50
  -3   3  -1   37.40    3.40
   3  -3   1   39.00    5.30
   3  -3   1   35.80    3.40
   3  -3   1   40.50    3.00
   3  -3   1   39.60    2.70
   3  -3   1   34.60    5.10
   3  -3   1   35.60    4.80
   3  -3   1   38.90    3.20
   3  -3   1   42.80    4.70
   3  -3   1   37.50    3.60
  -4   3  -1  717.43   27.60
  -4   3  -1  708.73   27.60
  -4   3  -1  726.23   27.60
  -4   3  -1  640.14   27.50
  -4   3  -1  705.83   28.40
   4  -3   1  694.33   28.70
   4  -3   1  755.42   29.10
   4  -3   1  734.43   29.00
   4  -3   1  700.03   32.90
   4  -3   1  747.03   30.30
   4  -3   1  712.83   29.20
   4  -3   1  730.83   29.90
  -5   3  -1    4.30    1.70
  -5   3  -1    5.30    2.10
  -5   3  -1    6.10    1.40
  -5   3  -1    8.90    1.80
   5  -3   1    3.60    1.20
   5  -3   1    6.10    1.90
   5  -3   1    0.20    6.10
   5  -3   1    1.80    1.80
   5  -3   1    3.20    1.30
   5  -3   1    2.60    1.50
   5  -3   1    6.10    2.50
  -6   3  -1  104.69    5.30
  -6   3  -1  102.49    6.80
  -6   3  -1  116.29    6.10
  -6   3  -1  104.29    5.60
   6  -3   1  115.69    8.60
   6  -3   1  113.49    6.10
   6  -3   1  114.29    5.90
   6  -3   1  115.89    5.60
  -7   3  -1    9.40    1.60
  -7   3  -1    7.10    1.40
  -7   3  -1    6.30    2.20
   7  -3   1   10.70    2.10
   7  -3   1    8.40    1.50
   7  -3   1    7.80    1.50
   8   2  -1   89.19    4.20
   8   2  -1   87.49    4.60
   8   2  -1   91.09    4.40
  -8  -2   1   70.99    5.10
  -8  -2   1   91.39    6.40
  -8  -2   1   81.79    4.60
  -8  -2   1   79.59    6.40
   7   2  -1   23.90    2.40
   7   2  -1   12.60    6.30
   7   2  -1   21.30    2.30
   7   2  -1   24.20    2.40
   7   2  -1   20.60    2.10
  -7  -2   1   22.70    3.50
  -7  -2   1   11.80    2.30
  -7  -2   1   15.60    4.30
  -7  -2   1   20.40    2.70
   6   2  -1  331.27   15.40
   6   2  -1  330.07   14.20
   6   2  -1  337.37   13.80
   6   2  -1  316.57   13.80
   6   2  -1  337.17   17.60
   6   2  -1  330.47   13.90
  -6  -2   1  274.97   15.60
  -6  -2   1  316.17   13.60
  -6  -2   1  325.77   13.70
  -6  -2   1  310.37   14.40
  -6  -2   1  330.87   13.50
   5   2  -1  214.38   11.20
   5   2  -1  230.78   10.70
   5   2  -1  227.78   10.00
   5   2  -1  228.28    9.80
   5   2  -1  237.28    9.80
   5   2  -1  231.98   10.10
  -5  -2   1  236.38   10.30
  -5  -2   1  239.98   10.10
  -5  -2   1  223.28   10.10
  -5  -2   1  223.58   10.90
  -5  -2   1  229.18   11.30
   4   2  -1  187.88    8.10
   4   2  -1  155.78    9.30
   4   2  -1  202.48    8.60
   4   2  -1  187.48    9.60
   4   2  -1  182.88    8.30
   4   2  -1  201.08    8.10
  -4  -2   1  195.18    9.20
  -4  -2   1  185.78    8.30
  -4  -2   1  211.68    9.50
  -4  -2   1  186.88    8.80
  -4  -2   1  192.58    9.70
   3   2  -1  315.57   12.30
   3   2  -1  270.47   11.50
   3   2  -1  301.37   12.30
  -3  -2   1  298.17   12.70
  -3  -2   1  315.57   12.80
  -3  -2   1  268.17   13.00
   2   2  -1  386.16   15.30
   2   2  -1  362.06   14.90
   2   2  -1  409.46   15.60
  -2  -2   1  395.76   15.50
  -2  -2   1  361.46   14.90
   1   2  -1 1521.25   56.59
   1   2  -1 1457.05   56.99
   1   2  -1 1496.55   56.89
  -1  -2   1 1514.05   57.89
  -1  -2   1 1558.14   58.19
  -1  -2   1 1534.15   57.49
  -1  -2   1 1525.55   58.09
  -1  -2   1 1469.75   57.79
   0   2  -1 2767.52  104.39
   0   2  -1 2730.03  103.99
   0  -2   1 3203.88  111.19
   0  -2   1 2681.73  111.39
   0  -2   1 2824.52  111.39
   0  -2   1 3041.80  111.79
  -1   2  -1   36.70    2.00
  -1   2  -1   34.20    2.00
  -1   2  -1   34.50    1.50
  -1   2  -1   35.20    2.10
   1  -2   1   33.30    2.00
   1  -2   1   35.10    2.00
   1  -2   1   37.30    2.80
  -2   2  -1  693.23   27.30
  -2   2  -1  701.63   27.90
  -2   2  -1  731.43   27.70
   2  -2   1  744.93   30.60
   2  -2   1  740.23   29.10
   2  -2   1  768.92   29.10
  -3   2  -1   53.69    3.70
  -3   2  -1   55.69    3.20
  -3   2  -1   55.59    2.80
   3  -2   1   52.49    3.50
   3  -2   1   60.09    4.20
   3  -2   1   57.09    3.00
   3  -2   1   44.60    5.60
   3  -2   1   59.49    3.20
   3  -2   1   51.29    3.90
   3  -2   1   48.70    4.70
   3  -2   1   54.19    3.50
  -4   2  -1  642.54   25.20
  -4   2  -1  621.64   25.20
  -4   2  -1  623.24   25.30
  -4   2  -1  652.63   25.30
  -4   2  -1  662.23   25.80
   4  -2   1  638.64   26.10
   4  -2   1  660.93   26.00
   4  -2   1  659.53   26.00
   4  -2   1  657.83   26.90
   4  -2   1  649.04   25.80
   4  -2   1  601.14   28.50
   4  -2   1  667.03   29.30
  -5   2  -1  488.15   20.00
  -5   2  -1  496.65   19.80
  -5   2  -1  486.65   19.90
   5  -2   1  465.05   21.10
   5  -2   1  494.55   25.00
   5  -2   1  526.95   20.60
   5  -2   1  494.35   20.20
   5  -2   1  460.55   21.70
   5  -2   1  522.45   20.80
   5  -2   1  514.65   20.60
  -6   2  -1  316.87   13.50
  -6   2  -1  318.57   13.20
  -6   2  -1  316.17   13.80
  -6   2  -1  327.97   15.00
  -6   2  -1  296.57   13.50
   6  -2   1  295.07   21.30
   6  -2   1  354.06   14.30
   6  -2   1  325.37   14.40
   6  -2   1  349.96   14.00
  -7   2  -1    4.10    1.80
  -7   2  -1    4.80    1.50
  -7   2  -1    5.80    2.30
  -7   2  -1    6.70    1.30
  -7   2  -1    5.70    3.10
   7  -2   1    9.70    1.60
   7  -2   1    7.90    1.50
   8   1  -1   51.19    2.90
   8   1  -1   45.80    2.60
   8   1  -1   49.20    3.10
   8   1  -1   49.10    3.10
  -8  -1   1   41.40    6.00
  -8  -1   1   52.99    5.00
  -8  -1   1   47.30    3.40
   7   1  -1   13.90    2.10
   7   1  -1    8.00    2.30
   7   1  -1   11.40    1.90
   7   1  -1   10.60    1.70
   7   1  -1    6.30    6.00
  -7  -1   1    6.00    1.50
  -7  -1   1    6.30    1.90
  -7  -1   1   10.80    2.10
  -7  -1   1    7.90    2.90
   6   1  -1  509.05   21.30
   6   1  -1  541.05   21.40
   6   1  -1  529.25   21.60
   6   1  -1  576.04   23.30
   6   1  -1  483.75   23.10
   6   1  -1  551.64   25.70
  -6  -1   1  506.65   20.10
  -6  -1   1  500.35   21.40
  -6  -1   1  478.55   21.70
  -6  -1   1  491.35   20.30
  -6  -1   1  483.45   20.30
   5   1  -1  691.93   27.20
   5   1  -1  705.13   27.20
   5   1  -1  699.73   29.10
   5   1  -1  644.14   28.30
   5   1  -1  707.73   27.40
  -5  -1   1  700.43   27.50
  -5  -1   1  704.93   27.50
  -5  -1   1  659.03   28.60
  -5  -1   1  680.53   28.40
  -5  -1   1  720.13   27.70
   4   1  -1 2318.47   87.89
   4   1  -1 2330.97   88.29
   4   1  -1 2254.57   87.59
   4   1  -1 2360.86   88.89
   4   1  -1 2214.28   88.69
   4   1  -1 2304.37   87.69
  -4  -1   1 2269.37   88.69
  -4  -1   1 2239.58   88.79
  -4  -1   1 2309.07   89.49
  -4  -1   1 2409.76   89.89
  -4  -1   1 2366.96   88.79
  -4  -1   1 2356.36   89.89
   3   1  -1 1853.51   67.19
   3   1  -1 1733.13   66.89
   3   1  -1 1645.74   65.89
  -3  -1   1 1674.83   62.99
  -3  -1   1 1570.84   62.69
  -3  -1   1 1692.83   62.79
  -3  -1   1 1485.65   62.09
  -3  -1   1 1711.13   62.99
   2   1  -1 1440.66   54.19
   2   1  -1 1390.46   54.09
  -2  -1   1 1368.66   52.59
  -2  -1   1 1315.77   52.09
  -2  -1   1 1423.76   52.69
   1   1  -1  492.55   19.30
   1   1  -1  512.15   19.60
  -1  -1   1  508.75   19.60
  -1  -1   1  496.45   19.30
  -1  -1   1  508.85   19.40
   0   1  -1 2261.47   77.59
   0   1  -1 1828.82   77.29
   0  -1   1 2257.37   86.99
   0  -1   1 2192.88   87.09
   0  -1   1 2444.66   87.09
  -1   1  -1 2099.69   75.59
  -1   1  -1 1942.11   75.69
  -1   1  -1 1941.91   75.69
   1  -1   1 2041.00   79.59
   1  -1   1 2154.98   79.59
   1  -1   1 2099.79   79.59
  -2   1  -1 1129.19   43.90
  -2   1  -1 1154.38   43.80
  -2   1  -1 1135.79   43.60
   2  -1   1 1208.28   45.80
   2  -1   1 1232.18   46.10
   2  -1   1 1162.98   45.80
  -3   1  -1  382.96   15.20
  -3   1  -1  378.46   15.60
  -3   1  -1  387.36   15.10
   3  -1   1  421.46   16.20
   3  -1   1  399.76   16.20
  -4   1  -1  533.25   21.90
  -4   1  -1  554.94   22.10
  -4   1  -1  563.04   21.90
  -4   1  -1  540.35   22.50
  -4   1  -1  578.24   21.90
   4  -1   1  552.44   21.90
   4  -1   1  531.65   22.20
   4  -1   1  538.55   22.70
   4  -1   1  557.14   23.40
   4  -1   1  543.05   21.80
   4  -1   1  543.75   22.80
   4  -1   1  512.05   21.60
   4  -1   1  549.95   21.70
  -5   1  -1  380.26   15.50
  -5   1  -1  364.86   15.50
  -5   1  -1  360.56   15.10
  -5   1  -1  371.06   15.30
  -5   1  -1  354.26   15.70
   5  -1   1  372.66   19.50
   5  -1   1  378.56   15.50
   5  -1   1  362.06   15.70
   5  -1   1  376.66   15.60
   5  -1   1  378.16   15.90
   5  -1   1  364.56   16.50
   5  -1   1  393.06   16.00
  -6   1  -1  160.18    8.70
  -6   1  -1  173.08    9.50
  -6   1  -1  172.48    8.10
  -6   1  -1  153.78    8.20
  -6   1  -1  164.08    8.00
  -6   1  -1  166.08    7.70
   6  -1   1  185.18    8.60
   6  -1   1  181.98    8.30
   6  -1   1  167.18    7.90
   6  -1   1  180.38    8.10
   6  -1   1  152.58   16.80
  -7   1  -1  258.27   12.40
  -7   1  -1  263.47   10.90
  -7   1  -1  254.87   11.20
  -7   1  -1  230.98   11.40
  -7   1  -1  251.27   11.10
   7  -1   1  282.87   11.40
   7  -1   1  251.97   12.20
   7  -1   1  274.27   11.60
  -8   1  -1   30.20    4.20
   8  -1   1   31.30    1.80
   8  -1   1   30.20    2.20
   8   0  -1  941.01   36.40
   8   0  -1  904.91   35.70
   8   0  -1  954.10   36.20
  -8   0   1  852.61   32.10
  -8   0   1  861.91   33.10
  -8   0   1  744.23   32.70
   7   0  -1  259.97   10.40
   7   0  -1  272.37   10.80
   7   0  -1  226.08   13.30
   7   0  -1  214.08   17.80
  -7   0   1  257.97   11.40
  -7   0   1  245.08   11.30
  -7   0   1  247.48   10.90
  -7   0   1  252.37   12.40
   6   0  -1  706.83   28.00
   6   0  -1  685.93   29.90
   6   0  -1  702.43   32.90
   6   0  -1  708.83   29.60
   6   0  -1  743.53   28.50
   6   0  -1  717.23   28.10
  -6   0   1  628.74   26.30
  -6   0   1  710.53   26.80
  -6   0   1  674.73   27.90
  -6   0   1  663.93   26.80
  -6   0   1  653.43   26.80
  -6   0   1  639.74   26.70
   5   0  -1  445.26   20.20
   5   0  -1  401.76   17.10
   5   0  -1  372.76   18.40
   5   0  -1  452.65   17.30
   5   0  -1  388.96   20.00
   5   0  -1  405.06   18.00
   5   0  -1  405.16   16.70
  -5   0   1  406.56   16.90
  -5   0   1  390.26   17.40
  -5   0   1  417.26   18.10
  -5   0   1  437.16   16.90
  -5   0   1  420.86   18.10
  -5   0   1  406.36   16.90
   4   0  -1 2906.31  111.99
   4   0  -1 2877.81  112.09
   4   0  -1 3004.40  112.39
   4   0  -1 2905.01  112.19
   4   0  -1 2956.90  113.19
   4   0  -1 2963.20  112.39
   4   0  -1 2976.50  113.19
  -4   0   1 2967.90  116.29
  -4   0   1 3077.89  114.99
  -4   0   1 3008.10  114.89
  -4   0   1 3029.40  116.09
   3   0  -1  182.88    7.70
   3   0  -1  166.68    7.90
  -3   0   1  184.18    8.50
  -3   0   1  196.98    8.60
   2   0  -1 5328.77  233.58
   2   0  -1 7022.90  233.98
  -2   0   1 6706.13  253.97
   1   0  -1 1495.05   59.79
   1   0  -1 1665.33   59.99
   1   0  -1 1575.14   59.99
  -1   0   1 1349.96   51.39
   0   0  -1  957.00   34.10
   0   0  -1  978.30   34.20
   0   0  -1  763.52   34.00
   0   0   1  894.41   36.10
   0   0   1 1013.20   36.20
  -1   0  -1  664.33   25.30
  -1   0  -1  653.13   25.10
   1   0   1  693.43   26.00
   1   0   1  627.84   26.00
   1   0   1  707.63   26.20
   1   0   1  705.93   26.10
  -2   0  -1 6000.50  215.38
  -2   0  -1 5390.66  215.78
   2   0   1 4899.51  179.28
   2   0   1 4273.77  178.78
   2   0   1 5012.60  178.88
  -3   0  -1   43.10    2.70
  -3   0  -1   40.50    2.30
   3   0   1   42.40    2.30
   3   0   1   47.70    2.20
   3   0   1   43.50    2.40
   3   0   1   47.80    3.00
  -4   0  -1 4142.29  158.08
  -4   0  -1 4255.07  157.18
  -4   0  -1 4053.89  157.98
  -4   0  -1 4046.50  157.08
  -4   0  -1 4270.47  157.18
  -4   0  -1 4053.29  157.18
   4   0   1 4358.66  171.08
   4   0   1 4607.64  171.98
   4   0   1 4503.55  170.98
   4   0   1 4421.66  171.28
   4   0   1 4507.05  171.18
   4   0   1 4462.55  170.98
   4   0   1 4647.83  170.48
  -5   0  -1  177.38    8.10
  -5   0  -1  177.88    8.20
  -5   0  -1  179.78    9.00
  -5   0  -1  175.78    8.10
  -5   0  -1  173.48    8.10
  -5   0  -1  181.48    9.20
   5   0   1  179.28    9.30
   5   0   1  184.98    8.70
   5   0   1  191.78    8.40
   5   0   1  188.98    8.50
   5   0   1  170.28    8.40
  -6   0  -1  742.43   32.10
  -6   0  -1  747.73   30.90
  -6   0  -1  782.82   30.60
  -6   0  -1  829.02   32.40
  -6   0  -1  753.42   31.10
  -6   0  -1  787.62   31.20
  -6   0  -1  778.02   30.90
   6   0   1  789.82   34.40
   6   0   1  877.21   33.70
   6   0   1  863.11   33.50
   6   0   1  860.01   33.30
  -7   0  -1    8.10    1.90
  -7   0  -1    4.70    1.90
  -7   0  -1    6.20    2.60
  -7   0  -1    5.60    2.10
  -7   0  -1    6.10    2.60
   7   0   1    9.40    2.20
   7   0   1    4.80    1.70
  -8   0  -1  268.67   12.30
  -8   0  -1  310.07   13.40
  -8   0  -1  287.57   12.40
  -8   0  -1  292.17   11.80
   8   0   1  331.37   13.60
   8   0   1  316.47   13.20
   8   0   1  342.87   13.50
   8  -1  -1  125.99    5.80
   8  -1  -1  129.59    5.70
  -8   1   1  113.89    6.70
  -8   1   1  108.69    5.80
  -8   1   1  110.99    5.30
   7  -1  -1   15.50    2.20
   7  -1  -1   15.10    1.80
   7  -1  -1   16.70    2.40
   7  -1  -1   13.90    1.90
  -7   1   1   12.40    2.50
  -7   1   1    9.60    2.80
  -7   1   1   12.90    2.40
  -7   1   1   11.20    2.10
   6  -1  -1  983.20   38.20
   6  -1  -1 1019.40   38.80
   6  -1  -1  970.40   43.80
   6  -1  -1  966.30   38.30
   6  -1  -1  968.50   39.80
   6  -1  -1  962.60   40.20
   6  -1  -1 1009.20   39.10
  -6   1   1  881.01   35.40
  -6   1   1  872.51   35.30
  -6   1   1  943.31   35.30
  -6   1   1  932.71   35.00
  -6   1   1  826.12   36.90
  -6   1   1  879.71   37.00
   5  -1  -1  103.79    8.20
   5  -1  -1   99.49    4.90
   5  -1  -1   94.89    6.10
   5  -1  -1   90.09    5.00
   5  -1  -1   95.59    5.20
   5  -1  -1  104.69    5.60
   5  -1  -1   94.59    5.30
  -5   1   1   94.09    5.00
  -5   1   1   94.19    5.10
  -5   1   1  100.09    4.90
  -5   1   1  101.59    6.10
  -5   1   1   87.89    5.80
   4  -1  -1 1403.86   56.79
   4  -1  -1 1557.54   58.69
   4  -1  -1 1568.74   56.99
   4  -1  -1 1415.16   55.89
   4  -1  -1 1450.45   56.09
   4  -1  -1 1381.86   56.89
   4  -1  -1 1452.75   56.09
   4  -1  -1 1411.36   56.89
   4  -1  -1 1387.36   55.69
  -4   1   1 1333.97   52.79
  -4   1   1 1358.06   51.69
   3  -1  -1  709.73   29.20
   3  -1  -1  764.02   30.40
  -3   1   1  674.13   27.10
  -3   1   1  724.03   27.70
  -3   1   1  703.73   27.00
   2  -1  -1 2731.83  103.89
   2  -1  -1 2688.43  103.19
  -2   1   1 2569.04   95.89
  -2   1   1 2213.08   96.29
  -2   1   1 2638.74   96.59
  -2   1   1 2715.23   96.59
   1  -1  -1 1936.41   73.69
   1  -1  -1 1917.51   73.19
  -1   1   1 1889.21   62.79
  -1   1   1 1460.05   62.49
  -1   1   1 1595.64   62.49
   0  -1  -1  530.45   21.90
   0  -1  -1  593.74   22.60
   0  -1  -1  615.14   22.20
   0   1   1  541.35   21.60
   0   1   1  557.84   21.70
   0   1   1  610.14   21.90
  -1  -1  -1 2520.65   89.59
  -1  -1  -1 2198.68   89.39
   1   1   1 2349.67   81.69
   1   1   1 1960.50   81.69
  -2  -1  -1  864.01   33.90
  -2  -1  -1  895.21   33.80
  -2  -1  -1  895.51   34.30
  -2  -1  -1  885.01   33.90
   2   1   1  956.40   35.80
   2   1   1  903.11   35.40
  -3  -1  -1   38.50    2.30
  -3  -1  -1   42.00    2.80
  -3  -1  -1   40.30    2.10
   3   1   1   40.20    2.80
   3   1   1   46.90    2.20
   3   1   1   46.60    2.90
   3   1   1   40.10    2.10
  -4  -1  -1 1035.00   39.60
  -4  -1  -1  901.91   41.00
  -4  -1  -1 1032.10   39.90
  -4  -1  -1 1024.20   39.00
  -4  -1  -1 1048.00   39.10
  -4  -1  -1  998.00   39.10
   4   1   1 1112.59   41.90
   4   1   1 1042.80   41.30
   4   1   1 1015.10   41.30
   4   1   1 1063.49   41.30
   4   1   1 1049.79   41.50
   4   1   1 1053.39   42.10
   4   1   1 1110.09   40.70
  -5  -1  -1   46.40    3.30
  -5  -1  -1   34.30    3.10
  -5  -1  -1   42.00    3.50
  -5  -1  -1   38.70    3.80
  -5  -1  -1   46.30    2.80
  -5  -1  -1   39.60    2.90
  -5  -1  -1   45.10    4.20
   5   1   1   47.70    3.30
   5   1   1   42.70    3.10
   5   1   1   51.49    3.30
  -6  -1  -1   43.70    4.60
  -6  -1  -1   40.70    4.00
  -6  -1  -1   44.50    3.70
  -6  -1  -1   39.20    3.20
  -6  -1  -1   43.80    3.60
   6   1   1   46.80    3.30
   6   1   1   44.60    3.60
   6   1   1   45.40    3.30
  -7  -1  -1   52.49    5.20
  -7  -1  -1   50.89    5.00
  -7  -1  -1   62.59    4.50
  -7  -1  -1   61.89    3.90
   7   1   1   63.29    4.10
   7   1   1   64.89    3.80
   7   1   1   66.79    3.90
  -8  -1  -1   71.99    5.40
  -8  -1  -1   85.99    4.30
  -8  -1  -1   83.59    5.80
   8   1   1   92.79    4.40
   8   1   1   94.59    4.70
   8   1   1   91.79    4.40
   7  -2  -1   15.50    2.30
   7  -2  -1   21.00    5.10
   7  -2  -1   23.40    2.40
   7  -2  -1   21.60    1.80
  -7   2   1   20.90    3.50
  -7   2   1   16.40    4.00
  -7   2   1   21.10    2.60
  -7   2   1   18.60    4.10
  -7   2   1   21.60    3.10
   6  -2  -1  242.48   12.00
   6  -2  -1  245.98   12.50
   6  -2  -1  245.58   10.50
   6  -2  -1  260.37   11.50
   6  -2  -1  253.17   11.00
   6  -2  -1  240.18   17.70
  -6   2   1  226.48   10.00
  -6   2   1  210.18   10.20
  -6   2   1  213.28    9.90
  -6   2   1  205.58   10.90
  -6   2   1  227.38    9.60
   5  -2  -1  499.35   20.20
   5  -2  -1  519.25   21.90
   5  -2  -1  527.05   21.00
   5  -2  -1  498.15   20.80
   5  -2  -1  494.15   22.00
   5  -2  -1  502.95   24.90
   5  -2  -1  498.85   20.70
  -5   2   1  489.45   20.00
  -5   2   1  480.25   19.50
  -5   2   1  490.85   19.50
  -5   2   1  459.05   19.40
   4  -2  -1 1501.65   58.99
   4  -2  -1 1523.75   57.99
   4  -2  -1 1487.95   59.09
   4  -2  -1 1520.05   61.19
   4  -2  -1 1471.15   57.59
  -4   2   1 1335.37   54.89
  -4   2   1 1391.06   54.69
  -4   2   1 1488.65   55.19
  -4   2   1 1439.06   55.39
  -4   2   1 1470.75   54.79
   3  -2  -1  702.33   29.20
   3  -2  -1  676.93   27.70
  -3   2   1  691.93   25.80
  -3   2   1  583.84   26.50
  -3   2   1  633.74   25.50
  -3   2   1  665.83   25.30
  -3   2   1  674.13   25.80
  -3   2   1  685.23   26.80
   2  -2  -1 1040.40   39.20
   2  -2  -1 1012.60   38.70
   2  -2  -1  980.00   40.30
  -2   2   1  966.20   37.80
  -2   2   1  997.70   37.30
  -2   2   1  985.70   37.30
  -2   2   1  932.31   36.90
   1  -2  -1 1882.51   68.29
   1  -2  -1 1844.12   67.09
   1  -2  -1 1571.74   67.09
  -1   2   1 1769.32   61.49
  -1   2   1 1645.74   61.09
  -1   2   1 1406.06   60.79
   0  -2  -1 3445.66  136.69
   0  -2  -1 3776.12  137.49
   0   2   1 2531.25  100.99
   0   2   1 2805.92  100.99
  -1  -2  -1 1104.99   40.30
  -1  -2  -1  978.10   39.80
  -1  -2  -1 1057.69   40.10
   1   2   1 1138.29   42.00
   1   2   1 1056.19   41.60
  -2  -2  -1 2747.03  109.69
  -2  -2  -1 3147.69  109.39
  -2  -2  -1 2749.92  109.59
   2   2   1 3143.19  113.59
   2   2   1 2859.31  113.99
  -3  -2  -1  107.09    5.20
  -3  -2  -1  101.19    4.80
  -3  -2  -1  102.59    4.60
  -3  -2  -1   93.19    4.60
   3   2   1   97.89    4.50
   3   2   1  104.79    4.40
   3   2   1  106.39    5.00
  -4  -2  -1 1377.46   53.39
  -4  -2  -1 1408.66   52.39
  -4  -2  -1 1310.67   52.29
  -4  -2  -1 1364.56   53.19
  -4  -2  -1 1330.37   52.29
  -4  -2  -1 1353.56   52.39
   4   2   1 1475.35   55.79
   4   2   1 1418.26   54.59
   4   2   1 1406.06   56.09
   4   2   1 1422.76   55.19
   4   2   1 1413.86   54.79
   4   2   1 1461.75   54.59
   4   2   1 1421.26   55.09
  -5  -2  -1  702.13   28.50
  -5  -2  -1  725.53   29.70
  -5  -2  -1  739.83   28.60
  -5  -2  -1  732.73   29.60
  -5  -2  -1  711.53   28.40
  -5  -2  -1  698.63   29.00
   5   2   1  729.13   29.10
   5   2   1  673.93   30.10
   5   2   1  751.22   29.00
   5   2   1  762.72   29.00
   5   2   1  730.93   29.90
   5   2   1  741.73   28.90
  -6  -2  -1  744.23   30.90
  -6  -2  -1  760.72   32.30
  -6  -2  -1  789.02   31.20
  -6  -2  -1  805.92   30.70
  -6  -2  -1  795.32   32.00
  -6  -2  -1  742.83   30.80
  -6  -2  -1  764.12   31.00
   6   2   1  853.51   33.70
   6   2   1  856.81   34.70
   6   2   1  833.02   33.70
   6   2   1  856.61   33.80
   6   2   1  879.51   33.90
  -7  -2  -1   18.90    2.60
  -7  -2  -1   25.40    3.60
  -7  -2  -1   16.60    3.30
  -7  -2  -1   15.90    4.30
  -7  -2  -1   24.20    4.10
  -7  -2  -1   23.70    4.30
   7   2   1   26.80    2.40
   7   2   1   26.50    2.70
  -8  -2  -1   38.70    4.40
  -8  -2  -1   39.90    4.70
  -8  -2  -1   37.40    3.00
   8   2   1   44.60    2.80
   8   2   1   43.40    2.80
   8   2   1   44.30    2.90
   7  -3  -1   24.20    2.20
   7  -3  -1   25.20    2.30
  -7   3   1   17.90    2.90
  -7   3   1   21.30    3.50
  -7   3   1   24.30    2.30
  -7   3   1   16.10    3.70
   6  -3  -1   67.39   14.30
   6  -3  -1   68.99    4.50
   6  -3  -1   69.09    5.90
   6  -3  -1   72.99    8.00
  -6   3   1   57.19    4.00
  -6   3   1   52.19    3.90
  -6   3   1   46.80    5.60
   5  -3  -1  134.19   11.50
   5  -3  -1  115.59    7.60
   5  -3  -1  115.79    5.70
   5  -3  -1  123.09    6.50
   5  -3  -1  111.99    6.30
   5  -3  -1  115.59    6.20
   5  -3  -1  124.99    7.30
  -5   3   1  107.29    5.60
  -5   3   1  110.09    5.70
  -5   3   1  111.29    6.20
  -5   3   1  108.29    7.50
   4  -3  -1  447.56   21.70
   4  -3  -1  458.55   19.10
   4  -3  -1  482.05   22.80
   4  -3  -1  496.65   19.20
   4  -3  -1  418.66   19.10
  -4   3   1  422.46   17.50
  -4   3   1  436.86   18.10
  -4   3   1  447.26   17.60
  -4   3   1  443.86   18.70
   3  -3  -1   31.00    3.50
   3  -3  -1   37.60    3.10
   3  -3  -1   37.30    3.20
   3  -3  -1   36.70    2.70
   3  -3  -1   34.20    3.30
   3  -3  -1   35.90    3.70
   3  -3  -1   36.20    4.40
   3  -3  -1   38.90    4.10
  -3   3   1   36.70    2.00
  -3   3   1   40.80    2.50
  -3   3   1   33.30    2.50
   2  -3  -1   74.99    5.40
   2  -3  -1   71.59    3.60
  -2   3   1   59.09    3.40
  -2   3   1   67.39    4.30
  -2   3   1   69.79    3.40
  -2   3   1   67.39    2.90
   1  -3  -1 1995.60   75.49
   1  -3  -1 1970.50   75.69
   1  -3  -1 1978.90   76.89
  -1   3   1 1841.42   70.19
  -1   3   1 1913.81   70.59
  -1   3   1 1889.81   71.09
  -1   3   1 1769.52   70.09
   0  -3  -1 1174.58   43.90
   0  -3  -1 1121.69   44.50
   0  -3  -1 1107.59   43.50
   0   3   1 1099.09   41.50
   0   3   1 1072.59   41.20
  -1  -3  -1  956.90   36.80
  -1  -3  -1  948.91   36.20
  -1  -3  -1  963.40   37.20
   1   3   1  927.81   36.10
   1   3   1  955.00   36.30
   1   3   1  962.80   36.60
  -2  -3  -1 1771.32   67.39
  -2  -3  -1 1682.43   66.69
  -2  -3  -1 1799.02   67.29
   2   3   1 1808.82   68.09
   2   3   1 1733.33   68.19
   2   3   1 1837.42   68.69
  -3  -3  -1 2153.98   79.79
  -3  -3  -1 2029.20   79.99
  -3  -3  -1 2033.80   79.49
  -3  -3  -1 2056.99   78.99
   3   3   1 2123.39   81.59
   3   3   1 2162.38   82.19
  -4  -3  -1  227.38   10.60
  -4  -3  -1  232.58   10.60
  -4  -3  -1  232.28   10.20
  -4  -3  -1  230.38    9.90
  -4  -3  -1  228.48   10.10
  -4  -3  -1  251.17   10.90
  -4  -3  -1  218.48   10.40
   4   3   1  225.68    9.80
   4   3   1  250.97    9.80
   4   3   1  250.27    9.80
   4   3   1  246.18   10.90
   4   3   1  240.48   10.30
   4   3   1  237.78   10.40
  -5  -3  -1  244.08   11.00
  -5  -3  -1  246.28   11.70
  -5  -3  -1  242.58   10.90
  -5  -3  -1  257.87   12.10
  -5  -3  -1  252.77   10.90
   5   3   1  267.77   12.20
   5   3   1  262.57   11.40
   5   3   1  260.67   11.30
   5   3   1  252.37   11.30
   5   3   1  269.37   10.70
  -6  -3  -1  419.06   17.70
  -6  -3  -1  447.16   18.80
  -6  -3  -1  422.66   17.70
  -6  -3  -1  422.36   17.30
  -6  -3  -1  394.66   17.10
  -6  -3  -1  417.16   17.50
  -6  -3  -1  396.36   17.50
   6   3   1  467.45   18.70
   6   3   1  453.25   18.60
   6   3   1  462.85   18.60
   6   3   1  437.06   18.50
  -7  -3  -1  220.98    9.30
  -7  -3  -1  198.58   10.40
  -7  -3  -1  222.28   11.00
  -7  -3  -1  198.78    9.70
  -7  -3  -1  194.58   10.10
  -7  -3  -1  215.68    9.90
  -7  -3  -1  181.88   11.80
   7   3   1  248.28   10.30
   7   3   1  233.28   10.10
   7   3   1  233.08   10.30
   7   3   1  220.08   16.20
  -8  -3  -1  144.19    8.00
  -8  -3  -1  135.69    6.50
   8   3   1  160.78    7.10
   8   3   1  162.68    7.20
   8   3   1  162.88    7.20
   8   3   1  158.68    7.30
   6  -4  -1  155.08    7.20
   6  -4  -1  150.08    6.60
   6  -4  -1  161.28    8.80
   6  -4  -1  156.78    8.40
   6  -4  -1  177.58    8.00
   6  -4  -1  160.78    7.30
  -6   4   1  151.48    7.60
  -6   4   1  154.98    7.40
  -6   4   1  156.78    7.10
  -6   4   1  152.68    7.30
   5  -4  -1  101.29    5.50
   5  -4  -1   95.99    4.60
   5  -4  -1   93.69    6.30
   5  -4  -1   84.39    6.10
   5  -4  -1   91.59    5.30
   5  -4  -1   78.99   13.00
   5  -4  -1   97.49    5.20
   5  -4  -1  100.09    6.80
  -5   4   1   90.59    5.10
  -5   4   1   97.29    5.30
  -5   4   1   90.39    4.90
  -5   4   1   90.49    6.60
   4  -4  -1  158.88    7.80
   4  -4  -1  160.68    7.70
   4  -4  -1  165.78    8.70
   4  -4  -1  160.18   12.30
   4  -4  -1  166.78    8.00
   4  -4  -1  163.78    9.20
   4  -4  -1  156.88    7.20
  -4   4   1  155.48    7.10
  -4   4   1  148.09    7.30
  -4   4   1  156.88    7.90
  -4   4   1  161.88    7.10
   3  -4  -1  789.02   31.50
   3  -4  -1  789.82   31.50
   3  -4  -1  784.32   30.90
   3  -4  -1  796.52   32.40
   3  -4  -1  815.32   31.40
   3  -4  -1  773.42   34.70
   3  -4  -1  778.12   31.20
   3  -4  -1  802.52   32.20
  -3   4   1  725.73   30.20
  -3   4   1  801.42   30.80
  -3   4   1  797.42   30.00
  -3   4   1  766.82   30.00
   2  -4  -1  521.45   21.50
   2  -4  -1  572.44   21.30
   2  -4  -1  516.75   22.00
   2  -4  -1  525.35   21.10
   2  -4  -1  511.95   21.40
   2  -4  -1  547.45   23.80
   2  -4  -1  529.05   21.40
  -2   4   1  566.44   20.60
  -2   4   1  508.75   20.80
  -2   4   1  538.65   20.80
  -2   4   1  532.25   21.50
   1  -4  -1  878.21   34.50
   1  -4  -1  875.71   36.10
   1  -4  -1  880.41   34.20
  -1   4   1  830.82   32.20
  -1   4   1  844.12   33.30
  -1   4   1  858.71   32.60
  -1   4   1  820.22   32.10
   0  -4  -1 2353.76   88.39
   0  -4  -1 2248.48   87.79
   0   4   1 2243.08   82.39
   0   4   1 2234.98   82.79
   0   4   1 2034.00   82.29
  -1  -4  -1  245.48   10.00
  -1  -4  -1  248.48   10.20
  -1  -4  -1  251.67   10.70
  -1  -4  -1  226.98   10.70
   1   4   1  232.78    9.80
   1   4   1  241.78   10.30
   1   4   1  247.48    9.80
   1   4   1  243.38    9.50
  -2  -4  -1 1991.10   76.69
  -2  -4  -1 1924.71   76.39
  -2  -4  -1 2042.80   76.29
   2   4   1 2095.99   78.99
   2   4   1 2027.40   78.49
   2   4   1 2077.79   79.29
  -3  -4  -1   20.60    2.70
  -3  -4  -1   20.00    2.80
   3   4   1   23.20    1.70
   3   4   1   23.70    2.20
   3   4   1   23.00    1.50
   3   4   1   22.70    1.70
  -4  -4  -1 1235.28   49.90
  -4  -4  -1 1264.57   49.99
  -4  -4  -1 1339.67   50.89
  -4  -4  -1 1291.67   51.59
  -4  -4  -1 1291.67   50.19
  -4  -4  -1 1259.97   50.39
  -4  -4  -1 1282.27   50.39
  -4  -4  -1 1364.86   51.29
   4   4   1 1375.36   52.99
   4   4   1 1409.86   54.29
   4   4   1 1442.26   52.99
   4   4   1 1449.46   53.09
   4   4   1 1300.47   53.59
   4   4   1 1383.96   53.59
   4   4   1 1339.27   53.29
  -5  -4  -1  393.86   16.90
  -5  -4  -1  404.86   17.60
  -5  -4  -1  433.96   18.30
  -5  -4  -1  372.06   16.50
  -5  -4  -1  393.66   16.60
  -5  -4  -1  393.86   16.50
  -5  -4  -1  395.66   17.80
   5   4   1  436.16   17.50
   5   4   1  415.56   16.70
   5   4   1  407.06   17.90
   5   4   1  405.86   16.10
   5   4   1  344.57   16.40
   5   4   1  440.66   17.10
  -6  -4  -1  640.24   26.90
  -6  -4  -1  676.03   27.20
  -6  -4  -1  697.33   28.20
  -6  -4  -1  640.84   27.10
  -6  -4  -1  668.73   28.70
  -6  -4  -1  693.13   26.90
  -6  -4  -1  672.03   27.10
   6   4   1  754.62   29.20
   6   4   1  685.93   30.80
   6   4   1  757.42   29.50
   6   4   1  750.42   29.30
   6   4   1  745.73   29.40
  -7  -4  -1  160.48    8.00
  -7  -4  -1  141.29   10.40
  -7  -4  -1  173.18    9.30
  -7  -4  -1  161.08    7.50
   7   4   1  178.68    8.00
   7   4   1  181.48    9.40
   7   4   1  174.68    8.10
  -8  -4  -1  360.96   15.30
  -8  -4  -1  344.87   14.40
  -8  -4  -1  379.06   16.00
  -8  -4  -1  352.06   15.00
   8   4   1  442.46   17.20
   8   4   1  422.16   17.20
   8   4   1  423.66   17.20
   6  -5  -1  783.02   29.60
   6  -5  -1  748.03   30.20
   6  -5  -1  719.93   31.00
  -6   5   1  687.73   28.80
  -6   5   1  723.13   29.50
  -6   5   1  784.22   28.70
  -6   5   1  703.83   28.70
  -6   5   1  728.83   28.60
   5  -5  -1   56.89    3.80
   5  -5  -1   50.09    3.70
   5  -5  -1   49.99    4.90
   5  -5  -1   47.20    2.90
   5  -5  -1   48.90    4.10
   5  -5  -1   53.39    4.90
  -5   5   1   56.29    3.80
  -5   5   1   46.30    3.40
  -5   5   1   55.69    3.70
   4  -5  -1  618.24   23.80
   4  -5  -1  536.35   29.50
   4  -5  -1  569.54   24.40
   4  -5  -1  563.94   24.90
   4  -5  -1  590.24   22.90
   4  -5  -1  611.94   23.90
   4  -5  -1  555.04   23.20
  -4   5   1  552.84   21.90
  -4   5   1  526.85   23.00
  -4   5   1  538.85   21.90
  -4   5   1  542.45   22.00
  -4   5   1  574.34   22.00
   3  -5  -1  472.15   19.60
   3  -5  -1  474.15   18.90
   3  -5  -1  467.75   20.70
   3  -5  -1  465.15   23.90
   3  -5  -1  483.95   19.70
   3  -5  -1  472.85   20.20
   3  -5  -1  467.45   19.40
  -3   5   1  453.05   19.10
  -3   5   1  467.85   18.00
  -3   5   1  447.36   18.00
  -3   5   1  436.76   18.10
   2  -5  -1 1972.30   75.69
   2  -5  -1 1830.72   76.99
   2  -5  -1 1985.80   78.89
   2  -5  -1 1920.41   75.09
   2  -5  -1 2011.00   76.29
   2  -5  -1 2011.70   75.69
   2  -5  -1 2014.90   75.59
  -2   5   1 1950.10   73.69
  -2   5   1 1869.61   73.69
  -2   5   1 1983.30   74.69
   1  -5  -1  304.57   15.30
   1  -5  -1  303.57   12.70
   1  -5  -1  291.27   12.90
   1  -5  -1  312.47   13.60
   1  -5  -1  323.67   13.10
   1  -5  -1  305.17   13.10
   1  -5  -1  309.27   13.60
   1  -5  -1  294.07   13.10
   1  -5  -1  335.47   13.00
  -1   5   1  338.27   12.60
  -1   5   1  309.77   12.60
  -1   5   1  302.17   13.20
   0  -5  -1 1072.79   43.90
   0  -5  -1 1164.38   44.20
   0  -5  -1 1182.38   44.20
   0  -5  -1 1119.59   43.90
   0   5   1 1102.49   42.20
   0   5   1 1103.39   42.20
  -1  -5  -1 1628.64   62.69
  -1  -5  -1 1649.93   62.59
  -1  -5  -1 1625.04   63.19
  -1  -5  -1 1637.14   63.79
  -1  -5  -1 1604.84   62.19
   1   5   1 1608.14   63.09
   1   5   1 1662.73   63.69
   1   5   1 1665.03   62.69
   1   5   1 1641.94   62.59
  -2  -5  -1  689.33   27.70
  -2  -5  -1  687.03   27.10
  -2  -5  -1  653.53   27.50
  -2  -5  -1  700.43   27.20
  -2  -5  -1  705.03   27.40
  -2  -5  -1  681.03   28.30
   2   5   1  685.43   27.20
   2   5   1  686.53   28.20
   2   5   1  755.42   28.50
   2   5   1  690.63   28.20
   2   5   1  705.13   27.20
  -3  -5  -1 1107.49   44.80
  -3  -5  -1 1125.69   46.00
  -3  -5  -1 1132.19   44.50
  -3  -5  -1 1169.28   45.30
  -3  -5  -1 1166.48   45.30
  -3  -5  -1 1191.58   44.60
  -3  -5  -1 1126.59   45.00
   3   5   1 1166.08   46.20
   3   5   1 1166.18   45.40
   3   5   1 1169.28   45.10
   3   5   1 1194.78   45.00
   3   5   1 1120.29   45.50
   3   5   1 1225.98   45.10
  -4  -5  -1  786.12   31.20
  -4  -5  -1  809.22   31.00
  -4  -5  -1  822.02   31.90
  -4  -5  -1  812.92   32.10
  -4  -5  -1  788.92   30.60
  -4  -5  -1  661.43   31.70
   4   5   1  858.61   32.20
   4   5   1  818.02   33.60
   4   5   1  818.92   32.10
   4   5   1  850.31   32.20
   4   5   1  777.62   32.40
   4   5   1  850.21   32.70
   4   5   1  843.42   32.90
  -5  -5  -1  173.38    9.20
  -5  -5  -1  160.28    8.40
  -5  -5  -1  169.98    7.70
  -5  -5  -1  169.58    8.10
  -5  -5  -1  174.28    9.10
  -5  -5  -1  151.58    7.90
   5   5   1  192.08    8.40
   5   5   1  168.58    7.60
   5   5   1  177.48    8.00
   5   5   1  184.48    8.20
   5   5   1  178.88    7.50
   5   5   1  166.58    9.10
   5   5   1  174.18    7.50
  -6  -5  -1   77.49    6.30
  -6  -5  -1   82.19    4.60
  -6  -5  -1   87.89    5.20
  -6  -5  -1   68.59    5.40
  -6  -5  -1   84.09    6.60
   6   5   1   83.59    4.80
   6   5   1   92.79    4.80
   6   5   1   83.99    6.80
   6   5   1   91.99    5.00
  -7  -5  -1  157.78    7.90
  -7  -5  -1  174.68    9.40
  -7  -5  -1  160.68    8.40
  -7  -5  -1  168.68    8.30
   7   5   1  154.48    8.70
   7   5   1  168.18    7.80
   7   5   1  182.18    8.10
   7   5   1  177.18    8.80
  -8  -5  -1   16.10    2.30
  -8  -5  -1   21.80    4.20
  -8  -5  -1   25.40    3.20
   8   5   1   29.30    2.20
   8   5   1   26.80    2.10
   5  -6  -1  100.99    5.60
   5  -6  -1  109.59    5.50
   5  -6  -1  109.59    6.50
   5  -6  -1  112.39    6.50
  -5   6   1  103.19    5.00
  -5   6   1  109.19    5.30
  -5   6   1  103.89    5.50
   4  -6  -1   65.29    5.20
   4  -6  -1   61.79    3.40
  -4   6   1   69.29    4.20
  -4   6   1   80.59    5.10
  -4   6   1   68.89    4.50
  -4   6   1   66.19    4.20
   3  -6  -1  524.65   20.80
   3  -6  -1  486.35   21.20
   3  -6  -1  511.35   20.70
   3  -6  -1  447.66   27.10
   3  -6  -1  516.75   22.00
   3  -6  -1  488.25   20.50
   3  -6  -1  503.05   19.80
  -3   6   1  493.15   19.00
  -3   6   1  482.65   19.10
  -3   6   1  492.75   20.10
  -3   6   1  448.26   18.90
  -3   6   1  443.66   20.40
   2  -6  -1   92.99    5.40
   2  -6  -1  103.19    6.20
   2  -6  -1   96.79    5.60
   2  -6  -1   99.89    5.20
   2  -6  -1   95.79    4.90
   2  -6  -1   98.59    5.70
  -2   6   1   90.59    4.60
  -2   6   1  103.09    4.60
  -2   6   1   91.09    4.80
  -2   6   1   96.69    5.80
   1  -6  -1  163.58    7.70
   1  -6  -1  148.89    8.10
   1  -6  -1  164.08    7.50
   1  -6  -1  156.08    7.40
   1  -6  -1  158.58    7.70
  -1   6   1  150.38    7.60
  -1   6   1  147.19    6.70
  -1   6   1  152.78    6.40
  -1   6   1  149.69    6.50
   0  -6  -1  672.63   26.30
   0  -6  -1  665.83   26.30
   0  -6  -1  648.54   26.50
   0  -6  -1  642.64   26.30
   0  -6  -1  682.73   26.60
   0   6   1  669.33   26.00
   0   6   1  662.23   25.90
   0   6   1  668.53   25.90
   0   6   1  660.93   26.70
  -1  -6  -1  418.86   16.90
  -1  -6  -1  398.06   16.70
  -1  -6  -1  415.26   17.30
   1   6   1  441.46   16.80
   1   6   1  413.76   17.40
   1   6   1  414.26   18.00
   1   6   1  441.26   16.80
   1   6   1  412.56   16.90
  -2  -6  -1  207.18    9.90
  -2  -6  -1  169.58    8.10
  -2  -6  -1  181.18    8.90
  -2  -6  -1  183.68    8.10
  -2  -6  -1  151.08    9.10
  -2  -6  -1  179.28    8.80
   2   6   1  177.08    9.00
   2   6   1  175.78    8.50
   2   6   1  200.98    7.80
   2   6   1  189.18    7.80
   2   6   1  178.08    8.00
  -3  -6  -1  617.94   25.70
  -3  -6  -1  647.34   26.20
  -3  -6  -1  644.14   26.00
  -3  -6  -1  661.43   26.50
  -3  -6  -1  625.34   25.80
  -3  -6  -1  626.94   25.50
   3   6   1  684.23   26.50
   3   6   1  656.73   25.90
   3   6   1  706.53   25.90
   3   6   1  683.33   27.50
   3   6   1  590.74   26.30
  -4  -6  -1   20.20    3.50
  -4  -6  -1   13.70    2.50
  -4  -6  -1   14.70    2.60
  -4  -6  -1   22.70    3.50
  -4  -6  -1   19.90    3.10
   4   6   1   21.60    3.10
   4   6   1   20.40    2.60
   4   6   1   18.00    1.90
   4   6   1   22.80    1.80
   4   6   1   24.90    3.50
   4   6   1   22.00    3.00
   4   6   1   20.60    1.90
  -5  -6  -1  232.48   10.40
  -5  -6  -1  216.38   13.60
  -5  -6  -1  237.78   11.60
  -5  -6  -1  223.18   10.60
  -5  -6  -1  233.48   11.00
   5   6   1  251.47   10.90
   5   6   1  246.38   10.60
   5   6   1  263.87   11.10
   5   6   1  244.48   12.40
   5   6   1  253.27   10.20
   5   6   1  250.17   10.30
   5   6   1  232.88   10.50
  -6  -6  -1   85.69    5.10
  -6  -6  -1   85.99    7.60
  -6  -6  -1   96.39    6.70
  -6  -6  -1   72.89    5.50
  -6  -6  -1   86.79    5.70
   6   6   1   94.39    4.70
   6   6   1   94.39    5.00
   6   6   1   92.99    5.10
   6   6   1   83.09    4.90
   6   6   1   87.69    7.90
  -7  -6  -1   91.89    5.50
  -7  -6  -1   98.09    5.70
  -7  -6  -1   96.19    6.70
   7   6   1  104.39    5.40
   7   6   1  105.29    5.10
   7   6   1  114.89    5.40
  -8  -6  -1   12.80    3.20
  -8  -6  -1   10.00    2.00
   8   6   1   16.30    1.60
   8   6   1   15.00    1.70
   8   6   1   12.00    2.20
   4  -7  -1  230.38   10.70
   4  -7  -1  219.98   10.90
   4  -7  -1  229.78   10.10
   4  -7  -1  238.78   10.00
  -4   7   1  221.48    9.30
  -4   7   1  216.68    9.10
  -4   7   1  210.08    9.40
   3  -7  -1  102.99    4.80
   3  -7  -1   93.39    5.40
   3  -7  -1  102.39    5.70
   3  -7  -1   98.19    6.30
  -3   7   1   96.69    4.90
  -3   7   1   97.09    5.00
  -3   7   1   99.89    5.10
  -3   7   1   96.69    5.40
   2  -7  -1  256.97   11.40
   2  -7  -1  232.88   11.00
   2  -7  -1  247.78   12.50
   2  -7  -1  242.78   11.70
   2  -7  -1  263.87   10.80
   2  -7  -1  240.08   10.90
  -2   7   1  235.88   10.00
  -2   7   1  237.58   10.00
  -2   7   1  233.58   10.00
   1  -7  -1  134.99    6.40
   1  -7  -1  141.09    6.70
   1  -7  -1  132.59    7.10
   1  -7  -1  133.29    7.00
   1  -7  -1  136.69    6.90
   1  -7  -1  146.89    7.60
  -1   7   1  133.89    5.90
  -1   7   1  124.89    5.90
  -1   7   1  140.09    6.00
  -1   7   1  120.19    6.30
   0  -7  -1   83.89    5.50
   0  -7  -1   97.09    5.40
   0  -7  -1   86.09    4.70
   0  -7  -1   84.79    4.70
   0  -7  -1   85.29    5.20
   0  -7  -1   89.79    5.20
   0   7   1   91.69    4.30
   0   7   1   87.79    6.00
   0   7   1   81.89    4.40
   0   7   1   87.69    4.80
   0   7   1   92.29    4.30
  -1  -7  -1   76.39    4.30
  -1  -7  -1   76.99    4.90
  -1  -7  -1   76.89    4.40
  -1  -7  -1   81.79    4.80
   1   7   1   76.89    3.90
   1   7   1   79.09    3.90
   1   7   1   86.89    4.10
   1   7   1   79.29    5.40
   1   7   1   72.99    5.00
  -2  -7  -1  209.08    9.60
  -2  -7  -1  217.88    9.70
  -2  -7  -1  208.98   10.70
  -2  -7  -1  218.78    9.60
  -2  -7  -1  230.58   10.30
   2   7   1  211.28    9.00
   2   7   1  202.48    9.50
   2   7   1  222.78    9.00
   2   7   1  218.18    9.00
   2   7   1  206.78   10.50
  -3  -7  -1   94.59    5.10
  -3  -7  -1   83.19    5.10
  -3  -7  -1   93.79    5.70
  -3  -7  -1   97.59    5.10
  -3  -7  -1   95.39    6.10
   3   7   1  101.39    4.70
   3   7   1   97.69    6.50
   3   7   1   93.19    6.40
   3   7   1   95.09    4.70
   3   7   1   99.49    5.30
   3   7   1  103.89    4.80
  -4  -7  -1   23.50    3.50
  -4  -7  -1   24.10    2.80
  -4  -7  -1   31.00    3.20
  -4  -7  -1   26.20    3.90
  -4  -7  -1   17.50    3.40
   4   7   1   25.40    2.00
   4   7   1   30.50    4.40
   4   7   1   24.20    3.00
   4   7   1   25.90    2.30
   4   7   1   21.80    2.10
   4   7   1   21.60    2.60
  -5  -7  -1    0.70    1.80
  -5  -7  -1    1.20    1.30
  -5  -7  -1   -0.80    3.60
  -5  -7  -1    1.70    2.30
   5   7   1    2.30    1.40
   5   7   1    1.10    1.50
   5   7   1    2.30    1.00
   5   7   1    5.60    4.10
   5   7   1    0.00    1.50
   5   7   1    1.10    1.20
  -6  -7  -1  127.29    7.80
  -6  -7  -1  130.39    8.40
  -6  -7  -1  116.19    6.70
   6   7   1  136.39    6.30
   6   7   1  136.79    6.60
   6   7   1  130.99    6.50
  -7  -7  -1  126.39    6.20
  -7  -7  -1  132.89    7.50
  -7  -7  -1  121.39    6.40
   7   7   1  144.29    6.20
   7   7   1  140.49    6.40
   7   7   1  137.19    6.50
   3  -8  -1  113.29    5.60
   3  -8  -1  113.19    5.90
   3  -8  -1  116.29    6.60
   3  -8  -1  116.49    6.80
  -3   8   1  111.59    5.30
  -3   8   1  113.29    5.10
  -3   8   1  112.39    5.30
  -3   8   1  105.49    5.50
   2  -8  -1  435.36   18.80
   2  -8  -1  422.86   18.10
   2  -8  -1  435.86   17.80
   2  -8  -1  424.56   17.50
   2  -8  -1  407.96   16.80
   2  -8  -1  419.46   17.50
  -2   8   1  409.96   16.80
  -2   8   1  414.36   16.80
  -2   8   1  413.26   16.70
  -2   8   1  429.86   16.80
   1  -8  -1   97.39    4.80
   1  -8  -1   95.19    5.50
   1  -8  -1  100.89    6.40
   1  -8  -1   94.29    5.40
   1  -8  -1  100.29    5.90
  -1   8   1  110.29    5.20
  -1   8   1  106.59    5.00
  -1   8   1  106.59    5.20
   0  -8  -1  675.43   26.60
   0  -8  -1  648.74   26.90
   0  -8  -1  681.13   27.70
   0  -8  -1  651.33   26.70
   0  -8  -1  696.63   27.20
   0   8   1  689.43   26.10
   0   8   1  691.83   26.00
   0   8   1  596.74   28.20
   0   8   1  695.03   26.10
   0   8   1  638.24   26.10
  -1  -8  -1  191.18    9.50
  -1  -8  -1  218.18    9.50
  -1  -8  -1  214.08   10.20
  -1  -8  -1  209.08    9.40
  -1  -8  -1  217.78    9.90
   1   8   1  202.78   11.30
   1   8   1  214.48    9.10
   1   8   1  220.08    9.20
   1   8   1  218.08    9.40
  -2  -8  -1  329.87   14.40
  -2  -8  -1  349.07   14.80
  -2  -8  -1  345.17   14.30
  -2  -8  -1  331.57   14.20
   2   8   1  324.77   16.40
   2   8   1  358.06   14.50
   2   8   1  371.66   14.60
   2   8   1  376.36   15.40
  -3  -8  -1   23.50    3.20
  -3  -8  -1   20.20    3.10
  -3  -8  -1   21.60    2.50
  -3  -8  -1   22.00    2.60
   3   8   1   22.70    2.80
   3   8   1   20.00    3.80
   3   8   1   23.10    1.90
   3   8   1   19.70    2.10
   3   8   1   22.10    2.00
  -4  -8  -1    3.90    2.30
  -4  -8  -1    3.10    1.20
  -4  -8  -1    2.80    2.10
  -4  -8  -1    1.60    1.50
   4   8   1    5.70    1.80
   4   8   1    3.00    1.40
   4   8   1    3.70    0.80
   4   8   1    3.50    1.10
   4   8   1    3.00    4.00
   4   8   1    4.00    1.30
  -5  -8  -1  397.96   16.70
  -5  -8  -1  338.07   16.00
   5   8   1  390.16   16.20
   5   8   1  385.36   16.30
   5   8   1  401.46   17.00
   5   8   1  459.35   17.10
  -6  -8  -1    9.80    2.80
  -6  -8  -1    8.80    1.60
  -6  -8  -1    8.20    1.70
   6   8   1    9.90    1.80
   6   8   1    8.60    1.90
   6   8   1   10.60    2.10
  -7  -8  -1   39.80    2.80
  -7  -8  -1   42.70    4.90
  -7  -8  -1   35.80    3.30
   7   8   1   44.00    2.80
   7   8   1   47.60    2.80
   2  -9  -1  225.78   10.50
  -2   9   1  220.48    9.10
  -2   9   1  224.18    9.10
  -2   9   1  220.58    9.30
   1  -9  -1  339.67   14.20
   1  -9  -1  317.37   12.90
   1  -9  -1  324.07   13.80
   1  -9  -1  318.07   14.00
   1  -9  -1  327.37   14.70
  -1   9   1  315.57   13.30
  -1   9   1  323.97   13.10
  -1   9   1  333.57   13.20
   0  -9  -1   39.30    4.40
   0  -9  -1   45.00    3.50
   0  -9  -1   41.50    3.70
   0  -9  -1   44.60    2.80
   0   9   1   43.10    2.70
   0   9   1   39.80    3.30
   0   9   1   45.10    3.60
   0   9   1   40.60    2.80
  -1  -9  -1   44.50    3.00
  -1  -9  -1   43.40    3.80
  -1  -9  -1   41.80    3.60
   1   9   1   46.40    2.90
   1   9   1   43.60    3.00
   1   9   1   48.20    3.20
   1   9   1   50.19    3.10
   2   9   1   57.99    3.50
   2   9   1   60.09    3.40
  -3  -9  -1  243.48   10.40
  -3  -9  -1  211.88   10.40
   3   9   1  237.38   10.20
   3   9   1  245.98   11.30
   3   9   1  243.38   10.30
   3   9   1  239.08   10.60
   3   9   1  246.88   10.10
  -4  -9  -1   99.19    5.60
  -4  -9  -1  107.79    5.60
   4   9   1  107.39    5.00
   4   9   1  106.19    4.80
   4   9   1  105.99    5.60
   4   9   1  112.49    5.40
  -5  -9  -1  554.54   22.00
  -5  -9  -1  538.15   22.00
   5   9   1  549.74   22.20
   5   9   1  586.04   22.50
   5   9   1  564.14   22.20
   5   9   1  544.55   21.60
  -6  -9  -1  114.99    5.20
  -6  -9  -1   98.09    5.20
   6   9   1  120.59    5.90
   6   9   1  126.99    5.60
   6   9   1  119.69    6.00
   0 -10  -1   81.49    4.60
   0 -10  -1   81.79    5.20
   0 -10  -1   81.49    4.30
   0  10   1   85.99    4.00
   0  10   1   87.49    4.20
   0  10   1   85.99    4.20
  -1 -10  -1   49.99    3.80
  -1 -10  -1   53.29    3.60
  -1 -10  -1   51.39    2.80
  -1 -10  -1   53.29    3.30
   1  10   1   52.09    2.70
   1  10   1   46.20    3.70
   1  10   1   42.90    4.30
   1  10   1   48.50    3.00
  -2 -10  -1   25.10    2.70
  -2 -10  -1   24.70    2.00
  -2 -10  -1   22.90    2.50
   2  10   1   29.00    1.90
   2  10   1   28.20    4.90
   2  10   1   25.80    3.20
   2  10   1   26.80    2.20
  -3 -10  -1   72.79    3.80
  -3 -10  -1   76.69    4.60
  -3 -10  -1   73.69    4.50
   3  10   1   69.59    3.80
   3  10   1   74.99    3.40
   3  10   1   72.99    4.00
  -4 -10  -1  273.57   11.10
  -4 -10  -1  253.07   11.10
  -4 -10  -1  271.57   11.60
   4  10   1  263.07   10.70
   4  10   1  283.27   11.20
  -5 -10  -1  271.27   10.60
  -5 -10  -1  240.78   10.50
   5  10   1  302.17   12.10
   5  10   1  285.47   11.80
   5   9  -2    0.60    1.10
   5   9  -2    3.60    0.80
  -5  -9   2    4.30    1.90
  -5  -9   2    2.20    0.90
   4   9  -2   34.30    3.10
   4   9  -2   40.90    2.50
  -4  -9   2   42.20    2.90
  -4  -9   2   43.30    2.80
   3   9  -2   41.10    2.60
   3   9  -2   30.90    3.10
  -3  -9   2   42.10    2.90
  -3  -9   2   46.90    3.10
  -3  -9   2   42.00    3.60
   2   9  -2  186.88    8.30
   2   9  -2  210.38    8.50
  -2  -9   2  185.78    8.20
  -2  -9   2  194.38    8.50
  -2  -9   2  190.98   10.30
   1   9  -2   54.49    3.00
   1   9  -2   51.59    2.90
   1   9  -2   50.19    2.70
  -1  -9   2   49.00    5.20
  -1  -9   2   49.90    3.00
  -1  -9   2   53.79    3.20
   0   9  -2   56.79    2.90
   0   9  -2   47.90    3.50
   0   9  -2   55.39    3.30
   0  -9   2   56.49    3.20
   0  -9   2   55.09    3.80
   0  -9   2   50.79    2.80
   0  -9   2   51.19    3.40
   6   8  -2  137.89    6.20
   6   8  -2  135.89    6.60
   6   8  -2  149.69    6.30
  -6  -8   2  123.69    6.00
  -6  -8   2  134.29    6.30
   5   8  -2    9.40    1.70
   5   8  -2   13.40    1.90
   5   8  -2    9.40    1.90
  -5  -8   2   11.00    2.00
  -5  -8   2   12.20    2.50
   4   8  -2   81.69    4.40
   4   8  -2   75.09    4.10
   4   8  -2   80.49    4.40
  -4  -8   2   72.89    4.40
  -4  -8   2   54.99    5.80
  -4  -8   2   68.79    4.30
   3   8  -2  265.27   11.10
   3   8  -2  250.77   10.40
   3   8  -2  255.27   11.10
   3   8  -2  266.07   11.10
  -3  -8   2  230.08   11.10
  -3  -8   2  262.27   11.20
  -3  -8   2  252.37   11.20
   2   8  -2   16.00    1.60
   2   8  -2   10.90    1.90
   2   8  -2   14.70    2.10
   2   8  -2   10.60    2.10
  -2  -8   2   12.40    2.10
  -2  -8   2   13.00    2.40
  -2  -8   2    9.00    1.70
   1   8  -2  171.88    9.10
   1   8  -2  178.48    8.00
   1   8  -2  188.58    7.60
   1   8  -2  177.48    7.80
  -1  -8   2  186.28    8.60
  -1  -8   2  185.48    8.70
  -1  -8   2  193.48    8.50
  -1  -8   2  175.08    9.80
   0   8  -2  102.99    4.60
   0   8  -2  103.89    5.00
   0   8  -2   94.49    4.80
   0   8  -2   88.39    4.80
   0   8  -2   95.09    5.90
   0  -8   2  103.19    5.40
   0  -8   2   95.19    5.40
   0  -8   2   95.39    5.00
  -1   8  -2   32.30    3.10
  -1   8  -2   34.30    2.30
   1  -8   2   40.00    2.60
   1  -8   2   38.30    3.10
   1  -8   2   39.50    3.20
  -2   8  -2   31.80    2.20
  -2   8  -2   26.20    3.70
  -2   8  -2   33.10    2.00
   2  -8   2   33.50    2.50
   2  -8   2   31.10    2.50
   2  -8   2   30.80    3.00
   7   7  -2   11.60    1.90
   7   7  -2    9.90    1.50
   7   7  -2   10.90    1.30
  -7  -7   2    6.10    2.00
  -7  -7   2    5.50    1.10
   6   7  -2  562.24   21.90
   6   7  -2  516.05   22.10
   6   7  -2  576.64   22.10
  -6  -7   2  508.35   20.40
  -6  -7   2  485.55   20.80
   5   7  -2  197.48    8.60
   5   7  -2  185.08    8.90
   5   7  -2  205.98    9.10
  -5  -7   2  176.78    8.80
  -5  -7   2  202.08    9.80
  -5  -7   2  182.38    8.90
   4   7  -2  744.43   30.30
   4   7  -2  768.82   30.30
   4   7  -2  789.82   30.40
  -4  -7   2  693.43   29.10
  -4  -7   2  730.83   29.40
  -4  -7   2  752.02   29.30
   3   7  -2  667.23   27.10
   3   7  -2  707.33   27.70
   3   7  -2  709.83   27.70
   3   7  -2  694.33   27.00
   3   7  -2  707.43   27.80
  -3  -7   2  639.94   27.00
  -3  -7   2  712.73   27.30
  -3  -7   2  646.54   27.00
   2   7  -2 1355.06   54.49
   2   7  -2 1389.56   54.79
   2   7  -2 1471.85   54.39
   2   7  -2 1335.47   55.09
   2   7  -2 1501.05   54.89
   2   7  -2 1454.15   54.99
  -2  -7   2 1418.06   56.49
  -2  -7   2 1499.85   56.49
  -2  -7   2 1417.16   56.39
   1   7  -2  670.43   26.90
   1   7  -2  718.73   27.30
   1   7  -2  715.63   26.80
   1   7  -2  693.53   27.00
   1   7  -2  635.74   30.40
   1   7  -2  682.73   27.40
   1   7  -2  682.33   28.50
  -1  -7   2  716.73   28.40
  -1  -7   2  687.63   28.60
  -1  -7   2  706.43   29.30
  -1  -7   2  685.93   28.60
  -1  -7   2  738.23   28.60
   0   7  -2 1762.42   66.59
   0   7  -2 1713.53   66.29
   0   7  -2 1700.43   66.59
   0   7  -2 1586.44   67.89
   0   7  -2 1844.22   67.49
   0   7  -2 1790.62   66.39
   0  -7   2 1800.12   67.89
   0  -7   2 1772.02   68.99
   0  -7   2 1774.22   68.09
   0  -7   2 1763.72   68.29
   0  -7   2 1674.33   68.09
  -1   7  -2   20.90    2.40
  -1   7  -2   16.60    1.80
  -1   7  -2   15.80    2.20
  -1   7  -2   14.50    2.60
   1  -7   2   12.80    2.10
   1  -7   2   16.10    2.60
   1  -7   2   16.20    2.60
  -2   7  -2 1082.39   44.30
  -2   7  -2 1165.98   44.00
  -2   7  -2 1149.89   44.20
  -2   7  -2 1168.38   44.20
   2  -7   2 1220.28   45.90
   2  -7   2 1107.99   46.30
   2  -7   2 1189.68   47.30
   2  -7   2 1215.08   46.20
  -3   7  -2    8.80    1.80
  -3   7  -2   10.00    1.80
  -3   7  -2   12.10    1.50
   3  -7   2   11.80    1.70
   3  -7   2   10.00    2.10
   3  -7   2    9.90    2.40
   7   6  -2   49.30    2.80
   7   6  -2   47.00    2.90
   7   6  -2   49.50    3.10
  -7  -6   2   45.50    3.30
  -7  -6   2   31.30    4.50
   6   6  -2 1733.73   65.09
   6   6  -2 1641.54   65.39
   6   6  -2 1723.13   65.69
  -6  -6   2 1604.04   62.49
  -6  -6   2 1632.14   62.89
  -6  -6   2 1592.84   61.59
   5   6  -2   99.99    5.10
   5   6  -2   99.09    5.00
   5   6  -2   93.69    4.90
   5   6  -2   93.29    4.90
  -5  -6   2   89.79    7.50
  -5  -6   2   83.19    5.50
  -5  -6   2   78.69    8.10
  -5  -6   2   84.19    4.90
  -5  -6   2   89.79    5.50
  -5  -6   2   88.59    5.10
   4   6  -2 3371.86  127.49
   4   6  -2 3381.46  127.59
   4   6  -2 3043.70  129.29
   4   6  -2 3445.26  127.59
   4   6  -2 3419.46  126.79
   4   6  -2 3402.66  127.19
  -4  -6   2 3280.07  127.39
  -4  -6   2 3164.68  125.99
  -4  -6   2 3309.07  126.99
  -4  -6   2 3364.16  127.39
  -4  -6   2 3373.96  129.69
  -4  -6   2 3407.16  126.19
   3   6  -2   94.99    4.80
   3   6  -2   96.69    4.40
   3   6  -2   95.49    5.10
   3   6  -2   96.09    5.00
   3   6  -2  100.99    4.60
   3   6  -2   95.99    6.10
  -3  -6   2   96.89    5.80
  -3  -6   2   97.99    5.90
  -3  -6   2   93.79    4.70
  -3  -6   2   94.39    7.10
  -3  -6   2  103.09    5.70
   2   6  -2 2688.33  100.79
   2   6  -2 2583.24  100.69
   2   6  -2 2671.23  100.69
   2   6  -2 2586.04  100.19
   2   6  -2 2679.13  100.29
   2   6  -2 2622.54  101.59
   2   6  -2 2614.14  100.29
  -2  -6   2 2745.33  101.49
  -2  -6   2 2690.93  101.89
  -2  -6   2 2671.03  101.49
  -2  -6   2 2410.86  100.69
  -2  -6   2 2677.03  101.59
   1   6  -2  394.06   16.80
   1   6  -2  394.26   16.30
   1   6  -2  402.56   17.60
   1   6  -2  444.86   17.60
   1   6  -2  409.46   17.50
   1   6  -2  417.06   16.30
   1   6  -2  408.16   16.70
  -1  -6   2  439.76   18.00
  -1  -6   2  419.86   17.50
  -1  -6   2  408.16   17.60
  -1  -6   2  393.26   17.30
   0   6  -2 2280.77   91.79
   0   6  -2 2429.56   91.79
   0   6  -2 2419.96   93.19
   0   6  -2 2392.66   91.99
   0   6  -2 2498.55   91.79
   0   6  -2 2423.36   92.29
   0   6  -2 2402.96   93.19
   0  -6   2 2556.04   96.89
   0  -6   2 2444.36   96.29
   0  -6   2 2571.14   96.19
   0  -6   2 2487.65   95.99
   0  -6   2 2445.96   96.29
  -1   6  -2  579.74   22.00
  -1   6  -2  518.25   23.30
  -1   6  -2  570.34   22.00
  -1   6  -2  530.55   22.10
  -1   6  -2  578.04   22.10
   1  -6   2  532.25   23.10
   1  -6   2  548.85   22.80
   1  -6   2  558.14   23.50
   1  -6   2  582.64   22.60
   1  -6   2  561.04   23.00
  -2   6  -2  860.81   33.00
  -2   6  -2  822.92   33.20
  -2   6  -2  855.21   33.10
  -2   6  -2  846.12   33.20
   2  -6   2  883.81   35.00
   2  -6   2  873.81   34.50
   2  -6   2  870.11   35.50
   2  -6   2  864.71   34.70
  -3   6  -2  375.56   15.00
  -3   6  -2  358.66   15.10
  -3   6  -2  369.46   15.00
  -3   6  -2  360.56   15.10
   3  -6   2  406.16   17.90
   3  -6   2  392.96   17.10
   3  -6   2  408.76   16.90
  -4   6  -2   85.09    4.30
  -4   6  -2   85.49    5.70
  -4   6  -2   78.19    4.50
  -4   6  -2   83.39    4.00
   4  -6   2   85.59    5.60
   4  -6   2   90.79    4.40
   4  -6   2   84.19    4.80
   8   5  -2  110.89    5.20
   8   5  -2  112.09    5.00
   8   5  -2  122.09    5.10
  -8  -5   2  106.89    5.30
   7   5  -2  244.78   10.30
   7   5  -2  249.88   10.40
   7   5  -2  243.98   10.50
  -7  -5   2  217.18    9.60
  -7  -5   2  238.68   10.70
   6   5  -2  302.87   12.70
   6   5  -2  315.67   12.90
   6   5  -2  303.77   13.00
  -6  -5   2  263.17   12.50
  -6  -5   2  284.97   11.70
  -6  -5   2  270.17   11.80
  -6  -5   2  271.87   12.50
  -6  -5   2  273.87   11.80
  -6  -5   2  292.47   13.60
  -6  -5   2  253.67   14.50
   5   5  -2  121.09    5.90
   5   5  -2  119.89    5.70
   5   5  -2  121.99    6.10
   5   5  -2  124.79    5.90
  -5  -5   2  126.49    6.30
  -5  -5   2  124.19    7.00
  -5  -5   2  124.89    7.20
  -5  -5   2  122.89    6.20
  -5  -5   2  127.89    7.70
  -5  -5   2  111.29    7.90
   4   5  -2    0.10    1.10
   4   5  -2   -0.60    1.10
   4   5  -2    3.30    1.20
   4   5  -2    1.10    0.90
   4   5  -2    0.30    1.20
   4   5  -2    1.60    2.00
  -4  -5   2    1.50    2.00
  -4  -5   2   -0.80    2.10
  -4  -5   2   -0.50    1.50
  -4  -5   2    0.50    1.10
  -4  -5   2    0.50    1.40
  -4  -5   2    1.20    2.40
  -4  -5   2    0.80    1.30
   3   5  -2   37.40    2.30
   3   5  -2   31.80    3.00
   3   5  -2   36.50    3.10
   3   5  -2   31.00    2.40
   3   5  -2   28.10    2.30
   3   5  -2   29.70    2.20
  -3  -5   2   27.10    3.60
  -3  -5   2   28.00    2.40
  -3  -5   2   32.20    2.30
  -3  -5   2   35.30    3.80
  -3  -5   2   22.10    4.20
   2   5  -2    1.40    2.50
   2   5  -2    1.50    0.90
  -2  -5   2   -1.30    2.40
  -2  -5   2    2.70    1.20
  -2  -5   2    4.60    2.80
  -2  -5   2    1.90    1.10
  -2  -5   2    2.20    1.10
  -2  -5   2    0.80    1.60
   1   5  -2  864.01   32.90
   1   5  -2  855.01   33.90
   1   5  -2  809.72   33.30
   1   5  -2  861.81   32.90
   1   5  -2  833.42   33.20
   1   5  -2  922.11   33.80
   1   5  -2  852.51   33.90
   1   5  -2  816.02   32.80
  -1  -5   2  878.21   35.60
  -1  -5   2  908.41   35.60
  -1  -5   2 1012.70   37.70
  -1  -5   2  868.01   35.50
  -1  -5   2  822.32   34.50
   0   5  -2  335.47   14.10
   0   5  -2  335.47   14.90
   0   5  -2  349.37   14.50
   0   5  -2  370.96   13.90
   0   5  -2  345.87   13.90
   0   5  -2  343.67   13.90
   0  -5   2  350.46   15.20
   0  -5   2  354.06   15.20
   0  -5   2  346.87   14.80
   0  -5   2  361.66   15.30
   0  -5   2  360.96   15.10
  -1   5  -2  826.92   30.90
  -1   5  -2  772.52   32.00
  -1   5  -2  792.22   30.80
  -1   5  -2  780.12   30.80
   1  -5   2  850.81   33.80
   1  -5   2  830.72   33.60
   1  -5   2  820.52   33.10
   1  -5   2  873.21   36.00
   1  -5   2  851.11   33.70
   1  -5   2  841.42   33.40
   1  -5   2  812.72   33.70
  -2   5  -2  170.88    7.60
  -2   5  -2  168.58    8.80
  -2   5  -2  177.28    7.60
  -2   5  -2  165.78    8.20
  -2   5  -2  170.08    7.50
  -2   5  -2  171.08    7.80
   2  -5   2  180.18    8.80
   2  -5   2  161.18    8.20
   2  -5   2  175.08    8.40
   2  -5   2  170.88    8.70
   2  -5   2  171.18    8.00
   2  -5   2  176.98    8.50
   2  -5   2  160.78    8.80
  -3   5  -2  121.99    5.60
  -3   5  -2  113.49    5.80
  -3   5  -2  122.29    5.80
  -3   5  -2  116.49    7.00
  -3   5  -2  120.39    5.90
   3  -5   2  123.19    6.90
   3  -5   2  128.09    6.20
   3  -5   2  116.29    6.40
   3  -5   2  127.39    6.70
   3  -5   2  113.49    7.30
   3  -5   2  126.99    7.70
   3  -5   2  122.09    6.70
  -4   5  -2  391.46   16.30
  -4   5  -2  403.36   16.20
  -4   5  -2  389.06   16.00
   4  -5   2  442.66   18.80
   4  -5   2  421.66   17.60
   4  -5   2  376.26   18.30
   4  -5   2  452.35   18.60
   4  -5   2  420.96   17.50
  -5   5  -2  102.59    4.80
  -5   5  -2  121.09    9.20
  -5   5  -2   99.29    5.30
   5  -5   2  100.29    4.90
   5  -5   2  106.99   10.30
   5  -5   2   96.09    5.40
   5  -5   2  108.39    5.50
   8   4  -2   47.80    2.70
   8   4  -2   42.00    2.40
  -8  -4   2   39.60    3.40
  -8  -4   2   31.50    3.20
  -8  -4   2   41.70    2.70
   7   4  -2   27.60    4.20
   7   4  -2   22.10    2.10
   7   4  -2   20.90    2.40
   7   4  -2   21.60    2.10
  -7  -4   2   26.30    3.20
  -7  -4   2   21.60    2.90
  -7  -4   2   24.70    4.20
   6   4  -2   18.50    2.20
   6   4  -2   13.30    3.30
   6   4  -2   13.20    1.80
   6   4  -2   17.10    2.70
   6   4  -2   20.40    2.10
   6   4  -2   21.60    4.40
  -6  -4   2   21.20    4.60
  -6  -4   2   25.80    3.40
  -6  -4   2   20.80    3.10
  -6  -4   2   11.40    4.30
  -6  -4   2   16.10    2.90
   5   4  -2   80.09    4.20
   5   4  -2   70.79    5.00
   5   4  -2   62.39    6.40
   5   4  -2   76.89    4.00
   5   4  -2   78.19    4.40
   5   4  -2   80.39    5.40
  -5  -4   2   91.99    6.30
  -5  -4   2   65.69    4.70
  -5  -4   2   73.59    5.90
  -5  -4   2   82.89    6.30
  -5  -4   2   81.39    4.90
   4   4  -2  252.47   15.60
   4   4  -2  225.08    9.60
   4   4  -2  218.38    9.90
   4   4  -2  216.08   10.00
   4   4  -2  220.28   11.60
   4   4  -2  225.48    9.70
   4   4  -2  239.48   10.40
  -4  -4   2  226.78   10.00
  -4  -4   2  214.48   10.70
  -4  -4   2  222.08   10.60
  -4  -4   2  224.68    9.90
  -4  -4   2  229.28   11.20
   3   4  -2  611.24   24.10
   3   4  -2  611.04   24.00
   3   4  -2  598.94   24.10
   3   4  -2  639.14   23.60
   3   4  -2  604.54   23.90
   3   4  -2  641.04   24.50
   3   4  -2  616.14   25.70
   3   4  -2  538.85   25.60
   3   4  -2  611.34   23.60
  -3  -4   2  604.14   25.10
  -3  -4   2  605.44   25.10
  -3  -4   2  581.44   24.40
  -3  -4   2  610.24   24.60
  -3  -4   2  639.04   25.70
  -3  -4   2  638.64   24.40
  -3  -4   2  608.24   25.00
  -3  -4   2  638.34   24.20
   2   4  -2  332.17   14.50
   2   4  -2  355.46   13.50
   2   4  -2  356.06   13.50
   2   4  -2  339.77   13.80
   2   4  -2  345.37   13.50
   2   4  -2  320.47   13.80
   2   4  -2  340.97   15.90
   2   4  -2  335.07   14.00
  -2  -4   2  369.96   14.80
  -2  -4   2  358.96   13.70
  -2  -4   2  361.46   14.20
  -2  -4   2  382.66   15.40
  -2  -4   2  338.17   15.10
  -2  -4   2  337.27   15.20
  -2  -4   2  340.67   15.10
   1   4  -2  773.82   29.90
   1   4  -2  761.42   29.80
   1   4  -2  747.33   29.40
   1   4  -2  731.43   29.10
   1   4  -2  738.13   29.10
   1   4  -2  776.92   29.10
  -1  -4   2  788.02   30.20
  -1  -4   2  718.23   30.20
  -1  -4   2  748.43   30.40
  -1  -4   2  803.22   30.20
  -1  -4   2  766.52   30.40
   0   4  -2  976.60   35.90
   0   4  -2  915.81   36.20
   0   4  -2  949.51   35.90
   0   4  -2  894.61   35.90
   0   4  -2  936.21   36.70
   0  -4   2  995.90   38.20
   0  -4   2  944.01   38.30
   0  -4   2 1016.20   38.40
   0  -4   2 1014.70   38.20
   0  -4   2  999.60   37.50
   0  -4   2  957.40   37.90
   0  -4   2  937.71   37.30
   0  -4   2  960.40   38.20
   0  -4   2  933.51   38.00
  -1   4  -2  111.59    5.70
  -1   4  -2  109.49    5.00
  -1   4  -2  105.59    4.80
  -1   4  -2  108.59    5.40
  -1   4  -2  116.19    5.00
  -1   4  -2  107.59    6.40
   1  -4   2  115.19    5.90
   1  -4   2  122.39    6.00
   1  -4   2  117.19    6.30
   1  -4   2  118.49    6.80
   1  -4   2  115.69    8.00
   1  -4   2  127.39    6.20
   1  -4   2  117.39    6.20
  -2   4  -2  476.75   19.80
  -2   4  -2  440.36   19.80
  -2   4  -2  521.25   19.50
  -2   4  -2  499.35   20.50
  -2   4  -2  525.05   19.60
   2  -4   2  525.05   21.50
   2  -4   2  573.84   23.60
   2  -4   2  512.05   21.40
   2  -4   2  532.65   21.50
   2  -4   2  510.25   21.30
   2  -4   2  488.45   23.60
  -3   4  -2  160.08    7.00
  -3   4  -2  151.08    7.90
  -3   4  -2  151.88    6.80
  -3   4  -2  146.29    7.00
  -3   4  -2  148.79    6.90
   3  -4   2  160.38    8.00
   3  -4   2  156.08    8.00
   3  -4   2  165.78    7.90
   3  -4   2  161.28    7.60
   3  -4   2  168.88    8.10
   3  -4   2  162.68    8.10
   3  -4   2  136.59   12.20
   3  -4   2  168.28    8.10
  -4   4  -2  108.99    5.50
  -4   4  -2  102.99    5.50
  -4   4  -2  102.79    5.10
  -4   4  -2  108.19    5.40
  -4   4  -2  101.29    6.80
   4  -4   2  109.49    6.20
   4  -4   2  108.49    5.70
   4  -4   2  113.59    6.20
   4  -4   2  100.89    5.80
   4  -4   2  109.09    7.30
  -5   4  -2  190.08    9.20
  -5   4  -2  203.98    8.60
  -5   4  -2  197.28   10.90
  -5   4  -2  190.58    8.80
  -5   4  -2  200.48    8.90
   5  -4   2  225.18   11.10
   5  -4   2  207.88    9.50
   5  -4   2  199.08    9.70
   5  -4   2  209.78    9.30
  -6   4  -2   18.00    3.50
  -6   4  -2    6.10    2.10
  -6   4  -2   10.20    1.70
  -6   4  -2   12.80    2.00
   6  -4   2    9.90    1.40
   6  -4   2    9.30    2.00
   6  -4   2    9.30    1.40
   8   3  -2   53.09    3.10
   8   3  -2   54.39    2.90
   8   3  -2   47.40    2.70
  -8  -3   2   50.39    4.70
  -8  -3   2   31.00    7.00
  -8  -3   2   41.10    3.00
   7   3  -2   53.29    3.00
   7   3  -2   51.79    3.60
   7   3  -2   40.70    6.20
   7   3  -2   49.20    3.10
  -7  -3   2   45.00    4.20
  -7  -3   2   43.60    4.00
  -7  -3   2   48.50    3.60
  -7  -3   2   45.60    5.90
   6   3  -2  248.78   13.10
   6   3  -2  271.57   11.20
   6   3  -2  265.07   11.30
   6   3  -2  255.47   11.40
   6   3  -2  268.17   11.10
  -6  -3   2  240.48   11.00
  -6  -3   2  239.78   12.80
  -6  -3   2  239.28   11.10
  -6  -3   2  251.57   10.90
  -6  -3   2  241.08   12.00
   5   3  -2  551.24   21.00
   5   3  -2  531.85   20.70
   5   3  -2  534.75   21.80
   5   3  -2  506.85   22.70
   5   3  -2  523.15   20.80
   5   3  -2  467.15   22.90
  -5  -3   2  509.95   20.90
  -5  -3   2  529.65   21.10
  -5  -3   2  511.65   20.90
  -5  -3   2  525.35   22.60
  -5  -3   2  483.45   21.50
   4   3  -2  160.88    8.50
   4   3  -2  164.28    7.50
   4   3  -2  147.39    8.70
   4   3  -2  149.29    7.40
   4   3  -2  159.18    7.10
   4   3  -2  162.58    7.00
   4   3  -2  140.19    8.70
   4   3  -2  160.68    6.90
  -4  -3   2  161.08    7.70
  -4  -3   2  164.78    7.50
  -4  -3   2  172.38    8.70
  -4  -3   2  159.98    7.90
   3   3  -2  830.92   31.40
   3   3  -2  736.93   31.10
   3   3  -2  858.81   33.20
   3   3  -2  740.53   30.90
   3   3  -2  819.82   32.10
  -3  -3   2  725.53   30.60
  -3  -3   2  782.62   30.20
  -3  -3   2  794.32   30.10
  -3  -3   2  801.92   31.20
  -3  -3   2  742.83   30.40
  -3  -3   2  777.12   30.10
   2   3  -2  616.14   23.60
   2   3  -2  638.24   24.10
   2   3  -2  591.24   25.90
   2   3  -2  601.64   23.60
  -2  -3   2  608.84   23.80
  -2  -3   2  624.64   24.00
  -2  -3   2  610.74   23.40
  -2  -3   2  609.54   24.00
  -2  -3   2  611.14   24.70
  -2  -3   2  599.34   23.90
   1   3  -2 2408.86   88.89
   1   3  -2 2249.57   88.19
   1   3  -2 2318.47   88.69
  -1  -3   2 2343.27   87.49
  -1  -3   2 2318.87   88.19
  -1  -3   2 2323.17   88.59
  -1  -3   2 2262.77   88.19
   0   3  -2 4745.83  173.08
   0   3  -2 4400.06  172.28
   0   3  -2 4490.35  171.98
   0  -3   2 4809.22  167.98
   0  -3   2 4325.37  168.48
   0  -3   2 4173.78  168.38
  -1   3  -2  415.46   16.80
  -1   3  -2  393.66   16.60
  -1   3  -2  423.46   16.20
  -1   3  -2  416.16   16.20
  -1   3  -2  416.16   15.80
   1  -3   2  426.36   18.30
   1  -3   2  442.76   17.50
   1  -3   2  414.26   16.80
   1  -3   2  442.46   17.40
  -2   3  -2 1138.49   43.30
  -2   3  -2 1167.48   43.60
  -2   3  -2 1129.79   43.60
  -2   3  -2 1078.29   44.40
  -2   3  -2 1140.09   43.60
  -2   3  -2 1160.08   44.40
   2  -3   2 1253.77   48.90
   2  -3   2 1281.37   47.20
   2  -3   2 1146.99   47.00
   2  -3   2 1131.79   48.70
   2  -3   2 1195.88   47.10
   2  -3   2 1188.28   46.90
   2  -3   2 1276.47   47.10
  -3   3  -2  871.01   35.40
  -3   3  -2  913.21   35.30
  -3   3  -2  888.91   35.30
  -3   3  -2  964.50   35.60
  -3   3  -2  910.01   36.10
   3  -3   2  887.21   35.80
   3  -3   2  967.40   36.00
   3  -3   2  910.91   38.80
   3  -3   2  909.61   36.00
   3  -3   2  939.31   35.90
   3  -3   2  843.32   37.30
  -4   3  -2  801.72   31.40
  -4   3  -2  810.72   31.40
  -4   3  -2  795.22   31.50
  -4   3  -2  805.82   32.70
  -4   3  -2  793.52   31.50
   4  -3   2  855.51   33.40
   4  -3   2  815.02   34.60
   4  -3   2  836.52   33.40
   4  -3   2  862.31   33.80
   4  -3   2  816.12   37.70
   4  -3   2  855.41   33.30
  -5   3  -2  147.69    7.20
  -5   3  -2  154.48    6.80
  -5   3  -2  138.69    8.50
  -5   3  -2  147.09    7.10
  -5   3  -2  146.19    7.20
   5  -3   2  157.58   17.10
   5  -3   2  158.08    7.50
   5  -3   2  156.08    7.80
   5  -3   2  154.48    9.40
   5  -3   2  150.88    7.70
   5  -3   2  167.98    7.80
  -6   3  -2  298.17   13.80
  -6   3  -2  339.57   13.90
  -6   3  -2  338.17   13.30
  -6   3  -2  321.97   13.60
   6  -3   2  371.46   14.90
   6  -3   2  348.47   15.10
   6  -3   2  350.96   14.60
   8   2  -2  552.24   20.80
   8   2  -2  522.55   21.10
   8   2  -2  518.25   20.60
   8   2  -2  524.45   20.80
  -8  -2   2  462.85   19.60
  -8  -2   2  469.95   19.20
  -8  -2   2  455.45   20.50
  -8  -2   2  506.15   19.20
   7   2  -2   87.09    4.80
   7   2  -2   92.89    4.60
   7   2  -2   93.19    4.50
  -7  -2   2   76.99    5.20
  -7  -2   2   79.59    4.80
  -7  -2   2   87.89    6.70
  -7  -2   2   90.09    5.40
   6   2  -2  240.28   10.80
   6   2  -2  243.78   10.40
   6   2  -2  237.68   10.40
   6   2  -2  218.78   12.90
   6   2  -2  277.87   12.50
   6   2  -2  235.08   14.40
   6   2  -2  235.28   10.60
   6   2  -2  241.38   10.30
  -6  -2   2  221.98   11.90
  -6  -2   2  234.98   10.40
  -6  -2   2  217.28   11.30
  -6  -2   2  229.78   10.50
   5   2  -2   62.59    6.00
   5   2  -2   66.19    4.00
   5   2  -2   50.19    3.90
   5   2  -2   68.49    4.50
  -5  -2   2   57.09    4.80
  -5  -2   2   64.49    3.70
  -5  -2   2   64.29    5.10
  -5  -2   2   55.89    4.30
   4   2  -2  629.14   25.60
   4   2  -2  657.93   24.70
   4   2  -2  631.74   24.30
   4   2  -2  622.14   24.20
   4   2  -2  583.64   24.00
   4   2  -2  578.74   25.90
   4   2  -2  598.14   24.10
   4   2  -2  598.44   25.50
  -4  -2   2  630.04   25.90
  -4  -2   2  592.04   25.20
  -4  -2   2  638.04   24.80
  -4  -2   2  597.74   24.80
  -4  -2   2  654.13   24.70
   3   2  -2  552.44   21.40
   3   2  -2  479.15   23.10
   3   2  -2  545.55   21.00
  -3  -2   2  507.55   19.20
  -3  -2   2  476.35   19.90
  -3  -2   2  454.95   19.20
   2   2  -2 1513.15   58.29
   2   2  -2 1498.05   57.59
  -2  -2   2 1514.15   57.79
  -2  -2   2 1469.85   57.49
  -2  -2   2 1486.15   57.49
  -2  -2   2 1559.24   58.29
   1   2  -2  281.37   11.10
   1   2  -2  277.87   10.80
   1   2  -2  264.27   11.50
   1   2  -2  262.37   10.60
  -1  -2   2  273.37   10.80
  -1  -2   2  282.17   11.20
  -1  -2   2  286.37   11.30
   0   2  -2 1182.68   45.00
   0   2  -2 1188.48   44.40
   0   2  -2 1139.79   44.50
   0  -2   2 1210.78   46.50
   0  -2   2 1195.58   46.60
   0  -2   2 1181.58   46.30
   0  -2   2 1275.47   46.60
  -1   2  -2  175.88    7.00
  -1   2  -2  172.98    6.80
  -1   2  -2  168.08    7.20
  -1   2  -2  180.18    7.50
   1  -2   2  179.48    8.40
   1  -2   2  183.58    7.80
   1  -2   2  179.08    7.40
   1  -2   2  194.08    7.80
  -2   2  -2  198.98    8.20
  -2   2  -2  177.48    8.30
  -2   2  -2  188.48    7.50
  -2   2  -2  194.28    7.80
   2  -2   2  203.98    8.70
   2  -2   2  205.78   10.00
   2  -2   2  213.98    8.70
   2  -2   2  190.08    8.20
  -3   2  -2  214.38    9.10
  -3   2  -2  194.78    8.90
  -3   2  -2  213.28    8.60
  -3   2  -2  210.88    8.70
  -3   2  -2  195.88    8.60
  -3   2  -2  198.08    8.30
   3  -2   2  217.68    9.80
   3  -2   2  224.28    9.00
   3  -2   2  198.08   11.10
   3  -2   2  196.48    9.30
   3  -2   2  199.58    9.30
   3  -2   2  221.88    9.10
   3  -2   2  191.98    9.20
   3  -2   2  205.88    9.10
  -4   2  -2  611.64   25.50
  -4   2  -2  635.44   25.40
  -4   2  -2  678.63   25.50
  -4   2  -2  634.54   25.30
  -4   2  -2  652.33   26.00
   4  -2   2  697.83   27.60
   4  -2   2  660.83   28.80
   4  -2   2  704.23   31.10
   4  -2   2  679.03   27.80
   4  -2   2  684.93   27.40
   4  -2   2  701.53   27.60
  -5   2  -2  510.55   20.40
  -5   2  -2  477.85   21.60
  -5   2  -2  492.95   20.20
  -5   2  -2  513.15   20.20
  -5   2  -2  517.15   21.00
  -5   2  -2  494.15   20.40
   5  -2   2  524.95   24.30
   5  -2   2  541.15   22.70
   5  -2   2  598.04   35.20
   5  -2   2  567.94   22.50
   5  -2   2  544.95   22.60
   5  -2   2  544.65   22.80
  -6   2  -2  187.48    8.80
  -6   2  -2  194.58    9.10
  -6   2  -2  194.98   10.30
   6  -2   2  177.28    9.70
   6  -2   2  160.88    9.10
  -7   2  -2   54.59    4.30
  -7   2  -2   54.99    3.00
  -7   2  -2   49.30    4.80
  -7   2  -2   48.40    3.40
   7  -2   2   54.59    3.50
   7  -2   2   49.50    2.90
   8   1  -2   76.19    3.50
   8   1  -2   78.79    4.10
   8   1  -2   76.59    3.70
   8   1  -2   69.09    4.00
  -8  -1   2   70.49    4.20
  -8  -1   2   61.29    4.50
  -8  -1   2   66.59    5.10
  -8  -1   2   72.99    6.80
   7   1  -2  107.19    5.30
   7   1  -2   81.39   16.40
   7   1  -2   97.49    4.90
   7   1  -2   98.79    5.20
   7   1  -2  100.89    4.80
  -7  -1   2   92.79    5.50
  -7  -1   2   85.89    5.10
  -7  -1   2   91.69    6.70
   6   1  -2  242.58   13.20
   6   1  -2  270.67   11.30
   6   1  -2  244.88   15.10
   6   1  -2  267.77   11.00
   6   1  -2  269.07   11.00
  -6  -1   2  261.37   11.30
  -6  -1   2  256.77   11.20
  -6  -1   2  240.38   12.10
  -6  -1   2  249.38   11.30
   5   1  -2   29.70    2.60
   5   1  -2   28.10    3.70
   5   1  -2   30.50    4.70
   5   1  -2   28.30    2.40
   5   1  -2   33.40    4.90
  -5  -1   2   30.70    3.40
  -5  -1   2   29.70    3.60
  -5  -1   2   32.10    3.90
  -5  -1   2   30.00    3.10
  -5  -1   2   32.10    2.50
   4   1  -2 1114.09   45.50
   4   1  -2 1124.69   45.00
   4   1  -2 1185.58   44.00
   4   1  -2 1102.99   44.50
   4   1  -2 1086.49   43.30
   4   1  -2 1180.68   45.50
   4   1  -2 1113.69   43.40
   4   1  -2 1091.59   43.50
  -4  -1   2 1155.78   43.20
  -4  -1   2 1135.09   43.20
  -4  -1   2 1146.99   44.50
  -4  -1   2 1137.99   43.90
  -4  -1   2 1006.90   44.50
   3   1  -2   70.59    4.10
   3   1  -2   73.59    3.90
   3   1  -2   70.39    3.70
  -3  -1   2   71.39    4.20
  -3  -1   2   65.39    3.30
  -3  -1   2   69.99    3.90
   2   1  -2  870.61   33.60
   2   1  -2  858.01   33.10
   2   1  -2  828.02   33.40
   2   1  -2  885.11   33.30
  -2  -1   2  846.22   32.40
  -2  -1   2  854.91   32.30
  -2  -1   2  824.52   31.70
  -2  -1   2  799.02   31.50
  -2  -1   2  802.62   31.50
   1   1  -2 1034.90   39.70
   1   1  -2 1021.20   40.10
   1   1  -2 1050.59   39.40
  -1  -1   2  999.90   39.70
  -1  -1   2 1037.10   39.70
  -1  -1   2 1039.90   39.50
  -1  -1   2 1085.99   39.70
   0   1  -2 1468.95   56.39
   0   1  -2 1512.15   56.79
   0  -1   2 1448.85   53.79
   0  -1   2 1357.26   53.59
   0  -1   2 1437.76   53.69
  -1   1  -2  296.87   11.30
  -1   1  -2  291.67   11.50
  -1   1  -2  305.77   11.70
  -1   1  -2  280.67   11.40
   1  -1   2  319.17   12.10
   1  -1   2  291.37   11.90
   1  -1   2  305.17   12.10
  -2   1  -2 1578.24   60.39
   2  -1   2 1624.34   60.39
   2  -1   2 1556.04   60.59
   2  -1   2 1615.24   60.59
   2  -1   2 1627.44   60.59
   2  -1   2 1510.65   60.29
  -3   1  -2  278.27   11.80
  -3   1  -2  291.47   12.00
  -3   1  -2  284.27   11.70
  -3   1  -2  309.47   13.10
   3  -1   2  283.07   12.00
   3  -1   2  304.87   11.80
   3  -1   2  279.27   12.20
   3  -1   2  264.77   12.10
   3  -1   2  309.17   11.90
  -4   1  -2   34.70    2.70
  -4   1  -2   34.50    2.60
  -4   1  -2   35.20    3.70
  -4   1  -2   31.10    4.60
  -4   1  -2   31.60    2.30
  -4   1  -2   35.60    2.50
   4  -1   2   34.30    2.60
   4  -1   2   34.90    2.90
   4  -1   2   30.70    3.00
   4  -1   2   42.40    3.10
   4  -1   2   38.70    5.10
   4  -1   2   36.40    6.50
  -5   1  -2  218.48   10.10
  -5   1  -2  216.58    9.40
  -5   1  -2  215.48    9.70
  -5   1  -2  216.48   10.20
  -5   1  -2  215.48   10.00
  -5   1  -2  216.28    9.70
   5  -1   2  219.78    9.70
   5  -1   2  226.58   10.20
   5  -1   2  185.88   10.90
   5  -1   2  226.28   10.10
   5  -1   2  228.08   10.00
   5  -1   2  232.08   14.00
   5  -1   2  228.18   10.20
  -6   1  -2  369.76   15.30
  -6   1  -2  334.87   16.10
  -6   1  -2  373.56   15.70
  -6   1  -2  371.26   15.00
  -6   1  -2  361.56   15.50
  -6   1  -2  367.66   16.70
   6  -1   2  411.76   16.40
   6  -1   2  374.46   15.70
   6  -1   2  353.16   22.80
   6  -1   2  378.06   16.40
   6  -1   2  401.76   16.20
  -7   1  -2   29.40    3.60
  -7   1  -2   25.10    2.40
  -7   1  -2   21.20    2.80
  -7   1  -2   25.90    3.80
   7  -1   2   21.80    2.20
   7  -1   2   20.70    2.50
   8   0  -2   35.30    2.60
  -8   0   2   29.20    2.50
  -8   0   2   24.30    5.60
  -8   0   2   26.10    4.10
   7   0  -2  106.09    8.40
   7   0  -2  103.39   20.10
   7   0  -2  117.89    5.80
   7   0  -2  117.59    6.00
   7   0  -2  118.19    5.70
  -7   0   2  119.79    7.50
  -7   0   2  118.99    7.10
  -7   0   2  117.59    6.50
  -7   0   2  114.49    6.30
   6   0  -2  474.75   19.70
   6   0  -2  430.76   18.20
   6   0  -2  444.96   20.10
   6   0  -2  436.36   22.70
   6   0  -2  434.66   17.80
   6   0  -2  432.36   17.80
  -6   0   2  396.46   16.50
  -6   0   2  422.86   16.80
  -6   0   2  336.37   18.40
  -6   0   2  416.56   17.90
  -6   0   2  422.96   16.90
   5   0  -2  196.18   10.50
   5   0  -2  200.08   11.80
   5   0  -2  209.58   10.50
   5   0  -2  194.78   10.30
   5   0  -2  195.58    8.60
   5   0  -2  193.88    9.00
  -5   0   2  189.58    9.30
  -5   0   2  194.68    8.80
  -5   0   2  206.48    8.70
  -5   0   2  192.08    9.80
  -5   0   2  191.98    9.70
   4   0  -2  141.39    7.30
   4   0  -2  141.39    7.20
   4   0  -2  137.79    8.00
   4   0  -2  132.29    6.80
   4   0  -2  134.99    6.20
   4   0  -2  143.29    8.20
   4   0  -2  131.59    7.30
  -4   0   2  141.19    6.40
  -4   0   2  144.29    6.20
  -4   0   2  135.69    7.10
   3   0  -2  701.13   28.50
   3   0  -2  712.63   28.80
  -3   0   2  716.63   28.50
   2   0  -2  517.65   19.70
   2   0  -2  479.55   19.40
   2   0  -2  484.05   20.10
   2   0  -2  516.05   19.80
  -2   0   2  462.75   18.60
  -2   0   2  497.05   19.40
  -2   0   2  495.15   19.30
   1   0  -2 2878.31  100.89
   1   0  -2 2536.45  100.49
   1   0  -2 2540.85  100.79
  -1   0   2 2858.21   99.89
  -1   0   2 2346.27   99.29
  -1   0   2 2411.36   99.29
  -1   0   2 2886.01   99.39
   0   0  -2 2708.93  110.39
   0   0  -2 3048.79  110.99
   0   0  -2 2825.82  110.69
   0   0  -2 3110.59  110.49
   0   0   2 2422.36   96.49
   0   0   2 2487.45   96.39
   0   0   2 2735.53   96.49
  -1   0  -2  561.14   20.90
  -1   0  -2  537.85   21.10
   1   0   2  586.54   21.60
   1   0   2  546.45   21.40
   1   0   2  546.55   21.40
   1   0   2  553.24   21.60
   1   0   2  569.24   21.60
  -2   0  -2  547.35   21.90
  -2   0  -2  549.65   21.00
  -2   0  -2  528.35   20.90
   2   0   2  549.45   21.70
   2   0   2  540.65   21.70
   2   0   2  565.14   21.60
   2   0   2  596.34   21.90
   2   0   2  578.04   21.80
   2   0   2  544.65   22.00
  -3   0  -2 1271.37   48.70
  -3   0  -2 1218.78   48.10
  -3   0  -2 1228.08   48.00
  -3   0  -2 1293.37   48.10
   3   0   2 1411.36   52.49
   3   0   2 1516.15   52.19
   3   0   2 1266.67   51.89
   3   0   2 1306.77   51.89
   3   0   2 1291.97   51.79
  -4   0  -2  294.37   13.70
  -4   0  -2  279.47   13.00
  -4   0  -2  314.87   13.10
  -4   0  -2  273.67   12.90
  -4   0  -2  324.77   12.40
  -4   0  -2  265.07   13.20
  -4   0  -2  329.37   12.50
  -4   0  -2  313.27   12.40
  -4   0  -2  290.97   13.50
   4   0   2  318.37   14.20
   4   0   2  338.97   13.00
   4   0   2  299.27   13.30
   4   0   2  307.57   13.30
   4   0   2  326.87   13.60
   4   0   2  294.67   13.20
   4   0   2  320.37   13.70
   4   0   2  335.67   12.90
  -5   0  -2  108.39    5.30
  -5   0  -2  107.29    5.50
  -5   0  -2  106.49    5.50
  -5   0  -2  106.29    5.60
  -5   0  -2  112.29    6.80
  -5   0  -2  105.29    6.00
   5   0   2  116.59    5.90
   5   0   2  109.49    6.10
   5   0   2  117.49    5.80
   5   0   2  111.09    5.90
  -6   0  -2  775.62   32.30
  -6   0  -2  849.22   35.80
  -6   0  -2  764.62   31.40
  -6   0  -2  792.12   31.70
  -6   0  -2  752.12   31.70
  -6   0  -2  794.62   31.00
   6   0   2  724.03   32.50
   6   0   2  805.92   31.80
   6   0   2  856.01   32.30
   6   0   2  855.21   32.20
   6   0   2  791.52   37.10
  -7   0  -2   68.29    4.50
  -7   0  -2   56.49    5.00
  -7   0  -2   63.19    3.90
  -7   0  -2   59.89    5.70
  -7   0  -2   58.09    4.30
   7   0   2   72.99    4.50
   7   0   2   66.09    4.00
   7   0   2   67.89    4.10
  -8   0  -2  295.17   11.90
  -8   0  -2  300.97   12.70
  -8   0  -2  257.47   11.30
   8   0   2  336.57   13.50
   8   0   2  344.77   13.60
   8   0   2  317.37   13.20
   8  -1  -2  220.28    9.30
  -8   1   2  187.48   10.00
  -8   1   2  186.48    8.70
  -8   1   2  208.48    8.50
  -7   1   2   27.30    3.10
  -7   1   2   29.50    3.10
  -7   1   2   26.70    4.60
  -7   1   2   31.50    3.20
   6  -1  -2  152.48    9.30
   6  -1  -2  149.29   12.30
   6  -1  -2  152.68    7.40
   6  -1  -2  146.59    7.00
   6  -1  -2  154.58    7.00
   6  -1  -2  170.28    8.10
   6  -1  -2  163.78    8.80
  -6   1   2  144.69    8.70
  -6   1   2  139.19    7.60
  -6   1   2  146.39    7.00
  -6   1   2  138.89    7.10
  -6   1   2  144.59    7.20
   5  -1  -2  494.25   21.50
   5  -1  -2  504.25   20.10
   5  -1  -2  482.15   21.20
   5  -1  -2  496.25   19.70
   5  -1  -2  487.95   20.40
   5  -1  -2  492.15   23.60
   5  -1  -2  496.65   20.40
  -5   1   2  474.45   18.70
  -5   1   2  488.55   18.60
  -5   1   2  464.75   19.80
  -5   1   2  401.76   20.50
  -5   1   2  465.85   18.80
   4  -1  -2 2705.53  105.99
   4  -1  -2 2772.62  106.79
   4  -1  -2 2691.33  106.99
   4  -1  -2 2928.61  106.79
   4  -1  -2 2697.43  105.39
   4  -1  -2 2766.12  105.99
   4  -1  -2 2725.03  106.89
   4  -1  -2 2764.52  105.49
   4  -1  -2 2888.71  108.69
  -4   1   2 2843.12  106.39
  -4   1   2 2788.22  106.39
  -4   1   2 2755.92  107.49
   3  -1  -2 1303.47   53.69
   3  -1  -2 1412.06   52.79
  -3   1   2 1365.56   52.79
  -3   1   2 1338.47   52.49
  -3   1   2 1355.16   51.69
   2  -1  -2 2750.82  108.89
   2  -1  -2 2931.81  108.19
  -2   1   2 2333.67   96.29
  -2   1   2 2569.84   96.69
  -2   1   2 2703.53   96.99
   1  -1  -2 1410.66   54.79
   1  -1  -2 1434.36   54.19
  -1   1   2 1420.16   55.09
  -1   1   2 1449.46   55.19
  -1   1   2 1451.05   54.69
  -1   1   2 1458.75   55.19
   0  -1  -2 1605.44   61.39
   0  -1  -2 1641.14   61.59
   0   1   2 1748.03   65.39
   0   1   2 1748.93   65.39
   0   1   2 1763.42   65.79
   0   1   2 1647.44   65.59
  -1  -1  -2  114.19    5.20
  -1  -1  -2  134.69    5.60
  -1  -1  -2  135.79    5.10
  -1  -1  -2  139.59    5.50
   1   1   2  134.69    5.50
   1   1   2  132.39    5.70
   1   1   2  137.69    5.40
  -2  -1  -2 1805.52   68.29
  -2  -1  -2 1784.12   67.99
  -2  -1  -2 1766.42   67.69
  -2  -1  -2 1781.62   67.89
   2   1   2 1919.11   73.19
   2   1   2 1994.00   73.59
   2   1   2 1872.71   73.49
  -3  -1  -2  465.15   18.40
  -3  -1  -2  474.05   18.60
  -3  -1  -2  476.85   19.20
   3   1   2  523.85   19.80
   3   1   2  481.05   20.30
   3   1   2  501.75   19.70
   3   1   2  528.75   20.40
  -4  -1  -2  221.78   10.00
  -4  -1  -2  215.18   10.10
  -4  -1  -2  210.28    9.80
  -4  -1  -2  216.08    9.30
  -4  -1  -2  207.48    9.80
  -4  -1  -2  226.88    9.40
  -4  -1  -2  233.68    9.30
  -4  -1  -2  214.98    9.10
   4   1   2  226.48    9.20
   4   1   2  235.28   10.50
   4   1   2  226.28    9.30
   4   1   2  234.88    9.20
   4   1   2  206.28    9.70
   4   1   2  207.68    9.20
   4   1   2  235.18   10.20
   4   1   2  225.78    9.90
   4   1   2  223.58   10.50
  -5  -1  -2   11.70    1.90
  -5  -1  -2   15.10    2.60
  -5  -1  -2   11.60    1.80
  -5  -1  -2   19.00    3.30
  -5  -1  -2   21.70    4.90
  -5  -1  -2   13.60    1.80
   5   1   2   16.30    2.70
   5   1   2   16.60    3.10
   5   1   2   12.60    2.50
  -6  -1  -2  389.36   17.10
  -6  -1  -2  359.16   16.20
  -6  -1  -2  360.26   15.80
  -6  -1  -2  360.56   15.90
  -6  -1  -2  385.76   15.70
  -6  -1  -2  376.96   15.40
  -6  -1  -2  363.06   15.80
  -6  -1  -2  367.86   17.00
   6   1   2  407.16   16.90
   6   1   2  355.36   17.30
   6   1   2  424.26   17.00
   6   1   2  434.96   16.80
  -7  -1  -2   23.00    3.70
  -7  -1  -2   21.00    3.40
  -7  -1  -2   19.90    4.10
  -7  -1  -2   21.80    3.30
   7   1   2   22.20    3.10
   7   1   2   20.00    7.20
   7   1   2   20.70    2.50
  -8  -1  -2  331.77   13.80
  -8  -1  -2  347.57   14.60
  -8  -1  -2  369.36   15.80
   8   1   2  393.66   15.70
   8   1   2  382.16   15.50
   8   1   2  403.26   15.90
   7  -2  -2   68.99    3.70
   7  -2  -2   64.39    5.70
   7  -2  -2   72.59    4.00
   7  -2  -2   68.49    3.90
  -7   2   2   62.09    3.90
  -7   2   2   52.29    5.40
  -7   2   2   60.99    4.20
  -7   2   2   57.99    4.20
   6  -2  -2   38.30    4.20
   6  -2  -2   39.70    5.00
   6  -2  -2   54.59   10.10
   6  -2  -2   37.50    3.20
   6  -2  -2   40.20    2.60
   6  -2  -2   37.40    3.10
   6  -2  -2   49.60    4.10
  -6   2   2   40.10    3.60
  -6   2   2   38.60    3.40
  -6   2   2   39.80    3.40
  -6   2   2   43.90    4.10
  -6   2   2   37.90    4.90
  -6   2   2   26.30    6.10
   5  -2  -2  294.67   12.90
   5  -2  -2  291.67   16.50
   5  -2  -2  290.07   13.90
   5  -2  -2  305.07   14.20
   5  -2  -2  308.57   12.80
   5  -2  -2  296.47   13.00
   5  -2  -2  284.87   12.10
  -5   2   2  299.97   12.50
  -5   2   2  291.27   12.60
  -5   2   2  289.87   12.80
  -5   2   2  293.07   12.40
   4  -2  -2  581.34   25.00
   4  -2  -2  506.95   25.70
   4  -2  -2  548.75   21.40
   4  -2  -2  541.15   22.50
   4  -2  -2  544.45   21.80
   4  -2  -2  538.35   23.00
  -4   2   2  605.14   22.00
  -4   2   2  551.34   22.10
  -4   2   2  523.45   23.40
   3  -2  -2  119.89    6.50
   3  -2  -2  137.09    7.80
  -3   2   2  115.69    6.70
  -3   2   2  129.89    5.90
  -3   2   2  117.39    7.10
  -3   2   2  124.29    5.10
  -3   2   2  124.39    5.90
   2  -2  -2 2113.89   79.59
   2  -2  -2 1980.40   78.29
  -2   2   2 1982.50   76.19
  -2   2   2 2019.40   76.99
  -2   2   2 2040.50   76.69
   1  -2  -2 1856.41   71.69
  -1   2   2 1834.82   69.79
  -1   2   2 1894.51   70.39
  -1   2   2 1736.23   70.29
  -1   2   2 1911.61   70.49
   0  -2  -2  502.65   19.10
   0  -2  -2  500.85   19.60
   0   2   2  490.25   18.80
   0   2   2  471.75   18.50
   0   2   2  503.35   19.10
   0   2   2  479.35   18.50
  -1  -2  -2 1736.63   70.79
  -1  -2  -2 1934.81   70.99
  -1  -2  -2 1903.51   70.29
   1   2   2 1928.31   74.49
   1   2   2 2090.89   75.09
   1   2   2 1882.41   74.79
  -2  -2  -2 1116.49   44.30
  -2  -2  -2 1138.79   44.20
  -2  -2  -2 1184.28   44.40
   2   2   2 1127.79   43.60
   2   2   2 1164.78   44.10
  -3  -2  -2  125.19    5.90
  -3  -2  -2  118.99    5.40
  -3  -2  -2  115.49    5.00
  -3  -2  -2  110.99    5.20
   3   2   2   63.09    3.00
  -4  -2  -2  193.88    8.60
  -4  -2  -2  194.18    8.60
  -4  -2  -2  183.88    8.60
  -4  -2  -2  196.98    9.30
  -4  -2  -2  209.28    9.40
  -4  -2  -2  195.98    8.60
  -4  -2  -2  198.38    8.70
  -4  -2  -2  200.98    9.50
  -4  -2  -2  217.38   10.40
   4   2   2  200.18    9.30
   4   2   2  224.88    9.70
   4   2   2  223.38    8.80
   4   2   2  215.88    8.70
   4   2   2  203.58    8.80
   4   2   2  215.98    8.70
   4   2   2  206.58    9.20
   4   2   2  201.68    9.40
   4   2   2  208.98   10.10
  -5  -2  -2  488.65   20.20
  -5  -2  -2  480.45   18.80
  -5  -2  -2  467.55   19.10
  -5  -2  -2  489.35   20.30
  -5  -2  -2  472.25   19.40
  -5  -2  -2  397.96   19.40
  -5  -2  -2  471.05   19.10
   5   2   2  488.75   19.60
   5   2   2  483.45   19.50
   5   2   2  526.45   20.60
   5   2   2  415.36   20.80
  -6  -2  -2  349.17   14.40
  -6  -2  -2  320.07   14.20
  -6  -2  -2  333.87   15.20
  -6  -2  -2  335.87   13.70
  -6  -2  -2  325.07   14.30
  -6  -2  -2  333.97   14.50
  -6  -2  -2  281.37   15.80
  -6  -2  -2  324.57   14.00
   6   2   2  367.76   15.40
   6   2   2  361.56   15.20
   6   2   2  365.06   15.40
  -7  -2  -2   65.79    4.00
  -7  -2  -2   56.79    6.90
  -7  -2  -2   66.89    5.50
  -7  -2  -2   62.79    4.80
  -7  -2  -2   70.49    5.80
  -7  -2  -2   62.99    7.10
   7   2   2   75.99    4.20
   7   2   2   65.29   11.60
   7   2   2   79.49    4.40
   7   2   2   75.19    4.50
  -8  -2  -2    2.20    1.40
  -8  -2  -2    3.30    1.90
  -8  -2  -2   -0.10    2.00
   8   2   2    1.00    1.00
   8   2   2    0.00    1.10
   8   2   2    1.40    1.10
   7  -3  -2  145.39    9.10
   7  -3  -2  156.98    6.90
   7  -3  -2  164.18    7.00
  -7   3   2  134.99    7.00
  -7   3   2  147.59    6.50
  -7   3   2  127.69    9.90
  -7   3   2  144.19    6.80
   6  -3  -2  214.48    9.90
   6  -3  -2  200.88   10.60
   6  -3  -2  185.28    9.60
   6  -3  -2  164.68    8.50
   6  -3  -2  147.69   16.70
   6  -3  -2  169.78    8.10
   6  -3  -2  189.48    8.90
  -6   3   2  176.18   10.50
  -6   3   2  179.38    8.30
  -6   3   2  171.58    9.10
  -6   3   2  176.28    8.30
   5  -3  -2  634.04   30.50
   5  -3  -2  636.94   25.90
   5  -3  -2  647.34   25.60
   5  -3  -2  630.94   25.90
   5  -3  -2  616.74   24.90
   5  -3  -2  637.74   26.90
   5  -3  -2  648.44   27.10
  -5   3   2  569.94   24.00
  -5   3   2  565.64   23.40
  -5   3   2  611.44   23.50
  -5   3   2  597.34   23.50
   4  -3  -2   78.79    5.00
   4  -3  -2   81.99    4.20
   4  -3  -2   76.89    7.70
   4  -3  -2   83.49    7.50
   4  -3  -2   89.89    5.00
   4  -3  -2   78.49    4.80
  -4   3   2   80.79    4.50
  -4   3   2   83.19    4.00
  -4   3   2   77.89    4.50
   3  -3  -2  365.96   14.70
   3  -3  -2  368.76   17.00
   3  -3  -2  301.47   15.50
   3  -3  -2  342.97   16.20
   3  -3  -2  356.76   14.50
   3  -3  -2  338.77   14.00
   3  -3  -2  358.66   15.20
  -3   3   2  370.86   14.70
  -3   3   2  362.56   14.10
  -3   3   2  344.07   14.30
   2  -3  -2 2284.97   89.19
  -2   3   2 2118.19   82.29
  -2   3   2 2204.38   83.99
  -2   3   2 2200.08   82.89
   1  -3  -2  785.32   31.60
   1  -3  -2  770.82   30.30
  -1   3   2  754.72   30.60
  -1   3   2  785.72   30.30
  -1   3   2  848.42   30.30
   0  -3  -2 2390.46   91.29
   0   3   2 1843.72   81.19
   0   3   2 2393.76   82.29
   0   3   2 2208.68   81.49
  -1  -3  -2  279.87   11.60
  -1  -3  -2  293.57   12.00
  -1  -3  -2  291.97   11.10
   1   3   2  289.47   11.20
   1   3   2  288.37   11.70
  -2  -3  -2 2070.19   78.69
  -2  -3  -2 2093.29   78.69
  -2  -3  -2 1992.60   78.79
  -3  -3  -2   26.70    3.30
  -3  -3  -2   33.40    2.50
  -3  -3  -2   38.20    2.70
  -3  -3  -2   31.20    2.40
   3   3   2   37.60    2.70
   3   3   2   32.20    1.80
  -4  -3  -2  387.96   15.70
  -4  -3  -2  368.06   15.90
  -4  -3  -2  405.16   16.60
  -4  -3  -2  392.96   16.50
  -4  -3  -2  373.36   15.90
  -4  -3  -2  379.26   16.10
  -4  -3  -2  379.36   16.20
   4   3   2  400.46   17.20
   4   3   2  400.86   17.00
   4   3   2  437.66   16.50
   4   3   2  433.16   17.60
   4   3   2  420.16   17.00
  -5  -3  -2  245.08   10.40
  -5  -3  -2  254.77   11.30
  -5  -3  -2  255.77   11.90
  -5  -3  -2  259.47   12.00
  -5  -3  -2  254.27   11.00
  -5  -3  -2  211.78   11.30
  -5  -3  -2  253.37   10.90
  -5  -3  -2  253.77   11.20
   5   3   2  257.87   11.80
   5   3   2  274.17   11.20
   5   3   2  261.47   11.80
   5   3   2  292.37   12.00
   5   3   2  290.57   12.80
   5   3   2  267.27   11.10
  -6  -3  -2   20.70    3.50
  -6  -3  -2   25.20    4.10
  -6  -3  -2   29.40    3.60
  -6  -3  -2   23.20    3.70
  -6  -3  -2   26.90    3.40
  -6  -3  -2   22.00    3.80
  -6  -3  -2   26.80    2.90
   6   3   2   29.70    2.50
   6   3   2   28.30    3.20
   6   3   2   24.50    3.20
   6   3   2   23.90    2.60
   6   3   2   28.10    4.30
  -7  -3  -2   25.70    3.60
  -7  -3  -2   36.30    4.90
  -7  -3  -2   30.30    4.40
  -7  -3  -2   33.10    5.10
  -7  -3  -2   37.40    3.10
   7   3   2   33.20    2.60
   7   3   2   33.20    2.90
   7   3   2   30.80    2.70
  -8  -3  -2   39.60    4.90
  -8  -3  -2   47.90    4.70
  -8  -3  -2   51.69    4.40
   8   3   2   50.79    3.00
   8   3   2   51.89    3.30
   8   3   2   54.59    3.20
   7  -4  -2  174.28    8.70
   7  -4  -2  187.08    9.00
  -7   4   2  142.99    8.10
  -7   4   2  172.08    7.00
  -7   4   2  169.28    7.40
   6  -4  -2  102.49    5.70
   6  -4  -2   93.59    4.90
   6  -4  -2   85.99    6.00
   6  -4  -2   95.79    5.00
   6  -4  -2   93.39    6.40
  -6   4   2  104.69    6.40
  -6   4   2   91.49    5.10
  -6   4   2   93.69    5.40
  -6   4   2   99.99    5.90
   5  -4  -2  150.48    7.50
   5  -4  -2  148.49    7.00
   5  -4  -2  139.29   13.60
   5  -4  -2  151.28    8.50
   5  -4  -2  139.29    6.30
   5  -4  -2  144.49    7.30
   5  -4  -2  147.49    7.10
   5  -4  -2  148.49    8.30
  -5   4   2  134.19    6.70
  -5   4   2  122.49    7.80
  -5   4   2  141.39    6.70
  -5   4   2  139.69    6.60
   4  -4  -2  618.24   24.90
   4  -4  -2  613.94   24.80
   4  -4  -2  607.14   23.90
   4  -4  -2  597.74   25.70
   4  -4  -2  608.44   29.10
   4  -4  -2  610.04   25.90
   4  -4  -2  588.34   24.40
   4  -4  -2  636.54   24.50
  -4   4   2  588.04   22.90
  -4   4   2  578.74   22.90
  -4   4   2  600.44   23.80
  -4   4   2  537.55   24.40
   3  -4  -2  587.14   26.40
   3  -4  -2  557.44   24.00
   3  -4  -2  540.25   22.80
   3  -4  -2  592.14   23.00
   3  -4  -2  573.84   23.20
   3  -4  -2  571.24   23.80
  -3   4   2  558.74   22.20
  -3   4   2  551.74   22.10
  -3   4   2  590.14   22.90
   2  -4  -2 1589.34   60.29
   2  -4  -2 1563.54   59.49
   2  -4  -2 1538.35   60.49
   2  -4  -2 1597.74   62.19
   2  -4  -2 1539.25   59.59
   2  -4  -2 1442.96   59.59
  -2   4   2 1564.74   57.19
  -2   4   2 1514.95   57.59
  -2   4   2 1479.05   56.99
  -2   4   2 1419.96   56.79
   1  -4  -2 2127.79   82.99
   1  -4  -2 2199.18   84.69
  -1   4   2 2247.18   85.39
  -1   4   2 2214.48   83.79
  -1   4   2 2185.28   84.49
   0  -4  -2 1889.21   72.79
   0   4   2 1749.22   67.49
   0   4   2 1808.92   67.79
  -1  -4  -2 2121.99   83.79
  -1  -4  -2 2355.06   84.69
  -1  -4  -2 2121.69   83.19
   1   4   2 2074.89   81.59
   1   4   2 2287.67   82.39
   1   4   2 2085.09   81.49
  -2  -4  -2 4092.19  176.28
  -2  -4  -2 5331.07  177.18
  -2  -4  -2 4496.85  175.38
   2   4   2 4523.25  173.28
   2   4   2 3998.80  172.28
   2   4   2 5148.39  172.58
  -3  -4  -2 3676.63  143.19
  -3  -4  -2 3819.72  144.29
   3   4   2 3921.41  148.69
   3   4   2 3873.61  147.59
   3   4   2 3889.81  147.59
  -4  -4  -2  879.61   34.40
  -4  -4  -2  888.71   34.40
  -4  -4  -2  923.31   35.30
  -4  -4  -2  854.41   34.60
  -4  -4  -2  824.02   34.10
  -4  -4  -2  843.92   34.10
  -4  -4  -2  859.71   35.40
  -4  -4  -2  924.81   35.40
   4   4   2  916.51   36.00
   4   4   2  940.41   36.60
   4   4   2  947.51   35.40
   4   4   2  909.31   35.80
   4   4   2  921.91   35.40
   4   4   2  864.81   35.40
  -5  -4  -2 1335.97   50.89
  -5  -4  -2 1342.27   52.49
  -5  -4  -2 1237.48   50.89
  -5  -4  -2 1314.77   51.59
  -5  -4  -2 1284.47   51.59
  -5  -4  -2 1360.36   52.29
   5   4   2 1451.75   55.29
   5   4   2 1442.06   55.19
   5   4   2 1469.85   57.09
   5   4   2 1398.86   55.19
   5   4   2 1450.05   55.79
  -6  -4  -2  215.78   11.70
  -6  -4  -2  215.68   10.00
  -6  -4  -2  221.78   10.50
  -6  -4  -2  228.28   10.40
  -6  -4  -2  235.78   10.70
  -6  -4  -2  238.98   11.70
   6   4   2  250.57   10.60
   6   4   2  245.08   10.40
   6   4   2  236.38   10.60
   6   4   2  231.58   10.50
   6   4   2  228.88   12.00
   6   4   2  225.28    9.50
  -7  -4  -2  575.64   24.70
   7   4   2  621.54   25.90
   7   4   2  697.73   27.80
   7   4   2  627.94   25.70
  -8  -4  -2  346.37   15.00
  -8  -4  -2  319.37   14.80
   8   4   2  360.36   14.70
   8   4   2  358.06   14.70
   8   4   2  365.16   14.60
   6  -5  -2  115.69    6.30
   6  -5  -2  106.29    6.40
   6  -5  -2  119.89    5.90
  -6   5   2  104.09    6.30
  -6   5   2  107.29    5.50
  -6   5   2   82.29    5.40
  -6   5   2   97.79    4.80
   5  -5  -2  142.79    8.60
   5  -5  -2  148.99    7.10
  -5   5   2  145.79    7.80
  -5   5   2  163.38    7.40
  -5   5   2  153.78    7.30
   4  -5  -2  428.06   17.00
   4  -5  -2  400.56   17.50
   4  -5  -2  422.26   18.90
   4  -5  -2  463.55   18.20
   4  -5  -2  433.06   19.30
   4  -5  -2  430.06   18.10
   4  -5  -2  428.86   23.70
  -4   5   2  429.36   17.00
  -4   5   2  413.86   16.80
  -4   5   2  396.06   16.90
  -4   5   2  413.76   18.20
   3  -5  -2   76.19    8.40
   3  -5  -2   76.39    4.60
   3  -5  -2   72.59    3.80
   3  -5  -2   70.19    4.50
   3  -5  -2   73.99    5.50
   3  -5  -2   74.19    4.50
   3  -5  -2   69.89    5.10
  -3   5   2   71.19    4.60
  -3   5   2   75.29    3.90
   2  -5  -2  336.67   13.70
   2  -5  -2  332.47   13.80
   2  -5  -2  316.97   13.90
   2  -5  -2  323.07   13.20
   2  -5  -2  331.27   14.90
   2  -5  -2  320.07   14.40
   2  -5  -2  320.77   13.90
   2  -5  -2  343.07   17.10
  -2   5   2  315.97   12.80
  -2   5   2  323.57   13.50
  -2   5   2  318.27   12.60
   1  -5  -2  731.33   28.10
   1  -5  -2  688.03   27.70
   1  -5  -2  707.23   28.70
   1  -5  -2  705.13   28.00
   1  -5  -2  688.13   28.30
   1  -5  -2  741.33   30.80
  -1   5   2  729.13   28.10
  -1   5   2  697.13   27.40
   0  -5  -2 1445.76   57.99
   0  -5  -2 1677.73   60.09
   0  -5  -2 1396.86   58.59
   0   5   2 1381.16   53.39
   0   5   2 1415.36   52.89
   0   5   2 1366.96   52.89
  -1  -5  -2  369.96   16.20
  -1  -5  -2  398.46   16.70
   1   5   2  395.26   15.70
   1   5   2  398.56   15.80
   1   5   2  409.06   16.00
   1   5   2  410.76   16.80
  -2  -5  -2 1171.68   47.60
  -2  -5  -2 1228.58   48.50
  -2  -5  -2 1215.18   47.40
  -2  -5  -2 1231.28   47.50
  -2  -5  -2 1192.58   46.40
  -2  -5  -2 1220.48   47.30
  -2  -5  -2 1301.37   48.10
   2   5   2 1268.17   49.99
   2   5   2 1319.67   50.69
   2   5   2 1341.67   49.70
   2   5   2 1269.57   49.70
  -3  -5  -2   19.10    3.10
  -3  -5  -2   20.60    2.60
  -3  -5  -2   20.20    3.00
  -3  -5  -2   17.90    2.30
  -3  -5  -2   20.30    1.50
  -3  -5  -2   19.70    2.70
   3   5   2   21.80    2.40
   3   5   2   16.90    2.00
   3   5   2   17.60    1.60
   3   5   2   21.60    1.50
  -4  -5  -2   31.20    5.30
  -4  -5  -2   30.30    3.10
  -4  -5  -2   30.90    3.70
  -4  -5  -2   38.50    3.90
  -4  -5  -2   31.30    3.00
   4   5   2   29.60    2.90
   4   5   2   28.30    2.90
   4   5   2   30.30    2.00
   4   5   2   30.50    2.20
   4   5   2   21.90    3.30
   4   5   2   32.80    2.10
  -5  -5  -2   98.69    6.10
  -5  -5  -2  101.79    5.60
  -5  -5  -2  106.49    6.60
  -5  -5  -2  123.49    7.20
  -5  -5  -2  105.79    5.80
  -5  -5  -2  111.29    6.80
   5   5   2  117.79    5.40
   5   5   2  117.69    7.10
   5   5   2  115.39    5.80
   5   5   2  123.59    6.10
   5   5   2  115.19    6.20
   5   5   2  117.09    5.30
   5   5   2  109.49    5.20
  -6  -5  -2  315.67   13.20
  -6  -5  -2  315.27   15.40
  -6  -5  -2  335.27   14.00
  -6  -5  -2  311.17   14.20
  -6  -5  -2  325.67   14.10
   6   5   2  346.07   14.50
   6   5   2  369.16   14.80
   6   5   2  341.27   13.80
   6   5   2  320.07   16.30
   6   5   2  367.06   14.90
  -7  -5  -2    6.10    2.00
  -7  -5  -2    6.00    2.30
  -7  -5  -2    9.40    2.40
  -7  -5  -2    5.40    2.00
   7   5   2    4.90    1.30
   7   5   2    5.40    1.90
   7   5   2    7.20    2.00
  -8  -5  -2   14.30    2.80
   8   5   2   21.50    1.80
   8   5   2   21.20    2.00
   5  -6  -2   84.79    5.70
   5  -6  -2   84.79    4.80
   5  -6  -2   89.99    6.90
  -5   6   2   72.49    4.60
  -5   6   2   85.29    4.60
  -5   6   2   77.39    4.30
   4  -6  -2   91.19    6.00
   4  -6  -2   89.39    5.10
   4  -6  -2   96.89    5.40
   4  -6  -2   90.49    6.30
  -4   6   2   83.79    4.80
  -4   6   2   87.99    5.90
  -4   6   2   87.09    4.70
   3  -6  -2   80.89    4.80
   3  -6  -2   77.59    5.90
   3  -6  -2   75.09    4.00
   3  -6  -2   85.39    5.00
   3  -6  -2   75.39    5.40
  -3   6   2   68.79    4.40
  -3   6   2   69.89    7.90
  -3   6   2   73.59    4.00
  -3   6   2   79.29    3.90
   2  -6  -2  528.15   21.30
   2  -6  -2  504.35   21.10
   2  -6  -2  512.95   20.50
   2  -6  -2  503.85   21.90
   2  -6  -2  530.05   21.00
   2  -6  -2  530.55   21.40
   2  -6  -2  523.15   22.50
  -2   6   2  505.75   20.80
  -2   6   2  502.65   19.60
  -2   6   2  466.05   19.90
  -2   6   2  511.95   19.60
   1  -6  -2  147.99    7.10
   1  -6  -2  146.69    6.60
   1  -6  -2  164.28    9.70
   1  -6  -2  132.29    7.20
  -1   6   2  137.29    7.00
  -1   6   2  147.09    6.10
  -1   6   2  140.09    6.20
   0  -6  -2  447.46   19.10
   0  -6  -2  440.66   18.20
   0  -6  -2  407.96   19.30
   0  -6  -2  453.35   17.80
   0  -6  -2  447.46   17.70
   0  -6  -2  417.66   18.20
   0   6   2  463.75   17.20
   0   6   2  410.86   17.60
   0   6   2  456.85   17.20
   0   6   2  413.86   17.80
  -1  -6  -2  172.98    8.10
  -1  -6  -2  169.58    8.20
  -1  -6  -2  164.58    7.40
  -1  -6  -2  153.08    9.10
  -1  -6  -2  164.08    7.50
  -1  -6  -2  160.48    7.60
  -1  -6  -2  160.18    7.40
   1   6   2  166.98    7.10
   1   6   2  158.28    7.70
   1   6   2  181.48    7.80
   1   6   2  178.88    8.40
   1   6   2  172.18    7.20
  -2  -6  -2  617.44   25.40
  -2  -6  -2  620.84   24.60
  -2  -6  -2  599.54   24.60
  -2  -6  -2  600.14   25.00
  -2  -6  -2  607.74   24.80
  -2  -6  -2  608.34   24.40
  -2  -6  -2  626.54   24.70
  -2  -6  -2  644.64   24.60
   2   6   2  618.84   24.40
   2   6   2  626.84   25.10
   2   6   2  642.74   25.70
   2   6   2  611.44   24.50
   2   6   2  628.74   24.40
  -3  -6  -2   13.50    2.40
  -3  -6  -2   24.40    3.30
  -3  -6  -2   15.80    2.40
  -3  -6  -2   19.50    3.30
  -3  -6  -2   21.60    3.00
  -3  -6  -2   21.50    2.90
  -3  -6  -2   19.40    2.40
   3   6   2   19.80    1.70
   3   6   2   18.90    1.50
   3   6   2   16.30    2.60
   3   6   2   17.80    2.70
   3   6   2   20.50    2.00
  -4  -6  -2   12.30    2.40
  -4  -6  -2   14.80    2.50
  -4  -6  -2   16.40    2.40
  -4  -6  -2   13.10    3.30
  -4  -6  -2   15.90    2.70
   4   6   2   18.10    1.80
   4   6   2   16.30    2.40
   4   6   2   12.70    2.00
   4   6   2   13.50    1.70
   4   6   2   16.00    3.10
   4   6   2   16.20    3.20
   4   6   2   15.50    1.60
  -5  -6  -2   16.10    3.80
  -5  -6  -2   19.60    3.80
  -5  -6  -2   13.10    2.50
  -5  -6  -2   14.70    3.20
   5   6   2   13.30    2.70
   5   6   2   15.50    2.40
   5   6   2   12.60    2.50
   5   6   2   20.80    2.20
   5   6   2   17.60    1.80
   5   6   2   15.40    1.90
   5   6   2   14.30    3.70
  -6  -6  -2   69.39    4.90
  -6  -6  -2   78.49    6.00
  -6  -6  -2   65.99    6.70
  -6  -6  -2   69.89    4.50
  -6  -6  -2   66.79    5.20
   6   6   2   77.49    4.30
   6   6   2   84.09    4.70
   6   6   2   80.69    3.80
   6   6   2   79.99    4.60
  -7  -6  -2   36.00    4.70
  -7  -6  -2   38.40    4.10
  -7  -6  -2   34.50    3.30
   7   6   2   35.90    2.90
   7   6   2   36.70    2.70
   7   6   2   35.90    2.80
  -8  -6  -2   55.79    3.50
  -8  -6  -2   47.30    5.00
   8   6   2   62.89    4.10
   8   6   2   64.99    3.30
   8   6   2   68.29    3.70
   5  -7  -2  107.99    5.90
   5  -7  -2  108.79    6.00
   5  -7  -2  110.59    5.30
  -5   7   2  111.39    5.60
  -5   7   2  106.79    5.40
   4  -7  -2   26.70    3.40
   4  -7  -2   34.10    3.90
   4  -7  -2   28.00    2.90
   4  -7  -2   26.90    2.70
  -4   7   2   28.60    2.80
  -4   7   2   30.30    2.60
  -4   7   2   32.60    2.90
   3  -7  -2  124.29    7.00
   3  -7  -2  124.39    6.40
   3  -7  -2  123.69    7.50
  -3   7   2  117.39    5.70
  -3   7   2  118.19    5.70
   2  -7  -2   46.30    2.80
   2  -7  -2   46.90    3.60
   2  -7  -2   38.80    3.80
   2  -7  -2   44.90    3.50
   2  -7  -2   46.40    3.70
   2  -7  -2   43.90    3.20
   2  -7  -2   45.90    4.50
  -2   7   2   49.60    6.20
  -2   7   2   47.20    2.90
  -2   7   2   43.30    3.20
   1  -7  -2   64.39    4.00
   1  -7  -2   62.29    4.50
   1  -7  -2   63.99    3.50
   1  -7  -2   63.79    4.10
   1  -7  -2   65.09    4.40
   1  -7  -2   56.39    4.40
  -1   7   2   70.49    5.20
  -1   7   2   60.99    3.30
  -1   7   2   61.69    3.40
  -1   7   2   59.99    3.60
  -1   7   2   57.19    5.30
   0  -7  -2   12.80    2.00
   0  -7  -2   14.70    2.80
   0  -7  -2   16.10    2.40
   0  -7  -2   15.30    2.90
   0  -7  -2   15.90    2.00
   0   7   2   13.00    3.10
   0   7   2   14.30    1.80
   0   7   2   13.70    1.70
   0   7   2   14.50    1.50
   0   7   2    9.00    2.20
  -1  -7  -2  560.74   22.00
  -1  -7  -2  536.65   21.80
  -1  -7  -2  532.85   21.80
  -1  -7  -2  550.44   22.20
  -1  -7  -2  531.65   21.90
   1   7   2  544.65   21.20
   1   7   2  540.35   21.20
   1   7   2  524.15   22.80
   1   7   2  539.45   21.30
  -2  -7  -2   11.80    2.00
  -2  -7  -2    8.90    2.20
  -2  -7  -2   13.20    2.40
  -2  -7  -2   12.90    2.00
  -2  -7  -2   13.50    2.20
   2   7   2    9.10    1.50
   2   7   2    9.10    1.30
   2   7   2   10.70    1.20
   2   7   2   10.60    3.60
  -3  -7  -2   70.09    4.70
  -3  -7  -2   64.79    4.20
  -3  -7  -2   71.89    4.30
  -3  -7  -2   69.29    5.40
  -3  -7  -2   73.29    4.30
  -3  -7  -2   69.69    4.90
  -3  -7  -2   74.79    4.40
   3   7   2   75.69    3.90
   3   7   2   75.19    3.80
   3   7   2   78.19    3.90
   3   7   2   68.79    5.40
   3   7   2   72.99    4.50
  -4  -7  -2  156.98    7.90
  -4  -7  -2  143.59    7.30
  -4  -7  -2  151.78    8.50
  -4  -7  -2  140.69    7.60
  -4  -7  -2  160.08    7.30
  -4  -7  -2  142.89    8.60
   4   7   2  139.09   10.50
   4   7   2  161.98    7.80
   4   7   2  164.58    7.00
   4   7   2  170.18    7.10
   4   7   2  157.48    7.00
   4   7   2  159.58    8.00
  -5  -7  -2  163.98    8.40
  -5  -7  -2  172.28    9.40
  -5  -7  -2  155.68   10.00
  -5  -7  -2  172.58    8.00
  -5  -7  -2  166.28    8.40
   5   7   2  186.98    8.50
   5   7   2  180.78    8.50
   5   7   2  187.18    7.80
   5   7   2  164.28   10.10
   5   7   2  181.58    8.00
   5   7   2  185.08    7.70
   5   7   2  180.58    8.10
  -6  -7  -2   30.90    4.00
  -6  -7  -2   37.80    3.80
  -6  -7  -2   34.60    3.20
  -6  -7  -2   34.80    4.80
   6   7   2   40.90    3.60
   6   7   2   34.30    3.10
   6   7   2   37.20    2.30
   6   7   2   34.90    3.00
  -7  -7  -2  221.58    9.70
  -7  -7  -2  224.28   10.80
  -7  -7  -2  210.68    9.70
   7   7   2  249.88   10.40
   7   7   2  251.47   10.70
   7   7   2  254.57   10.70
   4  -8  -2   30.80    3.70
   4  -8  -2   25.70    2.70
   4  -8  -2   26.10    3.00
  -4   8   2   23.80    2.60
  -4   8   2   23.90    2.00
   3  -8  -2   17.00    2.60
   3  -8  -2   12.80    2.60
   3  -8  -2   14.90    2.90
  -3   8   2   16.30    2.30
  -3   8   2   19.50    2.90
  -3   8   2   21.00    2.50
  -3   8   2   19.70    2.80
   2  -8  -2  110.89    4.80
   2  -8  -2   98.19    5.70
   2  -8  -2  108.59    5.80
   2  -8  -2   99.09    6.20
   2  -8  -2  109.39    6.50
  -2   8   2  108.29    5.20
  -2   8   2  107.89    5.30
  -2   8   2  108.89    5.30
   1  -8  -2  374.06   16.10
   1  -8  -2  359.46   16.00
   1  -8  -2  395.56   17.00
   1  -8  -2  384.76   16.00
   1  -8  -2  390.96   16.50
   1  -8  -2  412.56   17.80
   1  -8  -2  389.76   15.50
  -1   8   2  381.26   15.60
  -1   8   2  397.86   15.60
  -1   8   2  357.56   17.90
  -1   8   2  411.36   15.70
   0  -8  -2   69.39    4.00
   0  -8  -2   72.49    4.60
   0  -8  -2   63.49    4.20
   0  -8  -2   60.49    3.70
   0  -8  -2   64.89    4.70
   0   8   2   63.59    3.50
   0   8   2   67.89    3.50
   0   8   2   51.39    6.00
   0   8   2   62.79    3.90
  -1  -8  -2  667.73   27.50
  -1  -8  -2  710.93   28.00
  -1  -8  -2  712.13   27.70
  -1  -8  -2  674.93   27.50
  -1  -8  -2  697.63   28.60
   1   8   2  680.83   26.40
   1   8   2  670.93   26.40
   1   8   2  632.54   28.80
   1   8   2  703.33   26.40
  -2  -8  -2   99.49    5.20
  -2  -8  -2   89.79    5.10
  -2  -8  -2   93.69    5.50
  -2  -8  -2   95.69    5.10
   2   8   2   96.99    5.80
   2   8   2  102.59    4.90
   2   8   2  106.29    4.90
   2   8   2   97.59    6.90
   2   8   2  101.59    4.90
  -3  -8  -2  192.28    8.50
  -3  -8  -2  176.08    8.30
  -3  -8  -2  169.58   11.20
  -3  -8  -2  185.98    8.40
  -3  -8  -2  182.38    8.80
   3   8   2  175.98   10.60
   3   8   2  176.28    8.50
   3   8   2  198.68    8.10
   3   8   2  171.58    8.30
   3   8   2  192.58    8.00
  -4  -8  -2  158.48    7.90
  -4  -8  -2  162.78    7.60
  -4  -8  -2  152.68    7.30
  -4  -8  -2  149.49    7.30
  -4  -8  -2  160.68    9.10
   4   8   2  155.78   10.10
   4   8   2  166.58    7.20
   4   8   2  168.88    7.50
   4   8   2  173.08    7.30
   4   8   2  166.08    7.80
  -5  -8  -2   70.59    5.80
  -5  -8  -2   79.09    6.00
  -5  -8  -2   78.69    4.50
   5   8   2   87.39    4.20
   5   8   2   78.79    4.80
   5   8   2   80.89    4.70
   5   8   2   85.59    5.60
   5   8   2   87.79    4.00
  -6  -8  -2   94.89    5.50
  -6  -8  -2  104.99    5.20
  -6  -8  -2   97.89    5.30
  -6  -8  -2  102.09    6.80
   6   8   2  101.29    4.40
   6   8   2  102.69    5.00
   6   8   2   97.49    5.70
   6   8   2  107.09    5.30
  -7  -8  -2  254.17   11.60
  -7  -8  -2  254.37   10.70
   7   8   2  286.37   11.50
   7   8   2  273.67   11.60
   2  -9  -2   39.70    3.60
   2  -9  -2   49.80    3.70
   2  -9  -2   51.29    3.90
  -2   9   2   47.90    3.00
  -2   9   2   49.10    2.90
  -2   9   2   44.10    3.30
  -2   9   2   48.20    3.00
   1  -9  -2  515.75   22.40
   1  -9  -2  547.35   21.70
   1  -9  -2  549.54   22.00
   1  -9  -2  553.84   23.00
  -1   9   2  553.24   21.60
  -1   9   2  550.54   21.90
  -1   9   2  543.45   21.60
   0  -9  -2  140.59    7.70
   0  -9  -2  138.09    6.60
   0  -9  -2  126.89    6.70
   0  -9  -2  139.39    6.20
   0  -9  -2  136.49    7.40
   0  -9  -2  141.99    6.90
   0   9   2  137.49    6.40
   0   9   2  141.59    6.40
   0   9   2  148.39    6.70
  -1  -9  -2   62.79    3.70
  -1  -9  -2   58.89    4.40
  -1  -9  -2   62.89    5.80
  -1  -9  -2   60.09    3.70
  -1  -9  -2   61.79    4.20
   1   9   2   62.29    3.50
   1   9   2   64.19    3.40
   1   9   2   63.19    3.60
  -2  -9  -2  145.99    7.60
  -2  -9  -2  136.59    6.70
  -2  -9  -2  140.69    6.70
  -2  -9  -2  145.39    7.10
   2   9   2  148.59    6.80
   2   9   2  147.99    6.50
   2   9   2  144.39    6.40
   2   9   2  140.29    6.60
  -3  -9  -2  117.99    5.90
  -3  -9  -2  116.49    6.20
   3   9   2  126.89    6.30
   3   9   2  118.49    5.50
   3   9   2  122.19    5.60
   3   9   2  120.79    5.80
  -4  -9  -2  147.49    7.40
  -4  -9  -2  150.48    7.30
  -4  -9  -2  158.68    7.30
   4   9   2  151.88    6.80
   4   9   2  163.78    6.80
   4   9   2  154.58    7.20
  -5  -9  -2  224.28   10.20
  -5  -9  -2  239.48   11.70
  -5  -9  -2  226.98   11.40
  -5  -9  -2  245.58   10.30
   5   9   2  228.48    9.90
   5   9   2  226.18    9.80
   5   9   2  235.38    9.30
  -6  -9  -2   45.60    3.00
  -6  -9  -2   41.70    4.30
  -6  -9  -2   51.09    4.70
   6   9   2   43.20    2.60
   6   9   2   36.20    3.90
   6   9   2   48.20    2.80
   1 -10  -2    6.80    1.90
  -1  10   2   14.50    1.80
  -1  10   2   13.80    1.50
  -1  10   2   16.90    2.00
   0 -10  -2   18.60    2.50
   0 -10  -2   14.40    2.20
   0 -10  -2   14.90    2.60
   0  10   2   11.00    1.40
   0  10   2    9.80    1.80
   0  10   2   14.70    2.40
  -1 -10  -2   41.30    2.40
  -1 -10  -2   35.70    3.60
  -1 -10  -2   36.30    3.00
  -1 -10  -2   40.40    3.40
   1  10   2   39.50    2.90
   1  10   2   41.90    2.40
   1  10   2   37.80    2.90
   1  10   2   39.90    2.60
  -2 -10  -2   99.59    5.90
  -2 -10  -2  104.19    4.90
  -2 -10  -2  109.49    5.90
  -2 -10  -2  104.49    5.30
   2  10   2  105.49    4.80
   2  10   2  103.69    4.90
   2  10   2   97.39    5.00
   2  10   2  109.49    5.10
  -3 -10  -2   74.89    4.40
  -3 -10  -2   78.79    4.80
  -3 -10  -2   77.59    4.10
   3  10   2   81.79    4.50
   3  10   2   82.49    4.20
   3  10   2   76.79    3.90
   3  10   2   81.19    3.80
  -4 -10  -2   21.70    2.80
  -4 -10  -2   32.20    2.40
   4  10   2   34.40    2.40
   4  10   2   36.80    2.00
  -5 -10  -2   37.20    2.40
  -5 -10  -2   28.80    2.90
   5  10   2   34.60    2.70
   5  10   2   37.50    2.20
   3   9  -3  287.17   11.80
   3   9  -3  288.67   11.60
  -3  -9   3  282.47   11.40
  -3  -9   3  273.57   11.30
   2   9  -3   57.29    2.80
   2   9  -3   45.40    3.00
   2   9  -3   46.00    4.80
  -2  -9   3   54.19    3.00
  -2  -9   3   58.69    3.20
   1   9  -3  122.39    5.30
   1   9  -3  125.69    5.40
  -1  -9   3  126.79    5.80
  -1  -9   3  131.49    5.90
   5   8  -3  150.98    6.50
   5   8  -3  138.99    6.30
   5   8  -3  152.78    6.50
  -5  -8   3  133.79    6.50
  -5  -8   3  136.19    6.30
   4   8  -3   75.29    4.00
   4   8  -3   68.79    3.80
   4   8  -3   75.59    3.90
  -4  -8   3   70.59    4.10
  -4  -8   3   65.09    4.30
  -4  -8   3   69.99    4.00
   3   8  -3   10.00    1.80
   3   8  -3    8.10    2.80
   3   8  -3    6.90    1.30
  -3  -8   3   10.60    2.40
  -3  -8   3    7.80    1.60
   2   8  -3  213.28    9.30
   2   8  -3  207.48    9.00
   2   8  -3  204.88    8.90
  -2  -8   3  213.18    9.50
  -2  -8   3  225.98    9.50
  -2  -8   3  198.28    9.50
   1   8  -3   25.00    3.60
   1   8  -3   31.70    2.20
   1   8  -3   35.20    2.50
   1   8  -3   32.60    2.50
  -1  -8   3   29.00    2.80
  -1  -8   3   31.30    2.60
  -1  -8   3   32.90    2.90
   0   8  -3   32.40    2.40
   0   8  -3   34.30    2.20
   0   8  -3   32.80    2.60
   0  -8   3   33.00    2.90
   0  -8   3   32.00    2.90
   0  -8   3   35.50    2.60
  -1   8  -3   41.70    3.10
  -1   8  -3   48.50    2.70
   1  -8   3   48.60    3.60
   1  -8   3   48.30    3.10
   1  -8   3   46.80    3.10
   1  -8   3   49.99    2.80
   6   7  -3  394.26   15.50
   6   7  -3  380.26   15.40
   6   7  -3  373.06   15.30
  -6  -7   3  359.76   15.30
  -6  -7   3  371.36   15.10
   5   7  -3   25.60    2.40
   5   7  -3   21.90    2.30
   5   7  -3   22.90    2.20
  -5  -7   3   24.50    3.00
  -5  -7   3   20.40    2.80
  -5  -7   3   22.80    3.40
   4   7  -3  782.12   31.90
   4   7  -3  838.62   31.50
   4   7  -3  771.32   31.70
  -4  -7   3  812.72   32.80
  -4  -7   3  830.22   32.80
   3   7  -3  143.99    6.50
   3   7  -3  133.49    6.60
   3   7  -3  137.99    6.50
  -3  -7   3  135.49    7.00
  -3  -7   3  137.39    7.10
  -3  -7   3  136.69    7.00
   2   7  -3  559.44   23.10
   2   7  -3  575.74   23.00
   2   7  -3  567.54   22.40
   2   7  -3  604.04   23.20
  -2  -7   3  589.44   23.90
  -2  -7   3  588.24   24.00
  -2  -7   3  580.04   23.90
   1   7  -3   86.99    4.90
   1   7  -3   86.89    5.00
   1   7  -3   94.19    4.80
   1   7  -3   87.69    4.80
   1   7  -3   96.09    4.30
  -1  -7   3   92.59    5.20
  -1  -7   3   93.89    5.10
  -1  -7   3   85.69    6.30
  -1  -7   3   94.19    5.30
   0   7  -3  283.17   12.00
   0   7  -3  271.77   11.80
   0   7  -3  286.37   12.50
   0   7  -3  294.97   11.70
   0  -7   3  238.38   15.80
   0  -7   3  299.67   12.10
   0  -7   3  282.67   12.50
   0  -7   3  295.77   13.50
  -1   7  -3  257.57   11.40
  -1   7  -3  276.57   11.10
  -1   7  -3  268.17   11.40
  -1   7  -3  288.47   11.60
   1  -7   3  259.67   11.90
   1  -7   3  243.98   13.00
   1  -7   3  288.57   11.60
   1  -7   3  283.57   11.80
  -2   7  -3  221.58   10.30
  -2   7  -3  256.77    9.90
  -2   7  -3  252.87   10.20
   2  -7   3  266.47   11.70
   2  -7   3  274.97   11.30
   2  -7   3  261.67   12.30
  -3   7  -3  111.09    5.30
  -3   7  -3  117.99    5.30
  -3   7  -3  143.09    7.10
   3  -7   3  122.59    5.60
   3  -7   3  116.89    5.20
   3  -7   3  111.29    6.00
   7   6  -3  160.38    6.70
   7   6  -3  158.38    6.90
   7   6  -3  157.18    6.80
   7   6  -3  155.58    6.80
  -7  -6   3  156.68    8.90
  -7  -6   3  136.39    6.80
   6   6  -3  243.58   10.50
   6   6  -3  247.88   10.30
   6   6  -3  235.38   10.10
  -6  -6   3  226.48   10.70
  -6  -6   3  218.98    9.30
  -6  -6   3  227.58   10.40
   5   6  -3  146.79    6.60
   5   6  -3  147.59    6.80
   5   6  -3  124.39    7.50
  -5  -6   3  129.79    6.10
  -5  -6   3  122.79    6.80
  -5  -6   3  138.69    6.00
  -5  -6   3  119.29    8.50
   4   6  -3   45.20    3.00
   4   6  -3   38.90    3.00
   4   6  -3   43.00    2.90
  -4  -6   3   37.00    3.20
  -4  -6   3   39.10    3.90
  -4  -6   3   37.90    7.80
  -4  -6   3   33.40    3.60
   3   6  -3  203.18    8.70
   3   6  -3  188.88    8.10
   3   6  -3  202.98    8.90
   3   6  -3  189.78    8.70
  -3  -6   3  191.28    9.20
  -3  -6   3  180.58    8.00
  -3  -6   3  194.78    9.20
  -3  -6   3  186.48    9.20
   2   6  -3  463.85   18.10
   2   6  -3  448.16   18.70
   2   6  -3  444.16   18.20
   2   6  -3  481.85   18.80
   2   6  -3  461.45   18.70
  -2  -6   3  437.86   17.60
  -2  -6   3  472.15   18.90
  -2  -6   3  455.45   19.00
  -2  -6   3  429.26   19.10
  -2  -6   3  445.16   18.80
   1   6  -3  178.48    7.90
   1   6  -3  190.88    8.20
   1   6  -3  181.38    8.30
   1   6  -3  183.88    7.70
   1   6  -3  167.58    8.00
   1   6  -3  183.08    9.30
   1   6  -3  190.98    8.50
  -1  -6   3  193.48    8.90
  -1  -6   3  180.48    9.00
  -1  -6   3  190.68    9.10
  -1  -6   3  179.88    9.40
   0   6  -3  330.07   13.60
   0   6  -3  322.97   13.30
   0   6  -3  320.67   13.40
   0   6  -3  322.27   13.80
   0   6  -3  328.27   13.20
   0  -6   3  348.57   14.30
   0  -6   3  332.57   14.40
   0  -6   3  334.07   14.60
   0  -6   3  322.17   15.10
  -1   6  -3  454.45   18.80
  -1   6  -3  441.66   18.40
  -1   6  -3  448.66   18.20
  -1   6  -3  476.55   18.10
  -1   6  -3  410.16   19.70
  -1   6  -3  471.95   18.50
  -1   6  -3  465.15   18.20
   1  -6   3  511.25   20.30
   1  -6   3  462.15   21.20
   1  -6   3  504.75   20.70
   1  -6   3  496.05   20.40
  -2   6  -3  337.27   14.70
  -2   6  -3  367.66   14.60
  -2   6  -3  354.86   14.20
  -2   6  -3  348.57   14.40
   2  -6   3  350.36   17.10
   2  -6   3  359.66   15.80
   2  -6   3  363.56   15.20
   2  -6   3  378.56   15.70
  -3   6  -3  209.48   10.90
  -3   6  -3  227.28    9.20
  -3   6  -3  216.38    9.50
  -3   6  -3  226.88    9.40
   3  -6   3  244.18   10.40
   3  -6   3  246.68   10.90
   3  -6   3  234.28   11.40
  -4   6  -3  212.78    9.20
  -4   6  -3  209.28    8.80
  -4   6  -3  214.68    8.60
   4  -6   3  233.08    9.50
   4  -6   3  233.78    9.90
   4  -6   3  220.28   10.60
   7   5  -3   41.90    2.90
   7   5  -3   45.80    2.70
   7   5  -3   45.10    2.80
  -7  -5   3   37.10    2.70
  -7  -5   3   43.10    3.50
   6   5  -3  327.67   13.50
   6   5  -3  304.67   13.10
  -6  -5   3  272.27   12.00
  -6  -5   3  279.57   12.70
  -6  -5   3  279.57   16.00
  -6  -5   3  291.87   11.90
   5   5  -3   41.60    2.80
   5   5  -3   35.90    3.10
   5   5  -3   38.40    2.80
   5   5  -3   45.40    3.30
  -5  -5   3   34.20    3.20
  -5  -5   3   38.30    3.00
  -5  -5   3   37.10    4.00
  -5  -5   3   43.20    6.10
  -5  -5   3   40.30    4.50
   4   5  -3   12.10    1.70
   4   5  -3   12.30    2.10
   4   5  -3    7.80    1.30
  -4  -5   3    6.20    1.90
  -4  -5   3    7.60    1.40
  -4  -5   3    7.10    2.80
   3   5  -3  234.18   10.60
   3   5  -3  253.17   10.60
   3   5  -3  244.58    9.90
   3   5  -3  247.88   10.90
   3   5  -3  247.38   10.50
  -3  -5   3  238.88   10.00
  -3  -5   3  236.18   10.90
  -3  -5   3  234.48   10.10
  -3  -5   3  230.98   10.90
  -3  -5   3  241.08   12.10
  -3  -5   3  236.38   10.90
  -3  -5   3  239.18   10.00
   2   5  -3  236.58    9.80
   2   5  -3  205.78    9.40
   2   5  -3  230.38    9.20
   2   5  -3  223.48    9.90
   2   5  -3  218.98    9.50
   2   5  -3  230.78    9.20
   2   5  -3  214.98   10.20
  -2  -5   3  200.78    9.90
  -2  -5   3  214.08   10.30
  -2  -5   3  214.38    9.00
  -2  -5   3  213.98   10.00
  -2  -5   3  214.08   10.70
  -2  -5   3  227.98    9.00
   1   5  -3  208.28    8.90
   1   5  -3  206.78    9.50
   1   5  -3  212.78    8.50
   1   5  -3  188.28    9.00
   1   5  -3  198.98    9.40
   1   5  -3  203.98    8.50
   1   5  -3  201.38    8.50
  -1  -5   3  206.08    9.60
  -1  -5   3  203.68    9.50
  -1  -5   3  208.18    9.60
  -1  -5   3  188.38    9.20
  -1  -5   3  206.08    9.50
  -1  -5   3  198.28    8.40
   0   5  -3 1058.19   40.60
   0   5  -3 1062.99   41.90
   0   5  -3 1043.20   40.90
   0   5  -3 1059.79   40.50
   0   5  -3 1004.30   41.50
   0   5  -3 1088.99   40.70
   0   5  -3 1045.90   41.00
   0  -5   3 1085.39   43.20
   0  -5   3 1117.09   42.60
   0  -5   3 1087.29   42.70
   0  -5   3 1104.69   43.20
   0  -5   3  999.80   41.60
   0  -5   3 1123.69   43.00
  -1   5  -3  167.78    8.80
  -1   5  -3  173.58    7.90
  -1   5  -3  176.38    7.50
  -1   5  -3  175.28    7.80
  -1   5  -3  167.98    7.60
  -1   5  -3  168.08    8.20
  -1   5  -3  179.38    7.60
   1  -5   3  183.68    9.20
   1  -5   3  175.98    8.60
   1  -5   3  180.08    8.80
   1  -5   3  183.48    8.40
   1  -5   3  182.58    9.20
   1  -5   3  179.88    8.70
  -2   5  -3  436.26   17.80
  -2   5  -3  442.36   17.70
  -2   5  -3  419.66   17.70
  -2   5  -3  445.56   18.40
  -2   5  -3  446.36   17.80
  -2   5  -3  439.76   17.60
   2  -5   3  464.35   19.20
   2  -5   3  451.95   18.80
   2  -5   3  465.15   18.70
   2  -5   3  437.76   18.70
   2  -5   3  444.96   19.60
  -3   5  -3    2.30    1.30
  -3   5  -3    2.80    2.90
  -3   5  -3    1.40    0.90
  -3   5  -3    0.60    1.00
  -3   5  -3    0.00    1.70
   3  -5   3    0.10    1.20
   3  -5   3    1.30    1.10
   3  -5   3    3.40    1.90
   3  -5   3    0.30    1.80
  -4   5  -3  340.77   13.20
  -4   5  -3  330.47   13.20
  -4   5  -3  302.27   13.90
  -4   5  -3  319.87   13.40
   4  -5   3  379.26   14.90
   4  -5   3  322.27   14.70
   4  -5   3  356.56   16.00
   4  -5   3  368.36   15.30
  -5   5  -3   34.90    7.30
  -5   5  -3   23.70    2.20
  -5   5  -3   21.20    1.80
  -5   5  -3   17.10    3.00
   5  -5   3   24.20    3.30
   5  -5   3   24.00    1.90
   5  -5   3   24.50    2.10
   8   4  -3  116.99    5.40
   8   4  -3  126.49    5.30
   8   4  -3  120.89    5.30
  -8  -4   3  109.49    5.40
  -8  -4   3   99.39    5.10
   7   4  -3  101.29    5.60
   7   4  -3  113.19    5.00
   7   4  -3  103.39    4.90
   7   4  -3   95.19    5.20
  -7  -4   3   93.59    4.90
  -7  -4   3   84.29    5.10
  -7  -4   3   84.19    5.40
  -7  -4   3   87.89    5.10
   6   4  -3  166.28    7.40
   6   4  -3  151.78    9.50
   6   4  -3  158.08    7.60
   6   4  -3  171.98    7.70
   6   4  -3  169.68    7.40
  -6  -4   3  136.39    9.80
  -6  -4   3  152.88    7.40
  -6  -4   3  153.58    7.30
   5   4  -3  112.49    5.40
   5   4  -3   99.99    7.70
   5   4  -3  120.59    5.50
   5   4  -3  117.99    5.90
  -5  -4   3  110.69    7.90
  -5  -4   3   99.19    8.00
  -5  -4   3  105.29    5.60
  -5  -4   3   99.09    5.50
   4   4  -3  247.58   12.00
   4   4  -3  273.47   11.60
   4   4  -3  278.07   11.30
   4   4  -3  278.47   13.60
   4   4  -3  278.67   11.40
  -4  -4   3  258.07   12.10
  -4  -4   3  255.77   11.10
  -4  -4   3  246.98   10.80
  -4  -4   3  249.18   11.70
  -4  -4   3  255.57   11.10
  -4  -4   3  263.77   12.90
   3   4  -3  501.65   20.10
   3   4  -3  485.95   20.20
   3   4  -3  503.45   20.00
   3   4  -3  501.55   20.40
   3   4  -3  505.05   20.10
   3   4  -3  508.25   19.90
  -3  -4   3  476.05   19.30
  -3  -4   3  479.35   19.20
  -3  -4   3  452.65   20.10
  -3  -4   3  468.25   20.00
  -3  -4   3  507.55   19.80
  -3  -4   3  507.45   21.00
  -3  -4   3  471.95   19.40
   2   4  -3  277.17   11.10
   2   4  -3  268.27   11.10
   2   4  -3  260.57   11.20
   2   4  -3  253.87   13.40
   2   4  -3  275.47   10.80
   2   4  -3  266.37   10.70
   2   4  -3  275.47   10.80
   2   4  -3  254.57   11.10
  -2  -4   3  289.77   11.60
  -2  -4   3  285.17   12.90
  -2  -4   3  271.77   13.30
  -2  -4   3  298.07   12.30
  -2  -4   3  288.37   12.20
  -2  -4   3  277.17   11.80
  -2  -4   3  270.87   11.50
   1   4  -3   33.50    3.30
   1   4  -3   43.20    2.80
   1   4  -3   39.90    2.60
   1   4  -3   37.20    5.30
   1   4  -3   39.60    2.80
   1   4  -3   38.10    2.20
   1   4  -3   40.10    2.40
   1   4  -3   38.10    2.40
  -1  -4   3   38.50    3.30
  -1  -4   3   37.00    2.80
  -1  -4   3   38.00    2.40
  -1  -4   3   40.90    3.10
  -1  -4   3   30.60    4.00
  -1  -4   3   42.00    2.30
  -1  -4   3   41.80    4.00
   0   4  -3  418.26   16.30
   0   4  -3  419.46   16.30
   0   4  -3  406.66   16.20
   0   4  -3  420.46   17.30
   0   4  -3  404.96   16.60
   0   4  -3  398.86   16.70
   0  -4   3  433.56   17.50
   0  -4   3  430.46   17.90
   0  -4   3  420.16   17.90
   0  -4   3  414.66   17.60
   0  -4   3  406.86   17.30
   0  -4   3  409.76   16.60
   0  -4   3  424.66   16.70
   0  -4   3  412.56   16.60
   0  -4   3  430.56   17.60
  -1   4  -3   23.70    2.70
  -1   4  -3   29.30    2.10
  -1   4  -3   26.90    2.60
  -1   4  -3   28.40    2.00
  -1   4  -3   35.10    3.40
  -1   4  -3   25.40    2.10
   1  -4   3   25.50    2.80
   1  -4   3   27.20    2.70
   1  -4   3   27.10    2.80
   1  -4   3   28.10    2.80
   1  -4   3   35.00    3.70
   1  -4   3   28.20    2.50
  -2   4  -3   66.79    4.70
  -2   4  -3   67.89    3.70
  -2   4  -3   69.29    3.60
  -2   4  -3   65.49    5.00
  -2   4  -3   65.89    3.90
  -2   4  -3   69.09    3.60
   2  -4   3   76.49    4.30
   2  -4   3   72.29    4.70
   2  -4   3   73.89    4.60
   2  -4   3   67.89    4.90
   2  -4   3   69.29    4.70
   2  -4   3   73.29    4.70
  -3   4  -3  157.28    7.40
  -3   4  -3  164.28    7.50
  -3   4  -3  171.58    7.40
  -3   4  -3  170.98    7.60
  -3   4  -3  164.78    8.70
  -3   4  -3  157.58    8.60
   3  -4   3  177.38    8.60
   3  -4   3  175.88    8.90
   3  -4   3  175.58    8.20
   3  -4   3  180.48    8.70
   3  -4   3  173.28    9.90
   3  -4   3  171.88    8.40
   3  -4   3  168.98    8.90
   3  -4   3  166.38    9.00
  -4   4  -3  180.98    7.60
  -4   4  -3  167.88    7.60
  -4   4  -3  174.58    7.90
  -4   4  -3  168.98    8.10
  -4   4  -3  161.38    9.60
   4  -4   3  199.18    8.90
   4  -4   3  185.18    9.20
   4  -4   3  197.48    9.10
   4  -4   3  190.58   10.40
  -5   4  -3   -0.60    1.00
  -5   4  -3    0.80    1.70
  -5   4  -3    2.80    2.10
  -5   4  -3    8.00    3.70
  -5   4  -3   -2.30    2.30
  -5   4  -3    1.00    1.10
   5  -4   3    0.30    1.00
   5  -4   3   -0.20    1.30
   5  -4   3    0.70    1.50
   8   3  -3  281.07   11.60
   8   3  -3  279.87   11.20
   8   3  -3  278.97   11.40
   8   3  -3  282.67   11.40
  -8  -3   3  238.48   10.50
  -8  -3   3  237.48   10.30
  -8  -3   3  244.08   10.10
   7   3  -3   39.50    3.30
   7   3  -3   41.40    3.00
   7   3  -3   40.60    2.80
   7   3  -3   37.90    2.60
  -7  -3   3   39.40    4.20
  -7  -3   3   37.50    3.60
  -7  -3   3   35.80    3.40
   6   3  -3    6.80    1.50
   6   3  -3    6.40    1.40
   6   3  -3    5.70    1.40
   6   3  -3    6.30    1.20
  -6  -3   3    3.80    1.70
  -6  -3   3    4.80    1.60
  -6  -3   3    5.30    3.00
  -6  -3   3    3.80    2.10
   5   3  -3  963.40   41.20
   5   3  -3 1010.90   40.60
   5   3  -3 1046.80   40.40
   5   3  -3 1071.69   40.40
   5   3  -3 1059.19   42.40
   5   3  -3 1091.09   40.70
  -5  -3   3  966.50   40.00
  -5  -3   3 1041.90   39.60
  -5  -3   3 1027.70   39.60
  -5  -3   3 1001.70   41.50
  -5  -3   3  979.60   39.50
   4   3  -3  286.47   12.70
   4   3  -3  289.57   12.00
   4   3  -3  280.27   11.70
   4   3  -3  290.77   13.70
   4   3  -3  274.27   12.00
   4   3  -3  285.57   11.80
  -4  -3   3  264.47   11.80
  -4  -3   3  280.97   11.70
  -4  -3   3  287.97   13.30
  -4  -3   3  262.57   11.90
   3   3  -3  933.51   36.90
   3   3  -3  972.70   38.40
   3   3  -3  904.81   36.70
   3   3  -3  914.11   36.70
   3   3  -3  910.61   38.50
   3   3  -3  995.40   37.80
   3   3  -3  975.10   36.90
   3   3  -3  996.80   37.20
  -3  -3   3  896.51   37.10
  -3  -3   3  976.70   38.30
  -3  -3   3  979.20   37.00
  -3  -3   3  964.50   37.00
  -3  -3   3  929.61   36.50
   2   3  -3 1195.08   45.20
   2   3  -3 1227.98   46.70
   2   3  -3 1198.58   45.10
   2   3  -3 1212.78   46.80
   2   3  -3 1020.40   45.70
  -2  -3   3 1238.98   47.10
  -2  -3   3 1209.98   46.80
  -2  -3   3 1252.97   47.30
  -2  -3   3 1202.38   47.40
  -2  -3   3 1202.38   47.40
  -2  -3   3 1282.17   48.40
  -2  -3   3 1198.78   47.60
   1   3  -3   50.19    2.70
   1   3  -3   52.09    3.00
   1   3  -3   53.19    2.90
   1   3  -3   49.50    4.00
   1   3  -3   48.10    2.50
  -1  -3   3   53.59    3.10
  -1  -3   3   49.40    2.70
  -1  -3   3   51.29    2.60
  -1  -3   3   51.49    2.90
  -1  -3   3   48.70    2.30
   0   3  -3   50.69    2.50
   0   3  -3   54.79    3.20
   0   3  -3   51.59    3.30
   0   3  -3   49.00    2.80
   0   3  -3   50.19    2.80
   0   3  -3   49.10    2.90
   0  -3   3   52.99    3.00
   0  -3   3   49.70    3.20
   0  -3   3   52.09    2.80
   0  -3   3   55.79    3.30
   0  -3   3   47.30    3.60
  -1   3  -3  589.44   23.00
  -1   3  -3  584.04   21.80
  -1   3  -3  574.94   22.10
  -1   3  -3  532.75   22.10
  -1   3  -3  600.54   22.10
  -1   3  -3  535.85   22.50
  -1   3  -3  550.74   22.40
   1  -3   3  634.34   24.10
   1  -3   3  580.14   24.10
   1  -3   3  580.24   24.10
   1  -3   3  602.04   25.70
   1  -3   3  581.44   23.80
   1  -3   3  627.54   24.00
   1  -3   3  610.14   23.30
   1  -3   3  593.24   23.20
   1  -3   3  569.14   23.30
  -2   3  -3  662.53   27.60
  -2   3  -3  712.23   27.20
  -2   3  -3  723.43   27.20
  -2   3  -3  679.63   27.10
  -2   3  -3  693.63   27.30
  -2   3  -3  705.53   28.00
   2  -3   3  712.33   29.20
   2  -3   3  785.32   31.40
   2  -3   3  827.32   30.30
   2  -3   3  748.33   29.30
   2  -3   3  657.63   28.40
   2  -3   3  723.43   29.40
   2  -3   3  736.53   29.40
   2  -3   3  682.93   29.60
  -3   3  -3   49.00    3.20
  -3   3  -3   50.19    3.60
  -3   3  -3   46.30    3.00
  -3   3  -3   49.30    3.20
  -3   3  -3   44.10    2.80
   3  -3   3   53.39    3.60
   3  -3   3   54.29    3.90
   3  -3   3   52.99    8.00
   3  -3   3   43.50    3.70
   3  -3   3   55.09    4.60
   3  -3   3   53.79    3.90
   3  -3   3   49.40    3.90
  -4   3  -3  240.18   10.40
  -4   3  -3  245.38   10.40
  -4   3  -3  243.78   10.10
  -4   3  -3  233.98   10.20
  -4   3  -3  222.88   11.30
   4  -3   3  270.87   11.30
   4  -3   3  247.88   11.40
   4  -3   3  268.97   11.70
   4  -3   3  230.58   19.10
   4  -3   3  245.08   11.30
   4  -3   3  247.38   12.70
  -5   3  -3  174.88    8.90
  -5   3  -3  195.18    8.70
  -5   3  -3  194.38    8.30
  -5   3  -3  192.58    9.00
  -5   3  -3  198.48    8.60
   5  -3   3  201.78    9.00
   5  -3   3  171.58   10.30
   5  -3   3  209.88    9.90
  -6   3  -3  122.69    6.90
  -6   3  -3  152.18    6.80
  -6   3  -3  138.99    6.00
   6  -3   3  159.48    7.30
   6  -3   3  157.48    7.10
   6  -3   3  160.28    7.50
   8   2  -3   61.49    3.20
   8   2  -3   59.19    3.30
   8   2  -3   60.79    3.20
   8   2  -3   58.99    2.80
  -8  -2   3   47.00    4.90
  -8  -2   3   55.09    3.60
   7   2  -3  264.17   13.10
  -7  -2   3  257.57   11.80
  -7  -2   3  277.17   13.50
  -7  -2   3  256.27   11.80
   6   2  -3  656.23   26.90
   6   2  -3  677.83   26.80
   6   2  -3  653.83   28.90
   6   2  -3  689.13   26.90
   6   2  -3  757.52   28.80
   6   2  -3  649.64   27.10
  -6  -2   3  572.74   25.70
  -6  -2   3  603.34   25.00
  -6  -2   3  604.14   25.20
  -6  -2   3  647.74   25.30
  -6  -2   3  674.23   30.10
   5   2  -3  145.39    6.40
   5   2  -3  142.29    6.70
   5   2  -3  149.69    9.30
   5   2  -3  126.59    9.30
   5   2  -3  141.79    6.50
   5   2  -3  140.09    6.70
  -5  -2   3  133.39    6.70
  -5  -2   3  132.19    6.80
  -5  -2   3  120.19    7.70
  -5  -2   3  134.39    8.00
  -5  -2   3  133.59    6.40
   4   2  -3 1264.57   50.59
   4   2  -3 1174.08   50.39
   4   2  -3 1336.87   49.60
   4   2  -3 1239.88   49.00
   4   2  -3 1292.67   49.20
   4   2  -3 1329.27   50.39
   4   2  -3 1244.98   49.20
   4   2  -3 1235.88   49.00
   4   2  -3 1345.77   50.89
  -4  -2   3 1345.77   49.60
  -4  -2   3 1300.87   49.50
  -4  -2   3 1173.68   49.80
  -4  -2   3 1317.37   50.99
  -4  -2   3 1245.98   49.60
   3   2  -3  192.88    8.90
   3   2  -3  198.48    9.30
   3   2  -3  211.78    8.40
   3   2  -3  191.68    8.80
   3   2  -3  185.48    8.40
   3   2  -3  188.58    8.10
   3   2  -3  184.28    8.20
  -3  -2   3  206.58    8.60
  -3  -2   3  195.88    8.60
  -3  -2   3  198.38    8.30
  -3  -2   3  198.28    8.90
  -3  -2   3  213.98    9.70
   2   2  -3 2060.89   76.89
   2   2  -3 2022.00   77.09
   2   2  -3 1967.10   77.99
  -2  -2   3 2026.00   77.29
  -2  -2   3 2068.19   78.69
  -2  -2   3 2090.69   78.89
  -2  -2   3 2027.10   77.69
  -2  -2   3 1976.50   77.69
   1   2  -3  506.35   20.80
   1   2  -3  488.05   19.50
   1   2  -3  527.65   20.10
   1   2  -3  500.25   19.60
  -1  -2   3  512.05   20.10
  -1  -2   3  511.75   20.10
  -1  -2   3  506.15   19.60
   0   2  -3 4311.77  147.19
   0   2  -3 4190.98  146.69
   0   2  -3 3354.16  146.39
   0   2  -3 3412.26  146.29
   0   2  -3 4075.39  146.49
   0  -2   3 3904.31  149.29
   0  -2   3 3957.80  149.39
  -1   2  -3  143.69    6.00
  -1   2  -3  142.49    6.10
  -1   2  -3  148.29    5.80
   1  -2   3  165.78    7.00
   1  -2   3  150.88    6.50
   1  -2   3  151.78    7.50
  -2   2  -3 1844.62   70.79
  -2   2  -3 1871.11   71.09
  -2   2  -3 1755.72   70.79
  -2   2  -3 1958.00   71.49
   2  -2   3 1963.20   75.99
   2  -2   3 1886.91   75.49
   2  -2   3 1942.61   75.99
   2  -2   3 1948.91   75.99
   2  -2   3 1974.30   76.19
   2  -2   3 2101.39   78.19
   2  -2   3 1970.60   75.99
   2  -2   3 2050.49   75.39
  -3   2  -3  697.63   27.10
  -3   2  -3  671.83   26.40
  -3   2  -3  671.53   26.40
  -3   2  -3  655.23   26.40
  -3   2  -3  701.03   27.10
  -3   2  -3  656.13   26.20
  -3   2  -3  669.53   26.80
   3  -2   3  723.63   28.60
   3  -2   3  710.63   28.50
   3  -2   3  710.73   28.50
   3  -2   3  707.23   28.60
   3  -2   3  719.83   28.60
   3  -2   3  718.83   28.70
   3  -2   3  692.13   27.70
   3  -2   3  731.93   30.90
   3  -2   3  731.23   28.50
  -4   2  -3  342.07   14.20
  -4   2  -3  342.17   14.00
  -4   2  -3  336.07   14.70
  -4   2  -3  356.56   14.20
  -4   2  -3  345.97   14.10
  -4   2  -3  324.07   14.80
   4  -2   3  364.76   19.10
   4  -2   3  349.17   15.30
   4  -2   3  352.46   15.30
   4  -2   3  362.06   15.20
   4  -2   3  360.96   15.40
   4  -2   3  360.06   15.30
   4  -2   3  368.36   15.60
  -5   2  -3   18.30    3.20
  -5   2  -3   22.80    2.90
  -5   2  -3   20.80    3.40
  -5   2  -3   17.50    4.00
  -5   2  -3   24.00    2.80
  -5   2  -3   19.50    3.10
  -5   2  -3   19.30    2.20
   5  -2   3   20.30    2.80
   5  -2   3   24.50    3.00
   5  -2   3   20.20    2.70
   5  -2   3   11.50    9.30
  -6   2  -3  348.67   16.60
  -6   2  -3  389.86   17.10
  -6   2  -3  423.76   16.60
  -6   2  -3  399.86   15.70
  -6   2  -3  387.26   16.00
   6  -2   3  440.96   18.60
   6  -2   3  473.55   18.60
   6  -2   3  431.06   18.40
  -7   2  -3  134.89    5.80
  -7   2  -3  130.99    7.10
  -7   2  -3  140.99    6.30
   7  -2   3  148.49    6.60
   7  -2   3  148.69    6.40
   8   1  -3  144.09    6.30
   8   1  -3  135.99    9.60
   8   1  -3  140.79    6.50
   8   1  -3  150.18    6.20
  -8  -1   3  145.19    6.90
  -8  -1   3  133.09    8.10
  -8  -1   3  125.69    7.10
   7   1  -3  304.97   15.30
  -7  -1   3  289.67   12.70
  -7  -1   3  288.57   13.80
  -7  -1   3  282.57   12.70
   6   1  -3  404.26   16.30
   6   1  -3  384.06   15.70
   6   1  -3  384.96   16.10
   6   1  -3  380.26   18.20
   6   1  -3  395.56   15.90
   6   1  -3  379.36   20.50
  -6  -1   3  352.26   15.90
  -6  -1   3  346.27   15.00
  -6  -1   3  367.26   15.00
  -6  -1   3  344.97   16.90
  -6  -1   3  353.66   15.10
   5   1  -3  293.67   12.60
   5   1  -3  284.67   14.20
   5   1  -3  300.17   12.30
   5   1  -3  279.07   15.10
   5   1  -3  299.67   12.40
   5   1  -3  281.87   12.30
   5   1  -3  287.07   12.10
   5   1  -3  335.77   14.10
  -5  -1   3  270.37   11.30
  -5  -1   3  261.57   12.80
  -5  -1   3  275.57   11.60
  -5  -1   3  253.37   11.70
  -5  -1   3  255.67   12.10
   4   1  -3   26.10    2.10
   4   1  -3   26.60    2.10
   4   1  -3   22.90    2.90
   4   1  -3   28.90    3.70
   4   1  -3   27.80    2.50
   4   1  -3   27.20    3.70
   4   1  -3   26.30    4.10
   4   1  -3   25.00    3.40
   4   1  -3   26.10    3.10
  -4  -1   3   21.30    2.70
  -4  -1   3   25.50    5.80
  -4  -1   3   25.00    2.90
  -4  -1   3   29.40    2.10
   3   1  -3  664.43   26.50
   3   1  -3  650.03   26.60
   3   1  -3  653.53   26.10
   3   1  -3  651.53   25.60
  -3  -1   3  614.14   26.20
  -3  -1   3  667.83   26.00
  -3  -1   3  618.14   25.00
  -3  -1   3  644.54   24.80
   2   1  -3  305.67   13.40
   2   1  -3  314.67   13.00
   2   1  -3  323.07   12.80
   2   1  -3  323.77   12.50
  -2  -1   3  305.37   12.20
  -2  -1   3  332.47   13.20
  -2  -1   3  288.37   12.30
  -2  -1   3  313.97   12.50
  -2  -1   3  312.87   12.10
   1   1  -3 4130.19  153.58
   1   1  -3 3963.60  153.18
  -1  -1   3 3764.62  150.78
  -1  -1   3 4074.59  150.48
  -1  -1   3 4100.19  150.78
   0   1  -3  183.88    7.10
   0   1  -3  178.38    7.60
   0  -1   3  170.58    7.30
   0  -1   3  181.28    7.30
   0  -1   3  176.28    6.90
   0  -1   3  174.88    7.20
  -1   1  -3  684.33   26.60
  -1   1  -3  691.33   26.20
  -1   1  -3  670.53   26.10
   1  -1   3  678.13   27.00
   1  -1   3  684.33   26.70
   1  -1   3  722.53   27.00
  -2   1  -3  580.64   23.00
  -2   1  -3  619.24   23.40
  -2   1  -3  575.64   22.80
   2  -1   3  619.44   23.60
   2  -1   3  579.74   23.50
   2  -1   3  568.54   23.20
   2  -1   3  627.44   23.60
  -3   1  -3  522.25   21.80
  -3   1  -3  539.75   21.20
  -3   1  -3  559.74   21.60
  -3   1  -3  533.65   21.40
  -3   1  -3  551.34   21.30
  -3   1  -3  529.45   21.00
   3  -1   3  548.35   21.20
   3  -1   3  528.35   21.80
   3  -1   3  509.95   21.80
   3  -1   3  539.35   21.90
   3  -1   3  539.75   22.00
   3  -1   3  565.64   21.70
   3  -1   3  565.24   21.60
  -4   1  -3   33.00    2.60
  -4   1  -3   31.20    3.30
  -4   1  -3   34.90    2.70
  -4   1  -3   34.30    2.80
  -4   1  -3   29.80    3.80
  -4   1  -3   31.70    2.40
   4  -1   3   29.90    3.90
   4  -1   3   36.00    3.20
   4  -1   3   29.30    3.70
   4  -1   3   32.20    2.80
   4  -1   3   31.80    3.10
   4  -1   3   32.90    3.20
  -5   1  -3  110.29    5.70
  -5   1  -3  116.29    5.50
  -5   1  -3  106.19    5.90
  -5   1  -3  112.39    6.60
  -5   1  -3  108.59    7.00
  -5   1  -3  111.79    6.10
  -5   1  -3  100.39    6.00
  -5   1  -3  101.69    5.70
   5  -1   3  112.69    6.10
   5  -1   3  120.29    6.10
   5  -1   3  116.79    5.80
   5  -1   3  113.69    6.20
   5  -1   3   96.29   10.10
  -6   1  -3  179.18    8.70
  -6   1  -3  196.18   14.20
  -6   1  -3  177.78    9.30
  -6   1  -3  198.48   10.00
  -6   1  -3  193.28    9.00
  -6   1  -3  197.78    8.40
   6  -1   3  180.38   17.10
   6  -1   3  200.28    9.10
   6  -1   3  198.48   10.00
   6  -1   3  212.08    9.30
   6  -1   3  223.08    9.70
  -7   1  -3   80.89    5.40
  -7   1  -3   91.89    4.80
  -7   1  -3   83.69    4.20
   7  -1   3   86.89    4.60
   7  -1   3   97.09    5.00
   8   0  -3   35.40    2.40
   8   0  -3   36.80    5.90
   8   0  -3   28.40    3.10
  -8   0   3   26.50    4.00
  -8   0   3   36.30    2.70
  -8   0   3   27.80    3.60
  -7   0   3    0.40    3.40
  -7   0   3    3.40    1.60
  -7   0   3    2.40    1.80
  -7   0   3    0.50    1.70
   6   0  -3  167.88    7.90
   6   0  -3  168.88    7.70
   6   0  -3  159.08    9.60
   6   0  -3  164.48    7.40
   6   0  -3  163.28    7.20
  -6   0   3  145.89    7.10
  -6   0   3  134.19    8.90
  -6   0   3  146.69    7.20
  -6   0   3  138.49    8.30
  -6   0   3  150.88    7.30
   5   0  -3    5.10    2.10
   5   0  -3    5.90    1.50
   5   0  -3    5.10    2.60
   5   0  -3    7.10    1.50
   5   0  -3    4.10    1.40
   5   0  -3    4.60    2.10
   5   0  -3    4.60    1.10
  -5   0   3    5.40    1.80
  -5   0   3    6.10    2.20
  -5   0   3    4.70    1.00
  -5   0   3    5.60    2.30
   4   0  -3   66.69    4.70
   4   0  -3   68.69    5.40
   4   0  -3   62.59    3.50
   4   0  -3   64.69    4.80
   4   0  -3   62.99    5.40
   4   0  -3   58.29    3.40
   4   0  -3   68.09    3.80
  -4   0   3   61.79    4.10
  -4   0   3   67.39    5.00
  -4   0   3   73.89    3.50
  -4   0   3   71.79    4.70
   3   0  -3   19.60    2.30
   3   0  -3   21.50    2.80
  -3   0   3   17.50    3.30
  -3   0   3   19.70    2.30
  -3   0   3   20.90    1.40
  -3   0   3   22.80    3.10
   2   0  -3 2010.00   74.19
   2   0  -3 1881.31   74.29
   2   0  -3 1900.21   73.69
  -2   0   3 2030.80   72.19
  -2   0   3 1887.31   72.09
  -2   0   3 1783.32   72.09
  -2   0   3 1908.41   72.19
   1   0  -3  167.28    7.60
   1   0  -3  170.58    7.10
   1   0  -3  191.38    7.70
  -1   0   3  171.98    6.50
  -1   0   3  163.88    6.60
  -1   0   3  164.18    6.40
  -1   0   3  160.38    7.20
  -1   0   3  152.78    6.50
   0   0  -3  452.45   17.80
   0   0  -3  460.25   18.20
   0   0  -3  459.45   17.50
   0   0   3  463.05   18.00
   0   0   3  472.35   17.80
   0   0   3  478.55   18.00
   0   0   3  444.06   17.90
  -1   0  -3  354.06   13.40
  -1   0  -3  341.47   13.70
   1   0   3  375.36   14.30
   1   0   3  350.76   14.10
   1   0   3  367.26   14.30
  -2   0  -3  144.39    6.80
  -2   0  -3  167.48    6.50
  -2   0  -3  167.38    6.80
   2   0   3  167.68    7.20
   2   0   3  180.48    7.40
   2   0   3  175.58    7.50
   2   0   3  187.28    7.40
   2   0   3  170.58    7.10
  -3   0  -3 1360.26   50.99
  -3   0  -3 1338.07   50.99
  -3   0  -3 1290.17   50.99
   3   0   3 1374.66   52.49
   3   0   3 1395.56   52.69
   3   0   3 1287.57   52.69
   3   0   3 1397.06   52.49
   3   0   3 1361.36   52.19
   3   0   3 1379.56   52.19
  -4   0  -3   56.79    3.90
  -4   0  -3   60.39    4.10
  -4   0  -3   48.50    4.10
  -4   0  -3   52.89    3.20
  -4   0  -3   51.09    3.10
  -4   0  -3   51.49    3.50
  -4   0  -3   48.70    3.40
   4   0   3   58.49    5.70
   4   0   3   64.89    6.00
   4   0   3   56.29    3.40
   4   0   3   54.89    3.20
   4   0   3   53.19    3.10
   4   0   3   42.80    4.10
   4   0   3   60.59    3.60
   4   0   3   57.19    4.20
   4   0   3   50.79    3.80
   4   0   3   51.39    3.20
  -5   0  -3   28.90    3.10
  -5   0  -3   39.40    4.00
  -5   0  -3   36.90    3.30
  -5   0  -3   30.60    3.10
  -5   0  -3   34.00    3.30
  -5   0  -3   31.80    4.00
  -5   0  -3   34.10    2.70
   5   0   3   32.60    3.00
   5   0   3   36.70    3.30
   5   0   3   37.40    3.10
   5   0   3   33.60    3.60
  -6   0  -3  221.68   10.60
  -6   0  -3  233.88   11.50
  -6   0  -3  193.68   11.40
  -6   0  -3  230.88   10.20
  -6   0  -3  241.08   11.00
  -6   0  -3  227.68    9.70
  -6   0  -3  228.48   10.50
   6   0   3  259.37   10.90
   6   0   3  260.07   11.20
   6   0   3  227.98   17.40
   6   0   3  238.28   11.20
   6   0   3  259.17   11.30
  -7   0  -3   12.10    4.80
  -7   0  -3   10.30    1.80
  -7   0  -3   10.70    2.10
  -7   0  -3    7.70    2.20
   7   0   3    9.80    1.60
   7   0   3    9.50    2.00
   7   0   3   10.90    2.30
   8  -1  -3   32.40    2.20
  -8   1   3   30.30    2.50
  -8   1   3   27.50    3.30
   7  -1  -3  215.78    9.00
   7  -1  -3  244.28   10.20
   7  -1  -3  232.18    9.90
   7  -1  -3  227.88    9.50
   7  -1  -3  213.88   11.70
  -7   1   3  210.68    9.80
  -7   1   3  208.98   10.90
  -7   1   3  215.78    9.80
  -7   1   3  210.28    9.60
   6  -1  -3  483.25   21.90
   6  -1  -3  510.55   21.60
   6  -1  -3  500.65   20.20
   6  -1  -3  511.65   20.50
   6  -1  -3  493.95   20.60
   6  -1  -3  493.75   19.80
   6  -1  -3  486.55   19.60
   6  -1  -3  500.85   25.70
   6  -1  -3  485.05   19.90
  -6   1   3  427.36   18.10
  -6   1   3  466.05   18.30
  -6   1   3  427.76   18.60
   5  -1  -3  194.58    8.40
   5  -1  -3  192.68    8.70
   5  -1  -3  185.78    9.00
   5  -1  -3  190.98   12.20
   5  -1  -3  202.98   10.40
   5  -1  -3  201.98   10.10
   5  -1  -3  194.38    8.30
  -5   1   3  170.38    8.80
  -5   1   3  184.38    8.10
  -5   1   3  179.68    9.50
  -5   1   3  190.98    8.30
   4  -1  -3  431.76   19.20
   4  -1  -3  400.46   16.90
   4  -1  -3  386.86   16.20
   4  -1  -3  399.46   17.80
   4  -1  -3  394.86   18.00
   4  -1  -3  397.36   16.10
   4  -1  -3  407.66   16.50
   4  -1  -3  433.06   17.70
  -4   1   3  395.36   16.60
  -4   1   3  434.86   16.50
  -4   1   3  413.56   17.70
   3  -1  -3  426.16   18.60
   3  -1  -3  418.46   17.40
  -3   1   3  452.45   17.50
  -3   1   3  416.86   18.30
  -3   1   3  420.66   17.70
   2  -1  -3  561.84   21.70
   2  -1  -3  537.75   22.60
  -2   1   3  580.94   21.40
  -2   1   3  541.15   21.30
  -2   1   3  569.84   20.70
  -2   1   3  477.65   20.40
  -2   1   3  512.75   20.40
   1  -1  -3  191.88    8.90
   1  -1  -3  213.08    8.20
   1  -1  -3  202.08    8.40
  -1   1   3  193.58    8.30
  -1   1   3  197.78    8.00
  -1   1   3  193.98    7.70
  -1   1   3  194.98    7.70
   0  -1  -3  846.92   31.80
   0  -1  -3  825.12   32.20
   0   1   3  889.71   33.20
   0   1   3  882.31   33.80
   0   1   3  847.62   33.10
   0   1   3  868.41   33.20
  -1  -1  -3  553.74   20.80
  -1  -1  -3  526.05   20.80
  -1  -1  -3  548.15   21.10
   1   1   3  545.85   21.30
   1   1   3  557.14   21.50
   1   1   3  568.84   22.00
  -2  -1  -3 2351.76   94.49
  -2  -1  -3 2647.73   94.49
  -2  -1  -3 2476.65   94.59
   2   1   3 2565.44   98.79
   2   1   3 2686.13   99.09
   2   1   3 2557.94   99.39
   2   1   3 2584.14   98.99
   2   1   3 2644.54   99.29
  -3  -1  -3  183.18    7.70
  -3  -1  -3  180.68    8.60
  -3  -1  -3  199.48    8.50
  -3  -1  -3  172.18    7.90
   3   1   3  179.68    7.80
   3   1   3  211.78    8.60
   3   1   3  177.38    7.90
   3   1   3  197.88    8.00
   3   1   3  196.58    8.50
  -4  -1  -3  579.14   24.00
  -4  -1  -3  599.64   23.50
  -4  -1  -3  591.44   23.90
  -4  -1  -3  574.84   23.30
  -4  -1  -3  570.44   23.50
  -4  -1  -3  628.24   23.50
  -4  -1  -3  599.44   24.40
  -4  -1  -3  608.24   24.50
  -4  -1  -3  586.44   23.40
   4   1   3  659.13   24.20
   4   1   3  624.54   24.70
   4   1   3  625.54   24.20
   4   1   3  623.24   24.80
   4   1   3  624.94   24.30
   4   1   3  630.54   24.40
   4   1   3  568.44   24.90
   4   1   3  613.64   24.80
   4   1   3  605.74   25.40
  -5  -1  -3  448.76   18.90
  -5  -1  -3  436.76   17.70
  -5  -1  -3  414.66   17.60
  -5  -1  -3  440.06   17.70
  -5  -1  -3  423.56   17.40
  -5  -1  -3  440.86   18.20
  -5  -1  -3  419.26   17.70
   5   1   3  490.45   19.60
   5   1   3  476.65   19.40
   5   1   3  456.75   19.50
  -6  -1  -3  388.16   15.90
  -6  -1  -3  335.97   15.60
  -6  -1  -3  366.36   15.80
  -6  -1  -3  357.76   14.90
   6   1   3  401.26   17.10
   6   1   3  396.26   16.80
   6   1   3  419.76   17.10
  -7  -1  -3  366.76   15.50
  -7  -1  -3  328.47   15.10
  -7  -1  -3  376.86   15.90
  -7  -1  -3  370.06   14.70
  -7  -1  -3  359.36   16.20
   7   1   3  423.56   17.40
   7   1   3  414.36   17.10
   7   1   3  424.36   17.50
  -8  -1  -3  176.38    8.30
  -8  -1  -3  158.68    8.30
   8   1   3  182.38    7.80
   8   1   3  187.58    7.70
   8   1   3  171.68    7.50
   7  -2  -3  198.28    8.70
   7  -2  -3  182.68   10.20
   7  -2  -3  217.08    9.00
  -7   2   3  169.38    8.30
  -7   2   3  190.08    8.10
  -7   2   3  169.68    8.20
  -7   2   3  173.38    9.60
   6  -2  -3   49.00    5.20
   6  -2  -3   46.40   10.90
   6  -2  -3   58.39    4.80
   6  -2  -3   54.99    3.60
   6  -2  -3   44.00    3.40
   6  -2  -3   62.09    4.20
   6  -2  -3   52.49    3.60
  -6   2   3   49.50    5.50
  -6   2   3   49.50    3.80
  -6   2   3   50.39    3.70
  -6   2   3   49.90    4.50
  -6   2   3   42.30    3.90
   5  -2  -3  103.59    9.40
   5  -2  -3  108.79    5.50
   5  -2  -3   96.09    6.80
   5  -2  -3  106.79    6.50
   5  -2  -3  105.39    5.90
   5  -2  -3   93.09    5.20
   5  -2  -3  102.89    5.40
   5  -2  -3  109.09    4.80
  -5   2   3  100.19    4.90
  -5   2   3   91.69    5.20
  -5   2   3   98.59    5.20
  -5   2   3   86.79    6.20
   4  -2  -3   33.50    3.50
   4  -2  -3   25.80    3.80
   4  -2  -3   27.70    2.80
   4  -2  -3   26.30    4.50
  -4   2   3   55.59    2.90
   3  -2  -3  651.43   26.90
   3  -2  -3  667.43   26.50
   3  -2  -3  651.03   26.60
  -3   2   3  715.43   28.20
  -3   2   3  702.73   27.60
  -3   2   3  740.03   29.60
   2  -2  -3  926.71   36.00
   2  -2  -3  922.41   37.30
  -2   2   3  949.40   36.90
  -2   2   3  925.61   36.60
  -2   2   3  937.41   36.00
  -2   2   3  941.01   37.10
  -2   2   3  958.30   36.80
   1  -2  -3  829.42   33.10
  -1   2   3  845.92   32.50
  -1   2   3  866.11   33.20
  -1   2   3  817.22   33.10
  -1   2   3  878.91   33.00
   0  -2  -3 1709.83   64.79
   0   2   3 2012.00   73.99
   0   2   3 1951.40   73.59
   0   2   3 1836.22   73.19
  -1  -2  -3 1950.70   75.29
  -1  -2  -3 2026.50   75.99
   1   2   3 1855.21   73.89
   1   2   3 2064.19   74.79
   1   2   3 1938.21   74.29
  -2  -2  -3   42.90    2.00
  -2  -2  -3   43.40    2.00
  -2  -2  -3   42.90    2.50
  -2  -2  -3   45.40    2.70
   2   2   3   43.00    2.70
   2   2   3   44.70    2.50
  -3  -2  -3  238.48    9.40
  -3  -2  -3  206.08    9.60
  -3  -2  -3  211.88    8.40
  -3  -2  -3  204.68    8.20
  -3  -2  -3  177.28    8.90
   3   2   3  237.28    9.70
   3   2   3  212.38    8.90
   3   2   3  214.98    9.00
  -4  -2  -3  102.99    5.50
  -4  -2  -3  113.49    6.20
  -4  -2  -3  113.09    5.30
  -4  -2  -3  113.59    5.90
  -4  -2  -3  104.89    5.70
  -4  -2  -3  106.39    5.90
  -4  -2  -3  100.39    5.80
  -4  -2  -3  120.89    6.20
  -4  -2  -3  114.09    5.00
   4   2   3  119.89    5.80
   4   2   3  122.29    5.30
   4   2   3  111.39    6.20
   4   2   3  123.69    5.80
   4   2   3  123.29    5.30
   4   2   3  128.29    5.50
   4   2   3  112.19    6.90
   4   2   3  131.29    6.40
   4   2   3  106.49    6.00
  -5  -2  -3  618.34   24.60
  -5  -2  -3  608.54   24.80
  -5  -2  -3  612.14   24.80
  -5  -2  -3  625.74   25.40
  -5  -2  -3  617.14   26.00
  -5  -2  -3  640.54   24.60
  -5  -2  -3  622.34   25.90
   5   2   3  673.53   26.20
   5   2   3  636.74   26.30
   5   2   3  647.44   25.40
   5   2   3  660.43   27.00
   5   2   3  651.03   26.20
  -6  -2  -3  405.86   16.70
  -6  -2  -3  387.76   17.30
  -6  -2  -3  400.66   17.40
  -6  -2  -3  437.66   17.50
  -6  -2  -3  414.26   18.30
  -6  -2  -3  395.66   16.90
   6   2   3  447.16   18.90
   6   2   3  457.95   19.00
   6   2   3  465.95   18.80
  -7  -2  -3  149.88    7.90
  -7  -2  -3  145.89    7.50
  -7  -2  -3  152.28    8.50
  -7  -2  -3  139.79    6.70
   7   2   3  203.08    9.40
   7   2   3  150.08   17.50
   7   2   3  174.18    9.40
  -8  -2  -3   12.90    3.20
  -8  -2  -3   13.20    2.80
  -8  -2  -3   15.20    3.30
   8   2   3   23.30    2.00
   8   2   3   24.90    2.00
   8   2   3   24.00    2.30
   7  -3  -3   96.29    6.30
   7  -3  -3   99.99    4.80
  -7   3   3   90.09    4.60
  -7   3   3   73.79    6.20
  -7   3   3   89.39    5.20
  -7   3   3   89.79    5.00
   6  -3  -3  120.69    6.70
   6  -3  -3  154.98   14.80
   6  -3  -3  131.99    6.90
   6  -3  -3  138.89    8.10
   6  -3  -3  137.09    7.70
   6  -3  -3  124.29    7.20
  -6   3   3  127.39    8.20
  -6   3   3  134.59    6.70
  -6   3   3  135.49    6.70
   5  -3  -3  562.94   24.30
   5  -3  -3  558.94   22.70
   5  -3  -3  581.24   24.20
   5  -3  -3  581.74   22.60
   5  -3  -3  552.64   27.60
   5  -3  -3  545.95   21.80
   5  -3  -3  546.15   23.00
  -5   3   3  529.85   22.20
  -5   3   3  532.95   21.80
  -5   3   3  536.25   21.70
  -5   3   3  552.64   21.60
   4  -3  -3   20.90    2.70
   4  -3  -3   20.80    3.60
   4  -3  -3   16.70    2.50
   4  -3  -3   19.90    4.80
   4  -3  -3   14.30    2.30
   4  -3  -3   20.00    2.60
   4  -3  -3   21.20    3.30
  -4   3   3   17.60    3.00
  -4   3   3   22.80    2.20
  -4   3   3   20.60    1.70
   3  -3  -3  979.20   39.80
   3  -3  -3  929.61   37.10
   3  -3  -3 1011.90   37.40
   3  -3  -3  889.81   36.80
   3  -3  -3  971.60   38.00
   3  -3  -3  935.31   38.00
   3  -3  -3  903.21   36.80
  -3   3   3  971.80   36.80
  -3   3   3  958.90   36.40
  -3   3   3  900.21   36.10
   2  -3  -3  159.68    8.90
  -2   3   3  163.28    6.60
  -2   3   3  147.69    6.20
  -2   3   3  149.79    7.40
  -2   3   3  138.59    5.90
  -2   3   3  147.89    7.50
  -2   3   3  162.48    7.70
   1  -3  -3   81.69    5.30
  -1   3   3   78.59    4.10
  -1   3   3   79.99    3.30
  -1   3   3   78.89    4.60
  -1   3   3   78.09    4.20
   0  -3  -3 1623.04   60.49
   0  -3  -3 1516.85   59.49
   0   3   3 1395.56   58.99
   0   3   3 1602.14   57.79
   0   3   3 1526.95   57.29
   0   3   3 1518.75   57.29
  -1  -3  -3  529.85   20.10
  -1  -3  -3  516.85   20.90
   1   3   3  495.65   20.30
   1   3   3  551.54   20.90
   1   3   3  551.84   21.70
   1   3   3  526.15   20.30
  -2  -3  -3 1955.60   73.09
  -2  -3  -3 1816.92   74.09
  -2  -3  -3 1967.60   74.09
  -2  -3  -3 1968.30   74.09
   2   3   3 1804.72   72.49
   2   3   3 2007.80   72.99
  -3  -3  -3   89.89    5.30
  -3  -3  -3  102.69    5.10
  -3  -3  -3   98.59    5.10
  -3  -3  -3   96.69    4.10
   3   3   3  106.79    4.60
   3   3   3  103.49    4.90
   3   3   3  105.19    6.50
  -4  -3  -3  438.76   18.60
  -4  -3  -3  420.26   17.90
  -4  -3  -3  448.66   18.70
  -4  -3  -3  473.05   19.10
  -4  -3  -3  437.96   18.20
  -4  -3  -3  435.96   17.50
  -4  -3  -3  469.05   18.50
  -4  -3  -3  432.76   18.10
  -4  -3  -3  462.65   19.00
   4   3   3  442.96   18.50
   4   3   3  483.05   18.40
   4   3   3  479.95   19.30
   4   3   3  504.35   19.60
   4   3   3  429.16   19.10
   4   3   3  490.65   18.40
   4   3   3  453.05   18.80
   4   3   3  453.75   20.00
  -5  -3  -3  129.39    7.00
  -5  -3  -3  137.29    6.70
  -5  -3  -3  109.59    7.30
  -5  -3  -3  127.09    6.80
  -5  -3  -3  132.19    7.30
  -5  -3  -3  127.99    6.70
  -5  -3  -3  136.69    7.50
   5   3   3  145.29    6.80
   5   3   3  131.99    7.10
   5   3   3  129.89    6.40
   5   3   3  148.49    7.80
   5   3   3  141.79    6.20
   5   3   3  136.29    6.10
   5   3   3  139.99    6.10
  -6  -3  -3  292.67   12.60
  -6  -3  -3  282.37   11.90
  -6  -3  -3  278.27   13.80
  -6  -3  -3  277.07   12.60
  -6  -3  -3  257.57   12.20
  -6  -3  -3  288.07   13.50
   6   3   3  306.97   13.20
   6   3   3  303.47   13.10
   6   3   3  311.47   13.30
   6   3   3  298.17   12.20
   6   3   3  315.67   13.40
  -7  -3  -3    7.30    2.10
  -7  -3  -3    5.20    2.30
   7   3   3   11.50    2.40
   7   3   3    9.70    2.50
  -8  -3  -3   14.10    3.00
  -8  -3  -3   16.60    3.70
   8   3   3   18.80    2.00
   8   3   3   16.50    1.80
   8   3   3   14.20    2.30
   7  -4  -3   34.50    4.20
  -7   4   3   28.10    5.30
  -7   4   3   20.30    3.00
   6  -4  -3   75.29    5.60
   6  -4  -3   81.09    4.30
   6  -4  -3   78.09    4.20
   6  -4  -3   80.19    5.80
   6  -4  -3   78.19    4.90
  -6   4   3   71.39    4.50
  -6   4   3   78.49    5.70
  -6   4   3   69.39    6.90
  -6   4   3   72.99    4.50
   5  -4  -3  801.32   32.90
   5  -4  -3  772.52   41.90
   5  -4  -3  875.61   33.70
   5  -4  -3  858.81   33.10
   5  -4  -3  856.91   34.70
   5  -4  -3  863.01   34.80
  -5   4   3  791.42   31.40
  -5   4   3  767.82   32.90
  -5   4   3  816.72   31.50
  -5   4   3  813.72   31.40
   4  -4  -3    1.80    1.50
   4  -4  -3    0.90    1.10
   4  -4  -3    2.60    1.70
   4  -4  -3    1.00    3.00
   4  -4  -3   -0.30    1.40
   4  -4  -3   -0.10    1.40
   4  -4  -3   -0.70    1.50
  -4   4   3    1.60    1.30
  -4   4   3    3.30    1.60
  -4   4   3    3.10    1.00
   3  -4  -3 1170.08   44.20
   3  -4  -3  957.00   43.40
   3  -4  -3 1138.39   43.40
   3  -4  -3 1173.68   47.00
   3  -4  -3 1060.49   43.00
   3  -4  -3 1155.58   44.50
  -3   4   3 1004.10   42.50
  -3   4   3 1148.69   42.90
  -3   4   3 1138.09   42.00
   2  -4  -3  143.89    9.30
   2  -4  -3  151.68    7.90
   2  -4  -3  156.58    7.10
   2  -4  -3  160.58    9.30
   2  -4  -3  138.29    7.40
  -2   4   3  156.58    6.90
  -2   4   3  158.78    6.50
  -2   4   3  153.08    6.20
   1  -4  -3  914.21   38.20
   1  -4  -3  950.40   36.70
  -1   4   3  983.10   37.30
  -1   4   3  900.81   35.90
  -1   4   3  964.00   37.40
  -1   4   3  909.51   36.30
  -1   4   3  962.10   36.00
   0  -4  -3 1868.01   72.09
   0   4   3 1841.72   69.49
   0   4   3 1815.42   69.29
  -1  -4  -3  469.75   18.10
  -1  -4  -3  474.95   19.80
   1   4   3  530.15   20.70
   1   4   3  492.85   19.90
   1   4   3  530.05   20.10
  -2  -4  -3  764.22   29.20
  -2  -4  -3  761.32   28.20
  -2  -4  -3  743.33   29.60
  -2  -4  -3  682.23   29.40
   2   4   3  785.42   29.70
   2   4   3  758.92   28.90
   2   4   3  714.03   29.00
  -3  -4  -3  195.48    9.00
  -3  -4  -3  189.08    8.60
  -3  -4  -3  183.38    8.60
  -3  -4  -3  205.98    9.10
  -3  -4  -3  194.18    9.30
  -3  -4  -3  203.08    7.90
  -3  -4  -3  193.88    9.20
   3   4   3  205.28    8.40
   3   4   3  210.88    9.20
   3   4   3  192.18    8.30
  -4  -4  -3  382.26   15.70
  -4  -4  -3  373.96   17.10
  -4  -4  -3  353.36   14.80
  -4  -4  -3  356.16   15.60
  -4  -4  -3  358.66   15.20
  -4  -4  -3  324.37   14.60
  -4  -4  -3  354.76   14.90
  -4  -4  -3  324.87   14.70
   4   4   3  413.56   15.60
   4   4   3  385.66   15.60
   4   4   3  373.76   16.40
   4   4   3  407.56   16.80
   4   4   3  377.16   16.00
   4   4   3  389.46   15.70
  -5  -4  -3  180.58    9.60
  -5  -4  -3  189.18    9.70
  -5  -4  -3  179.38    8.60
  -5  -4  -3  190.28    9.00
   5   4   3  193.88    9.30
   5   4   3  187.78    8.50
   5   4   3  185.88    8.70
   5   4   3  197.18    9.20
   5   4   3  193.28    8.20
   5   4   3  199.68    8.30
   5   4   3  201.08    8.20
   5   4   3  191.78    9.80
  -6  -4  -3  426.36   18.20
  -6  -4  -3  457.35   20.10
  -6  -4  -3  457.45   19.10
  -6  -4  -3  466.75   19.00
   6   4   3  499.15   20.10
   6   4   3  489.15   20.10
   6   4   3  485.45   19.90
   6   4   3  474.55   19.10
   6   4   3  489.85   19.90
  -7  -4  -3   50.09    4.70
  -7  -4  -3   62.19    4.50
  -7  -4  -3   53.09    5.30
   7   4   3   52.19    5.10
   7   4   3   59.39    4.40
  -8  -4  -3    8.50    2.40
  -8  -4  -3   15.80    2.90
  -8  -4  -3   12.90    2.10
   8   4   3   16.10    2.10
   8   4   3   21.20    1.90
   6  -5  -3  140.79    7.70
   6  -5  -3  153.28    8.20
   6  -5  -3  148.89    7.10
  -6   5   3  140.79    6.70
  -6   5   3  135.49    6.40
  -6   5   3  129.09    7.60
   5  -5  -3   80.09    7.70
   5  -5  -3   95.99    5.70
   5  -5  -3   78.59   15.20
  -5   5   3   91.69    5.20
  -5   5   3   79.39    4.90
  -5   5   3   85.39    4.70
   4  -5  -3  337.67   15.60
   4  -5  -3  343.37   16.00
   4  -5  -3  339.57   14.70
   4  -5  -3  341.87   14.80
   4  -5  -3  345.67   20.50
  -4   5   3  316.37   13.40
  -4   5   3  324.87   13.20
   3  -5  -3   50.89    3.70
   3  -5  -3   57.89    7.20
   3  -5  -3   41.50    4.40
   3  -5  -3   46.90    4.00
  -3   5   3   43.30    3.40
  -3   5   3   44.10    2.50
  -3   5   3   42.50    3.10
   2  -5  -3  527.05   21.90
   2  -5  -3  525.65   21.40
   2  -5  -3  516.65   22.20
   2  -5  -3  524.65   21.20
   2  -5  -3  521.05   24.40
   2  -5  -3  523.45   20.70
   2  -5  -3  536.05   21.20
  -2   5   3  524.85   20.70
  -2   5   3  490.35   20.00
  -2   5   3  521.25   19.90
   1  -5  -3  558.84   23.10
   1  -5  -3  588.34   23.10
   1  -5  -3  599.04   23.10
   1  -5  -3  568.44   23.60
  -1   5   3  576.74   22.20
   0  -5  -3  624.44   25.40
   0  -5  -3  677.63   26.60
   0  -5  -3  633.24   25.50
   0   5   3  656.13   24.90
   0   5   3  638.54   25.30
  -1  -5  -3 1626.44   64.09
  -1  -5  -3 1723.03   64.69
  -1  -5  -3 1604.34   64.19
   1   5   3 1749.43   66.39
   1   5   3 1795.72   65.19
   1   5   3 1671.13   65.29
   1   5   3 1649.83   65.39
  -2  -5  -3  359.56   14.30
  -2  -5  -3  346.27   15.20
  -2  -5  -3  341.07   14.50
  -2  -5  -3  347.47   14.30
  -2  -5  -3  316.37   13.90
  -2  -5  -3  342.57   14.80
  -2  -5  -3  336.67   13.30
   2   5   3  372.26   15.40
   2   5   3  364.26   14.30
   2   5   3  348.07   14.30
  -3  -5  -3 1210.08   47.10
  -3  -5  -3 1247.48   46.40
  -3  -5  -3 1198.88   47.50
  -3  -5  -3 1246.58   47.80
  -3  -5  -3 1216.68   47.30
  -3  -5  -3 1194.98   47.20
  -3  -5  -3 1189.68   47.00
  -3  -5  -3 1198.98   48.50
  -3  -5  -3 1227.68   47.90
   3   5   3 1265.87   49.80
   3   5   3 1252.87   48.70
   3   5   3 1286.97   48.70
   3   5   3 1274.87   48.90
  -4  -5  -3  834.12   31.50
  -4  -5  -3  804.42   31.30
  -4  -5  -3  773.42   35.30
  -4  -5  -3  724.53   32.00
  -4  -5  -3  812.92   32.30
  -4  -5  -3  786.72   31.60
   4   5   3  862.51   32.90
   4   5   3  856.21   33.00
   4   5   3  877.51   34.40
   4   5   3  796.42   33.80
  -5  -5  -3  310.67   13.10
  -5  -5  -3  306.97   13.30
  -5  -5  -3  308.87   14.50
  -5  -5  -3  310.27   13.70
  -5  -5  -3  276.87   13.90
  -5  -5  -3  327.87   14.60
   5   5   3  329.07   13.50
   5   5   3  334.97   14.00
   5   5   3  332.47   15.40
   5   5   3  341.87   14.40
   5   5   3  335.37   13.60
  -6  -5  -3   35.40    3.30
  -6  -5  -3   32.70    3.60
  -6  -5  -3   32.60    4.70
  -6  -5  -3   37.00    5.10
  -6  -5  -3   38.70    4.90
   6   5   3   32.70    3.30
   6   5   3   39.60    3.40
   6   5   3   33.00    2.80
   6   5   3   35.60    2.30
   6   5   3   41.30    5.30
  -7  -5  -3   25.80    3.50
  -7  -5  -3   29.90    4.60
  -7  -5  -3   31.60    3.20
   7   5   3   34.80    3.00
   7   5   3   33.80    3.10
   7   5   3   36.50    2.80
  -8  -5  -3  179.78    9.50
  -8  -5  -3  212.88   10.30
  -8  -5  -3  202.28    8.80
   8   5   3  210.88    9.70
   8   5   3  230.58    9.50
   8   5   3  232.98    9.40
   8   5   3  227.28   10.30
   5  -6  -3   91.39    5.20
   5  -6  -3   92.69    5.90
   5  -6  -3   99.89    6.10
  -5   6   3   84.59    4.90
  -5   6   3   88.69    5.00
  -5   6   3   98.89    5.10
   4  -6  -3    4.00    1.20
   4  -6  -3   -6.90    7.30
   4  -6  -3    3.10    1.50
   4  -6  -3    4.20    1.60
  -4   6   3    8.70    1.90
  -4   6   3    6.70    1.50
   3  -6  -3  121.69    7.00
   3  -6  -3  120.99    7.50
   3  -6  -3  130.99    6.50
   3  -6  -3  124.19    6.50
   3  -6  -3  119.39    6.20
  -3   6   3  119.69    5.40
  -3   6   3  117.69    5.70
  -3   6   3  115.89    7.20
   2  -6  -3  132.29    6.50
   2  -6  -3  135.39    6.70
   2  -6  -3  129.69    7.60
   2  -6  -3  121.69    6.40
   2  -6  -3  132.99    7.20
   2  -6  -3  127.89    6.60
  -2   6   3  120.69    5.50
  -2   6   3  122.49    5.70
  -2   6   3  121.29    6.50
   1  -6  -3  590.44   23.90
   1  -6  -3  613.84   24.70
   1  -6  -3  628.64   24.60
   1  -6  -3  621.74   24.70
  -1   6   3  608.54   22.90
  -1   6   3  611.04   23.00
  -1   6   3  548.25   23.70
   0  -6  -3  159.18    7.40
   0  -6  -3  182.98    8.00
   0  -6  -3  153.78    9.20
   0  -6  -3  167.38    7.90
   0  -6  -3  172.68    8.60
   0   6   3  183.38    8.40
   0   6   3  186.98    7.50
   0   6   3  175.48    7.70
  -1  -6  -3  798.02   31.20
  -1  -6  -3  767.92   32.00
  -1  -6  -3  811.32   31.20
  -1  -6  -3  847.02   32.10
  -1  -6  -3  768.42   33.00
  -1  -6  -3  761.92   31.50
   1   6   3  861.11   32.90
   1   6   3  847.12   34.10
   1   6   3  847.42   32.80
  -2  -6  -3  444.76   17.80
  -2  -6  -3  423.36   18.00
  -2  -6  -3  433.16   17.40
  -2  -6  -3  424.96   18.40
  -2  -6  -3  432.06   17.60
  -2  -6  -3  425.46   17.90
   2   6   3  473.65   18.40
   2   6   3  441.56   18.70
   2   6   3  490.45   19.80
   2   6   3  467.55   18.50
  -3  -6  -3  786.02   30.10
  -3  -6  -3  766.92   31.30
  -3  -6  -3  745.33   30.80
  -3  -6  -3  781.62   30.30
  -3  -6  -3  742.03   30.40
  -3  -6  -3  770.02   30.10
  -3  -6  -3  750.12   30.60
   3   6   3  823.62   31.80
   3   6   3  833.22   33.00
   3   6   3  804.32   31.50
   3   6   3  787.72   31.50
  -4  -6  -3  243.68   11.00
  -4  -6  -3  241.18   11.50
  -4  -6  -3  245.98   11.40
  -4  -6  -3  259.67   12.00
  -4  -6  -3  255.27   12.20
  -4  -6  -3  262.87   11.00
   4   6   3  281.47   11.00
   4   6   3  269.67   10.90
   4   6   3  232.38   11.40
   4   6   3  263.87   10.90
   4   6   3  269.27   12.60
  -5  -6  -3  408.76   18.10
  -5  -6  -3  397.16   16.80
  -5  -6  -3  387.66   17.00
  -5  -6  -3  406.76   17.20
   5   6   3  439.76   17.00
   5   6   3  419.06   17.10
   5   6   3  423.16   17.70
   5   6   3  429.46   16.90
   5   6   3  428.66   17.70
   5   6   3  413.26   17.20
   5   6   3  410.66   18.90
  -6  -6  -3  222.18   12.80
  -6  -6  -3  253.87   11.40
  -6  -6  -3  256.47   11.20
  -6  -6  -3  264.37   12.80
  -6  -6  -3  248.28   11.40
   6   6   3  254.37   14.10
   6   6   3  266.87   11.20
   6   6   3  291.47   12.10
   6   6   3  277.97   12.00
   6   6   3  273.17   11.10
   6   6   3  276.87   11.60
  -7  -6  -3  154.68    8.70
  -7  -6  -3  153.28    7.50
  -7  -6  -3  156.38    7.70
   7   6   3  168.88    7.90
   7   6   3  167.08    7.80
   7   6   3  177.58    7.70
  -8  -6  -3   66.79    5.00
  -8  -6  -3   68.29    3.70
   8   6   3   81.89    3.90
   8   6   3   69.99    4.00
   8   6   3   85.29    3.80
   5  -7  -3   18.70    2.70
   5  -7  -3   22.50    2.30
   5  -7  -3   24.30    2.90
  -5   7   3   14.10    2.50
  -5   7   3   18.20    2.90
   4  -7  -3  138.69    7.70
   4  -7  -3  140.79    7.90
   4  -7  -3  142.19    7.20
  -4   7   3  132.89    6.50
  -4   7   3  136.79    6.50
  -4   7   3  137.19    6.50
   3  -7  -3    3.20    1.50
   3  -7  -3    5.20    2.00
   3  -7  -3    6.80    1.80
  -3   7   3    4.80    1.20
  -3   7   3    3.80    1.40
  -3   7   3    3.30    2.00
   2  -7  -3   13.40    2.30
   2  -7  -3    7.40    1.70
   2  -7  -3   14.70    2.50
   2  -7  -3   10.90    3.00
   2  -7  -3    8.40    1.90
   2  -7  -3   14.50    2.90
  -2   7   3   15.50    2.90
  -2   7   3   11.40    2.10
  -2   7   3   11.90    1.60
   1  -7  -3  338.57   14.30
   1  -7  -3  326.57   14.00
   1  -7  -3  327.37   13.40
   1  -7  -3  333.77   15.00
   1  -7  -3  329.77   14.10
   1  -7  -3  339.97   15.50
  -1   7   3  316.57   12.70
  -1   7   3  316.57   13.30
  -1   7   3  308.97   12.70
   0  -7  -3   69.59    4.10
   0  -7  -3   66.09    3.70
   0  -7  -3   64.89    4.20
   0  -7  -3   66.29    4.00
   0  -7  -3   67.69    4.50
   0  -7  -3   70.19    4.70
   0   7   3   65.69    3.80
   0   7   3   66.19    3.50
   0   7   3   60.39    4.40
   0   7   3   73.19    5.10
  -1  -7  -3   49.70    3.40
  -1  -7  -3   54.49    3.80
  -1  -7  -3   55.89    3.60
  -1  -7  -3   54.99    3.50
   1   7   3   49.70    3.50
   1   7   3   48.80    4.10
   1   7   3   49.20    2.90
   1   7   3   54.59    2.80
  -2  -7  -3  112.69    5.80
  -2  -7  -3  112.49    6.80
  -2  -7  -3  112.79    5.60
  -2  -7  -3  106.09    5.40
  -2  -7  -3  105.19    5.50
   2   7   3  113.19    6.60
   2   7   3  114.09    5.00
   2   7   3  110.19    5.10
   2   7   3  101.99    6.10
  -3  -7  -3  350.46   14.60
  -3  -7  -3  362.66   14.70
  -3  -7  -3  354.56   15.90
  -3  -7  -3  332.27   14.60
  -3  -7  -3  345.77   15.20
  -3  -7  -3  354.76   14.90
  -3  -7  -3  353.56   15.00
   3   7   3  404.86   15.10
   3   7   3  360.56   16.70
   3   7   3  365.46   15.00
   3   7   3  369.76   15.00
   3   7   3  355.76   15.60
  -4  -7  -3  290.87   13.70
  -4  -7  -3  276.77   12.10
  -4  -7  -3  294.07   12.40
  -4  -7  -3  289.27   12.60
  -4  -7  -3  269.17   12.60
  -4  -7  -3  269.57   13.40
  -4  -7  -3  288.17   12.30
   4   7   3  303.57   12.10
   4   7   3  282.87   12.80
   4   7   3  296.57   12.10
   4   7   3  294.17   12.20
  -5  -7  -3  229.18   10.00
  -5  -7  -3  216.58   10.20
  -5  -7  -3  211.48   11.60
  -5  -7  -3  213.38   10.20
  -5  -7  -3  221.38   11.40
   5   7   3  217.68   12.20
   5   7   3  245.18    9.80
   5   7   3  242.28   10.60
   5   7   3  247.08    9.90
   5   7   3  234.88   10.00
   5   7   3  217.98   10.50
   5   7   3  233.48   10.20
  -6  -7  -3   61.29    5.00
  -6  -7  -3   53.39    5.30
  -6  -7  -3   60.69    3.90
  -6  -7  -3   46.60    5.40
   6   7   3   62.09    3.90
   6   7   3   67.59    3.90
   6   7   3   73.29    4.50
   6   7   3   61.79    4.30
  -7  -7  -3   12.40    2.30
  -7  -7  -3   13.30    2.70
   7   7   3   12.30    2.10
   7   7   3   13.40    2.30
   7   7   3   11.60    2.00
   4  -8  -3   89.09    5.10
   4  -8  -3   92.19    5.30
   4  -8  -3   85.39    4.50
  -4   8   3   81.19    4.50
  -4   8   3   83.59    4.70
   3  -8  -3   80.19    5.40
   3  -8  -3   87.99    4.90
   3  -8  -3   78.49    5.30
  -3   8   3   73.79    4.20
  -3   8   3   76.89    4.20
  -3   8   3   85.79    4.90
  -3   8   3   78.69    4.30
   2  -8  -3   21.70    3.30
   2  -8  -3   23.50    4.90
   2  -8  -3   25.60    2.90
   2  -8  -3   24.00    3.70
  -2   8   3   28.10    2.40
  -2   8   3   34.50    3.00
  -2   8   3   28.80    2.40
   1  -8  -3  819.62   31.00
   1  -8  -3  793.22   31.80
   1  -8  -3  745.03   30.60
   1  -8  -3  759.52   30.70
   1  -8  -3  773.02   32.10
   1  -8  -3  745.83   29.80
  -1   8   3  763.52   28.50
  -1   8   3  744.23   28.50
  -1   8   3  727.13   28.50
  -1   8   3  679.33   30.70
   0  -8  -3  152.38    7.60
   0  -8  -3  158.08    7.40
   0  -8  -3  144.19    6.70
   0  -8  -3  153.68    7.40
   0  -8  -3  153.58    8.10
   0   8   3  149.59    6.60
   0   8   3  141.19    9.60
   0   8   3  137.89    6.60
   0   8   3  158.98    6.60
  -1  -8  -3  917.31   36.50
  -1  -8  -3  925.01   35.70
  -1  -8  -3  881.51   35.40
  -1  -8  -3  918.41   35.50
  -1  -8  -3  871.31   35.30
  -1  -8  -3  889.41   35.50
   1   8   3  940.91   34.90
   1   8   3  823.92   35.00
   1   8   3  891.61   37.10
   1   8   3  935.31   34.90
  -2  -8  -3  129.69    6.30
  -2  -8  -3  125.69    6.70
  -2  -8  -3  125.59    6.40
  -2  -8  -3  125.49    6.30
  -2  -8  -3  129.29    6.30
   2   8   3  120.29    6.70
   2   8   3  132.19    6.00
   2   8   3  126.39    6.00
   2   8   3  134.99    8.10
   2   8   3  136.49    6.00
  -3  -8  -3   21.40    2.50
  -3  -8  -3   18.60    2.40
  -3  -8  -3   20.70    3.50
  -3  -8  -3   20.60    2.50
  -3  -8  -3   16.10    2.30
  -3  -8  -3   19.20    2.30
   3   8   3   20.60    3.00
   3   8   3   22.80    2.00
   3   8   3   21.00    1.90
   3   8   3   18.70    2.00
  -4  -8  -3  100.39    6.80
  -4  -8  -3   89.99    5.50
  -4  -8  -3   94.99    5.10
  -4  -8  -3   98.59    5.30
  -4  -8  -3   93.79    5.10
   4   8   3   98.39    4.80
   4   8   3   96.49    7.90
   4   8   3  100.09    4.90
   4   8   3   98.39    4.80
   4   8   3   98.79    5.50
  -5  -8  -3  307.27   14.50
  -5  -8  -3  308.17   13.00
  -5  -8  -3  313.07   13.80
  -5  -8  -3  288.77   13.30
  -5  -8  -3  293.37   12.80
   5   8   3  319.07   13.20
   5   8   3  314.67   12.90
   5   8   3  313.47   12.90
   5   8   3  328.57   13.60
  -6  -8  -3  113.69    5.50
  -6  -8  -3  112.29    7.10
  -6  -8  -3  112.19    5.70
   6   8   3  117.69    5.40
   6   8   3  134.29    6.60
   6   8   3  129.69    6.30
  -7  -8  -3  181.88    8.20
  -7  -8  -3  203.48    8.50
  -7  -8  -3  194.88    9.50
   7   8   3  218.28    9.30
   7   8   3  218.98   10.50
   3  -9  -3  344.37   15.10
   3  -9  -3  278.07   13.60
   3  -9  -3  322.57   13.60
  -3   9   3  299.27   11.90
  -3   9   3  283.37   11.90
   2  -9  -3   83.69    5.30
   2  -9  -3   81.29    4.50
   2  -9  -3   80.19    5.20
  -2   9   3   78.39    4.10
  -2   9   3   78.89    4.10
  -2   9   3   79.49    4.30
  -2   9   3   77.59    4.30
   1  -9  -3   43.50    3.40
   1  -9  -3   50.99    4.00
   1  -9  -3   45.70    4.20
   1  -9  -3   45.30    3.60
   1  -9  -3   40.10    3.10
  -1   9   3   41.60    2.80
  -1   9   3   43.10    4.40
  -1   9   3   46.20    3.20
   0  -9  -3   19.40    2.70
   0  -9  -3   20.60    3.30
   0  -9  -3   28.40    4.20
   0  -9  -3   26.80    2.20
   0  -9  -3   28.90    5.30
   0   9   3   30.40    3.20
   0   9   3   24.50    2.20
   0   9   3   23.80    2.10
   0   9   3   24.00    2.90
  -1  -9  -3 1020.70   39.90
  -1  -9  -3 1001.10   39.30
  -1  -9  -3 1022.80   40.80
  -1  -9  -3 1037.00   39.90
  -1  -9  -3  998.70   40.80
  -1  -9  -3 1014.60   39.70
   1   9   3 1007.40   37.70
   1   9   3 1008.80   37.70
   1   9   3  821.52   40.30
   1   9   3 1015.20   37.70
   1   9   3 1004.90   37.90
  -2  -9  -3   47.10    3.30
  -2  -9  -3   49.80    3.70
  -2  -9  -3   45.60    3.10
  -2  -9  -3   44.70    3.80
  -2  -9  -3   39.80    3.10
   2   9   3   43.90    2.70
   2   9   3   35.00    7.20
   2   9   3   44.00    2.80
   2   9   3   43.90    2.90
  -3  -9  -3 1154.58   42.90
  -3  -9  -3 1054.79   42.70
  -3  -9  -3 1082.99   42.70
   3   9   3 1074.79   42.40
   3   9   3 1092.19   42.50
   3   9   3 1125.39   42.40
  -4  -9  -3   48.10    3.40
  -4  -9  -3   39.50    4.60
  -4  -9  -3   41.50    3.40
  -4  -9  -3   43.90    3.70
  -4  -9  -3   37.50    3.40
   4   9   3   45.10    2.80
   4   9   3   44.10    3.30
   4   9   3   42.00    2.90
  -5  -9  -3  358.96   14.50
  -5  -9  -3  361.46   15.80
  -5  -9  -3  345.17   14.20
  -5  -9  -3  319.37   14.30
   5   9   3  326.97   14.60
   5   9   3  350.56   14.10
   5   9   3  373.26   14.60
   5   9   3  361.26   14.00
  -6  -9  -3   33.70    2.70
  -6  -9  -3   32.20    3.40
   6   9   3   35.20    2.50
   6   9   3   36.30    2.40
   1 -10  -3   30.00    4.60
   1 -10  -3   39.20    3.20
   1 -10  -3   37.90    3.20
  -1  10   3   36.30    2.60
  -1  10   3   39.30    2.40
   0 -10  -3   12.20    2.40
   0 -10  -3   14.30    2.30
   0 -10  -3   11.30    2.30
   0 -10  -3   11.60    2.40
   0  10   3    7.50    1.30
   0  10   3   12.80    2.10
   0  10   3    8.30    1.50
  -1 -10  -3   51.09    3.60
  -1 -10  -3   49.10    3.20
  -1 -10  -3   50.89    4.10
  -1 -10  -3   54.19    3.90
  -1 -10  -3   47.00    2.80
  -1 -10  -3   49.10    3.50
   1  10   3   52.79    3.20
   1  10   3   52.39    3.00
   1  10   3   56.09    3.40
   1  10   3   53.59    3.10
  -2 -10  -3  180.08    8.20
  -2 -10  -3  180.68    8.00
  -2 -10  -3  192.98    9.00
  -2 -10  -3  178.38    7.60
  -2 -10  -3  167.08    8.80
  -2 -10  -3  175.68    8.10
   2  10   3  190.08    7.90
   2  10   3  178.28    8.00
   2  10   3  186.48    7.90
   2  10   3  185.88    8.10
  -3 -10  -3  152.78    7.20
  -3 -10  -3  150.28    7.10
  -3 -10  -3  158.38    6.90
  -3 -10  -3  151.98    7.80
   3  10   3  167.28    6.90
   3  10   3  156.88    7.10
   3  10   3  157.88    6.90
   3  10   3  159.88    7.20
  -4 -10  -3   31.60    3.40
  -4 -10  -3   37.60    2.70
  -4 -10  -3   43.60    3.30
   4  10   3   39.30    2.70
   4  10   3   38.70    2.60
   4  10   3   41.20    2.30
   4  10   3   39.00    3.40
   4  10   3   38.80    3.50
  -5 -10  -3  100.49    4.90
   5  10   3  104.39    4.80
   5  10   3   98.49    4.60
   5  10   3   94.69    4.20
  -2 -11  -3   28.20    2.50
  -2 -11  -3   28.40    2.80
   2  11   3   24.20    2.20
   2  11   3   25.80    2.10
   2  11   3   25.30    1.70
  -3 -11  -3   78.49    4.30
   3  11   3   81.79    4.10
   3  11   3   93.29    3.80
   3  11   3   81.29    4.20
   4   8  -4   73.99    3.70
   4   8  -4   77.59    3.80
  -4  -8   4   78.69    4.20
  -4  -8   4   78.09    4.30
  -4  -8   4   75.29    4.00
   3   8  -4    8.20    1.80
   3   8  -4    8.70    1.40
  -3  -8   4   10.50    1.90
  -3  -8   4   13.50    2.00
  -3  -8   4    8.10    1.50
   2   8  -4   30.40    2.70
   2   8  -4   27.70    2.10
  -2  -8   4   32.00    2.80
  -2  -8   4   32.50    2.70
  -2  -8   4   31.60    2.80
   1   8  -4   12.50    2.30
   1   8  -4    8.70    1.50
   1   8  -4    8.70    1.10
  -1  -8   4   11.40    1.80
  -1  -8   4    8.90    2.00
  -1  -8   4   12.60    2.00
   0   8  -4  152.38    6.70
   0   8  -4  154.68    6.40
   0   8  -4  142.89    8.60
   0  -8   4  162.38    7.20
   0  -8   4  163.68    7.30
   0  -8   4  164.38    7.10
   6   7  -4   82.99    4.00
   6   7  -4   81.89    3.90
  -6  -7   4   73.79    4.40
  -6  -7   4   72.99    3.90
   5   7  -4   26.50    2.20
   5   7  -4   27.10    2.10
   5   7  -4   25.90    2.20
  -5  -7   4   18.50    3.80
  -5  -7   4   25.00    2.70
  -5  -7   4   29.50    2.70
   4   7  -4  139.19    6.40
   4   7  -4  142.49    6.50
   4   7  -4  137.89    6.40
  -4  -7   4  130.89    7.00
  -4  -7   4  139.79    6.80
  -4  -7   4  137.99    6.80
   3   7  -4  243.28   10.30
   3   7  -4  238.68   10.30
   3   7  -4  233.48   10.20
  -3  -7   4  219.08   10.30
  -3  -7   4  238.38   10.50
  -3  -7   4  231.48   10.40
   2   7  -4    4.30    1.30
   2   7  -4    6.70    1.60
   2   7  -4    3.60    1.20
   2   7  -4    3.00    1.80
  -2  -7   4    3.80    1.40
  -2  -7   4    4.00    1.60
  -2  -7   4    5.10    1.50
   1   7  -4   47.60    3.20
   1   7  -4   53.29    3.90
   1   7  -4   56.59    3.40
  -1  -7   4   53.69    3.90
  -1  -7   4   57.19    3.80
  -1  -7   4   59.59    4.00
   0   7  -4   70.19    3.70
   0   7  -4   65.19    3.60
   0   7  -4   63.99    4.30
   0   7  -4   64.59    4.10
   0  -7   4   72.49    4.30
   0  -7   4   58.79    6.10
   0  -7   4   67.69    4.20
   0  -7   4   66.39    4.00
  -1   7  -4   19.70    1.90
  -1   7  -4   21.00    3.10
  -1   7  -4   14.20    2.10
  -1   7  -4   16.60    2.50
   1  -7   4   22.10    2.40
   1  -7   4   21.00    2.80
   1  -7   4   17.90    2.00
  -2   7  -4  129.49    5.60
  -2   7  -4  125.59    6.10
   2  -7   4  134.09    5.90
   2  -7   4  135.79    6.20
   2  -7   4  122.09    6.50
   7   6  -4   20.40    1.50
   7   6  -4   17.90    1.70
   7   6  -4   16.10    2.40
   7   6  -4   20.40    1.80
  -7  -6   4   19.10    2.10
  -7  -6   4   26.70    4.30
   6   6  -4    1.80    1.00
   6   6  -4    2.00    0.70
  -6  -6   4    1.40    1.10
   5   6  -4  365.56   14.30
   5   6  -4  343.57   14.00
   5   6  -4  323.97   14.00
   5   6  -4  344.27   14.40
  -5  -6   4  329.67   14.10
  -5  -6   4  326.07   14.50
  -5  -6   4  317.87   13.60
   4   6  -4  141.89    6.60
   4   6  -4  141.49    6.80
   4   6  -4  144.49    6.60
  -4  -6   4  132.49    6.00
  -4  -6   4  128.79    6.30
  -4  -6   4  140.29    7.10
  -4  -6   4  135.09    7.40
  -4  -6   4  139.19    7.00
   3   6  -4  150.68    7.10
   3   6  -4  149.99    7.20
   3   6  -4  160.18    7.20
  -3  -6   4  159.58    8.00
  -3  -6   4  154.58    8.00
  -3  -6   4  156.88    6.80
  -3  -6   4  156.48    7.90
   2   6  -4  412.56   16.60
   2   6  -4  400.86   16.60
   2   6  -4  403.86   16.60
   2   6  -4  394.56   16.40
  -2  -6   4  392.06   16.20
  -2  -6   4  397.16   18.00
  -2  -6   4  432.86   17.40
  -2  -6   4  409.56   17.50
  -2  -6   4  421.56   17.40
   1   6  -4  208.78    9.10
   1   6  -4  195.98    8.40
   1   6  -4  206.78    9.00
   1   6  -4  201.78    9.20
   1   6  -4  208.18    9.10
  -1  -6   4  213.68    9.80
  -1  -6   4  214.38    9.90
  -1  -6   4  212.68    9.70
  -1  -6   4  200.28   10.40
   0   6  -4  189.78    8.30
   0   6  -4  196.18    7.80
   0   6  -4  182.38    9.70
   0   6  -4  188.28    8.50
   0   6  -4  191.88    8.30
   0   6  -4  162.28    8.70
   0  -6   4  194.38    9.00
   0  -6   4  208.18    9.40
   0  -6   4  185.18   10.20
   0  -6   4  186.58    8.90
  -1   6  -4  197.08    8.50
  -1   6  -4  182.48    9.30
  -1   6  -4  192.98    8.70
   1  -6   4  202.08    9.80
   1  -6   4  225.58    9.60
  -2   6  -4   82.59    5.80
  -2   6  -4   77.19    4.20
  -2   6  -4   76.69    3.80
   2  -6   4   89.19    4.70
   2  -6   4   90.89    7.60
   2  -6   4   81.39    5.00
   2  -6   4   75.69    4.80
  -3   6  -4  156.28    6.70
  -3   6  -4  150.28    6.30
  -3   6  -4  149.09    7.00
   3  -6   4  174.18    7.70
   3  -6   4  176.28    8.10
   3  -6   4  171.68    8.40
   7   5  -4  111.09    5.00
   7   5  -4  109.39    5.10
   7   5  -4  112.29    4.90
   7   5  -4  106.79    5.10
  -7  -5   4  100.29    4.60
  -7  -5   4   99.19    5.30
   6   5  -4  192.98    8.70
   6   5  -4  195.58    8.40
   6   5  -4  189.28    8.40
   6   5  -4  196.78    8.40
  -6  -5   4  156.78    7.80
  -6  -5   4  171.28    8.20
  -6  -5   4  165.28    7.50
  -6  -5   4  182.68    7.60
   5   5  -4  157.78    7.50
   5   5  -4  168.18    7.20
   5   5  -4  149.79    7.10
   5   5  -4  158.98    7.20
  -5  -5   4  150.18    6.90
  -5  -5   4  147.09    6.70
  -5  -5   4  153.98    6.90
  -5  -5   4  124.19   10.70
  -5  -5   4  146.69    7.70
  -5  -5   4  150.18    8.40
   4   5  -4   91.79    5.00
   4   5  -4   98.09    5.10
   4   5  -4  109.89    5.40
   4   5  -4   96.69    5.00
  -4  -5   4   91.99    5.70
  -4  -5   4   79.09    7.50
  -4  -5   4   89.39    6.20
  -4  -5   4   90.29    4.80
  -4  -5   4   91.09    4.80
  -4  -5   4  102.39    5.10
   3   5  -4  392.46   15.80
   3   5  -4  387.06   15.90
   3   5  -4  377.16   15.80
   3   5  -4  373.96   15.70
  -3  -5   4  365.86   14.80
  -3  -5   4  385.26   15.00
  -3  -5   4  362.56   14.80
  -3  -5   4  341.47   15.80
  -3  -5   4  354.26   17.60
  -3  -5   4  364.56   15.90
  -3  -5   4  371.56   15.70
   2   5  -4  260.47   10.70
   2   5  -4  245.98   10.80
   2   5  -4  238.38   10.00
   2   5  -4  258.47   10.70
   2   5  -4  238.48   10.60
  -2  -5   4  244.88    9.90
  -2  -5   4  245.08   11.10
  -2  -5   4  229.58   11.00
  -2  -5   4  238.68    9.90
  -2  -5   4  240.28   10.90
  -2  -5   4  212.28   12.30
  -2  -5   4  241.78   11.00
   1   5  -4   30.50    2.50
   1   5  -4   38.00    3.20
   1   5  -4   38.90    3.20
   1   5  -4   31.60    2.90
   1   5  -4   31.40    2.40
   1   5  -4   35.80    2.80
   1   5  -4   34.90    3.60
  -1  -5   4   28.40    3.70
  -1  -5   4   33.10    3.10
  -1  -5   4   28.20    3.30
  -1  -5   4   31.80    3.60
  -1  -5   4   31.50    2.60
  -1  -5   4   30.50    2.30
   0   5  -4  165.78    7.70
   0   5  -4  162.88    7.50
   0   5  -4  173.98    7.70
   0   5  -4  173.28    7.90
   0   5  -4  169.48    7.30
   0   5  -4  170.78   10.30
   0  -5   4  169.08    8.10
   0  -5   4  168.58    8.60
   0  -5   4  169.28    8.20
   0  -5   4  160.18    7.10
   0  -5   4  169.18    8.20
  -1   5  -4   72.19    6.90
  -1   5  -4   60.49    3.70
  -1   5  -4   64.69    4.00
  -1   5  -4   50.89    4.30
  -1   5  -4   56.59    3.60
  -1   5  -4   62.19    3.30
  -1   5  -4   57.29    3.70
   1  -5   4   55.09    4.30
   1  -5   4   64.89    4.40
   1  -5   4   62.39    4.00
   1  -5   4   63.49    4.40
   1  -5   4   56.69    4.90
  -2   5  -4  294.97   11.40
  -2   5  -4  272.17   12.10
  -2   5  -4  242.48   14.20
  -2   5  -4  277.37   11.60
  -2   5  -4  273.77   11.60
  -2   5  -4  270.37   12.10
  -2   5  -4  295.97   11.80
   2  -5   4  283.07   12.50
   2  -5   4  297.87   12.40
   2  -5   4  263.17   14.20
   2  -5   4  313.47   12.90
   2  -5   4  268.57   12.40
  -3   5  -4  150.78    6.80
  -3   5  -4  131.79    6.90
  -3   5  -4  144.79    6.30
  -3   5  -4  140.59    8.00
   3  -5   4  142.59    8.10
   3  -5   4  141.69    7.30
   3  -5   4  135.99    7.00
   3  -5   4  150.08    6.90
   3  -5   4  136.39   11.70
  -4   5  -4  402.36   16.40
  -4   5  -4  401.76   15.90
  -4   5  -4  394.16   15.60
   4  -5   4  455.95   17.70
   4  -5   4  456.25   18.00
   4  -5   4  401.26   17.50
   7   4  -4  215.48    9.60
   7   4  -4  235.98    9.60
   7   4  -4  230.48    9.50
   7   4  -4  224.88    9.40
  -7  -4   4  198.48    8.40
  -7  -4   4  181.98    8.70
  -7  -4   4  187.38    9.00
  -7  -4   4  198.98    8.60
   6   4  -4   43.00    3.30
   6   4  -4   39.70    2.70
   6   4  -4   47.40    2.70
  -6  -4   4   38.60    3.10
  -6  -4   4   38.70    3.20
  -6  -4   4   36.40    3.70
  -6  -4   4   36.00    3.40
   5   4  -4  247.88   10.70
   5   4  -4  241.88   12.50
   5   4  -4  245.28   10.30
   5   4  -4  236.98   10.30
  -5  -4   4  211.88   12.50
  -5  -4   4  226.58   10.80
  -5  -4   4  225.88    9.80
  -5  -4   4  224.48   10.00
   4   4  -4   56.89    3.30
   4   4  -4   56.69    3.50
   4   4  -4   54.69    3.50
   4   4  -4   47.30    5.20
   4   4  -4   58.09    3.30
  -4  -4   4   51.29    4.50
  -4  -4   4   56.19    5.70
  -4  -4   4   46.00    3.60
  -4  -4   4   51.79    3.40
  -4  -4   4   55.29    3.70
   3   4  -4  229.38   10.10
   3   4  -4  231.88   10.00
   3   4  -4  236.78    9.90
   3   4  -4  237.98   10.00
  -3  -4   4  225.18   11.60
  -3  -4   4  222.08   10.30
  -3  -4   4  226.18    9.60
  -3  -4   4  232.28   10.70
  -3  -4   4  234.38    9.90
  -3  -4   4  211.08   10.90
   2   4  -4  128.89    7.80
  -2  -4   4  131.99    7.70
  -2  -4   4  125.89    6.70
  -2  -4   4  147.19   10.20
  -2  -4   4  126.39    7.00
  -2  -4   4  130.09    6.80
  -2  -4   4  141.89    6.10
  -2  -4   4  136.99    6.00
   1   4  -4  388.56   16.00
   1   4  -4  365.86   15.20
   1   4  -4  371.16   14.90
   1   4  -4  368.36   15.30
   1   4  -4  373.36   14.80
  -1  -4   4  375.26   15.80
  -1  -4   4  327.17   17.50
  -1  -4   4  351.26   16.20
  -1  -4   4  369.16   15.70
  -1  -4   4  364.66   15.60
  -1  -4   4  388.56   14.70
  -1  -4   4  380.56   14.90
  -1  -4   4  375.66   14.70
  -1  -4   4  367.76   15.70
   0   4  -4  397.56   18.50
   0   4  -4  451.05   17.70
   0   4  -4  451.35   18.00
   0   4  -4  460.25   18.80
   0   4  -4  462.35   17.70
   0  -4   4  474.35   18.20
   0  -4   4  461.75   18.20
   0  -4   4  470.05   19.40
   0  -4   4  384.06   19.40
   0  -4   4  470.55   19.00
   0  -4   4  489.55   19.30
   0  -4   4  457.75   19.30
  -1   4  -4  186.08    8.40
  -1   4  -4  201.88    8.40
  -1   4  -4  193.58    8.20
  -1   4  -4  198.18    8.70
  -1   4  -4  191.88    8.70
  -1   4  -4  192.38    8.50
  -1   4  -4  197.58    9.50
   1  -4   4  202.48    9.40
   1  -4   4  195.48    8.40
   1  -4   4  199.38    9.70
   1  -4   4  207.68    9.60
   1  -4   4  206.48    9.20
   1  -4   4  204.28    9.30
   1  -4   4  195.78    9.50
  -2   4  -4  752.12   29.30
  -2   4  -4  734.83   28.80
  -2   4  -4  724.93   28.80
  -2   4  -4  733.13   28.90
  -2   4  -4  724.43   30.10
  -2   4  -4  757.62   28.70
  -2   4  -4  704.63   28.80
   2  -4   4  763.62   31.10
   2  -4   4  830.82   31.10
   2  -4   4  808.72   31.10
   2  -4   4  741.73   31.60
   2  -4   4  722.53   32.90
   2  -4   4  794.52   31.40
  -3   4  -4  208.18   11.30
  -3   4  -4  221.98   10.40
  -3   4  -4  220.18    9.80
  -3   4  -4  224.38   10.10
  -3   4  -4  236.78    9.80
  -3   4  -4  228.28    9.40
   3  -4   4  233.58   11.80
   3  -4   4  235.88   11.30
   3  -4   4  260.07   10.60
   3  -4   4  238.78   10.80
   3  -4   4  192.78   11.70
  -4   4  -4   21.50    2.80
  -4   4  -4   25.00    2.50
  -4   4  -4   29.10    3.50
  -4   4  -4   27.80    2.80
   4  -4   4   27.30    3.20
   4  -4   4   27.50    3.80
   4  -4   4   32.40    3.10
  -5   4  -4   53.39    3.40
  -5   4  -4   51.19    3.30
  -5   4  -4   54.79    2.90
   5  -4   4   58.29    3.60
   5  -4   4   49.99    3.20
   5  -4   4   55.29    3.60
   8   3  -4   15.60    1.80
   8   3  -4   14.90    2.20
   8   3  -4   17.50    1.50
   8   3  -4   16.40    1.40
  -8  -3   4   10.70    2.10
  -8  -3   4   13.50    1.80
  -8  -3   4   12.70    1.90
   7   3  -4   85.39    4.70
   7   3  -4   91.69    4.20
   7   3  -4   86.29    4.40
   7   3  -4   84.69    4.60
  -7  -3   4   80.59    4.80
  -7  -3   4   83.89    4.80
   6   3  -4  600.04   24.40
   6   3  -4  629.64   24.40
   6   3  -4  616.14   24.70
   6   3  -4  600.54   26.40
   6   3  -4  641.84   24.80
  -6  -3   4  561.64   23.60
  -6  -3   4  613.14   24.40
  -6  -3   4  539.35   26.20
  -6  -3   4  600.64   23.60
   5   3  -4   77.89    4.40
   5   3  -4   63.39    6.50
   5   3  -4   77.79    4.00
   5   3  -4   78.99    4.40
   5   3  -4   74.39    3.90
  -5  -3   4   73.29    4.60
  -5  -3   4   71.29    6.20
  -5  -3   4   78.79    4.70
  -5  -3   4   68.79    4.80
   4   3  -4  493.75   22.00
   4   3  -4  496.55   20.30
   4   3  -4  505.75   20.40
   4   3  -4  505.65   20.00
   4   3  -4  497.55   20.10
   4   3  -4  516.45   20.00
  -4  -3   4  503.05   22.10
  -4  -3   4  497.25   20.20
  -4  -3   4  482.95   20.20
   3   3  -4   71.19    5.80
   3   3  -4   87.09    4.50
   3   3  -4   82.59    4.10
   3   3  -4   93.29    4.50
  -3  -3   4   86.59    5.80
  -3  -3   4   81.49    4.60
  -3  -3   4   88.49    4.90
  -3  -3   4   80.89    6.60
  -3  -3   4   82.89    4.20
   2   3  -4  115.39    5.50
   2   3  -4  117.19    5.30
   2   3  -4  109.99    5.40
   2   3  -4  114.69    6.90
   2   3  -4  114.69    5.40
   2   3  -4  102.99    7.10
   2   3  -4  124.69    6.50
  -2  -3   4  112.09    6.00
  -2  -3   4  117.39    5.80
  -2  -3   4  120.59    6.90
  -2  -3   4  117.99    6.70
  -2  -3   4  127.69    5.50
  -2  -3   4  116.69    5.90
  -2  -3   4  126.19    5.80
   1   3  -4  139.69    6.30
   1   3  -4  128.19    5.80
   1   3  -4  120.89    5.60
   1   3  -4  123.79    5.70
   1   3  -4  127.59    5.80
   1   3  -4  122.79    6.10
   1   3  -4  122.99    7.90
  -1  -3   4  126.39    5.60
  -1  -3   4  126.69    7.20
  -1  -3   4  131.69    5.70
  -1  -3   4  136.99    6.40
  -1  -3   4  126.29    7.60
  -1  -3   4  129.59    6.20
  -1  -3   4  123.59    6.10
   0   3  -4  915.81   35.10
   0   3  -4  919.31   34.50
   0   3  -4  888.01   34.50
   0   3  -4  889.71   34.40
   0   3  -4  884.71   35.00
   0   3  -4  866.71   34.70
   0   3  -4  878.51   34.90
   0   3  -4  909.81   35.40
   0  -3   4  918.51   36.10
   0  -3   4  911.21   36.10
   0  -3   4  900.41   36.10
   0  -3   4  954.20   35.40
   0  -3   4  896.61   36.10
   0  -3   4  943.91   35.40
   0  -3   4  899.21   36.30
   0  -3   4  905.01   35.50
  -1   3  -4   90.49    4.40
  -1   3  -4   92.99    5.00
  -1   3  -4   92.09    4.60
  -1   3  -4   90.89    4.80
  -1   3  -4   91.29    4.30
  -1   3  -4   89.39    4.70
   1  -3   4  101.79    5.40
   1  -3   4   95.09    4.60
   1  -3   4   98.59    5.40
   1  -3   4  109.69    6.30
   1  -3   4   96.19    5.30
   1  -3   4  103.49    5.40
   1  -3   4   91.39    4.50
  -2   3  -4  210.98    8.80
  -2   3  -4  210.08    8.90
  -2   3  -4  201.78    8.80
  -2   3  -4  213.48    9.10
  -2   3  -4  202.78    9.20
  -2   3  -4  205.88    9.70
   2  -3   4  227.78   10.40
   2  -3   4  228.48   10.40
   2  -3   4  213.18    9.40
   2  -3   4  221.38   10.10
   2  -3   4  233.08   10.10
   2  -3   4  215.88   10.30
   2  -3   4  224.28   10.30
  -3   3  -4  273.67   12.20
  -3   3  -4  288.37   11.40
  -3   3  -4  268.57   11.60
  -3   3  -4  268.67   11.70
  -3   3  -4  277.77   11.60
   3  -3   4  297.27   13.00
   3  -3   4  292.47   13.10
   3  -3   4  280.37   13.20
   3  -3   4  281.37   12.70
   3  -3   4  294.57   12.60
  -4   3  -4  147.19    7.10
  -4   3  -4  154.78    8.00
  -4   3  -4  157.78    7.40
  -4   3  -4  150.98    7.70
  -4   3  -4  153.58    7.80
  -4   3  -4  165.18    7.00
   4  -3   4  169.68    8.10
   4  -3   4  160.78    8.20
   4  -3   4  174.88    8.50
  -5   3  -4  120.49    5.70
  -5   3  -4  119.99    6.60
  -5   3  -4  131.89    6.50
  -5   3  -4  132.19    6.10
  -5   3  -4  128.59    7.80
  -5   3  -4  127.89    7.60
   5  -3   4  148.49    7.00
   5  -3   4  142.29    7.10
   5  -3   4  137.49    7.10
  -6   3  -4   11.10    5.60
  -6   3  -4   20.40    2.00
   6  -3   4   21.60    1.90
   6  -3   4   20.80    2.50
   6  -3   4   18.40    2.10
   8   2  -4  214.68    9.00
   8   2  -4  210.18    8.80
   8   2  -4  215.58    8.80
  -8  -2   4  186.38    8.00
  -8  -2   4  184.58    8.30
   7   2  -4    2.70    0.80
   7   2  -4   -1.60    2.10
   7   2  -4    1.80    1.10
   7   2  -4    1.20    1.00
   7   2  -4    1.10    1.00
  -7  -2   4    2.10    1.70
  -7  -2   4    1.20    1.50
  -7  -2   4    1.80    1.70
   6   2  -4  495.35   21.10
   6   2  -4  519.35   20.70
   6   2  -4  541.45   20.90
   6   2  -4  532.95   23.30
   6   2  -4  520.05   21.10
  -6  -2   4  446.46   19.40
  -6  -2   4  431.96   23.20
  -6  -2   4  500.15   19.60
  -6  -2   4  502.35   19.80
   5   2  -4  683.13   27.80
   5   2  -4  703.33   28.20
   5   2  -4  720.03   27.90
   5   2  -4  722.53   30.20
   5   2  -4  716.93   29.40
   5   2  -4  716.33   28.20
  -5  -2   4  673.33   27.20
  -5  -2   4  670.73   27.20
  -5  -2   4  677.83   29.30
  -5  -2   4  689.33   27.40
   4   2  -4 1558.24   59.19
   4   2  -4 1473.15   58.19
   4   2  -4 1437.86   56.99
   4   2  -4 1430.56   56.99
   4   2  -4 1512.95   57.29
   4   2  -4 1504.15   58.99
  -4  -2   4 1475.25   58.79
  -4  -2   4 1492.25   57.09
  -4  -2   4 1453.05   56.99
   3   2  -4  556.24   24.60
   3   2  -4  594.34   23.10
   3   2  -4  539.35   22.80
   3   2  -4  582.14   22.80
   3   2  -4  608.44   23.00
   3   2  -4  585.94   23.10
   3   2  -4  592.04   24.70
   3   2  -4  601.44   23.30
  -3  -2   4  641.34   25.60
  -3  -2   4  583.34   24.20
  -3  -2   4  611.44   24.10
  -3  -2   4  553.14   24.60
  -3  -2   4  634.14   24.00
  -3  -2   4  627.54   24.10
   2   2  -4 3193.38  119.49
   2   2  -4 3079.79  117.59
   2   2  -4 3091.99  117.89
   2   2  -4 3033.80  117.39
   2   2  -4 3090.69  119.09
   2   2  -4 3089.59  117.89
  -2  -2   4 3145.09  119.49
  -2  -2   4 3152.88  119.69
  -2  -2   4 3178.58  119.29
  -2  -2   4 3149.98  119.79
  -2  -2   4 3136.19  120.89
  -2  -2   4 3103.99  119.79
   1   2  -4 3109.59  117.59
   1   2  -4 3160.68  116.49
   1   2  -4 3005.80  115.59
   1   2  -4 2926.61  115.59
  -1  -2   4 2988.00  108.69
  -1  -2   4 2485.75  108.79
  -1  -2   4 3011.50  108.19
  -1  -2   4 2905.11  107.99
   0   2  -4 1759.92   65.59
   0   2  -4 1750.22   66.29
   0   2  -4 1652.33   65.49
   0  -2   4 1710.93   64.69
   0  -2   4 1673.93   65.29
   0  -2   4 1710.73   64.69
   0  -2   4 1695.03   65.29
  -1   2  -4  923.21   35.10
  -1   2  -4  942.61   35.50
  -1   2  -4  899.91   34.90
  -1   2  -4  822.92   34.90
  -1   2  -4  984.90   35.40
  -1   2  -4  859.51   34.70
  -1   2  -4  870.41   34.60
   1  -2   4  942.31   38.20
   1  -2   4  937.61   37.50
   1  -2   4  967.90   37.30
   1  -2   4 1040.10   38.60
   1  -2   4  988.00   38.00
   1  -2   4  992.00   38.00
   1  -2   4  928.51   37.80
  -2   2  -4  771.02   35.60
  -2   2  -4  850.41   34.20
  -2   2  -4  856.01   33.60
  -2   2  -4  874.31   33.80
  -2   2  -4  876.61   34.00
  -2   2  -4  910.71   34.60
  -2   2  -4  884.21   33.70
  -2   2  -4  950.10   33.80
   2  -2   4  940.01   36.50
   2  -2   4  903.41   36.20
   2  -2   4  891.21   38.60
   2  -2   4  958.90   37.90
   2  -2   4  942.91   36.40
   2  -2   4  946.51   35.60
   2  -2   4  926.71   35.60
   2  -2   4  950.70   35.70
   2  -2   4  867.41   36.80
   2  -2   4  897.51   36.30
  -3   2  -4  502.15   20.40
  -3   2  -4  511.25   20.40
  -3   2  -4  508.95   20.40
  -3   2  -4  515.15   21.20
  -3   2  -4  515.55   20.20
   3  -2   4  486.55   24.90
   3  -2   4  563.14   22.50
   3  -2   4  551.64   22.30
   3  -2   4  556.14   22.60
   3  -2   4  555.34   21.70
   3  -2   4  551.24   22.50
   3  -2   4  545.55   24.90
   3  -2   4  571.94   22.60
  -4   2  -4  591.24   22.80
  -4   2  -4  589.04   23.50
  -4   2  -4  583.74   23.50
  -4   2  -4  550.24   22.90
  -4   2  -4  560.44   22.80
  -4   2  -4  547.45   23.70
  -4   2  -4  576.34   22.60
   4  -2   4  593.84   24.00
   4  -2   4  598.24   23.80
   4  -2   4  570.24   23.60
   4  -2   4  550.54   23.90
   4  -2   4  569.64   28.20
   4  -2   4  611.84   24.00
  -5   2  -4  220.28   10.10
  -5   2  -4  228.28    9.70
  -5   2  -4  223.08    9.40
  -5   2  -4  247.78   12.40
  -5   2  -4  219.28    9.80
  -5   2  -4  189.78   12.00
  -5   2  -4  214.98   10.90
   5  -2   4  250.67   11.10
   5  -2   4  232.08   10.80
   5  -2   4  245.68   11.10
  -6   2  -4   34.30    4.50
  -6   2  -4   39.20    2.60
  -6   2  -4   36.00    3.00
   6  -2   4   37.80    3.30
   6  -2   4   42.70    3.10
   6  -2   4   41.10    3.30
   8   1  -4   30.90    5.10
   8   1  -4   27.20    2.20
   8   1  -4   30.30    2.00
  -8  -1   4   24.50    3.00
  -8  -1   4   25.10    2.50
   7   1  -4   80.69    4.50
   7   1  -4   83.59    7.20
   7   1  -4   80.19    3.90
   7   1  -4   87.29    4.40
   7   1  -4   85.19    4.60
  -7  -1   4   77.39    4.80
  -7  -1   4   78.79    5.00
  -7  -1   4   77.19    4.90
   6   1  -4  221.58   10.20
   6   1  -4  227.88    9.60
   6   1  -4  238.18    9.90
  -6  -1   4  187.38   11.50
  -6  -1   4  196.18   10.60
  -6  -1   4  201.58    9.50
  -6  -1   4  225.78    9.60
   5   1  -4   91.69    4.60
   5   1  -4   98.39    5.20
   5   1  -4   94.79    4.80
   5   1  -4   95.29    5.00
   5   1  -4  105.09    8.60
  -5  -1   4   93.39    6.60
  -5  -1   4   86.99    5.30
  -5  -1   4   97.69    5.10
  -5  -1   4   94.19    6.00
   4   1  -4   91.49    4.70
   4   1  -4  101.99    7.40
   4   1  -4  104.39    6.60
   4   1  -4   98.89    6.30
   4   1  -4   96.29    4.50
   4   1  -4  104.09    5.00
   4   1  -4   88.29    6.80
   4   1  -4   94.69    6.80
  -4  -1   4   95.49    7.70
  -4  -1   4  102.29    5.40
  -4  -1   4  106.39    6.40
  -4  -1   4   95.79    4.90
   3   1  -4    9.00    2.00
   3   1  -4   11.10    1.50
   3   1  -4    8.90    2.10
   3   1  -4    7.50    1.80
   3   1  -4    7.90    1.30
   3   1  -4   12.10    2.00
  -3  -1   4    8.30    1.90
  -3  -1   4    9.40    1.80
  -3  -1   4    8.50    1.30
   2   1  -4  750.72   30.70
   2   1  -4  775.92   29.70
  -2  -1   4  764.12   29.80
  -2  -1   4  801.22   29.60
  -2  -1   4  734.43   30.00
  -2  -1   4  770.72   29.80
  -2  -1   4  774.62   29.80
   1   1  -4 1525.15   59.59
   1   1  -4 1514.25   61.69
   1   1  -4 1670.13   60.29
  -1  -1   4 1590.84   61.99
  -1  -1   4 1599.14   61.79
  -1  -1   4 1610.44   61.99
  -1  -1   4 1659.23   61.69
  -1  -1   4 1645.84   61.99
   0   1  -4  486.05   20.50
   0   1  -4  501.85   19.10
   0   1  -4  500.15   19.70
   0  -1   4  469.55   18.60
   0  -1   4  471.15   18.80
   0  -1   4  500.35   19.10
   0  -1   4  487.35   19.10
  -1   1  -4 1002.50   40.30
  -1   1  -4 1095.29   40.80
  -1   1  -4 1008.10   40.20
  -1   1  -4 1100.39   40.20
   1  -1   4 1130.69   41.90
   1  -1   4 1082.69   41.90
   1  -1   4 1141.99   42.30
   1  -1   4 1015.60   43.30
  -2   1  -4   61.59    3.40
  -2   1  -4   54.89    2.90
  -2   1  -4   54.29    4.30
  -2   1  -4   56.09    3.50
  -2   1  -4   59.49    3.30
  -2   1  -4   53.29    3.90
   2  -1   4   61.69    3.50
   2  -1   4   67.09    3.70
   2  -1   4   66.69    3.20
   2  -1   4   67.99    3.50
   2  -1   4   61.99    4.60
   2  -1   4   61.69    4.20
   2  -1   4   70.79    3.30
  -3   1  -4  340.37   13.50
  -3   1  -4  325.47   13.50
  -3   1  -4  354.46   13.60
  -3   1  -4  326.27   14.00
  -3   1  -4  365.36   14.20
  -3   1  -4  278.67   14.20
   3  -1   4  373.96   15.40
   3  -1   4  352.86   15.50
   3  -1   4  393.16   15.10
   3  -1   4  367.36   14.80
   3  -1   4  355.36   15.60
   3  -1   4  374.46   15.40
   3  -1   4  364.96   15.60
   3  -1   4  380.16   14.80
  -4   1  -4   42.90    3.40
  -4   1  -4   32.10    3.60
  -4   1  -4   34.00    2.70
  -4   1  -4   40.90    3.30
  -4   1  -4   36.20    2.90
  -4   1  -4   36.90    3.10
  -4   1  -4   39.80    3.10
   4  -1   4   42.10    3.60
   4  -1   4   40.40    3.40
   4  -1   4   37.30    3.40
   4  -1   4   37.70    3.70
   4  -1   4   43.60    3.50
   4  -1   4   41.80    3.00
   4  -1   4   37.90    3.50
  -5   1  -4  151.68    7.90
  -5   1  -4  159.38    8.70
  -5   1  -4  157.58    8.10
  -5   1  -4  162.38    7.80
  -5   1  -4  166.98    8.00
  -5   1  -4  162.68    7.10
  -5   1  -4  147.39    8.40
  -5   1  -4  156.08    7.50
   5  -1   4  176.18    8.20
   5  -1   4  180.38    8.70
   5  -1   4  177.08   14.40
   5  -1   4  173.08    8.60
   5  -1   4  175.48    8.50
  -6   1  -4   71.59    5.90
  -6   1  -4   75.29    5.60
  -6   1  -4   71.89    5.40
  -6   1  -4   80.39    4.90
  -6   1  -4   78.09    4.00
  -6   1  -4   69.59    6.90
   6  -1   4   76.49    4.80
   6  -1   4   79.39    5.00
   6  -1   4   75.59    4.60
   6  -1   4   71.59    4.70
  -7   1  -4   14.90    2.00
   7  -1   4   20.70    2.20
   7  -1   4   18.70    1.90
   8   0  -4   36.20    4.70
   8   0  -4   26.30    2.20
  -8   0   4   24.00    2.50
  -8   0   4   27.60    3.10
   7   0  -4   14.30    2.10
   7   0  -4   10.70    2.20
   7   0  -4   12.80    1.50
  -7   0   4    9.30    1.90
  -7   0   4   14.00    2.70
  -7   0   4    9.20    2.00
   6   0  -4   86.79    4.20
   6   0  -4   90.59    4.60
   6   0  -4   99.99    7.10
   6   0  -4   86.99    4.90
   6   0  -4   76.79   11.50
  -6   0   4   80.49    4.80
  -6   0   4   79.79    7.30
  -6   0   4   90.99    5.40
  -6   0   4   73.19    5.60
   5   0  -4   56.69    3.70
   5   0  -4   58.19    3.20
   5   0  -4   59.39    5.50
   5   0  -4   71.09    5.00
   5   0  -4   62.09    6.90
   5   0  -4   60.79    3.80
   5   0  -4   60.79    3.40
  -5   0   4   54.09    5.10
  -5   0   4   52.59    4.80
  -5   0   4   51.19    5.40
  -5   0   4   53.79    3.90
   4   0  -4  224.98   13.40
   4   0  -4  245.08   12.20
   4   0  -4  225.98    9.50
   4   0  -4  240.28    9.80
   4   0  -4  232.18   10.20
   4   0  -4  234.48   11.00
  -4   0   4  233.08   10.30
  -4   0   4  248.08   11.50
  -4   0   4  237.58   14.10
  -4   0   4  231.58    9.90
   3   0  -4  108.49    5.50
   3   0  -4  115.99    6.20
   3   0  -4  115.19    7.10
   3   0  -4  115.59    5.90
   3   0  -4  119.69    6.70
   3   0  -4  114.79    5.40
  -3   0   4  116.39    5.10
  -3   0   4  101.29    6.10
  -3   0   4  123.69    6.30
   2   0  -4 2704.33  105.59
   2   0  -4 2697.53  104.79
   2   0  -4 2856.51  105.69
  -2   0   4 2794.92  105.29
  -2   0   4 2694.73  104.59
  -2   0   4 2782.82  104.69
   1   0  -4  476.65   19.30
   1   0  -4  469.45   18.20
  -1   0   4  459.25   19.00
  -1   0   4  481.85   18.70
  -1   0   4  497.55   18.70
  -1   0   4  478.65   18.50
   0   0  -4   98.69    5.20
   0   0  -4  119.59    4.40
   0   0  -4   99.79    4.70
   0   0   4  120.69    4.70
   0   0   4  102.39    4.40
   0   0   4   96.19    4.40
  -1   0  -4   23.30    1.40
  -1   0  -4   25.00    1.80
   1   0   4   25.60    1.80
   1   0   4   24.60    1.70
   1   0   4   28.00    1.70
  -2   0  -4  518.25   19.80
  -2   0  -4  464.05   19.50
  -2   0  -4  512.45   19.30
  -2   0  -4  497.75   19.50
   2   0   4  531.85   20.20
   2   0   4  523.55   20.40
   2   0   4  456.05   21.20
   2   0   4  564.24   20.60
  -3   0  -4  359.26   15.90
  -3   0  -4  403.76   15.90
  -3   0  -4  396.86   15.60
  -3   0  -4  392.96   15.70
  -3   0  -4  390.16   15.80
  -3   0  -4  381.56   16.20
  -3   0  -4  419.56   15.70
  -3   0  -4  373.66   15.40
   3   0   4  407.86   17.10
   3   0   4  443.66   17.30
   3   0   4  434.56   16.90
   3   0   4  410.66   17.80
   3   0   4  452.55   16.90
   3   0   4  434.26   17.30
   3   0   4  422.46   17.50
   3   0   4  405.86   17.60
  -4   0  -4   84.89    4.60
  -4   0  -4   83.99    4.90
  -4   0  -4   82.99    5.00
  -4   0  -4   81.09    4.90
  -4   0  -4   84.29    5.50
  -4   0  -4   77.99    4.40
  -4   0  -4   91.39    4.70
   4   0   4   89.19    4.40
   4   0   4   84.59    4.70
   4   0   4   89.09    5.70
   4   0   4   88.29    4.40
   4   0   4   91.09    5.10
   4   0   4   85.89    4.60
   4   0   4   89.99    7.20
   4   0   4   88.89    4.50
  -5   0  -4   70.69    4.70
  -5   0  -4   68.49    4.50
  -5   0  -4   61.99    4.90
  -5   0  -4   77.09    4.90
  -5   0  -4   66.99    3.90
  -5   0  -4   71.99    4.50
  -5   0  -4   65.39    5.20
   5   0   4   79.49    4.90
   5   0   4   77.99    4.60
   5   0   4   86.99    5.30
   5   0   4   71.39    4.70
  -6   0  -4   34.80    5.60
  -6   0  -4   39.80    4.50
  -6   0  -4   40.90    3.40
  -6   0  -4   31.40    2.70
  -6   0  -4   33.80    5.30
   6   0   4   41.30    3.40
   6   0   4   49.70    3.70
   6   0   4   37.70    4.00
  -7   0  -4    8.60    2.30
  -7   0  -4   13.70    2.30
  -7   0  -4   10.70    2.80
   7   0   4   13.20    2.50
   7   0   4   10.50    2.20
   7   0   4   14.40    2.00
   8  -1  -4   50.19    4.80
   8  -1  -4   45.80    2.70
  -8   1   4   37.10    3.30
  -8   1   4   32.60    2.70
  -7   1   4   52.99    4.40
  -7   1   4   55.19    4.20
  -7   1   4   50.99    7.50
  -7   1   4   52.19    3.90
   6  -1  -4  433.66   18.00
   6  -1  -4  444.06   19.10
   6  -1  -4  442.26   18.60
   6  -1  -4  465.55   18.90
   6  -1  -4  537.25   29.30
   6  -1  -4  494.55   20.40
   6  -1  -4  435.26   20.60
   6  -1  -4  454.25   18.50
   6  -1  -4  459.15   19.00
  -6   1   4  413.96   17.30
  -6   1   4  403.66   17.20
  -6   1   4  421.96   17.30
  -6   1   4  420.26   18.60
   5  -1  -4   45.00    2.90
   5  -1  -4   36.40    2.90
   5  -1  -4   39.60    4.60
   5  -1  -4   38.20    6.60
   5  -1  -4   36.20    2.70
   5  -1  -4   40.50    4.00
   5  -1  -4   38.00    2.90
   5  -1  -4   40.60    2.40
   5  -1  -4   42.70    3.70
  -5   1   4   35.70    5.10
  -5   1   4   41.90    4.50
  -5   1   4   41.10    3.60
  -5   1   4   45.60    3.10
   4  -1  -4   72.89    4.30
   4  -1  -4   80.39    6.00
   4  -1  -4   66.69    4.80
   4  -1  -4   72.89    3.90
   4  -1  -4   79.39    3.80
   4  -1  -4   83.79    6.60
  -4   1   4   73.19    4.90
  -4   1   4   72.69    3.60
   3  -1  -4  335.17   15.40
   3  -1  -4  334.07   14.20
   3  -1  -4  333.27   14.90
   3  -1  -4  330.37   13.70
   3  -1  -4  330.77   13.70
  -3   1   4  348.47   15.20
  -3   1   4  339.07   13.70
  -3   1   4  364.16   15.10
   2  -1  -4  216.28   10.00
   2  -1  -4  229.48   10.50
   2  -1  -4  215.78    9.20
  -2   1   4  230.78    8.60
  -2   1   4  212.48    8.60
  -2   1   4  205.98    8.50
  -2   1   4  219.78   10.00
   1  -1  -4 1721.43   66.19
  -1   1   4 1713.23   64.39
  -1   1   4 1740.63   65.69
  -1   1   4 1765.02   64.89
  -1   1   4 1632.34   64.39
  -1   1   4 1659.93   64.69
   0  -1  -4 1688.03   66.59
   0  -1  -4 1785.32   65.89
   0   1   4 1749.12   67.29
   0   1   4 1832.92   67.49
   0   1   4 1780.82   67.59
   0   1   4 1699.93   67.39
   0   1   4 1821.22   68.39
  -1  -1  -4 1612.74   62.99
  -1  -1  -4 1671.13   62.59
  -1  -1  -4 1642.54   62.39
   1   1   4 1691.23   64.69
   1   1   4 1803.22   65.19
   1   1   4 1671.73   64.99
   1   1   4 1677.93   64.89
   1   1   4 1702.43   65.89
  -2  -1  -4  627.04   24.20
  -2  -1  -4  627.64   24.40
   2   1   4  646.74   26.10
   2   1   4  628.04   25.30
   2   1   4  660.03   25.60
   2   1   4  651.03   25.20
   2   1   4  684.13   25.50
  -3  -1  -4  458.15   17.80
  -3  -1  -4  467.45   17.80
  -3  -1  -4  446.16   18.10
  -3  -1  -4  429.66   17.90
  -3  -1  -4  440.86   18.40
  -3  -1  -4  456.65   17.60
  -3  -1  -4  428.06   17.90
   3   1   4  479.45   19.60
   3   1   4  484.05   19.30
   3   1   4  512.85   19.50
   3   1   4  515.45   19.50
   3   1   4  471.65   19.80
   3   1   4  494.95   19.80
   3   1   4  488.35   19.20
   3   1   4  469.75   19.30
  -4  -1  -4  401.56   17.00
  -4  -1  -4  397.06   16.40
  -4  -1  -4  391.86   16.40
  -4  -1  -4  415.36   17.30
  -4  -1  -4  388.46   17.20
  -4  -1  -4  434.86   17.50
  -4  -1  -4  401.16   16.40
   4   1   4  383.76   17.70
   4   1   4  441.46   16.80
   4   1   4  414.86   17.40
   4   1   4  429.16   16.70
   4   1   4  431.16   16.80
   4   1   4  424.66   17.00
   4   1   4  429.76   17.10
   4   1   4  406.16   17.70
  -5  -1  -4  253.17   10.90
  -5  -1  -4  233.98   11.00
  -5  -1  -4  250.37   11.20
  -5  -1  -4  263.37   11.50
  -5  -1  -4  244.78   11.90
  -5  -1  -4  254.07   11.00
  -5  -1  -4  245.38   10.50
  -5  -1  -4  249.58   11.20
   5   1   4  285.77   12.20
   5   1   4  261.57   12.50
   5   1   4  287.17   11.40
   5   1   4  271.27   12.30
   5   1   4  287.87   12.40
  -6  -1  -4   28.60    4.60
  -6  -1  -4   28.00    2.60
  -6  -1  -4   36.10    3.40
  -6  -1  -4   37.80    3.80
  -6  -1  -4   38.00    4.30
  -6  -1  -4   27.80    4.20
   6   1   4   36.10    3.10
   6   1   4   38.00    3.30
   6   1   4   40.10    3.60
  -7  -1  -4   11.70    2.70
  -7  -1  -4    8.20    2.30
   7   1   4   12.90    2.50
   7   1   4   12.60    2.20
   7   1   4   12.10    2.10
  -7   2   4   62.19    4.10
  -7   2   4   69.79    4.40
  -7   2   4   49.90    8.20
  -7   2   4   59.89    4.20
   6  -2  -4   65.09    4.40
   6  -2  -4   45.80   12.00
   6  -2  -4   58.09    5.40
   6  -2  -4   50.29    4.70
   6  -2  -4   63.39    4.70
   6  -2  -4   63.39    3.80
   6  -2  -4   60.49    3.80
  -6   2   4   60.09    6.00
  -6   2   4   51.69    4.80
  -6   2   4   59.59    4.40
  -6   2   4   55.59    4.50
  -6   2   4   56.49    3.90
   5  -2  -4   69.09    4.60
   5  -2  -4   69.09    4.00
   5  -2  -4   72.09    4.20
   5  -2  -4   70.99    8.40
   5  -2  -4   69.79    5.40
   5  -2  -4   66.99    4.00
   5  -2  -4   72.69    4.10
   5  -2  -4   68.69    5.70
   5  -2  -4   67.49    4.40
  -5   2   4   64.19    4.50
  -5   2   4   72.99    4.00
   4  -2  -4  267.57   11.40
   4  -2  -4  277.67   12.60
   4  -2  -4  281.37   14.80
   4  -2  -4  277.17   11.60
   4  -2  -4  260.77   11.10
   4  -2  -4  275.77   11.30
   4  -2  -4  276.07   13.00
   4  -2  -4  241.88   12.50
  -4   2   4  256.57   11.50
  -4   2   4  204.78   12.10
  -4   2   4  260.17   10.00
   3  -2  -4  280.57   11.70
   3  -2  -4  285.87   12.50
   3  -2  -4  282.47   12.60
   3  -2  -4  248.48   11.50
   3  -2  -4  296.57   13.90
   3  -2  -4  279.37   13.40
  -3   2   4  293.07   12.90
  -3   2   4  299.77   12.70
  -3   2   4  277.87   11.40
   2  -2  -4 1123.39   45.10
  -2   2   4 1135.59   44.20
  -2   2   4 1108.69   42.80
  -2   2   4 1177.18   43.90
  -2   2   4 1082.69   42.60
  -2   2   4 1093.39   43.70
   1  -2  -4  184.58    9.00
  -1   2   4  183.28    8.30
  -1   2   4  189.48    7.50
  -1   2   4  179.98    7.90
  -1   2   4  191.48    8.50
   0  -2  -4  564.34   22.20
   0  -2  -4  594.14   22.60
   0   2   4  625.34   24.40
   0   2   4  614.44   23.50
   0   2   4  595.24   23.90
   0   2   4  608.54   23.30
   0   2   4  594.14   23.40
  -1  -2  -4  321.87   12.60
  -1  -2  -4  316.97   12.50
   1   2   4  326.57   12.90
   1   2   4  324.87   13.70
   1   2   4  327.07   12.60
  -2  -2  -4  417.06   16.10
  -2  -2  -4  414.46   16.20
  -2  -2  -4  420.56   16.50
   2   2   4  462.55   17.70
   2   2   4  424.66   17.20
   2   2   4  438.86   18.20
   2   2   4  444.26   17.60
  -3  -2  -4  386.56   16.30
  -3  -2  -4  384.06   15.60
  -3  -2  -4  377.96   14.70
  -3  -2  -4  394.56   15.10
  -3  -2  -4  364.06   15.90
  -3  -2  -4  373.96   15.00
  -3  -2  -4  385.06   15.00
   3   2   4  422.16   16.50
   3   2   4  405.16   16.30
   3   2   4  400.16   17.30
   3   2   4  415.86   17.00
   3   2   4  424.76   16.30
   3   2   4  415.96   16.90
  -4  -2  -4  731.13   28.70
  -4  -2  -4  736.03   28.50
  -4  -2  -4  719.33   29.30
  -4  -2  -4  726.13   28.30
  -4  -2  -4  684.53   28.40
  -4  -2  -4  742.33   28.70
   4   2   4  744.93   31.90
   4   2   4  809.32   30.50
   4   2   4  781.72   31.50
   4   2   4  753.72   31.10
   4   2   4  772.52   31.40
   4   2   4  811.52   30.80
   4   2   4  788.12   30.50
   4   2   4  822.92   30.80
  -5  -2  -4  329.57   13.70
  -5  -2  -4  357.96   14.70
  -5  -2  -4  320.27   14.00
  -5  -2  -4  339.37   15.20
  -5  -2  -4  322.97   14.00
   5   2   4  339.97   14.70
   5   2   4  367.06   14.30
   5   2   4  350.76   14.70
   5   2   4  355.66   14.30
   5   2   4  333.67   14.30
   5   2   4  364.66   14.90
   5   2   4  351.36   15.10
   5   2   4  367.46   15.10
  -6  -2  -4   81.99    5.90
  -6  -2  -4   83.99    5.20
  -6  -2  -4   75.89    4.30
  -6  -2  -4   77.99    5.80
  -6  -2  -4   80.69    5.00
   6   2   4   80.19    4.70
   6   2   4   77.79    4.90
   6   2   4   80.09    4.80
  -7  -2  -4  265.17   12.20
  -7  -2  -4  282.57   12.30
  -7  -2  -4  281.07   13.00
   7   2   4  308.67   13.40
   7   2   4  309.07   13.30
   7   2   4  318.87   13.10
  -8  -2  -4   63.29    4.30
  -8  -2  -4   49.90    4.60
  -8  -2  -4   51.79    3.50
   8   2   4   56.49    3.20
   8   2   4   58.09    3.70
   8   2   4   62.39    3.30
   7  -3  -4   16.60    3.40
   7  -3  -4   21.40    2.00
  -7   3   4   16.80    4.70
  -7   3   4   18.50    2.90
  -7   3   4   23.30    3.70
   6  -3  -4   23.00    2.90
   6  -3  -4   21.40    4.10
   6  -3  -4   27.20    8.00
  -6   3   4   17.50    2.70
  -6   3   4   26.80    3.30
  -6   3   4   26.40    5.30
  -6   3   4   22.20    4.10
   5  -3  -4  156.58    7.40
   5  -3  -4  155.28    8.60
   5  -3  -4  154.28    7.20
   5  -3  -4  149.59    7.70
   5  -3  -4  161.58    9.10
  -5   3   4  151.68    6.80
  -5   3   4  148.19    7.20
  -5   3   4  138.09    7.50
   4  -3  -4  389.86   17.70
   4  -3  -4  400.96   16.40
   4  -3  -4  402.36   17.40
   4  -3  -4  388.06   16.60
   4  -3  -4  399.96   20.10
  -4   3   4  372.46   15.30
  -4   3   4  373.16   14.90
   3  -3  -4  101.09    7.20
   3  -3  -4   96.79    5.70
   3  -3  -4  100.29    4.90
   3  -3  -4  101.29    6.10
   3  -3  -4   84.29    5.00
   3  -3  -4   87.89    5.30
  -3   3   4  109.79    5.80
  -3   3   4  100.69    4.40
   2  -3  -4  295.37   14.20
  -2   3   4  290.07   11.70
  -2   3   4  302.67   12.20
  -2   3   4  296.37   12.80
  -2   3   4  285.17   13.30
  -2   3   4  288.17   13.10
   1  -3  -4  350.26   15.80
  -1   3   4  351.36   14.60
  -1   3   4  333.67   14.20
  -1   3   4  332.47   14.30
  -1   3   4  353.06   13.40
   0  -3  -4  611.64   23.50
   0   3   4  655.73   26.00
   0   3   4  673.33   25.60
   0   3   4  694.13   26.80
   0   3   4  666.43   26.10
   0   3   4  648.44   26.20
  -1  -3  -4 1234.88   46.50
  -1  -3  -4 1205.48   47.40
   1   3   4 1234.28   46.20
   1   3   4 1167.28   45.60
  -2  -3  -4   88.89    5.00
  -2  -3  -4  106.29    5.50
   2   3   4   96.89    4.50
   2   3   4   88.99    3.90
   2   3   4   85.19    4.10
  -3  -3  -4  593.04   23.60
  -3  -3  -4  541.45   23.80
  -3  -3  -4  585.94   24.10
  -3  -3  -4  627.24   24.20
  -3  -3  -4  612.04   23.00
   3   3   4  630.04   25.20
   3   3   4  637.54   24.50
   3   3   4  622.74   24.50
  -4  -3  -4  151.88    8.00
  -4  -3  -4  182.38    7.90
  -4  -3  -4  174.58    8.80
  -4  -3  -4  188.08    8.80
  -4  -3  -4  162.28    7.80
  -4  -3  -4  169.18    8.90
   4   3   4  183.28   10.10
   4   3   4  189.68    8.80
   4   3   4  184.08    7.70
   4   3   4  176.18   10.00
   4   3   4  191.68    8.00
   4   3   4  180.28    7.70
   4   3   4  164.08    9.20
  -5  -3  -4  606.14   24.80
  -5  -3  -4  659.03   25.40
  -5  -3  -4  619.74   26.10
  -5  -3  -4  584.24   24.50
  -5  -3  -4  616.24   26.30
  -5  -3  -4  656.23   25.60
   5   3   4  673.63   26.20
   5   3   4  684.63   26.30
   5   3   4  678.93   26.20
   5   3   4  688.93   26.80
   5   3   4  653.43   26.50
   5   3   4  663.53   26.90
   5   3   4  642.84   26.50
   5   3   4  662.43   27.00
   5   3   4  675.93   27.80
  -6  -3  -4  174.68    8.20
  -6  -3  -4  159.48    7.40
  -6  -3  -4  165.18    8.40
  -6  -3  -4  151.98   10.60
  -6  -3  -4  167.78    8.30
   6   3   4  184.28    8.50
   6   3   4  174.08    7.60
   6   3   4  183.78    8.60
   6   3   4  182.98    8.70
  -7  -3  -4  139.19    8.10
  -7  -3  -4  145.09    7.30
  -7  -3  -4  136.39    7.20
   7   3   4  162.08    7.40
   7   3   4  156.38    7.70
   7   3   4  158.38    7.60
  -8  -3  -4    9.70    3.10
  -8  -3  -4   14.90    3.50
   8   3   4   23.20    2.20
   8   3   4   24.20    1.90
   8   3   4   24.50    3.30
  -7   4   4   16.20    2.70
   6  -4  -4   72.09    4.10
   6  -4  -4   74.79    5.60
   6  -4  -4   68.39    4.70
   6  -4  -4   72.89    5.40
  -6   4   4   57.79    4.10
  -6   4   4   58.79    6.20
  -6   4   4   66.59    4.30
  -6   4   4   63.39    5.40
   5  -4  -4   57.99    4.70
   5  -4  -4   61.69   10.80
   5  -4  -4   58.09    3.70
   5  -4  -4   58.09    5.30
   5  -4  -4   57.49    4.30
   5  -4  -4   54.79    3.60
  -5   4   4   50.29    3.40
  -5   4   4   47.90    4.20
  -5   4   4   53.09    5.10
   4  -4  -4  298.07   14.40
   4  -4  -4  316.87   12.90
   4  -4  -4  289.17   13.20
   4  -4  -4  320.87   14.30
   4  -4  -4  303.57   17.60
   4  -4  -4  294.47   12.70
  -4   4   4  301.17   12.60
  -4   4   4  288.37   12.90
  -4   4   4  297.07   12.10
   3  -4  -4   18.90    4.70
   3  -4  -4   25.00    3.40
   3  -4  -4   14.90    2.40
   3  -4  -4   20.20    2.90
   3  -4  -4   18.80    2.60
  -3   4   4   14.70    2.00
  -3   4   4   16.00    1.30
   2  -4  -4  262.57   12.50
   2  -4  -4  264.17   11.70
   2  -4  -4  264.37   11.90
   2  -4  -4  273.77   13.80
  -2   4   4  266.17   12.70
  -2   4   4  273.67   11.20
  -2   4   4  279.37   11.30
   1  -4  -4  282.87   14.00
  -1   4   4  272.57   12.40
  -1   4   4  265.87   10.90
  -1   4   4  275.87   12.40
  -1   4   4  271.77   12.20
  -1   4   4  285.87   11.10
   0   4   4 1263.17   46.40
   0   4   4 1204.28   45.30
   0   4   4 1173.88   45.40
   0   4   4 1169.98   47.30
   0   4   4 1221.88   47.00
   0   4   4 1109.29   45.10
  -1  -4  -4  462.05   19.10
  -1  -4  -4  456.25   17.70
   1   4   4  467.35   17.70
   1   4   4  439.66   17.50
   1   4   4  459.15   18.30
  -2  -4  -4  212.18    9.70
   2   4   4  216.38    8.80
   2   4   4  227.68    9.70
   2   4   4  214.28    9.00
  -3  -4  -4  319.17   12.40
  -3  -4  -4  304.67   12.90
  -3  -4  -4  331.07   13.70
  -3  -4  -4  312.17   13.00
  -3  -4  -4  313.67   13.00
  -3  -4  -4  298.27   13.40
  -3  -4  -4  288.67   16.60
  -3  -4  -4  315.87   13.30
   3   4   4  337.47   13.10
   3   4   4  300.97   13.30
   3   4   4  349.47   14.10
   3   4   4  322.87   13.30
  -4  -4  -4  965.50   39.20
  -4  -4  -4 1007.70   40.10
  -4  -4  -4 1038.20   40.30
  -4  -4  -4 1040.30   39.20
  -4  -4  -4 1008.50   39.20
  -4  -4  -4  960.40   39.50
  -4  -4  -4  982.80   39.00
   4   4   4 1052.49   40.30
   4   4   4 1083.79   40.30
   4   4   4 1035.10   40.40
   4   4   4 1085.99   41.60
   4   4   4  969.20   41.40
   4   4   4 1043.00   42.20
  -5  -4  -4  682.83   28.40
  -5  -4  -4  678.93   26.80
  -5  -4  -4  671.73   27.20
  -5  -4  -4  680.03   28.20
  -5  -4  -4  662.63   27.50
   5   4   4  735.23   29.80
   5   4   4  722.03   28.20
   5   4   4  709.33   28.10
   5   4   4  716.93   29.00
   5   4   4  742.73   28.70
   5   4   4  712.43   28.60
   5   4   4  717.83   28.20
   5   4   4  700.73   28.80
  -6  -4  -4  871.11   35.70
  -6  -4  -4  921.61   36.70
  -6  -4  -4  878.81   35.40
   6   4   4  950.80   37.00
   6   4   4  958.70   38.00
   6   4   4  954.60   37.70
   6   4   4 1014.10   37.90
   6   4   4  920.91   39.30
  -7  -4  -4   71.19    5.00
  -7  -4  -4   77.09    4.80
  -7  -4  -4   77.99    5.80
   7   4   4   79.89    4.80
   7   4   4   66.89    4.80
   7   4   4   77.59    4.60
   7   4   4   75.69    4.30
  -8  -4  -4  214.88    9.50
  -8  -4  -4  215.68    9.50
  -8  -4  -4  221.78   10.30
   8   4   4  262.77   10.40
   8   4   4  237.68   10.40
   6  -5  -4  181.98    9.00
   6  -5  -4  181.98    9.10
   6  -5  -4  176.18    8.30
  -6   5   4  162.28    7.70
  -6   5   4  167.18    9.10
  -6   5   4  167.38    7.70
  -6   5   4  164.78    7.50
   5  -5  -4   98.69    8.50
   5  -5  -4   94.79   14.60
   5  -5  -4  101.49    5.40
  -5   5   4   90.29    6.50
  -5   5   4   97.29    5.10
  -5   5   4  101.79    5.50
   4  -5  -4  934.11   43.90
   4  -5  -4 1027.50   40.20
   4  -5  -4  930.41   38.40
   4  -5  -4  997.30   40.40
   4  -5  -4 1036.90   39.20
  -4   5   4  967.70   38.20
  -4   5   4 1013.70   38.10
  -4   5   4  967.00   41.40
   3  -5  -4   61.09    4.60
   3  -5  -4   63.09    5.10
   3  -5  -4   61.99    4.20
   3  -5  -4   59.39    4.10
  -3   5   4   53.49    4.10
  -3   5   4   58.59    2.90
   2  -5  -4  288.17   13.20
   2  -5  -4  316.57   13.00
   2  -5  -4  325.27   16.50
   2  -5  -4  299.47   13.00
   2  -5  -4  320.87   14.20
   2  -5  -4  299.37   13.60
  -2   5   4  302.07   12.00
  -2   5   4  308.67   12.90
   1  -5  -4 1137.99   43.50
   1  -5  -4 1126.49   44.50
   1  -5  -4 1111.09   43.50
   1  -5  -4 1118.79   43.50
   1  -5  -4 1099.19   44.00
  -1   5   4 1092.89   43.20
  -1   5   4 1177.28   43.90
   0  -5  -4  248.98   10.80
   0  -5  -4  249.97   11.40
   0  -5  -4  267.17   11.00
   0  -5  -4  265.07   12.00
   0   5   4  275.27   11.00
   0   5   4  269.97   10.70
   0   5   4  275.07   12.10
  -1  -5  -4  926.51   35.90
  -1  -5  -4  883.71   35.30
  -1  -5  -4  854.51   35.10
  -1  -5  -4  911.51   33.90
  -1  -5  -4  881.51   34.80
  -1  -5  -4  853.21   34.60
  -1  -5  -4  903.91   34.70
   1   5   4  941.01   37.20
   1   5   4  938.91   36.20
   1   5   4 1008.80   36.60
   1   5   4  893.81   36.30
  -2  -5  -4  222.48    9.80
  -2  -5  -4  234.78   10.30
  -2  -5  -4  217.98   10.80
  -2  -5  -4  219.78    9.80
  -2  -5  -4  217.48    9.60
  -2  -5  -4  249.48   10.10
   2   5   4  244.68   10.50
   2   5   4  270.57   10.50
   2   5   4  267.37   11.40
  -3  -5  -4  232.78   10.70
  -3  -5  -4  233.68   10.30
  -3  -5  -4  240.68    9.60
  -3  -5  -4  233.68   10.10
  -3  -5  -4  234.98   10.10
  -3  -5  -4  223.58   10.20
  -3  -5  -4  214.78   11.50
  -3  -5  -4  241.78   11.00
  -3  -5  -4  245.08   10.80
   3   5   4  259.27   11.10
   3   5   4  228.98   10.80
   3   5   4  254.67   10.10
   3   5   4  228.08   10.30
   3   5   4  257.87   10.10
  -4  -5  -4  266.97   12.70
  -4  -5  -4  271.07   11.90
  -4  -5  -4  281.87   12.90
   4   5   4  279.77   11.50
   4   5   4  283.27   12.80
   4   5   4  283.67   11.50
   4   5   4  272.77   12.00
  -5  -5  -4  434.76   19.60
  -5  -5  -4  451.65   18.90
  -5  -5  -4  452.85   18.50
  -5  -5  -4  424.96   18.20
  -5  -5  -4  453.65   19.70
   5   5   4  448.86   19.40
   5   5   4  476.05   18.70
   5   5   4  470.35   19.20
   5   5   4  464.95   18.70
   5   5   4  483.75   20.60
   5   5   4  466.75   18.70
  -6  -5  -4  125.99    6.90
  -6  -5  -4  131.79    6.60
  -6  -5  -4  119.39    7.80
   6   5   4  122.49    6.30
   6   5   4  124.99    6.50
   6   5   4  136.09    6.30
   6   5   4  106.49    8.40
   6   5   4  120.29    6.40
  -7  -5  -4  104.09    5.90
  -7  -5  -4  106.89    5.70
  -7  -5  -4   95.89    6.70
   7   5   4  106.79    5.90
   7   5   4  119.19    5.60
   7   5   4  110.29    5.90
  -8  -5  -4   41.90    2.90
  -8  -5  -4   34.10    4.20
   8   5   4   47.10    3.40
   8   5   4   47.50    2.70
   8   5   4   47.10    2.90
   5  -6  -4   94.99    6.10
   5  -6  -4   99.29    5.30
   5  -6  -4   99.89    6.30
  -5   6   4   89.99    5.50
  -5   6   4   94.59    5.00
  -5   6   4   92.39    5.30
   4  -6  -4   90.59    5.30
   4  -6  -4   92.19    6.40
   4  -6  -4   87.49    6.20
  -4   6   4   81.79    5.20
  -4   6   4   90.89    4.70
   3  -6  -4  351.26   14.70
   3  -6  -4  348.67   14.80
   3  -6  -4  317.07   14.40
   3  -6  -4  359.36   16.20
   3  -6  -4  350.86   15.70
  -3   6   4  322.97   12.90
  -3   6   4  303.97   14.40
  -3   6   4  324.67   13.10
   2  -6  -4  299.57   13.20
   2  -6  -4  308.97   14.30
   2  -6  -4  297.37   12.90
   2  -6  -4  302.47   13.90
   2  -6  -4  314.17   13.50
   2  -6  -4  314.87   13.30
  -2   6   4  290.27   11.80
  -2   6   4  281.07   12.70
  -2   6   4  295.17   11.60
   1  -6  -4  180.98    8.50
   1  -6  -4  182.78    9.70
   1  -6  -4  186.28    8.40
   1  -6  -4  189.48    8.90
  -1   6   4  171.98    8.00
  -1   6   4  177.28    7.20
   0  -6  -4 1253.07   47.50
   0  -6  -4 1137.99   47.50
   0  -6  -4 1252.27   48.50
   0  -6  -4 1214.18   47.50
   0  -6  -4 1252.07   47.60
   0   6   4 1275.47   47.50
   0   6   4 1265.07   48.90
   0   6   4 1178.88   47.30
  -1  -6  -4   14.90    3.00
  -1  -6  -4   14.70    2.60
  -1  -6  -4   20.10    2.80
  -1  -6  -4   11.90    2.40
  -1  -6  -4   18.10    2.20
  -1  -6  -4   15.50    2.20
   1   6   4   18.80    2.40
   1   6   4   17.60    1.30
  -2  -6  -4  688.43   27.00
  -2  -6  -4  679.43   26.90
  -2  -6  -4  679.43   26.70
  -2  -6  -4  670.63   27.90
   2   6   4  716.53   27.70
   2   6   4  698.83   29.10
   2   6   4  735.43   29.00
   2   6   4  704.43   27.70
  -3  -6  -4  275.37   12.90
  -3  -6  -4  248.98   13.50
  -3  -6  -4  305.87   12.40
  -3  -6  -4  298.47   12.30
  -3  -6  -4  310.17   13.50
  -3  -6  -4  296.17   12.30
   3   6   4  304.77   12.80
   3   6   4  310.27   12.80
   3   6   4  326.47   13.10
   3   6   4  327.27   14.20
  -4  -6  -4  293.67   13.70
  -4  -6  -4  292.87   13.50
  -4  -6  -4  283.17   12.40
  -4  -6  -4  292.17   12.60
  -4  -6  -4  294.67   13.10
  -4  -6  -4  281.07   12.60
   4   6   4  335.67   14.00
   4   6   4  306.57   12.90
   4   6   4  306.47   13.30
   4   6   4  308.97   14.40
  -5  -6  -4  210.48    9.70
  -5  -6  -4  210.58   11.10
  -5  -6  -4  220.58   11.10
  -5  -6  -4  220.08    9.80
  -5  -6  -4  210.88   10.20
   5   6   4  222.98   10.10
   5   6   4  241.78    9.70
   5   6   4  235.78    9.80
   5   6   4  222.58   11.80
   5   6   4  222.68    9.60
   5   6   4  229.28   10.70
  -6  -6  -4  160.48    9.00
  -6  -6  -4  166.78    7.90
  -6  -6  -4  156.28    8.20
   6   6   4  151.08   10.20
   6   6   4  154.48    7.40
   6   6   4  164.28    7.90
   6   6   4  166.38    7.00
   6   6   4  173.78    8.00
   6   6   4  167.48    7.20
  -7  -6  -4   75.69    4.80
  -7  -6  -4   66.19    5.50
  -7  -6  -4   73.09    4.50
   7   6   4   82.89    4.70
   7   6   4   82.39    4.40
   7   6   4   88.49    4.80
  -8  -6  -4  125.79    6.10
  -8  -6  -4  118.19    6.70
  -8  -6  -4  119.09    5.70
   8   6   4  148.19    5.90
   8   6   4  135.59    6.00
   8   6   4  120.49    5.90
   5  -7  -4   16.20    2.70
   5  -7  -4   14.60    2.60
   5  -7  -4   19.10    2.30
  -5   7   4   17.80    3.40
  -5   7   4   21.50    3.00
   4  -7  -4  209.98   11.20
   4  -7  -4  230.38   10.20
   4  -7  -4  224.58   11.00
  -4   7   4  211.38    9.20
  -4   7   4  217.08    9.40
  -4   7   4  194.18    9.00
   3  -7  -4   30.10    3.60
   3  -7  -4   34.50    3.00
   3  -7  -4   28.20    3.80
  -3   7   4   30.90    2.50
  -3   7   4   28.80    3.10
   2  -7  -4    7.90    2.00
   2  -7  -4    8.70    1.50
   2  -7  -4    7.40    1.80
  -2   7   4    8.10    1.50
   1  -7  -4   57.49    3.80
   1  -7  -4   59.29    5.00
   1  -7  -4   53.79    4.00
   1  -7  -4   54.29    3.60
   1  -7  -4   53.89    4.20
  -1   7   4   55.89    3.30
  -1   7   4   57.49    3.00
   0  -7  -4   86.59    5.90
   0  -7  -4   79.89    4.60
   0  -7  -4   78.69    4.80
   0  -7  -4   77.29    4.40
   0  -7  -4   82.39    4.90
   0  -7  -4   83.79    5.20
   0   7   4   80.49    3.80
   0   7   4   77.09    4.10
   0   7   4   82.69    5.30
  -1  -7  -4  135.29    6.40
  -1  -7  -4  119.39    7.40
  -1  -7  -4  129.19    6.30
  -1  -7  -4  129.49    6.50
   1   7   4  132.89    7.40
   1   7   4  125.09    5.80
   1   7   4  132.49    5.70
  -2  -7  -4  645.64   26.20
  -2  -7  -4  676.23   26.70
  -2  -7  -4  660.43   26.40
  -2  -7  -4  650.23   26.50
  -2  -7  -4  662.93   26.40
  -2  -7  -4  672.63   27.10
  -2  -7  -4  668.03   27.70
   2   7   4  706.43   28.90
   2   7   4  680.13   27.30
   2   7   4  711.03   27.30
  -3  -7  -4   21.60    2.90
  -3  -7  -4   16.60    3.50
  -3  -7  -4   16.40    2.50
  -3  -7  -4   19.50    2.30
  -3  -7  -4   17.40    2.40
   3   7   4   17.30    3.20
   3   7   4   16.20    1.80
   3   7   4   18.20    2.10
   3   7   4   19.70    1.80
  -4  -7  -4   26.10    3.20
  -4  -7  -4   29.40    4.10
  -4  -7  -4   22.30    2.90
  -4  -7  -4   29.80    3.30
  -4  -7  -4   25.70    2.60
   4   7   4   25.20    2.20
   4   7   4   25.10    2.10
   4   7   4   26.60    2.30
   4   7   4   21.50    4.30
  -5  -7  -4    1.90    1.40
  -5  -7  -4    1.30    2.30
  -5  -7  -4    1.60    1.20
   5   7   4    4.70    1.60
   5   7   4    1.70    1.80
   5   7   4    1.70    1.10
   5   7   4    3.60    1.10
   5   7   4    4.30    1.00
  -6  -7  -4  349.77   16.00
  -6  -7  -4  341.47   15.20
   6   7   4  391.16   15.10
   6   7   4  314.57   15.20
   6   7   4  393.96   15.70
   6   7   4  362.56   14.70
  -7  -7  -4  105.59    6.70
  -7  -7  -4  110.49    5.50
  -7  -7  -4  107.49    5.70
   7   7   4  125.29    6.20
   7   7   4  126.59    5.90
   7   7   4  141.49    6.50
   4  -8  -4  246.18   11.20
   4  -8  -4  245.18   11.00
   4  -8  -4  237.78   10.30
  -4   8   4  228.18    9.50
  -4   8   4  224.88    9.70
   3  -8  -4  301.97   14.00
   3  -8  -4  295.37   13.00
   3  -8  -4  312.57   14.10
  -3   8   4  301.37   12.60
  -3   8   4  295.67   12.40
  -3   8   4  300.77   12.40
   2  -8  -4  130.39    6.60
   2  -8  -4  135.99    7.40
   2  -8  -4  138.09    7.90
  -2   8   4  140.29    6.50
  -2   8   4  140.59    6.30
   1  -8  -4  224.28   10.60
   1  -8  -4  211.38    9.80
   1  -8  -4  207.28   11.00
   1  -8  -4  211.58    9.60
   1  -8  -4  218.88    9.80
  -1   8   4  197.48   11.20
  -1   8   4  208.78    8.60
  -1   8   4  210.98    8.70
  -1   8   4  195.58    8.90
   0  -8  -4   27.70    3.20
   0  -8  -4   25.40    2.60
   0  -8  -4   30.10    3.30
   0  -8  -4   26.30    3.20
   0  -8  -4   34.10    2.40
   0  -8  -4   32.50    4.10
   0  -8  -4   31.10    2.80
   0   8   4   33.80    3.00
   0   8   4   33.60    2.20
   0   8   4   30.70    2.40
  -1  -8  -4  151.78    7.30
  -1  -8  -4  140.99    8.10
  -1  -8  -4  145.49    7.20
  -1  -8  -4  147.69    7.70
  -1  -8  -4  143.89    7.00
  -1  -8  -4  144.29    7.00
  -1  -8  -4  137.69    6.60
   1   8   4  155.18    8.60
   1   8   4  140.89    6.70
   1   8   4  145.89    6.50
   1   8   4  141.69    6.50
  -2  -8  -4  271.37   12.10
  -2  -8  -4  275.57   11.70
  -2  -8  -4  279.77   11.90
  -2  -8  -4  275.77   12.00
  -2  -8  -4  277.97   12.10
   2   8   4  298.77   11.90
   2   8   4  278.47   12.40
   2   8   4  283.07   13.80
   2   8   4  282.07   11.80
  -3  -8  -4  837.32   33.30
  -3  -8  -4  849.52   33.30
  -3  -8  -4  810.42   33.30
  -3  -8  -4  843.32   33.20
  -3  -8  -4  851.61   33.50
  -3  -8  -4  866.91   34.90
   3   8   4  905.21   36.00
   3   8   4  948.21   35.50
   3   8   4  874.41   35.40
   3   8   4  912.01   35.40
  -4  -8  -4  452.95   19.40
  -4  -8  -4  477.95   19.70
  -4  -8  -4  510.55   21.40
  -4  -8  -4  469.55   20.20
  -4  -8  -4  486.55   19.60
  -4  -8  -4  478.85   19.50
   4   8   4  471.55   21.80
   4   8   4  501.75   19.60
   4   8   4  505.45   19.60
   4   8   4  482.55   20.20
   4   8   4  491.95   19.70
  -5  -8  -4   86.89    5.40
  -5  -8  -4  104.89    6.90
  -5  -8  -4   95.89    5.20
   5   8   4  111.89    5.20
   5   8   4  109.29    5.10
   5   8   4  105.99    5.30
   5   8   4  106.99    5.70
  -6  -8  -4  153.08    8.80
  -6  -8  -4  157.68    7.30
  -6  -8  -4  151.08    7.50
   6   8   4  153.68    7.00
   6   8   4  161.08    6.80
   6   8   4  168.08    7.60
  -7  -8  -4  113.99    5.20
  -7  -8  -4  103.99    6.50
  -7  -8  -4  108.39    5.00
   7   8   4  128.69    5.90
   7   8   4  128.19    6.60
   3  -9  -4  161.88    7.70
   3  -9  -4  150.68    7.50
   3  -9  -4  155.28    7.00
  -3   9   4  147.59    6.60
  -3   9   4  150.68    6.80
   2  -9  -4  270.27   11.40
   2  -9  -4  265.97   12.10
   2  -9  -4  262.67   12.20
  -2   9   4  253.37   10.40
  -2   9   4  248.58   10.50
  -2   9   4  252.37   10.50
   1  -9  -4  536.45   22.40
   1  -9  -4  566.44   23.60
   1  -9  -4  569.34   23.70
   1  -9  -4  574.64   22.70
  -1   9   4  563.84   22.40
  -1   9   4  574.54   22.40
  -1   9   4  573.64   22.50
   0  -9  -4  162.08    8.40
   0  -9  -4  166.38    7.70
   0  -9  -4  162.88    8.00
   0   9   4  161.18    7.10
   0   9   4  167.78    7.60
   0   9   4  159.08    7.00
   0   9   4  157.98    7.90
  -1  -9  -4   46.10    3.80
  -1  -9  -4   47.50    3.20
  -1  -9  -4   36.30    4.30
  -1  -9  -4   42.70    3.60
  -1  -9  -4   43.90    3.20
  -1  -9  -4   47.10    2.80
   1   9   4   46.70    2.90
   1   9   4   42.40    2.90
   1   9   4   47.30    6.80
   1   9   4   48.00    2.90
  -2  -9  -4   15.50    2.10
  -2  -9  -4   17.80    2.20
  -2  -9  -4   15.40    2.70
  -2  -9  -4   15.80    3.10
  -2  -9  -4   15.40    2.10
   2   9   4   16.10    1.80
   2   9   4   13.70    1.90
   2   9   4   13.50    1.80
  -3  -9  -4  122.39    6.00
  -3  -9  -4  125.19    6.20
  -3  -9  -4  127.99    6.10
   3   9   4  135.79    6.10
   3   9   4  128.19    6.10
   3   9   4  136.69    6.10
  -4  -9  -4   13.60    2.40
  -4  -9  -4   10.60    1.80
  -4  -9  -4   16.20    2.20
  -4  -9  -4    9.80    2.50
   4   9   4   14.80    1.80
   4   9   4   14.60    1.90
   4   9   4   15.40    2.60
  -5  -9  -4  593.54   22.80
  -5  -9  -4  556.64   24.10
  -5  -9  -4  556.64   22.60
   5   9   4  610.44   23.40
   5   9   4  559.14   23.60
   5   9   4  616.44   23.40
   5   9   4  608.24   23.90
  -6  -9  -4   26.70    6.00
  -6  -9  -4   29.40    2.30
  -6  -9  -4   31.20    2.40
   6   9   4   32.40    1.90
   6   9   4   32.40    2.50
   1 -10  -4   73.39    4.60
   1 -10  -4   74.49    4.60
   1 -10  -4   75.49    4.00
  -1  10   4   73.49    3.80
  -1  10   4   68.99    3.60
  -1  10   4   73.39    4.00
   0 -10  -4  130.19    6.30
   0 -10  -4  131.69    7.00
   0 -10  -4  137.89    7.00
   0 -10  -4  132.89    6.20
   0 -10  -4  135.99    6.50
   0  10   4  139.49    6.20
   0  10   4  138.49    6.20
   0  10   4  143.29    6.30
  -1 -10  -4    1.40    0.80
  -1 -10  -4    1.50    1.40
  -1 -10  -4    0.80    1.40
  -1 -10  -4    0.70    0.90
   1  10   4    3.30    1.00
   1  10   4    3.60    1.20
   1  10   4    3.30    1.00
   1  10   4    5.90    1.30
  -2 -10  -4  137.09    6.60
  -2 -10  -4  137.79    6.80
  -2 -10  -4  143.29    6.00
  -2 -10  -4  148.19    6.70
  -2 -10  -4  141.49    7.30
   2  10   4  148.49    6.50
   2  10   4  150.08    6.50
   2  10   4  150.08    6.80
   2  10   4  148.69    6.70
  -3 -10  -4    9.80    1.80
  -3 -10  -4   10.40    1.90
   3  10   4    8.20    1.50
   3  10   4    9.20    1.60
   3  10   4    9.40    1.80
  -4 -10  -4   33.40    2.60
  -4 -10  -4   35.60    2.90
  -4 -10  -4   37.20    3.10
   4  10   4   40.90    2.30
   4  10   4   43.80    3.20
   4  10   4   36.50    2.40
   4  10   4   29.90    2.90
  -5 -10  -4  179.78    7.70
   5  10   4  166.48    7.50
   5  10   4  180.88    7.70
   5  10   4  190.98    7.80
   5  10   4  186.08    7.40
  -1 -11  -4   18.10    3.00
  -1 -11  -4   25.40    2.50
   1  11   4   19.90    1.60
   1  11   4   22.50    2.10
  -2 -11  -4   25.00    2.80
  -2 -11  -4   17.70    2.20
   2  11   4   24.50    1.60
   2  11   4   16.80    1.90
   2  11   4   18.20    2.80
  -3 -11  -4   50.29    3.20
  -3 -11  -4   45.90    3.80
   3  11   4   53.69    2.60
   3  11   4   52.79    2.80
   3  11   4   47.50    2.80
   5   7  -5   23.80    2.10
   5   7  -5   30.50    1.90
   5   7  -5   28.80    2.10
  -5  -7   5   30.60    2.80
  -5  -7   5   25.90    2.20
   4   7  -5   32.10    2.20
   4   7  -5   32.80    2.10
   4   7  -5   24.50    2.20
  -4  -7   5   26.80    2.60
  -4  -7   5   33.90    2.70
  -4  -7   5   29.40    3.60
   3   7  -5   69.49    3.70
   3   7  -5   67.39    3.60
   3   7  -5   66.99    3.70
  -3  -7   5   67.69    4.30
  -3  -7   5   64.29    3.90
  -3  -7   5   65.69    4.00
   2   7  -5   59.49    3.40
   2   7  -5   65.19    3.50
   2   7  -5   49.00    3.50
  -2  -7   5   61.49    3.90
  -2  -7   5   59.79    4.00
  -2  -7   5   58.79    3.80
   1   7  -5  153.68    6.70
   1   7  -5  155.98    6.90
   1   7  -5  139.29    6.50
  -1  -7   5  156.98    7.30
  -1  -7   5  151.78    7.20
  -1  -7   5  155.28    7.10
   0   7  -5   13.80    1.80
   0   7  -5   14.40    2.70
   0   7  -5   12.00    1.70
   0  -7   5   13.20    2.00
   0  -7   5   18.10    2.80
   0  -7   5   16.00    2.00
  -1   7  -5   37.70    2.40
  -1   7  -5   35.70    3.90
  -1   7  -5   46.80    3.30
   1  -7   5   40.80    2.60
   1  -7   5   42.10    2.70
   1  -7   5   33.70    3.00
   6   6  -5  143.59    6.20
   6   6  -5  147.99    6.30
   6   6  -5  140.69    6.30
  -6  -6   5  136.49    6.10
  -6  -6   5  125.99    6.10
   5   6  -5  180.08    7.50
   5   6  -5  174.48    7.60
   5   6  -5  168.58    7.50
   5   6  -5  161.28    7.40
  -5  -6   5  155.48    7.30
  -5  -6   5  153.88    6.40
  -5  -6   5  145.69    7.20
   4   6  -5   87.29    4.80
   4   6  -5  100.59    4.80
   4   6  -5   92.09    4.70
  -4  -6   5   82.19    4.00
  -4  -6   5   88.29    5.10
  -4  -6   5   81.99    5.00
  -4  -6   5   83.79    6.00
   3   6  -5  127.59    6.30
  -3  -6   5  114.29    5.70
  -3  -6   5  128.39    7.00
  -3  -6   5  130.49    6.90
   2   6  -5   53.39    3.30
   2   6  -5   53.99    3.20
   2   6  -5   47.40    3.50
  -2  -6   5   44.00    2.90
  -2  -6   5   54.09    3.90
  -2  -6   5   56.49    5.20
   1   6  -5  218.48    9.80
   1   6  -5  198.58    9.90
   1   6  -5  191.48   10.00
   1   6  -5  200.58    8.90
  -1  -6   5  213.48    9.90
   0   6  -5   45.80    3.10
   0   6  -5   43.10    3.00
   0   6  -5   42.60    3.30
   0  -6   5   43.20    4.80
   0  -6   5   49.90    3.80
   0  -6   5   50.49    3.80
   0  -6   5   52.69    5.50
  -1   6  -5    9.20    1.50
  -1   6  -5   10.70    1.50
  -1   6  -5   11.20    2.10
   1  -6   5    8.90    1.90
   1  -6   5   13.30    2.30
   1  -6   5   10.30    2.20
   1  -6   5   14.90    3.30
  -2   6  -5   69.09    6.60
  -2   6  -5   74.99    6.20
  -2   6  -5   80.89    3.90
   2  -6   5   83.39    4.30
   2  -6   5   75.49    5.40
   2  -6   5   83.09    4.60
  -3   6  -5   58.99    3.10
   3  -6   5   62.69    3.40
   3  -6   5   61.89    3.20
   7   5  -5   42.70    2.50
   7   5  -5   43.30    2.30
   7   5  -5   42.10    3.10
  -7  -5   5   32.00    2.40
   6   5  -5  123.39    5.80
   6   5  -5  119.99    5.50
   6   5  -5  121.99    5.60
  -6  -5   5  102.89    5.00
  -6  -5   5  103.59    4.90
  -6  -5   5  108.39    5.70
   5   5  -5   61.49    3.70
   5   5  -5   61.99    3.70
   5   5  -5   73.09    4.10
   5   5  -5   62.29    3.70
  -5  -5   5   55.19    3.20
  -5  -5   5   43.70    5.00
  -5  -5   5   51.79    3.20
  -5  -5   5   53.89    4.20
   4   5  -5  492.15   19.30
   4   5  -5  459.75   19.10
   4   5  -5  494.85   19.30
   4   5  -5  470.85   19.50
  -4  -5   5  463.55   19.10
  -4  -5   5  463.35   18.30
  -4  -5   5  428.66   18.10
  -4  -5   5  441.16   19.40
  -4  -5   5  464.45   18.30
   3   5  -5  241.58   10.60
   3   5  -5  250.97   10.50
   3   5  -5  233.28   10.30
  -3  -5   5  240.08   10.60
  -3  -5   5  223.08    9.70
  -3  -5   5  223.08   11.10
  -3  -5   5  191.58   13.40
  -3  -5   5  236.38   10.90
  -3  -5   5  238.38    9.60
   2   5  -5  689.43   27.30
   2   5  -5  696.73   27.30
   2   5  -5  705.43   27.20
   2   5  -5  652.33   26.90
  -2  -5   5  682.83   26.10
  -2  -5   5  654.23   27.00
  -2  -5   5  662.83   26.90
  -2  -5   5  659.23   26.20
  -2  -5   5  637.54   26.20
  -2  -5   5  696.93   27.30
  -2  -5   5  663.73   27.50
   1   5  -5   67.19    3.80
   1   5  -5   64.09    3.70
   1   5  -5   65.69    4.20
   1   5  -5   62.19    3.90
  -1  -5   5   58.79    5.40
  -1  -5   5   65.09    4.60
  -1  -5   5   68.69    4.90
  -1  -5   5   56.49    3.70
  -1  -5   5   67.69    3.40
  -1  -5   5   67.39    4.70
  -1  -5   5   63.69    4.30
   0   5  -5  621.34   24.60
   0   5  -5  622.74   24.40
   0   5  -5  594.74   23.80
   0   5  -5  597.34   25.80
   0   5  -5  639.44   24.50
   0  -5   5  610.54   24.30
   0  -5   5  630.04   26.30
   0  -5   5  625.24   25.30
   0  -5   5  618.24   26.50
   0  -5   5  637.94   25.40
   0  -5   5  628.14   25.30
   0  -5   5  647.34   25.80
  -1   5  -5   77.09    4.20
  -1   5  -5   81.79    4.50
  -1   5  -5   72.59    6.20
  -1   5  -5   80.49    4.20
  -1   5  -5   74.89    3.80
   1  -5   5   86.99    5.10
   1  -5   5   82.59    4.80
   1  -5   5   93.89    8.80
   1  -5   5   82.29    7.10
   1  -5   5   77.49    5.10
   1  -5   5   83.59    5.00
  -2   5  -5  434.06   17.90
  -2   5  -5  467.85   18.50
  -2   5  -5  460.85   18.90
  -2   5  -5  470.45   18.40
   2  -5   5  459.35   20.20
   2  -5   5  468.15   19.80
   2  -5   5  482.95   19.00
   2  -5   5  463.85   18.90
   2  -5   5  425.06   20.10
  -3   5  -5  122.89    6.50
  -3   5  -5  112.69    5.40
  -3   5  -5  113.39    5.90
   3  -5   5  112.99    5.90
   3  -5   5  120.99    5.80
   3  -5   5  125.09    6.20
  -4   5  -5  101.69    5.00
  -4   5  -5  103.79    4.60
   4  -5   5  103.19    5.20
   4  -5   5  106.29    5.00
   4  -5   5  112.49    5.10
   7   4  -5   11.70    1.60
   7   4  -5   12.70    1.70
   7   4  -5   11.30    1.30
  -7  -4   5    9.40    1.50
  -7  -4   5   14.80    2.30
   6   4  -5  124.39    5.70
   6   4  -5  126.09    5.90
   6   4  -5  127.19    6.20
   6   4  -5  125.69    5.90
  -6  -4   5  112.09    5.40
  -6  -4   5  105.99    5.40
  -6  -4   5   88.29    5.60
  -6  -4   5  101.69    5.90
   5   4  -5   27.30    2.30
   5   4  -5   28.70    2.80
   5   4  -5   29.00    2.20
   5   4  -5   27.60    2.30
  -5  -4   5   24.00    3.40
  -5  -4   5   24.70    2.80
  -5  -4   5   28.50    2.60
  -5  -4   5   24.90    2.60
  -5  -4   5   18.00    4.90
   4   4  -5  173.78    7.60
   4   4  -5  173.88    8.00
   4   4  -5  173.28    7.70
   4   4  -5  160.88    7.60
   4   4  -5  169.98    7.60
  -4  -4   5  169.78    7.60
  -4  -4   5  160.08    7.40
  -4  -4   5  150.78    8.20
   3   4  -5  364.76   14.60
   3   4  -5  367.76   14.50
   3   4  -5  346.67   14.70
   3   4  -5  327.07   14.30
  -3  -4   5  329.07   13.40
  -3  -4   5  336.07   14.40
  -3  -4   5  330.27   13.40
  -3  -4   5  313.57   15.10
  -3  -4   5  324.17   16.10
  -3  -4   5  315.47   14.30
  -3  -4   5  325.37   13.60
   2   4  -5  473.05   18.60
   2   4  -5  468.15   18.70
   2   4  -5  462.65   18.80
   2   4  -5  439.36   18.60
  -2  -4   5  479.65   18.80
  -2  -4   5  461.65   19.70
  -2  -4   5  458.15   19.60
  -2  -4   5  470.45   19.40
  -2  -4   5  436.76   20.70
  -2  -4   5  460.85   18.50
  -2  -4   5  466.95   19.60
  -2  -4   5  475.85   18.50
   1   4  -5  289.37   13.10
   1   4  -5  282.97   12.30
   1   4  -5  295.27   12.40
   1   4  -5  295.47   12.30
   1   4  -5  302.97   12.30
  -1  -4   5  284.47   13.00
  -1  -4   5  302.77   12.90
  -1  -4   5  279.97   13.90
  -1  -4   5  283.37   11.90
  -1  -4   5  308.37   13.00
  -1  -4   5  290.67   12.10
  -1  -4   5  279.27   12.90
  -1  -4   5  287.87   12.90
  -1  -4   5  291.57   11.90
   0   4  -5   34.60    3.60
   0   4  -5   36.30    3.00
   0   4  -5   31.50    2.70
   0   4  -5   40.60    2.80
   0   4  -5   38.70    2.80
   0   4  -5   38.90    3.50
   0  -4   5   42.40    3.60
   0  -4   5   39.00    2.70
   0  -4   5   41.40    3.40
   0  -4   5   39.80    2.60
   0  -4   5   39.10    3.20
   0  -4   5   33.80    2.70
   0  -4   5   34.10    4.10
   0  -4   5   38.80    3.50
  -1   4  -5   24.90    2.30
  -1   4  -5   26.70    2.40
  -1   4  -5   21.30    2.40
  -1   4  -5   19.30    3.30
   1  -4   5   25.50    3.50
   1  -4   5   22.30    3.00
   1  -4   5   17.20    2.80
   1  -4   5   18.60    2.60
   1  -4   5   21.70    2.10
   1  -4   5   21.40    3.70
   1  -4   5   19.10    2.80
  -2   4  -5   43.40    3.30
  -2   4  -5   40.90    3.10
  -2   4  -5   35.10    4.70
  -2   4  -5   41.40    2.70
  -2   4  -5   42.60    3.00
   2  -4   5   46.40    4.30
   2  -4   5   44.10    3.60
   2  -4   5   45.50    4.70
   2  -4   5   46.50    5.60
   2  -4   5   38.20    3.20
  -3   4  -5  236.38   10.80
  -3   4  -5  227.58   10.60
  -3   4  -5  238.58   10.10
  -3   4  -5  234.48   12.00
   3  -4   5  260.17   12.80
   3  -4   5  268.97   11.70
   3  -4   5  249.97   13.10
   3  -4   5  235.38   12.30
  -4   4  -5   56.99    3.80
  -4   4  -5   50.69    3.40
  -4   4  -5   67.09    5.10
   4  -4   5   53.79    3.50
   4  -4   5   54.49    3.80
   4  -4   5   55.69    3.70
  -5   4  -5   61.89    3.30
  -5   4  -5   63.49    4.70
   5  -4   5   64.69    3.70
   5  -4   5   68.99    3.60
   5  -4   5   83.49    4.40
   7   3  -5  242.98   10.10
   7   3  -5  237.48   10.20
   7   3  -5  241.78    9.80
   7   3  -5  265.67   10.30
   7   3  -5  230.28   10.20
  -7  -3   5  218.98    9.30
  -7  -3   5  218.88    9.40
  -7  -3   5  208.88    9.80
  -7  -3   5  210.08    9.40
   6   3  -5  391.66   18.10
   6   3  -5  447.56   20.80
   6   3  -5  475.05   18.60
   6   3  -5  482.25   18.30
   6   3  -5  467.05   18.40
  -6  -3   5  430.66   17.40
  -6  -3   5  408.96   18.30
  -6  -3   5  433.16   17.50
  -6  -3   5  412.36   17.30
   5   3  -5   32.50    2.50
   5   3  -5   31.50    3.00
   5   3  -5   35.40    2.30
   5   3  -5   30.80    2.80
  -5  -3   5   28.30    2.80
  -5  -3   5   28.50    3.20
  -5  -3   5   26.90    5.60
  -5  -3   5   31.30    3.80
   4   3  -5  329.17   13.80
   4   3  -5  338.97   13.40
   4   3  -5  335.97   15.70
   4   3  -5  313.27   13.70
   4   3  -5  312.37   13.40
   4   3  -5  320.87   13.30
  -4  -3   5  313.87   13.20
  -4  -3   5  313.97   13.50
  -4  -3   5  314.37   14.20
  -4  -3   5  301.37   15.70
  -4  -3   5  324.17   13.50
   3   3  -5   94.79    6.70
   3   3  -5  101.19    4.70
   3   3  -5   91.49    4.80
   3   3  -5   97.49    4.90
   3   3  -5   96.19    4.80
   3   3  -5   94.69    5.00
  -3  -3   5   99.29    4.60
  -3  -3   5   89.29    5.10
  -3  -3   5   79.69    5.30
  -3  -3   5   90.59    6.70
  -3  -3   5   93.19    6.10
  -3  -3   5   96.59    5.00
   2   3  -5  127.29    7.70
   2   3  -5  122.89    6.20
   2   3  -5  142.79    6.60
  -2  -3   5  125.49    7.50
  -2  -3   5  115.89    6.20
  -2  -3   5  125.99    6.40
  -2  -3   5  126.69    6.40
  -2  -3   5  137.19    7.40
  -2  -3   5  131.49    5.80
  -2  -3   5  122.09    5.80
   1   3  -5  288.37   12.10
   1   3  -5  288.07   12.10
   1   3  -5  281.07   11.90
   1   3  -5  284.97   12.00
   1   3  -5  301.77   12.70
  -1  -3   5  279.37   11.40
  -1  -3   5  295.87   11.50
  -1  -3   5  277.57   12.60
  -1  -3   5  287.97   12.30
  -1  -3   5  242.98   15.40
  -1  -3   5  289.07   12.30
   0   3  -5   57.59    3.90
   0   3  -5   68.09    4.90
   0   3  -5   60.09    3.80
   0   3  -5   52.59    3.40
   0   3  -5   49.70    3.30
   0  -3   5   59.69    5.10
   0  -3   5   55.79    3.10
   0  -3   5   58.89    3.80
   0  -3   5   63.39    3.20
   0  -3   5   56.89    3.70
  -1   3  -5  186.88    8.80
  -1   3  -5  182.68    8.10
  -1   3  -5  180.38    7.60
  -1   3  -5  154.78    8.70
  -1   3  -5  179.28    7.90
  -1   3  -5  184.78    8.00
   1  -3   5  187.98    9.40
   1  -3   5  187.68    8.30
   1  -3   5  194.48    8.30
   1  -3   5  192.18    9.30
   1  -3   5  199.28    8.30
   1  -3   5  198.58    9.10
   1  -3   5  205.18    9.30
   1  -3   5  195.48    9.40
  -2   3  -5   38.50    3.40
  -2   3  -5   34.50    2.80
  -2   3  -5   33.80    3.60
  -2   3  -5   32.90    3.00
  -2   3  -5   34.50    2.50
   2  -3   5   41.40    3.60
   2  -3   5   40.20    3.50
   2  -3   5   35.30    3.30
   2  -3   5   33.90    3.90
   2  -3   5   36.30    2.60
   2  -3   5   39.90    3.80
   2  -3   5   38.60    3.40
   2  -3   5   30.40    4.90
  -3   3  -5  669.03   27.00
  -3   3  -5  684.23   27.00
  -3   3  -5  642.54   28.20
  -3   3  -5  697.53   26.70
  -3   3  -5  720.83   27.60
   3  -3   5  695.43   29.20
   3  -3   5  712.03   30.20
   3  -3   5  748.83   30.00
   3  -3   5  770.12   29.70
   3  -3   5  731.93   29.50
  -4   3  -5    1.10    1.50
  -4   3  -5    0.50    1.90
  -4   3  -5   -2.20    3.40
  -4   3  -5    1.10    2.00
   4  -3   5    2.80    1.80
  -5   3  -5  246.38   11.20
  -5   3  -5  245.38   10.30
  -5   3  -5  251.27   10.70
   5  -3   5  268.77   11.40
   5  -3   5  255.57   11.40
   5  -3   5  278.57   11.50
   8   2  -5  200.18    8.70
   8   2  -5  194.38    8.20
  -8  -2   5  182.08    7.50
  -8  -2   5  175.58    7.70
  -8  -2   5  167.38    7.80
   7   2  -5  777.02   29.00
   7   2  -5  727.73   29.20
   7   2  -5  724.43   28.60
   7   2  -5  745.93   29.10
   7   2  -5  736.63   30.60
  -7  -2   5  630.64   25.60
  -7  -2   5  647.84   25.50
   6   2  -5  466.55   18.10
   6   2  -5  451.15   18.20
   6   2  -5  453.05   18.20
   6   2  -5  446.16   18.90
   6   2  -5  442.06   20.10
   6   2  -5  433.36   18.30
   6   2  -5  445.56   17.80
  -6  -2   5  405.56   16.80
  -6  -2   5  355.16   19.50
  -6  -2   5  412.66   16.90
  -6  -2   5  421.66   16.90
   5   2  -5  934.31   37.30
   5   2  -5  979.00   37.70
   5   2  -5  948.71   37.10
   5   2  -5  970.80   37.70
   5   2  -5  961.40   39.50
  -5  -2   5  906.41   37.80
  -5  -2   5  857.61   35.10
  -5  -2   5  858.61   35.10
  -5  -2   5  922.61   35.30
   4   2  -5   90.39    5.00
   4   2  -5   73.79    6.60
   4   2  -5   91.59    4.40
   4   2  -5   92.39    4.30
   4   2  -5   90.89    4.90
  -4  -2   5   84.39    5.60
  -4  -2   5   90.69    5.20
  -4  -2   5   82.19    6.30
   3   2  -5  739.43   28.20
   3   2  -5  719.13   28.50
   3   2  -5  716.53   28.20
   3   2  -5  707.53   29.90
   3   2  -5  727.73   28.50
   3   2  -5  722.83   28.30
  -3  -2   5  710.73   28.20
  -3  -2   5  750.02   30.10
  -3  -2   5  678.13   28.10
  -3  -2   5  706.63   28.60
  -3  -2   5  718.33   28.30
   2   2  -5  187.98    8.10
   2   2  -5  184.68    9.90
   2   2  -5  192.78    8.30
   2   2  -5  203.78    8.70
   2   2  -5  191.68    8.50
   2   2  -5  193.98    8.30
  -2  -2   5  202.28    8.40
  -2  -2   5  200.48    9.90
  -2  -2   5  195.88    8.90
  -2  -2   5  194.08    8.70
  -2  -2   5  183.48    9.20
  -2  -2   5  212.68    8.70
  -2  -2   5  196.58   10.00
   1   2  -5  590.04   24.00
   1   2  -5  599.44   26.00
   1   2  -5  596.34   23.90
   1   2  -5  650.93   24.60
   1   2  -5  623.04   24.60
   1   2  -5  600.84   24.10
  -1  -2   5  622.04   24.10
  -1  -2   5  627.84   24.70
  -1  -2   5  627.04   24.70
  -1  -2   5  600.94   24.40
  -1  -2   5  651.53   24.20
  -1  -2   5  573.74   24.00
   0   2  -5  465.55   21.10
   0   2  -5  478.75   19.10
   0   2  -5  475.35   19.10
   0   2  -5  464.55   19.60
   0   2  -5  520.85   19.70
   0   2  -5  466.55   19.10
   0  -2   5  522.85   20.90
   0  -2   5  531.15   20.90
   0  -2   5  543.45   21.60
   0  -2   5  541.85   21.60
   0  -2   5  483.35   21.70
   0  -2   5  577.64   22.00
  -1   2  -5  273.87   12.00
  -1   2  -5  301.47   13.10
  -1   2  -5  287.97   12.10
  -1   2  -5  312.17   12.90
  -1   2  -5  313.27   13.00
   1  -2   5  351.86   14.90
   1  -2   5  318.77   14.40
   1  -2   5  341.07   14.20
   1  -2   5  319.07   13.40
   1  -2   5  316.17   14.50
   1  -2   5  349.47   14.30
   1  -2   5  340.07   13.40
  -2   2  -5  259.87   11.10
  -2   2  -5  269.97   11.30
  -2   2  -5  266.17   11.10
  -2   2  -5  274.87   12.00
   2  -2   5  299.47   11.90
   2  -2   5  287.97   11.90
   2  -2   5  301.77   12.80
   2  -2   5  281.77   13.80
   2  -2   5  286.87   12.70
   2  -2   5  291.17   12.80
   2  -2   5  289.07   12.60
   2  -2   5  283.47   11.80
  -3   2  -5  436.56   18.00
  -3   2  -5  427.26   19.00
  -3   2  -5  456.85   18.70
  -3   2  -5  459.15   18.10
  -3   2  -5  453.65   17.80
  -3   2  -5  436.36   18.20
  -3   2  -5  458.25   18.50
   3  -2   5  492.55   20.40
   3  -2   5  492.05   20.00
   3  -2   5  469.15   19.10
   3  -2   5  492.95   20.30
   3  -2   5  478.75   20.20
   3  -2   5  479.45   20.10
  -4   2  -5   11.20    2.10
  -4   2  -5    2.90    2.70
  -4   2  -5    5.80    2.50
  -4   2  -5    8.60    1.30
  -4   2  -5    8.00    1.40
  -4   2  -5    4.00    2.30
  -4   2  -5   13.20    2.50
   4  -2   5   11.40    2.30
   4  -2   5    9.10    5.10
   4  -2   5    6.80    1.50
   4  -2   5    4.00    2.30
   4  -2   5    5.90    1.60
   4  -2   5    6.30    2.50
  -5   2  -5   67.29    5.10
  -5   2  -5   71.69    4.10
  -5   2  -5   72.09    3.70
  -5   2  -5   69.39    4.40
  -5   2  -5   61.79    6.00
   5  -2   5   75.79    4.70
   5  -2   5   77.29    4.80
   5  -2   5   70.69    4.50
  -6   2  -5   52.39    3.30
  -6   2  -5   55.19    5.10
   6  -2   5   56.09    3.40
   6  -2   5   64.39    3.70
   8   1  -5   41.20    4.40
   8   1  -5   34.40    2.30
   8   1  -5   35.10    2.30
  -8  -1   5   31.00    2.90
  -8  -1   5   30.70    2.50
   7   1  -5  211.68    8.90
   7   1  -5  205.78    8.80
   7   1  -5  199.98    9.10
  -7  -1   5  187.58    8.80
  -7  -1   5  187.08    8.80
  -7  -1   5  193.38    9.30
   6   1  -5   13.40    3.00
   6   1  -5   15.80    1.60
   6   1  -5   20.00    2.20
   6   1  -5   17.90    2.20
   6   1  -5   13.20    1.90
  -6  -1   5   20.60    3.40
  -6  -1   5   23.40    6.00
  -6  -1   5   15.00    2.50
  -6  -1   5   13.10    2.70
  -5  -1   5   26.50    2.80
  -5  -1   5   21.80    3.30
  -5  -1   5   23.10    4.30
  -5  -1   5   20.60    5.00
   4   1  -5  744.93   29.80
   4   1  -5  771.62   31.90
   4   1  -5  764.32   31.20
   4   1  -5  770.32   31.80
  -4  -1   5  708.03   28.80
  -4  -1   5  749.82   30.90
  -4  -1   5  728.53   29.00
   3   1  -5  112.89    5.70
   3   1  -5   96.89    8.50
   3   1  -5  117.39    5.70
   3   1  -5  123.19    8.00
   3   1  -5  122.79    5.80
   3   1  -5  115.49    5.30
  -3  -1   5  124.59    5.60
  -3  -1   5  121.49    5.60
  -3  -1   5  111.39    6.00
  -3  -1   5   97.09    8.60
  -3  -1   5  121.49    6.90
   2   1  -5  737.33   28.00
   2   1  -5  719.03   27.90
   2   1  -5  722.43   29.70
   2   1  -5  700.13   29.50
   2   1  -5  691.93   28.20
   2   1  -5  725.73   27.90
   2   1  -5  731.33   28.20
   2   1  -5  721.23   28.10
  -2  -1   5  748.83   29.40
  -2  -1   5  749.73   29.30
  -2  -1   5  755.72   29.50
   1   1  -5  818.22   32.20
   1   1  -5  767.52   30.70
   1   1  -5  777.62   30.60
  -1  -1   5  811.02   31.30
  -1  -1   5  805.62   31.60
  -1  -1   5  807.22   31.60
  -1  -1   5  826.92   31.70
  -1  -1   5  803.42   31.20
   0   1  -5  315.57   12.60
   0   1  -5  277.67   12.10
   0   1  -5  280.37   12.20
   0   1  -5  320.07   12.00
   0   1  -5  311.67   13.80
   0  -1   5  326.97   13.10
   0  -1   5  335.97   13.50
   0  -1   5  317.87   13.00
   0  -1   5  333.17   13.50
  -1   1  -5  210.48    9.00
  -1   1  -5  205.28    8.90
  -1   1  -5  222.48    9.30
  -1   1  -5  210.78    8.90
  -1   1  -5  215.08    9.60
  -1   1  -5  198.08    9.30
  -1   1  -5  214.48    8.60
   1  -1   5  216.48   10.60
   1  -1   5  243.38    9.70
   1  -1   5  228.58    9.90
   1  -1   5  244.68    9.70
   1  -1   5  244.58   10.20
   1  -1   5  245.48   10.20
  -2   1  -5  219.58    9.30
  -2   1  -5  224.38    9.80
  -2   1  -5  210.78    8.80
  -2   1  -5  181.28   10.30
  -2   1  -5  212.08    9.10
  -2   1  -5  209.28    9.00
  -2   1  -5  215.68   10.20
  -2   1  -5  216.88    9.50
   2  -1   5  232.58    9.70
   2  -1   5  223.68   11.00
   2  -1   5  228.08   10.30
   2  -1   5  192.78   11.00
   2  -1   5  221.28    9.30
   2  -1   5  254.67   10.10
   2  -1   5  224.18    9.40
  -3   1  -5   47.70    3.40
  -3   1  -5   50.79    3.80
  -3   1  -5   50.09    3.90
  -3   1  -5   46.40    3.10
  -3   1  -5   44.30    3.70
  -3   1  -5   52.29    3.50
  -3   1  -5   49.60    3.20
   3  -1   5   48.20    3.90
   3  -1   5   57.19    3.70
   3  -1   5   51.49    5.00
   3  -1   5   46.70    3.50
   3  -1   5   54.69    3.20
   3  -1   5   53.29    3.10
   3  -1   5   50.79    3.10
  -4   1  -5   49.70    4.70
  -4   1  -5   55.89    3.50
  -4   1  -5   51.09    3.10
  -4   1  -5   45.70    4.20
  -4   1  -5   51.89    3.90
  -4   1  -5   49.50    5.80
  -4   1  -5   54.29    3.90
   4  -1   5   56.69    3.90
   4  -1   5   60.09    4.40
   4  -1   5   59.19    4.60
   4  -1   5   57.49    9.30
   4  -1   5   55.69    4.00
   4  -1   5   46.90    3.20
   4  -1   5   58.19    4.10
  -5   1  -5  332.17   14.20
  -5   1  -5  307.37   13.20
  -5   1  -5  326.07   14.90
  -5   1  -5  346.17   13.70
  -5   1  -5  329.67   14.20
   5  -1   5  342.27   14.40
   5  -1   5  291.67   29.40
   5  -1   5  347.87   15.00
   5  -1   5  364.86   14.90
   5  -1   5  362.86   14.90
  -6   1  -5   22.90    3.30
  -6   1  -5   15.50    3.30
  -6   1  -5   17.00    2.60
  -6   1  -5   14.10    2.30
   6  -1   5   18.00    2.70
   6  -1   5   16.20    2.40
   8   0  -5    9.90    1.50
  -8   0   5    9.10    1.80
   7   0  -5  130.99    9.30
  -7   0   5   26.90    3.10
  -7   0   5   26.80    3.40
  -7   0   5   23.70    3.10
   6   0  -5  227.28   12.80
  -6   0   5   69.09    5.10
  -6   0   5   69.99    4.80
  -6   0   5   66.59    4.40
  -6   0   5   64.69    8.20
   5   0  -5  341.47   19.60
   5   0  -5  382.76   16.10
   5   0  -5  433.36   17.50
   5   0  -5  387.66   16.00
   5   0  -5  395.36   18.00
   5   0  -5  381.06   15.80
   5   0  -5  382.36   15.30
   5   0  -5  395.06   15.80
  -5   0   5  344.27   15.10
  -5   0   5  367.96   15.00
  -5   0   5  366.16   17.10
  -5   0   5  344.17   15.40
   4   0  -5  130.89    5.70
   4   0  -5  118.79    7.30
   4   0  -5  132.79    8.50
   4   0  -5  122.29    6.30
  -4   0   5  138.69    7.70
  -4   0   5  117.49    6.60
  -4   0   5  119.69    5.80
   3   0  -5  101.59    5.40
   3   0  -5   97.29    6.30
   3   0  -5   90.09    6.10
   3   0  -5   95.29    4.30
   3   0  -5   78.89    5.60
   3   0  -5  102.29    4.60
   3   0  -5   94.29    6.40
   3   0  -5   96.49    4.90
   3   0  -5   95.59    4.70
   3   0  -5   96.69    6.40
  -3   0   5   93.89    4.60
  -3   0   5  100.29    5.90
   2   0  -5   52.99    3.80
   2   0  -5   58.19    3.30
   2   0  -5   60.79    3.40
   2   0  -5   55.19    3.00
  -2   0   5   54.89    4.60
  -2   0   5   56.29    2.90
  -2   0   5   55.69    3.00
  -2   0   5   52.49    2.80
  -2   0   5   51.09    2.90
   1   0  -5  198.18    9.30
  -1   0   5  170.68    7.00
  -1   0   5  160.78    7.80
  -1   0   5  170.18    7.00
  -1   0   5  151.28    6.80
   0   0  -5  750.92   30.40
   0   0  -5  767.32   29.50
   0   0  -5  748.63   29.00
   0   0   5  790.32   29.90
   0   0   5  704.33   29.60
   0   0   5  774.72   29.50
   0   0   5  762.02   29.60
   0   0   5  811.02   29.90
  -1   0  -5  602.64   23.40
  -1   0  -5  610.44   24.20
  -1   0  -5  559.34   22.80
   1   0   5  609.14   24.70
   1   0   5  617.84   23.90
   1   0   5  620.94   24.20
   1   0   5  603.34   25.20
   1   0   5  629.04   24.20
  -2   0  -5   19.70    1.70
  -2   0  -5   20.80    2.70
  -2   0  -5   18.30    2.30
  -2   0  -5   16.60    2.40
  -2   0  -5   21.40    1.90
  -2   0  -5   15.90    2.10
   2   0   5   17.40    2.20
   2   0   5   18.30    3.70
   2   0   5   19.40    1.50
   2   0   5   21.70    1.80
  -3   0  -5    4.30    1.80
  -3   0  -5    0.00    1.00
  -3   0  -5    1.00    2.00
  -3   0  -5    2.60    1.60
  -3   0  -5   -1.10    2.30
  -3   0  -5    1.70    1.10
  -3   0  -5    4.20    1.90
  -3   0  -5    4.30    1.20
   3   0   5   -2.10    2.00
   3   0   5    5.60    2.30
   3   0   5    1.10    0.90
   3   0   5    2.20    0.90
   3   0   5   -0.60    0.80
   3   0   5    0.40    1.50
   3   0   5    1.50    1.00
   3   0   5   -0.30    1.10
  -4   0  -5   86.39    5.10
  -4   0  -5   81.79    5.00
  -4   0  -5   84.99    4.30
  -4   0  -5   91.29    4.80
  -4   0  -5   90.79    5.30
  -4   0  -5   87.99    5.30
  -4   0  -5   89.59    5.70
   4   0   5   97.99    5.40
   4   0   5   93.09    6.00
   4   0   5   92.59    5.60
   4   0   5   97.59    4.90
   4   0   5   98.19    5.30
   4   0   5  106.59    4.90
   4   0   5  102.19    5.10
   4   0   5  107.29    5.80
  -5   0  -5  439.86   17.90
  -5   0  -5  429.86   17.30
  -5   0  -5  403.66   16.80
  -5   0  -5  417.36   17.70
  -5   0  -5  421.66   18.60
   5   0   5  464.85   19.60
   5   0   5  457.95   19.50
   5   0   5  454.05   19.20
   5   0   5  498.35   19.70
  -6   0  -5   18.20    4.20
  -6   0  -5   27.30    3.40
  -6   0  -5   18.30    2.80
  -6   0  -5   20.30    3.50
   6   0   5   17.40    2.80
   6   0   5   21.30    2.70
   6   0   5   20.10    2.90
  -7   0  -5   54.79    5.20
  -7   0  -5   53.89    3.20
  -7   0  -5   42.30    3.90
   7   0   5   61.19    3.40
   7   0   5   61.29    3.60
  -7   1   5   22.10    3.10
  -7   1   5   17.40    3.30
  -7   1   5   20.30    3.10
   6  -1  -5  402.16   18.60
   6  -1  -5  415.86   16.40
   6  -1  -5  375.86   24.30
   6  -1  -5  412.76   16.50
   6  -1  -5  419.16   16.90
  -6   1   5  390.86   16.30
  -6   1   5  389.66   16.10
  -6   1   5  365.86   16.10
   5  -1  -5    1.00    1.20
   5  -1  -5    0.90    2.40
   5  -1  -5    4.10    1.20
   5  -1  -5    2.90    1.10
   5  -1  -5    1.90    1.00
   5  -1  -5    2.20    1.10
   5  -1  -5    1.20    1.90
   5  -1  -5    1.90    3.90
  -5   1   5    2.60    2.00
  -5   1   5    0.90    2.30
  -5   1   5    2.40    1.20
   4  -1  -5   61.29    6.40
   4  -1  -5   57.79    3.50
   4  -1  -5   63.09    3.40
   4  -1  -5   60.09    4.50
   4  -1  -5   63.29    3.10
  -4   1   5   60.99    4.60
  -4   1   5   60.69    4.80
  -4   1   5   62.09    3.40
   3  -1  -5   79.19    4.70
   3  -1  -5   76.89    6.50
   3  -1  -5   70.79    4.10
   3  -1  -5   70.29    3.90
   3  -1  -5   71.79    5.50
   3  -1  -5   75.89    5.10
   3  -1  -5   82.69    4.90
   3  -1  -5   80.79    4.10
  -3   1   5   79.89    7.40
  -3   1   5   79.59    3.80
  -3   1   5   81.99    5.10
   2  -1  -5 1290.67   50.99
   2  -1  -5 1281.57   50.39
  -2   1   5 1251.27   48.10
  -2   1   5 1261.97   48.10
  -2   1   5 1256.27   50.09
  -2   1   5 1240.28   48.00
  -2   1   5 1283.97   48.20
   1  -1  -5   42.40    4.20
  -1   1   5   58.29    2.90
  -1   1   5   58.49    2.80
   0  -1  -5 3126.59  119.89
   0  -1  -5 3200.08  120.89
   0   1   5 2951.30  115.09
   0   1   5 3118.79  114.79
   0   1   5 3018.40  115.09
  -1  -1  -5  322.37   12.70
  -1  -1  -5  325.57   13.50
  -1  -1  -5  318.17   12.90
   1   1   5  314.17   13.20
   1   1   5  347.27   13.50
   1   1   5  339.27   13.10
   1   1   5  336.07   13.60
  -2  -1  -5  532.25   22.20
  -2  -1  -5  573.24   21.90
  -2  -1  -5  538.05   22.60
  -2  -1  -5  621.74   24.20
  -2  -1  -5  559.54   22.20
  -2  -1  -5  593.04   22.70
  -2  -1  -5  523.05   22.20
   2   1   5  617.64   23.70
   2   1   5  590.54   23.40
   2   1   5  580.04   25.20
   2   1   5  618.34   23.70
   2   1   5  599.34   23.40
  -3  -1  -5   82.39    5.00
  -3  -1  -5   98.09    5.10
  -3  -1  -5  100.29    4.90
  -3  -1  -5  100.69    5.40
  -3  -1  -5  103.89    5.50
  -3  -1  -5   99.19    5.60
  -3  -1  -5  103.89    5.90
  -3  -1  -5   97.99    5.10
  -3  -1  -5   97.59    5.50
  -3  -1  -5  103.79    4.90
   3   1   5  114.39    5.20
   3   1   5  103.59    5.70
   3   1   5  113.29    4.90
   3   1   5  114.49    5.00
   3   1   5  112.99    5.60
   3   1   5   98.09    6.70
   3   1   5   99.59    5.10
  -4  -1  -5  235.38   10.50
  -4  -1  -5  216.48    9.70
  -4  -1  -5  228.48   10.20
  -4  -1  -5  228.48   10.40
  -4  -1  -5  237.18   11.00
  -4  -1  -5  235.78   10.60
  -4  -1  -5  252.97   10.20
   4   1   5  249.18   13.20
   4   1   5  274.27   11.50
   4   1   5  275.77   11.50
   4   1   5  254.37   11.70
   4   1   5  264.37   11.00
   4   1   5  274.87   11.10
   4   1   5  264.47   11.10
  -5  -1  -5   53.49    3.90
  -5  -1  -5   54.79    4.00
  -5  -1  -5   52.99    3.90
  -5  -1  -5   51.39    3.40
  -5  -1  -5   47.50    4.60
   5   1   5   59.59    4.10
   5   1   5   60.59    3.40
   5   1   5   63.09    4.40
   5   1   5   61.89    4.50
   5   1   5   57.29    4.70
  -6  -1  -5   63.39    4.30
  -6  -1  -5   63.39    4.80
  -6  -1  -5   66.39    5.00
  -6  -1  -5   58.79    5.10
   6   1   5   68.39    4.60
   6   1   5   68.79    4.30
   6   1   5   70.09    4.40
  -7  -1  -5   13.00    2.20
  -7  -1  -5   14.50    3.70
  -7  -1  -5   12.20    2.10
   7   1   5   11.10    2.10
   7   1   5   13.80    2.10
   7   1   5   13.10    2.30
   7  -2  -5  108.19    5.30
  -7   2   5   89.79    5.40
  -7   2   5   95.79    5.30
  -7   2   5   91.19    5.20
   6  -2  -5  168.78    7.90
   6  -2  -5  169.18    8.60
   6  -2  -5  174.58    8.10
   6  -2  -5  197.28    9.30
   6  -2  -5  157.58   16.30
   6  -2  -5  173.48    9.70
  -6   2   5  166.98    7.70
  -6   2   5  155.28    7.90
  -6   2   5  157.38    9.70
   5  -2  -5  717.83   27.40
   5  -2  -5  669.53   27.40
   5  -2  -5  662.73   26.70
   5  -2  -5  662.33   31.90
   5  -2  -5  682.03   29.00
   5  -2  -5  694.93   26.90
   5  -2  -5  687.13   28.50
  -5   2   5  593.74   25.80
  -5   2   5  601.04   24.70
  -5   2   5  651.03   24.60
   4  -2  -5  588.64   27.30
   4  -2  -5  590.94   23.90
   4  -2  -5  605.34   25.40
   4  -2  -5  589.94   23.40
   4  -2  -5  575.24   25.00
   4  -2  -5  604.54   25.00
   4  -2  -5  620.84   24.10
  -4   2   5  568.74   23.90
  -4   2   5  553.74   22.00
   3  -2  -5 1170.38   46.40
   3  -2  -5 1193.78   46.80
   3  -2  -5 1185.38   47.00
   3  -2  -5 1218.98   46.60
   3  -2  -5 1265.07   49.60
   3  -2  -5 1226.58   47.80
   3  -2  -5 1197.68   48.00
  -3   2   5 1220.18   48.90
  -3   2   5 1199.68   46.40
  -3   2   5 1232.98   48.10
   2  -2  -5 1015.70   41.30
  -2   2   5  967.90   37.80
  -2   2   5  945.51   39.50
  -2   2   5 1008.70   37.60
  -2   2   5  983.40   38.70
  -2   2   5  980.90   37.60
  -2   2   5 1004.70   39.40
  -1   2   5  950.70   38.00
  -1   2   5 1008.20   37.90
  -1   2   5 1002.80   39.30
  -1   2   5 1034.60   39.50
  -1   2   5  958.60   38.00
   0  -2  -5 4771.42  181.28
   0   2   5 4861.81  197.68
   0   2   5 5632.44  197.68
   0   2   5 5329.97  197.28
   0   2   5 5727.03  197.58
   0   2   5 4548.25  197.38
  -1  -2  -5 2257.57   82.59
  -1  -2  -5 2090.49   82.89
   1   2   5 2192.88   86.69
   1   2   5 2294.67   87.09
   1   2   5 2345.17   89.89
   1   2   5 2323.87   86.69
   1   2   5 2269.17   86.89
  -2  -2  -5 1801.32   64.89
  -2  -2  -5 1724.03   64.79
  -2  -2  -5 1617.34   65.69
  -2  -2  -5 1665.73   64.99
   2   2   5 1810.42   68.39
   2   2   5 1802.52   68.59
   2   2   5 1829.82   68.29
   2   2   5 1776.22   69.79
   2   2   5 1743.53   68.69
  -3  -2  -5 1150.88   44.90
  -3  -2  -5 1181.68   45.30
  -3  -2  -5 1234.98   45.70
  -3  -2  -5 1117.29   44.80
  -3  -2  -5 1150.38   44.90
  -3  -2  -5 1109.19   44.70
  -3  -2  -5 1167.18   44.50
  -3  -2  -5 1169.78   45.40
  -3  -2  -5 1146.69   44.50
  -3  -2  -5 1136.09   44.80
   3   2   5 1212.08   46.40
   3   2   5 1222.78   47.00
   3   2   5 1171.48   46.50
   3   2   5 1236.68   46.40
   3   2   5 1187.98   46.90
   3   2   5 1241.28   46.70
   3   2   5 1199.88   46.70
   3   2   5 1183.98   48.00
  -4  -2  -5  130.49    6.30
  -4  -2  -5  129.29    6.80
  -4  -2  -5  111.09    6.10
  -4  -2  -5  110.89    8.10
   4   2   5  130.59    7.00
   4   2   5  141.39    6.50
   4   2   5  139.49    6.20
   4   2   5  137.79    6.20
   4   2   5  139.29    6.50
  -5  -2  -5  155.08    8.40
  -5  -2  -5  162.78    7.80
  -5  -2  -5  151.08    7.30
  -5  -2  -5  133.59    7.70
   5   2   5  158.38    8.10
   5   2   5  170.38    7.40
   5   2   5  164.78    7.60
   5   2   5  160.28    8.30
   5   2   5  174.88    7.40
   5   2   5  175.18    8.00
   5   2   5  169.28    8.20
   5   2   5  162.98    7.90
  -6  -2  -5  238.78   10.80
  -6  -2  -5  235.68   11.60
  -6  -2  -5  236.38   10.80
  -6  -2  -5  226.68   10.40
   6   2   5  261.37   11.50
   6   2   5  240.58   11.30
   6   2   5  263.77   11.30
  -7  -2  -5  186.48    8.60
  -7  -2  -5  179.98    9.30
  -7  -2  -5  187.48    8.70
   7   2   5  212.48    9.10
   7   2   5  211.18    9.30
   7   2   5  198.58    9.20
   7  -3  -5  112.79    5.40
   7  -3  -5  116.39    7.00
  -7   3   5   92.99    5.40
  -7   3   5   82.09    5.80
  -7   3   5  100.89    5.30
   6  -3  -5   59.59    4.30
   6  -3  -5   66.79    5.00
   6  -3  -5   55.49    5.10
   6  -3  -5   59.29    3.80
  -6   3   5   46.50    7.60
  -6   3   5   46.80    3.70
  -6   3   5   47.90    4.20
  -6   3   5   56.69    5.50
   5  -3  -5    3.10    1.10
   5  -3  -5    7.00    4.50
   5  -3  -5    4.70    1.80
   5  -3  -5    4.90    1.80
  -5   3   5    3.10    1.80
   4  -3  -5  312.77   14.90
   4  -3  -5  319.37   14.50
   4  -3  -5  327.87   13.50
   4  -3  -5  316.67   13.20
   4  -3  -5  318.97   17.50
   4  -3  -5  316.47   13.30
   4  -3  -5  301.47   13.50
  -4   3   5  289.67   11.80
   3  -3  -5  888.51   34.80
   3  -3  -5  934.61   38.00
   3  -3  -5  781.02   35.20
   3  -3  -5  877.01   36.20
   3  -3  -5  951.10   35.00
  -3   3   5  897.31   35.80
  -3   3   5  897.61   34.30
   2  -3  -5  102.79    6.00
   2  -3  -5   98.59    5.10
   2  -3  -5  109.89    7.10
  -2   3   5  111.69    7.30
  -2   3   5  115.59    8.90
  -2   3   5  113.99    4.90
  -2   3   5  108.29    5.70
  -1   3   5 1117.29   44.50
  -1   3   5 1080.79   44.00
  -1   3   5 1144.49   43.20
  -1   3   5 1172.58   44.90
   0  -3  -5 1055.79   41.00
   0   3   5 1183.38   45.70
   0   3   5 1247.18   46.00
   0   3   5 1162.78   47.00
   0   3   5 1200.18   45.50
   0   3   5 1160.88   46.40
  -1  -3  -5 4698.33  177.88
   1   3   5 4493.65  179.98
   1   3   5 4997.20  181.48
  -2  -3  -5  144.59    6.10
   2   3   5  153.58    7.00
   2   3   5  154.88    6.60
   2   3   5  153.78    6.40
   2   3   5  157.68    8.40
  -3  -3  -5 1581.84   60.69
  -3  -3  -5 1537.85   60.89
  -3  -3  -5 1547.75   61.99
  -3  -3  -5 1664.53   60.39
  -3  -3  -5 1600.64   61.39
  -3  -3  -5 1555.14   60.59
  -3  -3  -5 1539.75   60.99
  -3  -3  -5 1569.54   60.69
  -3  -3  -5 1586.54   60.59
   3   3   5 1792.12   65.79
   3   3   5 1618.34   65.39
   3   3   5 1751.02   66.19
   3   3   5 1715.53   65.59
   3   3   5 1815.72   68.49
   3   3   5 1581.04   65.39
  -4  -3  -5  279.87   12.00
  -4  -3  -5  277.17   12.70
  -4  -3  -5  277.47   11.80
   4   3   5  300.97   13.50
   4   3   5  320.37   12.40
   4   3   5  309.47   12.60
   4   3   5  306.67   13.30
   4   3   5  252.87   14.90
   4   3   5  302.67   12.30
  -5  -3  -5  641.44   26.30
  -5  -3  -5  654.43   27.00
  -5  -3  -5  680.03   26.80
  -5  -3  -5  669.03   27.50
   5   3   5  690.33   27.70
   5   3   5  711.23   27.30
   5   3   5  675.63   28.70
   5   3   5  696.03   27.20
   5   3   5  693.93   27.20
   5   3   5  682.93   28.10
   5   3   5  718.33   27.90
   5   3   5  693.33   27.80
   5   3   5  677.33   27.50
  -6  -3  -5   57.19    4.60
  -6  -3  -5   59.39    4.10
  -6  -3  -5   55.39    5.10
  -6  -3  -5   54.39    4.00
   6   3   5   60.79    4.30
   6   3   5   60.49    3.90
   6   3   5   56.39    4.40
   6   3   5   60.99    3.20
  -7  -3  -5  293.47   12.60
  -7  -3  -5  293.07   12.70
  -7  -3  -5  280.47   13.20
   7   3   5  324.67   13.40
   7   3   5  322.17   13.60
   7   3   5  312.37   13.40
  -8  -3  -5   25.60    3.60
  -8  -3  -5   24.30    2.60
   8   3   5   16.60    3.00
   8   3   5   17.60    2.50
   6  -4  -5   92.89    6.10
   6  -4  -5   98.89    6.30
   6  -4  -5   95.59    5.30
   6  -4  -5   96.09    4.90
  -6   4   5   84.19    5.20
  -6   4   5   81.39    5.00
   5  -4  -5    3.40    1.20
   5  -4  -5    2.90    1.60
   5  -4  -5    3.40    1.30
   5  -4  -5    0.00    5.90
   5  -4  -5    5.60    1.90
  -5   4   5    4.70    2.80
  -5   4   5    4.80    1.60
  -5   4   5    3.20    2.40
   4  -4  -5  715.73   29.10
   4  -4  -5  727.53   30.00
   4  -4  -5  746.93   28.90
   4  -4  -5  714.53   33.60
   4  -4  -5  716.73   30.40
  -4   4   5  706.03   26.90
  -4   4   5  671.43   28.00
   3  -4  -5   58.59    6.10
   3  -4  -5   53.49    4.90
   3  -4  -5   56.59    4.30
   3  -4  -5   51.19    3.30
  -3   4   5   61.79    2.90
  -3   4   5   62.79    3.80
   2  -4  -5  385.36   17.10
   2  -4  -5  391.26   15.90
   2  -4  -5  413.46   16.80
   2  -4  -5  358.56   18.70
   2  -4  -5  425.96   19.20
   2  -4  -5  367.86   16.10
   2  -4  -5  373.26   15.90
   2  -4  -5  411.26   16.40
  -2   4   5  440.46   17.90
  -2   4   5  417.46   17.20
   1  -4  -5  276.27   11.70
   1  -4  -5  277.77   11.70
  -1   4   5  291.47   14.40
  -1   4   5  304.67   14.10
  -1   4   5  326.47   12.50
  -1   4   5  328.77   12.50
  -1   4   5  304.07   14.10
   0   4   5   51.59    4.60
   0   4   5   41.90    4.00
   0   4   5   45.60    2.90
   0   4   5   45.30    2.60
   0   4   5   44.80    3.50
  -1  -4  -5  133.09    5.60
   1   4   5  119.09    7.30
   1   4   5  132.29    6.00
   1   4   5  135.29    5.30
  -2  -4  -5  786.12   32.20
  -2  -4  -5  799.12   31.20
  -2  -4  -5  811.82   31.20
  -2  -4  -5  768.82   31.20
  -2  -4  -5  791.62   31.40
  -2  -4  -5  844.42   30.80
  -2  -4  -5  783.12   31.70
  -2  -4  -5  784.82   31.10
   2   4   5  879.01   34.60
   2   4   5  909.71   34.50
   2   4   5  850.81   33.80
  -3  -4  -5   39.00    2.90
  -3  -4  -5   37.80    3.40
  -3  -4  -5   43.50    3.10
  -3  -4  -5   37.80    2.70
  -3  -4  -5   39.10    3.70
  -3  -4  -5   43.80    3.30
  -3  -4  -5   45.20    3.90
  -3  -4  -5   38.20    3.70
   3   4   5   43.50    2.40
   3   4   5   43.90    2.60
   3   4   5   36.90    3.30
  -4  -4  -5  158.38    8.80
  -4  -4  -5  165.78    7.70
  -4  -4  -5  120.69    8.40
  -4  -4  -5  123.59    7.30
  -4  -4  -5  165.48    8.10
   4   4   5  176.48    8.90
   4   4   5  182.48    7.80
   4   4   5  185.48    7.90
  -5  -4  -5  504.15   21.40
  -5  -4  -5  483.45   20.80
  -5  -4  -5  498.35   20.20
  -5  -4  -5  500.15   20.50
   5   4   5  523.85   21.90
   5   4   5  532.65   20.90
   5   4   5  489.85   21.50
   5   4   5  531.05   20.90
   5   4   5  540.45   21.50
   5   4   5  530.85   21.40
   5   4   5  525.65   22.50
   5   4   5  526.15   21.00
  -6  -4  -5   65.89    4.50
  -6  -4  -5   57.69    4.70
  -6  -4  -5   65.89    5.50
  -6  -4  -5   61.59    4.30
   6   4   5   58.59    4.90
   6   4   5   69.49    4.00
   6   4   5   73.99    5.00
   6   4   5   69.19    4.30
   6   4   5   65.79    3.50
  -7  -4  -5  111.89    6.20
  -7  -4  -5  108.19    6.80
  -7  -4  -5  117.39    6.00
   7   4   5  122.09    6.20
   7   4   5  107.79    6.10
   7   4   5  129.89    6.00
   7   4   5  114.59    6.20
  -8  -4  -5   42.90    4.60
  -8  -4  -5   35.70    3.20
   8   4   5   44.40    2.50
   6  -5  -5  288.87   12.80
   6  -5  -5  317.07   13.60
   6  -5  -5  315.77   13.80
  -6   5   5  270.17   11.70
  -6   5   5  270.47   11.50
  -6   5   5  245.58   13.50
  -6   5   5  277.37   11.60
   5  -5  -5   55.29    4.00
   5  -5  -5   52.79    4.90
   5  -5  -5   54.09    5.70
   5  -5  -5   50.09    3.90
  -5   5   5   54.59    4.50
  -5   5   5   56.39    3.90
   4  -5  -5 1247.88   49.80
   4  -5  -5 1219.68   47.90
   4  -5  -5 1237.58   48.40
   4  -5  -5 1208.08   53.69
   4  -5  -5 1262.47   49.50
  -4   5   5 1255.57   45.80
  -4   5   5 1115.99   47.00
   3  -5  -5   85.09    6.00
   3  -5  -5   70.69    4.60
   3  -5  -5   75.79    8.70
   3  -5  -5   74.09    4.60
   3  -5  -5   77.79    5.10
  -3   5   5   74.39    4.90
  -3   5   5   76.59    3.60
   2  -5  -5  624.44   25.20
   2  -5  -5  538.65   26.00
   2  -5  -5  663.73   25.70
   2  -5  -5  605.74   27.80
  -2   5   5  656.03   26.10
   1  -5  -5   55.29    3.70
   1  -5  -5   47.90    3.80
   1  -5  -5   51.69    3.30
   1  -5  -5   58.39    4.30
   1  -5  -5   50.29    4.70
  -1   5   5   56.89    3.50
   0  -5  -5  751.12   29.90
   0  -5  -5  776.82   30.30
   0  -5  -5  773.52   29.80
   0  -5  -5  723.83   30.20
   0  -5  -5  751.42   29.70
   0   5   5  817.12   31.50
   0   5   5  840.12   33.10
   0   5   5  815.02   32.60
  -1  -5  -5  120.29    6.40
  -1  -5  -5  120.89    6.10
  -1  -5  -5  118.29    5.90
  -1  -5  -5  135.79    7.30
  -1  -5  -5  114.19    6.00
  -1  -5  -5  120.29    5.90
  -1  -5  -5  123.69    5.20
  -1  -5  -5  117.19    6.40
   1   5   5  132.49    6.20
   1   5   5  109.69    5.80
   1   5   5  131.09    5.20
  -2  -5  -5   60.19    4.40
  -2  -5  -5   58.89    3.20
  -2  -5  -5   60.79    5.30
  -2  -5  -5   64.69    4.40
  -2  -5  -5   60.99    3.70
  -2  -5  -5   62.19    3.90
  -2  -5  -5   63.59    4.50
   2   5   5   65.79    3.20
   2   5   5   70.99    4.10
   2   5   5   62.59    3.80
  -3  -5  -5   67.19    4.40
  -3  -5  -5   72.99    4.10
  -3  -5  -5   69.59    4.40
  -3  -5  -5   67.59    4.00
  -3  -5  -5   74.09    4.30
  -3  -5  -5   68.29    4.80
  -3  -5  -5   68.79    4.20
   3   5   5   64.49    4.60
   3   5   5   72.79    4.70
   3   5   5   81.89    3.80
   3   5   5   75.09    3.60
   3   5   5   74.59    4.30
  -4  -5  -5  172.38    8.10
  -4  -5  -5  168.98    7.90
  -4  -5  -5  167.08    8.20
  -4  -5  -5  160.48    8.30
  -4  -5  -5  168.98    8.80
  -4  -5  -5  168.18    7.80
  -4  -5  -5  164.18    7.80
   4   5   5  180.28    8.20
   4   5   5  173.68    7.60
   4   5   5  170.38    7.70
   4   5   5  181.88    7.70
   4   5   5  168.18    8.80
  -5  -5  -5  193.58    9.60
  -5  -5  -5  194.68   10.10
  -5  -5  -5  201.08    9.10
  -5  -5  -5  190.78    9.20
  -5  -5  -5  193.38    8.90
   5   5   5  200.28    8.60
   5   5   5  184.28   10.20
   5   5   5  207.98    9.10
   5   5   5  196.28    8.50
   5   5   5  200.68    8.70
   5   5   5  193.98    9.80
  -6  -5  -5  273.57   13.00
  -6  -5  -5  254.97   11.70
  -6  -5  -5  265.07   12.20
   6   5   5  288.67   11.90
   6   5   5  264.57   12.10
   6   5   5  278.67   11.20
   6   5   5  248.28   14.00
   6   5   5  282.57   11.30
  -7  -5  -5  193.98    9.00
  -7  -5  -5  192.28    9.20
  -7  -5  -5  203.88   10.00
   7   5   5  220.68    9.60
   7   5   5  216.78    9.70
   7   5   5  209.98    9.50
  -8  -5  -5   10.40    2.60
  -8  -5  -5   10.80    2.30
   8   5   5   18.60    4.50
   8   5   5   14.40    1.90
   8   5   5   12.00    1.60
   5  -6  -5   35.90    3.20
   5  -6  -5   35.40    3.80
   5  -6  -5   29.80    3.60
  -5   6   5   30.80    3.50
   4  -6  -5    2.60    1.50
   4  -6  -5    1.00    1.50
   4  -6  -5    2.90    1.20
  -4   6   5   -1.40    2.30
  -4   6   5    3.80    1.50
   3  -6  -5   26.30    3.40
   3  -6  -5   20.30    3.70
   3  -6  -5   21.00    2.80
   3  -6  -5   18.00    3.00
  -3   6   5   19.90    2.10
   2  -6  -5   94.89    5.40
   2  -6  -5   94.99    6.40
   2  -6  -5  101.29    5.30
   2  -6  -5   99.89    6.00
  -2   6   5   93.59    4.20
   1  -6  -5  255.27   12.30
   1  -6  -5  252.77   11.10
   1  -6  -5  251.47   11.30
   1  -6  -5  253.07   11.20
   1  -6  -5  263.87   11.50
   1  -6  -5  254.27   11.60
  -1   6   5  248.08    9.90
   0  -6  -5  570.54   22.70
   0  -6  -5  564.24   22.70
   0  -6  -5  582.74   23.30
   0  -6  -5  553.54   23.70
   0  -6  -5  550.44   23.80
   0   6   5  603.34   24.40
   0   6   5  584.34   23.00
  -1  -6  -5  163.58    7.60
  -1  -6  -5  165.18    7.50
  -1  -6  -5  159.58    7.60
  -1  -6  -5  166.78    8.40
  -1  -6  -5  152.88    7.10
  -1  -6  -5  157.38    7.90
  -1  -6  -5  161.08    7.40
   1   6   5  180.68    7.40
   1   6   5  176.58    8.60
  -2  -6  -5   23.70    3.10
  -2  -6  -5   16.30    2.40
  -2  -6  -5   24.40    2.80
  -2  -6  -5   22.60    2.90
   2   6   5   21.30    1.50
   2   6   5   19.50    2.00
   2   6   5   19.60    2.60
  -3  -6  -5   58.59    4.40
  -3  -6  -5   64.59    4.60
  -3  -6  -5   68.59    4.30
  -3  -6  -5   66.89    5.20
  -3  -6  -5   70.89    4.20
  -3  -6  -5   70.39    4.00
   3   6   5   64.29    5.50
   3   6   5   76.79    4.20
   3   6   5   66.79    3.70
   3   6   5   73.49    3.60
  -4  -6  -5    7.10    1.90
  -4  -6  -5    6.40    1.50
  -4  -6  -5    9.70    2.00
  -4  -6  -5    8.00    1.70
  -4  -6  -5    9.00    2.30
   4   6   5    9.30    1.80
   4   6   5    7.00    2.30
   4   6   5    7.50    1.20
   4   6   5    6.60    1.90
  -5  -6  -5   55.89    4.20
  -5  -6  -5   60.09    4.00
  -5  -6  -5   55.19    5.50
  -5  -6  -5   55.59    4.40
   5   6   5   62.49    3.50
   5   6   5   53.99    3.40
   5   6   5   57.69    3.40
   5   6   5   57.09    4.00
   5   6   5   59.19    6.40
  -6  -6  -5   93.39    5.80
  -6  -6  -5   98.79    5.40
  -6  -6  -5   95.79    6.70
   6   6   5  105.99    5.80
   6   6   5  106.59    4.80
   6   6   5  101.39    5.30
   6   6   5  100.59    5.60
   6   6   5  106.89    5.00
   6   6   5   89.69    6.80
  -7  -6  -5   66.29    5.40
  -7  -6  -5   64.79    4.50
  -7  -6  -5   69.69    4.10
   7   6   5   69.39    4.30
   7   6   5   72.49    4.00
   7   6   5   70.69    4.50
   5  -7  -5   76.49    4.20
   5  -7  -5   82.49    4.90
   5  -7  -5   80.29    4.70
  -5   7   5   35.80    4.50
   4  -7  -5  103.99    6.40
   4  -7  -5   93.99    5.40
   4  -7  -5  104.39    6.40
  -4   7   5  102.89    5.80
  -4   7   5   87.49    5.10
   3  -7  -5  130.99    7.70
   3  -7  -5  127.09    7.20
   3  -7  -5  120.89    6.50
   3  -7  -5  120.29    7.60
  -3   7   5  125.79    5.80
  -3   7   5  121.79    6.40
   2  -7  -5   60.49    4.10
   2  -7  -5   59.29    3.90
   2  -7  -5   57.89    4.50
   2  -7  -5   63.39    5.20
  -2   7   5   61.59    3.10
  -2   7   5   54.29    3.80
   1  -7  -5  111.89    6.50
   1  -7  -5  118.69    6.20
   1  -7  -5  120.79    7.30
   1  -7  -5  120.69    6.60
   1  -7  -5  117.69    6.30
   1  -7  -5  125.29    6.10
  -1   7   5  114.39    5.00
  -1   7   5  113.09    5.50
  -1   7   5  112.09    7.00
   0  -7  -5  217.18   10.70
   0  -7  -5  210.68    9.90
   0  -7  -5  215.98    9.80
   0  -7  -5  211.68    9.50
   0  -7  -5  202.98    9.60
   0  -7  -5  223.98   10.30
   0   7   5  215.58   10.40
   0   7   5  207.18    8.90
   0   7   5  211.78    8.80
  -1  -7  -5  398.46   16.80
  -1  -7  -5  404.46   16.60
  -1  -7  -5  420.16   17.30
  -1  -7  -5  384.66   16.60
   1   7   5  429.16   16.90
   1   7   5  432.36   18.60
   1   7   5  418.56   17.00
  -2  -7  -5    4.90    2.10
  -2  -7  -5    8.70    1.90
  -2  -7  -5    8.50    1.80
  -2  -7  -5    2.70    1.60
  -2  -7  -5    4.70    1.40
  -2  -7  -5    7.20    1.60
  -2  -7  -5    4.40    1.20
   2   7   5    8.10    2.30
   2   7   5    6.10    1.20
  -3  -7  -5  138.79    6.50
  -3  -7  -5  134.39    6.80
  -3  -7  -5  134.89    7.30
  -3  -7  -5  135.79    7.80
  -3  -7  -5  133.49    6.60
   3   7   5  139.19    6.30
   3   7   5  133.39    7.60
   3   7   5  127.29    6.10
   3   7   5  133.49    6.10
  -4  -7  -5  482.15   20.70
  -4  -7  -5  490.55   19.90
  -4  -7  -5  479.15   20.00
  -4  -7  -5  502.65   21.50
  -4  -7  -5  490.45   20.20
   4   7   5  513.35   20.10
   4   7   5  483.05   21.90
   4   7   5  505.55   20.10
   4   7   5  507.15   20.10
  -5  -7  -5   46.80    4.10
  -5  -7  -5   45.20    3.50
  -5  -7  -5   48.10    5.20
  -5  -7  -5   53.49    3.60
   5   7   5   55.99    3.20
   5   7   5   47.60    3.80
   5   7   5   53.49    6.20
   5   7   5   52.99    3.40
   5   7   5   55.09    3.10
  -6  -7  -5    3.30    1.50
  -6  -7  -5    5.80    1.90
  -6  -7  -5    6.60    2.50
   6   7   5    6.40    1.60
   6   7   5    5.00    1.00
   6   7   5    5.60    1.60
   6   7   5    4.40    1.30
  -7  -7  -5  160.68    7.40
  -7  -7  -5  162.58    7.20
  -7  -7  -5  148.99    8.30
   7   7   5  160.78    8.30
   7   7   5  181.38    7.80
   4  -8  -5   74.79    4.70
   4  -8  -5   68.09    4.60
   4  -8  -5   72.69    4.00
  -4   8   5   42.00    4.10
   3  -8  -5  238.08   11.40
   3  -8  -5  224.98   10.50
   3  -8  -5  243.88   11.30
  -3   8   5  222.28    9.70
  -3   8   5  229.58    9.90
   2  -8  -5   40.50    3.30
   2  -8  -5   44.40    3.90
   2  -8  -5   32.60    3.60
  -2   8   5   38.90    4.60
  -2   8   5   32.90    2.50
   1  -8  -5  191.88   10.00
   1  -8  -5  192.38    8.90
   1  -8  -5  196.68    9.70
   1  -8  -5  180.68    8.60
  -1   8   5  180.28    7.80
  -1   8   5  195.08    8.00
  -1   8   5  172.78   10.40
   0  -8  -5  234.68   10.60
   0  -8  -5  227.88   11.40
   0  -8  -5  244.28   10.70
   0  -8  -5  237.18   10.60
   0  -8  -5  253.67   11.40
   0  -8  -5  228.78   10.50
   0   8   5  236.38    9.90
   0   8   5  232.68   12.30
   0   8   5  237.28    9.80
  -1  -8  -5   19.60    2.60
  -1  -8  -5   15.10    2.50
  -1  -8  -5   19.50    3.80
  -1  -8  -5   17.40    2.30
  -1  -8  -5   16.40    2.40
  -1  -8  -5   22.30    2.30
   1   8   5   22.30    4.10
   1   8   5   17.80    3.00
   1   8   5   18.80    1.80
   1   8   5   17.90    2.00
  -2  -8  -5  521.75   20.50
  -2  -8  -5  508.75   20.90
  -2  -8  -5  506.45   20.90
  -2  -8  -5  513.85   21.10
   2   8   5  539.95   20.90
   2   8   5  496.15   21.40
   2   8   5  516.25   21.00
   2   8   5  555.94   21.00
   2   8   5  523.65   22.90
  -3  -8  -5  181.98    8.40
  -3  -8  -5  188.08    8.50
  -3  -8  -5  186.38    9.10
  -3  -8  -5  178.68    8.60
  -3  -8  -5  183.88    8.30
   3   8   5  192.18   10.70
   3   8   5  198.88    8.60
   3   8   5  203.48    8.70
   3   8   5  220.18    9.70
   3   8   5  177.08    9.10
  -4  -8  -5  369.16   15.60
  -4  -8  -5  369.46   16.40
  -4  -8  -5  399.46   17.50
  -4  -8  -5  366.46   15.60
  -4  -8  -5  373.36   15.70
  -4  -8  -5  383.16   15.90
   4   8   5  366.66   18.40
   4   8   5  401.46   16.70
   4   8   5  400.26   16.10
   4   8   5  396.36   16.00
   4   8   5  410.56   16.00
  -5  -8  -5   62.59    5.90
  -5  -8  -5   69.99    5.10
  -5  -8  -5   85.09    5.90
   5   8   5   89.79    4.70
   5   8   5   95.19    4.60
   5   8   5   90.29    4.60
  -6  -8  -5   46.30    3.60
  -6  -8  -5   40.70    4.40
  -6  -8  -5   41.30    3.10
   6   8   5   48.00    3.00
   6   8   5   49.60    2.70
   6   8   5   50.39    3.60
  -7  -8  -5    1.50    1.00
  -7  -8  -5    2.10    1.60
  -7  -8  -5    5.40    2.10
  -7  -8  -5    0.20    1.00
   7   8   5    1.40    1.10
   3  -9  -5  602.54   25.50
   3  -9  -5  671.43   26.20
   3  -9  -5  624.74   24.90
  -3   9   5  278.87   11.60
   2  -9  -5  134.89    7.20
   2  -9  -5  131.39    7.20
   2  -9  -5  135.69    6.50
   2  -9  -5  136.09    6.20
  -2   9   5  128.99    6.00
  -2   9   5  141.59    6.40
  -2   9   5  124.39    6.80
   1  -9  -5  289.77   12.60
   1  -9  -5  306.47   13.70
   1  -9  -5  307.67   12.90
   1  -9  -5  294.07   13.60
  -1   9   5  301.77   12.40
  -1   9   5  301.77   12.60
  -1   9   5  308.37   13.10
   0  -9  -5  363.66   15.80
   0  -9  -5  384.56   16.10
   0  -9  -5  382.46   15.80
   0  -9  -5  381.56   17.10
   0  -9  -5  390.56   16.70
   0   9   5  381.36   15.60
   0   9   5  394.46   15.80
   0   9   5  390.56   15.60
  -1  -9  -5  807.32   32.50
  -1  -9  -5  805.72   31.70
  -1  -9  -5  815.32   31.70
  -1  -9  -5  768.42   31.60
   1   9   5  792.12   29.70
   1   9   5  699.33   32.20
   1   9   5  768.42   29.70
   1   9   5  781.12   29.70
  -2  -9  -5  581.94   24.40
  -2  -9  -5  609.04   23.80
  -2  -9  -5  621.54   25.20
  -2  -9  -5  631.64   24.50
  -2  -9  -5  589.94   24.40
   2   9   5  620.34   23.90
   2   9   5  623.64   23.80
   2   9   5  609.54   23.80
   2   9   5  559.54   26.30
  -3  -9  -5  485.25   19.50
  -3  -9  -5  475.95   19.10
  -3  -9  -5  470.25   19.50
  -3  -9  -5  473.75   19.40
   3   9   5  507.85   19.70
   3   9   5  499.05   19.70
   3   9   5  476.55   19.70
  -4  -9  -5  110.89    5.60
  -4  -9  -5  106.19    7.00
  -4  -9  -5  106.79    5.50
  -4  -9  -5  102.69    5.40
   4   9   5  121.99    5.70
   4   9   5  115.89    6.10
   4   9   5  108.99    5.50
   4   9   5  119.19    5.40
  -5  -9  -5  131.19    7.60
  -5  -9  -5  125.09    6.10
  -5  -9  -5  128.49    6.10
   5   9   5  144.89    6.00
   5   9   5  134.49    6.50
   5   9   5  126.59    6.30
   5   9   5  135.49    6.00
  -6  -9  -5   65.79    3.60
  -6  -9  -5   64.89    5.00
  -6  -9  -5   67.69    3.60
   6   9   5   82.89    5.70
   6   9   5   75.19    4.00
   6   9   5   68.09    3.30
   1 -10  -5  138.39    6.80
   1 -10  -5  122.89    6.10
   1 -10  -5  130.49    6.70
  -1  10   5  119.49    5.80
  -1  10   5  116.59    5.70
  -1  10   5  132.49    5.70
   0 -10  -5   75.59    5.00
   0 -10  -5   86.29    5.00
   0 -10  -5   80.59    4.40
   0 -10  -5   74.19    4.10
   0  10   5   81.99    4.10
   0  10   5   85.99    4.00
   0  10   5   78.59    4.10
  -1 -10  -5   17.00    2.60
  -1 -10  -5   16.40    2.30
  -1 -10  -5   17.00    2.40
   1  10   5   16.50    1.80
   1  10   5   14.10    1.90
   1  10   5   17.00    2.50
   1  10   5   17.60    2.00
  -2 -10  -5  188.78    8.80
  -2 -10  -5  173.98    8.00
  -2 -10  -5  170.28    8.00
   2  10   5  189.88    8.10
   2  10   5  185.38    8.00
   2  10   5  185.18    7.90
  -3 -10  -5   21.40    2.40
  -3 -10  -5   19.40    2.10
  -3 -10  -5   23.30    2.30
  -3 -10  -5   27.60    2.90
   3  10   5   24.70    2.10
   3  10   5   24.90    2.20
   3  10   5   21.80    2.00
  -4 -10  -5   27.90    2.50
  -4 -10  -5   28.60    2.30
  -4 -10  -5   31.80    2.80
  -4 -10  -5   31.50    2.70
   4  10   5   27.00    2.10
   4  10   5   28.30    2.50
   4  10   5   28.20    1.90
   4  10   5   23.80    2.90
  -5 -10  -5   72.09    4.10
  -5 -10  -5   77.29    3.90
  -5 -10  -5   78.39    3.80
   5  10   5   79.79    3.60
   5  10   5   81.19    4.10
   5  10   5   76.59    3.80
  -1 -11  -5   31.90    2.50
  -1 -11  -5   24.20    2.90
   1  11   5   28.90    2.20
   1  11   5   28.80    2.10
  -2 -11  -5   24.00    1.90
  -2 -11  -5   22.00    3.20
  -2 -11  -5   24.70    2.40
   2  11   5   18.40    1.80
   2  11   5   22.80    3.20
   2  11   5   23.00    1.60
  -3 -11  -5   20.70    2.30
  -3 -11  -5   22.60    2.20
   3  11   5   19.40    1.50
   3  11   5   19.80    1.90
   3  11   5   20.60    1.80
   3   7  -6  159.78    6.60
   3   7  -6  146.79    6.50
  -3  -7   6  149.79    6.60
  -3  -7   6  145.69    6.90
  -3  -7   6  143.49    6.60
   2   7  -6   49.40    3.10
   2   7  -6   50.99    2.90
   2   7  -6   49.30    2.80
  -2  -7   6   55.69    3.70
  -2  -7   6   60.89    5.00
  -2  -7   6   50.99    3.20
   1   7  -6   89.39    4.50
   1   7  -6   99.79    4.50
   1   7  -6  102.39    4.70
  -1  -7   6   97.69    4.70
  -1  -7   6   89.09    4.70
   5   6  -6    7.60    1.50
   5   6  -6    5.30    1.50
   5   6  -6    7.80    1.30
  -5  -6   6    5.40    1.30
  -5  -6   6    6.90    1.30
   4   6  -6  177.38    7.70
   4   6  -6  185.78    7.80
   4   6  -6  178.48    7.90
  -4  -6   6  178.48    7.90
  -4  -6   6  166.18    7.70
  -4  -6   6  165.98    6.90
   3   6  -6  107.99    5.20
   3   6  -6  111.49    5.20
   3   6  -6  107.19    5.30
  -3  -6   6  115.09    6.50
  -3  -6   6  102.19    4.80
  -3  -6   6  115.89    6.00
  -3  -6   6  115.19    5.80
   2   6  -6   74.49    4.00
   2   6  -6   77.09    4.10
   2   6  -6   74.19    4.20
  -2  -6   6   76.19    4.70
  -2  -6   6   72.99    4.80
  -2  -6   6   76.29    4.50
   1   6  -6  157.98    7.10
   1   6  -6  164.28    7.40
   1   6  -6  165.98    7.30
  -1  -6   6  159.38   11.30
  -1  -6   6  167.98    7.70
  -1  -6   6  169.48    7.80
  -1  -6   6  162.98    7.80
   0   6  -6    7.20    1.20
   0   6  -6    9.50    1.70
   0   6  -6    6.40    1.30
   0  -6   6    9.20    1.80
   0  -6   6   11.60    2.30
   0  -6   6    8.60    1.70
  -1   6  -6   12.20    2.40
  -1   6  -6   15.00    2.10
  -1   6  -6   11.90    1.60
   1  -6   6   15.60    2.20
   1  -6   6   15.00    2.30
  -2   6  -6   24.60    3.10
  -2   6  -6   27.30    1.90
   2  -6   6   26.60    2.10
   2  -6   6   27.70    2.10
   6   5  -6  322.67   13.00
   6   5  -6  339.17   13.30
   6   5  -6  317.77   12.90
  -6  -5   6  271.37   11.40
  -6  -5   6  295.27   11.80
   5   5  -6  156.78    7.50
   5   5  -6  174.88    7.30
   5   5  -6  174.78    7.70
   5   5  -6  173.28    7.40
  -5  -5   6  158.88    6.70
  -5  -5   6  135.79    7.10
  -5  -5   6  161.88    7.30
   4   5  -6  451.35   18.60
   4   5  -6  470.15   18.30
   4   5  -6  464.45   18.40
   4   5  -6  448.26   18.40
  -4  -5   6  456.25   18.30
  -4  -5   6  440.46   18.50
  -4  -5   6  447.86   17.60
  -4  -5   6  417.46   17.70
  -4  -5   6  435.96   17.50
   3   5  -6  231.98    9.80
   3   5  -6  233.78    9.70
   3   5  -6  212.28    9.80
  -3  -5   6  200.18   11.70
  -3  -5   6  181.28   12.70
  -3  -5   6  223.08   10.00
  -3  -5   6  207.18    9.20
  -3  -5   6  222.98    8.90
  -3  -5   6  216.28    8.90
   2   5  -6  455.75   18.90
   2   5  -6  475.75   18.90
   2   5  -6  466.25   18.80
  -2  -5   6  446.76   18.40
  -2  -5   6  457.05   18.80
  -2  -5   6  414.56   19.20
  -2  -5   6  458.25   17.70
  -2  -5   6  445.36   17.60
  -2  -5   6  439.46   18.60
   1   5  -6  167.48    7.60
   1   5  -6  167.78    7.70
   1   5  -6  177.08    7.70
   1   5  -6  169.28    7.90
  -1  -5   6  165.48    9.10
  -1  -5   6  165.48    8.30
  -1  -5   6  174.08    7.20
  -1  -5   6  173.78    8.40
  -1  -5   6  165.78    8.30
   0   5  -6  345.87   16.50
   0   5  -6  391.96   16.00
   0   5  -6  370.96   15.70
   0   5  -6  414.46   16.90
   0  -5   6  409.56   17.30
   0  -5   6  411.36   17.00
   0  -5   6  405.96   17.50
  -1   5  -6   12.80    1.90
  -1   5  -6    9.00    1.60
  -1   5  -6   11.80    2.10
   1  -5   6   11.40    2.50
   1  -5   6   16.40    2.60
   1  -5   6   16.70    2.40
  -2   5  -6  205.18    8.80
  -2   5  -6  214.88    9.00
  -2   5  -6  201.98    9.20
   2  -5   6  213.88    9.30
   2  -5   6  216.58    9.30
   2  -5   6  208.18   10.40
   2  -5   6  202.08    9.40
  -3   5  -6  111.59    5.80
  -3   5  -6  116.39    5.20
   3  -5   6  120.09    5.40
   3  -5   6  103.59    5.50
   3  -5   6  119.89    5.60
   7   4  -6    5.50    1.20
  -7  -4   6    5.70    0.90
  -7  -4   6    4.20    1.40
  -7  -4   6    8.60    2.60
   6   4  -6  357.06   14.30
   6   4  -6  366.36   14.70
   6   4  -6  353.76   14.50
  -6  -4   6  333.77   13.70
  -6  -4   6  321.17   13.10
  -6  -4   6  302.07   13.30
  -6  -4   6  333.87   13.20
   5   4  -6   15.80    2.20
   5   4  -6   14.20    1.90
   5   4  -6   12.60    1.70
  -5  -4   6   14.90    2.40
  -5  -4   6   22.00    3.30
  -5  -4   6   16.30    2.30
  -5  -4   6   16.80    2.30
   4   4  -6  270.37   11.10
   4   4  -6  263.77   11.50
   4   4  -6  265.87   11.10
   4   4  -6  261.07   11.20
  -4  -4   6  239.48   10.10
  -4  -4   6  199.98   13.70
  -4  -4   6  246.08   10.20
  -4  -4   6  246.88   10.10
  -4  -4   6  236.78   10.90
   3   4  -6   56.99    3.40
   3   4  -6   60.69    3.40
   3   4  -6   59.59    3.60
   3   4  -6   54.89    3.70
  -3  -4   6   51.29    4.70
  -3  -4   6   57.69    3.60
  -3  -4   6   62.29    5.40
  -3  -4   6   61.59    6.90
  -3  -4   6   57.59    3.50
   2   4  -6  279.87   11.70
   2   4  -6  277.97   11.80
   2   4  -6  278.67   11.90
  -2  -4   6  262.67   11.80
  -2  -4   6  262.47   10.90
  -2  -4   6  261.07   11.90
  -2  -4   6  253.97   12.00
  -2  -4   6  258.17   10.80
  -2  -4   6  248.98   15.80
  -2  -4   6  258.37   13.10
  -2  -4   6  257.57   12.30
  -2  -4   6  260.37   10.80
   1   4  -6   92.89    4.70
   1   4  -6   88.69    4.80
   1   4  -6   93.69    5.00
   1   4  -6   92.99    4.80
  -1  -4   6   85.59    4.40
  -1  -4   6   86.69    4.60
  -1  -4   6   85.59    5.80
  -1  -4   6   89.79    6.40
  -1  -4   6   91.39    4.50
  -1  -4   6   95.59    5.80
  -1  -4   6   87.19    5.70
  -1  -4   6   96.39    5.50
   0   4  -6  700.43   28.60
   0   4  -6  750.02   28.70
   0   4  -6  710.73   28.50
   0   4  -6  745.93   28.70
   0   4  -6  713.93   29.80
   0  -4   6  757.12   29.90
   0  -4   6  758.32   29.00
   0  -4   6  728.23   29.60
   0  -4   6  731.03   29.20
   0  -4   6  715.03   30.60
   0  -4   6  768.32   30.20
   0  -4   6  753.92   30.60
  -1   4  -6   83.49    4.40
  -1   4  -6   80.39    4.40
  -1   4  -6   82.99    4.60
  -1   4  -6   90.09    6.60
   1  -4   6   85.79    5.10
   1  -4   6   83.19    5.80
   1  -4   6   84.89    5.10
   1  -4   6   80.29    4.10
   1  -4   6   93.39    7.20
   1  -4   6   85.29    5.00
  -2   4  -6  179.18    8.50
  -2   4  -6  179.78    8.30
  -2   4  -6  173.28    8.00
   2  -4   6  193.88   11.30
   2  -4   6  167.88    8.90
  -3   4  -6   72.49    4.40
  -3   4  -6   73.59    3.90
  -3   4  -6   67.99    4.40
   3  -4   6   75.19    4.50
   3  -4   6   72.69    4.40
   3  -4   6   73.19    4.30
  -4   4  -6   76.29    4.00
  -4   4  -6   80.99    5.20
  -4   4  -6   89.09    5.20
   4  -4   6   77.89    4.20
   4  -4   6   79.99    4.10
   4  -4   6   76.89    4.10
   7   3  -6  162.78    6.50
   7   3  -6  128.49    6.70
  -7  -3   6  133.69    6.10
  -7  -3   6  143.79    6.70
   6   3  -6   93.29    4.60
   6   3  -6   93.19    6.80
   6   3  -6   90.49    4.80
   6   3  -6   89.19    4.20
   6   3  -6   92.29    4.90
   6   3  -6   85.39    4.70
   6   3  -6   95.69    4.70
  -6  -3   6   90.39    4.90
  -6  -3   6   93.39    5.50
  -6  -3   6   82.99    5.40
  -6  -3   6   83.99    4.90
   5   3  -6   79.59    4.10
   5   3  -6   80.79    4.30
   5   3  -6   84.39    4.40
   5   3  -6   88.29    4.70
   5   3  -6   78.89    4.60
  -5  -3   6   75.39    4.60
  -5  -3   6   75.89    4.40
  -5  -3   6   77.59    5.10
  -5  -3   6   63.29    8.20
  -5  -3   6   79.59    4.80
   4   3  -6  402.86   17.80
   4   3  -6  359.16   15.20
   4   3  -6  355.16   15.30
   4   3  -6  376.86   15.60
   4   3  -6  380.36   15.40
   4   3  -6  377.66   15.70
  -4  -3   6  370.06   14.70
  -4  -3   6  346.17   15.40
  -4  -3   6  361.46   14.90
  -4  -3   6  361.96   15.10
  -4  -3   6  327.47   17.60
   3   3  -6   19.10    1.80
   3   3  -6   20.00    2.20
   3   3  -6   16.10    3.00
   3   3  -6   15.80    2.10
  -3  -3   6   13.70    2.00
  -3  -3   6   11.30    3.80
  -3  -3   6    8.00    2.40
  -3  -3   6   10.30    2.30
  -3  -3   6   15.30    2.10
  -3  -3   6   13.80    1.80
   2   3  -6 1328.87   51.19
   2   3  -6 1321.77   50.99
   2   3  -6 1331.07   51.29
   2   3  -6 1337.97   51.09
   2   3  -6 1299.87   51.59
  -2  -3   6 1309.37   51.29
  -2  -3   6 1319.27   50.69
  -2  -3   6 1290.17   50.39
  -2  -3   6 1355.66   53.09
  -2  -3   6 1289.27   51.29
  -2  -3   6 1324.27   50.59
  -2  -3   6 1260.07   50.99
   1   3  -6   47.60    3.30
   1   3  -6   50.79    3.50
   1   3  -6   45.10    3.00
   1   3  -6   47.00    3.00
  -1  -3   6   47.60    2.80
  -1  -3   6   50.19    3.80
  -1  -3   6   44.80    4.40
  -1  -3   6   42.20    2.70
  -1  -3   6   45.80    3.90
  -1  -3   6   40.10    5.10
  -1  -3   6   48.00    3.00
  -1  -3   6   41.90    3.80
   0   3  -6  125.49    5.90
   0   3  -6  123.79    6.60
   0   3  -6  117.29    5.80
   0   3  -6  127.89    6.20
   0   3  -6  124.99    6.00
   0  -3   6  126.49    6.70
   0  -3   6  136.89    5.90
   0  -3   6  124.49    5.80
   0  -3   6  118.69    5.70
   0  -3   6  117.89    7.10
   0  -3   6  130.69    6.80
   0  -3   6  126.69    6.70
  -1   3  -6  393.56   15.80
  -1   3  -6  352.36   17.00
  -1   3  -6  390.06   15.70
  -1   3  -6  391.96   15.70
   1  -3   6  411.56   17.60
   1  -3   6  413.96   16.50
   1  -3   6  398.16   16.70
   1  -3   6  404.76   17.40
   1  -3   6  420.56   18.00
   1  -3   6  408.96   16.60
   1  -3   6  432.06   18.00
  -2   3  -6   40.70    3.80
  -2   3  -6   45.10    3.00
  -2   3  -6   37.70    2.90
  -2   3  -6   36.70    2.90
  -2   3  -6   33.60    4.40
   2  -3   6   35.70    3.20
   2  -3   6   35.70    4.70
   2  -3   6   34.60    3.90
   2  -3   6   31.10    3.20
   2  -3   6   35.00    2.40
  -3   3  -6  188.18   10.50
  -3   3  -6  188.38    8.30
  -3   3  -6  182.68    9.80
  -3   3  -6  194.18    8.80
   3  -3   6  203.38   12.00
   3  -3   6  202.08    9.20
   3  -3   6  202.58    9.40
   3  -3   6  195.88    9.30
  -4   3  -6   39.50    3.30
  -4   3  -6   43.20    3.00
  -4   3  -6   48.00    3.80
   4  -3   6   52.79    3.60
   4  -3   6   43.10    3.30
   4  -3   6   44.20    3.60
  -5   3  -6   41.20    2.80
  -5   3  -6   40.20    3.00
   5  -3   6   46.80    3.00
   5  -3   6   52.29    3.30
   5  -3   6   40.40    2.80
   7   2  -6  125.59    7.20
   7   2  -6  106.79    5.20
   7   2  -6  103.49    6.10
  -7  -2   6   88.19    5.00
  -7  -2   6   95.79    4.90
  -7  -2   6  101.19    5.50
  -7  -2   6   94.49    6.20
   6   2  -6   21.50    2.50
   6   2  -6   18.30    1.70
   6   2  -6   21.10    3.00
   6   2  -6   13.20    2.40
   6   2  -6   20.20    2.20
   6   2  -6   14.10    2.50
  -6  -2   6   16.30    2.70
  -6  -2   6   16.20    2.90
   5   2  -6   62.29    3.80
   5   2  -6   56.49    3.50
   5   2  -6   61.19    3.20
   5   2  -6   61.19    4.00
   5   2  -6   57.99    3.40
   5   2  -6   53.69    5.50
  -5  -2   6   55.99    4.10
  -5  -2   6   46.80    6.80
  -5  -2   6   50.09    5.80
   4   2  -6   81.49    4.20
   4   2  -6   83.09    4.60
   4   2  -6   77.69    4.00
   4   2  -6   81.49    4.60
   4   2  -6   65.09    6.40
   4   2  -6   81.89    4.20
  -4  -2   6   80.59    4.90
  -4  -2   6   76.89    5.90
  -4  -2   6   80.19    5.20
  -4  -2   6   78.19    4.50
   3   2  -6  318.47   13.00
   3   2  -6  319.67   13.00
   3   2  -6  314.87   13.20
   3   2  -6  311.67   12.80
   3   2  -6  301.57   14.80
   3   2  -6  315.07   13.20
  -3  -2   6  302.97   14.60
  -3  -2   6  278.37   13.40
  -3  -2   6  288.77   13.40
  -3  -2   6  281.27   12.70
  -3  -2   6  293.27   12.50
  -3  -2   6  302.87   12.70
   2   2  -6  336.37   14.00
   2   2  -6  341.47   13.80
   2   2  -6  334.27   14.10
   2   2  -6  332.67   14.00
  -2  -2   6  337.37   14.20
  -2  -2   6  350.76   14.80
  -2  -2   6  331.17   15.80
  -2  -2   6  332.47   14.60
  -2  -2   6  360.46   14.90
  -2  -2   6  388.46   16.50
   1   2  -6   32.80    2.30
   1   2  -6   27.00    4.00
   1   2  -6   34.30    3.10
   1   2  -6   35.90    3.40
   1   2  -6   31.00    2.30
   1   2  -6   35.30    2.70
  -1  -2   6   30.00    2.30
  -1  -2   6   33.50    2.10
  -1  -2   6   36.30    2.80
  -1  -2   6   31.60    2.90
  -1  -2   6   31.50    2.80
   0   2  -6  711.53   29.40
   0   2  -6  714.63   29.90
   0   2  -6  769.82   30.30
   0   2  -6  814.42   31.10
   0   2  -6  752.32   29.60
   0  -2   6  796.02   30.50
   0  -2   6  766.12   29.60
   0  -2   6  756.02   29.50
   0  -2   6  678.33   30.80
   0  -2   6  789.22   30.50
   0  -2   6  764.12   33.00
  -1   2  -6  200.58    8.80
  -1   2  -6  204.08    9.50
  -1   2  -6  197.78    9.00
  -1   2  -6  208.48    8.90
  -1   2  -6  201.38    8.80
   1  -2   6  221.48   10.10
   1  -2   6  221.88   10.10
   1  -2   6  209.18   10.30
   1  -2   6  217.48    9.20
   1  -2   6  227.88    9.30
   1  -2   6  224.48    9.30
   1  -2   6  209.68   10.00
  -2   2  -6  909.41   36.70
  -2   2  -6  953.70   36.50
  -2   2  -6  900.01   36.20
  -2   2  -6  927.31   36.30
  -2   2  -6  950.50   37.30
   2  -2   6  990.10   37.90
   2  -2   6  994.10   38.70
   2  -2   6 1008.00   39.10
   2  -2   6  962.50   38.00
   2  -2   6  999.00   39.20
   2  -2   6  986.40   38.80
   2  -2   6  948.61   37.90
   2  -2   6  941.81   38.60
  -3   2  -6  209.98   10.70
  -3   2  -6  231.88    9.80
  -3   2  -6  223.68   10.30
  -3   2  -6  220.68    9.80
  -3   2  -6  230.08   10.10
   3  -2   6  236.88    9.80
   3  -2   6  222.88   11.40
   3  -2   6  240.88   10.80
   3  -2   6  229.78   10.60
   3  -2   6  240.38   10.90
   3  -2   6  243.08   11.20
  -4   2  -6 1031.50   42.80
  -4   2  -6 1048.70   40.50
   4  -2   6 1166.58   45.10
   4  -2   6 1095.29   45.60
   4  -2   6 1175.18   45.70
  -5   2  -6  187.98    8.60
  -5   2  -6  186.98    8.50
  -5   2  -6  183.08    8.00
   5  -2   6  205.18    9.10
   5  -2   6  207.88    9.20
   5  -2   6  194.28    9.00
   7   1  -6   11.50    1.80
   7   1  -6   10.40    1.60
   7   1  -6    8.60    1.70
  -7  -1   6    9.40    1.70
  -7  -1   6    7.80    1.80
   6   1  -6  238.98   10.00
   6   1  -6  220.98    9.10
   6   1  -6  210.58    9.80
   6   1  -6  229.18    9.80
   6   1  -6  235.08   10.50
  -6  -1   6  211.38    9.70
  -6  -1   6  209.58    9.80
   5   1  -6  211.88    9.50
   5   1  -6  201.88    9.30
   5   1  -6  208.28    9.20
   5   1  -6  220.98   10.80
   5   1  -6  214.88    9.40
   5   1  -6  207.48    9.10
   5   1  -6  203.98    8.70
  -5  -1   6  204.08    9.90
  -5  -1   6  185.88    8.80
  -5  -1   6  184.88    9.30
  -5  -1   6  180.98   11.60
   4   1  -6   30.10    2.70
   4   1  -6   29.80    2.40
   4   1  -6   34.40    3.00
   4   1  -6   35.20    4.50
   4   1  -6   35.80    2.60
   4   1  -6   29.80    2.10
  -4  -1   6   29.20    3.10
  -4  -1   6   24.20    3.40
  -4  -1   6   34.40    3.40
  -4  -1   6   30.90    4.40
   3   1  -6  778.52   30.60
   3   1  -6  742.73   31.30
   3   1  -6  770.42   30.90
   3   1  -6  860.81   31.20
  -3  -1   6  788.42   31.30
  -3  -1   6  817.92   32.70
  -3  -1   6  772.62   33.10
   2   1  -6  118.39    5.30
   2   1  -6  120.29    5.80
   2   1  -6  116.79    7.30
   2   1  -6  113.39    6.30
   2   1  -6  117.49    5.50
   2   1  -6  119.79    5.60
  -2  -1   6  122.49    6.00
  -2  -1   6  119.99    5.40
  -2  -1   6  121.59    5.80
  -2  -1   6  111.39    7.50
  -2  -1   6  120.49    5.90
   1   1  -6  218.08    9.30
   1   1  -6  194.08   10.60
   1   1  -6  211.08    9.00
   1   1  -6  213.78    9.10
   1   1  -6  215.78    9.00
   1   1  -6  205.28    8.80
   1   1  -6  216.28   10.40
  -1  -1   6  208.78    9.30
  -1  -1   6  200.78   10.00
  -1  -1   6  234.48    9.80
  -1  -1   6  242.38    9.80
  -1  -1   6  226.88    9.20
   0   1  -6 1012.30   38.70
   0   1  -6  986.00   38.40
   0   1  -6  957.60   38.20
   0   1  -6 1002.90   38.30
   0   1  -6  996.10   38.50
   0   1  -6  934.21   40.80
   0   1  -6 1072.39   38.90
   0   1  -6  951.60   38.30
   0  -1   6  995.00   40.70
   0  -1   6 1040.60   39.80
   0  -1   6 1032.10   40.70
   0  -1   6 1112.39   40.50
   0  -1   6 1038.00   39.80
   0  -1   6  980.50   40.00
  -1   1  -6  201.48    8.80
  -1   1  -6  189.98    8.90
  -1   1  -6  203.28    9.10
  -1   1  -6  211.88    8.90
  -1   1  -6  207.88    8.90
  -1   1  -6  219.38    9.40
   1  -1   6  235.08   10.20
   1  -1   6  244.48    9.60
   1  -1   6  220.98   10.50
   1  -1   6  237.58   10.30
   1  -1   6  223.08    9.60
   1  -1   6  226.88    9.80
  -2   1  -6  640.14   26.20
  -2   1  -6  658.83   25.50
  -2   1  -6  629.04   25.40
  -2   1  -6  639.04   25.60
  -2   1  -6  633.64   25.90
  -2   1  -6  662.43   26.20
   2  -1   6  711.23   28.10
   2  -1   6  701.73   27.40
   2  -1   6  712.43   27.30
   2  -1   6  644.04   28.00
   2  -1   6  706.13   27.30
   2  -1   6  708.83   28.10
  -3   1  -6   93.79    5.00
  -3   1  -6   92.39    5.40
  -3   1  -6   87.89    5.60
  -3   1  -6   95.39    5.10
  -3   1  -6   95.59    4.90
   3  -1   6   97.99    5.70
   3  -1   6   95.19    4.80
   3  -1   6   99.89    4.80
   3  -1   6   98.89    5.80
   3  -1   6   97.39    5.70
   3  -1   6   91.89    5.60
   3  -1   6   98.89    5.10
   3  -1   6  100.59    5.60
  -4   1  -6  189.48    8.70
  -4   1  -6  199.58    8.40
  -4   1  -6  159.88    9.60
  -4   1  -6  182.98    8.70
   4  -1   6  200.08    9.10
   4  -1   6  201.48    9.90
   4  -1   6  196.88    8.40
   4  -1   6  216.48    9.60
   4  -1   6  199.38    9.50
   4  -1   6  178.18   10.30
   4  -1   6  210.28    9.60
  -5   1  -6    6.30    1.40
  -5   1  -6    7.00    2.00
   5  -1   6    5.80    1.70
   5  -1   6    2.80    1.90
   5  -1   6    8.80    2.10
   5  -1   6    7.60    2.00
  -6   1  -6  128.89    7.00
  -6   1  -6  103.29    5.40
  -6   1  -6  108.79    5.70
   6  -1   6  130.79    6.20
   6  -1   6  122.39    6.10
   7   0  -6    0.30    1.00
   7   0  -6    0.80    0.90
  -7   0   6    1.10    1.90
  -7   0   6   -0.20    1.60
   6   0  -6  301.07   12.50
   6   0  -6  283.47   12.50
   6   0  -6  311.97   12.90
  -6   0   6  273.87   12.30
  -6   0   6  278.57   12.10
   5   0  -6  178.68    7.90
   5   0  -6  186.88    8.30
   5   0  -6  170.18    7.30
   5   0  -6  173.58    8.40
   5   0  -6  175.58    8.10
   5   0  -6  185.08    8.10
  -5   0   6  175.58    7.80
  -5   0   6  151.78   10.70
  -5   0   6  160.88    8.30
  -5   0   6  158.88    8.70
   4   0  -6  898.71   34.60
   4   0  -6  853.21   33.90
   4   0  -6  856.51   35.60
   4   0  -6  879.31   34.50
   4   0  -6  873.11   34.40
   4   0  -6  898.51   34.80
   4   0  -6  921.91   34.70
   4   0  -6  879.81   36.40
  -4   0   6  785.72   32.90
  -4   0   6  811.12   32.10
  -4   0   6  826.22   34.20
   3   0  -6   52.89    3.50
   3   0  -6   52.59    3.10
   3   0  -6   51.39    3.40
   3   0  -6   51.49    3.10
   3   0  -6   51.69    3.40
  -3   0   6   51.79    4.50
  -3   0   6   59.59    4.60
  -3   0   6   55.69    3.20
   2   0  -6  672.03   26.10
   2   0  -6  715.23   26.50
   2   0  -6  638.94   25.60
   2   0  -6  657.63   27.70
   2   0  -6  670.23   26.20
   2   0  -6  660.43   26.10
   2   0  -6  620.74   27.70
  -2   0   6  704.63   26.70
  -2   0   6  650.13   26.90
  -2   0   6  691.53   26.80
   1   0  -6  127.29    5.70
   1   0  -6  116.29    7.00
   1   0  -6  125.09    5.60
   1   0  -6  107.49    5.70
   1   0  -6  124.99    5.80
   1   0  -6  127.79    5.80
  -1   0   6  125.79    5.80
  -1   0   6  129.69    5.60
  -1   0   6  133.49    6.20
  -1   0   6  130.89    6.00
   0   0  -6 1932.31   71.89
   0   0  -6 1856.11   72.09
   0   0  -6 1990.90   73.59
   0   0  -6 1820.82   71.89
   0   0  -6 1748.53   71.69
   0   0  -6 1884.31   71.99
   0   0  -6 1859.91   71.79
   0   0  -6 1851.01   71.59
   0   0  -6 1964.50   71.99
   0   0   6 2004.50   74.69
   0   0   6 1974.40   74.59
   0   0   6 1872.11   74.19
   0   0   6 1935.91   74.09
  -1   0  -6   19.90    2.00
  -1   0  -6   17.80    1.90
  -1   0  -6   14.80    2.90
  -1   0  -6   19.10    3.40
  -1   0  -6   17.90    2.30
  -1   0  -6   22.30    1.90
  -1   0  -6   21.40    2.50
  -1   0  -6   17.00    3.60
   1   0   6   23.40    1.60
   1   0   6   23.90    1.90
   1   0   6   23.00    1.80
   1   0   6   22.30    2.10
  -2   0  -6  148.59    6.90
  -2   0  -6  143.59    7.80
  -2   0  -6  175.18    7.00
  -2   0  -6  144.59    9.30
  -2   0  -6  157.98    7.20
  -2   0  -6  155.98    7.50
  -2   0  -6  133.59    7.60
   2   0   6  159.88    7.30
   2   0   6  151.48    8.90
   2   0   6  170.48    7.20
   2   0   6  173.18    7.70
   2   0   6  169.08    7.70
   2   0   6  175.98    8.90
   2   0   6  171.48    7.30
  -3   0  -6   58.69    4.20
  -3   0  -6   62.39    3.80
  -3   0  -6   59.59    4.10
  -3   0  -6   68.19    3.80
  -3   0  -6   59.19    4.00
   3   0   6   61.99    4.40
   3   0   6   76.39    5.50
   3   0   6   68.29    3.80
   3   0   6   74.99    4.30
   3   0   6   63.79    3.70
   3   0   6   75.39    4.30
   3   0   6   63.09    3.70
  -4   0  -6    4.50    1.40
  -4   0  -6    2.40    2.80
  -4   0  -6    2.90    1.50
  -4   0  -6    1.50    1.30
   4   0   6    4.40    1.10
   4   0   6    5.20    1.90
   4   0   6    5.10    1.40
   4   0   6    1.40    2.40
   4   0   6    2.70    1.90
   4   0   6   -0.40    2.10
   4   0   6    4.10    1.80
   4   0   6    0.00    2.10
  -5   0  -6  155.88    7.40
  -5   0  -6  153.18    7.10
  -5   0  -6  147.89    7.50
  -5   0  -6  141.79    8.50
   5   0   6  158.88    7.80
   5   0   6  164.88    8.10
   5   0   6  205.08   25.40
   5   0   6  166.48    8.20
  -6   0  -6  153.88    9.40
  -6   0  -6  174.88    7.60
  -6   0  -6  167.08    7.90
  -6   0  -6  173.38    7.90
   6   0   6  187.08    8.60
   6   0   6  191.78    8.70
   6   0   6  186.48    8.30
   7  -1  -6  215.18   12.10
   7  -1  -6  268.57   11.60
  -7   1   6   58.19    4.40
  -7   1   6   63.69    4.50
  -7   1   6   67.59    4.50
   6  -1  -6  226.48   12.20
  -6   1   6   89.89    5.30
  -6   1   6   94.89    6.50
  -6   1   6   95.09    5.80
   5  -1  -6   51.99    3.20
   5  -1  -6   50.79    3.20
   5  -1  -6   55.09    5.30
   5  -1  -6   49.99    3.50
  -5   1   6   38.30    6.50
  -5   1   6   40.60    3.30
  -5   1   6   43.60    4.50
   4  -1  -6  498.75   23.70
   4  -1  -6  506.25   21.70
   4  -1  -6  514.15   20.50
   4  -1  -6  536.55   22.70
   4  -1  -6  470.65   22.50
   4  -1  -6  534.65   20.70
   4  -1  -6  546.15   21.00
  -4   1   6  533.35   22.80
  -4   1   6  515.75   20.50
  -4   1   6  490.45   20.90
   3  -1  -6  170.28    7.70
   3  -1  -6  167.68    7.40
   3  -1  -6  171.18    9.30
   3  -1  -6  157.18    9.50
   3  -1  -6  168.68    7.60
   3  -1  -6  169.18    7.70
  -3   1   6  164.08    7.20
  -3   1   6  166.28    8.80
   2  -1  -6  771.22   31.70
   2  -1  -6  789.92   30.60
   2  -1  -6  790.32   30.40
   2  -1  -6  728.93   31.60
   2  -1  -6  784.62   30.30
   2  -1  -6  773.62   30.10
  -2   1   6  815.42   31.90
  -2   1   6  853.71   32.00
  -2   1   6  804.22   31.90
   1  -1  -6  672.03   25.70
   1  -1  -6  632.84   25.80
   1  -1  -6  666.43   25.90
   1  -1  -6  679.03   27.00
   1  -1  -6  638.14   25.90
  -1   1   6  691.43   24.90
  -1   1   6  595.04   25.80
  -1   1   6  589.84   25.10
  -1   1   6  662.83   24.60
   0  -1  -6  113.59    5.70
   0  -1  -6  121.19    5.30
   0  -1  -6  120.09    5.70
   0  -1  -6  120.49    5.70
   0  -1  -6  117.29    5.80
   0  -1  -6  123.29    6.30
   0   1   6  135.99    5.90
   0   1   6  130.09    5.80
   0   1   6  132.89    5.80
   0   1   6  121.49    5.40
  -1  -1  -6  138.39    6.50
  -1  -1  -6  154.58    7.30
  -1  -1  -6  142.29    6.60
  -1  -1  -6  141.89    6.80
  -1  -1  -6  137.59    6.60
  -1  -1  -6  150.98    6.20
  -1  -1  -6  144.39    6.40
  -1  -1  -6  139.79    6.90
  -1  -1  -6  134.39    6.30
   1   1   6  163.88    7.10
   1   1   6  158.38    7.00
   1   1   6  157.58    6.60
   1   1   6  153.08    6.70
  -2  -1  -6  459.15   18.10
  -2  -1  -6  436.06   18.30
  -2  -1  -6  436.06   18.30
  -2  -1  -6  450.65   18.10
  -2  -1  -6  421.96   18.20
  -2  -1  -6  441.76   17.70
  -2  -1  -6  431.16   17.90
  -2  -1  -6  457.25   17.90
  -2  -1  -6  450.55   18.70
  -2  -1  -6  455.95   18.70
   2   1   6  504.75   19.50
   2   1   6  474.05   19.10
   2   1   6  471.45   19.10
   2   1   6  456.75   19.30
   2   1   6  516.85   19.60
  -3  -1  -6   25.50    3.20
  -3  -1  -6   19.90    4.60
  -3  -1  -6   23.90    4.30
  -3  -1  -6   24.10    3.80
  -3  -1  -6   24.10    2.60
   3   1   6   22.70    4.60
   3   1   6   31.00    2.50
   3   1   6   26.40    2.00
   3   1   6   28.30    2.20
   3   1   6   22.70    3.00
   3   1   6   29.10    2.40
  -4  -1  -6   21.30    2.50
  -4  -1  -6   21.70    2.90
  -4  -1  -6   27.20    4.10
  -4  -1  -6   20.30    3.50
  -4  -1  -6   19.50    3.60
  -4  -1  -6   23.60    2.70
   4   1   6   28.40    3.90
   4   1   6   23.50    2.70
   4   1   6   21.10    3.10
   4   1   6   15.90    2.80
   4   1   6   20.30    2.50
   4   1   6   20.40    2.20
   4   1   6   22.70    3.00
  -5  -1  -6  119.59    6.00
  -5  -1  -6  117.69    6.20
  -5  -1  -6  117.79    6.20
  -5  -1  -6  112.19    8.00
   5   1   6  121.79    6.50
   5   1   6  133.19    7.10
   5   1   6  122.79    5.70
   5   1   6  127.69    7.50
   5   1   6  133.79    6.90
  -6  -1  -6   20.40    4.80
  -6  -1  -6   13.20    2.70
  -6  -1  -6   16.10    2.90
  -6  -1  -6   19.50    2.70
   6   1   6   18.00    2.60
   6   1   6   13.70    2.90
   6   1   6   18.00    2.90
  -7  -1  -6   87.99    4.70
  -7  -1  -6   81.29    4.30
   7   1   6  104.39    5.00
   7   1   6   97.49    5.40
   7   1   6  103.79    5.00
   7  -2  -6  451.25   17.30
   7  -2  -6  340.67   17.30
  -7   2   6  170.18    8.10
  -7   2   6  174.18    8.10
  -7   2   6  171.78    8.10
   6  -2  -6  272.27   11.60
   6  -2  -6  253.37   11.00
   6  -2  -6  262.97   13.80
  -6   2   6  236.48   10.80
  -6   2   6  226.88   10.30
  -6   2   6  239.38   11.50
   5  -2  -6  446.66   18.40
   5  -2  -6  418.46   18.90
   5  -2  -6  471.85   20.80
   5  -2  -6  497.15   19.10
   5  -2  -6  463.35   20.00
   5  -2  -6  483.55   18.60
   5  -2  -6  440.36   24.00
  -5   2   6  448.06   18.30
   4  -2  -6  577.84   26.90
   4  -2  -6  578.84   22.90
   4  -2  -6  585.14   23.40
   4  -2  -6  584.84   24.40
   4  -2  -6  578.74   25.00
   4  -2  -6  582.04   23.10
  -4   2   6  545.85   24.00
  -4   2   6  560.44   21.90
   3  -2  -6  858.91   36.70
   3  -2  -6  943.71   35.70
   3  -2  -6  915.51   37.10
   3  -2  -6  930.11   35.50
   3  -2  -6  902.61   35.40
   3  -2  -6  926.71   38.60
   3  -2  -6  896.51   35.80
  -3   2   6  905.81   35.30
  -3   2   6  928.31   37.30
   2  -2  -6  513.35   20.00
   2  -2  -6  505.95   21.20
   2  -2  -6  514.85   19.90
   2  -2  -6  470.15   20.20
   2  -2  -6  472.35   19.90
  -2   2   6  551.64   21.60
  -2   2   6  535.45   21.30
   1  -2  -6 2848.01  110.59
   1  -2  -6 2959.10  111.49
   1  -2  -6 2895.51  110.39
  -1   2   6 2916.71  110.79
  -1   2   6 2926.41  111.09
   0  -2  -6  657.73   26.70
   0  -2  -6  670.93   26.40
   0  -2  -6  696.53   26.10
   0  -2  -6  668.03   26.90
   0   2   6  755.52   28.50
   0   2   6  716.73   28.10
   0   2   6  708.33   28.50
   0   2   6  749.23   28.20
  -1  -2  -6 2161.68   80.79
  -1  -2  -6 2024.50   80.49
  -1  -2  -6 2074.99   80.69
  -1  -2  -6 2146.49   80.59
  -1  -2  -6 2207.28   80.29
  -1  -2  -6 2074.39   80.99
  -1  -2  -6 2063.29   80.89
   1   2   6 2265.97   83.59
   1   2   6 2265.97   83.69
   1   2   6 2068.79   84.29
  -2  -2  -6  252.67   10.50
  -2  -2  -6  257.87   10.30
  -2  -2  -6  227.38   10.00
  -2  -2  -6  241.08   10.40
  -2  -2  -6  251.87   11.00
  -2  -2  -6  246.88   11.00
  -2  -2  -6  251.27   10.50
  -2  -2  -6  245.98   10.60
  -2  -2  -6  239.88   10.50
   2   2   6  278.77   11.20
   2   2   6  277.77   12.90
   2   2   6  280.87   11.30
   2   2   6  275.87   11.60
   2   2   6  273.47   11.60
  -3  -2  -6  788.32   31.10
  -3  -2  -6  851.91   30.60
  -3  -2  -6  762.12   31.20
  -3  -2  -6  707.83   30.50
  -3  -2  -6  779.12   31.10
  -3  -2  -6  794.02   31.10
  -3  -2  -6  756.72   30.60
   3   2   6  870.61   33.90
   3   2   6  867.41   33.50
   3   2   6  853.51   36.20
   3   2   6  845.52   33.50
   3   2   6  874.01   33.90
  -4  -2  -6 1100.89   43.60
  -4  -2  -6 1113.69   43.70
  -4  -2  -6 1106.09   44.20
  -4  -2  -6 1186.18   43.50
  -4  -2  -6 1042.70   44.20
  -4  -2  -6 1145.09   44.00
   4   2   6 1227.08   48.30
   4   2   6 1231.68   48.20
   4   2   6 1282.07   47.80
   4   2   6 1203.38   48.10
   4   2   6 1233.08   47.70
   4   2   6 1230.58   48.60
  -5  -2  -6  600.84   24.80
  -5  -2  -6  611.34   24.30
   5   2   6  643.74   25.30
   5   2   6  632.24   25.60
   5   2   6  648.74   26.00
   5   2   6  636.14   27.10
   5   2   6  654.63   26.20
   5   2   6  657.33   26.30
   5   2   6  634.24   26.00
  -6  -2  -6  226.18   10.80
  -6  -2  -6  249.58   10.50
  -6  -2  -6  236.68   11.50
   6   2   6  264.67   11.60
   6   2   6  250.87   12.20
   6   2   6  261.77   11.70
  -7  -2  -6  170.18    9.00
  -7  -2  -6  176.98    8.00
  -7  -2  -6  184.68    8.10
   7   2   6  200.38    8.80
   7   2   6  196.18    8.60
   7   2   6  209.48    8.90
   7  -3  -6  287.77   12.50
   7  -3  -6  332.57   13.90
  -7   3   6  226.88   10.40
  -7   3   6  245.18   10.40
   6  -3  -6  968.80   38.50
   6  -3  -6  869.41   36.60
   6  -3  -6  976.80   37.80
  -6   3   6  910.81   35.10
  -6   3   6  866.51   34.80
   5  -3  -6  436.76   17.60
   5  -3  -6  417.56   17.20
   5  -3  -6  413.76   23.60
   5  -3  -6  434.16   18.80
   5  -3  -6  417.16   17.60
   5  -3  -6  433.76   19.40
  -5   3   6  382.86   17.50
  -5   3   6  424.76   16.60
   4  -3  -6 1315.87   53.39
   4  -3  -6 1354.36   53.99
   4  -3  -6 1328.77   52.39
   4  -3  -6 1359.96   56.89
   4  -3  -6 1330.37   52.39
   4  -3  -6 1404.96   52.09
  -4   3   6 1270.17   49.30
   3  -3  -6  112.29    8.70
   3  -3  -6  136.79    7.00
   3  -3  -6  121.89    5.90
   3  -3  -6  123.59    6.90
  -3   3   6  115.29    6.80
   2  -3  -6 1551.34   55.59
   2  -3  -6 1416.06   54.99
   2  -3  -6 1479.25   54.79
   2  -3  -6 1450.15   55.09
   2  -3  -6 1438.16   56.09
   2  -3  -6 1203.18   55.29
   2  -3  -6 1425.86   55.69
  -2   3   6 1472.15   56.29
   1  -3  -6  760.52   30.40
   1  -3  -6  835.12   31.50
   1  -3  -6  759.22   30.70
   1  -3  -6  769.12   30.80
  -1   3   6  758.62   32.70
  -1   3   6  778.62   31.70
  -1   3   6  804.92   30.90
  -1   3   6  839.42   30.80
   0  -3  -6 1490.65   54.49
   0  -3  -6 1424.76   54.99
   0  -3  -6 1449.55   54.79
   0  -3  -6 1332.07   55.29
   0   3   6 1492.25   59.29
   0   3   6 1560.14   59.69
   0   3   6 1634.24   60.19
  -1  -3  -6   88.59    3.90
  -1  -3  -6   83.09    4.40
  -1  -3  -6   79.89    4.30
  -1  -3  -6   78.69    4.60
  -1  -3  -6   84.69    4.60
  -1  -3  -6   69.59    4.60
  -1  -3  -6   82.89    4.50
   1   3   6   87.09    4.80
   1   3   6   83.29    4.90
   1   3   6   96.99    4.50
   1   3   6   88.49    3.90
  -2  -3  -6  288.37   12.40
  -2  -3  -6  285.97   12.10
  -2  -3  -6  279.77   12.00
  -2  -3  -6  298.87   13.10
  -2  -3  -6  292.27   12.50
  -2  -3  -6  282.07   12.30
  -2  -3  -6  266.47   12.10
  -2  -3  -6  295.77   11.80
  -2  -3  -6  296.27   12.10
   2   3   6  330.87   14.00
   2   3   6  342.17   13.50
   2   3   6  343.77   14.00
  -3  -3  -6  615.54   25.00
  -3  -3  -6  615.04   24.60
  -3  -3  -6  654.33   24.50
  -3  -3  -6  564.14   25.70
  -3  -3  -6  601.74   24.40
  -3  -3  -6  612.24   24.50
  -3  -3  -6  651.53   25.30
  -3  -3  -6  587.84   24.70
   3   3   6  693.53   27.20
   3   3   6  677.53   26.20
   3   3   6  629.94   26.80
   3   3   6  667.33   26.70
   3   3   6  664.93   26.20
   3   3   6  690.23   27.30
  -4  -3  -6   73.79    5.30
  -4  -3  -6   75.99    4.40
  -4  -3  -6   67.29    4.70
  -4  -3  -6   70.69    4.30
  -4  -3  -6   69.99    5.10
   4   3   6   77.89    4.00
   4   3   6   64.79    4.60
   4   3   6   77.99    4.90
   4   3   6   77.09    5.40
   4   3   6   83.69    4.50
   4   3   6   73.69    5.40
   4   3   6   81.59    4.20
  -5  -3  -6  254.77   12.20
  -5  -3  -6  259.57   11.70
  -5  -3  -6  251.87   11.40
  -5  -3  -6  257.67   11.20
   5   3   6  280.57   12.00
   5   3   6  281.87   12.50
   5   3   6  301.87   12.70
   5   3   6  303.17   12.00
   5   3   6  280.67   12.70
   5   3   6  289.87   12.20
   5   3   6  282.97   13.00
   5   3   6  283.47   12.80
  -6  -3  -6   84.59    6.10
  -6  -3  -6   70.49    6.90
  -6  -3  -6   88.39    4.90
  -6  -3  -6   85.59    5.10
   6   3   6   97.99    5.30
  -7  -3  -6   61.29    6.20
  -7  -3  -6   82.29    4.60
  -7  -3  -6   78.39    4.40
   7   3   6   88.29    5.00
   7   3   6   89.39    4.70
   7   3   6   95.59    5.10
   6  -4  -6   68.59    5.20
   6  -4  -6   63.39    4.40
   6  -4  -6   65.49    4.40
  -6   4   6   58.69    4.60
  -6   4   6   65.89    5.30
   5  -4  -6   69.19    4.00
   5  -4  -6   63.89    5.60
   5  -4  -6   67.59    4.70
   5  -4  -6   63.49    4.90
  -5   4   6   46.30    6.00
  -5   4   6   63.29    4.20
   4  -4  -6    8.30    2.00
   4  -4  -6    4.40    5.10
   4  -4  -6    5.00    1.70
  -4   4   6    6.20    1.70
  -4   4   6    4.50    2.00
   3  -4  -6    1.80    1.50
   3  -4  -6    1.00    1.20
   3  -4  -6    1.50    1.60
   3  -4  -6    1.10    1.10
   3  -4  -6    0.10    2.80
  -3   4   6    1.30    1.30
   2  -4  -6  122.69    5.90
   2  -4  -6  112.99    5.70
   2  -4  -6  111.79    8.60
   2  -4  -6  116.49    5.60
   2  -4  -6  112.99    7.40
  -2   4   6  112.59    6.40
  -2   4   6  127.79    6.30
   1  -4  -6    8.40    1.60
   1  -4  -6    9.60    2.20
   1  -4  -6    8.80    2.40
   1  -4  -6    9.00    1.60
   1  -4  -6    7.00    1.50
   1  -4  -6    9.00    1.80
   1  -4  -6   11.60    2.10
  -1   4   6    8.00    2.10
   0  -4  -6  854.61   33.10
   0  -4  -6  829.12   32.80
   0  -4  -6  807.62   32.90
   0  -4  -6  896.61   33.10
   0  -4  -6  812.52   32.80
   0   4   6  928.51   35.40
   0   4   6  922.61   36.30
   0   4   6  883.81   36.30
   0   4   6  901.11   34.60
  -1  -4  -6 1059.59   40.20
  -1  -4  -6 1085.49   39.80
  -1  -4  -6 1051.79   40.30
  -1  -4  -6 1038.70   40.30
  -1  -4  -6  932.01   40.60
  -1  -4  -6 1038.10   40.40
   1   4   6 1081.59   41.90
   1   4   6 1118.99   42.60
   1   4   6 1094.19   43.10
  -2  -4  -6  361.46   15.60
  -2  -4  -6  361.26   15.10
  -2  -4  -6  387.26   15.00
  -2  -4  -6  373.16   15.90
  -2  -4  -6  370.66   15.30
  -2  -4  -6  374.66   15.40
  -2  -4  -6  357.96   15.90
  -2  -4  -6  385.66   15.60
  -2  -4  -6  377.66   15.40
   2   4   6  422.86   16.50
   2   4   6  416.36   17.30
  -3  -4  -6  547.25   22.50
  -3  -4  -6  554.64   22.30
  -3  -4  -6  514.55   21.70
  -3  -4  -6  543.25   22.30
  -3  -4  -6  546.55   21.80
  -3  -4  -6  538.85   21.90
   3   4   6  601.64   22.20
   3   4   6  564.44   23.10
   3   4   6  586.84   22.20
   3   4   6  499.05   22.80
  -4  -4  -6  126.69    6.40
  -4  -4  -6  125.99    7.00
  -4  -4  -6  123.69    6.70
  -4  -4  -6  129.39    6.30
  -4  -4  -6  131.89    6.50
  -4  -4  -6  122.19    7.20
   4   4   6  132.79    7.50
   4   4   6  134.09    6.40
   4   4   6  140.89    7.00
   4   4   6  128.89    6.50
   4   4   6  143.49    6.30
  -5  -4  -6  618.14   25.40
  -5  -4  -6  591.64   25.70
  -5  -4  -6  612.74   24.70
  -5  -4  -6  635.74   25.10
   5   4   6  602.94   26.70
   5   4   6  654.13   25.00
   5   4   6  614.74   25.50
   5   4   6  665.13   25.60
   5   4   6  632.74   24.90
   5   4   6  654.43   25.10
   5   4   6  644.24   25.40
   5   4   6  626.84   25.60
   5   4   6  581.24   25.90
  -6  -4  -6   99.49    6.60
  -6  -4  -6  100.09    5.80
  -6  -4  -6  101.49    5.60
   6   4   6  106.09    6.50
   6   4   6  103.79    5.50
   6   4   6  103.09    5.40
   6   4   6  101.59    4.80
  -7  -4  -6   50.09    3.50
  -7  -4  -6   55.09    3.70
  -7  -4  -6   52.89    4.90
   7   4   6   58.29    3.90
   7   4   6   52.39    3.40
   7   4   6   51.39    4.10
   6  -5  -6   49.99    3.60
   6  -5  -6   55.99    3.90
   6  -5  -6   52.39    4.30
  -6   5   6   29.70    5.10
   5  -5  -6  201.18    9.20
   5  -5  -6  204.78   10.40
   5  -5  -6  198.18   10.00
   5  -5  -6  200.28    9.00
  -5   5   6  190.38    8.70
   4  -5  -6  462.95   19.60
   4  -5  -6  465.85   20.40
   4  -5  -6  495.35   21.10
   4  -5  -6  460.35   19.10
  -4   5   6  468.15   16.80
  -4   5   6  356.06   19.90
   3  -5  -6  160.68    9.00
   3  -5  -6  153.38    7.30
   3  -5  -6  152.18    7.50
   3  -5  -6  158.08    8.30
  -3   5   6  145.09    8.50
   2  -5  -6   15.20    2.40
   2  -5  -6   14.10    2.80
   2  -5  -6   13.80    2.60
  -2   5   6    9.60    1.70
   1  -5  -6   32.70    4.40
   1  -5  -6   36.50    2.80
   1  -5  -6   31.00    3.40
   1  -5  -6   33.50    2.90
   1  -5  -6   34.00    4.10
   1  -5  -6   40.90    5.00
   1  -5  -6   38.30    4.50
  -1   5   6   36.40    3.20
   0  -5  -6  194.88    9.50
   0  -5  -6  203.38    9.00
   0  -5  -6  200.88    9.50
   0  -5  -6  209.58    9.40
   0  -5  -6  203.68    8.90
   0  -5  -6  203.18    9.10
   0   5   6  212.78    8.30
   0   5   6  206.88    9.40
  -1  -5  -6  122.49    7.00
  -1  -5  -6  114.09    5.70
  -1  -5  -6   99.49    6.90
  -1  -5  -6  112.09    5.90
  -1  -5  -6  118.29    5.60
  -1  -5  -6  101.39    6.70
  -1  -5  -6  109.29    5.20
  -1  -5  -6  119.79    5.70
   1   5   6  122.59    5.40
   1   5   6  128.19    6.30
  -2  -5  -6 1565.84   60.89
  -2  -5  -6 1798.82   63.09
  -2  -5  -6 1466.25   61.19
  -2  -5  -6 1521.65   61.19
  -2  -5  -6 1582.84   61.69
  -2  -5  -6 1554.24   60.69
   2   5   6 1557.84   59.69
   2   5   6 1581.84   60.69
   2   5   6 1543.15   59.69
  -3  -5  -6  415.86   16.90
  -3  -5  -6  411.06   17.70
  -3  -5  -6  401.86   17.10
  -3  -5  -6  410.86   17.00
  -3  -5  -6  409.86   17.70
   3   5   6  434.06   18.10
   3   5   6  442.16   18.90
   3   5   6  450.65   17.90
   3   5   6  463.65   17.90
  -4  -5  -6  506.25   21.10
  -4  -5  -6  498.25   21.30
  -4  -5  -6  515.65   21.10
  -4  -5  -6  528.55   22.10
  -4  -5  -6  542.55   21.30
  -4  -5  -6  531.85   21.90
  -4  -5  -6  522.45   21.20
   4   5   6  564.04   23.90
   4   5   6  588.74   22.60
   4   5   6  568.74   23.00
   4   5   6  564.04   22.60
   4   5   6  556.04   22.60
  -5  -5  -6   40.00    3.60
  -5  -5  -6   41.90    3.60
  -5  -5  -6   40.80    4.20
  -5  -5  -6   42.40    3.40
   5   5   6   44.20    3.50
   5   5   6   43.90    3.00
   5   5   6   42.50    4.60
   5   5   6   36.40    4.00
   5   5   6   46.20    2.90
   5   5   6   40.90    6.10
  -6  -5  -6  851.31   34.40
  -6  -5  -6  892.71   34.10
  -6  -5  -6  822.62   34.70
   6   5   6  920.21   35.60
   6   5   6  896.21   36.40
   6   5   6  929.61   36.00
   6   5   6  948.51   36.60
   6   5   6  901.01   36.80
  -7  -5  -6   72.09    4.40
  -7  -5  -6   65.59    5.10
  -7  -5  -6   66.49    4.00
   7   5   6   88.69    5.00
   7   5   6   81.99    4.40
   7   5   6   82.29    4.60
   5  -6  -6  124.09    6.80
   5  -6  -6  120.79    6.60
   5  -6  -6  104.39    5.80
  -5   6   6   75.39    5.70
  -4   6   6  134.49    6.60
   3  -6  -6   39.20    4.50
   3  -6  -6   40.90    3.40
   3  -6  -6   42.10    4.00
  -3   6   6   41.20    2.90
   2  -6  -6  370.76   16.50
   2  -6  -6  387.86   15.80
   2  -6  -6  379.86   17.00
   2  -6  -6  358.66   15.60
   1  -6  -6  145.39    7.00
   1  -6  -6  146.49    7.30
   1  -6  -6  138.19    6.90
   1  -6  -6  138.99    7.40
   1  -6  -6  145.59    8.40
  -1   6   6  125.69    5.40
  -1   6   6  128.99    7.00
   0  -6  -6  924.61   35.40
   0  -6  -6  851.51   35.40
   0  -6  -6  915.21   35.80
   0   6   6  903.11   36.10
   0   6   6  903.91   34.60
  -1  -6  -6   86.29    7.20
  -1  -6  -6   66.19    4.80
  -1  -6  -6   75.79    5.20
  -1  -6  -6   79.09    4.50
   1   6   6   83.89    3.80
   1   6   6   78.29    4.90
   1   6   6   78.79    4.90
  -2  -6  -6  225.98   10.70
  -2  -6  -6  237.08   11.10
  -2  -6  -6  239.08   10.60
  -2  -6  -6  232.38   10.30
  -2  -6  -6  224.58    9.80
   2   6   6  252.37   10.30
   2   6   6  250.57   11.50
   2   6   6  251.77   10.50
  -3  -6  -6  273.07   11.90
  -3  -6  -6  277.37   11.90
  -3  -6  -6  283.27   12.90
  -3  -6  -6  261.97   12.40
  -3  -6  -6  275.57   12.10
  -3  -6  -6  274.37   11.70
   3   6   6  299.77   12.30
   3   6   6  285.27   13.50
   3   6   6  305.87   12.60
   3   6   6  301.57   12.90
  -4  -6  -6  246.08   11.00
  -4  -6  -6  234.08   12.00
  -4  -6  -6  245.28   11.00
  -4  -6  -6  258.97   11.00
  -4  -6  -6  253.17   11.20
  -4  -6  -6  255.17   12.20
   4   6   6  259.87   12.10
   4   6   6  281.77   11.70
   4   6   6  286.37   11.70
   4   6   6  285.57   11.70
  -5  -6  -6  475.75   20.60
  -5  -6  -6  458.05   19.90
  -5  -6  -6  472.05   19.40
  -5  -6  -6  477.55   19.40
   5   6   6  447.56   22.00
   5   6   6  511.25   20.50
   5   6   6  508.55   20.10
   5   6   6  511.95   20.10
   5   6   6  523.05   20.20
  -6  -6  -6  130.39    7.70
  -6  -6  -6  119.19    6.60
  -6  -6  -6  137.19    7.20
   6   6   6  133.09    6.40
   6   6   6  151.98    6.60
   6   6   6  136.09    6.90
   6   6   6  157.28    8.20
  -7  -6  -6  422.16   17.20
  -7  -6  -6  426.26   17.50
   7   6   6  444.96   19.20
   7   6   6  497.65   20.80
   7   6   6  494.55   19.40
   5  -7  -6  357.06   15.10
   5  -7  -6  361.46   14.80
   5  -7  -6  361.56   15.40
   4  -7  -6  514.65   21.00
   4  -7  -6  530.05   21.80
   4  -7  -6  502.85   21.90
  -4   7   6  281.77   12.00
   3  -7  -6  602.64   25.80
   3  -7  -6  641.64   27.60
   3  -7  -6  675.63   26.80
  -3   7   6  654.83   25.60
   2  -7  -6 1274.67   50.69
   2  -7  -6 1258.67   50.99
   2  -7  -6 1269.77   49.60
   2  -7  -6 1300.57   49.90
  -2   7   6 1282.27   46.20
  -2   7   6 1124.39   48.20
   1  -7  -6 1182.28   46.40
   1  -7  -6 1128.19   45.50
   1  -7  -6 1183.08   46.70
   1  -7  -6 1194.88   45.60
   1  -7  -6 1138.39   45.60
  -1   7   6 1228.68   47.00
   0  -7  -6 1938.31   75.09
   0  -7  -6 1959.80   75.19
   0  -7  -6 1899.51   74.99
   0  -7  -6 1987.10   76.99
   0  -7  -6 1953.10   75.69
   0   7   6 2048.79   77.09
   0   7   6 1986.70   78.59
  -1  -7  -6 2065.59   79.49
  -1  -7  -6 2108.59   80.29
  -1  -7  -6 2066.39   79.89
  -1  -7  -6 2006.00   79.59
  -1  -7  -6 2103.69   79.79
   1   7   6 1836.42   76.59
   1   7   6 2110.99   77.69
   1   7   6 2022.80   75.99
  -2  -7  -6  642.04   26.80
  -2  -7  -6  626.84   25.60
  -2  -7  -6  665.63   26.60
  -2  -7  -6  664.93   27.30
  -2  -7  -6  659.93   26.50
  -2  -7  -6  668.33   26.20
  -2  -7  -6  620.44   26.00
  -2  -7  -6  672.63   26.30
   2   7   6  642.44   27.60
   2   7   6  693.23   26.10
   2   7   6  673.33   26.50
   2   7   6  653.43   26.10
  -3  -7  -6 1362.46   53.99
  -3  -7  -6 1323.07   52.49
  -3  -7  -6 1343.17   52.69
  -3  -7  -6 1350.06   53.49
  -3  -7  -6 1393.16   53.09
  -3  -7  -6 1372.46   52.79
   3   7   6 1393.76   54.39
   3   7   6 1399.46   54.59
   3   7   6 1448.66   54.49
  -4  -7  -6  595.04   23.50
  -4  -7  -6  567.64   23.40
  -4  -7  -6  574.04   24.20
  -4  -7  -6  591.94   23.80
   4   7   6  585.04   26.20
   4   7   6  622.44   24.40
   4   7   6  643.94   24.40
   4   7   6  602.04   25.70
  -5  -7  -6  513.55   20.60
  -5  -7  -6  509.45   20.60
  -5  -7  -6  492.95   21.80
  -5  -7  -6  500.15   21.20
   5   7   6  557.34   21.30
   5   7   6  549.95   21.20
   5   7   6  447.46   24.10
   5   7   6  546.35   21.40
   5   7   6  548.95   21.30
  -6  -7  -6   59.49    5.30
  -6  -7  -6   72.59    4.10
  -6  -7  -6   67.59    4.70
   6   7   6   74.19    4.50
   6   7   6   77.69    4.30
   6   7   6   69.89    3.70
   6   7   6   63.19    4.60
   6   7   6   72.99    3.80
  -7  -7  -6  187.98    8.30
  -7  -7  -6  204.18    8.70
  -7  -7  -6  185.78    9.30
   7   7   6  217.58    9.40
   7   7   6  220.78    9.20
   4  -8  -6   56.39    4.00
   4  -8  -6   55.79    3.40
   4  -8  -6   55.59    3.80
   3  -8  -6    2.20    1.40
   3  -8  -6    3.10    1.60
   3  -8  -6    1.70    1.10
  -3   8   6   -1.60    2.20
   2  -8  -6  245.68   10.70
   2  -8  -6  251.77   12.00
  -2   8   6  247.58   10.30
   1  -8  -6    6.00    1.50
   1  -8  -6    5.10    1.80
   1  -8  -6    3.70    2.30
   1  -8  -6    5.70    1.30
  -1   8   6    9.30    1.90
  -1   8   6    8.50    1.70
  -1   8   6    5.30    3.80
   0  -8  -6   63.49    4.00
   0  -8  -6   66.49    4.50
   0  -8  -6   69.89    4.10
   0  -8  -6   66.69    4.70
   0  -8  -6   56.99    5.60
   0   8   6   67.19    3.40
   0   8   6   64.99    6.40
  -1  -8  -6  368.96   15.70
  -1  -8  -6  373.76   15.60
  -1  -8  -6  374.16   16.20
  -1  -8  -6  366.76   15.70
   1   8   6  370.06   16.00
   1   8   6  430.26   21.80
   1   8   6  398.86   16.00
  -2  -8  -6  374.16   15.80
  -2  -8  -6  382.46   16.30
  -2  -8  -6  378.66   15.80
  -2  -8  -6  363.06   15.90
  -2  -8  -6  378.76   15.10
   2   8   6  374.66   15.80
   2   8   6  384.16   19.30
   2   8   6  419.06   15.80
   2   8   6  377.06   15.70
  -3  -8  -6  119.69    6.10
  -3  -8  -6  122.09    7.60
  -3  -8  -6  110.79    5.70
  -3  -8  -6  119.99    6.40
  -3  -8  -6  125.09    6.10
  -3  -8  -6  118.19    6.80
   3   8   6  132.29    5.90
   3   8   6  124.09    5.90
   3   8   6  119.89    5.90
   3   8   6  117.49    8.10
  -4  -8  -6  306.97   14.40
  -4  -8  -6  305.47   13.20
  -4  -8  -6  296.27   13.60
  -4  -8  -6  303.67   12.90
  -4  -8  -6  294.47   12.80
  -4  -8  -6  308.77   12.80
   4   8   6  335.87   13.50
   4   8   6  334.77   13.40
   4   8   6  295.47   16.40
   4   8   6  329.57   13.40
  -5  -8  -6  344.27   13.70
  -5  -8  -6  333.57   14.30
  -5  -8  -6  296.27   14.10
  -5  -8  -6  312.97   14.80
   5   8   6  349.07   14.80
   5   8   6  366.16   15.40
   5   8   6  371.86   15.80
   5   8   6  359.16   14.60
  -6  -8  -6   56.49    3.40
  -6  -8  -6   61.49    4.10
  -6  -8  -6   52.99    4.70
   6   8   6   65.49    4.00
   6   8   6   62.09    3.10
   6   8   6   54.49    3.90
  -7  -8  -6    7.20    1.80
  -7  -8  -6   10.30    1.30
  -7  -8  -6    7.20    1.30
   7   8   6    9.90    1.70
   3  -9  -6   23.00    2.20
   3  -9  -6   28.70    2.80
   3  -9  -6   20.00    3.20
   2  -9  -6  122.39    6.60
   2  -9  -6  123.39    6.50
   2  -9  -6  107.59    5.80
   2  -9  -6  118.19    5.50
  -2   9   6  107.39    5.50
  -2   9   6  115.89    5.80
   1  -9  -6  238.38   10.80
   1  -9  -6  205.38   10.50
   1  -9  -6  217.08    9.70
   1  -9  -6  234.18   10.20
  -1   9   6  211.88    9.20
  -1   9   6  226.78    9.30
   0  -9  -6  172.68    8.00
   0  -9  -6  161.08    8.90
   0   9   6  187.68    8.10
   0   9   6  193.98    8.20
  -1  -9  -6   19.50    2.30
  -1  -9  -6   22.90    2.30
  -1  -9  -6   19.20    2.50
  -1  -9  -6   20.30    2.70
   1   9   6   22.40    2.00
   1   9   6   19.20    2.20
   1   9   6   26.10    3.30
  -2  -9  -6  190.68    9.10
  -2  -9  -6  188.48    8.60
  -2  -9  -6  184.68    8.70
  -2  -9  -6  188.98    8.60
   2   9   6  203.68    9.00
   2   9   6  191.58    8.50
   2   9   6  202.38    8.60
  -3  -9  -6   19.90    4.10
  -3  -9  -6   24.50    2.40
  -3  -9  -6   21.20    2.40
  -3  -9  -6   17.50    2.80
   3   9   6   21.00    2.10
   3   9   6   22.60    3.30
   3   9   6   20.30    2.10
  -4  -9  -6  336.07   15.20
  -4  -9  -6  323.27   13.90
  -4  -9  -6  326.37   13.50
  -4  -9  -6  319.97   14.20
  -4  -9  -6  341.17   14.00
  -4  -9  -6  341.57   13.80
   4   9   6  367.16   14.70
   4   9   6  366.86   14.80
   4   9   6  365.96   15.30
   4   9   6  355.96   14.80
  -5  -9  -6  107.19    5.70
  -5  -9  -6  114.39    5.40
  -5  -9  -6  117.29    7.00
  -5  -9  -6  116.49    5.60
   5   9   6  122.69    5.60
   5   9   6  133.09    5.60
   5   9   6  121.29    5.90
   5   9   6  122.69    6.20
  -6  -9  -6  240.68   11.30
  -6  -9  -6  253.77   10.20
  -6  -9  -6  243.08   10.20
   6   9   6  267.27   10.80
   6   9   6  236.98   10.40
   6   9   6  264.07   10.20
   1 -10  -6  164.78    7.80
   1 -10  -6  153.08    8.00
   1 -10  -6  163.68    7.10
   1 -10  -6  167.38    7.30
  -1  10   6  147.39    7.00
  -1  10   6  162.78    6.90
   0 -10  -6   42.30    2.90
   0 -10  -6   42.00    3.10
   0 -10  -6   40.00    3.50
   0  10   6   42.90    2.80
   0  10   6   45.50    3.10
  -1 -10  -6  162.38    7.40
  -1 -10  -6  157.28    7.30
  -1 -10  -6  159.48    7.90
   1  10   6  176.38    7.60
   1  10   6  178.58    7.70
   1  10   6  177.08    7.60
  -2 -10  -6   92.79    5.00
  -2 -10  -6   92.69    5.40
  -2 -10  -6  101.29    5.00
   2  10   6   96.59    4.80
   2  10   6  102.09    4.80
   2  10   6  103.19    4.80
  -3 -10  -6   99.39    5.40
  -3 -10  -6   98.99    4.90
  -3 -10  -6  100.39    5.10
   3  10   6  104.29    5.10
   3  10   6  110.79    5.00
   3  10   6  107.79    5.00
  -4 -10  -6    2.80    1.40
  -4 -10  -6    3.90    0.90
   4  10   6    5.90    1.00
   4  10   6    5.90    1.60
   4  10   6    8.20    1.40
   4  10   6    6.90    1.30
  -5 -10  -6   17.60    2.40
  -5 -10  -6   20.40    2.10
  -5 -10  -6   23.90    2.00
   5  10   6   20.20    1.80
   5  10   6   27.90    2.30
   5  10   6   23.70    1.70
  -1 -11  -6   16.40    1.60
  -1 -11  -6   15.80    2.00
  -1 -11  -6   15.80    2.20
   1  11   6   17.10    1.60
   1  11   6   13.10    2.10
  -2 -11  -6    2.90    0.90
  -2 -11  -6    3.30    1.10
  -2 -11  -6    2.20    0.80
   2  11   6    2.30    1.20
   2  11   6    0.60    0.90
   2  11   6    2.50    0.80
  -3 -11  -6   14.00    2.10
  -3 -11  -6   17.30    3.20
  -3 -11  -6   14.60    2.10
   3  11   6   12.90    1.40
   3  11   6   16.60    1.70
   3  11   6   12.70    1.80
   4   6  -7    2.30    0.90
   4   6  -7    3.10    0.80
  -4  -6   7   10.40    2.90
  -4  -6   7    4.70    1.00
   3   6  -7   48.50    2.80
   3   6  -7   48.10    2.80
   3   6  -7   50.39    3.10
   3   6  -7   52.19    2.80
  -3  -6   7   48.00    3.10
   2   6  -7  123.49    5.60
   2   6  -7  119.29    5.60
   2   6  -7  133.69    5.70
  -2  -6   7  126.59    5.90
  -2  -6   7  116.69    6.60
   1   6  -7   97.09    4.60
   1   6  -7  103.79    4.90
  -1  -6   7  103.19    5.20
  -1  -6   7  103.09    5.60
   0   6  -7  169.58    7.20
   0   6  -7  181.78    7.40
   0   6  -7  155.98    7.00
   0  -6   7  176.78    7.50
   0  -6   7  157.98    8.20
   5   5  -7  231.08    9.60
   5   5  -7  229.38    9.60
   5   5  -7  224.98    9.30
  -5  -5   7  215.58    9.10
  -5  -5   7  196.38    8.60
  -5  -5   7  209.68    8.40
   4   5  -7   20.90    1.80
   4   5  -7   22.30    2.10
   4   5  -7   19.90    2.10
  -4  -5   7   20.10    1.80
  -4  -5   7   19.60    3.10
  -4  -5   7   23.10    2.60
   3   5  -7  122.69    5.60
   3   5  -7  115.69    5.60
   3   5  -7  121.39    5.80
  -3  -5   7  111.39    6.00
  -3  -5   7  123.89    6.50
  -3  -5   7  111.19    5.10
  -3  -5   7  110.99    5.30
   2   5  -7   55.59    3.30
   2   5  -7   54.09    3.50
   2   5  -7   52.29    3.30
  -2  -5   7   58.99    4.90
  -2  -5   7   50.29    2.80
  -2  -5   7   50.99    3.80
  -2  -5   7   42.00    5.70
  -2  -5   7   54.59    3.50
   1   5  -7  188.08    7.90
   1   5  -7  176.38    7.90
   1   5  -7  182.68    7.90
   1   5  -7  164.88    7.70
  -1  -5   7  175.18    8.00
  -1  -5   7  184.48    8.60
  -1  -5   7  157.38    9.50
  -1  -5   7  184.38    8.50
  -1  -5   7  174.08    7.20
   0   5  -7   58.29    3.50
   0   5  -7   58.39    3.40
   0   5  -7   64.79    3.60
   0  -5   7   63.49    4.00
   0  -5   7   62.79    4.00
   0  -5   7   62.79    4.30
  -1   5  -7   37.10    2.50
  -1   5  -7   36.10    2.60
  -1   5  -7   40.90    2.90
   1  -5   7   36.10    3.20
   1  -5   7   41.70    3.00
   1  -5   7   38.30    3.20
  -2   5  -7   92.59    4.80
  -2   5  -7   99.69    4.50
   2  -5   7   93.09    4.80
   2  -5   7  101.49    4.80
   2  -5   7   94.89    4.80
   6   4  -7  225.78   10.60
   6   4  -7  249.97   10.10
   6   4  -7  270.27   10.10
   6   4  -7  249.08   10.20
  -6  -4   7  219.88    9.20
  -6  -4   7  230.48    9.30
   5   4  -7  149.88    6.90
   5   4  -7  153.98    6.70
   5   4  -7  150.38    6.50
  -5  -4   7  151.88    6.70
  -5  -4   7  143.39    6.80
  -5  -4   7  145.89    6.50
  -5  -4   7  154.08    7.50
   4   4  -7  413.16   16.80
   4   4  -7  425.36   16.80
   4   4  -7  411.86   16.70
  -4  -4   7  413.96   17.00
  -4  -4   7  405.16   16.30
  -4  -4   7  395.26   16.60
   3   4  -7  136.99    6.40
   3   4  -7  139.09    6.30
   3   4  -7  132.29    7.90
   3   4  -7  143.89    6.70
  -3  -4   7  147.89    8.10
  -3  -4   7  142.59    6.40
  -3  -4   7  140.79    7.20
  -3  -4   7  134.99    6.50
  -3  -4   7  138.39    6.40
   2   4  -7  395.26   15.70
   2   4  -7  371.66   15.70
   2   4  -7  385.76   15.90
  -2  -4   7  385.36   16.50
  -2  -4   7  378.56   15.40
  -2  -4   7  334.07   16.80
  -2  -4   7  386.86   15.50
  -2  -4   7  381.66   16.40
  -2  -4   7  392.96   15.30
  -2  -4   7  399.16   21.10
   1   4  -7  388.66   15.30
   1   4  -7  342.27   15.30
   1   4  -7  376.96   15.30
   1   4  -7  370.86   15.10
  -1  -4   7  342.87   17.20
  -1  -4   7  389.06   16.30
  -1  -4   7  379.36   15.30
  -1  -4   7  374.66   15.50
  -1  -4   7  377.96   16.90
  -1  -4   7  401.16   15.30
  -1  -4   7  388.76   16.30
   0   4  -7   79.29    4.30
   0   4  -7   78.09    4.20
   0   4  -7   75.39    4.30
   0  -4   7   74.19    4.30
   0  -4   7   79.69    5.80
   0  -4   7   78.69    4.70
   0  -4   7   79.19    3.90
  -1   4  -7  116.39    5.90
  -1   4  -7  107.89    5.70
  -1   4  -7  113.89    5.50
   1  -4   7  114.39    6.40
   1  -4   7  123.99    6.40
   1  -4   7  121.69    6.10
   1  -4   7  110.49    5.20
   1  -4   7  120.19    7.80
  -2   4  -7   48.90    3.10
  -2   4  -7   51.79    3.40
  -2   4  -7   48.40    3.40
   2  -4   7   43.30    3.40
   2  -4   7   44.30    3.40
   2  -4   7   40.60    3.20
  -3   4  -7  191.58    8.20
  -3   4  -7  177.08    7.80
   3  -4   7  185.18    8.30
   3  -4   7  191.18    8.30
   3  -4   7  195.28    8.40
   6   3  -7  335.57   13.10
   6   3  -7  313.97   12.60
   6   3  -7  329.87   13.20
   6   3  -7  311.97   13.10
  -6  -3   7  297.47   12.30
  -6  -3   7  274.97   11.70
  -6  -3   7  300.77   11.90
  -6  -3   7  274.67   11.90
   5   3  -7  267.47   11.50
   5   3  -7  268.57   11.00
   5   3  -7  273.67   11.60
   5   3  -7  271.67   11.30
  -5  -3   7  262.27   10.90
  -5  -3   7  247.98   11.40
  -5  -3   7  250.87   10.70
  -5  -3   7  247.08   10.70
   4   3  -7  644.14   24.10
   4   3  -7  603.64   24.20
   4   3  -7  653.23   24.70
   4   3  -7  564.34   24.60
   4   3  -7  597.84   24.20
  -4  -3   7  643.54   23.70
  -4  -3   7  576.94   23.60
  -4  -3   7  612.24   23.90
  -4  -3   7  591.74   24.30
  -4  -3   7  546.95   27.50
   3   3  -7   53.69    3.40
   3   3  -7   52.79    3.40
   3   3  -7   57.99    3.10
   3   3  -7   47.40    4.00
   3   3  -7   60.99    3.60
  -3  -3   7   51.39    5.30
  -3  -3   7   48.20    7.30
  -3  -3   7   58.59    3.60
  -3  -3   7   53.09    3.50
  -3  -3   7   58.59    3.40
   2   3  -7  377.96   15.00
   2   3  -7  361.26   14.80
   2   3  -7  383.06   15.10
   2   3  -7  328.37   15.20
   2   3  -7  352.66   14.70
  -2  -3   7  326.77   15.00
  -2  -3   7  345.27   14.00
  -2  -3   7  330.17   15.00
  -2  -3   7  359.46   14.00
   1   3  -7  277.57   11.70
   1   3  -7  276.67   11.50
   1   3  -7  270.37   11.60
   1   3  -7  260.07   11.40
  -1  -3   7  267.87   12.70
  -1  -3   7  279.07   12.50
  -1  -3   7  294.57   14.50
  -1  -3   7  280.37   11.60
  -1  -3   7  272.27   15.10
  -1  -3   7  278.27   11.60
  -1  -3   7  274.47   11.50
   0   3  -7 1052.59   42.30
   0   3  -7 1132.39   42.50
   0   3  -7 1066.49   42.20
   0   3  -7 1103.29   42.40
   0  -3   7 1151.78   43.90
   0  -3   7 1098.89   44.20
   0  -3   7 1163.98   42.80
   0  -3   7 1028.00   43.40
   0  -3   7 1076.19   42.80
   0  -3   7 1120.39   44.10
  -1   3  -7  564.34   22.40
  -1   3  -7  517.35   23.50
  -1   3  -7  569.74   22.50
  -1   3  -7  581.24   22.40
   1  -3   7  595.94   23.40
   1  -3   7  589.24   24.20
   1  -3   7  571.34   23.60
   1  -3   7  592.44   24.80
   1  -3   7  598.14   24.30
   1  -3   7  584.24   23.40
   1  -3   7  611.24   25.70
   1  -3   7  613.04   24.20
  -2   3  -7  664.03   26.00
  -2   3  -7  611.54   25.20
  -2   3  -7  621.74   25.00
   2  -3   7  675.63   25.20
   2  -3   7  612.94   25.20
   2  -3   7  564.14   27.10
  -3   3  -7  114.19    5.40
  -3   3  -7  112.29    5.80
  -3   3  -7   99.09    5.40
  -3   3  -7  104.69    6.10
   3  -3   7  135.79   10.50
   3  -3   7  113.89    6.00
   3  -3   7  114.09    6.00
   3  -3   7  107.59    5.90
  -4   3  -7  276.57   11.00
  -4   3  -7  270.07   10.60
  -4   3  -7  229.48   11.80
   4  -3   7  304.97   12.30
   4  -3   7  285.07   12.30
   4  -3   7  295.67   12.30
   7   2  -7   17.00    1.60
   7   2  -7   14.40    2.10
  -7  -2   7   21.80    3.60
  -7  -2   7   17.20    1.90
   6   2  -7   12.10    2.60
  -6  -2   7    3.10    1.40
  -6  -2   7    5.40    1.70
  -6  -2   7    2.30    1.30
  -6  -2   7    5.60    1.50
   5   2  -7   80.09    4.30
   5   2  -7   78.19    4.60
   5   2  -7   90.09    5.60
  -5  -2   7   75.49    4.30
  -5  -2   7   75.69    4.60
  -5  -2   7   76.49    4.60
   4   2  -7   10.70    2.20
   4   2  -7    7.00    2.60
   4   2  -7   10.30    1.70
   4   2  -7   14.90    3.10
   4   2  -7    8.20    1.40
  -4  -2   7    5.10    1.70
  -4  -2   7    6.60    1.70
  -4  -2   7    4.70    2.30
  -4  -2   7    5.00    3.30
   3   2  -7  308.27   12.90
   3   2  -7  290.47   12.80
   3   2  -7  299.37   12.50
   3   2  -7  309.57   12.30
   3   2  -7  306.87   12.60
   3   2  -7  287.97   14.50
  -3  -2   7  292.17   12.30
  -3  -2   7  283.57   12.00
  -3  -2   7  270.37   13.10
  -3  -2   7  296.47   15.00
   2   2  -7  209.38    9.50
   2   2  -7  221.28    9.10
   2   2  -7  214.78    9.30
   2   2  -7  210.28    9.40
   2   2  -7  209.88    9.20
  -2  -2   7  204.38   10.00
  -2  -2   7  229.28   11.70
  -2  -2   7  199.78    9.90
  -2  -2   7  210.28    9.10
  -2  -2   7  213.58    9.40
   1   2  -7   34.00    3.30
   1   2  -7   28.20    3.20
   1   2  -7   27.40    2.40
   1   2  -7   26.70    2.60
   1   2  -7   27.40    2.10
   1   2  -7   24.60    2.80
  -1  -2   7   25.70    2.60
  -1  -2   7   28.60    3.00
  -1  -2   7   24.90    3.10
  -1  -2   7   27.00    2.10
  -1  -2   7   28.40    2.20
  -1  -2   7   26.20    3.10
   0   2  -7  123.29    6.00
   0   2  -7  118.69    6.10
   0   2  -7  128.49    6.60
   0   2  -7  132.79    6.10
   0   2  -7  129.39    5.90
   0   2  -7  123.99    6.20
   0  -2   7  124.09    6.60
   0  -2   7  127.99    5.90
   0  -2   7  124.29    6.80
   0  -2   7  120.79    6.60
   0  -2   7  131.09    5.80
   0  -2   7  127.99    5.80
  -1   2  -7  241.58   10.20
  -1   2  -7  217.18   10.30
  -1   2  -7  246.28   10.30
  -1   2  -7  214.88   11.30
  -1   2  -7  248.38   10.90
  -1   2  -7  239.48   10.20
   1  -2   7  253.17   10.60
   1  -2   7  238.28   11.70
   1  -2   7  259.87   10.60
   1  -2   7  248.98   11.80
   1  -2   7  250.97   11.30
   1  -2   7  258.17   10.70
   1  -2   7  256.27   11.70
  -2   2  -7  145.59    6.70
  -2   2  -7  155.08    6.90
  -2   2  -7  145.49    6.70
  -2   2  -7  139.39    8.10
  -2   2  -7  128.69    7.50
   2  -2   7  145.79    8.00
   2  -2   7  158.38    6.90
   2  -2   7  158.98    7.80
   2  -2   7  143.09    8.60
   2  -2   7  157.88    7.90
   2  -2   7  163.78    7.80
   2  -2   7  157.48    7.30
   2  -2   7  156.48    7.80
  -3   2  -7  243.18   10.70
  -3   2  -7  242.88   10.50
   3  -2   7  238.28   10.70
   3  -2   7  226.38   11.30
   3  -2   7  245.98   10.80
   3  -2   7  239.08   11.10
  -4   2  -7   33.80    2.70
  -4   2  -7   31.50    2.90
  -4   2  -7   33.30    3.20
   4  -2   7   40.40    3.40
   4  -2   7   33.70    3.30
   4  -2   7   35.10    3.40
  -5   2  -7  274.07   11.50
  -5   2  -7  270.87   11.00
   5  -2   7  310.87   12.70
   5  -2   7  310.07   12.80
   7   1  -7    3.30    0.90
   7   1  -7    3.60    1.00
  -7  -1   7    2.00    1.50
  -7  -1   7    2.00    1.30
  -7  -1   7    1.40    2.00
  -7  -1   7    1.50    1.40
   6   1  -7   11.60    2.40
  -6  -1   7    2.10    1.70
  -6  -1   7    2.30    1.90
   5   1  -7  168.38    7.60
   5   1  -7  158.48    6.90
   5   1  -7  161.38    7.80
   5   1  -7  190.88   10.10
   5   1  -7  172.08    7.80
   5   1  -7  161.18    7.70
  -5  -1   7  147.89    7.50
  -5  -1   7  147.79    7.50
   4   1  -7   39.90    2.40
   4   1  -7   36.10    2.70
   4   1  -7   41.10    5.00
   4   1  -7   37.30    3.10
   4   1  -7   40.30    3.00
  -4  -1   7   27.60    5.20
  -4  -1   7   36.90    5.10
  -4  -1   7   32.90    4.30
  -4  -1   7   38.30    3.50
  -4  -1   7   34.60    2.90
   3   1  -7  432.46   17.50
   3   1  -7  418.36   19.40
   3   1  -7  440.66   17.80
   3   1  -7  424.36   17.10
   3   1  -7  438.86   17.70
   3   1  -7  439.96   17.50
  -3  -1   7  408.56   16.90
  -3  -1   7  422.86   16.60
  -3  -1   7  405.26   17.20
  -3  -1   7  391.26   18.00
  -3  -1   7  409.16   19.20
   2   1  -7   70.29    3.80
   2   1  -7   62.69    4.00
   2   1  -7   66.59    3.70
   2   1  -7   69.39    4.00
   2   1  -7   67.49    3.50
  -2  -1   7   63.99    4.20
  -2  -1   7   59.49    4.10
  -2  -1   7   68.09    3.50
   1   1  -7  584.84   23.00
   1   1  -7  576.94   22.80
   1   1  -7  596.04   24.30
   1   1  -7  556.74   23.10
  -1  -1   7  518.65   23.10
  -1  -1   7  573.44   22.10
  -1  -1   7  582.34   22.80
  -1  -1   7  573.24   22.20
  -1  -1   7  550.14   22.70
   0   1  -7  476.25   19.60
   0   1  -7  491.85   19.80
   0   1  -7  489.25   19.80
   0   1  -7  510.85   21.20
   0   1  -7  480.75   19.50
   0   1  -7  489.35   19.70
   0  -1   7  522.75   20.30
   0  -1   7  493.95   20.50
   0  -1   7  508.45   21.10
   0  -1   7  524.85   20.30
   0  -1   7  519.15   21.10
  -1   1  -7  170.68    8.30
  -1   1  -7  163.38    7.90
  -1   1  -7  170.48    7.70
  -1   1  -7  180.08    7.80
  -1   1  -7  165.48    7.70
  -1   1  -7  178.18    8.40
   1  -1   7  165.48    8.50
   1  -1   7  180.98    8.40
   1  -1   7  180.18    7.70
   1  -1   7  173.58    7.80
   1  -1   7  171.28    8.30
   1  -1   7  192.88    8.80
  -2   1  -7  412.06   16.70
  -2   1  -7  408.56   17.40
  -2   1  -7  412.76   16.70
  -2   1  -7  373.76   17.00
  -2   1  -7  412.36   17.30
  -2   1  -7  417.96   16.60
   2  -1   7  442.96   17.50
   2  -1   7  398.06   18.30
   2  -1   7  426.86   18.20
   2  -1   7  435.96   18.40
   2  -1   7  439.96   18.20
   2  -1   7  445.16   17.50
   2  -1   7  449.56   17.50
  -3   1  -7  257.07   11.60
  -3   1  -7  266.17   11.50
  -3   1  -7  258.77   11.40
  -3   1  -7  278.67   11.40
  -3   1  -7  258.57   12.50
   3  -1   7  301.27   12.60
   3  -1   7  272.97   12.90
   3  -1   7  266.67   12.40
   3  -1   7  282.37   11.60
   3  -1   7  286.07   12.80
   3  -1   7  291.67   11.70
   3  -1   7  271.87   11.90
   3  -1   7  265.57   12.30
  -4   1  -7   40.50    4.30
  -4   1  -7   41.30    3.70
   4  -1   7   38.60    5.10
   4  -1   7   29.40    2.50
   4  -1   7   31.20    4.10
   4  -1   7   36.40    3.30
   4  -1   7   38.90    3.50
   4  -1   7   32.50    4.00
  -5   1  -7  508.15   20.20
  -5   1  -7  495.15   20.20
  -5   1  -7  497.55   19.80
   5  -1   7  578.14   22.10
   5  -1   7  536.15   22.30
   5  -1   7  522.75   21.50
   7   0  -7   70.59    3.70
   7   0  -7   70.39    3.90
   7   0  -7   89.09    5.70
  -7   0   7   60.89    3.90
  -7   0   7   55.19    3.70
   6   0  -7  297.17   12.40
   6   0  -7  298.97   12.70
  -6   0   7  268.87   11.70
  -6   0   7  262.37   11.50
  -6   0   7  252.57   11.70
   5   0  -7  188.28    8.90
   5   0  -7  218.38   10.30
   5   0  -7  186.38    8.70
   5   0  -7  157.28    9.10
   5   0  -7  197.28    8.50
  -5   0   7  183.48    8.20
  -5   0   7  154.58   11.40
  -5   0   7  180.08    8.60
  -5   0   7  165.78    8.90
   4   0  -7   95.79    6.90
   4   0  -7   86.39    4.30
   4   0  -7  108.59    5.30
   4   0  -7  100.29    5.20
   4   0  -7   96.79    4.90
   4   0  -7  101.49    5.30
  -4   0   7   85.19    9.20
  -4   0   7   86.79    4.90
  -4   0   7   86.69    5.50
  -4   0   7   82.29    7.30
   3   0  -7  202.48    8.90
   3   0  -7  191.38    8.80
   3   0  -7  190.18    8.10
   3   0  -7  190.38    8.90
   3   0  -7  214.58   11.30
   3   0  -7  196.78    8.60
  -3   0   7  176.38    8.70
  -3   0   7  190.78   10.40
   2   0  -7   75.79    6.10
   2   0  -7   89.19    4.00
  -2   0   7   87.09    5.10
  -2   0   7   97.19    5.10
  -2   0   7   86.89    4.30
  -2   0   7   85.79    4.70
   1   0  -7  223.68    9.90
   1   0  -7  260.37   14.00
   1   0  -7  225.48   10.10
   1   0  -7  225.18    9.90
   1   0  -7  237.38   10.10
   1   0  -7  232.38   10.00
  -1   0   7  225.88    9.30
  -1   0   7  230.48    9.80
  -1   0   7  219.18    9.50
   0   0  -7  163.48    7.00
   0   0  -7  159.78    7.40
   0   0  -7  157.18    7.50
   0   0  -7  159.18    7.30
   0   0  -7  165.28    7.30
   0   0  -7  172.38    7.50
   0   0  -7  156.58    7.40
   0   0   7  155.28    8.10
   0   0   7  172.18    7.50
   0   0   7  168.88    7.00
   0   0   7  159.18    7.50
   0   0   7  161.08    7.40
   0   0   7  156.08    6.90
  -1   0  -7  868.81   33.70
  -1   0  -7  853.31   33.50
  -1   0  -7  836.02   33.40
   1   0   7  920.51   35.30
   1   0   7  917.01   35.20
   1   0   7  900.51   35.90
   1   0   7  861.91   36.10
   1   0   7  924.71   35.90
   1   0   7  934.41   35.40
  -2   0  -7   32.90    2.60
  -2   0  -7   30.60    2.60
  -2   0  -7   25.80    3.00
  -2   0  -7   32.80    3.10
  -2   0  -7   25.80    2.40
  -2   0  -7   30.30    4.00
   2   0   7   34.30    2.50
   2   0   7   30.70    2.40
   2   0   7   33.60    2.80
   2   0   7   32.10    2.80
  -3   0  -7   89.79    4.90
  -3   0  -7   87.79    5.40
  -3   0  -7   93.39    5.00
  -3   0  -7   96.99    5.00
   3   0   7   98.29    5.00
   3   0   7  102.59    5.60
   3   0   7   93.39    5.70
   3   0   7  110.49    5.70
   3   0   7   84.49    6.10
   3   0   7  103.29    4.90
   3   0   7   86.59    5.90
   3   0   7   95.99    5.60
  -4   0  -7  250.57   11.30
  -4   0  -7  248.78   10.90
  -4   0  -7  251.07   10.80
  -4   0  -7  256.07   11.20
   4   0   7  242.48   12.30
   4   0   7  270.37   11.00
   4   0   7  272.37   14.10
   4   0   7  275.87   11.90
   4   0   7  272.57   12.10
   4   0   7  254.97   11.10
  -5   0  -7  672.13   26.90
  -5   0  -7  677.83   26.30
  -5   0  -7  652.93   26.70
   5   0   7  719.73   28.70
   5   0   7  731.13   29.00
   5   0   7  720.93   29.00
  -6   0  -7    2.30    1.00
  -6   0  -7    3.20    1.30
  -6   0  -7    2.60    1.30
   6   0   7    3.40    1.30
   6   0   7    4.40    1.40
   7  -1  -7   65.39    3.60
  -7   1   7   60.09    4.20
   6  -1  -7  346.27   16.00
  -6   1   7  107.49    6.40
  -6   1   7  112.79    7.00
   5  -1  -7  179.28    9.90
  -5   1   7   73.99    5.70
  -5   1   7   73.19    4.50
   4  -1  -7  247.88   10.50
   4  -1  -7  240.28   10.80
   4  -1  -7  247.68   10.70
   4  -1  -7  241.58   11.80
   4  -1  -7  250.77   10.90
  -4   1   7  210.48   14.30
  -4   1   7  218.78   10.50
  -4   1   7  230.98    9.80
   3  -1  -7  181.18    8.10
   3  -1  -7  182.98    8.30
   3  -1  -7  192.58   10.30
   3  -1  -7  187.58    8.30
   3  -1  -7  175.28    8.30
  -3   1   7  177.58    8.80
  -3   1   7  171.98    7.70
  -3   1   7  176.98    9.80
   2  -1  -7   67.19    3.70
   2  -1  -7   67.19    4.20
   2  -1  -7   60.19    3.70
   2  -1  -7   62.39    3.80
   2  -1  -7   62.19    3.40
   2  -1  -7   48.20    4.00
   2  -1  -7   52.79    3.40
  -2   1   7   47.00    5.40
  -2   1   7   55.89    3.20
  -2   1   7   55.89    3.80
   1  -1  -7   80.49    4.40
   1  -1  -7   64.19    6.60
   1  -1  -7   88.09    4.40
   1  -1  -7   74.29    6.20
   1  -1  -7   79.39    4.50
   1  -1  -7   76.79    3.80
  -1   1   7   79.19    3.80
  -1   1   7   81.09    4.30
  -1   1   7   81.79    4.20
  -1   1   7   91.49    6.10
   0  -1  -7 1016.70   39.60
   0  -1  -7  954.30   40.90
   0  -1  -7 1052.49   39.70
   0  -1  -7 1003.80   39.50
   0  -1  -7 1023.30   39.30
   0  -1  -7 1045.50   39.50
   0  -1  -7 1028.90   39.70
   0   1   7 1094.19   42.40
   0   1   7 1094.49   42.00
   0   1   7 1108.99   42.40
   0   1   7 1068.39   41.90
  -1  -1  -7  321.27   15.00
  -1  -1  -7  335.17   13.70
  -1  -1  -7  326.07   13.60
  -1  -1  -7  325.67   13.60
  -1  -1  -7  327.47   13.80
   1   1   7  336.67   13.80
   1   1   7  350.56   14.30
   1   1   7  339.27   14.30
   1   1   7  333.17   14.20
   1   1   7  366.46   13.90
  -2  -1  -7   62.49    4.00
  -2  -1  -7   59.19    3.50
  -2  -1  -7   59.49    3.50
  -2  -1  -7   48.90    3.70
  -2  -1  -7   61.89    4.00
  -2  -1  -7   58.59    3.70
   2   1   7   59.29    3.70
   2   1   7   59.29    3.70
   2   1   7   65.19    3.40
   2   1   7   66.19    3.30
  -3  -1  -7  264.77   11.90
  -3  -1  -7  274.77   11.70
  -3  -1  -7  292.47   12.00
  -3  -1  -7  275.07   11.90
  -3  -1  -7  270.47   12.10
   3   1   7  283.87   12.30
   3   1   7  282.37   13.00
   3   1   7  302.87   12.90
   3   1   7  299.17   12.90
   3   1   7  300.57   12.40
   3   1   7  314.07   12.70
  -4  -1  -7  225.38   10.10
  -4  -1  -7  220.08    9.90
  -4  -1  -7  216.68   10.20
  -4  -1  -7  230.38    9.90
   4   1   7  235.28   10.20
   4   1   7  216.18   10.40
   4   1   7  240.78   10.80
   4   1   7  245.48   10.80
   4   1   7  234.48   10.00
   4   1   7  240.38   11.10
   4   1   7  228.18   11.00
  -5  -1  -7   44.20    3.50
  -5  -1  -7   48.70    4.00
  -5  -1  -7   52.49    4.80
   5   1   7   50.19    6.30
   5   1   7   50.69    4.80
   5   1   7   51.09    5.10
   5   1   7   53.99    4.60
  -6  -1  -7   92.29    5.00
  -6  -1  -7   95.39    5.10
  -6  -1  -7   96.39    4.90
   6   1   7  100.19    5.40
   6   1   7   99.69    5.30
   6   1   7   92.99    4.90
   7  -2  -7  121.09    7.00
   7  -2  -7  117.79    6.90
  -7   2   7   70.69    5.00
  -7   2   7   62.09    4.70
   6  -2  -7  254.77   10.70
   6  -2  -7  258.67   11.20
  -6   2   7  242.58   11.00
  -6   2   7  231.98   10.50
   5  -2  -7    4.50    1.40
  -5   2   7    0.40    2.90
  -5   2   7    2.70    1.70
   4  -2  -7  828.42   32.00
   4  -2  -7  838.72   31.70
   4  -2  -7  774.22   31.90
   4  -2  -7  808.92   33.70
   4  -2  -7  773.02   32.60
  -4   2   7  650.13   31.60
  -4   2   7  782.02   28.30
   3  -2  -7  152.48    7.00
   3  -2  -7  151.58    6.80
   3  -2  -7  144.29    8.60
   3  -2  -7  140.99    8.10
   3  -2  -7  147.39    7.20
  -3   2   7  135.29    6.20
  -3   2   7  137.09    8.20
   2  -2  -7    5.00    2.10
   2  -2  -7    4.70    1.80
   2  -2  -7    1.90    2.40
   2  -2  -7    5.30    1.40
  -2   2   7    3.60    1.20
  -2   2   7    4.00    1.30
  -2   2   7    4.30    1.50
   1  -2  -7  139.99    6.80
   1  -2  -7  137.49    6.30
   1  -2  -7  143.99    6.70
   1  -2  -7  136.39    6.50
   1  -2  -7  133.49    8.00
   1  -2  -7  154.48    6.80
  -1   2   7  140.09    6.20
  -1   2   7  131.09    5.80
  -1   2   7  138.29    6.10
   0  -2  -7  307.87   12.80
   0  -2  -7  302.07   12.90
   0  -2  -7  290.37   12.50
   0  -2  -7  293.97   12.30
   0  -2  -7  323.97   13.70
   0  -2  -7  310.37   12.80
   0  -2  -7  323.37   12.90
   0  -2  -7  298.47   12.80
   0   2   7  334.27   13.80
   0   2   7  335.67   13.70
   0   2   7  335.67   13.20
  -1  -2  -7  357.46   15.10
  -1  -2  -7  371.06   14.70
  -1  -2  -7  358.96   14.90
  -1  -2  -7  344.47   16.70
  -1  -2  -7  373.96   15.10
  -1  -2  -7  374.26   15.20
  -1  -2  -7  365.16   15.70
   1   2   7  402.36   15.50
   1   2   7  383.46   16.00
   1   2   7  391.86   15.60
  -2  -2  -7  174.48    7.90
  -2  -2  -7  174.48    7.80
  -2  -2  -7  158.78    9.30
  -2  -2  -7  181.08    8.00
  -2  -2  -7  176.98    8.30
  -2  -2  -7  186.18    7.90
  -2  -2  -7  173.68    8.60
   2   2   7  201.38    8.30
   2   2   7  196.68    8.40
   2   2   7  200.48    8.80
   2   2   7  191.38    8.80
  -3  -2  -7  552.94   22.10
  -3  -2  -7  548.75   22.70
  -3  -2  -7  561.24   22.10
  -3  -2  -7  575.04   22.30
  -3  -2  -7  505.35   22.40
  -3  -2  -7  550.94   22.20
  -3  -2  -7  555.94   22.20
  -3  -2  -7  540.75   22.50
   3   2   7  594.34   23.40
   3   2   7  542.75   22.70
   3   2   7  578.64   23.20
   3   2   7  590.04   23.30
   3   2   7  562.14   22.80
  -4  -2  -7   42.70    3.50
  -4  -2  -7   47.20    4.10
  -4  -2  -7   47.30    3.70
  -4  -2  -7   42.70    3.30
  -4  -2  -7   46.80    3.70
   4   2   7   50.39    3.30
   4   2   7   52.69    3.70
   4   2   7   47.00    4.20
   4   2   7   47.80    3.20
   4   2   7   47.90    3.20
   4   2   7   52.99    4.00
  -5  -2  -7  292.97   12.80
  -5  -2  -7  270.17   13.50
  -5  -2  -7  301.47   12.30
   5   2   7  305.37   13.70
   5   2   7  328.77   14.00
   5   2   7  317.27   12.80
   5   2   7  318.97   13.50
   5   2   7  295.17   12.90
   5   2   7  303.17   14.10
   5   2   7  319.57   13.60
  -6  -2  -7  253.87   11.30
  -6  -2  -7  251.07   11.30
  -6  -2  -7  268.17   11.00
   6   2   7  310.37   12.90
   6   2   7  281.37   12.50
   6   2   7  298.67   12.70
  -7  -2  -7   71.99    3.90
  -7  -2  -7   66.09    3.70
   7   2   7   78.99    4.60
   7   2   7   78.49    5.10
   6  -3  -7   71.29    4.00
  -6   3   7   65.49    5.00
  -6   3   7   55.09    7.90
   5  -3  -7  253.47   12.40
   5  -3  -7  266.07   13.40
   5  -3  -7  275.27   12.20
   5  -3  -7  279.37   11.70
  -5   3   7  249.28   11.00
   4  -3  -7  339.97   13.90
   4  -3  -7  332.07   14.20
   4  -3  -7  327.67   15.10
   4  -3  -7  348.47   16.00
  -4   3   7  330.17   13.70
   3  -3  -7  168.38    8.70
   3  -3  -7  172.38    7.90
   3  -3  -7  176.88    7.80
   3  -3  -7  168.08    9.30
   3  -3  -7  174.28    8.30
  -3   3   7  160.88    9.30
   2  -3  -7  979.00   40.80
   2  -3  -7 1028.80   41.90
   2  -3  -7 1066.29   40.40
   2  -3  -7 1035.90   40.00
   2  -3  -7 1026.80   39.80
   2  -3  -7 1016.70   40.80
   1  -3  -7  244.08   10.30
   1  -3  -7  235.68   10.50
   1  -3  -7  236.58   11.10
   1  -3  -7  248.78   10.70
  -1   3   7  236.88    9.90
   0  -3  -7  329.27   13.80
   0  -3  -7  334.57   13.50
   0  -3  -7  330.77   13.80
   0  -3  -7  337.17   13.70
   0  -3  -7  311.27   13.80
   0  -3  -7  332.67   13.80
   0   3   7  360.06   14.40
   0   3   7  345.97   13.80
  -1  -3  -7   54.29    3.40
  -1  -3  -7   54.89    3.30
  -1  -3  -7   46.20    3.20
  -1  -3  -7   48.30    3.70
  -1  -3  -7   48.00    3.50
  -1  -3  -7   48.10    3.30
  -1  -3  -7   53.59    3.50
   1   3   7   58.99    3.40
   1   3   7   57.49    2.90
   1   3   7   65.59    3.80
  -2  -3  -7  263.97   13.60
  -2  -3  -7  264.87   11.10
  -2  -3  -7  266.87   11.20
  -2  -3  -7  256.87   11.30
  -2  -3  -7  262.57   11.20
  -2  -3  -7  254.97   11.20
  -2  -3  -7  269.77   11.60
  -2  -3  -7  259.27   11.70
   2   3   7  278.67   11.60
   2   3   7  232.68   12.50
   2   3   7  266.17   11.60
   2   3   7  286.67   11.10
   2   3   7  280.27   11.00
  -3  -3  -7  188.58    8.40
  -3  -3  -7  176.78    8.70
  -3  -3  -7  178.08    8.30
  -3  -3  -7  188.88    8.70
  -3  -3  -7  167.78    8.10
  -3  -3  -7  182.58    8.40
   3   3   7  192.48    8.30
   3   3   7  203.98    8.80
   3   3   7  165.28    9.30
   3   3   7  198.18    8.80
   3   3   7  199.68    8.30
  -4  -3  -7  100.49    5.80
  -4  -3  -7  105.09    5.50
  -4  -3  -7  105.69    5.50
  -4  -3  -7  109.29    6.00
  -4  -3  -7   93.19    6.80
   4   3   7  105.29    6.70
   4   3   7  118.39    5.70
   4   3   7  118.89    5.60
   4   3   7  115.29    6.00
  -5  -3  -7  144.79    7.50
  -5  -3  -7  152.18    7.30
  -5  -3  -7  143.79    7.10
  -5  -3  -7  150.08    8.50
   5   3   7  150.98    7.20
   5   3   7  177.78    8.60
   5   3   7  151.98    7.90
   5   3   7  148.09    7.40
   5   3   7  151.68    7.00
   5   3   7  152.28    8.40
   5   3   7  131.49    9.00
   5   3   7  155.28    6.90
  -6  -3  -7  168.68    7.90
  -6  -3  -7  166.58    7.60
  -6  -3  -7  149.19    8.80
  -6  -3  -7  159.58    7.70
   6   3   7  174.58    8.40
   6   3   7  184.08    8.50
   6   3   7  174.88    7.60
   6   3   7  200.48    9.20
  -7  -3  -7   37.90    2.80
  -7  -3  -7   34.70    2.60
   7   3   7   49.30    4.10
   7   3   7   37.90    3.50
   7   3   7   39.00    2.60
   6  -4  -7  116.79    6.70
   6  -4  -7  108.79    5.30
   5  -4  -7  169.28    8.30
   5  -4  -7  177.88    8.20
   5  -4  -7  187.18    9.90
   5  -4  -7  178.98    9.60
   4  -4  -7  409.76   16.90
   4  -4  -7  399.86   16.90
   4  -4  -7  404.26   17.90
   4  -4  -7  406.16   16.60
   4  -4  -7  420.76   18.70
  -4   4   7  469.15   18.80
  -4   4   7  398.76   19.20
   3  -4  -7  146.19    6.90
   3  -4  -7  147.19    7.10
   3  -4  -7  136.89    7.70
   3  -4  -7  146.49    8.40
   3  -4  -7  149.29    6.80
   3  -4  -7  141.19    7.80
   2  -4  -7  712.33   29.00
   2  -4  -7  758.92   29.60
   2  -4  -7  752.02   28.80
   2  -4  -7  680.83   29.20
   2  -4  -7  730.53   28.90
  -2   4   7  736.83   30.20
   1  -4  -7  336.57   14.20
   1  -4  -7  344.17   13.90
   1  -4  -7  321.67   14.00
   1  -4  -7  345.67   14.40
  -1   4   7  342.07   14.00
   0  -4  -7  212.68    9.60
   0  -4  -7  210.88    9.70
   0  -4  -7  227.18    9.60
   0   4   7  233.48    9.30
  -1  -4  -7   43.50    3.20
  -1  -4  -7   40.40    3.50
  -1  -4  -7   46.50    3.00
  -1  -4  -7   40.00    3.30
  -1  -4  -7   40.70    3.50
  -1  -4  -7   35.50    4.50
  -1  -4  -7   30.40    3.80
   1   4   7   47.30    2.40
   1   4   7   40.90    3.20
   1   4   7   52.59    3.90
  -2  -4  -7  282.67   12.00
  -2  -4  -7  286.17   11.80
  -2  -4  -7  272.27   12.20
  -2  -4  -7  277.17   11.90
  -2  -4  -7  280.47   12.30
  -2  -4  -7  284.17   12.00
   2   4   7  304.67   12.80
   2   4   7  295.87   13.40
   2   4   7  313.07   12.80
   2   4   7  325.47   13.40
   2   4   7  348.27   15.30
  -3  -4  -7  175.78    8.30
  -3  -4  -7  182.48    8.40
  -3  -4  -7  184.68    8.80
  -3  -4  -7  181.08    8.70
  -3  -4  -7  174.58    8.10
  -3  -4  -7  180.28    9.10
  -3  -4  -7  182.58    8.60
  -3  -4  -7  172.18    8.20
   3   4   7  195.08    8.30
   3   4   7  177.08    9.10
   3   4   7  189.58    8.50
   3   4   7  195.78    8.80
   3   4   7  183.58    8.40
  -4  -4  -7  304.77   13.10
  -4  -4  -7  310.67   13.00
  -4  -4  -7  290.77   13.70
  -4  -4  -7  299.77   13.00
  -4  -4  -7  293.47   13.30
  -4  -4  -7  311.47   13.50
  -4  -4  -7  298.47   12.90
   4   4   7  347.47   14.00
   4   4   7  317.97   15.20
   4   4   7  342.27   13.90
   4   4   7  330.27   13.80
  -5  -4  -7   73.09    4.40
  -5  -4  -7   70.29    5.80
  -5  -4  -7   67.69    4.50
  -5  -4  -7   77.59    4.80
   5   4   7   73.09    4.00
   5   4   7   75.29    5.80
   5   4   7   74.69    4.60
   5   4   7   76.29    4.20
   5   4   7   66.49    5.70
   5   4   7   70.89    4.90
   5   4   7   73.39    4.40
  -6  -4  -7   11.80    3.00
  -6  -4  -7   14.00    2.20
  -6  -4  -7   13.50    2.60
  -6  -4  -7    8.10    1.80
   6   4   7    9.00    3.00
   6   4   7    9.50    1.90
   6   4   7    9.40    1.70
   6   4   7   12.60    3.10
   6   4   7    7.20    1.60
  -7  -4  -7   28.40    5.80
  -7  -4  -7   25.30    2.30
  -7  -4  -7   27.00    2.60
   7   4   7   35.10    3.70
   7   4   7   31.50    2.50
   6  -5  -7  123.19    6.90
   6  -5  -7  149.09    6.90
   5  -5  -7   98.79    6.30
   5  -5  -7   94.59    5.80
   5  -5  -7   87.69    5.10
   5  -5  -7   88.49    4.80
   4  -5  -7  204.88   10.20
   4  -5  -7  203.28   10.70
   4  -5  -7  213.18    9.20
   4  -5  -7  205.38    9.40
   3  -5  -7   66.99    4.30
   3  -5  -7   62.79    4.60
   3  -5  -7   77.09    4.20
   3  -5  -7   72.99    5.10
   3  -5  -7   70.59    5.50
   2  -5  -7    6.80    1.40
   2  -5  -7    8.80    2.40
   2  -5  -7    6.80    2.20
   2  -5  -7   10.30    1.80
   2  -5  -7   12.10    2.50
   1  -5  -7  722.53   30.80
   1  -5  -7  672.13   27.50
   1  -5  -7  701.53   28.10
   1  -5  -7  691.83   27.70
   1  -5  -7  689.83   28.30
  -1   5   7  716.93   29.10
   0  -5  -7   74.89    4.20
   0  -5  -7   66.79    4.20
   0  -5  -7   73.39    4.80
   0  -5  -7   72.79    4.50
   0   5   7   77.19    4.70
   0   5   7   77.09    3.50
  -1  -5  -7  237.38   10.20
  -1  -5  -7  228.48   11.20
  -1  -5  -7  213.38   12.50
  -1  -5  -7  243.78   10.30
  -1  -5  -7  251.17   10.50
  -1  -5  -7  237.68   10.50
   1   5   7  250.47   11.50
   1   5   7  265.37   11.50
   1   5   7  267.27   10.50
  -2  -5  -7  541.05   22.40
  -2  -5  -7  546.85   21.80
  -2  -5  -7  565.04   22.30
  -2  -5  -7  538.15   22.40
  -2  -5  -7  574.74   22.40
  -2  -5  -7  545.35   22.20
  -2  -5  -7  543.45   22.80
   2   5   7  579.64   23.80
   2   5   7  577.74   22.90
   2   5   7  585.34   22.80
  -3  -5  -7  549.95   22.00
  -3  -5  -7  531.65   22.60
  -3  -5  -7  532.15   21.80
  -3  -5  -7  538.05   21.90
  -3  -5  -7  547.65   22.20
  -3  -5  -7  529.55   21.70
  -3  -5  -7  540.75   22.40
   3   5   7  610.54   23.30
   3   5   7  573.24   23.50
   3   5   7  561.24   24.40
   3   5   7  607.44   23.30
  -4  -5  -7  174.18    8.20
  -4  -5  -7  169.58    9.10
  -4  -5  -7  176.28    8.30
  -4  -5  -7  171.88    8.30
  -4  -5  -7  175.48    8.20
  -4  -5  -7  179.78    8.80
  -4  -5  -7  170.38    8.60
   4   5   7  188.68    8.80
   4   5   7  183.78    9.00
   4   5   7  192.08    8.30
   4   5   7  186.28    8.30
  -5  -5  -7   28.60    4.40
  -5  -5  -7   20.00    3.00
  -5  -5  -7   23.00    4.30
  -5  -5  -7   25.30    2.60
  -5  -5  -7   27.40    3.20
   5   5   7   27.60    2.40
   5   5   7   33.00    4.60
   5   5   7   28.40    2.60
   5   5   7   28.50    3.00
   5   5   7   26.80    4.60
   5   5   7   21.40    5.50
   5   5   7   28.10    2.70
  -6  -5  -7  178.08    9.60
  -6  -5  -7  187.18    8.70
  -6  -5  -7  198.18    9.10
   6   5   7  193.68    8.90
   6   5   7  213.18    8.80
   6   5   7  222.08    9.50
  -7  -5  -7   33.30    2.50
  -7  -5  -7   27.40    5.10
  -7  -5  -7   37.20    3.00
   7   5   7   37.80    2.60
   7   5   7   41.50    4.70
   7   5   7   31.80    3.70
   5  -6  -7  414.16   17.10
   5  -6  -7  380.36   16.30
   5  -6  -7  416.66   17.50
   4  -6  -7   16.00    2.60
   4  -6  -7   17.00    3.40
   4  -6  -7   11.80    2.90
   3  -6  -7 1426.06   56.19
   3  -6  -7 1402.96   56.49
   3  -6  -7 1433.16   55.29
   2  -6  -7  136.09    7.90
   2  -6  -7  139.99    6.70
   2  -6  -7  130.89    6.80
   2  -6  -7  133.09    7.40
   2  -6  -7  138.19    7.40
   1  -6  -7 1710.73   70.59
   1  -6  -7 1895.81   70.09
   1  -6  -7 1814.72   70.49
   1  -6  -7 1827.52   69.89
   1  -6  -7 1787.22   69.59
   1  -6  -7 1817.02   69.79
  -1   6   7 1704.73   66.49
   0  -6  -7   77.99    4.60
   0  -6  -7   80.59    4.60
   0  -6  -7   83.19    5.00
   0  -6  -7   77.19    4.90
   0  -6  -7   75.79    4.50
   0   6   7   79.89    3.80
   0   6   7   88.59    5.70
  -1  -6  -7 2310.57   90.99
  -1  -6  -7 2377.56   90.49
  -1  -6  -7 2308.47   90.59
  -1  -6  -7 2435.36   90.89
  -1  -6  -7 2401.76   91.19
  -1  -6  -7 2343.77   90.89
   1   6   7 2423.06   94.39
   1   6   7 2484.75   95.29
   1   6   7 2505.25   93.99
  -2  -6  -7  645.74   26.40
  -2  -6  -7  650.13   27.10
  -2  -6  -7  696.23   26.60
  -2  -6  -7  664.73   26.70
  -2  -6  -7  662.13   26.30
  -2  -6  -7  640.04   25.80
  -2  -6  -7  655.93   26.90
   2   6   7  678.33   26.60
   2   6   7  675.93   27.80
  -3  -6  -7 1943.71   74.29
  -3  -6  -7 1814.32   73.79
  -3  -6  -7 1911.01   74.49
  -3  -6  -7 1915.81   74.29
  -3  -6  -7 1979.90   74.89
  -3  -6  -7 1986.00   75.09
   3   6   7 2033.30   77.09
   3   6   7 1916.91   76.89
   3   6   7 2004.30   78.29
   3   6   7 2049.79   77.29
   3   6   7 2041.40   76.99
  -4  -6  -7  418.56   17.40
  -4  -6  -7  392.16   16.60
  -4  -6  -7  360.56   17.80
  -4  -6  -7  412.16   16.90
  -4  -6  -7  410.36   16.60
   4   6   7  420.26   17.90
   4   6   7  434.06   19.20
   4   6   7  427.26   17.70
   4   6   7  447.26   17.70
   4   6   7  452.45   18.10
  -5  -6  -7 1557.44   59.39
  -5  -6  -7 1589.84   60.09
  -5  -6  -7 1483.75   59.29
  -5  -6  -7 1498.85   60.29
   5   6   7 1722.73   66.09
   5   6   7 1697.33   65.79
   5   6   7 1878.61   69.69
   5   6   7 1654.03   65.69
   5   6   7 1602.24   66.39
  -6  -6  -7   71.29    4.80
  -6  -6  -7   61.29    5.30
  -6  -6  -7   68.49    4.00
   6   6   7   69.49    4.90
   6   6   7   73.89    3.80
   6   6   7   75.69    4.10
   6   6   7   83.29    4.60
  -7  -6  -7  618.04   23.90
  -7  -6  -7  644.44   24.30
  -7  -6  -7  561.64   24.60
   7   6   7  679.33   26.80
   7   6   7  693.73   26.80
   4  -7  -7  435.76   18.30
   4  -7  -7  455.45   19.30
   4  -7  -7  457.45   19.10
   3  -7  -7 1052.29   42.50
   3  -7  -7 1081.99   42.80
   3  -7  -7 1052.99   42.30
   2  -7  -7  366.16   15.10
   2  -7  -7  359.56   15.90
   2  -7  -7  344.07   16.20
   2  -7  -7  367.06   15.30
   1  -7  -7 1844.72   70.69
   1  -7  -7 1801.02   69.89
   1  -7  -7 1757.12   70.69
   1  -7  -7 1830.72   69.89
   1  -7  -7 1812.32   69.99
  -1   7   7 1776.42   67.69
   0  -7  -7  617.24   25.90
   0  -7  -7  656.03   26.10
   0  -7  -7  666.03   26.70
   0  -7  -7  645.74   26.20
   0  -7  -7  662.93   26.40
   0   7   7  599.14   28.20
   0   7   7  695.53   25.30
  -1  -7  -7 1637.64   63.39
  -1  -7  -7 1631.74   63.59
  -1  -7  -7 1642.34   63.69
  -1  -7  -7 1616.54   63.29
  -1  -7  -7 1662.43   63.89
   1   7   7 1668.93   61.49
   1   7   7 1556.04   61.49
   1   7   7 1595.24   63.09
  -2  -7  -7 1748.63   69.09
  -2  -7  -7 1710.03   68.29
  -2  -7  -7 1821.92   69.19
  -2  -7  -7 1847.52   69.39
  -2  -7  -7 1807.82   70.09
  -2  -7  -7 1787.72   69.89
  -2  -7  -7 1793.02   69.59
  -2  -7  -7 1819.42   69.59
   2   7   7 1853.71   69.89
   2   7   7 1773.72   72.79
   2   7   7 1844.62   69.89
  -3  -7  -7 1081.99   42.30
  -3  -7  -7 1084.39   43.00
  -3  -7  -7 1075.79   42.10
  -3  -7  -7 1076.29   42.00
  -3  -7  -7 1071.99   42.70
  -3  -7  -7 1054.99   41.60
  -3  -7  -7 1056.59   42.10
   3   7   7 1168.18   43.70
   3   7   7 1098.99   45.70
   3   7   7 1083.69   43.60
   3   7   7 1154.48   43.80
  -4  -7  -7   92.89    6.30
  -4  -7  -7   84.19    4.70
  -4  -7  -7   88.89    5.60
  -4  -7  -7   89.39    5.20
  -4  -7  -7   81.59    5.00
   4   7   7   97.79    5.10
   4   7   7  105.99    5.20
   4   7   7  101.79    6.10
   4   7   7  108.09    5.20
   4   7   7   98.89    8.70
  -5  -7  -7  770.82   32.50
  -5  -7  -7  821.62   31.60
   5   7   7  817.82   33.00
   5   7   7  876.21   33.00
   5   7   7  839.92   33.20
  -6  -7  -7   53.49    4.00
  -6  -7  -7   52.19    4.90
  -6  -7  -7   51.09    3.30
   6   7   7   58.89    3.80
   6   7   7   54.19    3.30
   6   7   7   56.49    3.60
   6   7   7   54.39    3.00
   6   7   7   52.89    4.50
  -7  -7  -7  488.95   20.60
  -7  -7  -7  414.36   17.30
  -7  -7  -7  419.26   17.70
   7   7   7  460.85   17.00
   7   7   7  380.36   16.90
   4  -8  -7   54.59    3.70
   4  -8  -7   57.09    3.40
   3  -8  -7  103.69    5.50
   3  -8  -7  104.19    6.00
   3  -8  -7  107.29    6.00
   2  -8  -7  230.38   11.30
   2  -8  -7  224.18   10.30
   2  -8  -7  255.07   10.70
   2  -8  -7  240.18   11.20
   1  -8  -7  124.49    6.30
   1  -8  -7  124.59    7.00
   1  -8  -7  132.49    6.50
  -1   8   7  138.29    6.20
   0  -8  -7  145.39    7.00
   0  -8  -7  142.49    6.90
   0  -8  -7  136.29    7.10
   0  -8  -7  135.89    7.40
   0   8   7  146.19    7.00
   0   8   7  140.49    6.30
  -1  -8  -7  115.59    6.20
  -1  -8  -7  115.59    6.40
  -1  -8  -7  124.79    6.60
  -1  -8  -7  120.99    6.20
  -1  -8  -7  131.49    7.70
   1   8   7  116.99    8.90
   1   8   7  134.79    5.90
   1   8   7  136.49    6.30
  -2  -8  -7  113.39    6.10
  -2  -8  -7  116.79    5.70
  -2  -8  -7  106.09    5.70
  -2  -8  -7  102.89    5.70
   2   8   7  106.99    6.10
   2   8   7  124.29    5.70
   2   8   7  116.99    8.50
   2   8   7  128.39    5.60
  -3  -8  -7   41.50    3.20
  -3  -8  -7   40.00    3.10
  -3  -8  -7   39.00    3.00
  -3  -8  -7   37.20    2.70
  -3  -8  -7   32.50    3.40
  -3  -8  -7   40.10    4.60
  -3  -8  -7   36.10    3.40
   3   8   7   44.20    2.80
   3   8   7   41.50    2.90
   3   8   7   43.10    3.10
   3   8   7   33.00    7.50
  -4  -8  -7    7.60    1.80
  -4  -8  -7    8.50    1.70
  -4  -8  -7    5.80    2.10
   4   8   7   12.10    1.80
   4   8   7   11.40    1.80
  -5  -8  -7    1.70    1.20
  -5  -8  -7   -0.70    2.10
  -5  -8  -7    1.90    1.10
  -5  -8  -7   -0.40    1.50
  -5  -8  -7    2.50    1.30
   5   8   7    2.40    1.00
   5   8   7    1.40    1.30
   5   8   7   -0.60    0.90
  -6  -8  -7   81.19    5.60
  -6  -8  -7   87.39    4.80
  -6  -8  -7   80.69    4.20
  -6  -8  -7   84.19    4.20
   6   8   7   94.99    5.00
   6   8   7   94.49    4.20
   6   8   7   88.09    4.40
   3  -9  -7  255.87   11.30
   3  -9  -7  247.48   11.20
   3  -9  -7  275.27   10.90
   2  -9  -7   35.80    2.70
   2  -9  -7   35.10    3.70
   2  -9  -7   34.00    2.80
   2  -9  -7   39.10    3.30
   1  -9  -7 1030.70   38.80
   1  -9  -7 1028.20   38.60
   1  -9  -7  909.91   39.10
   1  -9  -7  985.00   39.40
  -1   9   7  984.20   37.90
   0  -9  -7   51.99    3.60
   0  -9  -7   54.69    4.00
   0  -9  -7   47.50    3.60
   0  -9  -7   55.19    3.70
   0   9   7   55.19    3.70
  -1  -9  -7  278.47   12.20
  -1  -9  -7  287.77   12.20
  -1  -9  -7  231.48   12.60
   1   9   7  292.37   12.00
   1   9   7  294.37   12.00
  -2  -9  -7    6.50    1.70
   2   9   7   16.80    2.10
   2   9   7   15.20    2.60
   2   9   7   12.30    1.90
  -3  -9  -7   54.89    3.60
  -3  -9  -7   55.29    3.90
  -3  -9  -7   55.89    3.90
  -3  -9  -7   55.69    4.50
   3   9   7   55.79    4.20
   3   9   7   60.79    3.50
   3   9   7   59.79    3.40
   3   9   7   60.29    3.40
  -4  -9  -7   69.39    4.50
  -4  -9  -7   81.19    4.50
  -4  -9  -7   88.79    4.60
  -4  -9  -7   75.59    3.90
  -4  -9  -7   79.19    4.40
   4   9   7   85.39    4.30
   4   9   7   83.19    4.40
   4   9   7   84.99    4.90
   4   9   7   84.79    4.30
  -5  -9  -7  338.57   14.20
  -5  -9  -7  339.77   13.60
  -5  -9  -7  311.47   13.20
   5   9   7  355.36   14.50
   5   9   7  336.17   14.20
   5   9   7  339.47   14.00
   5   9   7  366.16   14.00
  -6  -9  -7   18.00    1.70
  -6  -9  -7   17.40    1.90
  -6  -9  -7   14.30    2.80
   6   9   7   20.50    1.60
   6   9   7   23.50    2.20
   1 -10  -7   87.89    4.30
   1 -10  -7   89.09    4.50
   1 -10  -7   90.79    5.00
   0 -10  -7  154.88    7.00
   0 -10  -7  152.68    7.60
   0 -10  -7  160.18    7.30
   0  10   7  144.29    6.40
   0  10   7  138.49    6.30
  -1 -10  -7   96.49    5.00
  -1 -10  -7   96.69    5.10
  -1 -10  -7   98.09    5.40
   1  10   7  102.49    4.90
   1  10   7   98.69    4.70
   1  10   7   95.39    4.70
  -2 -10  -7   55.79    4.30
  -2 -10  -7   60.99    3.70
  -2 -10  -7   58.39    3.60
  -2 -10  -7   59.49    3.70
   2  10   7   59.79    3.30
   2  10   7   55.59    3.30
   2  10   7   62.49    3.30
  -3 -10  -7   98.79    5.40
  -3 -10  -7  115.69    5.30
  -3 -10  -7  104.29    5.20
  -3 -10  -7  102.09    5.10
   3  10   7  110.29    5.30
   3  10   7  113.79    5.20
   3  10   7  111.49    5.10
  -4 -10  -7   71.49    5.20
  -4 -10  -7   62.19    3.50
  -4 -10  -7   62.69    3.70
   4  10   7   65.49    3.30
   4  10   7   62.89    3.90
   4  10   7   63.59    3.60
  -5 -10  -7   19.80    1.80
   5  10   7   23.20    1.60
   5  10   7   18.80    2.10
   5  10   7   19.60    2.00
  -2 -11  -7   24.20    2.40
  -2 -11  -7   21.10    2.10
  -2 -11  -7   21.90    1.80
   2  11   7   25.50    2.40
   2  11   7   25.10    2.10
   2  11   7   26.40    1.90
   4   5  -8   23.80    1.90
   4   5  -8   22.30    2.10
   4   5  -8   23.90    1.80
   4   5  -8   26.00    1.90
  -4  -5   8   14.20    2.00
  -4  -5   8   21.80    2.00
   3   5  -8   49.40    2.70
   3   5  -8   47.20    2.70
   3   5  -8   45.10    2.80
   3   5  -8   46.40    2.80
  -3  -5   8   47.10    3.20
  -3  -5   8   44.90    2.40
   2   5  -8   16.30    1.70
   2   5  -8   19.80    2.00
   2   5  -8   19.20    1.80
  -2  -5   8   13.60    2.00
  -2  -5   8   12.60    1.50
   1   5  -8   41.50    2.60
   1   5  -8   36.70    3.70
   1   5  -8   40.70    2.60
  -1  -5   8   42.20    3.00
  -1  -5   8   42.40    3.00
   0   5  -8  123.39    5.90
   0   5  -8  136.59    6.00
   0   5  -8  137.39    5.90
   0  -5   8  122.29    6.70
   0  -5   8  140.69    6.30
   0  -5   8  143.09    7.20
   5   4  -8  156.18    6.40
   5   4  -8  147.19    6.60
   5   4  -8  158.38    6.70
   5   4  -8  152.48    6.70
  -5  -4   8  142.79    6.20
  -5  -4   8  150.28    6.20
  -5  -4   8  146.69    6.80
   4   4  -8   33.10    2.10
   4   4  -8   29.00    2.60
   4   4  -8   34.20    2.50
   4   4  -8   37.10    3.00
   4   4  -8   32.90    2.50
  -4  -4   8   30.80    2.10
  -4  -4   8   32.90    2.90
  -4  -4   8   25.30    3.00
  -4  -4   8   30.40    2.30
   3   4  -8  256.57   10.20
   3   4  -8  229.48   10.40
   3   4  -8  245.88   10.40
   3   4  -8  242.68   10.30
  -3  -4   8  242.68   10.10
  -3  -4   8  226.58   10.30
  -3  -4   8  248.98   10.10
  -3  -4   8  261.37   11.10
   2   4  -8  129.09    5.70
   2   4  -8  123.89    5.80
   2   4  -8  109.39    5.70
   2   4  -8  119.79    5.80
  -2  -4   8  121.49    5.40
  -2  -4   8  111.69    5.40
  -2  -4   8  128.79    6.40
  -2  -4   8  107.79    5.80
   1   4  -8   47.30    3.50
   1   4  -8   41.50    3.00
   1   4  -8   42.10    2.90
   1   4  -8   41.30    2.90
  -1  -4   8   38.30    8.10
  -1  -4   8   39.90    3.10
  -1  -4   8   49.70    3.60
  -1  -4   8   44.40    2.60
   0   4  -8  226.08   10.20
   0   4  -8  250.87   10.20
   0   4  -8  238.48   10.00
   0  -4   8  239.48   10.60
   0  -4   8  228.48    9.20
   0  -4   8  211.18   11.40
   0  -4   8  223.18    9.90
   0  -4   8  224.38   10.10
  -1   4  -8  160.88    7.10
  -1   4  -8  162.08    7.00
  -1   4  -8  145.29    6.80
   1  -4   8  159.48    7.30
   1  -4   8  160.58    7.60
   1  -4   8  150.38    7.30
  -2   4  -8  512.85   19.90
  -2   4  -8  507.85   19.60
  -2   4  -8  481.65   19.90
   2  -4   8  532.95   21.00
   2  -4   8  534.15   21.10
   2  -4   8  526.85   22.60
   6   3  -8  603.64   24.70
   6   3  -8  668.03   24.70
  -6  -3   8  586.44   23.30
  -6  -3   8  614.74   23.40
   5   3  -8  114.89    5.50
   5   3  -8  112.29    5.20
   5   3  -8  115.99    5.40
   5   3  -8  108.59    4.80
  -5  -3   8  100.89    4.80
  -5  -3   8  101.99    4.90
  -5  -3   8  106.69    5.00
  -5  -3   8   94.79    6.10
   4   3  -8  170.98    7.50
   4   3  -8  173.58    7.70
   4   3  -8  171.78    7.30
   4   3  -8  163.68    7.70
   4   3  -8  170.68    7.80
  -4  -3   8  165.98    7.30
  -4  -3   8  165.58    7.50
   3   3  -8  327.17   13.70
   3   3  -8  341.17   14.60
  -3  -3   8  321.47   13.00
  -3  -3   8  305.87   12.90
   2   3  -8  254.37   10.80
   2   3  -8  243.18   10.90
   2   3  -8  260.77   10.70
  -2  -3   8  250.67   10.80
  -2  -3   8  251.97   11.60
  -2  -3   8  262.77   11.00
  -2  -3   8  258.77   10.70
   1   3  -8  187.58    8.50
   1   3  -8  183.98    8.50
   1   3  -8  191.18    8.50
   1   3  -8  197.48    8.40
  -1  -3   8  184.28    9.90
  -1  -3   8  190.88    8.50
  -1  -3   8  197.48    8.40
  -1  -3   8  194.88    8.40
  -1  -3   8  195.08    9.20
  -1  -3   8  201.98   15.30
   0   3  -8   33.30    2.40
   0   3  -8   32.30    2.60
   0  -3   8   28.40    2.90
   0  -3   8   32.40    2.20
   0  -3   8   32.60    3.00
   0  -3   8   30.70    4.30
   0  -3   8   29.10    2.50
  -1   3  -8   91.59    4.70
  -1   3  -8   88.99    4.70
  -1   3  -8   86.89    4.60
   1  -3   8   88.49    4.70
   1  -3   8   93.09    6.00
   1  -3   8   88.69    5.10
   1  -3   8   89.39    4.30
   1  -3   8   83.09    6.30
   1  -3   8   91.89    5.50
  -2   3  -8  230.38    9.80
  -2   3  -8  232.28    9.80
  -2   3  -8  225.78    9.90
   2  -3   8  234.88   10.00
   2  -3   8  212.88   10.40
   2  -3   8  229.48   10.10
  -3   3  -8   12.20    1.70
  -3   3  -8   16.60    2.20
   3  -3   8   11.70    2.00
   3  -3   8   14.10    2.50
   6   2  -8   62.69    3.70
   6   2  -8   68.99    3.40
   6   2  -8   65.49    3.80
   6   2  -8   62.29    5.10
  -6  -2   8   58.99    4.00
  -6  -2   8   62.09    3.50
  -6  -2   8   66.79    5.00
  -6  -2   8   63.19    3.60
   5   2  -8   73.39    4.10
   5   2  -8   77.59    4.20
   5   2  -8   73.39    4.20
   5   2  -8   68.39    3.40
   5   2  -8   75.99    3.90
  -5  -2   8   72.09    4.20
  -5  -2   8   67.39    5.80
  -5  -2   8   68.39    3.90
   4   2  -8   30.30    2.50
   4   2  -8   23.30    2.20
   4   2  -8   27.20    2.60
   4   2  -8   22.50    3.90
  -4  -2   8   25.00    2.80
  -4  -2   8   25.30    2.40
  -4  -2   8   30.20    2.60
  -4  -2   8   30.70    5.50
   3   2  -8   25.60    2.60
   3   2  -8   30.10    2.00
   3   2  -8   22.00    2.30
   3   2  -8   27.60    2.60
   3   2  -8   25.10    2.80
  -3  -2   8   23.70    2.70
  -3  -2   8   28.70    2.30
  -3  -2   8   21.20    2.40
  -3  -2   8   22.00    6.20
   2   2  -8  114.09    5.60
   2   2  -8  121.49    5.40
   2   2  -8  112.99    5.80
   2   2  -8  105.89    6.00
   2   2  -8  111.49    5.50
  -2  -2   8  103.89    9.50
  -2  -2   8  104.89    6.80
  -2  -2   8  113.09    5.40
  -2  -2   8  112.99    8.00
  -2  -2   8  111.99    5.30
   1   2  -8   87.69    5.60
   1   2  -8   97.39    5.20
   1   2  -8  108.69    5.20
   1   2  -8  105.39    5.40
   1   2  -8  102.49    5.30
   1   2  -8  108.89    5.00
   1   2  -8  101.69    5.60
  -1  -2   8  105.99    6.30
  -1  -2   8  106.59    5.90
  -1  -2   8  102.39    5.20
  -1  -2   8  105.69    5.20
  -1  -2   8  104.99    6.80
   0   2  -8   27.30    2.20
   0   2  -8   28.20    2.90
   0   2  -8   29.40    2.40
   0   2  -8   24.00    2.70
   0   2  -8   28.80    3.40
   0  -2   8   29.50    2.40
   0  -2   8   27.70    2.40
   0  -2   8   34.00    4.50
   0  -2   8   28.70    3.70
   0  -2   8   31.10    3.10
   0  -2   8   27.90    2.30
  -1   2  -8  389.86   16.90
  -1   2  -8  422.56   16.90
  -1   2  -8  418.56   16.90
  -1   2  -8  416.66   16.80
   1  -2   8  452.15   17.40
   1  -2   8  443.86   17.50
   1  -2   8  424.16   18.60
   1  -2   8  419.16   18.90
   1  -2   8  431.56   18.10
   1  -2   8  425.96   17.30
  -2   2  -8   52.89    3.30
  -2   2  -8   44.80    3.30
   2  -2   8   52.49    3.80
   2  -2   8   48.10    3.70
   2  -2   8   47.30    3.50
   2  -2   8   64.09    5.10
   2  -2   8   64.09    6.20
  -3   2  -8  185.28    8.10
  -3   2  -8  176.38    7.90
  -3   2  -8  181.78    8.20
   3  -2   8  169.88   10.20
   3  -2   8  188.88    8.70
   3  -2   8  200.98    8.80
   3  -2   8  194.58    9.00
  -4   2  -8   78.39    4.10
  -4   2  -8   72.39    3.80
  -4   2  -8   82.49    6.80
   4  -2   8   88.99    4.60
   4  -2   8   83.79    4.90
   6   1  -8  377.66   15.20
   6   1  -8  307.57   13.30
   6   1  -8  302.07   13.40
  -6  -1   8  271.47   11.50
  -6  -1   8  274.27   12.00
  -6  -1   8  281.57   11.70
  -6  -1   8  273.57   11.60
   5   1  -8   67.39    4.10
   5   1  -8   65.79    3.90
   5   1  -8   71.99    4.10
   5   1  -8   71.79    3.90
  -5  -1   8   64.19    3.80
  -5  -1   8   65.09    4.40
  -5  -1   8   63.49    4.20
  -5  -1   8   59.29    5.60
   4   1  -8  694.23   27.50
   4   1  -8  618.54   25.30
   4   1  -8  638.44   25.50
   4   1  -8  646.84   25.50
   4   1  -8  612.04   24.70
   4   1  -8  618.84   25.50
  -4  -1   8  602.74   23.70
  -4  -1   8  561.54   23.60
  -4  -1   8  579.64   27.10
  -4  -1   8  606.34   23.50
   3   1  -8  430.86   16.80
   3   1  -8  390.06   16.60
   3   1  -8  403.46   16.40
   3   1  -8  407.46   16.70
   3   1  -8  394.36   16.00
   3   1  -8  428.26   18.60
   3   1  -8  392.16   16.40
   3   1  -8  375.36   16.50
  -3  -1   8  382.76   16.30
  -3  -1   8  398.76   15.90
  -3  -1   8  387.26   19.10
   2   1  -8  874.31   34.30
   2   1  -8  843.42   33.90
   2   1  -8  898.51   34.30
   2   1  -8  885.21   34.30
   2   1  -8  853.91   34.10
   2   1  -8  862.71   33.70
  -2  -1   8  821.22   33.20
  -2  -1   8  832.72   32.80
  -2  -1   8  825.32   32.50
  -2  -1   8  855.21   32.50
  -2  -1   8  843.72   35.20
  -2  -1   8  808.42   33.40
   1   1  -8 1187.18   46.10
   1   1  -8 1196.98   45.60
   1   1  -8 1178.08   45.90
   1   1  -8 1128.99   45.40
   1   1  -8 1187.58   45.90
   1   1  -8 1192.28   45.80
  -1  -1   8 1224.38   47.50
  -1  -1   8 1187.28   47.40
  -1  -1   8 1190.88   46.70
  -1  -1   8 1202.88   46.50
  -1  -1   8 1240.28   46.60
  -1  -1   8 1185.98   47.30
   0   1  -8  952.90   37.20
   0   1  -8  962.00   37.30
   0   1  -8  950.90   37.70
   0   1  -8  981.50   37.40
   0   1  -8  945.01   37.10
   0   1  -8  926.81   37.20
   0  -1   8  959.70   39.40
   0  -1   8 1028.40   38.70
   0  -1   8 1018.10   38.80
   0  -1   8  982.70   39.50
   0  -1   8  989.10   38.60
  -1   1  -8 1073.49   40.50
  -1   1  -8 1014.10   40.50
  -1   1  -8 1026.20   40.50
  -1   1  -8 1056.79   40.40
  -1   1  -8 1013.50   40.90
   1  -1   8 1124.69   42.60
   1  -1   8 1096.29   42.50
   1  -1   8 1071.89   43.70
   1  -1   8 1063.39   43.50
   1  -1   8 1108.89   42.60
   1  -1   8 1122.39   43.30
  -2   1  -8  231.88   10.20
  -2   1  -8  238.58   10.20
  -2   1  -8  226.48   10.10
   2  -1   8  218.58   10.70
   2  -1   8  244.78   11.20
   2  -1   8  256.37   10.90
   2  -1   8  251.07   10.20
   2  -1   8  256.47   10.40
   2  -1   8  245.48   10.40
   2  -1   8  231.88   11.60
   2  -1   8  221.38   11.50
  -3   1  -8  687.03   26.60
  -3   1  -8  641.44   26.60
  -3   1  -8  667.43   26.40
   3  -1   8  735.03   28.30
   3  -1   8  680.23   28.30
   3  -1   8  724.93   28.40
   3  -1   8  711.73   28.50
   3  -1   8  670.23   30.70
   3  -1   8  707.83   27.60
  -4   1  -8  146.69    6.80
  -4   1  -8  138.29    6.80
  -4   1  -8  143.89    6.50
  -4   1  -8  140.59    6.60
   4  -1   8  157.08    7.20
   4  -1   8  161.18    7.70
   4  -1   8  153.78    7.80
  -5   1  -8  176.48    7.30
  -5   1  -8  168.48    7.50
   5  -1   8  203.68    8.80
   5  -1   8  200.98    9.00
   6   0  -8  769.52   30.90
   6   0  -8  736.73   29.40
   6   0  -8  752.62   29.70
  -6   0   8  640.64   25.50
  -6   0   8  655.73   25.50
  -6   0   8  620.24   25.30
  -6   0   8  651.13   25.80
   5   0  -8  280.47   11.90
   5   0  -8  280.17   12.90
  -5   0   8  264.27   11.40
  -5   0   8  263.57   11.80
  -5   0   8  255.07   11.00
  -5   0   8  253.17   12.20
   4   0  -8 1533.75   61.19
   4   0  -8 1569.84   60.99
   4   0  -8 1593.74   61.09
   4   0  -8 1592.44   61.19
   4   0  -8 1626.74   62.89
  -4   0   8 1469.05   54.19
  -4   0   8 1336.77   54.49
  -4   0   8 1356.46   57.69
  -4   0   8 1445.46   54.39
   3   0  -8  514.65   20.10
   3   0  -8  496.45   19.80
   3   0  -8  515.75   20.10
   3   0  -8  493.15   20.30
   3   0  -8  469.15   19.90
   3   0  -8  474.85   19.10
   3   0  -8  475.85   21.60
  -3   0   8  477.45   19.50
  -3   0   8  449.95   19.80
  -3   0   8  484.05   22.10
  -3   0   8  491.95   19.20
   2   0  -8 1877.81   74.39
   2   0  -8 1972.40   74.59
   2   0  -8 1933.61   74.49
   2   0  -8 2003.10   75.89
   2   0  -8 1921.91   74.19
   2   0  -8 1856.91   73.79
   2   0  -8 1988.60   74.39
  -2   0   8 1938.41   74.09
  -2   0   8 1944.41   74.59
  -2   0   8 1952.10   74.69
  -2   0   8 1906.01   74.49
   1   0  -8  923.21   36.50
   1   0  -8  906.31   36.00
   1   0  -8  915.01   36.50
   1   0  -8  952.10   36.70
   1   0  -8  930.61   36.40
   1   0  -8  962.70   36.30
  -1   0   8  946.81   37.70
  -1   0   8  941.71   37.90
  -1   0   8  963.90   38.00
  -1   0   8  956.00   37.30
  -1   0   8 1004.80   37.30
   0   0  -8 2846.32  109.09
   0   0  -8 2951.60  108.69
   0   0  -8 2806.02  108.49
   0   0  -8 2950.30  108.69
   0   0  -8 2719.03  108.79
   0   0  -8 2819.12  108.79
   0   0   8 2899.11  113.09
   0   0   8 2916.01  113.09
   0   0   8 2966.90  112.29
   0   0   8 3005.90  112.49
   0   0   8 2950.90  112.29
   0   0   8 2962.70  113.09
  -1   0  -8  567.04   22.80
  -1   0  -8  596.14   23.50
  -1   0  -8  573.04   22.80
  -1   0  -8  561.94   22.90
  -1   0  -8  555.44   22.90
  -1   0  -8  581.54   23.10
   1   0   8  623.24   24.40
   1   0   8  614.94   23.50
   1   0   8  596.84   23.50
   1   0   8  587.64   23.60
   1   0   8  603.64   24.40
   1   0   8  544.35   24.10
  -2   0  -8  792.42   33.10
  -2   0  -8  848.22   33.00
  -2   0  -8  854.71   33.00
  -2   0  -8  835.62   33.60
  -2   0  -8  861.81   33.10
   2   0   8  904.11   35.00
   2   0   8  907.61   35.00
   2   0   8  902.11   35.90
   2   0   8  912.01   35.60
   2   0   8  843.92   35.50
   2   0   8  888.41   36.00
   2   0   8  919.51   35.00
  -3   0  -8 1827.52   71.29
  -3   0  -8 1889.51   72.09
  -3   0  -8 1839.42   71.49
  -3   0  -8 1869.91   71.59
   3   0   8 1862.11   77.39
   3   0   8 2058.59   75.89
   3   0   8 2038.00   75.89
   3   0   8 1925.01   76.59
   3   0   8 1990.70   75.99
   3   0   8 2009.60   76.89
   3   0   8 1986.80   76.59
  -4   0  -8  103.19    5.40
  -4   0  -8  109.59    5.70
  -4   0  -8  111.39    5.70
  -4   0  -8  117.09    6.00
   4   0   8  122.89    7.10
   4   0   8  108.89    7.30
   4   0   8  124.89    6.40
   4   0   8  117.79    5.30
   4   0   8  113.29    5.90
  -5   0  -8  386.36   15.60
  -5   0  -8  391.86   15.90
   5   0   8  444.16   18.10
   5   0   8  441.86   17.90
   5   0   8  433.26   17.60
   6  -1  -8  387.06   16.20
   6  -1  -8  405.56   15.90
  -6   1   8  353.36   14.90
  -6   1   8  348.67   14.70
   5  -1  -8  449.36   20.50
   5  -1  -8  434.26   19.30
   5  -1  -8  529.45   20.20
   5  -1  -8  483.25   19.50
  -5   1   8  426.96   17.80
  -5   1   8  425.26   17.60
   4  -1  -8  177.48    7.60
   4  -1  -8  138.89    9.50
   4  -1  -8  166.98    7.70
   4  -1  -8  169.78    7.90
   4  -1  -8  180.38    8.00
  -4   1   8  159.18    8.90
  -4   1   8  147.19   10.50
  -4   1   8  162.78    7.50
   3  -1  -8  312.57   13.70
   3  -1  -8  335.07   13.90
   3  -1  -8  315.07   13.60
   3  -1  -8  328.27   13.90
   3  -1  -8  350.06   16.10
  -3   1   8  300.27   13.40
  -3   1   8  319.67   12.80
   2  -1  -8   70.79    4.20
   2  -1  -8   52.79    5.90
   2  -1  -8   63.89    3.90
   2  -1  -8   55.29    4.10
   2  -1  -8   65.49    3.90
   2  -1  -8   66.19    3.90
   2  -1  -8   64.39    3.60
  -2   1   8   61.59    4.20
  -2   1   8   64.29    4.70
  -2   1   8   66.79    3.70
  -2   1   8   63.29    4.60
   1  -1  -8  732.53   28.90
   1  -1  -8  681.53   30.30
   1  -1  -8  761.82   29.10
   1  -1  -8  714.73   29.00
   1  -1  -8  750.02   29.00
   1  -1  -8  744.03   29.10
   1  -1  -8  756.92   29.20
  -1   1   8  745.33   29.60
  -1   1   8  738.83   29.50
  -1   1   8  742.93   29.00
  -1   1   8  748.93   28.90
   0  -1  -8  656.03   25.70
   0  -1  -8  650.13   25.60
   0  -1  -8  658.73   25.90
   0  -1  -8  639.34   25.50
   0  -1  -8  642.34   25.80
   0  -1  -8  629.44   25.40
   0   1   8  662.93   26.60
   0   1   8  656.83   26.00
   0   1   8  637.54   26.30
   0   1   8  693.03   25.90
   0   1   8  671.83   26.60
  -1  -1  -8  287.07   12.00
  -1  -1  -8  281.97   12.50
  -1  -1  -8  287.17   12.40
  -1  -1  -8  291.37   12.20
  -1  -1  -8  284.97   12.10
  -1  -1  -8  292.77   12.20
   1   1   8  301.17   12.90
   1   1   8  307.67   12.70
   1   1   8  323.97   13.40
   1   1   8  307.87   13.30
  -2  -1  -8  150.88    7.00
  -2  -1  -8  156.88    7.30
  -2  -1  -8  147.79    7.60
  -2  -1  -8  149.39    7.30
  -2  -1  -8  153.28    7.60
  -2  -1  -8  153.98    7.20
   2   1   8  152.98    7.90
   2   1   8  163.98    7.30
   2   1   8  163.38    7.20
   2   1   8  157.88    7.80
   2   1   8  168.28    7.20
  -3  -1  -8  152.28    7.10
  -3  -1  -8  147.29    7.20
  -3  -1  -8  151.18    7.10
  -3  -1  -8  149.29    7.30
  -3  -1  -8  151.88    7.10
  -3  -1  -8  143.79    7.50
   3   1   8  166.18    7.50
   3   1   8  169.58    7.50
   3   1   8  161.48    7.40
   3   1   8  163.28    9.30
   3   1   8  170.38    8.20
   3   1   8  159.58    8.20
  -4  -1  -8   36.10    3.00
  -4  -1  -8   42.10    3.40
  -4  -1  -8   41.70    3.60
  -4  -1  -8   44.30    3.50
   4   1   8   44.10    2.80
   4   1   8   43.90    3.60
   4   1   8   40.00    4.50
   4   1   8   40.20    3.80
   4   1   8   42.20    3.10
  -5  -1  -8  142.99    6.90
  -5  -1  -8  141.49    6.60
   5   1   8  154.38    7.50
   5   1   8  147.79    6.50
   5   1   8  160.18    9.00
   5   1   8  159.88    7.30
  -6  -1  -8   51.99    3.20
  -6  -1  -8   56.69    3.30
   6   1   8   48.50    4.10
   6   1   8   65.79    3.60
   6   1   8   63.79    4.20
   6  -2  -8  329.07   14.10
   6  -2  -8  294.67   12.40
   6  -2  -8  293.67   12.70
  -6   2   8  258.27   11.40
  -6   2   8  262.77   11.60
   5  -2  -8   72.49    4.30
  -5   2   8   56.69    6.10
  -5   2   8   69.79    4.50
   4  -2  -8  485.15   19.60
   4  -2  -8  400.36   17.40
   4  -2  -8  371.16   17.90
   4  -2  -8  411.56   17.10
   4  -2  -8  430.66   17.50
  -4   2   8  408.96   19.30
  -4   2   8  380.36   15.40
  -4   2   8  328.77   19.00
   3  -2  -8   38.70    3.50
   3  -2  -8   44.30    4.60
   3  -2  -8   41.40    2.70
  -3   2   8   35.50    3.20
  -3   2   8   32.90    5.10
   2  -2  -8  775.42   30.10
   2  -2  -8  783.72   30.20
   2  -2  -8  764.62   30.10
   2  -2  -8  750.72   29.80
   2  -2  -8  718.63   31.40
  -2   2   8  758.52   29.50
   1  -2  -8  184.58    8.70
   1  -2  -8  186.78    8.20
   1  -2  -8  192.08    8.50
   1  -2  -8  187.48    8.60
  -1   2   8  183.58    8.30
  -1   2   8  193.28    8.40
  -1   2   8  182.08    8.30
  -1   2   8  188.88    7.80
   0  -2  -8  956.90   36.40
   0  -2  -8  895.01   36.80
   0  -2  -8  975.50   37.00
   0  -2  -8  916.71   36.70
   0  -2  -8  944.01   37.10
   0  -2  -8  963.20   37.00
   0   2   8  922.51   36.60
   0   2   8  995.60   37.30
   0   2   8  953.20   37.20
   0   2   8  924.51   36.50
  -1  -2  -8  148.69    6.90
  -1  -2  -8  121.39    6.70
  -1  -2  -8  150.08    7.00
  -1  -2  -8  148.79    6.90
  -1  -2  -8  145.49    7.10
  -1  -2  -8  151.28    6.90
  -1  -2  -8  143.59    6.80
   1   2   8  147.89    7.50
   1   2   8  167.28    6.90
   1   2   8  160.48    7.50
   1   2   8  161.08    6.90
   1   2   8  153.38    7.40
  -2  -2  -8 1043.20   42.20
  -2  -2  -8 1090.29   42.00
  -2  -2  -8 1068.39   42.30
  -2  -2  -8 1056.19   41.70
  -2  -2  -8 1080.79   41.90
  -2  -2  -8 1063.99   41.80
  -2  -2  -8 1080.59   41.80
  -2  -2  -8 1077.59   41.70
   2   2   8 1167.78   44.90
   2   2   8 1143.39   44.80
   2   2   8 1172.88   44.20
   2   2   8 1122.59   44.30
   2   2   8 1113.29   44.20
  -3  -2  -8  338.27   14.60
  -3  -2  -8  338.37   14.20
  -3  -2  -8  338.47   14.30
  -3  -2  -8  351.26   14.80
  -3  -2  -8  322.47   14.70
  -3  -2  -8  340.97   14.90
  -3  -2  -8  347.97   14.30
   3   2   8  369.46   15.40
   3   2   8  378.86   16.00
   3   2   8  368.96   16.10
   3   2   8  388.86   15.60
   3   2   8  374.06   16.00
   3   2   8  380.36   15.40
  -4  -2  -8  967.10   39.70
  -4  -2  -8 1004.00   39.20
  -4  -2  -8 1040.20   39.10
  -4  -2  -8  994.70   39.10
  -4  -2  -8  984.00   39.00
   4   2   8 1091.69   43.10
   4   2   8 1162.18   42.60
   4   2   8 1121.09   42.50
   4   2   8 1097.49   42.60
   4   2   8 1019.50   43.40
   4   2   8 1076.19   43.20
  -5  -2  -8  578.44   23.70
  -5  -2  -8  596.54   23.60
  -5  -2  -8  580.14   23.30
   5   2   8  603.04   24.90
   5   2   8  591.24   26.70
   5   2   8  657.33   25.60
   5   2   8  625.24   24.80
   5   2   8  667.83   26.10
   5   2   8  667.73   25.60
  -6  -2  -8  382.36   15.40
  -6  -2  -8  380.56   15.70
  -6  -2  -8  386.46   15.60
   6   2   8  436.36   18.80
   6   2   8  439.26   17.50
   6   2   8  434.56   17.60
   6  -3  -8  309.37   14.10
   5  -3  -8  452.65   17.90
   5  -3  -8  403.96   17.10
   5  -3  -8  447.76   19.10
   5  -3  -8  390.36   18.10
  -5   3   8  382.06   16.00
   4  -3  -8  188.38    9.70
   4  -3  -8  196.08    9.90
   4  -3  -8  208.88   11.10
   4  -3  -8  208.78    9.00
   4  -3  -8  217.58    9.30
  -4   3   8  206.68    9.40
   3  -3  -8  307.57   12.90
   3  -3  -8  297.57   14.40
   3  -3  -8  302.77   12.60
   3  -3  -8  314.67   13.20
   3  -3  -8  278.37   13.50
  -3   3   8  279.27   15.30
  -3   3   8  303.27   12.40
   2  -3  -8  386.66   15.50
   2  -3  -8  362.76   15.60
   2  -3  -8  385.46   15.30
   2  -3  -8  370.76   15.70
   2  -3  -8  354.16   16.80
   1  -3  -8   40.30    2.80
   1  -3  -8   43.10    3.00
   1  -3  -8   44.70    3.40
   1  -3  -8   46.70    3.70
   1  -3  -8   46.50    3.50
  -1   3   8   39.60    3.00
  -1   3   8   43.40    2.40
  -1   3   8   41.60    3.00
   0  -3  -8  206.18   10.70
   0  -3  -8  198.78    9.10
   0  -3  -8  202.48    9.10
   0  -3  -8  190.68    9.10
   0  -3  -8  200.08    8.80
   0   3   8  213.68    9.10
   0   3   8  212.08    8.40
   0   3   8  192.68    8.80
   0   3   8  198.88    9.00
  -1  -3  -8  290.17   12.70
  -1  -3  -8  303.47   12.70
  -1  -3  -8  298.17   12.50
  -1  -3  -8  285.27   12.10
  -1  -3  -8  305.67   12.70
  -1  -3  -8  300.27   12.90
   1   3   8  303.37   13.10
   1   3   8  310.27   12.50
   1   3   8  315.27   13.30
   1   3   8  305.27   12.40
  -2  -3  -8   47.70    3.60
  -2  -3  -8   46.60    3.10
  -2  -3  -8   39.20    6.60
  -2  -3  -8   46.80    3.80
  -2  -3  -8   53.69    3.80
  -2  -3  -8   53.49    3.60
  -2  -3  -8   54.19    3.50
   2   3   8   51.39    3.90
   2   3   8   55.39    3.50
   2   3   8   54.59    3.20
   2   3   8   52.69    3.50
   2   3   8   54.89    4.70
  -3  -3  -8  118.49    6.00
  -3  -3  -8  121.39    6.20
  -3  -3  -8  116.39    6.50
  -3  -3  -8  117.49    6.50
  -3  -3  -8  127.29    6.20
  -3  -3  -8  123.39    6.20
   3   3   8  116.59    6.80
   3   3   8  122.19    6.10
   3   3   8  130.89    6.00
   3   3   8  128.19    6.50
   3   3   8  132.09    6.00
  -4  -3  -8  267.07   11.30
  -4  -3  -8  256.27   11.30
  -4  -3  -8  258.27   11.30
  -4  -3  -8  253.57   11.60
   4   3   8  291.47   11.90
   4   3   8  274.57   11.80
   4   3   8  267.37   13.20
   4   3   8  288.87   11.90
   4   3   8  289.57   12.50
   4   3   8  266.17   12.50
  -5  -3  -8   46.60    4.90
   5   3   8   64.69    4.90
   5   3   8   61.89    3.70
   5   3   8   59.09    5.70
   5   3   8   60.29    4.30
  -6  -3  -8  147.09    6.90
  -6  -3  -8  136.29    6.60
  -6  -3  -8  147.19    6.60
   6   3   8  163.08    7.50
   6   3   8  162.18    7.40
   6   3   8  159.98    6.80
   6   3   8  164.98    8.30
   6  -4  -8  149.39    7.80
   6  -4  -8  124.49    7.40
   5  -4  -8  108.59    6.40
   5  -4  -8  109.99    5.50
   5  -4  -8  123.79    7.30
   4  -4  -8  223.18   11.50
   4  -4  -8  223.18    9.70
   4  -4  -8  224.08   10.70
   4  -4  -8  223.68    9.90
   3  -4  -8   48.20    4.60
   3  -4  -8   55.99    5.20
   3  -4  -8   54.89    4.50
   3  -4  -8   55.69    3.50
   3  -4  -8   53.99    3.50
   2  -4  -8  131.99    7.90
   2  -4  -8  137.99    6.90
   2  -4  -8  137.79    7.20
   2  -4  -8  139.89    6.70
   2  -4  -8  150.58    6.70
   2  -4  -8  150.78    8.30
  -2   4   8  130.29    8.30
   1  -4  -8  218.68   10.10
   1  -4  -8  221.78   10.00
   1  -4  -8  225.78    9.80
   1  -4  -8  221.88    9.70
  -1   4   8  219.28    9.60
   0  -4  -8   52.49    3.40
   0  -4  -8   53.39    3.90
   0  -4  -8   53.79    3.50
   0  -4  -8   57.69    4.20
   0  -4  -8   53.39    3.70
   0   4   8   56.49    2.80
   0   4   8   54.19    3.50
  -1  -4  -8    5.80    1.50
  -1  -4  -8    1.70    2.30
  -1  -4  -8    5.50    1.60
  -1  -4  -8    3.90    1.50
  -1  -4  -8    4.80    1.30
   1   4   8    3.90    1.40
   1   4   8    5.60    1.10
   1   4   8    5.00    1.40
  -2  -4  -8  497.45   19.90
  -2  -4  -8  472.25   19.50
  -2  -4  -8  501.25   20.00
  -2  -4  -8  477.45   20.10
  -2  -4  -8  489.65   20.20
  -2  -4  -8  492.05   20.30
  -2  -4  -8  485.85   19.90
   2   4   8  522.05   21.40
   2   4   8  524.85   20.70
   2   4   8  518.05   21.60
  -3  -4  -8  213.98   10.10
  -3  -4  -8  208.88   10.00
  -3  -4  -8  218.68    9.50
  -3  -4  -8  215.98    9.70
  -3  -4  -8  211.88   10.00
  -3  -4  -8  209.18    9.70
  -3  -4  -8  222.38    9.70
   3   4   8  216.48    9.50
   3   4   8  225.28    9.70
   3   4   8  218.48    9.50
  -4  -4  -8  280.57   12.30
  -4  -4  -8  262.37   11.80
  -4  -4  -8  259.97   12.10
  -4  -4  -8  275.17   11.90
  -4  -4  -8  271.17   11.70
  -4  -4  -8  274.17   11.80
   4   4   8  292.17   12.20
   4   4   8  283.87   12.10
   4   4   8  284.67   13.20
   4   4   8  282.77   12.60
  -5  -4  -8   98.39    5.20
  -5  -4  -8  111.39    6.90
  -5  -4  -8   83.19    6.60
   5   4   8  107.39    5.20
   5   4   8  106.89    5.80
   5   4   8   89.89    7.80
   5   4   8  103.99    5.00
   5   4   8  102.09    5.40
  -6  -4  -8   97.99    5.00
  -6  -4  -8   92.59    5.20
  -6  -4  -8   95.49    5.90
   6   4   8  101.79    4.70
   6   4   8  108.79    5.50
   5  -5  -8   76.69    4.90
   5  -5  -8   76.09    5.50
   5  -5  -8   76.79    4.10
   4  -5  -8   37.10    2.90
   4  -5  -8   30.40    3.70
   4  -5  -8   33.60    4.10
   4  -5  -8   33.00    3.70
   3  -5  -8    4.80    1.30
   3  -5  -8    4.90    1.50
   3  -5  -8    6.00    1.80
   3  -5  -8    4.10    2.10
   2  -5  -8   26.50    2.60
   2  -5  -8   16.40    4.30
   2  -5  -8   26.10    3.60
   2  -5  -8   22.00    2.90
   2  -5  -8   18.60    2.80
   2  -5  -8   17.30    3.50
   2  -5  -8   25.70    2.70
   1  -5  -8  397.26   15.90
   1  -5  -8  378.16   16.30
   1  -5  -8  384.16   15.90
   1  -5  -8  371.66   16.10
   1  -5  -8  389.66   15.90
  -1   5   8  386.96   16.10
   0  -5  -8   86.79    4.70
   0  -5  -8   85.09    4.80
   0  -5  -8   83.89    4.80
   0  -5  -8   84.99    5.00
   0  -5  -8   84.29    4.80
   0   5   8   92.59    5.00
   0   5   8   92.79    4.20
  -1  -5  -8  213.78    9.80
  -1  -5  -8  210.48   10.10
  -1  -5  -8  212.28    9.90
  -1  -5  -8  223.38   10.00
  -1  -5  -8  219.18   10.60
  -1  -5  -8  228.88    9.60
  -1  -5  -8  234.18   10.10
   1   5   8  239.18    9.90
   1   5   8  252.07   10.80
   1   5   8  236.28   10.20
  -2  -5  -8   34.00    2.90
  -2  -5  -8   34.70    3.20
  -2  -5  -8   32.20    3.00
  -2  -5  -8   30.20    3.70
  -2  -5  -8   33.90    3.40
  -2  -5  -8   35.50    3.30
  -2  -5  -8   35.20    2.90
  -2  -5  -8   36.00    2.70
   2   5   8   36.40    3.10
   2   5   8   32.50    2.80
   2   5   8   35.90    2.40
  -3  -5  -8   97.89    5.50
  -3  -5  -8   88.79    5.60
  -3  -5  -8   91.39    5.10
  -3  -5  -8   83.09    5.00
  -3  -5  -8   90.69    5.10
  -3  -5  -8   90.69    4.80
   3   5   8   92.39    5.50
   3   5   8  100.09    4.90
   3   5   8   97.09    5.30
   3   5   8   97.99    4.90
  -4  -5  -8   13.60    2.80
  -4  -5  -8   11.00    2.00
  -4  -5  -8   12.70    2.50
  -4  -5  -8   11.70    2.70
  -4  -5  -8    4.20    3.70
  -4  -5  -8   10.70    1.80
   4   5   8    9.20    2.00
   4   5   8   11.10    1.70
   4   5   8    8.70    1.50
   4   5   8   11.30    2.00
   4   5   8    8.00    2.40
  -5  -5  -8  219.58   11.20
  -5  -5  -8  222.38   10.10
   5   5   8  242.28   10.50
   5   5   8  251.57   10.50
   5   5   8  232.48   11.20
   5   5   8  251.17   10.50
  -6  -5  -8   93.19    4.80
  -6  -5  -8   95.39    5.20
   6   5   8   99.69    4.60
   6   5   8   91.59    5.70
   6   5   8  109.29    5.30
   5  -6  -8  152.28    7.40
   5  -6  -8  166.38    7.90
   5  -6  -8  179.88    9.10
   4  -6  -8  141.89    7.20
   4  -6  -8  161.78    8.50
   4  -6  -8  153.08    7.90
   3  -6  -8  254.27   10.50
   3  -6  -8  236.68   11.60
   3  -6  -8  214.88   13.60
   2  -6  -8  756.22   30.00
   2  -6  -8  757.92   30.20
   2  -6  -8  795.52   30.90
   2  -6  -8  740.73   29.80
   2  -6  -8  743.53   31.10
   2  -6  -8  734.53   29.80
   1  -6  -8  426.86   18.40
   1  -6  -8  437.46   19.00
   1  -6  -8  443.56   18.40
   1  -6  -8  458.55   18.40
   1  -6  -8  456.05   18.70
   1  -6  -8  472.25   18.90
   0  -6  -8  527.25   22.00
   0  -6  -8  547.95   22.50
   0  -6  -8  536.85   22.30
   0  -6  -8  583.44   22.70
   0  -6  -8  527.45   21.90
   0   6   8  590.44   36.70
  -1  -6  -8  948.31   35.30
  -1  -6  -8  927.01   35.70
  -1  -6  -8  881.91   35.80
  -1  -6  -8  929.61   35.90
  -1  -6  -8  850.31   35.30
  -1  -6  -8  848.52   35.50
   1   6   8  917.81   37.00
   1   6   8  990.40   36.90
  -2  -6  -8  403.16   18.10
  -2  -6  -8  407.96   17.10
  -2  -6  -8  461.15   17.80
  -2  -6  -8  432.26   18.00
  -2  -6  -8  441.96   18.10
  -2  -6  -8  426.06   18.40
  -2  -6  -8  465.85   18.50
   2   6   8  459.85   19.10
   2   6   8  496.45   19.10
  -3  -6  -8 1259.07   48.70
  -3  -6  -8 1254.07   48.90
  -3  -6  -8 1255.67   48.40
  -3  -6  -8 1232.78   48.40
  -3  -6  -8 1171.28   48.90
  -3  -6  -8 1254.17   47.90
   3   6   8 1323.17   51.39
   3   6   8 1347.47   51.39
   3   6   8 1318.37   51.49
  -4  -6  -8  205.08   10.40
  -4  -6  -8  198.88    9.30
  -4  -6  -8  208.38    9.80
  -4  -6  -8  201.48    9.30
  -4  -6  -8  201.28    9.00
  -4  -6  -8  197.48    9.40
   4   6   8  220.48   10.20
   4   6   8  240.68    9.90
   4   6   8  215.08   11.10
   4   6   8  236.28    9.90
   4   6   8  221.78    9.80
  -5  -6  -8  389.56   15.50
  -5  -6  -8  374.46   15.60
  -5  -6  -8  359.66   15.70
  -5  -6  -8  331.67   16.00
   5   6   8  386.96   15.40
   5   6   8  383.96   15.60
   5   6   8  383.76   15.20
   5   6   8  342.17   15.80
   5   6   8  363.36   15.30
  -6  -6  -8  352.46   13.90
  -6  -6  -8  298.47   15.20
  -6  -6  -8  364.06   14.50
   6   6   8  367.86   14.20
   6   6   8  376.06   14.70
   6   6   8  326.47   14.90
   4  -7  -8  233.98   10.70
   4  -7  -8  233.28    9.80
   4  -7  -8  221.68   10.30
   3  -7  -8  845.82   34.50
   3  -7  -8  852.31   34.20
   3  -7  -8  851.31   33.50
   2  -7  -8  157.08    8.40
   2  -7  -8  128.79    7.60
   2  -7  -8  146.49    7.00
   1  -7  -8 1078.99   42.40
   1  -7  -8 1063.99   41.80
   1  -7  -8 1048.80   41.90
   0  -7  -8  347.07   14.40
   0  -7  -8  327.17   14.30
   0  -7  -8  333.17   14.90
   0  -7  -8  360.06   14.80
   0  -7  -8  341.97   14.80
   0   7   8  365.06   14.60
  -1  -7  -8 1966.00   77.09
  -1  -7  -8 2045.50   76.69
  -1  -7  -8 1983.70   76.99
  -1  -7  -8 2000.00   76.69
  -1  -7  -8 1963.90   77.59
   1   7   8 2015.30   78.09
   1   7   8 2071.79   77.99
  -2  -7  -8  369.16   16.10
  -2  -7  -8  359.36   15.70
  -2  -7  -8  377.06   15.90
  -2  -7  -8  384.96   15.60
  -2  -7  -8  378.66   16.30
   2   7   8  416.66   17.10
   2   7   8  403.96   16.50
  -3  -7  -8 2022.40   79.79
  -3  -7  -8 2047.30   79.19
  -3  -7  -8 2085.69   78.99
  -3  -7  -8 2064.49   79.19
  -3  -7  -8 2065.49   79.79
  -3  -7  -8 2015.30   78.39
  -3  -7  -8 2081.59   79.49
   3   7   8 2156.68   82.99
   3   7   8 2117.89   83.09
   3   7   8 2229.98   82.99
  -4  -7  -8  139.99    7.10
  -4  -7  -8  138.09    8.20
  -4  -7  -8  148.89    8.40
  -4  -7  -8  142.09    6.60
  -4  -7  -8  152.18    7.70
  -4  -7  -8  143.09    7.10
   4   7   8  164.18    7.50
   4   7   8  169.28    7.50
   4   7   8  162.98    7.50
  -5  -7  -8 1166.38   43.20
  -5  -7  -8 1082.79   42.20
  -5  -7  -8 1090.19   42.40
  -5  -7  -8 1019.90   43.10
   5   7   8 1198.78   46.00
   5   7   8 1217.78   46.00
   5   7   8 1137.09   46.10
   5   7   8 1210.68   46.20
  -6  -7  -8   71.79    3.70
  -6  -7  -8   72.89    4.30
  -6  -7  -8   74.79    6.00
   6   7   8   78.49    3.70
   6   7   8   75.09    4.00
   6   7   8   78.39    4.40
   6   7   8   83.29    4.30
   3  -8  -8  104.89    5.80
   3  -8  -8  104.99    5.30
   3  -8  -8  104.99    6.00
   2  -8  -8   49.30    3.50
   2  -8  -8   44.10    3.30
   2  -8  -8   44.20    3.90
   2  -8  -8   47.40    4.80
   1  -8  -8  147.49    7.80
   1  -8  -8  155.68    7.40
   1  -8  -8  161.58    7.90
   1  -8  -8  156.18    8.00
   0  -8  -8   95.09    5.20
   0  -8  -8   93.99    5.10
   0  -8  -8   96.09    5.50
   0  -8  -8   96.59    5.60
   0   8   8  100.39    4.80
  -1  -8  -8  382.66   16.40
  -1  -8  -8  385.36   16.80
  -1  -8  -8  394.76   16.70
  -1  -8  -8  426.66   16.60
  -1  -8  -8  395.66   16.80
   1   8   8  422.36   17.00
   1   8   8  432.26   17.20
  -2  -8  -8  101.99    5.50
  -2  -8  -8  109.59    5.90
  -2  -8  -8   97.09    7.60
  -2  -8  -8  106.29    5.60
  -2  -8  -8  115.29    5.60
   2   8   8  109.69    6.00
   2   8   8  111.79    5.40
   2   8   8  124.49    5.90
  -3  -8  -8  213.88    9.10
  -3  -8  -8  199.28    9.60
  -3  -8  -8  202.28    9.20
  -3  -8  -8  193.88    9.80
  -3  -8  -8  195.58    9.30
   3   8   8  208.98    9.10
   3   8   8  212.28    9.10
  -4  -8  -8    5.10    1.10
  -4  -8  -8    5.90    2.60
  -4  -8  -8    4.60    1.50
  -4  -8  -8    3.70    1.10
  -4  -8  -8    7.10    1.60
   4   8   8    6.40    1.30
   4   8   8    5.80    1.20
   4   8   8    6.50    1.30
  -5  -8  -8   39.70    3.00
  -5  -8  -8   49.00    7.30
  -5  -8  -8   37.80    2.70
  -5  -8  -8   41.50    3.50
  -5  -8  -8   37.30    2.50
   5   8   8   37.10    3.00
   5   8   8   39.70    2.60
   5   8   8   41.40    2.60
  -6  -8  -8   39.60    2.30
  -6  -8  -8   40.60    2.50
  -6  -8  -8   49.70    3.20
   6   8   8   51.89    2.60
   6   8   8   50.89    3.30
   6   8   8   49.10    3.10
   2  -9  -8    0.30    0.90
   2  -9  -8   -1.60    1.60
   2  -9  -8    0.30    1.00
   1  -9  -8  119.59    6.30
   1  -9  -8  115.19    5.80
   1  -9  -8  123.79    6.00
   0  -9  -8   10.00    2.70
   0  -9  -8   11.00    1.80
   0  -9  -8   12.80    2.30
   0  -9  -8   12.90    2.20
   0   9   8    8.50    1.60
  -1  -9  -8   43.60    3.20
  -1  -9  -8   38.60    3.20
  -1  -9  -8   39.10    3.10
  -1  -9  -8   40.80    3.40
   1   9   8   39.80    3.00
   1   9   8   35.30    3.90
  -2  -9  -8   18.90    2.70
  -2  -9  -8   19.60    2.30
  -2  -9  -8   15.60    2.30
  -2  -9  -8   15.80    2.80
   2   9   8   19.80    2.10
   2   9   8   18.10    2.10
   2   9   8   24.60    2.90
  -3  -9  -8   62.69    3.80
  -3  -9  -8   59.59    4.00
  -3  -9  -8   56.59    3.70
   3   9   8   60.89    3.70
   3   9   8   69.99    4.30
   3   9   8   60.59    3.80
   3   9   8   63.49    3.50
  -4  -9  -8  112.19    5.50
  -4  -9  -8  113.49    5.60
  -4  -9  -8  120.09    5.80
   4   9   8  128.49    5.70
   4   9   8  126.09    5.70
   4   9   8  127.89    6.20
   4   9   8  121.29    5.90
  -5  -9  -8  143.39    6.30
   5   9   8  160.08    6.70
   5   9   8  159.48    7.20
   5   9   8  154.48    6.80
   1 -10  -8  238.58    9.80
   1 -10  -8  225.08    9.70
   0 -10  -8   96.39    4.80
   0 -10  -8   88.89    5.10
   0 -10  -8   98.09    4.80
   0  10   8   88.19    5.40
  -1 -10  -8  320.37   13.30
  -1 -10  -8  334.47   13.50
  -1 -10  -8  327.77   13.40
  -1 -10  -8  312.17   13.60
   1  10   8  305.97   12.20
   1  10   8  298.07   13.60
   1  10   8  297.57   12.20
  -2 -10  -8    5.90    1.40
  -2 -10  -8    5.20    1.10
  -2 -10  -8    6.20    1.30
   2  10   8    7.30    1.40
  -3 -10  -8   81.79    4.20
  -3 -10  -8   76.89    4.10
  -3 -10  -8   77.69    4.10
   3  10   8   83.29    4.00
   3  10   8   76.49    4.10
  -4 -10  -8   23.20    1.90
  -4 -10  -8   23.50    2.40
   4  10   8   27.20    1.90
   4  10   8   23.30    2.00
   4  10   8   25.20    2.70
   4   4  -9   34.30    2.20
   4   4  -9   27.60    1.80
  -4  -4   9   30.80    2.40
  -4  -4   9   32.70    1.80
   3   4  -9  219.08    9.10
   3   4  -9  221.28    9.20
   3   4  -9  218.78    8.90
  -3  -4   9  208.98    9.10
  -3  -4   9  225.08    9.00
  -3  -4   9  231.78    9.60
   2   4  -9   83.89    4.20
   2   4  -9   84.59    4.00
  -2  -4   9   76.59    4.20
  -2  -4   9   82.19    3.70
  -2  -4   9   80.19    4.40
   1   4  -9    2.00    0.80
   1   4  -9    3.50    1.50
   1   4  -9    2.60    0.90
  -1  -4   9    2.60    1.10
  -1  -4   9    1.30    0.80
  -1  -4   9    3.10    1.20
   0   4  -9   33.00    2.30
   0   4  -9   30.70    2.30
   0   4  -9   37.40    3.00
   0  -4   9   32.00    2.70
   0  -4   9   36.40    2.50
  -1   4  -9   23.20    2.00
  -1   4  -9   25.10    2.10
  -1   4  -9   28.00    2.00
   1  -4   9   22.20    2.20
   1  -4   9   18.00    1.90
   5   3  -9  114.69    5.10
   5   3  -9  109.99    5.10
   5   3  -9  114.09    5.10
  -5  -3   9  109.19    5.10
  -5  -3   9   99.59    4.60
  -5  -3   9  106.59    4.70
   4   3  -9  166.38    6.90
   4   3  -9  175.28    7.50
   4   3  -9  173.98    7.50
   4   3  -9  160.58    7.30
  -4  -3   9  150.28    7.00
  -4  -3   9  162.78    6.80
  -4  -3   9  159.68    6.80
  -4  -3   9  163.28    7.50
   3   3  -9   19.80    2.10
   3   3  -9   19.50    2.80
   3   3  -9   20.70    2.20
   3   3  -9   17.90    1.60
   3   3  -9   21.80    2.10
  -3  -3   9   24.00    2.00
  -3  -3   9   18.70    2.60
  -3  -3   9   20.40    2.00
  -3  -3   9   21.50    2.30
   2   3  -9   45.30    2.80
   2   3  -9   49.10    3.10
   2   3  -9   47.60    3.10
  -2  -3   9   45.20    2.90
  -2  -3   9   48.40    2.80
  -2  -3   9   45.20    3.50
  -2  -3   9   45.90    3.20
   1   3  -9  100.69    5.00
   1   3  -9   99.09    4.80
   1   3  -9  101.09    5.10
  -1  -3   9   89.69    5.00
  -1  -3   9  101.49    4.60
  -1  -3   9   96.39    5.30
  -1  -3   9  100.59    4.70
   0   3  -9  249.68   10.50
   0   3  -9  242.68   10.30
   0   3  -9  253.67   10.50
   0   3  -9  247.18   10.60
   0  -3   9  259.07   10.70
   0  -3   9  254.87   11.30
   0  -3   9  262.97   10.60
   0  -3   9  266.67   11.30
  -1   3  -9   86.39    4.20
  -1   3  -9   82.99    4.30
  -1   3  -9   85.79    4.40
   1  -3   9   80.29    3.80
   1  -3   9   88.19    4.60
   1  -3   9   81.19    4.60
  -2   3  -9  235.28    9.70
  -2   3  -9  219.08    9.50
  -2   3  -9  232.08    9.60
   2  -3   9  204.58    9.30
   2  -3   9  205.48   10.00
   2  -3   9  233.38    9.30
   5   2  -9   76.49    4.00
   5   2  -9   77.09    3.90
   5   2  -9   70.69    4.90
   5   2  -9   74.29    3.80
  -5  -2   9   75.69    4.00
  -5  -2   9   84.49    4.70
  -5  -2   9   71.89    3.90
   4   2  -9   59.89    3.40
   4   2  -9   66.89    3.80
   4   2  -9   63.09    3.70
   4   2  -9   63.79    4.50
   4   2  -9   60.99    3.00
  -4  -2   9   61.49    3.50
  -4  -2   9   63.09    3.50
  -4  -2   9   63.19    3.70
   3   2  -9   85.99    4.10
   3   2  -9   85.19    5.00
   3   2  -9   84.79    4.70
   3   2  -9   85.49    4.60
   3   2  -9   83.29    4.40
   3   2  -9   91.59    4.70
  -3  -2   9   89.29    4.50
  -3  -2   9   85.99    4.50
   2   2  -9  358.56   14.80
   2   2  -9  319.37   13.30
   2   2  -9  336.77   13.80
   2   2  -9  277.27   14.10
  -2  -2   9  335.77   13.60
  -2  -2   9  324.47   14.50
   1   2  -9  129.79    6.00
   1   2  -9  129.09    6.90
   1   2  -9  135.39    7.00
   1   2  -9  126.49    6.20
  -1  -2   9  132.79    6.20
  -1  -2   9  133.29    6.10
  -1  -2   9  124.89    8.30
  -1  -2   9  137.49    6.10
   0   2  -9   87.29    4.80
   0   2  -9   92.69    5.00
   0   2  -9   83.79    5.40
   0  -2   9   94.89    5.30
   0  -2   9   93.49    5.30
   0  -2   9   85.29    4.40
   0  -2   9   86.99    4.50
   0  -2   9   78.99    5.90
  -1   2  -9  118.69    5.90
  -1   2  -9  122.09    5.80
  -1   2  -9  126.49    6.00
   1  -2   9  119.69    6.20
   1  -2   9  129.79    5.60
   1  -2   9  128.29    5.50
   1  -2   9  113.39    6.00
   1  -2   9  123.49    6.20
   1  -2   9   97.09    8.30
  -2   2  -9  165.68    7.30
  -2   2  -9  158.58    7.10
  -2   2  -9  160.28    7.30
   2  -2   9  167.78    7.10
   2  -2   9  163.18    7.90
   2  -2   9  178.18    7.90
  -3   2  -9  266.47   11.10
  -3   2  -9  273.77   11.00
  -3   2  -9  262.77   10.90
   3  -2   9  293.77   12.10
   3  -2   9  281.97   12.50
   6   1  -9   31.40    2.20
   6   1  -9   33.10    2.40
  -6  -1   9   25.70    2.20
   5   1  -9  249.88   11.70
   5   1  -9  254.17   10.90
   5   1  -9  274.37   11.60
   5   1  -9  257.67   11.20
   5   1  -9  288.47   12.80
  -5  -1   9  243.58   10.30
  -5  -1   9  238.98   10.10
  -5  -1   9  247.38   10.20
   4   1  -9   15.70    2.20
   4   1  -9   20.80    2.10
   4   1  -9   20.10    2.40
  -4  -1   9   23.30    2.80
  -4  -1   9   17.10    2.30
  -4  -1   9   16.00    2.00
   3   1  -9  307.17   12.60
   3   1  -9  277.57   12.20
   3   1  -9  291.27   12.50
   3   1  -9  299.87   12.30
   3   1  -9  297.77   12.60
  -3  -1   9  298.77   12.30
  -3  -1   9  292.67   12.20
  -3  -1   9  289.97   12.50
   2   1  -9  241.78   10.40
   2   1  -9  258.67   10.80
   2   1  -9  240.18   10.70
   2   1  -9  243.28   10.10
   2   1  -9  232.28   10.70
   2   1  -9  246.18   10.50
  -2  -1   9  236.48   13.50
  -2  -1   9  239.78   10.20
  -2  -1   9  244.88   10.20
   1   1  -9  254.77   11.20
   1   1  -9  275.57   11.50
   1   1  -9  272.67   11.90
   1   1  -9  271.07   11.70
   1   1  -9  277.17   11.60
  -1  -1   9  266.27   12.20
  -1  -1   9  283.67   11.40
  -1  -1   9  272.87   12.60
  -1  -1   9  271.87   11.40
  -1  -1   9  284.87   11.60
  -1  -1   9  253.37   13.20
   0   1  -9  135.29    6.40
   0   1  -9  125.09    6.40
   0   1  -9  129.89    6.50
   0   1  -9  136.09    6.50
   0   1  -9  129.09    6.10
   0   1  -9  134.59    6.70
   0  -1   9  133.79    8.30
   0  -1   9  144.09    6.40
   0  -1   9  136.89    7.50
   0  -1   9  138.79    6.30
   0  -1   9  135.39    7.00
   0  -1   9  140.99    6.40
  -1   1  -9   12.00    2.70
  -1   1  -9   10.70    1.70
  -1   1  -9   12.10    2.40
  -1   1  -9   12.10    2.00
   1  -1   9    8.70    1.80
   1  -1   9   10.80    2.40
   1  -1   9   15.30    4.20
   1  -1   9   11.30    1.90
   1  -1   9    9.50    1.70
  -2   1  -9    0.10    1.10
  -2   1  -9    3.30    1.20
  -2   1  -9    1.30    1.00
   2  -1   9    5.50    2.40
   2  -1   9    4.60    1.80
   2  -1   9    3.50    2.10
   2  -1   9    4.60    1.10
   2  -1   9    5.60    1.30
  -3   1  -9  163.28    7.20
  -3   1  -9  154.58    7.30
  -3   1  -9  169.58    7.40
  -3   1  -9  157.78    7.20
   3  -1   9  178.28    8.10
   3  -1   9  166.58    7.20
  -4   1  -9   23.90    2.10
  -4   1  -9   27.20    2.20
   4  -1   9   30.40    2.70
   6   0  -9  295.67   12.40
   6   0  -9  339.37   13.80
   6   0  -9  285.47   12.40
  -6   0   9  235.68   10.90
   5   0  -9 1333.37   52.79
   5   0  -9 1392.56   52.79
   5   0  -9 1330.97   52.89
   5   0  -9 1422.76   54.29
  -5   0   9 1217.08   48.40
  -5   0   9 1299.17   49.10
  -5   0   9 1255.17   48.60
   4   0  -9  658.43   31.70
   4   0  -9  701.93   28.30
   4   0  -9  670.63   27.70
  -4   0   9  653.03   26.00
  -4   0   9  666.33   26.40
   3   0  -9 2236.08   85.69
   3   0  -9 2199.38   84.39
   3   0  -9 2200.18   84.39
   3   0  -9 2156.88   84.09
   3   0  -9 2225.68   84.29
   3   0  -9 2132.59   84.19
   3   0  -9 2216.08   84.09
  -3   0   9 2132.19   78.99
  -3   0   9 2153.58   78.69
  -3   0   9 1800.42   82.59
  -3   0   9 2133.09   78.69
   2   0  -9  964.00   37.00
   2   0  -9  935.71   36.80
   2   0  -9  944.01   36.80
   2   0  -9  963.30   36.70
   2   0  -9  905.61   36.90
   2   0  -9  919.61   36.20
   2   0  -9  940.91   37.00
  -2   0   9  946.41   38.90
  -2   0   9  902.61   35.70
  -2   0   9  906.31   36.10
   1   0  -9 2328.97   83.69
   1   0  -9 2175.18   83.69
   1   0  -9 2154.18   83.49
   1   0  -9 2138.19   83.29
   1   0  -9 2078.39   82.99
  -1   0   9 2096.79   84.09
  -1   0   9 2184.08   82.69
  -1   0   9 2188.88   83.49
  -1   0   9 2169.78   82.89
  -1   0   9 2220.78   83.59
  -1   0   9 2124.89   82.69
   0   0  -9  310.17   13.00
   0   0  -9  301.37   13.10
   0   0  -9  319.77   13.40
   0   0  -9  298.67   12.90
   0   0  -9  310.77   12.70
   0   0  -9  305.27   12.90
   0   0   9  319.27   13.50
   0   0   9  329.07   13.40
   0   0   9  315.77   14.20
   0   0   9  313.27   14.10
   0   0   9  338.37   13.40
   0   0   9  346.17   16.90
  -1   0  -9 2376.36   89.69
  -1   0  -9 2327.77   89.49
  -1   0  -9 2328.47   90.09
  -1   0  -9 2337.67   89.39
  -1   0  -9 2336.77   89.59
  -1   0  -9 2318.07   89.49
   1   0   9 2514.45   94.69
   1   0   9 2370.66   94.09
   1   0   9 2415.76   94.79
   1   0   9 2388.36   93.69
   1   0   9 2516.35   93.69
   1   0   9 2513.65   93.69
  -2   0  -9  198.38    8.70
  -2   0  -9  195.88    8.80
  -2   0  -9  186.08    8.60
  -2   0  -9  202.18    9.30
   2   0   9  211.18    9.00
   2   0   9  216.38    9.20
   2   0   9  219.88   12.60
   2   0   9  210.78    9.00
   2   0   9  182.28   10.60
   2   0   9  213.98    9.70
  -3   0  -9  357.66   14.50
  -3   0  -9  343.17   14.20
  -3   0  -9  335.77   14.10
  -3   0  -9  332.07   14.20
   3   0   9  357.86   15.60
   3   0   9  361.66   14.40
   3   0   9  371.16   15.10
   3   0   9  354.46   14.40
   3   0   9  330.27   15.50
  -4   0  -9  110.09    5.50
  -4   0  -9  104.19    5.90
  -4   0  -9  120.49    5.40
  -4   0  -9  109.99    5.40
   4   0   9  111.59    5.70
   4   0   9  123.09    6.00
   4   0   9  144.79   11.10
   4   0   9  108.99    5.10
  -5   0  -9  442.26   17.20
  -5   0  -9  426.36   17.20
   5   0   9  434.96   18.80
   5   0   9  490.45   19.80
   5   0   9  527.35   19.30
   6  -1  -9   80.89    3.90
   6  -1  -9   74.99    3.90
  -6   1   9   69.69    4.70
  -6   1   9   58.19    4.40
   5  -1  -9   64.99    3.70
   5  -1  -9   70.09    3.70
   5  -1  -9   50.69    4.50
  -5   1   9   56.59    6.40
  -5   1   9   61.09    3.70
  -5   1   9   54.89    4.50
   4  -1  -9  776.62   29.70
   4  -1  -9  739.73   31.20
   4  -1  -9  753.92   29.90
   4  -1  -9  741.03   30.20
  -4   1   9  718.83   28.50
  -4   1   9  716.13   28.20
   3  -1  -9  347.17   14.50
   3  -1  -9  349.37   14.20
   3  -1  -9  321.67   15.80
   3  -1  -9  350.56   14.50
  -3   1   9  335.17   14.10
  -3   1   9  320.37   17.10
  -3   1   9  341.97   14.40
   2  -1  -9 1633.84   62.29
   2  -1  -9 1589.24   61.99
   2  -1  -9 1612.04   62.29
   2  -1  -9 1590.14   62.09
   2  -1  -9 1658.03   62.19
   2  -1  -9 1575.14   63.39
  -2   1   9 1547.55   59.69
  -2   1   9 1557.44   59.59
   1  -1  -9 1193.28   46.30
   1  -1  -9 1161.98   46.20
   1  -1  -9 1223.18   46.10
   1  -1  -9 1151.38   45.40
   1  -1  -9 1201.48   46.10
   1  -1  -9 1164.08   45.90
  -1   1   9 1103.19   45.70
  -1   1   9 1140.19   44.50
  -1   1   9 1171.28   45.20
  -1   1   9 1193.08   44.40
   0  -1  -9  938.71   36.70
   0  -1  -9  966.20   36.90
   0  -1  -9  924.51   37.10
   0  -1  -9  950.80   37.00
   0  -1  -9  939.41   36.70
   0  -1  -9  911.61   36.40
   0   1   9  927.71   37.40
   0   1   9  940.81   37.20
   0   1   9  979.80   37.20
   0   1   9  988.50   38.00
  -1  -1  -9  661.93   26.40
  -1  -1  -9  657.33   26.70
  -1  -1  -9  647.94   26.20
  -1  -1  -9  669.23   26.10
  -1  -1  -9  661.33   26.20
  -1  -1  -9  658.43   26.40
   1   1   9  677.73   28.10
   1   1   9  676.03   27.90
   1   1   9  702.03   27.30
   1   1   9  693.73   27.10
   1   1   9  707.03   27.20
  -2  -1  -9 1009.90   39.90
  -2  -1  -9 1051.29   40.00
  -2  -1  -9  937.21   40.00
  -2  -1  -9 1081.79   40.30
  -2  -1  -9 1062.79   40.70
  -2  -1  -9 1016.60   40.00
  -2  -1  -9 1008.90   40.00
   2   1   9 1100.49   43.20
   2   1   9 1089.79   42.30
   2   1   9 1110.89   42.90
   2   1   9 1118.89   42.30
   2   1   9 1081.99   43.10
   2   1   9 1035.30   43.20
  -3  -1  -9  252.77   12.90
  -3  -1  -9  227.88   10.10
  -3  -1  -9  219.48   10.00
  -3  -1  -9  225.18   10.00
  -3  -1  -9  230.18   10.00
   3   1   9  236.08   11.20
   3   1   9  243.98   10.30
   3   1   9  242.68   10.40
   3   1   9  243.18   10.90
   3   1   9  241.98   10.20
  -4  -1  -9  287.07   12.00
  -4  -1  -9  284.87   12.00
  -4  -1  -9  288.17   11.90
  -4  -1  -9  270.67   12.10
   4   1   9  300.77   12.10
   4   1   9  296.37   12.20
   4   1   9  290.47   13.70
   4   1   9  301.07   12.90
  -5  -1  -9   93.59    4.50
  -5  -1  -9   87.89    4.80
  -5  -1  -9   98.39    4.60
   5   1   9  103.89    5.10
   5   1   9  109.49    5.40
   6  -2  -9   77.99    5.20
   6  -2  -9   71.19    3.70
   6  -2  -9   65.59    3.60
  -6   2   9   58.19    6.90
   5  -2  -9   72.89    4.10
   5  -2  -9   71.99    4.00
  -5   2   9   57.49    4.10
  -5   2   9   58.29    5.70
   4  -2  -9   84.49    4.60
   4  -2  -9   82.79    4.40
  -4   2   9   69.89    8.10
  -4   2   9   88.59    4.90
   3  -2  -9   59.69    3.70
   3  -2  -9   63.39    3.60
   3  -2  -9   61.69    4.20
  -3   2   9   62.49    3.60
  -3   2   9   56.49    5.70
  -3   2   9   49.50    7.30
   2  -2  -9  182.48    8.20
   2  -2  -9  164.98    8.20
   2  -2  -9  176.48    7.90
   2  -2  -9  177.48    8.30
   2  -2  -9  178.18    8.10
   2  -2  -9  164.28    9.60
  -2   2   9  165.58    7.50
   1  -2  -9  370.36   16.20
   1  -2  -9  385.86   16.40
   1  -2  -9  406.26   16.30
   1  -2  -9  398.26   16.00
   1  -2  -9  393.56   16.30
  -1   2   9  384.56   15.30
  -1   2   9  400.96   15.20
  -1   2   9  351.86   15.80
   0  -2  -9  206.18    9.30
   0  -2  -9  197.28    8.50
   0  -2  -9  200.78    9.00
   0  -2  -9  211.68    9.40
   0  -2  -9  217.78    9.30
   0  -2  -9  192.68    9.10
   0  -2  -9  196.08    9.10
   0   2   9  216.58    9.60
   0   2   9  208.18    8.90
   0   2   9  215.38    8.90
   0   2   9  189.18    9.70
   0   2   9  222.98    9.80
  -1  -2  -9   20.00    2.10
  -1  -2  -9   25.70    2.80
  -1  -2  -9   27.00    2.40
  -1  -2  -9   22.20    2.50
  -1  -2  -9   25.40    2.50
  -1  -2  -9   25.40    2.90
  -1  -2  -9   23.30    2.40
   1   2   9   26.40    2.10
   1   2   9   22.70    2.70
   1   2   9   25.70    2.10
   1   2   9   21.40    2.80
  -2  -2  -9  364.96   15.60
  -2  -2  -9  345.37   15.20
  -2  -2  -9  369.06   14.90
  -2  -2  -9  363.56   15.20
  -2  -2  -9  352.46   15.00
  -2  -2  -9  364.26   15.10
  -2  -2  -9  366.36   15.00
   2   2   9  396.16   15.70
   2   2   9  366.56   16.10
   2   2   9  376.46   15.50
   2   2   9  382.26   15.60
   2   2   9  387.66   16.30
  -3  -2  -9   59.19    3.90
  -3  -2  -9   57.79    6.40
  -3  -2  -9   55.39    3.70
  -3  -2  -9   57.49    3.70
  -3  -2  -9   57.09    3.50
  -3  -2  -9   57.39    4.60
   3   2   9   63.39    3.70
   3   2   9   64.19    4.40
   3   2   9   62.39    3.70
   3   2   9   65.79    4.60
   3   2   9   62.89    3.60
   3   2   9   51.99    5.20
  -4  -2  -9   78.49    4.80
  -4  -2  -9   86.19    5.20
  -4  -2  -9   82.59    4.70
   4   2   9   95.89    5.10
   4   2   9   97.99    5.70
   4   2   9   95.49    4.80
   4   2   9   92.29    5.20
   4   2   9   95.09    6.40
  -5  -2  -9   31.70    2.70
  -5  -2  -9   32.20    2.50
  -5  -2  -9   27.80    3.30
   5   2   9   32.90    3.30
   5   2   9   37.80    2.90
   5   2   9   32.90    2.20
   6  -3  -9  205.58    8.70
   6  -3  -9  210.78    9.90
   5  -3  -9  170.38    9.80
   5  -3  -9  181.68    7.90
   5  -3  -9  188.88    8.10
   4  -3  -9  124.49    7.30
   4  -3  -9  129.09    7.00
   4  -3  -9  132.89    6.30
   3  -3  -9  256.97   12.00
   3  -3  -9  255.77   11.70
   3  -3  -9  299.77   13.90
   3  -3  -9  276.17   11.60
  -3   3   9  267.47   10.60
  -3   3   9  227.38   14.60
   2  -3  -9  143.79    6.80
   2  -3  -9  121.49    9.10
   2  -3  -9  140.39    6.50
   2  -3  -9  144.09    7.00
   2  -3  -9  147.69    7.20
  -2   3   9  144.49    6.70
   1  -3  -9  821.72   31.40
   1  -3  -9  768.02   31.40
   1  -3  -9  778.52   31.00
   1  -3  -9  783.42   31.20
  -1   3   9  775.72   31.20
  -1   3   9  791.72   30.40
  -1   3   9  790.72   31.20
   0  -3  -9  418.76   17.60
   0  -3  -9  430.96   17.60
   0  -3  -9  421.96   17.70
   0  -3  -9  424.96   17.60
   0  -3  -9  417.86   17.40
   0  -3  -9  425.16   17.30
   0   3   9  424.96   16.30
   0   3   9  402.76   16.40
   0   3   9  407.06   17.10
   0   3   9  409.06   17.00
  -1  -3  -9   12.70    2.30
  -1  -3  -9   16.20    2.10
  -1  -3  -9   15.00    2.50
  -1  -3  -9   15.10    2.30
  -1  -3  -9   17.30    2.00
  -1  -3  -9   18.00    2.80
  -1  -3  -9   12.20    2.20
   1   3   9   11.90    2.20
   1   3   9   15.90    2.50
   1   3   9   18.20    3.30
   1   3   9   12.30    2.00
  -2  -3  -9  199.78    8.90
  -2  -3  -9  220.88    9.40
  -2  -3  -9  205.88    9.30
  -2  -3  -9  205.48    9.60
  -2  -3  -9  204.28    9.60
  -2  -3  -9  199.68    9.20
   2   3   9  217.58    9.90
   2   3   9  212.58   10.00
   2   3   9  204.78    9.90
   2   3   9  222.18    9.30
   2   3   9  225.38   10.10
   2   3   9  216.18    9.30
  -3  -3  -9   21.70    2.90
  -3  -3  -9   22.00    2.70
  -3  -3  -9   25.10    2.30
  -3  -3  -9   25.90    2.70
  -3  -3  -9   27.40    2.60
  -3  -3  -9   26.60    3.70
  -3  -3  -9   20.70    3.60
   3   3   9   23.80    2.40
   3   3   9   26.00    2.80
   3   3   9   28.30    3.80
   3   3   9   29.00    2.90
   3   3   9   27.40    2.50
   3   3   9   22.90    3.60
  -4  -3  -9  245.18   12.20
  -4  -3  -9  260.77   11.10
  -4  -3  -9  262.57   11.00
   4   3   9  295.37   12.40
   4   3   9  326.37   14.40
   4   3   9  287.57   12.40
   4   3   9  287.97   12.60
  -5  -3  -9   54.69    3.40
  -5  -3  -9   57.49    3.90
  -5  -3  -9   54.09    3.60
   5   3   9   61.49    4.50
   5   3   9   57.99    3.80
   5   3   9   54.79    3.10
   5   3   9   57.39    3.60
  -6  -3  -9   59.69    3.60
  -6  -3  -9   58.19    3.20
  -6  -3  -9   61.39    3.70
   6   3   9   65.29    3.50
   5  -4  -9   39.10    5.20
   4  -4  -9   27.60    2.60
   4  -4  -9   26.50    2.50
   3  -4  -9   58.79    5.60
   3  -4  -9   70.99    3.90
   3  -4  -9   55.69    4.60
   3  -4  -9   69.29    3.90
   2  -4  -9   70.29    4.60
   2  -4  -9   59.99    3.80
   2  -4  -9   53.79    4.00
   2  -4  -9   69.69    3.90
  -2   4   9   69.59    7.80
   1  -4  -9  240.08   10.20
   1  -4  -9  237.28   10.70
   1  -4  -9  226.68   10.50
   1  -4  -9  226.08   10.20
  -1   4   9  234.18    8.90
  -1   4   9  191.28   10.50
  -1   4   9  219.48    9.70
   0  -4  -9   10.40    1.80
   0  -4  -9   10.80    1.90
   0  -4  -9   19.50    3.50
   0  -4  -9   13.90    2.50
   0   4   9   13.30    1.60
   0   4   9    9.90    2.30
   0   4   9   14.10    2.70
  -1  -4  -9  393.26   16.50
  -1  -4  -9  389.96   16.30
  -1  -4  -9  396.46   16.30
  -1  -4  -9  383.26   16.60
  -1  -4  -9  398.76   16.50
   1   4   9  411.26   16.30
   1   4   9  415.96   16.20
   1   4   9  400.26   16.90
   1   4   9  391.56   17.00
  -2  -4  -9  352.86   14.50
  -2  -4  -9  336.77   14.70
  -2  -4  -9  332.67   14.90
  -2  -4  -9  344.47   14.00
  -2  -4  -9  340.77   14.80
  -2  -4  -9  340.97   14.60
  -2  -4  -9  350.46   14.50
   2   4   9  359.66   15.30
   2   4   9  358.46   15.00
   2   4   9  354.36   15.40
   2   4   9  376.16   14.70
   2   4   9  348.87   14.60
  -3  -4  -9    6.50    1.60
  -3  -4  -9    7.60    2.20
  -3  -4  -9    7.50    1.80
  -3  -4  -9    8.00    1.50
  -3  -4  -9    8.40    1.80
  -3  -4  -9   10.10    2.10
   3   4   9    7.60    1.40
   3   4   9    9.90    2.40
   3   4   9    5.20    2.40
   3   4   9   11.40    2.00
   3   4   9   11.00    1.80
  -4  -4  -9  162.78    7.30
  -4  -4  -9  147.59    7.60
  -4  -4  -9  160.58    7.30
  -4  -4  -9  143.49    8.70
  -4  -4  -9  157.28    7.20
  -4  -4  -9  137.59   10.00
   4   4   9  181.78    7.80
   4   4   9  171.08    8.60
   4   4   9  163.38    7.80
   4   4   9  170.98    7.70
  -5  -4  -9  196.18    8.60
  -5  -4  -9  195.48    9.00
  -5  -4  -9  190.58    8.60
   5   4   9  228.28    9.30
   5   4   9  222.08    9.40
   5   4   9  207.68    9.60
   5   4   9  224.98    9.90
  -6  -4  -9   35.30    2.40
  -6  -4  -9   42.30    2.90
   6   4   9   42.60    2.80
   5  -5  -9  176.98    9.00
   4  -5  -9    6.60    2.00
   4  -5  -9    6.80    1.40
   3  -5  -9  444.26   19.10
   3  -5  -9  479.05   19.10
   3  -5  -9  392.56   18.80
   2  -5  -9   14.80    3.00
   2  -5  -9   10.50    1.80
   2  -5  -9   10.90    2.80
   1  -5  -9  243.88   10.40
   1  -5  -9  238.68   10.40
   1  -5  -9  239.78   10.90
   1  -5  -9  231.08   10.70
  -1   5   9  229.08   10.40
   0  -5  -9   21.70    2.40
   0  -5  -9   18.40    2.70
   0  -5  -9   16.60    3.40
   0  -5  -9   14.40    2.50
   0   5   9   20.00    2.00
  -1  -5  -9  648.44   25.80
  -1  -5  -9  637.54   25.90
  -1  -5  -9  661.83   25.70
  -1  -5  -9  641.94   25.50
  -1  -5  -9  571.94   25.10
  -1  -5  -9  644.14   25.50
   1   5   9  639.34   26.60
   1   5   9  640.54   25.80
   1   5   9  692.23   25.80
  -2  -5  -9    1.40    1.50
  -2  -5  -9    2.40    1.40
  -2  -5  -9    3.10    1.40
  -2  -5  -9    3.70    2.00
  -2  -5  -9    3.40    1.20
  -2  -5  -9    1.70    1.40
  -2  -5  -9    1.40    1.50
  -2  -5  -9    2.20    1.20
   2   5   9    7.60    2.00
   2   5   9    2.70    1.00
   2   5   9    6.40    2.40
   2   5   9    3.50    1.20
  -3  -5  -9  842.92   33.00
  -3  -5  -9  864.81   33.10
  -3  -5  -9  882.31   33.60
  -3  -5  -9  803.12   33.60
  -3  -5  -9  853.81   33.80
  -3  -5  -9  865.81   33.50
  -3  -5  -9  796.32   33.40
   3   5   9  818.52   35.90
   3   5   9  890.91   35.00
   3   5   9  922.01   35.70
   3   5   9  932.11   35.10
   3   5   9  915.61   35.20
  -4  -5  -9   97.19    6.10
  -4  -5  -9  108.49    5.20
  -4  -5  -9  108.79    5.60
  -4  -5  -9  103.19    5.50
   4   5   9  105.39    5.80
   4   5   9  104.99    5.30
   4   5   9  110.49    5.50
   4   5   9  115.59    5.50
   4   5   9  102.79    6.30
  -5  -5  -9  387.96   16.60
  -5  -5  -9  401.36   16.30
  -5  -5  -9  404.26   16.20
   5   5   9  433.46   17.20
   5   5   9  421.66   17.40
   5   5   9  444.56   17.20
   5   5   9  413.16   17.60
  -6  -5  -9   93.49    4.50
  -6  -5  -9   96.59    4.90
   6   5   9  112.79    5.30
   6   5   9  105.89    4.70
   4  -6  -9  356.26   15.80
   4  -6  -9  365.06   15.30
   3  -6  -9   24.10    3.60
   3  -6  -9   18.90    4.10
   3  -6  -9   21.60    3.30
   3  -6  -9   22.30    2.90
   2  -6  -9  280.37   13.00
   2  -6  -9  262.17   11.90
   2  -6  -9  291.97   12.00
   2  -6  -9  290.27   12.50
   2  -6  -9  263.67   14.40
   2  -6  -9  283.87   12.40
   1  -6  -9  305.27   12.40
   1  -6  -9  295.77   12.30
   1  -6  -9  290.07   12.80
   1  -6  -9  283.87   12.40
   1  -6  -9  266.17   13.10
   0  -6  -9   60.79    4.00
   0  -6  -9   64.09    4.20
   0  -6  -9   66.19    4.00
   0  -6  -9   61.09    4.50
   0  -6  -9   58.79    4.20
   0   6   9   62.69    3.50
   0   6   9   54.59    5.70
  -1  -6  -9  398.16   17.10
  -1  -6  -9  427.46   17.00
  -1  -6  -9  388.76   16.90
  -1  -6  -9  412.76   16.60
  -1  -6  -9  399.16   17.30
   1   6   9  409.76   18.30
   1   6   9  436.76   16.80
   1   6   9  411.36   16.90
  -2  -6  -9   75.19    4.50
  -2  -6  -9   67.99    4.60
  -2  -6  -9   72.29    4.10
  -2  -6  -9   71.39    5.00
  -2  -6  -9   72.99    4.80
   2   6   9   78.49    3.90
   2   6   9   71.49    5.10
   2   6   9   67.89    5.20
   2   6   9   65.69    4.30
  -3  -6  -9  238.58   11.10
  -3  -6  -9  227.48   10.70
  -3  -6  -9  229.38   10.00
  -3  -6  -9  249.48   10.40
  -3  -6  -9  257.97   10.90
  -3  -6  -9  244.98   11.00
   3   6   9  271.47   11.00
   3   6   9  261.47   10.90
   3   6   9  239.58   11.90
   3   6   9  252.47   11.10
  -4  -6  -9  114.79    7.00
  -4  -6  -9  117.29    6.20
  -4  -6  -9  113.19    5.90
  -4  -6  -9  131.69    6.40
   4   6   9  126.19    6.90
   4   6   9  131.09    6.20
   4   6   9  131.19    6.20
   4   6   9  137.69    6.90
  -5  -6  -9  256.67   10.60
  -5  -6  -9  251.57   11.20
   5   6   9  293.57   12.00
   5   6   9  266.07   11.80
   5   6   9  287.77   11.70
   5   6   9  279.37   11.60
  -6  -6  -9   69.99    3.80
  -6  -6  -9   63.19    3.50
  -6  -6  -9   65.39    3.90
   6   6   9   83.59    4.10
   6   6   9   77.09    3.70
   6   6   9   70.09    4.30
   4  -7  -9   11.40    2.70
   4  -7  -9   12.50    2.70
   3  -7  -9  536.95   22.70
   3  -7  -9  550.74   22.40
   3  -7  -9  551.54   21.80
   2  -7  -9  134.59    6.60
   2  -7  -9  139.59    6.60
   2  -7  -9  146.79    7.50
   2  -7  -9  124.49    7.20
   1  -7  -9 1268.67   47.90
   1  -7  -9 1268.77   48.00
   1  -7  -9 1098.29   49.30
   1  -7  -9 1273.37   48.20
   0  -7  -9  334.57   14.50
   0  -7  -9  365.16   14.60
   0  -7  -9  347.47   15.10
   0  -7  -9  340.07   14.80
   0   7   9  383.26   14.70
   0   7   9  325.37   17.80
  -1  -7  -9  982.70   38.80
  -1  -7  -9  950.70   38.30
  -1  -7  -9  983.40   38.60
  -1  -7  -9  977.20   38.10
   1   7   9 1043.80   39.00
   1   7   9 1023.90   39.30
   1   7   9  958.00   40.10
  -2  -7  -9   13.80    2.10
  -2  -7  -9   20.20    2.50
  -2  -7  -9   14.00    2.20
  -2  -7  -9   18.30    2.40
  -2  -7  -9   17.10    3.10
   2   7   9   21.20    2.00
   2   7   9   21.90    4.00
   2   7   9   18.00    2.60
   2   7   9   23.50    4.30
  -3  -7  -9  295.47   13.20
  -3  -7  -9  311.27   13.00
  -3  -7  -9  307.97   13.80
  -3  -7  -9  284.57   12.90
  -3  -7  -9  305.37   12.70
   3   7   9  326.67   16.30
   3   7   9  336.47   14.00
   3   7   9  376.76   15.70
   3   7   9  325.07   14.00
  -4  -7  -9   78.39    4.50
  -4  -7  -9   73.79    4.60
  -4  -7  -9   78.79    4.60
  -4  -7  -9   79.39    3.90
  -4  -7  -9   73.59    4.10
  -4  -7  -9   78.69    5.00
   4   7   9   83.69    4.70
   4   7   9   87.99    4.50
   4   7   9   84.89    4.50
   4   7   9   87.89    5.40
  -5  -7  -9  288.17   12.00
  -5  -7  -9  313.57   12.30
  -5  -7  -9  292.27   12.70
  -5  -7  -9  283.57   11.90
   5   7   9  306.07   13.10
   5   7   9  321.27   13.20
   5   7   9  322.97   12.90
   5   7   9  318.27   12.90
  -6  -7  -9   -0.10    1.10
  -6  -7  -9    2.60    1.20
   6   7   9    4.40    1.40
   6   7   9    3.10    0.90
   3  -8  -9   23.90    4.40
   2  -8  -9  132.49    6.80
   2  -8  -9  122.59    6.10
   2  -8  -9  132.79    6.20
   1  -8  -9   52.79    3.60
   1  -8  -9   49.00    3.90
   1  -8  -9   52.39    4.40
   1  -8  -9   52.89    3.60
   0  -8  -9   77.69    4.50
   0  -8  -9   64.39    4.70
   0  -8  -9   78.89    4.40
   0  -8  -9   68.89    4.60
   0  -8  -9   71.39    5.10
   0   8   9   76.09    4.30
  -1  -8  -9  130.79    6.50
  -1  -8  -9  129.49    8.10
  -1  -8  -9  130.89    7.30
   1   8   9  146.69    6.50
   1   8   9  143.39    6.90
  -2  -8  -9  105.29    5.40
  -2  -8  -9  121.09    6.50
  -2  -8  -9   89.39    7.10
  -2  -8  -9  101.29    5.50
   2   8   9  116.09    6.40
   2   8   9  110.49    5.30
   2   8   9  112.09    5.50
  -3  -8  -9   87.09    5.30
  -3  -8  -9   82.29    4.90
  -3  -8  -9   93.49    4.70
  -3  -8  -9   79.99    4.80
  -3  -8  -9   87.79    4.90
   3   8   9  100.79    4.90
   3   8   9   96.19    4.80
   3   8   9   97.29    5.10
  -4  -8  -9    4.10    1.30
  -4  -8  -9    2.90    1.10
  -4  -8  -9    5.60    1.60
  -4  -8  -9    3.60    1.50
   4   8   9    4.00    1.30
   4   8   9    3.30    1.00
   4   8   9    3.40    1.00
  -5  -8  -9  278.37   11.80
  -5  -8  -9  291.57   11.90
  -5  -8  -9  305.37   12.50
   5   8   9  327.77   12.90
   5   8   9  328.27   13.60
   5   8   9  308.07   13.20
   2  -9  -9   74.49    3.90
   2  -9  -9   64.79    4.30
   1  -9  -9  105.99    5.60
   1  -9  -9  111.09    5.30
   1  -9  -9  109.79    5.90
   0  -9  -9   39.00    2.90
   0  -9  -9   39.40    3.70
   0  -9  -9   37.30    2.90
   0  -9  -9   40.30    3.20
  -1  -9  -9  158.48    7.30
  -1  -9  -9  158.38    7.20
  -1  -9  -9  145.79    7.30
   1   9   9  148.69    6.60
   1   9   9  143.59    7.70
  -2  -9  -9   24.10    2.40
  -2  -9  -9   22.50    2.40
  -2  -9  -9   26.70    2.50
   2   9   9   23.80    2.40
   2   9   9   24.20    2.30
   2   9   9   23.70    3.10
  -3  -9  -9    2.50    1.20
  -3  -9  -9    0.80    1.30
  -3  -9  -9    1.40    1.00
   3   9   9    1.30    1.20
   3   9   9    2.20    1.10
   3   9   9    1.50    1.00
  -4  -9  -9   72.79    3.90
  -4  -9  -9   68.19    3.70
  -4  -9  -9   70.49    4.10
   4   9   9   69.89    3.60
   4   9   9   75.09    4.10
   4   9   9   66.09    3.90
  -5  -9  -9  194.28    8.10
   5   9   9  202.88    8.60
   5   9   9  214.88    8.50
   5   9   9  212.68    9.00
   0 -10  -9   11.70    1.60
   0 -10  -9   14.20    1.70
  -1 -10  -9   53.29    3.10
  -1 -10  -9   52.59    3.10
  -1 -10  -9   52.29    3.10
   1  10   9   45.50    3.70
  -2 -10  -9   22.30    2.10
  -2 -10  -9   17.80    1.90
  -2 -10  -9   19.90    2.10
   2  10   9   24.60    2.40
   2  10   9   18.50    2.30
  -3 -10  -9  265.97   10.90
  -3 -10  -9  261.97   11.00
  -3 -10  -9  263.87   10.90
   3  10   9  266.37   10.80
   3   3 -10   99.59    4.60
   3   3 -10   94.09    4.50
  -3  -3  10   87.39    4.20
  -3  -3  10   93.59    4.50
  -3  -3  10   90.39    4.00
   2   3 -10   32.70    1.90
   2   3 -10   31.50    2.30
   2   3 -10   23.00    3.00
   2   3 -10   26.30    2.10
  -2  -3  10   24.70    2.20
  -2  -3  10   27.20    2.30
  -2  -3  10   31.30    1.90
   1   3 -10  135.09    7.00
   1   3 -10  153.98    6.50
   1   3 -10  159.18    6.40
   1   3 -10  147.69    6.50
  -1  -3  10  158.98    6.60
  -1  -3  10  142.99    6.80
  -1  -3  10  157.98    7.10
  -1  -3  10  168.88    7.10
   0   3 -10  120.69    5.40
   0   3 -10  116.59    5.20
   0  -3  10  131.99    6.00
   0  -3  10  127.49    5.90
   4   2 -10  207.98    8.90
   4   2 -10  226.58    9.20
  -4  -2  10  207.18    9.00
  -4  -2  10  210.78    8.60
  -4  -2  10  204.18    8.50
   3   2 -10   30.20    2.70
   3   2 -10   34.10    2.80
   3   2 -10   41.00    3.80
   3   2 -10   35.60    2.70
  -3  -2  10   34.50    2.70
  -3  -2  10   33.60    2.30
  -3  -2  10   33.70    2.90
  -3  -2  10   35.70    2.40
   2   2 -10   39.20    3.80
   2   2 -10   34.40    2.80
   2   2 -10   38.60    2.90
   2   2 -10   39.40    2.80
   2   2 -10   38.90    2.30
  -2  -2  10   39.00    3.10
  -2  -2  10   39.30    2.50
  -2  -2  10   33.50    2.80
  -2  -2  10   38.40    2.50
   1   2 -10   12.30    2.40
   1   2 -10   12.40    1.90
   1   2 -10    9.80    2.00
   1   2 -10   12.50    1.60
  -1  -2  10   10.40    2.30
  -1  -2  10   12.00    1.60
  -1  -2  10   12.90    1.70
  -1  -2  10   14.50    1.80
   0   2 -10  214.98    9.30
   0   2 -10  225.18    9.10
   0   2 -10  200.68    9.20
   0   2 -10  220.38    9.30
   0  -2  10  218.98   10.00
   0  -2  10  232.38   10.10
   0  -2  10  231.08    9.60
   0  -2  10  245.68    9.60
   0  -2  10  233.78   10.10
  -1   2 -10   38.20    2.70
  -1   2 -10   39.80    2.50
  -1   2 -10   42.90    2.80
   1  -2  10   33.30    3.30
   1  -2  10   43.10    2.40
   1  -2  10   46.30    3.00
  -2   2 -10  228.08    9.40
  -2   2 -10  239.38    9.40
  -2   2 -10  220.38    9.50
  -2   2 -10  225.98    9.40
   2  -2  10  264.37   11.00
   5   1 -10   59.69    3.50
   5   1 -10   68.59    3.40
   5   1 -10   65.49    3.90
  -5  -1  10   56.39    3.00
   4   1 -10   60.69    3.40
   4   1 -10   56.69    3.60
   4   1 -10   63.89    3.60
  -4  -1  10   53.39    3.20
  -4  -1  10   56.29    3.10
   3   1 -10   99.69    5.30
   3   1 -10  100.09    5.20
   3   1 -10   98.69    4.90
   3   1 -10  101.59    5.20
  -3  -1  10   94.09    4.60
  -3  -1  10   91.19    5.20
  -3  -1  10   95.79    4.70
  -3  -1  10   93.29    4.60
   2   1 -10  108.19    5.50
   2   1 -10  110.79    5.70
   2   1 -10  107.79    4.90
   2   1 -10  111.79    5.50
   2   1 -10  111.59    5.50
   2   1 -10  105.09    5.60
  -2  -1  10  115.89    5.30
  -2  -1  10  102.89    7.30
  -2  -1  10  112.09    5.40
  -2  -1  10  114.19    5.50
   1   1 -10   91.99    4.90
   1   1 -10  101.69    5.40
   1   1 -10   90.69    5.10
   1   1 -10   99.59    5.10
   1   1 -10   93.19    4.50
  -1  -1  10   97.49    4.70
  -1  -1  10   88.39    4.70
  -1  -1  10   97.79    4.80
  -1  -1  10   94.49    5.40
   0   1 -10  178.48    8.40
   0   1 -10  188.58    8.10
   0   1 -10  173.28    8.10
   0   1 -10  171.88    8.00
   0   1 -10  174.98    7.70
   0  -1  10  181.48    8.60
   0  -1  10  189.38    8.00
   0  -1  10  183.48    7.90
   0  -1  10  162.18    9.50
   0  -1  10  197.18    8.20
  -1   1 -10    7.50    1.50
  -1   1 -10   10.50    1.80
  -1   1 -10   10.20    1.70
  -1   1 -10    8.50    2.80
   1  -1  10    9.80    1.70
   1  -1  10    6.40    3.00
   1  -1  10    5.30    3.30
   1  -1  10    7.80    1.30
   1  -1  10    5.20    1.60
  -2   1 -10    4.80    1.40
  -2   1 -10    5.30    1.20
  -2   1 -10    3.00    1.10
   2  -1  10    7.00    1.60
   2  -1  10    8.30    1.60
  -3   1 -10    2.10    1.30
  -3   1 -10    4.00    1.00
  -3   1 -10    2.70    0.90
   3  -1  10    3.70    1.50
   3  -1  10    2.90    1.30
   5   0 -10   60.99    3.30
   5   0 -10   61.29    3.30
  -5   0  10   53.89    3.40
  -5   0  10   53.49    3.20
   4   0 -10   81.99    4.20
   4   0 -10   80.09    4.60
   4   0 -10   82.89    4.40
  -4   0  10   78.09    3.90
  -4   0  10   76.19    4.00
  -4   0  10   66.69    4.40
   3   0 -10  164.38    7.40
   3   0 -10  149.79    7.20
   3   0 -10  141.89    7.30
   3   0 -10  157.78    7.00
  -3   0  10  149.39    6.60
  -3   0  10  145.39    6.60
   2   0 -10   13.30    3.00
   2   0 -10   15.90    2.30
   2   0 -10   15.30    2.70
  -2   0  10   14.60    1.80
  -2   0  10   17.30    2.00
  -2   0  10   11.60    2.60
  -2   0  10   14.50    3.20
   1   0 -10  586.44   23.30
   1   0 -10  582.54   23.10
   1   0 -10  580.24   23.20
   1   0 -10  572.54   23.00
   1   0 -10  580.74   22.90
   1   0 -10  539.35   22.50
  -1   0  10  613.74   23.70
  -1   0  10  608.94   23.80
  -1   0  10  580.74   23.80
   0   0 -10   97.19    5.30
   0   0 -10   97.59    5.10
   0   0 -10   93.09    5.20
   0   0 -10   95.29    4.60
   0   0 -10  100.49    5.80
   0   0  10  101.29    4.80
   0   0  10   95.69    4.80
   0   0  10   93.79    8.00
   0   0  10   99.89    4.80
  -1   0 -10  268.77   11.70
  -1   0 -10  282.07   11.90
  -1   0 -10  278.07   11.50
  -1   0 -10  253.47   12.50
   1   0  10  292.77   13.40
   1   0  10  288.37   12.10
   1   0  10  290.77   12.00
  -2   0 -10  191.88    8.40
  -2   0 -10  193.28    8.50
  -2   0 -10  190.58    8.50
  -2   0 -10  193.28    8.60
   2   0  10  195.18   10.10
   2   0  10  195.38    8.50
   2   0  10  205.88    8.60
   2   0  10  194.38    8.70
   2   0  10  206.58    9.20
  -3   0 -10  890.21   34.70
  -3   0 -10  893.61   34.70
  -3   0 -10  901.51   34.80
   3   0  10 1016.10   38.60
   3   0  10  982.80   37.90
   3   0  10  962.00   38.00
  -4   0 -10  132.09    5.80
   4   0  10  148.09    6.50
   4   0  10  139.99    6.20
   5  -1 -10  566.74   22.90
   5  -1 -10  541.15   21.90
   5  -1 -10  550.14   21.80
  -5   1  10  467.25   18.80
  -5   1  10  483.25   19.10
  -5   1  10  480.55   19.10
   4  -1 -10  135.49    6.40
   4  -1 -10  127.19    6.50
   4  -1 -10  133.29    6.50
   4  -1 -10  149.39    8.10
  -4   1  10  119.99    5.90
  -4   1  10  132.99    8.20
  -4   1  10  117.49    5.70
   3  -1 -10  327.57   15.20
  -3   1  10  263.07   13.10
  -3   1  10  290.97   11.70
  -3   1  10  296.57   12.00
   2  -1 -10  211.28    9.40
   2  -1 -10  207.48    9.50
   2  -1 -10  231.88    9.80
   2  -1 -10  218.88    9.80
   2  -1 -10  211.28    9.60
  -2   1  10  211.48    9.10
  -2   1  10  210.28    9.00
  -2   1  10  216.58   13.50
   1  -1 -10  234.58   10.30
   1  -1 -10  230.38   10.20
   1  -1 -10  217.38    9.50
   1  -1 -10  233.08   10.10
   1  -1 -10  249.78   10.60
   1  -1 -10  234.58   10.50
  -1   1  10  233.78   10.00
  -1   1  10  238.88    9.90
  -1   1  10  234.78   10.20
   0  -1 -10   35.60    3.10
   0  -1 -10   28.30    2.60
   0  -1 -10   31.70    2.20
   0  -1 -10   31.80    2.70
   0  -1 -10   33.50    2.70
   0  -1 -10   32.50    2.90
   0   1  10   21.30    5.30
   0   1  10   38.10    2.50
   0   1  10   33.20    2.60
   0   1  10   29.40    2.70
   0   1  10   26.80    4.10
  -1  -1 -10   42.00    3.10
  -1  -1 -10   37.20    2.60
  -1  -1 -10   39.50    3.10
  -1  -1 -10   39.50    2.90
  -1  -1 -10   40.30    3.30
  -1  -1 -10   36.60    3.30
  -1  -1 -10   41.10    3.10
   1   1  10   39.90    2.80
   1   1  10   35.60    3.90
   1   1  10   40.00    2.70
   1   1  10   43.30    6.60
   1   1  10   39.00    2.80
  -2  -1 -10   19.90    3.30
  -2  -1 -10   17.40    2.70
   2   1  10   22.70    2.20
   2   1  10   24.00    3.50
   2   1  10   27.90    4.70
   2   1  10   22.40    2.40
  -3  -1 -10   82.79    4.40
  -3  -1 -10   83.59    4.40
  -3  -1 -10   81.39    4.30
   3   1  10   98.89    4.50
   3   1  10   93.79    4.50
   3   1  10   87.79    5.00
   3   1  10   88.49    7.80
   3   1  10   79.69    4.80
  -4  -1 -10   94.89    4.60
  -4  -1 -10   97.69    6.40
   4   1  10   92.79    4.80
   4   1  10  107.19    5.10
   4   1  10   91.09    4.30
   5  -2 -10   30.40    2.30
   5  -2 -10   28.90    2.20
  -5   2  10   29.10    4.00
   4  -2 -10   92.19    4.50
   4  -2 -10   82.49    4.50
   4  -2 -10   74.79    6.20
   4  -2 -10   82.19    4.90
  -4   2  10   80.39    4.30
   3  -2 -10   77.49    4.20
   3  -2 -10   77.59    4.40
   3  -2 -10   75.39    6.20
   3  -2 -10   88.99    6.50
  -3   2  10   76.69    4.10
  -3   2  10   82.19    4.90
   2  -2 -10   86.19    4.50
   2  -2 -10   85.69    4.70
   2  -2 -10   78.79    6.40
   2  -2 -10   86.09    4.90
   2  -2 -10   78.79    4.80
  -2   2  10   89.29    8.30
  -2   2  10   86.29    4.80
  -2   2  10   82.99    4.30
   1  -2 -10   20.70    2.70
   1  -2 -10   15.70    2.50
   1  -2 -10   20.00    2.60
   1  -2 -10   23.90    2.20
  -1   2  10   18.20    4.10
  -1   2  10   14.70    1.80
  -1   2  10   18.30    2.40
   0  -2 -10   34.00    2.50
   0  -2 -10   33.70    2.80
   0  -2 -10   30.10    3.60
   0  -2 -10   35.90    3.10
   0  -2 -10   40.60    2.90
   0  -2 -10   34.30    3.00
   0  -2 -10   35.70    3.00
   0   2  10   40.60    2.70
   0   2  10   37.20    4.70
   0   2  10   34.70    3.70
   0   2  10   34.80    3.40
   0   2  10   39.10    2.60
  -1  -2 -10  357.36   15.20
  -1  -2 -10  365.66   15.50
  -1  -2 -10  357.56   14.90
  -1  -2 -10  378.06   15.50
  -1  -2 -10  380.76   15.80
  -1  -2 -10  366.06   15.30
  -1  -2 -10  385.16   15.70
   1   2  10  339.77   16.20
   1   2  10  405.16   15.30
   1   2  10  370.66   16.10
   1   2  10  377.96   15.40
   1   2  10  386.56   15.30
  -2  -2 -10   26.70    3.10
  -2  -2 -10   25.20    2.60
  -2  -2 -10   25.40    2.40
  -2  -2 -10   25.50    2.10
  -2  -2 -10   22.30    2.60
  -2  -2 -10   27.10    2.70
   2   2  10   29.00    3.20
   2   2  10   27.50    2.30
   2   2  10   26.30    2.40
   2   2  10   28.10    3.50
   2   2  10   28.00    2.40
   2   2  10   24.40    4.50
  -3  -2 -10  299.37   12.40
  -3  -2 -10  297.37   12.50
  -3  -2 -10  291.77   12.50
  -3  -2 -10  294.47   12.30
   3   2  10  304.37   14.30
   3   2  10  316.37   13.10
   3   2  10  319.47   13.60
   3   2  10  318.77   13.20
   3   2  10  338.17   13.20
  -4  -2 -10  120.79    5.60
  -4  -2 -10  116.39    5.70
  -4  -2 -10  118.39    5.80
   4   2  10  133.59    6.30
   4   2  10  116.39    6.40
   4   2  10  121.69    5.70
   4   2  10  131.79    5.60
  -5  -2 -10    3.20    0.80
  -5  -2 -10    3.00    0.80
   5   2  10    1.60    1.70
   5   2  10    4.70    1.30
   5  -3 -10   82.69    4.10
   5  -3 -10   79.99    4.00
   5  -3 -10   78.89    5.40
   4  -3 -10  201.58    9.20
   4  -3 -10  204.88    8.90
   4  -3 -10  201.18    8.70
   4  -3 -10  198.48   10.40
   3  -3 -10   91.89    7.30
   3  -3 -10   89.49    5.20
  -3   3  10  101.49    5.10
   2  -3 -10  327.87   14.00
   2  -3 -10  309.97   13.70
   2  -3 -10  324.57   13.60
   2  -3 -10  337.17   13.90
  -2   3  10  276.97   15.80
  -2   3  10  310.97   12.00
   1  -3 -10    6.90    1.80
   1  -3 -10    5.00    1.20
   1  -3 -10    3.10    1.40
  -1   3  10    4.30    1.70
  -1   3  10    2.90    1.10
  -1   3  10    1.20    2.30
   0  -3 -10  695.33   28.70
   0  -3 -10  730.13   28.80
   0  -3 -10  733.83   28.70
   0  -3 -10  725.93   28.50
   0  -3 -10  696.83   28.30
   0   3  10  737.33   27.60
   0   3  10  699.83   28.40
   0   3  10  680.13   28.60
  -1  -3 -10  591.34   23.20
  -1  -3 -10  558.64   23.10
  -1  -3 -10  543.25   23.50
  -1  -3 -10  577.54   23.30
  -1  -3 -10  608.24   23.60
   1   3  10  593.84   24.10
   1   3  10  633.24   23.90
   1   3  10  619.84   23.90
   1   3  10  609.24   24.80
   1   3  10  573.94   24.90
  -2  -3 -10  909.51   37.50
  -2  -3 -10  960.30   37.50
  -2  -3 -10  966.40   37.30
  -2  -3 -10  980.40   37.90
  -2  -3 -10  944.61   37.40
   2   3  10 1041.90   40.30
   2   3  10 1071.99   40.70
   2   3  10 1030.70   40.30
   2   3  10 1017.50   40.30
   2   3  10 1086.19   42.40
   2   3  10  978.50   41.30
  -3  -3 -10  479.15   19.70
  -3  -3 -10  438.86   18.60
  -3  -3 -10  454.95   18.90
   3   3  10  485.65   19.00
   3   3  10  472.15   19.40
   3   3  10  471.65   20.10
   3   3  10  492.45   19.10
   3   3  10  435.66   20.20
  -4  -3 -10  358.16   14.60
  -4  -3 -10  368.86   14.80
  -4  -3 -10  348.97   15.00
  -4  -3 -10  360.46   14.70
   4   3  10  377.96   15.60
   4   3  10  367.36   15.80
   4   3  10  402.46   15.70
   4   3  10  406.06   16.10
  -5  -3 -10   58.69    3.30
  -5  -3 -10   58.29    3.10
  -5  -3 -10   61.89    4.40
   5   3  10   64.79    3.10
   5   3  10   69.09    3.60
   5  -4 -10  214.88    9.20
   5  -4 -10  226.48    9.30
   5  -4 -10  226.18   10.50
   4  -4 -10   12.00    2.10
   4  -4 -10   13.80    2.00
   3  -4 -10   98.59    7.50
   3  -4 -10  100.19    5.10
   3  -4 -10  101.69    5.70
   3  -4 -10   98.89    5.40
   2  -4 -10   50.99    3.20
   2  -4 -10   51.69    3.40
   2  -4 -10   47.50    3.90
   2  -4 -10   54.49    3.70
   1  -4 -10  414.66   18.00
   1  -4 -10  434.26   18.40
   1  -4 -10  435.06   17.80
   1  -4 -10  458.55   18.40
  -1   4  10  428.66   17.00
   0  -4 -10   75.39    4.30
   0  -4 -10   79.09    4.70
   0  -4 -10   79.99    4.60
   0  -4 -10   76.69    4.90
   0   4  10   74.89    5.00
   0   4  10   76.29    5.00
   0   4  10   70.79    5.80
   0   4  10   78.99    3.90
  -1  -4 -10  864.61   35.50
  -1  -4 -10  922.11   35.90
  -1  -4 -10  912.21   36.00
  -1  -4 -10  951.50   36.10
  -1  -4 -10  879.81   35.70
   1   4  10  945.71   36.80
   1   4  10  852.81   36.10
   1   4  10  958.00   36.00
   1   4  10  980.80   36.80
   1   4  10  895.21   36.90
  -2  -4 -10   30.20    3.00
  -2  -4 -10   31.80    2.80
  -2  -4 -10   31.20    2.70
  -2  -4 -10   29.70    2.30
  -2  -4 -10   25.80    2.90
  -2  -4 -10   25.90    2.90
   2   4  10   34.40    2.50
   2   4  10   30.00    4.30
   2   4  10   30.30    2.60
   2   4  10   28.30    2.90
   2   4  10   29.10    3.40
  -3  -4 -10  696.83   26.10
  -3  -4 -10  663.23   26.30
  -3  -4 -10  654.13   26.40
  -3  -4 -10  642.24   27.10
  -3  -4 -10  611.74   26.80
   3   4  10  765.62   29.80
   3   4  10  737.83   30.00
   3   4  10  769.52   29.80
  -4  -4 -10   24.80    2.50
  -4  -4 -10   25.20    2.90
  -4  -4 -10   27.00    2.80
  -4  -4 -10   22.10    2.10
  -4  -4 -10   24.90    3.30
   4   4  10   31.80    4.70
   4   4  10   26.10    2.30
   4   4  10   26.60    2.30
   4   4  10   22.60    2.60
  -5  -4 -10  411.36   16.30
  -5  -4 -10  382.96   15.90
  -5  -4 -10  406.36   16.10
   5   4  10  424.56   17.20
   5   4  10  445.86   17.60
   5   4  10  440.76   17.30
   4  -5 -10  488.65   19.30
   4  -5 -10  488.75   20.50
   4  -5 -10  476.55   19.30
   3  -5 -10  494.25   22.60
   3  -5 -10  527.75   21.60
   3  -5 -10  548.15   21.40
   3  -5 -10  563.44   21.40
   2  -5 -10  322.57   13.50
   2  -5 -10  356.36   15.20
   2  -5 -10  283.87   14.80
   1  -5 -10 1098.59   41.90
   1  -5 -10 1069.79   42.40
   1  -5 -10 1050.39   42.10
   1  -5 -10 1072.29   42.00
   0  -5 -10  142.99    6.70
   0  -5 -10  142.29    7.00
   0  -5 -10  145.69    7.30
   0  -5 -10  122.19    7.50
   0   5  10  134.59    7.10
   0   5  10  138.69    6.30
  -1  -5 -10  425.76   18.00
  -1  -5 -10  443.06   18.00
  -1  -5 -10  419.76   17.70
  -1  -5 -10  426.96   18.10
   1   5  10  433.96   18.30
   1   5  10  420.56   18.60
   1   5  10  455.35   17.50
   1   5  10  441.96   17.60
  -2  -5 -10   74.89    4.70
  -2  -5 -10   70.59    4.60
  -2  -5 -10   79.39    4.40
  -2  -5 -10   76.59    4.70
  -2  -5 -10   74.89    4.50
   2   5  10   81.19    5.70
   2   5  10   78.99    4.70
   2   5  10   75.99    4.30
   2   5  10   79.49    4.20
  -3  -5 -10  220.98   11.60
  -3  -5 -10  198.38    8.90
  -3  -5 -10  210.08    9.70
  -3  -5 -10  233.88   10.00
  -3  -5 -10  207.48   10.00
   3   5  10  229.28    9.80
   3   5  10  225.78    9.80
  -4  -5 -10   13.30    1.80
  -4  -5 -10   17.80    3.00
  -4  -5 -10   15.40    2.20
  -4  -5 -10   17.30    2.60
  -4  -5 -10   16.00    2.60
  -4  -5 -10   17.10    2.80
   4   5  10   19.30    2.70
   4   5  10   13.80    2.70
   4   5  10   20.40    2.30
   4   5  10   19.10    2.20
   4   5  10   18.90    2.10
  -5  -5 -10  420.86   16.80
  -5  -5 -10  429.86   17.30
   5   5  10  515.35   19.70
   5   5  10  474.35   19.50
   5   5  10  482.75   19.30
   4  -6 -10  137.49    7.70
   2  -6 -10   12.80    2.70
   2  -6 -10   10.30    1.70
   2  -6 -10   13.10    2.00
   2  -6 -10   14.80    3.10
   1  -6 -10    4.60    1.30
   1  -6 -10    4.20    1.70
   1  -6 -10    2.90    1.90
   1  -6 -10    3.40    1.20
   0  -6 -10  372.76   15.90
   0  -6 -10  361.86   15.80
   0  -6 -10  372.86   15.60
   0  -6 -10  382.26   15.60
   0   6  10  369.56   16.60
   0   6  10  411.66   15.70
  -1  -6 -10  110.29    5.90
  -1  -6 -10  100.19    5.60
  -1  -6 -10  100.49    5.60
  -1  -6 -10   97.99    5.40
  -1  -6 -10  102.99    5.60
   1   6  10  106.39    5.30
   1   6  10  115.09    5.80
   1   6  10  114.29    7.30
  -2  -6 -10  103.99    5.60
  -2  -6 -10  126.09    7.70
  -2  -6 -10  117.39    8.90
  -2  -6 -10  100.79    5.60
  -2  -6 -10   98.39    5.80
   2   6  10  110.49    5.30
   2   6  10  114.09    5.50
   2   6  10  101.49    5.90
  -3  -6 -10    6.00    1.90
  -3  -6 -10    6.40    1.60
  -3  -6 -10    6.80    2.00
  -3  -6 -10    5.60    1.60
   3   6  10    4.30    2.00
   3   6  10    2.90    1.20
   3   6  10    3.80    1.20
   3   6  10    5.50    1.40
  -4  -6 -10    3.40    1.60
  -4  -6 -10    3.80    1.50
  -4  -6 -10    2.80    1.50
  -4  -6 -10    4.70    1.30
   4   6  10    3.60    1.30
   4   6  10    3.60    1.70
   4   6  10    0.00    2.80
   4   6  10    3.20    1.10
  -5  -6 -10   78.39    4.30
  -5  -6 -10   72.29    3.90
  -5  -6 -10   76.89    3.50
   5   6  10   85.99    4.20
   5   6  10   84.49    4.40
   5   6  10   92.69    4.20
   2  -7 -10   14.90    3.20
   2  -7 -10   12.20    2.30
   1  -7 -10    8.20    1.60
   1  -7 -10    6.40    1.70
   1  -7 -10    5.00    1.90
   1  -7 -10    7.10    1.70
   0  -7 -10  188.58    8.40
   0  -7 -10  179.68    8.40
   0  -7 -10  177.98    9.30
   0  -7 -10  182.48    9.60
  -1  -7 -10   10.30    3.30
  -1  -7 -10    9.30    2.70
   1   7  10    7.40    2.00
   1   7  10   10.60    2.00
  -2  -7 -10   44.90    3.20
  -2  -7 -10   43.00    3.30
  -2  -7 -10   47.50    3.50
   2   7  10   51.39    4.60
   2   7  10   47.70    3.00
   2   7  10   46.60    3.90
  -3  -7 -10   50.09    3.60
  -3  -7 -10   55.89    3.90
  -3  -7 -10   49.30    4.00
  -3  -7 -10   48.60    3.30
  -3  -7 -10   50.79    3.40
   3   7  10   54.49    4.40
   3   7  10   49.70    5.20
   3   7  10   54.49    3.40
   3   7  10   54.79    3.60
  -4  -7 -10    7.10    1.60
  -4  -7 -10    8.50    1.80
  -4  -7 -10    5.80    1.40
  -4  -7 -10    5.20    1.40
   4   7  10    8.70    1.30
   4   7  10    8.00    1.50
   4   7  10    7.60    1.30
   4   7  10    4.60    2.20
  -5  -7 -10   22.70    2.70
  -5  -7 -10   24.20    2.50
   5   7  10   24.90    2.10
   5   7  10   25.00    1.80
   2  -8 -10  204.08    8.70
   2  -8 -10  206.18    9.70
   1  -8 -10   80.49    4.70
   1  -8 -10   83.79    4.40
   1  -8 -10   80.59    4.40
   0  -8 -10   26.80    2.90
   0  -8 -10   29.20    3.10
   0  -8 -10   30.90    2.80
   0  -8 -10   28.90    2.80
  -1  -8 -10   86.49    5.00
  -1  -8 -10   85.09    4.50
  -1  -8 -10   83.49    4.70
   1   8  10   97.99    6.10
   1   8  10   92.19    4.70
  -2  -8 -10   19.70    2.30
  -2  -8 -10   14.50    2.40
  -2  -8 -10   16.90    2.30
   2   8  10   22.80    2.50
   2   8  10   16.90    3.10
   2   8  10   18.30    2.20
  -3  -8 -10  129.09    6.40
  -3  -8 -10  126.39    6.20
  -3  -8 -10  136.99    6.30
  -3  -8 -10  127.79    6.00
   3   8  10  143.89    6.50
   3   8  10  142.89    6.50
   3   8  10  140.19    6.40
  -4  -8 -10   61.29    3.60
  -4  -8 -10   56.59    3.40
  -4  -8 -10   58.99    3.20
  -4  -8 -10   63.99    3.90
   4   8  10   71.39    3.50
   4   8  10   60.99    3.70
  -5  -8 -10   70.09    3.40
  -5  -8 -10   70.09    4.10
   5   8  10   75.29    3.70
   5   8  10   81.89    3.70
   1  -9 -10   18.20    3.40
   1  -9 -10   21.80    2.10
   0  -9 -10   18.10    2.00
   0  -9 -10   22.20    2.20
   0  -9 -10   23.40    2.40
  -1  -9 -10  134.39    6.40
  -1  -9 -10  139.19    6.60
  -1  -9 -10  137.39    6.30
  -2  -9 -10  100.79    5.30
  -2  -9 -10  111.79    5.50
  -2  -9 -10  108.09    5.10
   2   9  10  111.39    5.10
   2   9  10  103.89    5.20
  -3  -9 -10  114.39    5.30
  -3  -9 -10  111.69    5.40
  -3  -9 -10  108.29    5.10
   3   9  10  108.59    5.50
   3   9  10  118.49    5.30
   3   9  10  123.59    5.30
  -4  -9 -10   33.00    3.10
  -4  -9 -10   29.10    2.20
   4   9  10   26.10    1.90
   4   9  10   28.80    2.10
  -1 -10 -10  554.74   21.00
  -1 -10 -10  533.35   20.90
  -1 -10 -10  510.35   20.90
  -2 -10 -10  142.89    6.40
  -2 -10 -10  150.08    7.20
  -2 -10 -10  143.69    6.50
   2  10  10  163.48    7.80
   2   2 -11   67.89    3.50
   2   2 -11   67.49    3.60
   2   2 -11   63.49    3.60
  -2  -2  11   66.89    3.50
  -2  -2  11   72.49    3.30
  -2  -2  11   74.49    4.10
   1   2 -11  222.78    9.30
   1   2 -11  215.68    9.00
   1   2 -11  211.68    9.10
  -1  -2  11  220.58    9.30
  -1  -2  11  213.38    9.00
  -1  -2  11  227.78    8.90
   0   2 -11   11.70    1.50
   0   2 -11    8.40    1.40
   0   2 -11   13.70    1.40
   0  -2  11   15.20    1.80
   3   1 -11   15.80    2.10
   3   1 -11   11.20    1.80
  -3  -1  11    7.30    1.60
  -3  -1  11    9.70    1.60
  -3  -1  11   12.00    1.50
   2   1 -11   43.20    3.00
   2   1 -11   44.20    3.20
   2   1 -11   41.30    3.30
   2   1 -11   43.90    3.00
   2   1 -11   41.20    2.80
  -2  -1  11   32.30    4.50
  -2  -1  11   37.70    2.40
  -2  -1  11   38.30    2.50
  -2  -1  11   34.50    2.70
   1   1 -11  132.19    6.20
   1   1 -11  135.79    6.50
   1   1 -11  131.09    6.20
   1   1 -11  142.89    6.30
  -1  -1  11  137.89    6.00
  -1  -1  11  138.59    6.00
  -1  -1  11  132.79    6.20
   0   1 -11    2.60    1.00
   0   1 -11    3.60    1.10
   0   1 -11    2.60    1.30
   0   1 -11    4.30    0.90
   0  -1  11    2.10    1.70
   0  -1  11    1.00    0.80
   0  -1  11    3.50    1.30
   0  -1  11   -0.70    1.90
  -1   1 -11   16.20    1.80
  -1   1 -11   14.30    1.70
  -1   1 -11   16.20    1.60
  -1   1 -11   10.70    1.60
   1  -1  11   14.90    1.50
   1  -1  11   17.20    2.30
   1  -1  11   16.80    2.10
   4   0 -11  301.37   11.70
   4   0 -11  287.17   11.90
   4   0 -11  277.57   11.80
  -4   0  11  271.67   11.50
  -4   0  11  280.27   11.10
   3   0 -11   36.60    2.40
   3   0 -11   34.00    2.70
   3   0 -11   36.70    2.70
  -3   0  11   40.00    2.70
  -3   0  11   37.10    2.50
  -3   0  11   40.90    3.70
  -3   0  11   36.80    2.60
   2   0 -11  350.16   14.10
   2   0 -11  335.67   13.80
   2   0 -11  332.97   14.10
   2   0 -11  343.97   13.90
   2   0 -11  328.77   13.90
  -2   0  11  314.87   13.30
  -2   0  11  332.57   13.30
  -2   0  11  342.97   13.40
   1   0 -11  108.99    5.50
   1   0 -11  107.69    5.40
   1   0 -11  110.19    5.60
   1   0 -11  113.59    5.50
   1   0 -11  106.69    5.40
  -1   0  11  103.79    5.00
  -1   0  11  109.69    5.00
  -1   0  11  104.99    5.10
   0   0 -11  181.98    8.30
   0   0 -11  186.78    8.50
   0   0 -11  180.18    7.60
   0   0 -11  190.78    8.20
   0   0 -11  183.48    8.30
   0   0 -11  182.68    8.20
   0   0  11  186.68    8.20
   0   0  11  195.58    8.20
   0   0  11  188.58    8.20
  -1   0 -11   49.20    3.30
  -1   0 -11   51.99    2.90
  -1   0 -11   53.29    3.30
  -1   0 -11   49.80    3.20
  -1   0 -11   57.89    3.90
   1   0  11   53.99    3.00
   1   0  11   57.19    3.20
   1   0  11   52.49    3.50
   1   0  11   55.29    3.70
  -2   0 -11  137.89    5.90
  -2   0 -11  136.49    6.20
  -2   0 -11  137.79    6.10
   2   0  11  149.79    6.30
   2   0  11  144.89    6.80
   2   0  11  150.08    6.60
   4  -1 -11    7.20    1.40
   4  -1 -11    5.50    1.10
   4  -1 -11    8.10    1.60
  -4   1  11    2.70    1.60
  -4   1  11    5.10    1.40
   3  -1 -11  342.87   14.30
   3  -1 -11  342.67   14.30
   3  -1 -11  349.17   14.10
  -3   1  11  327.37   13.50
  -3   1  11  338.67   13.80
  -3   1  11  347.97   13.60
   2  -1 -11   85.69    4.60
   2  -1 -11   78.09    4.50
   2  -1 -11   80.29    4.30
   2  -1 -11   72.29    4.40
  -2   1  11   86.19    4.40
  -2   1  11   89.29    4.40
  -2   1  11   92.49    4.80
   1  -1 -11   16.60    2.20
   1  -1 -11   19.00    2.30
   1  -1 -11   16.90    2.40
   1  -1 -11   18.30    2.50
  -1   1  11   19.40    1.90
  -1   1  11   18.30    2.10
   0  -1 -11   29.50    2.70
   0  -1 -11   29.80    2.20
   0  -1 -11   25.60    2.80
   0  -1 -11   27.80    2.70
   0  -1 -11   29.10    2.70
   0  -1 -11   31.70    3.00
   0   1  11   21.70    2.40
   0   1  11   28.40    2.30
   0   1  11   28.90    2.30
   0   1  11   39.10    6.30
  -1  -1 -11  102.59    4.70
  -1  -1 -11   97.29    5.20
  -1  -1 -11  109.09    5.30
  -1  -1 -11  104.99    5.30
  -1  -1 -11  101.29    5.60
  -1  -1 -11  105.09    5.60
  -1  -1 -11  104.49    5.50
   1   1  11  116.79    5.40
   1   1  11  115.09    5.50
   1   1  11  115.19    6.00
   1   1  11  115.89    5.40
   1   1  11  108.89    7.30
  -2  -1 -11   11.20    1.80
  -2  -1 -11   14.20    1.60
  -2  -1 -11   15.60    2.20
   2   1  11   11.70    2.30
   2   1  11   12.30    1.90
   2   1  11   12.10    1.70
   2   1  11   11.20    2.30
  -3  -1 -11   90.99    4.50
  -3  -1 -11   95.89    4.50
   3   1  11  109.39    5.30
   3   1  11  109.29    5.10
   3   1  11  104.59    4.70
   4  -2 -11  203.48    8.40
   4  -2 -11  193.08    8.50
   4  -2 -11  193.38    8.60
  -4   2  11  169.78    7.60
   3  -2 -11    0.70    1.00
   3  -2 -11   -1.60    1.20
  -3   2  11    2.70    1.30
  -3   2  11   -0.90    1.40
   2  -2 -11  165.38    7.30
   2  -2 -11  151.48    7.40
   2  -2 -11  156.58    7.60
   2  -2 -11  157.38    7.60
  -2   2  11  153.18    6.90
  -2   2  11  154.58    8.60
   1  -2 -11  276.17   12.70
   1  -2 -11  287.57   12.40
   1  -2 -11  286.57   12.40
   1  -2 -11  314.97   13.30
  -1   2  11  316.97   12.90
  -1   2  11  300.77   12.50
  -1   2  11  300.17   12.50
   0  -2 -11  137.09    6.40
   0  -2 -11  128.89    7.20
   0  -2 -11  126.69    6.60
   0  -2 -11  126.09    6.30
   0  -2 -11  113.09    7.90
   0   2  11  134.89    6.20
   0   2  11  144.39    6.20
   0   2  11  137.29    6.40
   0   2  11  122.29    7.80
  -1  -2 -11   87.39    4.70
  -1  -2 -11   78.39    4.50
  -1  -2 -11   82.09    4.50
  -1  -2 -11   80.99    4.90
  -1  -2 -11   83.39    4.80
   1   2  11   90.89    5.00
   1   2  11   85.89    4.50
   1   2  11   83.09    4.30
   1   2  11   88.79    4.30
   1   2  11   69.79    5.70
  -2  -2 -11   64.29    4.20
  -2  -2 -11   69.79    4.50
  -2  -2 -11   67.59    4.10
  -2  -2 -11   69.79    4.00
  -2  -2 -11   69.49    3.90
   2   2  11   70.09    3.80
   2   2  11   73.79    3.90
   2   2  11   67.19    4.40
   2   2  11   74.19    3.80
   2   2  11   59.79    5.60
  -3  -2 -11   47.40    3.00
  -3  -2 -11   47.00    3.00
  -3  -2 -11   45.90    2.70
   3   2  11   48.10    2.80
   3   2  11   50.69    3.00
   3   2  11   48.40    3.60
   3   2  11   44.10    3.50
  -4  -2 -11   20.50    1.90
  -4  -2 -11   22.40    2.20
   4   2  11   28.60    3.00
   4   2  11   25.20    1.80
   4   2  11   25.30    2.00
   4  -3 -11  279.87   11.70
   4  -3 -11  284.97   11.60
   4  -3 -11  280.47   13.50
   3  -3 -11  201.38    9.10
   3  -3 -11  228.58    9.50
   3  -3 -11  208.18    9.50
  -3   3  11  189.18    8.10
   2  -3 -11  484.55   20.10
   2  -3 -11  489.25   20.10
   2  -3 -11  498.85   20.40
   2  -3 -11  520.75   20.40
  -2   3  11  509.85   19.20
  -2   3  11  451.55   19.00
   1  -3 -11  127.39    6.70
  -1   3  11  113.99    5.40
  -1   3  11  127.09    5.80
   0  -3 -11  323.27   15.00
   0  -3 -11  363.76   15.10
   0  -3 -11  364.16   15.20
   0  -3 -11  373.76   15.30
   0   3  11  389.46   15.30
   0   3  11  380.46   15.60
   0   3  11  381.86   15.30
   0   3  11  365.36   16.50
  -1  -3 -11  196.78    9.10
  -1  -3 -11  162.68    7.90
  -1  -3 -11  157.78    8.20
   1   3  11  161.38    8.60
   1   3  11  159.48    7.40
   1   3  11  164.98    7.20
   1   3  11  154.88    7.90
   1   3  11  170.18    7.20
  -2  -3 -11   17.40    2.70
  -2  -3 -11   18.10    2.30
  -2  -3 -11   15.90    2.40
  -2  -3 -11   20.60    2.00
  -2  -3 -11   17.30    2.20
  -2  -3 -11   22.80    2.90
   2   3  11   16.60    4.10
   2   3  11   20.80    2.20
   2   3  11   23.90    2.20
   2   3  11   23.60    3.40
   2   3  11   24.60    2.20
  -3  -3 -11   73.09    4.10
  -3  -3 -11   73.09    3.60
  -3  -3 -11   74.59    4.10
  -3  -3 -11   72.29    4.10
   3   3  11   74.69    4.00
   3   3  11   78.89    4.20
   3   3  11   73.09    5.10
   3   3  11   76.59    3.90
  -4  -3 -11   98.69    4.50
  -4  -3 -11   89.59    4.80
  -4  -3 -11   91.09    4.20
   4   3  11  100.49    5.00
   4   3  11  100.79    4.80
   4   3  11  109.19    4.60
   4  -4 -11  161.18    7.10
   4  -4 -11  163.78    7.00
   4  -4 -11  160.58    8.80
   3  -4 -11  288.47   11.80
   3  -4 -11  273.47   11.90
   3  -4 -11  289.27   12.10
   2  -4 -11    6.50    1.80
   2  -4 -11    7.00    1.40
   2  -4 -11    6.50    1.70
   1  -4 -11  241.78   10.70
  -1   4  11  246.68   13.90
   0  -4 -11   36.50    2.60
   0  -4 -11   28.90    2.90
   0  -4 -11   28.50    2.90
   0  -4 -11   35.50    2.90
   0   4  11   30.80    2.40
   0   4  11   32.70    2.90
  -1  -4 -11   95.89    6.70
  -1  -4 -11   99.19    5.40
   1   4  11  106.49    5.00
   1   4  11   99.19    5.00
   1   4  11  105.09    5.60
   1   4  11   95.39    6.00
  -2  -4 -11   18.20    2.70
  -2  -4 -11   14.10    2.10
  -2  -4 -11   12.50    2.40
  -2  -4 -11   15.30    2.50
  -2  -4 -11   16.00    2.30
   2   4  11   15.30    1.90
   2   4  11   15.50    2.70
   2   4  11   18.60    3.70
   2   4  11   13.60    2.30
  -3  -4 -11  249.78   10.60
  -3  -4 -11  231.68    9.90
  -3  -4 -11  253.77   10.80
  -3  -4 -11  251.77   10.60
  -3  -4 -11  256.97   10.70
   3   4  11  279.07   11.60
   3   4  11  277.77   11.70
   3   4  11  284.77   11.60
  -4  -4 -11  113.39    5.40
  -4  -4 -11  116.59    5.20
  -4  -4 -11  104.29    4.80
   4   4  11  123.79    6.30
   4   4  11  128.39    6.80
   4   4  11  131.79    5.70
   4   4  11  130.09    6.00
   4  -5 -11   54.19    3.10
   3  -5 -11  572.04   23.40
   3  -5 -11  601.44   23.20
   3  -5 -11  593.34   23.30
   2  -5 -11   29.40    2.50
   2  -5 -11   25.20    2.90
   2  -5 -11   27.00    3.10
   1  -5 -11  205.88    9.20
   1  -5 -11  181.68    8.80
   1  -5 -11  198.68    8.80
   1  -5 -11  186.28    8.70
   0  -5 -11   43.80    3.40
   0  -5 -11   43.90    4.40
   0  -5 -11   51.49    4.90
   0   5  11   51.09    3.20
   0   5  11   48.80    5.90
  -1  -5 -11  612.34   22.80
  -1  -5 -11  489.45   23.50
  -1  -5 -11  506.15   24.20
  -1  -5 -11  620.64   24.10
   1   5  11  573.64   25.40
   1   5  11  652.53   24.60
   1   5  11  645.04   24.50
  -2  -5 -11   14.20    2.50
  -2  -5 -11   15.20    2.10
  -2  -5 -11   10.40    1.90
  -2  -5 -11   14.80    2.20
   2   5  11   18.30    2.70
   2   5  11   14.60    3.70
   2   5  11   18.40    2.10
   2   5  11   21.10    2.20
  -3  -5 -11  151.48    6.90
  -3  -5 -11  150.18    6.90
  -3  -5 -11  139.99    6.80
  -3  -5 -11  144.49    7.00
   3   5  11  157.98    7.00
   3   5  11  162.98    7.10
   3   5  11  158.08    7.10
   3   5  11  147.39    9.30
  -4  -5 -11   25.00    2.70
  -4  -5 -11   29.40    2.40
   4   5  11   28.90    2.60
   4   5  11   30.10    2.10
   4   5  11   29.00    2.70
   4   5  11   29.50    2.80
   3  -6 -11  104.79    5.20
   3  -6 -11  101.29    5.00
   2  -6 -11   62.09    4.10
   2  -6 -11   60.79    3.70
   2  -6 -11   70.89    3.90
   2  -6 -11   58.29    4.20
   1  -6 -11  188.48    8.70
   1  -6 -11  199.98    8.80
   1  -6 -11  201.38    9.10
   1  -6 -11  185.98    8.60
   0  -6 -11  122.59    6.20
   0  -6 -11  114.19    6.30
   0  -6 -11  129.29    6.10
   0  -6 -11  127.89    6.30
   0   6  11  126.09    5.90
  -1  -6 -11  115.89    5.80
  -1  -6 -11  113.69    6.10
  -1  -6 -11  117.59    6.10
  -1  -6 -11  118.99    6.20
   1   6  11  123.09    5.60
   1   6  11   94.09    6.80
  -2  -6 -11   -0.90    1.20
  -2  -6 -11    3.30    1.20
  -2  -6 -11   -0.20    0.90
   2   6  11    0.20    1.70
   2   6  11    1.00    1.20
   2   6  11    1.30    1.10
   2   6  11   -1.80    2.30
  -3  -6 -11   82.79    4.30
  -3  -6 -11   75.49    4.20
  -3  -6 -11   71.99    4.40
   3   6  11   76.59    4.10
   3   6  11   78.09    4.70
   3   6  11   80.19    4.20
   3   6  11   81.09    4.10
  -4  -6 -11   51.19    4.80
  -4  -6 -11   47.50    3.30
  -4  -6 -11   63.59    4.30
   4   6  11   52.39    2.90
   4   6  11   44.20    3.20
   4   6  11   48.30    3.30
   2  -7 -11   12.80    2.70
   2  -7 -11   14.60    2.90
   1  -7 -11  247.08   10.70
   1  -7 -11  243.88   10.50
   1  -7 -11  245.88   10.40
   0  -7 -11  121.79    6.30
   0  -7 -11  125.49    6.20
   0  -7 -11  124.49    6.00
  -1  -7 -11   79.29    4.80
  -1  -7 -11   90.99    4.80
  -1  -7 -11   87.29    4.60
   1   7  11   85.79    4.50
   1   7  11   91.69    5.40
  -2  -7 -11  209.98    9.70
  -2  -7 -11  229.18    9.60
  -2  -7 -11  216.98    9.60
   2   7  11  234.48   10.00
   2   7  11  230.48    9.70
   2   7  11  227.48    9.70
  -3  -7 -11   11.40    2.00
  -3  -7 -11    8.50    1.40
  -3  -7 -11    9.20    2.00
   3   7  11    7.80    1.40
   3   7  11    7.90    1.40
  -4  -7 -11   49.20    4.60
  -4  -7 -11   66.39    3.90
   4   7  11   81.29    3.90
   4   7  11   81.09    4.00
   4   7  11   79.09    5.50
   1  -8 -11   73.59    4.00
   1  -8 -11   79.99    5.10
   0  -8 -11    3.80    1.60
   0  -8 -11    2.70    0.90
   0  -8 -11    3.70    1.40
  -1  -8 -11   41.40    2.90
  -1  -8 -11   46.40    3.50
  -1  -8 -11   45.20    3.20
  -1  -8 -11   46.30    3.00
  -2  -8 -11   17.50    2.00
  -2  -8 -11   24.90    2.90
  -2  -8 -11   19.90    2.20
  -2  -8 -11   22.50    2.40
   2   8  11   26.40    2.70
   2   8  11   20.00    2.50
  -3  -8 -11   46.80    3.00
  -3  -8 -11   39.50    3.00
  -3  -8 -11   51.09    2.90
  -3  -8 -11   48.60    3.00
   3   8  11   54.59    3.00
   3   8  11   53.89    3.20
   3   8  11   55.89    3.60
  -4  -8 -11  138.59    6.20
  -4  -8 -11  145.69    6.20
   4   8  11  155.68    6.60
   0  -9 -11  198.38    8.20
   0  -9 -11  191.48    8.30
  -1  -9 -11  307.57   12.30
  -1  -9 -11  290.07   12.00
  -1  -9 -11  298.47   12.20
  -2  -9 -11   60.69    3.40
  -2  -9 -11   63.99    3.50
  -2  -9 -11   67.09    3.50
   2   0 -12  116.89    5.90
   2   0 -12  127.99    5.70
   2   0 -12  144.59    6.50
   2   0 -12  110.69    5.60
  -2   0  12  125.59    5.50
  -2   0  12  125.99    5.40
   1   0 -12    3.50    1.00
   1   0 -12    5.10    1.20
   1   0 -12    5.00    1.50
  -1   0  12    8.00    1.40
  -1   0  12    5.70    1.10
   0   0 -12  121.49    5.40
   0   0 -12  119.49    5.60
   0   0  12  125.59    5.30
   0   0  12  122.89    5.50
   0   0  12  124.69    5.70
   3  -1 -12  116.99    5.30
   3  -1 -12  115.09    5.40
   3  -1 -12  120.69    5.50
  -3   1  12  115.79    5.20
  -3   1  12  110.59    5.10
   2  -1 -12   60.99    3.50
   2  -1 -12   65.69    3.70
   2  -1 -12   56.49    3.80
   2  -1 -12   63.49    3.40
  -2   1  12   62.69    3.40
  -2   1  12   64.19    3.30
  -2   1  12   57.49    3.30
   1  -1 -12   57.89    3.30
   1  -1 -12   59.29    3.50
   1  -1 -12   56.49    3.40
   1  -1 -12   48.80    3.20
  -1   1  12   62.19    3.10
  -1   1  12   50.29    3.20
   0  -1 -12  169.18    7.30
   0  -1 -12  158.78    7.30
   0  -1 -12  165.18    7.50
   0  -1 -12  157.48    7.20
   0   1  12  183.18    7.50
   0   1  12  174.98    7.80
   0   1  12  171.68    7.60
  -1  -1 -12   62.79    3.40
  -1  -1 -12   66.29    4.00
   1   1  12   67.39    3.40
   1   1  12   63.79    3.80
   1   1  12   66.09    3.30
  -2  -1 -12   69.89    3.70
  -2  -1 -12   74.89    3.60
   2   1  12   84.39    3.80
   2   1  12   86.29    4.10
   2   1  12   81.79    4.30
   3  -2 -12  134.99    6.40
   3  -2 -12  151.68    6.70
   3  -2 -12  143.09    6.30
  -3   2  12  132.89    6.10
   2  -2 -12   27.50    3.10
   2  -2 -12   27.90    2.30
   2  -2 -12   32.20    2.50
   2  -2 -12   26.20    2.40
  -2   2  12   25.50    2.40
  -2   2  12   27.00    2.30
  -2   2  12   23.30    3.10
   1  -2 -12   29.20    2.60
   1  -2 -12   30.50    2.50
   1  -2 -12   32.80    2.60
   1  -2 -12   28.80    2.60
  -1   2  12   35.60    2.40
  -1   2  12   27.90    2.40
  -1   2  12   36.60    2.70
   0  -2 -12   31.00    2.70
   0  -2 -12   26.10    2.60
   0  -2 -12   31.50    2.40
   0  -2 -12   28.70    2.50
   0   2  12   30.70    2.50
   0   2  12   29.40    2.40
   0   2  12   28.70    2.20
   0   2  12   30.10    3.00
  -1  -2 -12  169.98    7.90
  -1  -2 -12  169.48    7.50
  -1  -2 -12  175.18    8.70
  -1  -2 -12  172.18    7.60
   1   2  12  187.48    7.70
   1   2  12  182.48    8.10
   1   2  12  186.98    7.70
   1   2  12  169.98    7.80
  -2  -2 -12   99.19    4.70
  -2  -2 -12   99.49    4.70
   2   2  12  114.59    5.10
   2   2  12  108.39    5.00
   3  -3 -12   70.99    3.80
   3  -3 -12   67.59    3.80
   3  -3 -12   69.79    3.60
   2  -3 -12  109.49    5.10
   2  -3 -12  101.99    5.20
   2  -3 -12  102.99    5.30
   2  -3 -12  102.09    5.20
  -2   3  12  101.79    5.00
  -2   3  12   86.99    4.60
   1  -3 -12    1.60    0.90
   1  -3 -12    1.30    1.20
   1  -3 -12    2.10    1.20
  -1   3  12   -0.70    2.00
  -1   3  12    2.90    2.20
  -1   3  12    2.00    1.20
   0  -3 -12  142.39    6.70
   0  -3 -12  140.09    7.00
   0  -3 -12  154.58    7.00
   0  -3 -12  148.19    6.90
   0   3  12  141.09    6.30
   0   3  12  139.29    6.50
   0   3  12  152.08    6.40
   0   3  12  140.49    7.10
  -1  -3 -12  116.29    5.70
  -1  -3 -12  116.89    5.80
  -1  -3 -12  122.59    6.10
  -1  -3 -12  117.59    5.60
   1   3  12  123.19    6.40
   1   3  12  124.69    5.60
   1   3  12  123.19    5.50
   1   3  12  114.79    5.60
  -2  -3 -12  104.19    5.00
  -2  -3 -12  106.29    5.00
  -2  -3 -12   98.79    5.20
  -2  -3 -12  101.59    4.90
   2   3  12  109.79    5.20
   2   3  12  107.59    5.10
   2   3  12  106.39    5.20
  -3  -3 -12  157.68    6.80
  -3  -3 -12  156.98    6.80
   3   3  12  169.98    7.00
   3   3  12  167.68    7.20
   3  -4 -12   17.90    2.00
   3  -4 -12   20.50    2.10
   3  -4 -12   22.40    3.30
   2  -4 -12   99.99    4.90
   2  -4 -12   85.69    4.40
   2  -4 -12   86.19    4.80
   2  -4 -12   90.99    4.70
   1  -4 -12   49.00    3.30
   1  -4 -12   50.29    3.20
   1  -4 -12   47.70    3.30
   1  -4 -12   54.09    3.20
  -1   4  12   48.90    3.90
  -1   4  12   49.80    3.30
   0  -4 -12   26.20    2.30
   0  -4 -12   20.70    2.50
   0  -4 -12   29.80    2.70
   0  -4 -12   28.20    2.50
   0   4  12   29.50    3.90
   0   4  12   29.80    2.40
   0   4  12   27.70    2.60
  -1  -4 -12  150.38    7.20
  -1  -4 -12  154.78    7.10
  -1  -4 -12  155.58    7.00
  -1  -4 -12  151.58    7.30
   1   4  12  159.98    7.00
   1   4  12  152.98    6.80
   1   4  12  152.28    6.80
  -2  -4 -12   10.60    2.30
  -2  -4 -12   15.40    1.90
  -2  -4 -12   13.10    1.80
   2   4  12   11.10    2.00
   2   4  12   10.00    1.80
  -3  -4 -12   57.19    3.30
  -3  -4 -12   61.49    3.20
  -3  -4 -12   58.59    3.30
   3   4  12   66.69    3.30
   3   4  12   63.19    3.40
   3  -5 -12   74.09    4.70
   3  -5 -12   93.79    4.20
   3  -5 -12   85.39    4.20
   2  -5 -12   14.20    1.70
   2  -5 -12   12.80    2.00
   2  -5 -12   13.20    2.30
   2  -5 -12    9.60    1.80
   1  -5 -12   79.39    4.20
   1  -5 -12   76.89    4.10
   1  -5 -12   82.89    4.50
   1  -5 -12   72.59    4.20
   0  -5 -12   14.50    1.80
   0  -5 -12   15.00    2.10
   0  -5 -12   10.60    2.20
   0  -5 -12   15.70    2.30
   0   5  12   16.40    2.30
   0   5  12   17.50    3.00
  -1  -5 -12   16.80    2.40
  -1  -5 -12   17.20    2.00
  -1  -5 -12   15.20    2.20
   1   5  12   18.40    2.10
   1   5  12   23.80    3.10
   1   5  12   20.40    2.40
  -2  -5 -12   48.70    3.00
  -2  -5 -12   49.10    3.10
  -2  -5 -12   44.30    3.20
   2   5  12   50.49    3.00
   2   5  12   50.09    3.00
   2   5  12   49.90    3.20
  -3  -5 -12    6.10    1.20
  -3  -5 -12    5.90    1.70
  -3  -5 -12    9.50    1.70
   3   5  12    3.40    1.10
   3   5  12    4.80    1.00
   3   5  12    5.30    2.10
   2  -6 -12   37.10    2.90
   2  -6 -12   34.50    2.60
   2  -6 -12   27.40    3.50
   1  -6 -12   51.19    3.30
   1  -6 -12   46.70    3.20
   1  -6 -12   47.50    3.10
   1  -6 -12   48.30    3.00
   0  -6 -12   61.19    3.50
   0  -6 -12   53.89    3.30
   0  -6 -12   54.79    3.50
   0  -6 -12   51.59    3.60
  -1  -6 -12  250.07   10.50
  -1  -6 -12  246.48   10.60
  -1  -6 -12  251.07   10.60
  -1  -6 -12  236.08   10.50
   1   6  12  223.98    9.80
   1   6  12  249.28   10.00
  -2  -6 -12  177.58    8.30
  -2  -6 -12  192.58    8.30
   2   6  12  187.68    7.90
   2   6  12  189.58    8.00
   2   6  12  191.48    8.20
   2   6  12  171.58    7.90
  -3  -6 -12  121.29    5.60
  -3  -6 -12  132.69    6.70
  -3  -6 -12  113.59    5.40
   3   6  12  115.29    5.80
   3   6  12  125.79    5.40
   3   6  12  123.49    5.30
   1  -7 -12  108.99    6.10
   1  -7 -12  118.89    5.70
   1  -7 -12  115.89    5.50
   0  -7 -12  120.49    5.60
   0  -7 -12  124.19    5.90
   0  -7 -12  119.69    5.70
  -1  -7 -12   38.80    2.80
  -1  -7 -12   39.20    2.70
  -1  -7 -12   40.70    2.70
   1   7  12   43.70    4.00
  -2  -7 -12  127.19    5.90
  -2  -7 -12  121.19    5.70
  -2  -7 -12  124.09    5.70
   2   7  12  126.69    5.60
   2   7  12  120.99    5.80
  -3  -7 -12   -0.20    0.80
  -3  -7 -12    0.70    1.40
  -3  -7 -12   -0.90    1.10
   3   7  12    0.50    0.90
   3   7  12    0.30    1.00
   0  -8 -12   99.39    4.50
   0  -8 -12   84.99    4.50
  -1  -8 -12  102.89    5.30
  -1  -8 -12  109.29    5.10
  -1  -8 -12  110.49    5.00
  -2  -8 -12  156.88    7.00
  -2  -8 -12  164.78    7.00
   1  -3 -13   88.69    4.20
   1  -3 -13   93.89    4.30
   1  -3 -13   88.49    4.50
   1  -3 -13   83.19    4.40
  -1   3  13   82.39    4.40
  -1   3  13   84.19    4.20
   0  -3 -13   92.19    4.70
   0  -3 -13   96.09    4.60
   0  -3 -13   95.59    4.50
   0  -3 -13   97.39    4.60
   0   3  13  106.69    4.80
   0   3  13  102.89    4.80
  -1  -3 -13   78.59    4.00
  -1  -3 -13   81.09    3.90
  -1  -3 -13   80.59    3.90
   1   3  13   86.09    3.90
   1   3  13   84.89    4.10
   1  -4 -13   96.59    4.50
   1  -4 -13   92.19    4.60
   1  -4 -13   91.99    4.50
   1  -4 -13   92.49    4.60
   0  -4 -13   49.00    3.10
   0  -4 -13   57.29    3.00
   0  -4 -13   50.29    2.90
   0  -4 -13   52.09    3.10
   0   4  13   49.00    3.50
   0   4  13   48.90    3.10
  -1  -4 -13  154.28    6.70
  -1  -4 -13  156.68    7.00
  -1  -4 -13  155.68    6.70
   1   4  13  171.28    7.10
   1   4  13  163.48    7.00
   1  -5 -13   68.59    3.50
   1  -5 -13   65.29    3.70
   1  -5 -13   67.99    3.60
   1  -5 -13   65.99    3.50
   0  -5 -13   10.70    1.90
   0  -5 -13    7.20    1.40
   0  -5 -13   10.40    1.90
   0  -5 -13   10.80    1.70
  -1  -5 -13   68.49    3.50
  -1  -5 -13   68.09    3.70
  -1  -5 -13   65.29    3.40
   1   5  13   69.39    3.70
   1   5  13   65.59    3.70
   0  -6 -13   14.10    1.60
   0  -6 -13   17.50    2.10
   0  -6 -13   12.60    1.70
  -1  -6 -13  109.99    5.00
  -1  -6 -13  111.59    5.10
  -1  -6 -13  114.99    5.20

_computing_structure_solution     'SHELXT 2014/4 (Sheldrick, 2014)'
;
_shelx_hkl_checksum              16281
_olex2_exptl_crystal_mounting_method
'the crystal was mounted on a loop with spindle axis of -1 2 3'
_olex2_submission_original_sample_id (+)-lycoricidine
_olex2_submission_special_instructions 'No special instructions were received'
loop_
_space_group_symop_operation_xyz
'x, y, z'
loop_
_atom_site_label
_atom_site_type_symbol
_atom_site_fract_x
_atom_site_fract_y
_atom_site_fract_z
_atom_site_U_iso_or_equiv
_atom_site_adp_type
_atom_site_occupancy
_atom_site_site_symmetry_order
_atom_site_calc_flag
_atom_site_refinement_flags_posn
O1 O 0.6829(3) 0.2231(2) 1.09844(18) 0.0181(4) Uani 1 1 d .
O2 O 0.4339(2) 0.6797(2) 0.45791(18) 0.0136(4) Uani 1 1 d .
H2A H 0.385(5) 0.626(4) 0.529(4) 0.020 Uiso 1 1 d R
O3 O 0.9421(3) 0.4752(2) 0.50664(18) 0.0150(4) Uani 1 1 d .
H3 H 0.991(5) 0.392(5) 0.493(4) 0.023 Uiso 1 1 d R
O4 O 0.8060(2) 0.1972(2) 0.67585(18) 0.0129(4) Uani 1 1 d .
H4 H 0.734(5) 0.163(4) 0.637(4) 0.019 Uiso 1 1 d R
O5 O 0.7327(3) 0.7146(2) 1.18912(18) 0.0231(5) Uani 1 1 d .
O6 O 0.7446(3) 0.9180(2) 0.98706(19) 0.0208(4) Uani 1 1 d .
O7 O 0.2422(3) 0.3365(2) -0.09841(17) 0.0167(4) Uani 1 1 d .
O8 O 0.5765(3) 0.1060(2) 0.54369(18) 0.0140(4) Uani 1 1 d .
H8 H 0.632(5) 0.096(4) 0.482(4) 0.023(9) Uiso 1 1 d .
O9 O 0.0585(3) 0.1674(2) 0.49453(19) 0.0168(4) Uani 1 1 d .
H9 H 0.035(6) 0.123(5) 0.582(4) 0.031(9) Uiso 1 1 d .
O10 O 0.1708(3) -0.0293(2) 0.34282(17) 0.0137(4) Uani 1 1 d .
H10 H 0.256(7) -0.130(6) 0.380(5) 0.046(12) Uiso 1 1 d .
O11 O 0.2313(3) 0.9249(2) -0.18895(18) 0.0202(4) Uani 1 1 d .
O12 O 0.2555(3) 0.9436(2) 0.01470(18) 0.0210(4) Uani 1 1 d .
O13 O 0.2307(3) 0.5212(3) 0.6384(2) 0.0215(4) Uani 1 1 d .
H H 0.134(6) 0.515(5) 0.600(4) 0.032 Uiso 1 1 d R
HA H 0.231(6) 0.471(5) 0.720(5) 0.032 Uiso 1 1 d R
O14 O 0.7663(3) 0.0337(2) 0.35948(19) 0.0168(4) Uani 1 1 d .
HB H 0.892(6) 0.014(4) 0.365(4) 0.025 Uiso 1 1 d R
HC H 0.735(5) 0.093(5) 0.281(4) 0.025 Uiso 1 1 d R
N1 N 0.7413(3) 0.2908(3) 0.8863(2) 0.0142(4) Uani 1 1 d .
H1 H 0.747(5) 0.189(5) 0.893(4) 0.021 Uiso 1 1 d R
N2 N 0.2182(3) 0.2315(3) 0.1200(2) 0.0134(4) Uani 1 1 d .
H2 H 0.203(5) 0.143(5) 0.112(3) 0.020 Uiso 1 1 d R
C1 C 0.6546(3) 0.6856(3) 0.6199(2) 0.0115(5) Uani 1 1 d .
H1A H 0.6185 0.7948 0.6106 0.014 Uiso 1 1 calc R
C2 C 0.6341(3) 0.6522(3) 0.4978(2) 0.0115(5) Uani 1 1 d .
H2B H 0.6868 0.7293 0.4249 0.014 Uiso 1 1 calc R
C3 C 0.7439(3) 0.4807(3) 0.5169(2) 0.0113(5) Uani 1 1 d .
H3A H 0.6948 0.4540 0.4455 0.014 Uiso 1 1 calc R
C4 C 0.7128(3) 0.3620(3) 0.6511(2) 0.0111(5) Uani 1 1 d .
H4A H 0.5719 0.3746 0.6558 0.013 Uiso 1 1 calc R
C5 C 0.7916(3) 0.3970(3) 0.7613(2) 0.0113(5) Uani 1 1 d .
H5 H 0.9346 0.3690 0.7639 0.014 Uiso 1 1 calc R
C6 C 0.7279(3) 0.4845(3) 0.9837(2) 0.0116(5) Uani 1 1 d .
C7 C 0.7257(4) 0.5106(3) 1.1013(2) 0.0130(5) Uani 1 1 d .
H7 H 0.7197 0.4285 1.1842 0.016 Uiso 1 1 calc R
C8 C 0.7327(4) 0.6602(3) 1.0902(2) 0.0142(5) Uani 1 1 d .
C9 C 0.7392(4) 0.7814(3) 0.9687(3) 0.0135(5) Uani 1 1 d .
C10 C 0.7370(4) 0.7601(3) 0.8524(2) 0.0134(5) Uani 1 1 d .
H10A H 0.7392 0.8449 0.7702 0.016 Uiso 1 1 calc R
C11 C 0.7314(3) 0.6068(3) 0.8600(2) 0.0108(5) Uani 1 1 d .
C12 C 0.7202(3) 0.5717(3) 0.7405(2) 0.0110(5) Uani 1 1 d .
C13 C 0.7162(4) 0.3231(3) 0.9944(2) 0.0126(5) Uani 1 1 d .
C14 C 0.7384(4) 0.8798(3) 1.1270(3) 0.0192(6) Uani 1 1 d .
H14A H 0.8535 0.8945 1.1641 0.023 Uiso 1 1 calc R
H14B H 0.6231 0.9517 1.1423 0.023 Uiso 1 1 calc R
C15 C 0.3554(4) 0.3465(3) 0.3797(2) 0.0135(5) Uani 1 1 d .
H15 H 0.4024 0.4310 0.3844 0.016 Uiso 1 1 calc R
C16 C 0.3788(4) 0.1964(3) 0.5042(2) 0.0125(5) Uani 1 1 d .
H16 H 0.3325 0.2321 0.5764 0.015 Uiso 1 1 calc R
C17 C 0.2546(4) 0.0909(3) 0.4911(2) 0.0126(5) Uani 1 1 d .
H17 H 0.2951 -0.0185 0.5645 0.015 Uiso 1 1 calc R
C18 C 0.2719(3) 0.0770(3) 0.3577(2) 0.0108(5) Uani 1 1 d .
H18 H 0.4105 0.0373 0.3478 0.013 Uiso 1 1 calc R
C19 C 0.1881(3) 0.2425(3) 0.2476(2) 0.0116(5) Uani 1 1 d .
H19 H 0.0467 0.2749 0.2528 0.014 Uiso 1 1 calc R
C20 C 0.2355(3) 0.5069(3) 0.0184(2) 0.0119(5) Uani 1 1 d .
C21 C 0.2271(4) 0.6412(3) -0.1003(3) 0.0133(5) Uani 1 1 d .
H21 H 0.2154 0.6354 -0.1842 0.016 Uiso 1 1 calc R
C22 C 0.2366(4) 0.7793(3) -0.0889(2) 0.0142(5) Uani 1 1 d .
C23 C 0.2506(4) 0.7908(3) 0.0329(3) 0.0143(5) Uani 1 1 d .
C24 C 0.2582(4) 0.6626(3) 0.1502(3) 0.0138(5) Uani 1 1 d .
H24 H 0.2668 0.6720 0.2329 0.017 Uiso 1 1 calc R
C25 C 0.2525(3) 0.5157(3) 0.1423(2) 0.0117(5) Uani 1 1 d .
C26 C 0.2722(3) 0.3679(3) 0.2629(3) 0.0120(5) Uani 1 1 d .
C27 C 0.2325(3) 0.3530(3) 0.0082(2) 0.0123(5) Uani 1 1 d .
C28 C 0.2483(4) 1.0312(3) -0.1261(3) 0.0182(6) Uani 1 1 d .
H28A H 0.1367 1.1277 -0.1572 0.022 Uiso 1 1 calc R
H28B H 0.3665 1.0669 -0.1478 0.022 Uiso 1 1 calc R
loop_
_atom_site_aniso_label
_atom_site_aniso_U_11
_atom_site_aniso_U_22
_atom_site_aniso_U_33
_atom_site_aniso_U_23
_atom_site_aniso_U_13
_atom_site_aniso_U_12
O1 0.0290(10) 0.0134(8) 0.0125(9) -0.0043(7) 0.0044(8) -0.0081(8)
O2 0.0126(8) 0.0124(8) 0.0129(8) -0.0030(7) -0.0004(7) -0.0017(6)
O3 0.0130(8) 0.0168(9) 0.0171(9) -0.0085(7) 0.0032(7) -0.0042(7)
O4 0.0148(8) 0.0094(8) 0.0155(8) -0.0064(7) 0.0000(7) -0.0025(7)
O5 0.0455(12) 0.0147(9) 0.0125(9) -0.0081(8) 0.0051(8) -0.0097(9)
O6 0.0388(12) 0.0140(9) 0.0135(9) -0.0077(7) 0.0050(8) -0.0101(8)
O7 0.0269(10) 0.0136(9) 0.0112(9) -0.0056(7) 0.0006(7) -0.0070(7)
O8 0.0135(9) 0.0151(8) 0.0129(8) -0.0067(7) 0.0001(7) -0.0013(7)
O9 0.0147(9) 0.0207(9) 0.0174(9) -0.0098(7) 0.0067(7) -0.0054(7)
O10 0.0155(8) 0.0102(8) 0.0165(8) -0.0056(7) 0.0008(7) -0.0046(7)
O11 0.0377(11) 0.0089(8) 0.0141(9) -0.0035(7) 0.0022(8) -0.0083(8)
O12 0.0416(12) 0.0097(9) 0.0133(9) -0.0045(7) 0.0036(8) -0.0096(8)
O13 0.0207(10) 0.0331(11) 0.0127(9) -0.0064(8) 0.0019(8) -0.0150(9)
O14 0.0136(9) 0.0224(9) 0.0132(9) -0.0063(8) 0.0020(7) -0.0038(7)
N1 0.0217(11) 0.0106(10) 0.0111(10) -0.0040(8) 0.0030(8) -0.0061(8)
N2 0.0208(11) 0.0107(10) 0.0117(11) -0.0058(8) 0.0016(8) -0.0069(8)
C1 0.0129(11) 0.0094(11) 0.0134(11) -0.0054(9) 0.0036(9) -0.0032(9)
C2 0.0116(11) 0.0117(11) 0.0105(11) -0.0038(9) 0.0018(9) -0.0025(9)
C3 0.0107(11) 0.0134(11) 0.0123(11) -0.0077(10) 0.0014(9) -0.0029(9)
C4 0.0117(11) 0.0102(11) 0.0119(11) -0.0056(10) 0.0016(9) -0.0019(9)
C5 0.0139(11) 0.0106(11) 0.0092(11) -0.0036(9) 0.0017(9) -0.0034(9)
C6 0.0110(11) 0.0119(12) 0.0108(11) -0.0040(9) 0.0011(9) -0.0020(9)
C7 0.0143(12) 0.0135(11) 0.0106(12) -0.0039(10) 0.0016(9) -0.0039(9)
C8 0.0177(12) 0.0152(12) 0.0103(11) -0.0066(10) 0.0024(9) -0.0031(10)
C9 0.0157(11) 0.0103(12) 0.0149(12) -0.0055(10) 0.0019(10) -0.0034(9)
C10 0.0154(12) 0.0136(12) 0.0101(11) -0.0034(10) 0.0019(9) -0.0036(10)
C11 0.0085(11) 0.0124(11) 0.0108(11) -0.0041(10) 0.0010(9) -0.0021(9)
C12 0.0097(11) 0.0118(12) 0.0126(12) -0.0057(10) 0.0036(9) -0.0035(9)
C13 0.0121(11) 0.0126(12) 0.0119(12) -0.0038(10) 0.0002(9) -0.0032(9)
C14 0.0313(15) 0.0154(12) 0.0132(12) -0.0078(10) 0.0027(11) -0.0070(11)
C15 0.0155(12) 0.0113(11) 0.0146(12) -0.0056(10) 0.0013(9) -0.0044(9)
C16 0.0135(11) 0.0127(11) 0.0117(11) -0.0065(10) 0.0017(9) -0.0018(9)
C17 0.0132(12) 0.0118(11) 0.0124(12) -0.0047(9) 0.0018(9) -0.0027(9)
C18 0.0104(11) 0.0093(11) 0.0132(11) -0.0042(9) 0.0013(9) -0.0037(9)
C19 0.0117(11) 0.0122(11) 0.0114(11) -0.0053(9) 0.0020(9) -0.0032(9)
C20 0.0121(11) 0.0112(12) 0.0127(12) -0.0048(10) 0.0008(9) -0.0035(9)
C21 0.0161(12) 0.0113(12) 0.0122(11) -0.0046(10) 0.0007(9) -0.0035(9)
C22 0.0156(12) 0.0118(12) 0.0126(12) -0.0028(10) 0.0013(10) -0.0025(10)
C23 0.0158(12) 0.0113(12) 0.0182(13) -0.0084(10) 0.0016(10) -0.0035(9)
C24 0.0167(12) 0.0144(12) 0.0123(12) -0.0072(10) 0.0018(9) -0.0044(10)
C25 0.0094(11) 0.0128(12) 0.0127(12) -0.0052(10) 0.0012(9) -0.0024(9)
C26 0.0095(11) 0.0124(12) 0.0146(12) -0.0062(10) 0.0035(9) -0.0023(9)
C27 0.0121(11) 0.0121(11) 0.0129(11) -0.0049(9) -0.0004(9) -0.0033(9)
C28 0.0298(14) 0.0105(12) 0.0142(12) -0.0044(10) 0.0003(10) -0.0059(10)
loop_
_atom_type_symbol
_atom_type_description
_atom_type_scat_dispersion_real
_atom_type_scat_dispersion_imag
_atom_type_scat_source
C C 0.0181 0.0091 'International Tables Vol C Tables 4.2.6.8 and 6.1.1.4'
H H 0.0000 0.0000 'International Tables Vol C Tables 4.2.6.8 and 6.1.1.4'
N N 0.0311 0.0180 'International Tables Vol C Tables 4.2.6.8 and 6.1.1.4'
O O 0.0492 0.0322 'International Tables Vol C Tables 4.2.6.8 and 6.1.1.4'
loop_
_geom_angle_atom_site_label_1
_geom_angle_atom_site_label_2
_geom_angle_atom_site_label_3
_geom_angle
C2 O2 H2A 106(2)
C3 O3 H3 105(2)
C4 O4 H4 108(2)
C8 O5 C14 106.3(2)
C9 O6 C14 106.45(19)
C16 O8 H8 112(2)
C17 O9 H9 106(2)
C18 O10 H10 105(3)
C22 O11 C28 106.3(2)
C23 O12 C28 106.29(19)
H O13 HA 108(4)
HB O14 HC 102(3)
C5 N1 H1 116(2)
C13 N1 H1 118(2)
C13 N1 C5 125.3(2)
C19 N2 H2 117(2)
C27 N2 H2 117(2)
C27 N2 C19 125.3(2)
C2 C1 H1A 117.8
C12 C1 H1A 117.8
C12 C1 C2 124.3(2)
O2 C2 C1 110.25(19)
O2 C2 H2B 108.1
O2 C2 C3 109.41(18)
C1 C2 H2B 108.1
C1 C2 C3 112.73(19)
C3 C2 H2B 108.1
O3 C3 C2 108.12(19)
O3 C3 H3A 109.2
O3 C3 C4 111.64(19)
C2 C3 H3A 109.2
C4 C3 C2 109.5(2)
C4 C3 H3A 109.2
O4 C4 C3 113.4(2)
O4 C4 H4A 108.8
O4 C4 C5 106.75(18)
C3 C4 H4A 108.8
C5 C4 C3 110.15(19)
C5 C4 H4A 108.8
N1 C5 C4 107.85(19)
N1 C5 H5 108.2
N1 C5 C12 111.7(2)
C4 C5 H5 108.2
C12 C5 C4 112.51(19)
C12 C5 H5 108.2
C7 C6 C11 122.1(2)
C7 C6 C13 117.0(2)
C11 C6 C13 120.9(2)
C6 C7 H7 121.7
C8 C7 C6 116.6(2)
C8 C7 H7 121.7
O5 C8 C7 127.6(2)
O5 C8 C9 110.5(2)
C7 C8 C9 121.9(2)
O6 C9 C8 109.3(2)
C10 C9 O6 128.0(2)
C10 C9 C8 122.7(2)
C9 C10 H10A 121.5
C9 C10 C11 117.0(2)
C11 C10 H10A 121.5
C6 C11 C10 119.7(2)
C6 C11 C12 118.3(2)
C10 C11 C12 121.9(2)
C1 C12 C5 120.8(2)
C1 C12 C11 123.4(2)
C11 C12 C5 115.8(2)
O1 C13 N1 121.2(2)
O1 C13 C6 121.7(2)
N1 C13 C6 117.2(2)
O5 C14 O6 107.4(2)
O5 C14 H14A 110.2
O5 C14 H14B 110.2
O6 C14 H14A 110.2
O6 C14 H14B 110.2
H14A C14 H14B 108.5
C16 C15 H15 118.0
C26 C15 H15 118.0
C26 C15 C16 123.9(2)
O8 C16 C15 111.9(2)
O8 C16 H16 107.2
O8 C16 C17 111.36(19)
C15 C16 H16 107.2
C15 C16 C17 111.8(2)
C17 C16 H16 107.2
O9 C17 C16 108.79(19)
O9 C17 H17 110.2
O9 C17 C18 107.52(19)
C16 C17 H17 110.2
C18 C17 C16 109.73(19)
C18 C17 H17 110.2
O10 C18 C17 112.65(19)
O10 C18 H18 109.1
O10 C18 C19 107.54(19)
C17 C18 H18 109.1
C19 C18 C17 109.2(2)
C19 C18 H18 109.1
N2 C19 C18 109.2(2)
N2 C19 H19 108.1
N2 C19 C26 111.6(2)
C18 C19 H19 108.1
C26 C19 C18 111.6(2)
C26 C19 H19 108.1
C21 C20 C27 117.6(2)
C25 C20 C21 121.5(2)
C25 C20 C27 120.8(2)
C20 C21 H21 121.6
C22 C21 C20 116.8(2)
C22 C21 H21 121.6
O11 C22 C23 109.9(2)
C21 C22 O11 127.6(2)
C21 C22 C23 122.4(2)
O12 C23 C22 109.9(2)
O12 C23 C24 127.9(2)
C24 C23 C22 122.2(2)
C23 C24 H24 121.5
C23 C24 C25 116.9(2)
C25 C24 H24 121.5
C20 C25 C24 120.1(2)
C20 C25 C26 118.7(2)
C24 C25 C26 121.1(2)
C15 C26 C19 121.6(2)
C15 C26 C25 122.8(2)
C25 C26 C19 115.6(2)
O7 C27 N2 121.0(2)
O7 C27 C20 122.0(2)
N2 C27 C20 117.1(2)
O11 C28 O12 107.7(2)
O11 C28 H28A 110.2
O11 C28 H28B 110.2
O12 C28 H28A 110.2
O12 C28 H28B 110.2
H28A C28 H28B 108.5
loop_
_geom_bond_atom_site_label_1
_geom_bond_atom_site_label_2
_geom_bond_distance
O1 C13 1.238(3)
O2 H2A 0.88(4)
O2 C2 1.445(3)
O3 H3 0.84(4)
O3 C3 1.429(3)
O4 H4 0.86(4)
O4 C4 1.433(3)
O5 C8 1.365(3)
O5 C14 1.438(3)
O6 C9 1.373(3)
O6 C14 1.445(3)
O7 C27 1.240(3)
O8 H8 0.82(4)
O8 C16 1.437(3)
O9 H9 0.93(4)
O9 C17 1.428(3)
O10 H10 0.92(5)
O10 C18 1.424(3)
O11 C22 1.374(3)
O11 C28 1.435(3)
O12 C23 1.369(3)
O12 C28 1.442(3)
O13 H 0.85(4)
O13 HA 0.84(5)
O14 HB 0.88(4)
O14 HC 0.82(4)
N1 H1 0.91(4)
N1 C5 1.463(3)
N1 C13 1.335(3)
N2 H2 0.89(4)
N2 C19 1.458(3)
N2 C27 1.341(3)
C1 H1A 0.9500
C1 C2 1.505(3)
C1 C12 1.337(3)
C2 H2B 1.0000
C2 C3 1.530(3)
C3 H3A 1.0000
C3 C4 1.526(3)
C4 H4A 1.0000
C4 C5 1.516(3)
C5 H5 1.0000
C5 C12 1.506(3)
C6 C7 1.404(3)
C6 C11 1.408(3)
C6 C13 1.487(3)
C7 H7 0.9500
C7 C8 1.367(4)
C8 C9 1.392(4)
C9 C10 1.369(4)
C10 H10A 0.9500
C10 C11 1.411(3)
C11 C12 1.477(3)
C14 H14A 0.9900
C14 H14B 0.9900
C15 H15 0.9500
C15 C16 1.510(3)
C15 C26 1.343(4)
C16 H16 1.0000
C16 C17 1.532(3)
C17 H17 1.0000
C17 C18 1.524(3)
C18 H18 1.0000
C18 C19 1.523(3)
C19 H19 1.0000
C19 C26 1.507(3)
C20 C21 1.410(3)
C20 C25 1.404(3)
C20 C27 1.486(3)
C21 H21 0.9500
C21 C22 1.358(4)
C22 C23 1.390(4)
C23 C24 1.373(4)
C24 H24 0.9500
C24 C25 1.415(3)
C25 C26 1.478(3)
C28 H28A 0.9900
C28 H28B 0.9900
loop_
_geom_hbond_atom_site_label_D
_geom_hbond_atom_site_label_H
_geom_hbond_atom_site_label_A
_geom_hbond_distance_DH
_geom_hbond_distance_HA
_geom_hbond_distance_DA
_geom_hbond_angle_DHA
_geom_hbond_site_symmetry_A
O2 H2A O13 0.88(4) 1.82(4) 2.668(3) 163(3) .
O3 H3 O9 0.84(4) 2.01(4) 2.836(3) 164(3) 1_655
O4 H4 O8 0.86(4) 1.83(4) 2.693(2) 175(3) .
O8 H8 O14 0.82(4) 1.84(4) 2.650(3) 170(4) .
O9 H9 O4 0.93(4) 2.06(4) 2.748(3) 130(3) 1_455
O9 H9 O11 0.93(4) 2.63(4) 3.374(3) 138(3) 1_546
O10 H10 O2 0.92(5) 1.80(5) 2.718(2) 175(4) 1_545
O13 H O3 0.85(4) 1.91(4) 2.754(3) 171(4) 1_455
O13 HA O7 0.84(5) 1.90(5) 2.734(3) 174(4) 1_556
O14 HB O10 0.88(4) 1.99(4) 2.859(3) 169(3) 1_655
O14 HC O1 0.82(4) 1.89(4) 2.707(3) 175(4) 1_554
N1 H1 O6 0.91(4) 2.34(4) 3.212(3) 160(3) 1_545
N2 H2 O12 0.89(4) 2.44(4) 3.261(3) 154(3) 1_545
loop_
_geom_torsion_atom_site_label_1
_geom_torsion_atom_site_label_2
_geom_torsion_atom_site_label_3
_geom_torsion_atom_site_label_4
_geom_torsion
O2 C2 C3 O3 158.49(18)
O2 C2 C3 C4 -79.7(2)
O3 C3 C4 O4 -62.1(3)
O3 C3 C4 C5 57.5(3)
O4 C4 C5 N1 -62.0(2)
O4 C4 C5 C12 174.35(19)
O5 C8 C9 O6 0.3(3)
O5 C8 C9 C10 -178.8(2)
O6 C9 C10 C11 179.9(2)
O8 C16 C17 O9 161.43(19)
O8 C16 C17 C18 -81.2(2)
O9 C17 C18 O10 -66.1(2)
O9 C17 C18 C19 53.3(2)
O10 C18 C19 N2 -61.9(2)
O10 C18 C19 C26 174.2(2)
O11 C22 C23 O12 -0.3(3)
O11 C22 C23 C24 179.9(2)
O12 C23 C24 C25 -179.4(2)
N1 C5 C12 C1 -143.3(2)
N1 C5 C12 C11 37.8(3)
N2 C19 C26 C15 -143.5(2)
N2 C19 C26 C25 37.9(3)
C1 C2 C3 O3 -78.5(2)
C1 C2 C3 C4 43.4(3)
C2 C1 C12 C5 3.9(4)
C2 C1 C12 C11 -177.3(2)
C2 C3 C4 O4 178.22(19)
C2 C3 C4 C5 -62.2(2)
C3 C4 C5 N1 174.45(19)
C3 C4 C5 C12 50.8(3)
C4 C5 C12 C1 -21.8(3)
C4 C5 C12 C11 159.3(2)
C5 N1 C13 O1 -176.4(2)
C5 N1 C13 C6 4.3(4)
C6 C7 C8 O5 -179.8(2)
C6 C7 C8 C9 0.8(4)
C6 C11 C12 C1 155.2(2)
C6 C11 C12 C5 -26.0(3)
C7 C6 C11 C10 1.4(4)
C7 C6 C11 C12 -175.9(2)
C7 C6 C13 O1 8.5(4)
C7 C6 C13 N1 -172.2(2)
C7 C8 C9 O6 179.8(2)
C7 C8 C9 C10 0.7(4)
C8 O5 C14 O6 -0.8(3)
C8 C9 C10 C11 -1.2(4)
C9 O6 C14 O5 1.0(3)
C9 C10 C11 C6 0.1(4)
C9 C10 C11 C12 177.3(2)
C10 C11 C12 C1 -22.0(4)
C10 C11 C12 C5 156.8(2)
C11 C6 C7 C8 -1.8(4)
C11 C6 C13 O1 -168.5(2)
C11 C6 C13 N1 10.8(3)
C12 C1 C2 O2 107.4(3)
C12 C1 C2 C3 -15.2(3)
C13 N1 C5 C4 -152.4(2)
C13 N1 C5 C12 -28.3(3)
C13 C6 C7 C8 -178.7(2)
C13 C6 C11 C10 178.2(2)
C13 C6 C11 C12 0.9(3)
C14 O5 C8 C7 -179.1(3)
C14 O5 C8 C9 0.4(3)
C14 O6 C9 C8 -0.8(3)
C14 O6 C9 C10 178.2(3)
C15 C16 C17 O9 -72.6(2)
C15 C16 C17 C18 44.8(3)
C16 C15 C26 C19 2.0(4)
C16 C15 C26 C25 -179.5(2)
C16 C17 C18 O10 175.70(19)
C16 C17 C18 C19 -64.9(2)
C17 C18 C19 N2 175.58(19)
C17 C18 C19 C26 51.7(3)
C18 C19 C26 C15 -21.0(3)
C18 C19 C26 C25 160.4(2)
C19 N2 C27 O7 -174.0(2)
C19 N2 C27 C20 5.9(4)
C20 C21 C22 O11 -180.0(2)
C20 C21 C22 C23 -1.1(4)
C20 C25 C26 C15 155.5(2)
C20 C25 C26 C19 -25.9(3)
C21 C20 C25 C24 1.1(4)
C21 C20 C25 C26 -176.4(2)
C21 C20 C27 O7 7.3(4)
C21 C20 C27 N2 -172.5(2)
C21 C22 C23 O12 -179.3(2)
C21 C22 C23 C24 0.8(4)
C22 O11 C28 O12 -2.4(3)
C22 C23 C24 C25 0.4(4)
C23 O12 C28 O11 2.2(3)
C23 C24 C25 C20 -1.4(4)
C23 C24 C25 C26 176.1(2)
C24 C25 C26 C15 -22.0(4)
C24 C25 C26 C19 156.6(2)
C25 C20 C21 C22 0.1(4)
C25 C20 C27 O7 -170.7(2)
C25 C20 C27 N2 9.5(3)
C26 C15 C16 O8 111.5(3)
C26 C15 C16 C17 -14.2(3)
C27 N2 C19 C18 -153.2(2)
C27 N2 C19 C26 -29.4(3)
C27 C20 C21 C22 -177.8(2)
C27 C20 C25 C24 179.0(2)
C27 C20 C25 C26 1.5(3)
C28 O11 C22 C21 -179.3(3)
C28 O11 C22 C23 1.7(3)
C28 O12 C23 C22 -1.3(3)
C28 O12 C23 C24 178.6(3)
