#------------------------------------------------------------------------------
#$Date: 2019-11-26 10:29:02 +0200 (Tue, 26 Nov 2019) $
#$Revision: 243234 $
#$URL: file:///home/coder/svn-repositories/cod/cif/4/13/34/4133460.cif $
#------------------------------------------------------------------------------
#
# This file is available in the Crystallography Open Database (COD),
# http://www.crystallography.net/
#
# All data on this site have been placed in the public domain by the
# contributors.
#
data_4133460
loop_
_publ_author_name
'Baxter, Amanda F.'
'Martin, Igor'
'Christe, Karl O.'
'Haiges, Ralf'
_publ_section_title
;
 Formamidinium Nitroformate: An Insensitive RDX Alternative.
;
_journal_issue                   44
_journal_name_full               'Journal of the American Chemical Society'
_journal_page_first              15089
_journal_page_last               15098
_journal_paper_doi               10.1021/jacs.8b10200
_journal_volume                  140
_journal_year                    2018
_chemical_formula_moiety         '2(C N3 O6), C2 H10 N2'
_chemical_formula_sum            'C4 H10 N8 O12'
_chemical_formula_weight         362.20
_chemical_name_systematic        'ethylenediammonium dinitroformate'
_space_group_crystal_system      monoclinic
_space_group_IT_number           12
_space_group_name_Hall           '-C 2y'
_space_group_name_H-M_alt        'C 1 2/m 1'
_atom_sites_solution_hydrogens   mixed
_audit_creation_date             2018-04-24
_audit_creation_method
;
Olex2 1.2
(compiled 2017.08.10 svn.r3458 for OlexSys, GUI svn.r5381)
;
_cell_angle_alpha                90
_cell_angle_beta                 116.017(5)
_cell_angle_gamma                90
_cell_formula_units_Z            2
_cell_length_a                   10.023(4)
_cell_length_b                   9.240(3)
_cell_length_c                   8.250(3)
_cell_measurement_reflns_used    2642
_cell_measurement_temperature    100.(2)
_cell_measurement_theta_max      30.0851
_cell_measurement_theta_min      2.7472
_cell_volume                     686.6(4)
_computing_cell_refinement       'APEX3 v2016.5-0 (Bruker AXS, 2016)'
_computing_data_collection
'Bruker Instrument Service v2012.12.0.3 (Bruker AXS, 2012)'
_computing_data_reduction        'SAINT V8.37A (Bruker AXS, 2013)'
_computing_molecular_graphics    'Olex2 (Dolomanov et al., 2009)'
_computing_publication_material  'Olex2 (Dolomanov et al., 2009)'
_computing_structure_refinement  'ShelXL (Sheldrick, 2015)'
_computing_structure_solution    'ShelXT (Sheldrick, 2015)'
_diffrn_ambient_temperature      100.0
_diffrn_detector_area_resol_mean 8.3333
_diffrn_detector_type            'Bruker SMART CCD 1K area detector'
_diffrn_measured_fraction_theta_full 1.000
_diffrn_measured_fraction_theta_max 1.000
_diffrn_measurement_device       'three-circle diffractometer'
_diffrn_measurement_device_type  'Bruker APEX II CCD'
_diffrn_measurement_method       'omega- and phi-scans'
_diffrn_radiation_monochromator  'TRIUMPH curved-crystal'
_diffrn_radiation_type           MoK\a
_diffrn_radiation_wavelength     0.71073
_diffrn_reflns_av_R_equivalents  0.0533
_diffrn_reflns_av_unetI/netI     0.0312
_diffrn_reflns_Laue_measured_fraction_full 1.000
_diffrn_reflns_Laue_measured_fraction_max 1.000
_diffrn_reflns_limit_h_max       13
_diffrn_reflns_limit_h_min       -14
_diffrn_reflns_limit_k_max       13
_diffrn_reflns_limit_k_min       -13
_diffrn_reflns_limit_l_max       11
_diffrn_reflns_limit_l_min       -11
_diffrn_reflns_number            8579
_diffrn_reflns_point_group_measured_fraction_full 1.000
_diffrn_reflns_point_group_measured_fraction_max 1.000
_diffrn_reflns_theta_full        25.242
_diffrn_reflns_theta_max         30.538
_diffrn_reflns_theta_min         2.747
_diffrn_source                   'fine-focus tube'
_exptl_absorpt_coefficient_mu    0.174
_exptl_absorpt_correction_T_max  0.7461
_exptl_absorpt_correction_T_min  0.6618
_exptl_absorpt_correction_type   multi-scan
_exptl_absorpt_process_details   'SADABS 2016/2 (Bruker AXS, 2016)'
_exptl_crystal_colour            'clear light yellow'
_exptl_crystal_colour_lustre     clear
_exptl_crystal_colour_modifier   light
_exptl_crystal_colour_primary    yellow
_exptl_crystal_density_diffrn    1.752
_exptl_crystal_density_method    'not measured'
_exptl_crystal_description       prism
_exptl_crystal_F_000             372
_exptl_crystal_size_max          0.2
_exptl_crystal_size_mid          0.15
_exptl_crystal_size_min          0.1
_refine_diff_density_max         0.383
_refine_diff_density_min         -0.330
_refine_diff_density_rms         0.056
_refine_ls_extinction_method     none
_refine_ls_goodness_of_fit_ref   1.051
_refine_ls_hydrogen_treatment    mixed
_refine_ls_matrix_type           full
_refine_ls_number_parameters     71
_refine_ls_number_reflns         1116
_refine_ls_number_restraints     0
_refine_ls_restrained_S_all      1.051
_refine_ls_R_factor_all          0.0386
_refine_ls_R_factor_gt           0.0327
_refine_ls_shift/su_max          0.000
_refine_ls_shift/su_mean         0.000
_refine_ls_structure_factor_coef Fsqd
_refine_ls_weighting_details
'w=1/[\s^2^(Fo^2^)+(0.0390P)^2^+0.4304P] where P=(Fo^2^+2Fc^2^)/3'
_refine_ls_weighting_scheme      calc
_refine_ls_wR_factor_gt          0.0845
_refine_ls_wR_factor_ref         0.0882
_reflns_Friedel_coverage         0.000
_reflns_number_gt                967
_reflns_number_total             1116
_reflns_threshold_expression     'I > 2\s(I)'
_cod_data_source_file            Comp3.cif
_cod_data_source_block           Comp3
_cod_database_code               4133460
_shelx_shelxl_version_number     2017/1
_shelx_space_group_comment
;
The symmetry employed for this shelxl refinement is uniquely defined
by the following loop, which should always be used as a source of
symmetry information in preference to the above space-group names.
They are only intended as comments.
;
_olex2_refinement_description
;
1. Fixed Uiso
 At 1.2 times of:
  All C(H,H) groups
2. Others
 Fixed Sof: H1C(0.5) H1D(0.5)
3.a Secondary CH2 refined with riding coordinates:
 C1(H1C,H1D)
;
_shelx_res_file
;
TITL mo_AB3_248_1_0m_a.res in C2/m
    ab3_248_1.res
    created by SHELXL-2017/1 at 13:27:37 on 24-Apr-2018
REM Old TITL mo_AB3_248_1_0m in C2/m
REM SHELXT solution in C2/m
REM R1 0.093, Rweak 0.005, Alpha 0.014, Orientation as input
REM Formula found by SHELXT: C3 N3 O6
CELL 0.71073 10.0226 9.2396 8.2503 90 116.017 90
ZERR 2 0.0035 0.0033 0.0029 0 0.005 0
LATT 7
SYMM -X,+Y,-Z
SFAC C H N O
UNIT 8 20 16 24

L.S. 10
PLAN  20
TEMP -173.15
BOND $H
LIST 6
fmap 2
acta
REM <olex2.extras>
REM <HklSrc "%.\\ab3_248_1.hkl">
REM </olex2.extras>

WGHT    0.039000    0.430400
FVAR       0.61118
O1    4    0.616111    0.354282    0.928066    11.00000    0.01284    0.01811 =
         0.01645    0.00429    0.00130    0.00100
O2    4    0.430815    0.260539    0.692635    11.00000    0.02297    0.01162 =
         0.02276   -0.00170    0.00224   -0.00270
O3    4    0.320354    0.500000    0.413576    10.50000    0.02369    0.04043 =
         0.01108    0.00000    0.00690    0.00000
O4    4    0.182635    0.500000    0.555208    10.50000    0.01456    0.02667 =
         0.02138    0.00000    0.00668    0.00000
N1    3    0.598519    0.000000    0.851476    10.50000    0.01509    0.01387 =
         0.01389    0.00000    0.00637    0.00000
N2    3    0.499267    0.367693    0.786276    11.00000    0.01404    0.01302 =
         0.01405    0.00132    0.00522   -0.00039
N3    3    0.303415    0.500000    0.550900    10.50000    0.01490    0.01290 =
         0.01186    0.00000    0.00346    0.00000
C1    1    0.581783    0.000000    1.022023    10.50000    0.01191    0.01489 =
         0.01060    0.00000    0.00364    0.00000
AFIX  23
H1C   2    0.630309    0.086819    1.094128    10.50000   -1.20000
H1D   2    0.630309   -0.086819    1.094127    10.50000   -1.20000
AFIX   0

C2    1    0.435979    0.500000    0.724078    10.50000    0.01401    0.01249 =
         0.01037    0.00000    0.00180    0.00000
H1A   2    0.555286   -0.078103    0.783821    11.00000    0.02517
H1B   2    0.695876    0.000000    0.883674    10.50000    0.04359
HKLF 4




REM  mo_AB3_248_1_0m_a.res in C2/m
REM R1 =  0.0327 for     967 Fo > 4sig(Fo)  and  0.0386 for all    1116 data
REM     71 parameters refined using      0 restraints

END

WGHT      0.0390      0.4308

REM Highest difference peak  0.383,  deepest hole -0.330,  1-sigma level  0.056
Q1    1   0.4662  0.4411  0.7526  11.00000  0.05    0.38
Q2    1   0.5000  0.0000  1.0000  10.25000  0.05    0.37
Q3    1   0.3807  0.5000  0.6542  10.50000  0.05    0.29
Q4    1   0.5922  0.0000  0.9372  10.50000  0.05    0.23
Q5    1   0.3705  0.4283  0.4301  11.00000  0.05    0.18
Q6    1   0.5238  0.3536  0.9773  11.00000  0.05    0.16
Q7    1   0.4819  0.1846  0.7236  11.00000  0.05    0.16
Q8    1   0.3914  0.5000  0.7540  10.50000  0.05    0.15
Q9    1   0.1566  0.5000  0.6651  10.50000  0.05    0.15
Q10   1   0.4277  0.5000  0.3853  10.50000  0.05    0.15
Q11   1   0.3328  0.3166  0.4796  11.00000  0.05    0.14
Q12   1   0.5831  0.3157  1.0397  11.00000  0.05    0.13
Q13   1   0.6695 -0.1405  1.1435  11.00000  0.05    0.13
Q14   1   0.5917  0.3923  1.0376  11.00000  0.05    0.13
Q15   1   0.5000  0.2079  0.5000  10.50000  0.05    0.12
Q16   1   0.2177  0.5000  0.7009  10.50000  0.05    0.12
Q17   1   0.1501  0.3076  0.5362  11.00000  0.05    0.12
Q18   1   0.7893  0.0000  1.1611  10.50000  0.05    0.12
Q19   1   0.3760  0.2756  0.5800  11.00000  0.05    0.12
Q20   1   0.5306  0.2640  0.5966  11.00000  0.05    0.12
;
_shelx_res_checksum              14162
_shelx_hkl_file
;
  -2   0   0 1749.82  107.99
  -2   0   0 1804.12  107.99
   2   0   0 1598.24  108.09
  -2   0   0 1701.63  108.29
  -2   0   0 1744.53  108.29
  -2   0   0 1580.94  107.99
  -2   0   0 1673.93  108.19
   4   0   0  544.65   37.60
  -4   0   0  627.24   37.80
  -4   0   0  535.25   37.70
  -4   0   0  548.35   37.20
  -4   0   0  611.74   37.20
   4   0   0  572.04   37.40
  -4   0   0  593.44   37.20
  -6   0   0   15.00    2.10
  -6   0   0   13.30    2.40
  -6   0   0   14.70    2.60
   6   0   0   13.00    2.10
   6   0   0   14.80    2.50
  -6   0   0   15.10    1.90
  -6   0   0   15.60    1.90
  -8   0   0   64.29    5.20
  -8   0   0   62.19    6.30
  -8   0   0   72.29    7.30
   8   0   0   64.09    6.40
   8   0   0   67.99    5.80
  -8   0   0   69.19    5.20
 -10   0   0  255.17   17.20
 -10   0   0  257.77   19.30
  10   0   0  258.27   19.20
 -10   0   0  259.17   19.10
  12   0   0   33.60    6.20
 -12   0   0   44.30    6.80
 -12   0   0   40.80    6.30
  -1  -1   0  710.23   46.40
   1  -1   0  744.43   46.30
   1  -1   0  717.13   46.40
  -1  -1   0  725.53   46.40
   1  -1   0  667.83   46.30
  -1  -1   0  786.92   46.40
  -1  -1   0  810.72   46.40
  -1   1   0  761.42   46.30
  -1   1   0  672.23   46.30
  -1   1   0  704.63   46.10
   1   1   0  739.83   46.40
  -1   1   0  729.63   46.40
   1   1   0  666.93   46.30
  -1   1   0  747.93   46.40
   1   1   0  667.93   46.30
   3  -1   0   18.70    1.70
  -3  -1   0   22.20    1.90
  -3  -1   0   13.80    2.00
  -3  -1   0   22.80    2.50
  -3  -1   0   16.50    1.90
   3  -1   0   21.80    2.30
  -3  -1   0   18.60    2.00
  -3   1   0   17.00    2.20
  -3   1   0   18.90    1.80
  -3   1   0   22.20    1.80
  -3   1   0   20.10    2.00
   3   1   0   15.80    2.10
  -3   1   0   19.20    2.30
  -5  -1   0  249.68   16.60
  -5  -1   0  248.58   16.60
  -5  -1   0  261.07   17.30
  -5  -1   0  258.97   17.30
  -5  -1   0  255.87   16.80
   5  -1   0  239.28   16.90
   5   1   0  233.18   16.50
  -5   1   0  258.17   17.20
   5   1   0  235.48   17.00
  -5   1   0  259.67   16.50
  -5   1   0  244.78   17.00
  -5   1   0  248.48   17.20
  -5   1   0  246.38   16.50
   7  -1   0   62.19    5.50
  -7  -1   0   77.69    5.60
  -7  -1   0   71.29    6.50
  -7  -1   0   82.39    6.70
  -7  -1   0   72.09    5.70
   7  -1   0   67.79    6.40
   7  -1   0   68.59    6.00
  -7  -1   0   74.19    5.50
  -7   1   0   73.39    5.40
  -7   1   0   70.09    6.20
   7   1   0   64.09    5.50
  -7   1   0   67.49    6.30
  -7   1   0   71.29    5.40
   7   1   0   72.79    6.30
  -9  -1   0   17.70    3.70
  -9  -1   0   26.90    2.90
   9  -1   0   26.20    3.80
  -9  -1   0   25.50    4.50
   9  -1   0   26.90    4.30
  -9   1   0   18.80    3.50
   9   1   0   30.00    4.60
  -9   1   0   24.60    4.10
  -9   1   0   22.90    2.60
 -11  -1   0   -0.20    2.10
  11  -1   0    1.20    2.40
 -11  -1   0    2.70    1.00
 -11  -1   0    4.80    2.70
 -11   1   0    2.30    2.40
  11   1   0    3.30    2.50
   0  -2   0 1987.80  124.89
   0  -2   0 1936.81  124.89
   0  -2   0 1917.61  124.69
   0  -2   0 1984.70  124.79
   0   2   0 1938.51  124.79
   0   2   0 1925.71  124.89
   0   2   0 1991.50  124.79
  -2  -2   0 1071.39   78.19
   2  -2   0 1176.38   78.09
  -2  -2   0 1269.67   78.29
  -2  -2   0 1295.87   78.39
  -2  -2   0 1172.18   78.19
   2  -2   0 1208.48   78.29
   2   2   0 1282.57   78.29
  -2   2   0 1291.77   78.29
  -2   2   0 1332.37   77.79
  -2   2   0 1136.69   78.29
   2   2   0 1211.98   78.19
  -2   2   0 1178.58   78.09
  -2   2   0 1235.48   78.19
   2   2   0 1200.78   78.09
   4  -2   0   25.00    2.40
  -4  -2   0   29.00    3.30
  -4  -2   0   22.90    3.00
   4  -2   0   24.80    3.00
  -4  -2   0   27.10    2.60
  -4  -2   0   27.00    2.70
  -4  -2   0   20.10    2.70
  -4   2   0   26.20    2.50
  -4   2   0   23.20    2.40
  -4   2   0   29.50    2.50
  -4   2   0   25.80    3.20
   4   2   0   29.90    3.10
  -4   2   0   31.40    3.30
  -6  -2   0  195.58   13.20
  -6  -2   0  173.48   12.40
   6  -2   0  165.58   12.10
  -6  -2   0  163.68   13.10
   6  -2   0  176.58   12.90
  -6  -2   0  171.08   12.60
  -6  -2   0  183.38   12.40
   6   2   0  165.38   11.90
  -6   2   0  182.68   12.20
  -6   2   0  167.98   13.00
  -6   2   0  197.18   13.20
   6   2   0  181.48   12.90
  -6   2   0  191.68   12.30
  -6   2   0  191.28   12.70
  -8  -2   0  149.79   10.20
   8  -2   0  134.89   10.90
  -8  -2   0  135.19   11.20
  -8  -2   0  151.28   11.50
  -8   2   0  142.29   10.70
   8   2   0  135.39   11.00
  -8   2   0  132.39    9.80
  -8   2   0  140.29   11.20
 -10  -2   0   59.59    5.30
 -10  -2   0   66.29    7.90
  10  -2   0   70.39    7.90
 -10  -2   0   52.39    7.00
  10  -2   0   69.89    6.70
 -10   2   0   67.19    5.00
  10   2   0   78.69    8.10
 -10   2   0   54.29    7.00
  12  -2   0    7.20    3.60
 -12  -2   0    7.20    3.30
  12   2   0   12.30    3.80
 -12   2   0    0.60    2.30
  -1  -3   0 2638.84  150.38
   1  -3   0 2250.47  150.18
   1  -3   0 2403.26  150.18
   1  -3   0 2485.65  150.28
  -1  -3   0 2068.69  150.08
  -1  -3   0 2335.27  149.79
  -1  -3   0 2444.06  150.28
  -1   3   0 2435.76  149.59
   1   3   0 2304.77  150.08
  -1   3   0 2043.10  150.18
   1   3   0 2566.14  150.28
   1   3   0 2484.15  150.18
  -1   3   0 2100.39  150.08
  -1   3   0 2324.67  150.08
  -3  -3   0   17.10    2.60
  -3  -3   0   27.00    2.80
  -3  -3   0   17.60    2.30
   3  -3   0   20.70    2.30
   3  -3   0   19.00    2.50
  -3  -3   0   15.20    2.30
   3   3   0   19.30    2.40
  -3   3   0   22.70    2.50
  -3   3   0   18.40    1.70
  -3   3   0   19.20    2.50
   3   3   0   17.80    2.30
   3   3   0   24.20    2.70
  -3   3   0   26.00    2.80
  -3   3   0   20.90    2.40
  -5  -3   0  309.17   24.20
   5  -3   0  346.77   23.60
  -5  -3   0  385.96   24.00
  -5  -3   0  391.26   24.10
   5  -3   0  358.16   24.30
  -5  -3   0  362.36   24.00
  -5   3   0  348.57   23.60
  -5   3   0  354.96   23.70
   5   3   0  366.56   24.30
  -5   3   0  353.66   23.50
  -5   3   0  357.16   24.30
   5   3   0  347.87   24.00
  -5   3   0  353.86   24.10
  -7  -3   0   76.59    8.10
   7  -3   0   97.39    8.10
  -7  -3   0   89.69    7.60
  -7  -3   0   94.69    7.50
  -7   3   0   99.69    8.20
  -7   3   0   97.19    8.20
  -7   3   0   94.49    7.40
   7   3   0  100.99    8.00
  -7   3   0  100.99    7.20
   9  -3   0  271.17   19.80
  -9  -3   0  261.77   18.80
  -9  -3   0  295.57   20.40
  -9   3   0  273.87   20.10
   9   3   0  269.57   20.10
  -9   3   0  278.37   18.40
   9   3   0  260.17   19.80
  11  -3   0   53.29    7.80
 -11  -3   0   55.49    7.80
 -11  -3   0   57.19    5.20
  11  -3   0   59.19    7.90
  11   3   0   77.49    8.60
  11   3   0   55.39    7.70
 -11   3   0   61.39    7.60
   0  -4   0 1763.52  109.39
   0  -4   0 1668.63  109.79
   0  -4   0 1689.53  109.19
   0  -4   0 1732.13  109.69
   0   4   0 1523.45  109.59
   0   4   0 1835.12  109.59
   0   4   0 1734.33  109.49
  -2  -4   0  229.98   14.90
  -2  -4   0  215.98   15.60
  -2  -4   0  206.38   15.60
  -2  -4   0  215.88   15.60
   2  -4   0  253.07   15.60
   2  -4   0  229.48   15.70
   2  -4   0  244.98   15.70
  -2   4   0  238.18   15.50
   2   4   0  243.48   15.50
   2   4   0  204.78   15.50
  -2   4   0  233.98   15.60
   2   4   0  238.98   15.60
  -2   4   0  204.98   15.60
  -4  -4   0  104.39    8.20
   4  -4   0   90.29    7.40
  -4  -4   0   82.89    7.60
  -4  -4   0  112.69    8.10
   4  -4   0  104.69    8.10
  -4  -4   0   93.49    7.70
   4   4   0  104.89    8.00
   4   4   0   89.39    7.70
  -4   4   0  113.69    7.80
  -4   4   0  102.29    7.80
   4   4   0  105.59    7.70
  -4   4   0  104.39    6.80
  -4   4   0  114.99    8.20
  -6  -4   0  254.47   17.50
  -6  -4   0  238.18   16.60
   6  -4   0  253.97   17.20
   6  -4   0  225.98   16.20
  -6  -4   0  248.18   16.80
  -6   4   0  238.98   16.80
  -6   4   0  233.38   16.30
   6   4   0  236.88   17.00
   6   4   0  226.18   16.70
  -6   4   0  216.58   17.00
  -8  -4   0 1338.27   87.19
  -8  -4   0 1420.76   88.09
   8  -4   0 1368.66   87.79
  -8  -4   0 1393.56   86.89
   8   4   0 1338.17   87.39
  -8   4   0 1300.27   86.39
   8   4   0 1311.67   87.79
  -8   4   0 1263.97   87.69
  -8   4   0 1309.37   87.59
 -10  -4   0    8.90    3.20
  10  -4   0   15.30    3.70
 -10  -4   0    7.20    2.10
  10   4   0   12.70    3.40
 -10   4   0    9.00    1.80
  10   4   0   11.40    3.60
 -10   4   0    9.70    3.00
 -12  -4   0   14.70    2.50
 -12  -4   0    9.50    4.30
 -12   4   0   15.90    4.20
  12   4   0   21.50    4.80
  -1  -5   0   38.00    3.90
  -1  -5   0   33.80    3.20
  -1  -5   0   37.20    3.50
  -1  -5   0   33.80    4.00
   1  -5   0   38.30    3.80
   1  -5   0   33.00    4.00
   1  -5   0   40.30    3.70
   1   5   0   38.10    3.60
  -1   5   0   44.50    3.80
   1   5   0   40.40    4.00
  -1   5   0   41.40    3.70
  -1   5   0   34.90    4.10
   1   5   0   37.00    3.70
  -3  -5   0   32.70    4.30
  -3  -5   0   39.50    4.60
  -3  -5   0   48.70    4.40
   3  -5   0   47.60    4.10
   3  -5   0   49.10    4.50
   3  -5   0   42.80    4.70
  -3  -5   0   41.30    3.10
   3   5   0   44.30    4.20
  -3   5   0   45.90    4.30
   3   5   0   41.50    4.00
  -3   5   0   32.90    4.10
   3   5   0   43.40    4.20
  -3   5   0   50.49    4.30
  -3   5   0   37.20    4.20
  -5  -5   0    5.20    1.80
   5  -5   0    7.60    2.20
  -5  -5   0    9.90    2.40
  -5  -5   0    8.60    2.50
   5  -5   0    7.40    1.90
   5   5   0    8.80    2.40
  -5   5   0   11.40    2.20
   5   5   0   14.40    2.50
  -5   5   0   11.20    2.50
  -5   5   0   11.10    2.40
   7  -5   0   61.19    7.00
  -7  -5   0   76.49    6.60
  -7  -5   0   62.39    7.40
  -7  -5   0   56.49    6.00
  -7   5   0   70.39    5.90
  -7   5   0   66.39    6.40
  -7   5   0   73.49    6.80
   7   5   0   66.39    6.40
   7   5   0   73.59    6.90
  -9  -5   0   85.09    7.20
  -9  -5   0   71.79    8.90
   9  -5   0   83.89    8.10
   9   5   0   79.19    7.80
   9   5   0   83.89    9.20
  -9   5   0   77.89    8.80
  -9   5   0   81.49    6.70
  -9   5   0   73.99    8.50
 -11  -5   0   42.70    4.90
  11  -5   0   40.20    6.70
  11  -5   0   34.30    6.30
 -11  -5   0   38.60    6.50
  11   5   0   32.80    6.10
 -11   5   0   31.50    5.80
 -11   5   0   34.30    3.60
  11   5   0   34.20    6.00
   0  -6   0 1203.78   80.89
   0  -6   0 1369.96   81.49
   0  -6   0 1169.88   80.59
   0  -6   0 1260.87   81.59
   0   6   0 1255.07   81.19
   0   6   0 1246.68   81.49
   0   6   0 1280.27   81.09
   2  -6   0  123.09    9.60
   2  -6   0  128.69    9.40
  -2  -6   0  134.79    9.70
  -2  -6   0  116.49    9.20
  -2  -6   0  124.69    8.50
  -2  -6   0  124.39    9.50
   2  -6   0  110.59    9.20
   2   6   0  127.09    9.30
  -2   6   0  117.69    9.20
   2   6   0  126.39    9.60
   2   6   0  115.09    9.10
  -2   6   0  123.89    9.40
  -2   6   0  111.89    9.30
  -4  -6   0   92.99    8.40
  -4  -6   0  107.49    8.60
   4  -6   0  108.09    8.20
  -4  -6   0   98.59    8.40
   4  -6   0   96.19    8.40
  -4   6   0   94.39    8.10
  -4   6   0  113.79    8.80
   4   6   0   99.59    8.30
  -4   6   0   98.59    8.20
   4   6   0  105.49    8.10
  -6  -6   0   46.50    5.30
  -6  -6   0   38.60    5.10
   6  -6   0   39.80    4.60
   6  -6   0   47.20    5.90
  -6  -6   0   41.30    5.60
  -6   6   0   40.70    4.80
  -6   6   0   46.90    5.30
   6   6   0   47.70    5.60
   6   6   0   36.70    4.80
  -6   6   0   32.30    5.10
   8  -6   0    1.90    2.20
  -8  -6   0    0.20    1.60
  -8  -6   0   -0.30    1.90
  -8  -6   0   -1.00    1.20
   8   6   0   -0.70    2.20
   8   6   0   -2.10    1.50
  -8   6   0    0.10    1.20
  -8   6   0   -1.30    1.90
  -8   6   0   -1.40    1.50
 -10  -6   0  139.29   13.10
  10  -6   0  151.38   12.90
  10   6   0  134.29   12.90
 -10   6   0  144.29   13.00
 -10   6   0  151.98   12.80
 -10   6   0  145.39   10.90
   1  -7   0  132.49   10.50
  -1  -7   0  138.79   10.00
  -1  -7   0  146.09   10.00
  -1  -7   0  131.69   10.80
   1  -7   0  138.89   10.80
  -1  -7   0  144.89   10.80
   1  -7   0  136.29   10.30
   1   7   0  153.68   11.00
  -1   7   0  125.19   10.40
  -1   7   0  121.49   10.50
   1   7   0  137.39   10.30
  -1   7   0  124.89   10.30
   1   7   0  140.39   10.40
  -3  -7   0    0.40    1.50
  -3  -7   0   -0.90    1.50
   3  -7   0   -0.40    1.20
   3  -7   0    1.90    1.50
   3   7   0   -0.80    1.40
  -3   7   0    1.50    1.60
  -3   7   0    1.60    1.70
  -3   7   0    0.00    1.40
   3   7   0   -0.60    1.20
   5  -7   0   95.89    8.10
  -5  -7   0  104.99    8.60
   5  -7   0  101.19    8.80
  -5  -7   0   94.89    8.60
  -5  -7   0   85.49    8.40
  -5   7   0   96.59    8.30
  -5   7   0   97.99    8.60
   5   7   0   98.69    8.20
   5   7   0   84.29    8.30
  -5   7   0   93.59    8.30
  -7  -7   0  115.39   10.00
  -7  -7   0  101.99   10.20
   7  -7   0  112.59   10.40
  -7  -7   0  123.89   10.00
  -7   7   0  113.59    9.90
   7   7   0  123.79    9.90
   7   7   0  117.69   10.30
  -7   7   0  125.29    9.60
  -7   7   0  100.29   10.10
  -9  -7   0   63.89    8.50
   9  -7   0   64.89    8.20
  -9   7   0   69.89    6.40
  -9   7   0   56.19    7.60
  -9   7   0   64.49    8.10
   9   7   0   65.49    8.30
   0  -8   0 1998.10  143.19
   0  -8   0 2204.38  142.59
   0   8   0 2282.67  143.09
   0   8   0 2118.99  143.39
   0   8   0 2476.35  143.09
  -2  -8   0  121.79   10.20
   2  -8   0  113.29    9.70
  -2  -8   0  126.49   10.10
  -2  -8   0  114.39    9.30
   2  -8   0  112.09    9.50
   2   8   0  121.29    9.70
   2   8   0  127.29    9.50
  -2   8   0  120.69    9.60
  -2   8   0  120.29    9.90
  -2   8   0  105.59    9.60
   4  -8   0    8.80    2.80
  -4  -8   0   11.30    3.10
   4  -8   0   16.30    3.20
  -4  -8   0   10.30    2.90
  -4  -8   0   11.90    3.10
   4   8   0    9.40    2.80
   4   8   0    8.60    2.50
  -4   8   0   12.10    3.00
  -4   8   0   10.70    2.90
  -4   8   0   10.50    3.10
  -6  -8   0    4.60    2.40
   6  -8   0    1.50    2.30
  -6  -8   0    2.80    2.40
  -6  -8   0    3.90    2.50
   6   8   0    2.10    2.40
  -6   8   0    7.70    2.90
  -6   8   0    1.70    1.90
   6   8   0    4.50    2.30
  -6   8   0    3.30    2.10
  -8  -8   0   42.90    6.70
  -8  -8   0   35.70    5.60
   8  -8   0   45.20    6.80
  -8  -8   0   46.70    6.40
  -8   8   0   38.60    5.20
  -8   8   0   40.10    5.90
   8   8   0   45.00    6.50
  -8   8   0   45.40    6.70
 -10   8   0   77.19    9.40
   1  -9   0   10.30    3.10
  -1  -9   0   12.50    3.10
   1  -9   0   12.80    2.90
  -1   9   0   10.00    2.90
   1   9   0    9.50    2.60
  -1   9   0    9.80    2.70
   1   9   0   10.10    2.90
  -1   9   0    5.70    2.30
   3  -9   0   24.90    4.30
  -3  -9   0   21.60    4.40
  -3  -9   0   22.70    4.40
  -3  -9   0   30.00    4.40
   3  -9   0   29.50    4.70
   3   9   0   23.50    4.00
  -3   9   0   22.20    4.10
  -3   9   0   29.60    4.90
   3   9   0   24.80    4.40
  -3   9   0   15.50    3.40
  -5  -9   0   73.89    8.50
  -5  -9   0   75.49    8.60
  -5  -9   0   76.89    8.40
   5  -9   0   68.99    7.10
   5  -9   0   62.09    7.80
   5   9   0   87.19    8.90
  -5   9   0   56.59    7.60
  -5   9   0   67.79    8.00
   5   9   0   70.79    8.00
  -5   9   0   68.69    7.80
  -7  -9   0   11.10    3.60
  -7  -9   0    8.10    3.50
  -7  -9   0    9.80    3.40
   7  -9   0   16.40    4.30
  -7   9   0    5.90    3.20
   7   9   0    3.70    3.00
  -7   9   0    2.60    2.50
  -7   9   0   10.40    3.00
  -9  -9   0   20.70    5.00
  -9  -9   0   12.40    5.80
  -9  -9   0   17.90    4.30
   9  -9   0   17.20    7.50
   9   9   0   23.10    6.00
  -9   9   0    8.00    3.50
  -9   9   0   24.20    5.50
   0 -10   0    0.50    2.30
   0  10   0    1.90    2.00
   0  10   0    3.10    2.30
   2 -10   0   79.59    7.70
  -2 -10   0   64.79    8.30
   2 -10   0   71.59    8.60
  -2  10   0   80.09    8.50
  -2  10   0   74.79    8.60
   2  10   0   80.19    7.50
   2  10   0   81.09    7.70
  -2  10   0   85.09    7.90
   4 -10   0    0.00    2.30
  -4 -10   0   -2.10    2.30
  -4 -10   0    1.80    2.50
   4 -10   0    1.10    2.30
  -4 -10   0    1.50    2.50
  -4  10   0   -1.20    1.80
   4  10   0    0.40    2.10
  -4  10   0    0.20    2.30
  -4  10   0    0.30    1.90
  -6 -10   0    0.50    2.50
  -6 -10   0    3.10    2.80
   6 -10   0   -1.30    2.30
  -6 -10   0    2.50    2.80
  -6  10   0    3.90    2.90
  -6  10   0    0.30    2.30
   6  10   0    0.90    2.60
  -6  10   0    1.40    2.20
  -8 -10   0  104.59   10.50
  -8 -10   0   93.49   11.40
  -8 -10   0   90.29   10.70
   8  10   0   92.39   12.00
  -8  10   0  127.09   15.30
  -8  10   0  121.69   11.30
  -8  10   0  106.99   10.30
  -1 -11   0  234.18   18.30
   1 -11   0  233.78   18.20
   1  11   0  248.98   17.50
   1  11   0  203.78   17.30
  -1  11   0  203.28   17.20
  -1  11   0  245.48   17.80
   3 -11   0   16.60    4.20
  -3 -11   0   19.50    4.90
   3 -11   0   11.80    3.60
  -3  11   0   19.60    4.20
  -3  11   0   17.70    4.20
  -3  11   0   14.40    3.90
   3  11   0   19.40    4.40
   5 -11   0   34.90    6.30
  -5 -11   0   39.60    6.60
  -5 -11   0   44.20    6.80
  -5  11   0   31.80    5.70
   5  11   0   38.10    6.30
  -5  11   0   39.50    6.10
  -5  11   0   26.90    5.30
  -7 -11   0   16.00    4.40
  -7 -11   0   11.80    5.20
  -7 -11   0   13.80    4.40
  -7  11   0    7.70    3.30
  -7  11   0    8.70    4.30
   0 -12   0  154.78   14.20
   0  12   0  156.08   13.20
  -2 -12   0    5.70    3.30
   2 -12   0    1.90    2.70
   2  12   0   -0.60    2.50
  -2  12   0    1.40    2.30
  -2  12   0    0.60    2.50
   4 -12   0   50.49    7.50
   4 -12   0   57.59    8.10
  -4 -12   0   48.80    7.90
  -4  12   0   48.40    7.20
  -4  12   0   50.69    7.60
   4  12   0   57.59    7.80
  -4  12   0   68.79    8.80
   1 -13   0   26.40    6.20
   1  13   0   21.40    4.80
  -1  13   0   17.60    4.40
  12   0  -1  126.89   11.60
 -12   0   1  113.79   11.20
 -12   0   1  111.59   10.80
 -12   0   1  128.59    9.20
 -10   0   1    9.10    2.90
  10   0  -1   18.00    3.60
 -10   0   1    8.90    2.00
 -10   0   1   10.00    3.00
   8   0  -1  734.93   50.19
  -8   0   1  843.92   50.99
  -8   0   1  769.82   50.09
  -8   0   1  759.72   50.79
   8   0  -1  736.03   50.79
   6   0  -1    6.50    1.50
  -6   0   1   12.70    2.40
  -6   0   1   12.50    1.40
  -6   0   1    8.00    1.60
  -6   0   1    9.90    2.00
  -6   0   1    9.00    1.60
   6   0  -1    7.50    1.80
  -4   0   1   24.90    2.50
  -4   0   1   20.50    2.50
   4   0  -1   27.60    2.90
   4   0  -1   26.40    2.40
  -4   0   1   25.90    2.00
  -4   0   1   27.20    2.90
  -4   0   1   29.10    2.90
  -2   0   1 1543.95   94.39
   2   0  -1 1462.25   94.19
  -2   0   1 1456.35   93.99
   2   0  -1 1567.64   94.29
  -2   0   1 1405.36   94.29
  -2   0   1 1584.74   94.39
   2   0  -1 1497.95   94.39
  -2   0   1 1284.47   94.19
   0   0  -1   40.00    2.50
   0   0   1   35.30    2.50
   0   0  -1   32.50    2.40
   0   0  -1   33.50    2.50
   0   0  -1   30.40    2.40
   0   0   1   34.60    2.60
   0   0  -1   32.90    2.60
  -2   0  -1 1303.47   82.29
  -2   0  -1 1309.97   82.29
  -2   0  -1 1297.07   82.29
  -2   0  -1 1220.78   82.29
  -2   0  -1 1287.17   82.39
  -4   0  -1 2163.28  146.29
  -4   0  -1 2340.07  146.09
  -4   0  -1 2290.47  146.39
  -4   0  -1 2266.17  146.19
  -4   0  -1 2350.96  146.39
   6   0   1 1042.50   68.29
  -6   0  -1 1080.69   67.99
  -6   0  -1 1004.60   68.29
  -6   0  -1 1071.49   68.39
   6   0   1 1034.30   67.89
   8   0   1  468.35   32.10
  -8   0  -1  473.25   32.30
   8   0   1  455.45   31.50
  -8   0  -1  480.35   32.30
  10   0   1  111.29   10.20
 -10   0  -1  119.19   10.40
 -10   0  -1  110.79   10.10
  12   0   1   66.09    8.60
 -12   0  -1   62.39    8.30
 -13  -1   1   10.20    6.10
 -13  -1   1    9.30    1.90
 -13  -1   1    9.40    3.70
  13  -1  -1   11.40    4.30
  13   1  -1    9.70    3.70
 -13   1   1    7.60    3.90
 -11  -1   1   24.70    4.80
  11  -1  -1   35.10    5.70
 -11  -1   1   33.80    4.00
 -11  -1   1   30.90    5.30
 -11   1   1   35.30    3.80
  11   1  -1   36.40    5.70
 -11   1   1   34.70    5.10
 -11   1   1   25.60    4.70
  -9  -1   1    1.60    1.80
  -9  -1   1   -2.40    1.50
  -9  -1   1    1.10    1.30
   9  -1  -1   -1.80    1.10
   9  -1  -1    0.90    2.00
   9   1  -1    0.20    1.80
  -9   1   1    0.30    1.50
  -9   1   1    1.30    1.70
  -9   1   1    0.50    1.10
  -7  -1   1  245.98   16.90
  -7  -1   1  219.98   16.10
  -7  -1   1  227.28   15.80
  -7  -1   1  248.38   16.90
   7  -1  -1  233.58   16.40
  -7  -1   1  240.98   16.30
   7  -1  -1  238.18   16.90
   7   1  -1  231.88   16.00
  -7   1   1  251.47   16.20
  -7   1   1  229.78   16.80
   7   1  -1  235.38   16.80
  -7   1   1  239.98   16.50
  -7   1   1  231.38   16.10
  -5  -1   1  102.79    7.90
   5  -1  -1  108.29    8.00
  -5  -1   1  118.09    8.40
  -5  -1   1   96.39    8.00
  -5  -1   1  111.49    7.60
   5  -1  -1   99.59    7.20
  -5  -1   1  109.49    7.90
   5  -1  -1  119.09    8.30
  -5   1   1  100.89    7.80
  -5   1   1  113.29    8.30
  -5   1   1  122.69    8.00
  -5   1   1  119.89    8.00
   5   1  -1  111.99    8.30
   5   1  -1  110.89    7.60
  -3  -1   1  300.57   20.60
   3  -1  -1  287.07   20.00
  -3  -1   1  312.27   20.30
   3  -1  -1  291.87   20.60
  -3  -1   1  342.57   20.70
  -3  -1   1  344.57   20.70
   3  -1  -1  293.67   20.60
  -3  -1   1  332.37   20.80
  -3   1   1  321.57   20.70
   3   1  -1  351.86   20.70
  -3   1   1  292.37   20.50
  -3   1   1  324.87   20.60
   3   1  -1  301.37   20.30
   3   1  -1  304.77   20.70
  -3   1   1  317.27   20.70
  -3   1   1  311.47   20.50
   1  -1  -1    0.80    0.60
  -1  -1   1    0.70    0.60
  -1  -1   1    0.80    0.70
  -1  -1   1    0.00    0.60
   1  -1  -1    0.60    0.60
   1  -1  -1    0.00    0.50
   1   1  -1    0.70    0.40
  -1   1   1    1.00    0.60
   1   1  -1    0.20    0.70
   1   1  -1    0.60    0.50
  -1   1   1    0.90    0.60
   1   1  -1    1.10    0.60
  -1   1   1    0.80    0.40
  -1   1   1    0.40    0.60
  -1  -1  -1  256.97   15.90
  -1  -1  -1  243.48   15.90
  -1  -1  -1  249.38   16.20
   1  -1   1  227.88   16.00
  -1  -1  -1  242.38   15.90
  -1  -1  -1  261.37   16.20
  -1   1  -1  239.78   15.90
   1   1   1  229.58   16.00
  -1   1  -1  243.88   15.90
  -1   1  -1  229.88   15.80
  -1   1  -1  227.98   15.80
  -1   1  -1  276.57   16.20
  -1   1  -1  252.67   16.10
  -3  -1  -1   34.80    3.20
  -3  -1  -1   31.50    2.40
  -3  -1  -1   27.60    2.40
  -3  -1  -1   32.70    3.00
  -3  -1  -1   29.80    3.20
  -3  -1  -1   29.90    2.70
  -3   1  -1   30.50    3.00
  -3   1  -1   34.20    3.10
   3   1   1   31.40    2.80
  -3   1  -1   31.10    2.20
  -3   1  -1   26.60    2.80
  -3   1  -1   28.70    2.20
  -3   1  -1   34.80    3.00
  -3   1  -1   30.60    2.80
   5  -1   1  149.19   11.20
  -5  -1  -1  155.68   11.50
  -5  -1  -1  157.38   10.40
  -5  -1  -1  165.78   11.50
  -5  -1  -1  157.68   10.40
  -5  -1  -1  160.58   11.10
  -5   1  -1  160.58   11.30
   5   1   1  150.88   10.80
  -5   1  -1  156.38   11.40
  -5   1  -1  164.48   11.30
   5   1   1  147.69   11.10
  -5   1  -1  145.09   10.90
  -7  -1  -1   72.99    5.30
  -7  -1  -1   74.99    5.40
  -7  -1  -1   75.89    6.90
  -7  -1  -1   80.99    7.00
   7  -1   1   75.29    6.50
  -7  -1  -1   70.29    6.30
  -7   1  -1   73.99    6.70
   7   1   1   77.39    6.70
   7   1   1   79.79    6.10
  -7   1  -1   71.69    6.60
  -9  -1  -1   66.79    7.70
   9  -1   1   65.99    6.40
   9  -1   1   56.59    7.20
  -9  -1  -1   71.79    8.10
   9   1   1   69.29    7.50
  -9   1  -1   72.59    7.80
  -9   1  -1   64.29    6.60
  11  -1   1    1.50    2.60
 -11  -1  -1    3.80    3.00
 -11  -1  -1    2.10    2.50
 -11   1  -1    5.10    2.90
  11   1   1    0.20    2.30
 -12  -2   1    9.40    2.20
 -12  -2   1    8.80    3.20
  12  -2  -1    6.00    3.20
 -12  -2   1    2.90    2.70
 -12   2   1    5.50    3.00
 -12   2   1    9.10    1.90
  12   2  -1    3.50    3.00
  10  -2  -1    9.00    2.70
 -10  -2   1    7.80    2.90
  10  -2  -1   10.50    3.10
 -10  -2   1    8.10    2.90
 -10  -2   1    8.80    2.20
 -10   2   1    7.80    1.80
 -10   2   1    6.10    2.40
 -10   2   1    8.10    2.60
  10   2  -1    8.40    2.90
   8  -2  -1   82.19    7.40
   8  -2  -1   79.69    7.00
  -8  -2   1   72.29    7.20
  -8  -2   1   81.89    7.40
  -8  -2   1   74.89    6.50
  -8   2   1   90.19    7.50
  -8   2   1   78.59    6.80
  -8   2   1   78.79    6.40
   8   2  -1   82.19    7.20
   6  -2  -1  872.61   58.39
  -6  -2   1  915.81   57.99
  -6  -2   1  965.30   58.29
  -6  -2   1  980.80   58.79
  -6  -2   1  887.91   58.59
  -6  -2   1  815.92   58.19
  -6   2   1  919.21   58.09
  -6   2   1  934.81   58.59
  -6   2   1  896.41   58.59
   6   2  -1  898.91   58.49
  -6   2   1  877.91   58.09
  -6   2   1  817.92   57.99
   6   2  -1  877.21   57.49
  -4  -2   1  195.58   13.20
  -4  -2   1  181.88   13.20
  -4  -2   1  180.78   13.00
  -4  -2   1  185.28   13.20
  -4  -2   1  188.88   12.90
   4  -2  -1  184.48   13.10
   4  -2  -1  185.38   12.40
   4   2  -1  171.48   13.10
   4   2  -1  188.78   12.40
  -4   2   1  193.08   12.80
  -4   2   1  190.88   13.10
   4   2  -1  196.48   13.10
  -4   2   1  188.68   13.00
  -4   2   1  209.58   13.30
  -4   2   1  211.88   13.10
   2  -2  -1  134.89    8.70
   2  -2  -1  120.99    8.30
  -2  -2   1  123.09    8.60
  -2  -2   1  129.49    8.70
   2  -2  -1  126.69    8.60
  -2   2   1  139.49    8.60
  -2   2   1  115.09    8.20
  -2   2   1  117.79    8.50
   2   2  -1  122.39    8.20
  -2   2   1  129.29    8.60
   2   2  -1  117.99    8.60
   2   2  -1  116.19    8.50
   2   2  -1  118.69    8.40
   0  -2  -1  327.57   20.00
   0  -2  -1  280.17   20.20
   0  -2   1  316.77   19.80
   0  -2   1  325.57   20.20
   0  -2   1  290.37   20.10
   0  -2  -1  312.17   20.10
   0   2  -1  291.87   20.10
   0   2   1  344.97   20.20
   0   2  -1  265.47   20.10
   0   2  -1  318.17   19.90
   0   2   1  316.17   19.80
   0   2  -1  293.27   20.10
   0   2   1  302.07   20.10
  -2  -2  -1 3066.39  216.88
  -2  -2  -1 2910.41  216.78
  -2  -2  -1 3350.06  216.58
  -2  -2  -1 3448.56  216.38
   2  -2   1 3361.96  216.68
   2   2   1 3265.87  216.78
  -2   2  -1 3806.52  216.48
   2   2   1 3199.88  216.48
  -2   2  -1 3534.45  216.68
  -2   2  -1 3469.25  216.88
  -2   2  -1 3601.34  216.78
  -2   2  -1 3522.15  216.38
  -2   2  -1 3576.94  216.88
  -4  -2  -1   41.60    3.70
   4  -2   1   30.60    3.10
  -4  -2  -1   33.60    2.90
  -4  -2  -1   32.40    3.00
   4  -2   1   32.70    3.70
  -4  -2  -1   33.10    2.70
  -4  -2  -1   26.70    3.60
  -4   2  -1   34.30    3.10
  -4   2  -1   33.20    2.70
  -4   2  -1   34.00    2.70
   4   2   1   37.40    3.30
  -4   2  -1   38.70    4.00
  -4   2  -1   34.10    3.60
   6  -2   1  250.87   17.80
   6  -2   1  260.67   18.30
  -6  -2  -1  284.97   17.50
  -6  -2  -1  265.17   18.60
  -6  -2  -1  270.47   18.70
  -6  -2  -1  264.07   18.10
  -6  -2  -1  234.98   17.40
  -6   2  -1  260.37   18.40
  -6   2  -1  246.48   18.40
  -6   2  -1  282.57   18.10
  -6   2  -1  272.57   17.10
  -6   2  -1  268.27   17.10
   6   2   1  258.57   18.20
   6   2   1  239.68   17.40
  -8  -2  -1    2.40    2.00
  -8  -2  -1    4.20    2.10
   8  -2   1    4.20    2.10
  -8   2  -1    3.60    1.90
   8   2   1    2.40    1.90
  -8   2  -1    5.50    2.00
  10  -2   1   67.59    8.30
 -10  -2  -1   85.79    9.40
  10   2   1   70.39    8.20
 -10   2  -1   74.69    8.40
  12  -2   1   23.00    5.30
 -12  -2  -1   26.80    5.70
  12   2   1   18.30    4.80
 -12   2  -1   18.90    4.70
  13   3  -1    6.30    3.30
  11  -3  -1    1.10    2.50
 -11  -3   1    1.20    1.50
  11  -3  -1   -2.40    1.60
 -11  -3   1   -0.70    2.00
 -11   3   1   -0.10    1.20
 -11   3   1    0.70    2.10
  11   3  -1    0.80    2.30
   9  -3  -1  146.59   12.00
   9  -3  -1  156.68   12.00
  -9  -3   1  129.89   11.80
  -9  -3   1  140.69   12.10
  -9  -3   1  166.08   11.40
   9   3  -1  156.98   12.10
  -9   3   1  150.98   12.10
  -9   3   1  135.99   10.80
  -7  -3   1   26.20    3.80
  -7  -3   1   17.40    2.90
  -7  -3   1   24.10    3.80
   7  -3  -1   18.90    3.20
  -7  -3   1   24.10    3.10
  -7   3   1   23.00    3.00
   7   3  -1   33.40    4.10
  -7   3   1   22.30    3.50
  -7   3   1   24.60    3.70
  -7   3   1   27.10    3.20
   5  -3  -1  167.08   11.50
  -5  -3   1  144.89   11.30
  -5  -3   1  160.48   11.10
   5  -3  -1  158.08   10.60
  -5  -3   1  141.69   11.40
  -5  -3   1  150.78   11.20
  -5   3   1  163.98   11.10
  -5   3   1  175.38   11.50
  -5   3   1  145.69   11.10
  -5   3   1  154.68   10.70
   5   3  -1  157.18   11.30
   5   3  -1  146.79   11.20
  -5   3   1  172.58   11.50
   3  -3  -1  966.60   64.89
   3  -3  -1 1023.90   64.59
  -3  -3   1  944.11   64.89
  -3  -3   1 1078.09   64.89
  -3  -3   1 1002.10   65.09
   3  -3  -1 1050.29   64.99
   3   3  -1  995.30   64.89
  -3   3   1 1043.40   64.39
   3   3  -1  947.91   64.99
   3   3  -1 1019.10   64.79
   3   3  -1  910.11   64.09
  -3   3   1  982.40   64.89
  -3   3   1  958.40   64.89
  -3   3   1 1086.39   65.39
  -3   3   1 1074.19   64.99
  -1  -3   1  443.76   31.50
   1  -3  -1  492.45   31.40
   1  -3  -1  497.35   31.60
  -1  -3   1  480.35   31.50
  -1  -3   1  502.55   31.20
  -1   3   1  466.95   31.20
  -1   3   1  490.65   31.60
   1   3  -1  507.95   31.60
   1   3  -1  498.75   31.20
   1   3  -1  469.65   31.40
   1   3  -1  470.95   31.20
  -1   3   1  482.55   31.10
  -1   3   1  453.15   31.40
  -1  -3  -1 2677.43  168.58
   1  -3   1 2468.35  168.58
   1  -3   1 2580.14  168.48
  -1  -3  -1 2740.53  168.68
  -1  -3  -1 2584.64  168.68
  -1  -3  -1 2629.84  168.18
  -1   3  -1 2757.32  168.38
  -1   3  -1 2621.94  168.48
  -1   3  -1 2617.74  168.68
  -1   3  -1 2660.53  168.58
  -1   3  -1 2813.12  168.58
   1   3   1 2577.34  168.58
   1   3   1 2607.14  168.58
   1   3   1 2564.64  168.18
   3  -3   1    0.40    0.90
   3  -3   1    0.50    1.10
  -3  -3  -1   -0.40    0.90
  -3  -3  -1    0.20    0.50
  -3  -3  -1   -1.40    0.70
  -3  -3  -1    0.80    0.90
  -3  -3  -1    1.10    1.20
  -3   3  -1   -0.30    0.70
  -3   3  -1   -0.10    0.70
  -3   3  -1    0.40    0.60
  -3   3  -1    0.50    1.10
   3   3   1    0.20    1.10
   3   3   1    0.60    0.80
  -3   3  -1   -0.30    0.90
  -5  -3  -1  121.89    9.50
   5  -3   1  128.59    9.70
   5  -3   1  132.29   10.20
  -5  -3  -1  136.19   10.10
  -5  -3  -1  136.69    9.60
  -5  -3  -1  157.38   10.70
  -5   3  -1  143.79    9.30
  -5   3  -1  125.29    9.90
   5   3   1  123.19   10.10
   5   3   1  132.59    9.80
  -5   3  -1  154.28   10.50
  -5   3  -1  128.29    9.20
  -5   3  -1  125.29    9.40
  -7  -3  -1   44.30    5.60
  -7  -3  -1   52.39    5.50
   7  -3   1   58.49    6.10
  -7  -3  -1   39.80    3.90
  -7   3  -1   36.30    5.00
   7   3   1   36.20    5.20
  -7   3  -1   42.50    3.50
  -7   3  -1   42.40    3.60
   7   3   1   47.10    5.30
  -7   3  -1   58.59    6.20
  -9  -3  -1   50.29    6.60
  -9  -3  -1   49.80    4.30
   9  -3   1   53.29    6.40
   9   3   1   53.89    6.50
   9   3   1   46.80    6.60
  -9   3  -1   47.80    6.20
  11  -3   1   35.00    6.00
 -11  -3  -1   41.10    6.40
  11   3   1   35.10    5.90
 -11   3  -1   30.30    5.40
  11   3   1   35.40    6.00
 -12  -4   1    6.40    2.20
 -12  -4   1    9.10    3.70
  12  -4  -1    8.30    3.70
  12  -4  -1    8.00    3.30
 -12   4   1    7.60    3.20
  12   4  -1    8.70    3.60
  12   4  -1    9.20    4.00
 -12   4   1    9.20    2.00
  10  -4  -1   61.19    7.30
  10  -4  -1   64.99    7.50
 -10  -4   1   47.60    5.90
 -10  -4   1   75.19    8.50
 -10   4   1   73.89    8.00
 -10   4   1   56.49    5.30
  10   4  -1   58.79    7.30
  10   4  -1   48.00    6.70
   8  -4  -1    0.60    1.60
  -8  -4   1    0.60    1.90
  -8  -4   1    2.00    1.40
  -8  -4   1    1.80    1.50
   8   4  -1   -1.00    1.50
  -8   4   1    2.40    2.00
   8   4  -1   -2.20    1.30
  -8   4   1    0.40    1.60
  -8   4   1   -0.90    0.90
  -6  -4   1   52.79    5.90
  -6  -4   1   70.49    6.00
   6  -4  -1   68.49    5.10
   6  -4  -1   65.19    6.00
  -6  -4   1   58.99    5.60
  -6   4   1   65.29    5.90
   6   4  -1   68.39    6.00
  -6   4   1   67.69    5.60
  -6   4   1   62.49    5.00
  -6   4   1   66.29    6.00
   6   4  -1   66.09    5.90
  -4  -4   1 1154.18   69.19
  -4  -4   1 1077.29   69.29
   4  -4  -1 1007.40   69.09
   4  -4  -1 1027.20   68.69
   4  -4  -1 1124.49   69.29
  -4  -4   1 1010.00   69.19
   4   4  -1 1044.90   69.09
  -4   4   1 1001.30   69.09
  -4   4   1 1153.88   69.19
   4   4  -1 1114.69   69.19
  -4   4   1 1080.79   69.19
  -4   4   1  925.21   68.99
  -4   4   1 1060.19   68.29
   4   4  -1 1149.78   69.29
   2  -4  -1  850.51   55.29
  -2  -4   1  888.51   54.89
  -2  -4   1  805.52   55.19
  -2  -4   1  890.81   55.49
   2  -4  -1  884.81   55.39
  -2  -4   1  840.32   55.59
   2  -4  -1  761.12   55.49
  -2   4   1  942.21   55.49
   2   4  -1  831.02   55.19
  -2   4   1  875.41   54.79
  -2   4   1  883.01   55.29
   2   4  -1  838.52   55.39
  -2   4   1  775.52   55.39
   2   4  -1  877.61   55.49
   0  -4  -1 2588.04  149.88
   0  -4   1 2588.44  149.79
   0  -4  -1 1961.70  149.59
   0  -4  -1 2074.29  149.39
   0  -4  -1 2383.76  149.29
   0  -4   1 2143.19  148.99
   0  -4   1 2399.26  149.69
   0   4  -1 2492.85  149.69
   0   4   1 2325.17  149.69
   0   4  -1 2425.36  149.39
   0   4   1 2331.67  149.59
   0   4   1 2332.17  149.29
   2  -4   1   27.90    3.40
  -2  -4  -1   29.30    3.40
  -2  -4  -1   24.40    3.10
  -2  -4  -1   33.40    3.90
  -2  -4  -1   26.50    3.30
  -2  -4  -1   27.20    2.30
   2  -4   1   29.50    3.40
  -2   4  -1   24.70    3.00
  -2   4  -1   26.10    2.90
  -2   4  -1   31.80    3.60
   2   4   1   27.00    3.30
   2   4   1   28.10    2.70
  -2   4  -1   30.10    3.20
   2   4   1   33.30    3.40
   4  -4   1  268.37   18.30
  -4  -4  -1  249.28   18.30
   4  -4   1  277.37   18.00
  -4  -4  -1  257.17   17.80
  -4  -4  -1  222.98   17.90
   4   4   1  268.47   17.70
  -4   4  -1  260.77   17.60
  -4   4  -1  287.47   18.40
  -4   4  -1  250.67   17.60
  -4   4  -1  258.67   17.90
   4   4   1  262.87   18.20
  -6  -4  -1  228.68   17.20
   6  -4   1  243.98   16.30
  -6  -4  -1  245.38   16.80
   6  -4   1  225.48   16.90
  -6   4  -1  221.48   16.60
   6   4   1  245.08   17.00
  -6   4  -1  218.08   16.90
  -6   4  -1  216.38   15.70
   6   4   1  246.38   16.50
  -8  -4  -1   30.80    5.10
  -8  -4  -1   31.40    3.80
   8  -4   1   31.40    5.00
  -8  -4  -1   31.70    4.60
   8   4   1   21.70    4.50
  -8   4  -1   29.90    4.60
  -8   4  -1   32.40    5.10
   8   4   1   44.70    5.30
  -8   4  -1   35.90    3.10
  10  -4   1    2.30    2.60
 -10  -4  -1    4.40    2.80
 -10  -4  -1    1.30    1.20
 -10   4  -1   -0.50    2.00
  10   4   1    3.90    2.60
  10   4   1    5.20    2.90
  11  -5  -1   55.79    7.20
  11  -5  -1   31.20    5.70
 -11  -5   1   26.30    4.10
 -11  -5   1   26.70    5.20
  11   5  -1   29.70    5.30
 -11   5   1   19.50    4.70
  11   5  -1   25.40    5.00
 -11   5   1   22.50    3.50
  -9  -5   1   41.00    6.80
  -9  -5   1   45.40    6.00
   9  -5  -1   65.59    7.50
  -9   5   1   55.49    5.40
  -9   5   1   65.49    7.30
   9   5  -1   53.49    6.80
   9   5  -1   62.69    7.10
  -9   5   1   59.39    7.10
   7  -5  -1   18.40    3.40
  -7  -5   1   22.40    3.50
  -7  -5   1   25.00    3.70
  -7  -5   1   14.60    3.40
  -7   5   1   14.80    3.20
  -7   5   1   20.80    3.20
  -7   5   1   21.10    3.80
   7   5  -1   23.50    3.90
   7   5  -1   19.10    3.60
  -5  -5   1   86.99    7.50
  -5  -5   1   88.39    7.50
   5  -5  -1   85.69    6.70
   5  -5  -1   89.29    7.40
  -5  -5   1   88.09    7.30
  -5   5   1   84.19    7.40
  -5   5   1   79.79    7.20
   5   5  -1   79.29    7.10
   5   5  -1  100.79    7.50
  -5   5   1   86.19    7.10
   3  -5  -1  331.07   21.80
  -3  -5   1  297.67   21.50
  -3  -5   1  306.77   20.60
  -3  -5   1  316.57   21.50
  -3  -5   1  312.67   21.80
   3  -5  -1  295.07   21.20
   3  -5  -1  327.77   21.60
   3   5  -1  320.97   21.40
   3   5  -1  322.47   21.50
   3   5  -1  330.37   21.70
  -3   5   1  313.07   21.50
  -3   5   1  287.87   21.50
  -3   5   1  327.37   20.50
  -3   5   1  340.07   21.80
  -1  -5   1   47.10    3.70
  -1  -5   1   40.70    4.00
  -1  -5   1   34.00    3.40
   1  -5  -1   36.90    3.80
   1  -5  -1   39.70    3.70
  -1  -5   1   29.10    4.00
  -1   5   1   45.10    4.10
   1   5  -1   38.70    3.80
   1   5  -1   39.90    4.00
  -1   5   1   41.00    3.30
  -1   5   1   36.50    3.60
   1   5  -1   46.10    3.80
  -1   5   1   45.80    4.00
  -1  -5  -1  671.93   47.30
   1  -5   1  758.62   47.70
   1  -5   1  687.43   47.50
  -1  -5  -1  658.33   47.60
  -1  -5  -1  676.23   47.60
   1  -5   1  729.73   47.50
  -1  -5  -1  743.93   47.00
  -1   5  -1  744.13   47.30
  -1   5  -1  758.82   47.60
  -1   5  -1  738.93   47.60
   1   5   1  812.12   47.80
   1   5   1  724.13   47.10
   1   5   1  737.73   47.50
  -3  -5  -1   85.89    5.70
  -3  -5  -1   85.29    7.10
   3  -5   1   72.19    6.60
  -3  -5  -1   94.69    7.20
   3  -5   1   83.59    7.10
  -3  -5  -1   83.59    6.90
  -3   5  -1   83.89    7.00
   3   5   1   79.69    6.40
  -3   5  -1   78.19    6.60
  -3   5  -1   71.69    7.00
  -3   5  -1   85.69    6.70
   3   5   1   89.79    7.00
  -5  -5  -1    3.30    2.10
   5  -5   1    3.20    1.80
   5  -5   1    6.20    1.80
  -5  -5  -1    2.40    1.70
  -5   5  -1    2.60    1.60
   5   5   1    6.20    2.20
  -5   5  -1    3.00    1.40
   5   5   1    5.20    1.70
  -5   5  -1    2.60    1.80
   7  -5   1   63.09    7.30
  -7  -5  -1   62.19    5.80
  -7  -5  -1   64.39    6.40
  -7  -5  -1   51.69    7.00
   7   5   1   63.89    6.70
  -7   5  -1   55.79    6.60
   7   5   1   62.09    7.40
  -7   5  -1   61.99    7.30
  -7   5  -1   64.49    5.30
  -9  -5  -1    2.20    1.50
  -9  -5  -1    3.00    2.60
   9  -5   1    4.20    2.60
   9   5   1    8.30    3.10
  -9   5  -1    0.30    2.10
  -9   5  -1    3.00    2.20
  -9   5  -1    4.40    1.40
 -11  -5  -1    9.60    4.20
  11  -5   1    7.40    3.60
 -11  -5  -1    4.40    1.60
  11  -5   1    8.10    4.80
 -11   5  -1    6.90    3.10
  10  -6  -1    9.20    3.30
 -10  -6   1    7.20    2.60
 -10  -6   1    7.80    3.40
 -10   6   1    9.30    3.40
 -10   6   1    5.20    3.00
 -10   6   1    9.40    2.50
  10   6  -1   11.40    3.40
  10   6  -1    7.10    3.20
   8  -6  -1  163.38   13.70
  -8  -6   1  163.88   13.20
  -8  -6   1  180.98   13.50
  -8  -6   1  204.08   14.50
   8   6  -1  171.58   13.50
  -8   6   1  150.78   13.30
  -8   6   1  166.08   12.90
  -8   6   1  169.08   13.70
   8   6  -1  187.48   14.00
  -6  -6   1  237.88   17.40
  -6  -6   1  250.37   17.70
   6  -6  -1  239.38   16.70
  -6  -6   1  235.18   17.20
   6  -6  -1  240.28   17.50
  -6   6   1  227.38   17.00
   6   6  -1  251.17   17.40
  -6   6   1  217.98   17.10
  -6   6   1  240.58   17.40
   6   6  -1  229.78   17.10
  -4  -6   1  302.47   20.50
  -4  -6   1  320.87   20.60
   4  -6  -1  286.27   20.00
  -4  -6   1  298.07   20.70
   4  -6  -1  284.27   20.40
   4   6  -1  273.57   20.20
  -4   6   1  276.07   20.30
  -4   6   1  263.57   20.30
  -4   6   1  340.97   20.60
   4   6  -1  278.37   20.20
  -2  -6   1    3.30    1.60
  -2  -6   1    4.20    1.50
  -2  -6   1    5.10    1.80
  -2  -6   1    1.80    1.00
   2  -6  -1    3.50    1.50
   2  -6  -1    2.40    1.50
   2  -6  -1    5.00    1.70
  -2   6   1    2.80    1.50
  -2   6   1    3.30    0.90
   2   6  -1    3.10    1.50
   2   6  -1    2.60    1.40
  -2   6   1    6.30    1.70
   2   6  -1    3.40    1.60
  -2   6   1    0.30    1.20
   0  -6  -1   13.00    2.60
   0  -6  -1   13.70    2.70
   0  -6   1   24.70    3.00
   0  -6   1   15.10    1.90
   0  -6  -1   19.60    2.40
   0  -6   1   22.00    3.10
   0  -6  -1   17.00    2.40
   0   6  -1   17.90    2.80
   0   6  -1   15.80    2.50
   0   6  -1   18.00    2.80
   0   6   1   15.30    2.70
   0   6   1   13.90    2.30
   0   6   1   18.70    2.80
  -2  -6  -1 1304.17   85.09
  -2  -6  -1 1424.76   85.49
   2  -6   1 1280.17   85.19
  -2  -6  -1 1355.46   84.29
   2  -6   1 1431.56   85.39
  -2  -6  -1 1326.37   85.39
   2   6   1 1249.57   85.19
  -2   6  -1 1275.67   84.89
   2   6   1 1283.87   84.69
  -2   6  -1 1158.68   85.19
  -2   6  -1 1318.47   85.19
   2   6   1 1339.17   85.39
  -4  -6  -1   18.70    3.30
  -4  -6  -1   24.50    3.70
   4  -6   1   20.30    3.30
   4  -6   1   33.00    4.50
  -4  -6  -1   16.60    3.40
  -4   6  -1   19.40    3.10
  -4   6  -1   24.70    3.60
  -4   6  -1   27.20    4.10
   4   6   1   24.70    3.20
   4   6   1   18.40    3.40
  -6  -6  -1  305.67   21.80
   6  -6   1  306.37   22.10
  -6  -6  -1  286.87   21.30
  -6  -6  -1  308.87   22.20
   6  -6   1  309.47   21.30
  -6   6  -1  291.27   21.40
  -6   6  -1  296.07   20.90
  -6   6  -1  310.77   22.10
   6   6   1  330.07   22.10
   6   6   1  300.37   21.20
  -8  -6  -1   28.30    5.20
   8  -6   1   25.00    4.70
  -8  -6  -1   26.90    4.00
  -8  -6  -1   31.50    5.00
   8   6   1   26.20    5.00
  -8   6  -1   28.80    3.60
  -8   6  -1   30.30    4.80
  -8   6  -1   29.10    5.00
 -10  -6  -1    0.60    1.60
  10  -6   1   -1.00    2.40
 -10  -6  -1   -4.30    2.10
 -10   6  -1    0.10    1.10
 -10   6  -1   -1.50    2.50
  10   6   1   -0.40    2.70
 -10   6  -1    4.70    2.70
 -11  -7   1   12.70    4.10
 -11  -7   1    7.60    4.50
  11  -7  -1   20.60    5.10
 -11   7   1   13.40    4.10
 -11   7   1   15.40    3.70
  11   7  -1   12.10    4.90
  -9  -7   1    1.10    2.50
  -9  -7   1   11.20    3.10
   9  -7  -1    3.70    2.80
   9   7  -1    7.20    3.40
   9   7  -1    6.90    3.10
  -9   7   1    4.00    2.30
  -9   7   1    4.60    2.10
  -9   7   1    7.20    3.30
  -7  -7   1  122.09    9.50
   7  -7  -1   98.79    9.40
  -7  -7   1   62.39    9.00
  -7  -7   1   93.09    8.90
   7   7  -1  103.89    9.20
  -7   7   1  102.09    8.80
   7   7  -1  126.49    9.40
  -7   7   1   91.29    9.00
  -7   7   1  117.89    9.30
  -5  -7   1    6.90    2.50
   5  -7  -1   15.60    2.80
  -5  -7   1    4.70    2.30
  -5  -7   1   12.30    2.90
   5  -7  -1   14.80    3.10
  -5   7   1    9.10    2.50
  -5   7   1   11.40    2.70
   5   7  -1   13.50    3.10
  -5   7   1   12.80    2.90
   5   7  -1   12.90    2.90
  -3  -7   1   14.50    2.80
   3  -7  -1   15.80    2.90
   3  -7  -1   13.80    2.80
  -3  -7   1   14.80    3.10
  -3  -7   1   11.30    2.80
  -3   7   1   11.00    2.50
   3   7  -1   14.70    2.80
  -3   7   1   11.10    2.80
  -3   7   1   12.50    2.70
   3   7  -1   13.40    3.30
   3   7  -1    7.50    2.20
   1  -7  -1    9.80    2.70
  -1  -7   1   13.10    2.80
   1  -7  -1   13.20    2.70
  -1  -7   1   11.90    2.20
   1  -7  -1   14.60    2.60
  -1  -7   1   11.40    2.70
  -1  -7   1   17.50    2.50
  -1   7   1   13.20    2.70
  -1   7   1   16.30    2.20
   1   7  -1   14.40    3.00
   1   7  -1   16.90    2.80
  -1   7   1   13.80    2.50
   1   7  -1   14.40    2.70
  -1   7   1   12.00    2.60
  -1  -7  -1   36.50    4.20
   1  -7   1   38.20    4.40
  -1  -7  -1   30.60    4.50
  -1  -7  -1   29.70    4.30
   1  -7   1   30.20    4.20
  -1  -7  -1   33.30    3.60
   1   7   1   35.10    4.70
  -1   7  -1   29.00    3.80
   1   7   1   37.90    4.10
  -1   7  -1   32.20    4.30
  -1   7  -1   23.40    3.80
   1   7   1   36.60    4.50
   3  -7   1    6.00    2.20
  -3  -7  -1   12.50    3.00
   3  -7   1   10.10    2.80
  -3  -7  -1   11.50    2.70
  -3  -7  -1   10.30    2.70
   3   7   1    8.20    2.10
  -3   7  -1    8.50    2.20
   3   7   1   12.70    3.00
  -3   7  -1   10.40    2.50
  -3   7  -1    6.40    2.40
  -5  -7  -1   24.10    4.50
  -5  -7  -1   26.80    4.30
  -5  -7  -1   29.60    4.40
   5  -7   1   32.10    5.10
   5  -7   1   27.80    4.10
   5   7   1   22.40    4.20
   5   7   1   21.80    3.70
  -5   7  -1   30.50    4.00
  -5   7  -1   35.40    5.10
  -5   7  -1   28.30    4.10
  -7  -7  -1   31.30    5.40
  -7  -7  -1   35.80    5.90
   7  -7   1   42.40    6.10
  -7  -7  -1   43.00    5.40
  -7   7  -1   39.60    4.70
  -7   7  -1   34.00    5.00
  -7   7  -1   38.20    5.80
   7   7   1   48.90    6.60
  -9  -7  -1   21.40    5.20
   9  -7   1   34.20    6.10
  -9  -7  -1   33.10    4.80
  -9   7  -1   39.40    6.20
   9   7   1   23.80    5.40
  -9   7  -1   33.80    5.70
  -9   7  -1   46.30    4.50
  10  -8  -1   10.50    4.20
 -10  -8   1   16.00    3.80
 -10  -8   1   10.50    4.00
 -10   8   1    4.00    2.80
 -10   8   1   16.40    4.70
 -10   8   1    7.40    2.70
  10   8  -1    8.50    3.80
  -8  -8   1  113.69   10.20
  -8  -8   1   91.09   10.00
  -8  -8   1   96.49    9.70
   8  -8  -1  125.19   10.90
   8   8  -1  118.09   10.50
  -8   8   1   92.49    9.70
  -8   8   1  121.09    9.80
  -8   8   1   97.69    9.80
   8   8  -1  126.89   10.30
  -6  -8   1    1.20    1.90
  -6  -8   1   -1.00    1.80
   6  -8  -1    1.80    2.10
  -6  -8   1   -3.90    1.40
   6   8  -1    0.30    2.10
  -6   8   1    0.70    1.70
  -6   8   1   -2.00    1.60
  -6   8   1    1.00    1.90
   6   8  -1    1.20    1.90
   4  -8  -1   38.90    5.20
   4  -8  -1   30.90    4.60
  -4  -8   1   34.90    5.20
  -4  -8   1   39.80    5.10
  -4  -8   1   28.90    4.60
   4   8  -1   33.80    4.60
  -4   8   1   27.00    4.70
  -4   8   1   29.10    4.40
   4   8  -1   41.00    5.20
  -4   8   1   34.50    4.80
   2  -8  -1  168.58   12.30
  -2  -8   1  156.28   11.90
   2  -8  -1  167.48   12.60
  -2  -8   1  168.78   12.80
   2   8  -1  151.78   12.10
  -2   8   1  156.48   12.40
  -2   8   1  160.38   12.90
   2   8  -1  139.29   12.60
  -2   8   1  193.08   12.60
   2   8  -1  153.28   12.20
   0  -8  -1    5.20    2.30
   0  -8   1    7.70    2.70
   0  -8  -1    8.40    2.00
   0  -8  -1   11.30    2.90
   0  -8  -1    8.50    2.10
   0  -8   1    7.20    2.10
   0   8   1   11.60    2.90
   0   8  -1    7.50    2.40
   0   8   1    8.70    2.50
   0   8   1    2.90    1.70
   0   8  -1    6.60    2.20
   0   8  -1    3.10    2.10
  -2  -8  -1   34.40    5.50
  -2  -8  -1   63.49    6.70
   2  -8   1   54.69    6.30
  -2  -8  -1   55.09    6.10
   2  -8   1   49.20    6.20
  -2   8  -1   61.79    6.70
  -2   8  -1   58.29    5.70
  -2   8  -1   61.19    5.50
   2   8   1   68.39    6.90
   2   8   1   49.70    5.10
  -4  -8  -1  190.38   16.00
  -4  -8  -1  215.88   16.00
  -4  -8  -1  195.18   16.00
   4  -8   1  205.68   16.10
   4  -8   1  212.68   15.90
   4   8   1  218.88   16.10
  -4   8  -1  212.18   15.70
  -4   8  -1  215.88   15.80
  -4   8  -1  225.48   16.40
  -6  -8  -1  158.18   14.60
  -6  -8  -1  199.88   15.30
   6  -8   1  218.98   15.60
  -6  -8  -1  193.48   14.80
   6   8   1  200.68   15.20
  -6   8  -1  183.08   14.10
  -6   8  -1  155.38   14.10
  -6   8  -1  200.88   15.30
  -8  -8  -1   92.39   11.30
  -8  -8  -1  113.39   10.50
   8  -8   1  119.29   11.00
  -8  -8  -1  101.59    9.50
  -8   8  -1  114.99   10.70
  -8   8  -1   92.49    9.60
   8   8   1  116.09   10.90
  -8   8  -1  104.29    8.90
   9  -9  -1   38.00    6.60
  -9  -9   1   35.80    6.50
  -9  -9   1   24.10    6.30
  -9   9   1   36.50    6.10
  -9   9   1   33.90    5.40
  -9   9   1   34.30    5.90
   9   9  -1   33.00    6.00
   7  -9  -1   19.20    4.40
  -7  -9   1   17.50    4.30
  -7  -9   1   18.10    4.10
  -7  -9   1   12.90    3.80
   7   9  -1   11.00    3.60
   7   9  -1   12.50    3.60
  -7   9   1   10.00    3.40
  -7   9   1   21.60    4.30
  -7   9   1   12.60    3.60
  -5  -9   1  101.69    9.70
   5  -9  -1  117.69    9.70
  -5  -9   1  106.69   10.00
  -5  -9   1  115.69   10.30
   5  -9  -1  106.29    9.90
  -5   9   1  112.99    9.80
   5   9  -1  107.79    9.60
   5   9  -1  115.99    9.80
  -5   9   1  111.19    9.70
  -5   9   1   98.59    9.70
   3  -9  -1  195.88   14.80
  -3  -9   1  161.98   14.70
  -3  -9   1  198.08   15.50
   3  -9  -1  185.18   14.70
  -3  -9   1  203.98   15.10
  -3   9   1  179.88   15.00
  -3   9   1  184.08   14.60
   3   9  -1  197.28   14.70
   3   9  -1  197.48   14.60
  -3   9   1  214.18   14.80
   1  -9  -1    1.90    1.80
  -1  -9   1    6.60    2.60
   1  -9  -1    9.50    2.90
  -1  -9   1    2.90    1.60
  -1   9   1    8.80    2.50
  -1   9   1    4.10    2.30
   1   9  -1    5.10    2.30
  -1   9   1    1.80    2.00
   1   9  -1    4.70    2.30
   1   9  -1    3.80    2.30
  -1  -9  -1  224.28   18.50
   1  -9   1  241.78   18.50
  -1  -9  -1  256.07   19.00
   1  -9   1  258.97   18.20
   1   9   1  237.08   17.80
  -1   9  -1  237.58   18.00
  -1   9  -1  245.78   18.50
   1   9   1  261.47   18.50
  -1   9  -1  288.37   18.80
  -3  -9  -1   38.70    5.80
  -3  -9  -1   34.80    5.70
   3  -9   1   36.70    5.60
  -3  -9  -1   41.90    5.50
   3  -9   1   30.90    5.10
   3   9   1   40.60    5.80
  -3   9  -1   40.10    5.70
  -3   9  -1   36.00    5.10
  -3   9  -1   30.00    5.00
   5  -9   1    0.90    2.20
   5  -9   1    5.50    2.70
  -5  -9  -1    1.60    2.20
  -5  -9  -1    2.00    2.20
  -5  -9  -1    4.50    2.40
  -5   9  -1    1.10    1.80
   5   9   1   -2.10    2.10
  -5   9  -1    3.40    2.20
  -5   9  -1    0.90    2.30
  -7  -9  -1   60.39    8.00
  -7  -9  -1   51.49    7.00
   7  -9   1   55.69    7.80
  -7  -9  -1   60.59    8.20
   7   9   1   40.60    6.80
  -7   9  -1   45.60    7.20
  -7   9  -1   48.30    6.80
  -7   9  -1   54.39    6.50
  -8 -10   1    1.20    2.80
   8 -10  -1   -1.90    2.80
  -8 -10   1    4.30    3.10
  -8 -10   1    1.70    2.70
  -8  10   1   -1.40    2.20
  -8  10   1    0.40    2.50
  -8  10   1    2.90    2.40
   8  10  -1    0.40    2.60
  -6 -10   1   90.89   10.40
   6 -10  -1   89.99   10.40
  -6 -10   1  102.09    9.40
  -6 -10   1   94.19   10.60
   6  10  -1   81.89    9.40
  -6  10   1   94.49    9.30
  -6  10   1   92.99   10.10
  -6  10   1   93.09    9.10
   6  10  -1   75.89    9.30
   4 -10  -1    0.70    2.10
   4 -10  -1    2.80    2.30
  -4 -10   1   -0.10    2.20
  -4  10   1   -1.80    1.60
  -4  10   1    2.40    2.30
  -4  10   1    0.90    2.20
   4  10  -1   -0.30    2.00
   4  10  -1    1.30    2.10
  -2 -10   1   18.70    4.30
   2 -10  -1   16.10    3.60
   2 -10  -1   29.30    5.10
  -2  10   1   25.20    4.10
  -2  10   1   18.10    3.90
   2  10  -1   28.80    4.40
   2  10  -1   24.40    4.40
  -2  10   1   18.70    4.40
   0 -10  -1   55.69    7.50
   0 -10   1   78.09    8.40
   0 -10   1   55.69    6.70
   0  10   1   61.19    7.40
   0  10  -1   71.39    7.90
   0  10  -1   67.39    7.20
   0  10   1   56.59    6.70
   0  10  -1   60.29    7.40
  -2 -10  -1   60.69    8.30
  -2 -10  -1   58.79    7.90
   2 -10   1   85.89    8.10
   2 -10   1   80.19    7.70
  -2  10  -1   68.89    8.20
  -2  10  -1   84.59    8.10
   2  10   1   85.49    8.80
  -2  10  -1   70.19    7.10
  -4 -10  -1   18.20    4.40
  -4 -10  -1   10.30    3.60
   4 -10   1    8.20    3.60
  -4 -10  -1   15.30    3.90
   4 -10   1   12.30    3.80
   4  10   1   22.70    4.70
  -4  10  -1   16.20    4.10
  -4  10  -1   13.00    3.40
  -4  10  -1    5.50    2.60
  -6 -10  -1   29.40    5.60
   6 -10   1   22.70    5.30
  -6 -10  -1   34.50    5.70
  -6 -10  -1   33.80    5.90
  -6  10  -1   20.80    5.10
  -6  10  -1   33.30    5.30
  -6  10  -1   21.90    4.50
   6  10   1   25.20    5.30
  -7 -11   1   -5.40    2.30
  -7 -11   1    2.30    3.10
   7 -11  -1    5.10    3.80
  -7  11   1    3.90    2.90
  -7  11   1    7.70    3.20
  -7  11   1    2.20    2.80
   7  11  -1    1.20    3.10
   5 -11  -1   -0.80    2.40
  -5 -11   1    4.00    3.00
   5  11  -1    1.10    2.50
  -5  11   1    1.20    2.70
  -5  11   1   -1.60    2.20
  -5  11   1    2.20    2.60
   3 -11  -1   21.60    4.40
  -3 -11   1   18.10    4.50
   3 -11  -1   16.10    4.30
   3  11  -1   21.00    4.30
   3  11  -1   21.60    4.30
  -3  11   1   18.10    4.00
  -3  11   1   17.10    4.10
  -1 -11   1   21.50    4.90
   1 -11  -1   19.60    4.70
  -1  11   1   24.40    4.50
   1  11  -1   21.30    4.30
   1  11  -1   19.00    3.90
   1 -11   1  120.99   10.70
  -1 -11  -1   86.19   10.50
   1 -11   1  102.19    9.40
  -1  11  -1  102.29   10.10
   1  11   1   98.99    9.70
  -1  11  -1  112.69    9.60
  -1  11  -1  102.89    9.90
   3 -11   1    1.10    2.60
   3 -11   1    2.20    2.90
  -3 -11  -1    2.50    3.00
  -3  11  -1    2.80    2.90
  -3  11  -1    1.40    2.40
  -3  11  -1    0.30    2.20
   3  11   1    6.70    3.10
   5 -11   1   19.20    4.60
  -5 -11  -1    9.60    4.00
  -5 -11  -1   26.40    5.20
  -5  11  -1   17.60    4.50
   5  11   1   18.60    4.90
  -5  11  -1   12.30    3.80
   4 -12  -1    2.60    3.40
   4 -12  -1    3.20    3.10
  -4 -12   1    3.90    3.30
   4  12  -1    9.40    3.40
  -4  12   1    9.30    3.60
  -2 -12   1   22.70    5.10
   2 -12  -1   24.70    5.30
   2  12  -1   27.70    5.00
   2  12  -1   23.10    4.70
  -2  12   1   19.90    4.40
   0 -12   1   19.50    4.70
   0 -12  -1   11.40    4.10
   0  12   1   17.90    4.50
   0  12  -1   13.20    3.80
   0  12  -1   21.50    4.60
  -2 -12  -1   -2.40    2.40
   2 -12   1   -2.60    2.30
   2 -12   1    1.20    3.20
  -2  12  -1   -3.30    2.30
   2  12   1   -1.80    2.40
  -2  12  -1    0.60    2.60
  -2  12  -1   -1.20    1.90
   4 -12   1   65.79    8.70
   4 -12   1   58.69    8.20
  -4  12  -1   53.79    7.70
  -4  12  -1   60.39    8.50
   4  12   1   40.90    7.20
   1 -13  -1   -2.40    3.20
   1  13  -1   -2.30    3.60
  -1  13   1   -1.70    2.10
  -1  13  -1   36.10    6.50
   1  13   1   49.60   10.60
 -12   0   2   43.50    6.40
 -12   0   2   52.29    5.40
 -12   0   2   41.40    6.30
  12   0  -2   29.20    5.50
 -10   0   2   -1.20    1.40
 -10   0   2    0.20    1.20
  10   0  -2    0.80    2.00
 -10   0   2   -1.30    1.40
  -8   0   2  120.99    9.40
   8   0  -2  125.79    9.30
  -8   0   2  128.09    9.90
   8   0  -2  121.69    9.80
  -8   0   2  120.79    9.70
  -6   0   2  331.47   22.00
   6   0  -2  317.27   22.10
  -6   0   2  349.57   22.20
  -6   0   2  306.77   21.90
  -6   0   2  323.77   22.10
   6   0  -2  325.37   21.70
  -4   0   2 6059.59  364.56
   4   0  -2 5452.65  364.36
  -4   0   2 5406.26  364.26
  -4   0   2 5870.51  364.66
   4   0  -2 5575.34  364.56
   4   0  -2 5753.62  364.66
  -4   0   2 5887.81  364.66
   2   0  -2 9453.45  600.54
   2   0  -2 9076.29  601.04
  -2   0   2 9999.00  602.34
   2   0  -2 9503.85  600.34
   2   0  -2 9588.04  601.44
  -2   0   2 9489.65  599.84
  -2   0   2 8647.03  600.74
   0   0  -2    6.50    1.20
   0   0  -2    3.70    0.80
   0   0  -2    3.00    0.80
   0   0   2    3.80    1.10
   0   0  -2    4.60    0.90
   0   0  -2    9.50    1.40
   0   0   2    4.10    0.70
  -2   0  -2  395.56   25.20
  -2   0  -2  359.76   24.80
  -2   0  -2  397.06   25.10
  -2   0  -2  381.56   24.90
  -2   0  -2  363.76   25.10
  -4   0  -2   20.40    2.80
  -4   0  -2   22.10    3.00
  -4   0  -2   20.10    2.70
  -4   0  -2   16.30    2.40
  -4   0  -2   15.50    2.60
  -6   0  -2   20.10    3.40
  -6   0  -2   22.30    3.30
   6   0   2   21.90    3.00
  -6   0  -2   21.10    3.50
   6   0   2   19.30    3.20
  -8   0  -2  146.99   11.60
  -8   0  -2  138.99   11.50
   8   0   2  136.69   11.40
 -10   0  -2   51.79    7.20
 -10   0  -2   75.09    8.40
  10   0   2   62.89    7.80
 -13  -1   2   33.20    6.10
 -13  -1   2   30.00    4.10
 -13  -1   2   23.90    5.30
  13  -1  -2   14.30    4.90
 -13   1   2   30.10    4.00
  13   1  -2   29.90    5.70
 -13   1   2   25.30    5.10
 -11  -1   2   55.79    5.30
  11  -1  -2   44.90    6.30
 -11  -1   2   42.00    6.20
 -11  -1   2   49.20    6.70
 -11   1   2   56.49    5.20
  11   1  -2   54.69    7.00
 -11   1   2   42.60    6.10
 -11   1   2   41.40    5.90
  -9  -1   2    9.70    2.20
  -9  -1   2    8.50    2.60
  -9  -1   2   10.50    2.70
   9  -1  -2   11.40    3.10
   9  -1  -2   13.20    2.60
  -9   1   2    6.00    2.10
  -9   1   2    8.70    2.10
   9   1  -2   13.70    3.10
  -9   1   2    6.00    2.40
  -7  -1   2    0.70    0.70
  -7  -1   2    0.80    1.30
  -7  -1   2    2.40    1.50
  -7  -1   2    0.80    1.10
   7  -1  -2    0.60    1.20
   7  -1  -2    1.60    1.50
   7   1  -2    1.70    1.50
  -7   1   2    0.70    1.20
   7   1  -2    1.40    1.00
  -7   1   2    1.00    1.00
  -7   1   2    0.40    1.40
  -5  -1   2   27.50    2.30
   5  -1  -2   27.70    3.20
   5  -1  -2   29.30    3.20
  -5  -1   2   25.00    3.20
  -5  -1   2   23.80    3.00
   5  -1  -2   27.90    3.00
  -5  -1   2   21.40    2.90
  -5  -1   2   28.40    3.20
  -5   1   2   20.90    2.80
   5   1  -2   26.80    3.10
  -5   1   2   29.70    3.30
  -5   1   2   20.20    2.70
   5   1  -2   27.30    3.20
  -5   1   2   32.20    3.00
   5   1  -2   26.60    2.50
  -3  -1   2  990.70   62.49
   3  -1  -2  966.50   62.79
  -3  -1   2  905.61   62.69
  -3  -1   2  895.51   62.79
   3  -1  -2 1079.79   62.29
   3  -1  -2  923.61   62.69
   3  -1  -2  979.40   62.59
  -3   1   2  876.41   62.59
  -3   1   2 1011.80   62.79
   3   1  -2  967.70   62.69
   3   1  -2 1047.10   62.89
  -3   1   2  991.60   62.69
   3   1  -2 1010.50   62.49
   1  -1  -2  926.81   59.69
  -1  -1   2  973.60   60.09
   1  -1  -2  901.91   59.99
   1  -1  -2  945.11   60.09
  -1  -1   2  959.60   59.99
   1  -1  -2  971.90   60.09
  -1  -1   2  952.40   60.09
   1   1  -2  970.40   59.99
  -1   1   2  892.81   59.99
   1   1  -2  907.11   60.09
  -1   1   2  929.01   59.89
  -1   1   2  915.41   60.09
   1   1  -2  995.10   60.09
   1   1  -2  839.52   59.99
  -1  -1  -2   80.99    5.70
   1  -1   2   69.19    5.30
  -1  -1  -2   71.59    5.60
  -1  -1  -2   78.59    5.40
  -1  -1  -2   71.09    5.10
  -1  -1  -2   62.89    5.10
  -1  -1  -2   73.99    5.00
  -1   1  -2   87.69    5.70
  -1   1  -2   78.99    5.60
  -1   1  -2   71.19    5.10
  -1   1  -2   73.19    5.40
  -1   1  -2   71.39    5.00
   1   1   2   67.19    5.30
  -1   1  -2   72.99    5.00
  -3  -1  -2  304.97   20.20
  -3  -1  -2  293.57   19.70
  -3  -1  -2  282.67   19.10
  -3  -1  -2  293.87   19.10
  -3  -1  -2  309.17   20.00
  -3   1  -2  297.97   19.90
  -3   1  -2  305.87   19.90
  -3   1  -2  295.97   20.00
  -3   1  -2  275.67   19.70
  -3   1  -2  303.57   20.00
  -5  -1  -2   40.80    4.60
  -5  -1  -2   44.20    4.20
  -5  -1  -2   42.70    3.90
  -5  -1  -2   40.80    4.80
  -5   1  -2   45.60    4.70
   5   1   2   39.00    4.10
  -5   1  -2   39.40    4.50
  -5   1  -2   46.60    4.40
  -5   1  -2   50.59    4.50
  -5   1  -2   39.20    4.10
   7  -1   2    0.90    1.40
  -7  -1  -2   -0.20    1.60
  -7  -1  -2    0.00    1.40
  -7  -1  -2   -0.70    1.30
  -7   1  -2    2.40    1.70
  -7   1  -2    1.00    1.50
   7   1   2    0.00    1.60
  -9  -1  -2    7.20    2.80
   9  -1   2    6.20    2.80
  -9  -1  -2   12.50    3.50
  -9   1  -2    5.60    2.60
  -9   1  -2    8.60    2.90
   9   1   2    6.80    2.70
 -11  -1  -2    6.50    3.60
  11  -1   2    1.40    2.70
  11   1   2    2.70    3.00
 -11   1  -2    9.10    3.40
  11   1   2    2.70    2.90
 -12  -2   2   14.20    3.90
  12  -2  -2    6.00    3.30
 -12  -2   2   13.00    3.90
 -12  -2   2   10.30    2.60
 -12   2   2    8.40    3.10
 -12   2   2   12.90    2.70
  12   2  -2   18.50    4.30
 -10  -2   2    2.80    2.10
  10  -2  -2    1.50    2.20
  10  -2  -2    3.80    2.10
 -10  -2   2    1.60    1.90
 -10  -2   2    1.60    1.50
 -10   2   2    2.90    2.00
 -10   2   2    1.90    1.80
 -10   2   2    1.20    1.50
  10   2  -2    4.40    2.50
  -8  -2   2  136.59   10.30
   8  -2  -2  118.39    9.70
  -8  -2   2  133.49    9.80
  -8  -2   2  116.59   10.00
   8  -2  -2  119.59   10.10
  -8   2   2  130.39   10.20
  -8   2   2  118.39    9.60
  -8   2   2  126.29    9.60
   8   2  -2  135.19   10.20
  -6  -2   2   85.39    7.00
  -6  -2   2   88.49    6.40
   6  -2  -2   86.69    7.00
  -6  -2   2   80.69    6.90
  -6  -2   2   93.59    7.20
  -6  -2   2   89.39    7.00
   6  -2  -2   79.69    6.80
  -6   2   2   87.39    6.70
  -6   2   2   85.19    6.80
   6   2  -2   82.99    7.00
  -6   2   2   82.19    6.80
   6   2  -2   87.99    6.20
   6   2  -2   91.59    7.10
  -6   2   2   86.59    7.00
  -4  -2   2    3.10    1.30
   4  -2  -2    4.80    1.40
  -4  -2   2    7.20    1.50
   4  -2  -2    3.50    0.70
  -4  -2   2    3.50    1.30
  -4  -2   2    4.30    1.10
   4  -2  -2    4.60    1.40
   4   2  -2    4.70    1.00
   4   2  -2    6.90    1.60
   4   2  -2    7.80    1.60
  -4   2   2    3.20    1.30
  -4   2   2    5.80    1.30
  -4   2   2    5.40    1.40
  -4   2   2    6.50    1.60
   2  -2  -2  232.38   14.80
   2  -2  -2  228.08   14.50
  -2  -2   2  211.38   14.70
  -2  -2   2  223.98   14.60
   2  -2  -2  212.78   14.60
   2   2  -2  219.58   14.20
  -2   2   2  197.08   14.30
  -2   2   2  206.08   14.50
   2   2  -2  220.48   14.60
   2   2  -2  222.08   14.80
   2   2  -2  227.18   14.50
  -2   2   2  205.68   14.50
  -2   2   2  218.98   14.70
   0  -2  -2 1715.23  103.59
   0  -2   2 1643.84  103.19
   0  -2  -2 1736.13  103.29
   0  -2   2 1507.45  103.49
   0  -2  -2 1431.86  103.39
   0   2  -2 1774.02  103.59
   0   2   2 1633.64  103.39
   0   2  -2 1557.74  102.99
   0   2   2 1527.45  103.39
   0   2  -2 1809.02  103.39
   0   2  -2 1418.46  103.49
   2  -2   2  556.64   36.90
  -2  -2  -2  513.15   36.50
  -2  -2  -2  590.64   37.20
  -2  -2  -2  569.94   37.20
  -2  -2  -2  574.44   36.60
   2  -2   2  558.74   36.60
  -2  -2  -2  550.74   36.50
  -2   2  -2  600.84   36.40
  -2   2  -2  572.04   37.00
   2   2   2  527.45   36.40
  -2   2  -2  595.34   36.40
  -2   2  -2  566.44   37.10
  -2   2  -2  561.54   36.60
   2   2   2  559.24   36.90
  -4  -2  -2    2.50    1.50
   4  -2   2    0.00    0.90
  -4  -2  -2    0.30    1.10
  -4  -2  -2    3.60    1.10
  -4  -2  -2    1.60    0.80
  -4  -2  -2    1.20    0.70
  -4   2  -2    1.40    1.10
  -4   2  -2    0.30    1.30
  -4   2  -2    0.20    1.20
  -4   2  -2    1.60    1.20
   4   2   2    3.10    1.40
   4   2   2    1.70    1.00
  -6  -2  -2    4.70    1.00
  -6  -2  -2    3.50    2.10
   6  -2   2    5.30    1.80
  -6  -2  -2    4.60    1.00
   6  -2   2    6.50    2.10
  -6  -2  -2    4.70    1.80
  -6   2  -2    5.40    1.90
   6   2   2    2.90    1.70
  -6   2  -2    6.60    2.00
   6   2   2    5.40    1.70
  -6   2  -2    4.00    1.80
  -8  -2  -2  198.48   15.00
  -8  -2  -2  189.28   14.90
   8  -2   2  174.68   14.40
  -8   2  -2  192.78   14.70
   8   2   2  189.98   14.40
   8   2   2  192.08   14.80
  -8   2  -2  191.18   14.40
  10  -2   2   74.09    8.80
 -10  -2  -2   75.79    9.40
  10   2   2   80.29    9.20
 -10   2  -2   80.29    9.00
  10   2   2   79.09    8.90
  13  -3  -2   20.90    5.50
 -13  -3   2   25.40    4.10
 -13  -3   2   31.40    6.10
 -13   3   2   25.70    3.70
  13   3  -2   24.00    5.50
 -13   3   2   17.20    4.40
  11  -3  -2   85.29    7.80
 -11  -3   2   75.79    8.70
  11  -3  -2   61.79    7.90
 -11  -3   2   75.69    7.00
 -11  -3   2   73.49    8.90
  11   3  -2   77.79    8.60
 -11   3   2   47.50    7.50
 -11   3   2   74.49    6.60
  -9  -3   2   44.40    5.60
  -9  -3   2   36.00    4.60
  -9  -3   2   35.90    5.30
   9  -3  -2   49.90    5.90
   9  -3  -2   37.90    5.10
  -9   3   2   39.80    4.80
   9   3  -2   47.50    5.90
  -9   3   2   34.70    5.20
  -9   3   2   40.00    4.70
  -7  -3   2   42.60    5.20
  -7  -3   2   40.50    4.90
   7  -3  -2   43.50    4.90
  -7  -3   2   48.30    5.20
  -7  -3   2   41.30    4.00
  -7   3   2   39.30    4.00
   7   3  -2   49.00    5.40
  -7   3   2   40.00    4.50
  -7   3   2   46.60    5.10
  -5  -3   2  244.18   20.10
  -5  -3   2  308.07   20.30
  -5  -3   2  309.37   19.80
   5  -3  -2  311.27   19.30
   5  -3  -2  273.97   20.10
   5  -3  -2  291.87   20.20
  -5   3   2  299.07   19.70
   5   3  -2  294.87   20.20
  -5   3   2  290.57   20.10
  -5   3   2  305.97   20.20
   5   3  -2  289.57   19.20
  -5   3   2  300.97   20.10
  -5   3   2  292.37   20.10
   5   3  -2  305.37   20.20
   3  -3  -2 1505.45   92.79
  -3  -3   2 1413.26   93.09
  -3  -3   2 1365.26   93.29
   3  -3  -2 1351.26   93.19
   3  -3  -2 1382.26   93.09
  -3   3   2 1458.75   92.69
  -3   3   2 1454.35   92.99
   3   3  -2 1600.34   93.29
   3   3  -2 1429.56   93.09
  -3   3   2 1430.16   93.19
   3   3  -2 1550.24   92.69
   3   3  -2 1532.05   92.79
  -3   3   2 1319.17   92.79
  -1  -3   2  147.19    9.90
  -1  -3   2  129.49   10.20
   1  -3  -2  147.79   10.10
  -1  -3   2  149.59   10.30
   1  -3  -2  136.29   10.30
   1  -3  -2  156.28   10.30
  -1   3   2  140.19   10.10
   1   3  -2  134.69   10.20
   1   3  -2  171.08   10.40
  -1   3   2  152.88    9.70
  -1   3   2  146.29   10.30
   1   3  -2  151.38    9.70
   1   3  -2  151.38   10.10
  -1   3   2  118.59   10.00
   1  -3   2  309.67   21.00
  -1  -3  -2  325.57   21.20
  -1  -3  -2  353.26   21.90
  -1  -3  -2  309.97   21.70
  -1  -3  -2  329.27   21.50
  -1  -3  -2  312.27   21.50
   1  -3   2  322.87   21.70
  -1   3  -2  345.87   21.20
   1   3   2  298.87   21.50
   1   3   2  298.47   21.50
  -1   3  -2  333.97   21.70
   1   3   2  316.17   20.90
  -1   3  -2  349.57   21.80
  -1   3  -2  332.27   21.40
  -1   3  -2  311.77   21.40
  -3  -3  -2   57.99    4.60
  -3  -3  -2   58.79    4.60
  -3  -3  -2   57.49    4.30
   3  -3   2   53.09    4.30
   3  -3   2   60.29    5.00
  -3  -3  -2   55.59    5.20
  -3  -3  -2   61.39    5.30
   3   3   2   51.89    4.40
  -3   3  -2   58.29    4.30
  -3   3  -2   51.29    4.60
  -3   3  -2   58.99    4.30
  -3   3  -2   57.29    5.10
  -3   3  -2   53.29    5.00
   3   3   2   45.40    4.80
  -5  -3  -2  580.04   37.30
  -5  -3  -2  544.95   37.20
  -5  -3  -2  543.25   38.20
  -5  -3  -2  512.15   38.30
   5  -3   2  578.64   37.90
   5  -3   2  581.44   38.20
   5   3   2  575.94   37.60
  -5   3  -2  553.04   37.80
  -5   3  -2  582.14   36.80
  -5   3  -2  571.64   36.80
  -5   3  -2  580.74   38.30
  -5   3  -2  603.94   37.50
   5   3   2  601.54   38.30
  -7  -3  -2  287.67   17.90
   7  -3   2  272.67   19.40
  -7  -3  -2  291.67   19.90
  -7  -3  -2  250.37   19.00
  -7   3  -2  254.17   19.20
   7   3   2  267.67   18.80
  -7   3  -2  246.78   18.80
   7   3   2  245.08   19.30
   9  -3   2    9.60    3.00
  -9  -3  -2    5.30    2.90
  -9   3  -2    3.90    2.30
  -9   3  -2    6.10    3.00
   9   3   2    4.10    2.60
 -11  -3  -2    1.20    2.80
  11  -3   2    0.80    2.70
 -11   3  -2   -2.30    2.20
  11   3   2    0.20    2.80
 -12  -4   2  133.69   11.40
 -12  -4   2  159.48   13.30
  12  -4  -2  133.29   12.30
 -12   4   2  131.29   10.80
  12   4  -2  137.29   12.40
  12   4  -2  149.69   12.80
 -12   4   2  134.79   12.40
 -10  -4   2  220.68   16.10
  10  -4  -2  229.48   16.70
 -10  -4   2  187.48   16.60
 -10   4   2  201.98   15.50
 -10   4   2  213.88   16.60
  10   4  -2  235.28   16.80
  10   4  -2  215.48   16.50
  -8  -4   2   33.80    4.60
  -8  -4   2   25.40    4.40
   8  -4  -2   40.00    5.10
  -8  -4   2   36.00    4.10
  -8   4   2   32.80    4.90
  -8   4   2   38.60    4.90
   8   4  -2   37.50    5.00
   8   4  -2   37.40    5.00
  -8   4   2   28.40    4.00
  -6  -4   2  409.56   27.30
   6  -4  -2  413.06   26.60
  -6  -4   2  429.16   27.80
   6  -4  -2  397.86   27.70
  -6  -4   2  392.06   27.70
   6   4  -2  396.96   27.60
  -6   4   2  402.66   26.90
  -6   4   2  445.06   27.70
  -6   4   2  391.56   27.60
  -6   4   2  377.06   27.40
   6   4  -2  416.26   27.50
  -4  -4   2   10.50    2.10
  -4  -4   2    8.20    1.90
   4  -4  -2   12.80    2.30
   4  -4  -2    9.10    1.70
   4  -4  -2   11.50    2.20
  -4  -4   2   10.40    2.40
  -4   4   2   12.90    2.20
   4   4  -2   12.50    2.10
  -4   4   2   11.20    2.10
   4   4  -2    7.00    1.90
   4   4  -2   12.60    2.30
  -4   4   2    8.20    1.50
   4   4  -2   11.60    1.40
  -4   4   2   10.40    2.00
  -2  -4   2   74.69    5.40
  -2  -4   2   73.29    5.90
  -2  -4   2   63.29    5.60
   2  -4  -2   61.19    5.40
   2  -4  -2   64.59    5.50
   2  -4  -2   70.59    5.80
   2   4  -2   65.89    5.60
   2   4  -2   72.59    5.40
  -2   4   2   66.39    5.80
  -2   4   2   63.89    5.20
  -2   4   2   72.49    5.30
   2   4  -2   81.29    6.00
   2   4  -2   66.39    5.20
  -2   4   2   73.89    5.70
   0  -4   2   26.80    3.20
   0  -4   2   21.00    2.70
   0  -4  -2   22.00    3.00
   0  -4  -2   19.20    2.70
   0  -4  -2   21.80    2.50
   0  -4  -2   18.50    2.60
   0  -4   2   21.30    2.10
   0   4  -2   23.20    2.70
   0   4  -2   23.30    2.90
   0   4   2   22.40    3.00
   0   4   2   20.30    2.90
   0   4   2   21.80    2.10
   0   4  -2   24.50    3.10
   0   4  -2   23.50    2.40
  -2  -4  -2  148.49   10.60
  -2  -4  -2  150.18   10.00
   2  -4   2  146.29   10.70
  -2  -4  -2  138.89   10.50
  -2  -4  -2  162.88   11.00
   2  -4   2  138.79    9.70
  -2  -4  -2  172.38   11.10
  -2   4  -2  127.49   10.30
   2   4   2  137.89    9.90
  -2   4  -2  147.69   10.30
  -2   4  -2  127.79   10.60
  -2   4  -2  158.98   11.00
   2   4   2  161.38   10.80
  -2   4  -2  151.28   10.40
  -4  -4  -2 1124.39   71.29
   4  -4   2 1073.79   71.79
  -4  -4  -2 1035.40   71.79
   4  -4   2 1088.99   71.59
  -4  -4  -2 1244.18   72.29
   4  -4   2 1024.20   70.79
  -4   4  -2 1137.09   71.99
   4   4   2 1072.09   70.99
  -4   4  -2 1153.08   70.99
  -4   4  -2 1126.29   71.39
   4   4   2 1144.49   71.89
  -4   4  -2 1005.90   70.89
  -6  -4  -2  787.82   50.59
  -6  -4  -2  746.03   50.79
   6  -4   2  751.82   49.99
  -6  -4  -2  725.43   49.40
   6  -4   2  767.92   50.69
  -6   4  -2  761.42   48.90
  -6   4  -2  739.03   48.90
  -6   4  -2  779.52   50.19
   6   4   2  764.52   49.80
  -6   4  -2  749.62   50.59
   6   4   2  762.22   50.49
  -8  -4  -2    2.00    2.30
   8  -4   2   13.00    3.30
  -8  -4  -2    6.60    2.50
  -8  -4  -2    7.70    1.60
  -8   4  -2    2.80    2.10
   8   4   2    6.00    3.00
  -8   4  -2    4.50    2.40
  10  -4   2   33.20    5.70
 -10  -4  -2   43.00    6.90
 -10   4  -2   32.40    5.10
  10   4   2   20.60    4.80
 -11  -5   2   10.00    3.20
  11  -5  -2   17.50    4.30
  11  -5  -2   11.00    3.70
 -11  -5   2   18.30    4.50
  11   5  -2    8.60    3.30
  11   5  -2    4.60    3.10
 -11   5   2   12.70    2.90
 -11   5   2   11.70    3.70
  -9  -5   2  111.19    9.10
  -9  -5   2   85.09    9.20
   9  -5  -2  115.89    9.60
  -9   5   2   95.79    9.20
   9   5  -2  111.69    9.40
  -9   5   2  104.99    9.20
  -9   5   2   97.99    8.50
   9   5  -2   93.59    9.10
   7  -5  -2   17.90    3.60
  -7  -5   2   18.90    3.50
  -7  -5   2   19.50    3.10
  -7  -5   2   17.00    3.60
   7   5  -2   23.60    3.80
  -7   5   2   18.80    3.40
  -7   5   2   22.70    3.50
   7   5  -2   17.50    3.40
  -7   5   2   21.00    3.70
   5  -5  -2   69.39    6.40
  -5  -5   2   77.59    6.40
  -5  -5   2   51.19    6.60
   5  -5  -2   71.89    5.80
  -5  -5   2   84.09    6.60
   5   5  -2   79.39    9.70
  -5   5   2   65.39    6.20
  -5   5   2   76.89    6.40
  -5   5   2   74.99    6.50
   5   5  -2   72.39    6.40
   5   5  -2   75.39    6.30
  -5   5   2   70.59    5.40
  -3  -5   2   15.00    2.40
   3  -5  -2   14.40    2.50
   3  -5  -2   13.20    2.50
  -3  -5   2   16.60    2.70
   3  -5  -2   16.60    2.50
  -3  -5   2   16.30    2.80
   3   5  -2   21.00    2.90
  -3   5   2   23.00    3.10
  -3   5   2   18.90    2.50
   3   5  -2   12.80    1.80
  -3   5   2   15.60    2.00
  -3   5   2   12.90    2.40
   3   5  -2   16.40    2.70
   3   5  -2   15.80    2.40
  -1  -5   2   46.30    4.80
   1  -5  -2   35.50    3.50
   1  -5  -2   39.00    4.40
   1  -5  -2   36.20    4.10
  -1  -5   2   34.20    4.10
   1   5  -2   39.40    3.40
   1   5  -2   41.30    3.90
  -1   5   2   29.40    3.80
  -1   5   2   41.80    4.50
   1   5  -2   40.30    4.30
  -1   5   2   31.30    3.20
  -1   5   2   32.20    3.40
   1   5  -2   34.60    3.50
  -1  -5  -2   29.60    3.90
   1  -5   2   34.50    4.00
  -1  -5  -2   24.80    3.70
  -1  -5  -2   38.40    3.20
  -1  -5  -2   31.40    4.00
   1  -5   2   33.50    4.00
  -1   5  -2   33.70    3.30
  -1   5  -2   26.50    3.80
   1   5   2   38.00    4.10
   1   5   2   34.10    3.00
   1   5   2   40.00    4.30
  -1   5  -2   42.90    3.90
  -1   5  -2   37.30    3.60
  -1   5  -2   33.40    4.00
  -3  -5  -2    1.30    1.50
  -3  -5  -2   -0.20    1.30
  -3  -5  -2    2.50    1.40
   3  -5   2   -0.60    1.30
  -3  -5  -2    0.80    0.90
   3  -5   2    1.60    1.50
  -3   5  -2    1.10    0.90
  -3   5  -2    0.10    1.10
   3   5   2    0.30    1.50
  -3   5  -2    2.20    1.60
   3   5   2    1.60    1.00
   5  -5   2  246.68   19.00
  -5  -5  -2  258.47   18.30
  -5  -5  -2  253.17   19.20
  -5  -5  -2  287.67   19.20
   5  -5   2  270.47   18.80
   5   5   2  260.57   19.00
  -5   5  -2  259.57   17.90
  -5   5  -2  289.17   18.60
   5   5   2  238.58   18.00
  -5   5  -2  269.87   19.10
  -7  -5  -2  148.99   12.60
  -7  -5  -2  154.48   11.50
  -7  -5  -2  151.58   12.90
   7  -5   2  160.28   12.90
  -7   5  -2  163.78   10.90
  -7   5  -2  149.79   12.20
  -7   5  -2  147.99   12.70
   7   5   2  154.78   12.80
  -9  -5  -2   18.90    2.80
  -9  -5  -2   14.40    4.20
   9  -5   2   14.40    4.20
  -9   5  -2   16.70    4.10
  -9   5  -2   10.90    3.10
   9   5   2   16.10    4.50
  12  -6  -2    8.60    3.90
  12   6  -2   13.50    4.30
  12   6  -2    7.80    4.40
 -12   6   2   11.00    4.30
 -10  -6   2   27.90    5.40
 -10  -6   2   19.00    4.00
  10  -6  -2   33.20    5.40
 -10   6   2   16.40    4.10
  10   6  -2   31.30    5.20
 -10   6   2   19.20    3.70
  10   6  -2   19.70    4.40
  -8  -6   2   15.70    3.30
   8  -6  -2   18.90    3.90
  -8  -6   2   17.80    3.80
  -8  -6   2   18.90    3.90
  -8   6   2   11.60    3.20
   8   6  -2   12.90    3.30
   8   6  -2   11.20    3.30
  -8   6   2   12.30    2.90
  -8   6   2   11.20    3.00
  -6  -6   2   69.49    6.50
  -6  -6   2   63.79    7.30
   6  -6  -2   62.09    6.60
  -6  -6   2   76.19    7.10
  -6   6   2   72.59    6.80
   6   6  -2   73.69    6.60
   6   6  -2   62.79    7.10
  -6   6   2   75.39    6.80
  -6   6   2   73.09    6.60
  -4  -6   2  114.19    9.90
   4  -6  -2  127.09    9.60
  -4  -6   2  147.19    9.70
   4  -6  -2  125.19    9.30
  -4  -6   2  118.79    9.50
  -4   6   2  115.59    9.70
  -4   6   2  113.29    9.40
   4   6  -2  118.69    9.70
   4   6  -2  114.69    9.50
  -4   6   2  113.79    9.30
   4   6  -2  119.69    9.20
   2  -6  -2   58.09    5.70
  -2  -6   2   68.09    5.10
  -2  -6   2   56.69    5.50
  -2  -6   2   56.59    4.80
   2  -6  -2   54.89    5.20
  -2  -6   2   57.99    5.70
   2  -6  -2   52.19    5.20
  -2   6   2   56.29    4.90
   2   6  -2   60.89    5.00
  -2   6   2   61.69    5.70
  -2   6   2   57.19    4.70
  -2   6   2   59.69    5.40
   2   6  -2   52.19    5.20
   2   6  -2   54.09    5.50
   0  -6   2  657.23   40.50
   0  -6   2  587.34   39.20
   0  -6   2  592.54   40.40
   0  -6   2  622.34   40.10
   0  -6  -2  568.94   40.30
   0  -6  -2  581.54   40.40
   0  -6  -2  606.74   40.00
   0  -6  -2  598.14   39.70
   0   6   2  624.24   39.50
   0   6  -2  601.24   40.20
   0   6   2  625.54   40.30
   0   6  -2  602.14   40.30
   0   6   2  626.74   40.50
   0   6  -2  590.54   39.70
  -2  -6  -2    4.00    1.90
   2  -6   2    1.10    1.60
  -2  -6  -2    3.80    1.20
  -2  -6  -2    3.40    1.70
  -2  -6  -2    2.50    1.60
   2  -6   2    1.90    1.50
  -2   6  -2    2.60    1.70
  -2   6  -2    4.80    1.50
   2   6   2    4.90    2.10
   2   6   2    1.80    1.20
  -2   6  -2    2.50    1.30
   4  -6   2   30.40    4.40
  -4  -6  -2   37.80    4.60
  -4  -6  -2   46.20    5.50
   4  -6   2   34.90    4.80
  -4  -6  -2   31.40    4.60
  -4   6  -2   29.30    4.50
  -4   6  -2   35.20    4.10
  -4   6  -2   32.00    4.10
   4   6   2   30.60    4.60
   6  -6   2  130.69   10.80
  -6  -6  -2  112.59   10.20
   6  -6   2  148.69   11.60
  -6  -6  -2  137.99   11.60
  -6  -6  -2  137.29   11.30
   6   6   2  134.49   11.30
  -6   6  -2  145.99   11.50
  -6   6  -2  125.39   10.60
  -6   6  -2  134.99    9.90
  -8  -6  -2  136.79   11.70
  -8  -6  -2  135.29   12.10
   8  -6   2  122.89   11.80
  -8  -6  -2  143.49   10.40
  -8   6  -2  120.89   11.40
  -8   6  -2  123.19    9.30
   8   6   2  138.09   12.00
  -8   6  -2  126.39   11.00
  10  -6   2  114.79   12.40
 -10  -6  -2  106.79    9.50
 -11  -7   2   81.19    9.00
 -11  -7   2   94.69   11.00
  11  -7  -2   97.09   10.70
  11  -7  -2   80.19    9.80
  11   7  -2   79.09    9.60
 -11   7   2   80.59    7.80
 -11   7   2   72.99    9.40
  11   7  -2   58.49    8.60
   9  -7  -2   -0.60    2.10
  -9  -7   2    2.10    2.20
  -9  -7   2    1.10    2.10
   9   7  -2    1.50    2.40
  -9   7   2   -0.90    2.20
  -9   7   2   -0.70    1.60
  -9   7   2   -0.20    1.90
   9   7  -2   -2.50    1.80
  -7  -7   2   -0.40    1.80
  -7  -7   2    3.20    2.30
  -7  -7   2    2.40    2.00
   7  -7  -2    0.20    2.00
  -7   7   2    1.30    1.90
  -7   7   2    0.40    1.70
  -7   7   2    2.70    2.00
   7   7  -2    3.10    2.20
   7   7  -2    4.70    2.40
  -5  -7   2   31.80    4.90
  -5  -7   2   20.30    3.80
  -5  -7   2   29.70    4.20
   5  -7  -2   23.60    3.60
   5  -7  -2   19.90    3.80
  -5   7   2   31.40    4.30
  -5   7   2   25.70    3.80
  -5   7   2   21.10    3.70
   5   7  -2   24.70    3.80
   5   7  -2   25.70    4.10
  -3  -7   2  217.28   15.10
   3  -7  -2  212.88   14.80
   3  -7  -2  190.68   14.60
  -3  -7   2  213.08   15.20
  -3  -7   2  195.98   14.40
  -3  -7   2  191.28   13.80
  -3   7   2  204.78   14.80
   3   7  -2  203.08   14.80
  -3   7   2  210.28   15.10
   3   7  -2  200.18   15.10
  -3   7   2  190.98   14.40
   3   7  -2  185.28   14.30
  -1  -7   2   80.69    6.60
  -1  -7   2   86.69    7.30
  -1  -7   2   81.69    6.20
   1  -7  -2   71.99    7.00
   1  -7  -2   75.39    6.50
   1  -7  -2   81.79    7.50
   1   7  -2   80.89    6.60
   1   7  -2   65.99    6.80
  -1   7   2   76.39    6.40
   1   7  -2   71.39    7.00
  -1   7   2   77.89    6.40
  -1   7   2   85.79    7.40
  -1   7   2   83.49    7.10
  -1  -7  -2   -1.10    1.30
  -1  -7  -2    1.00    1.70
  -1  -7  -2    1.30    1.70
   1  -7   2    0.10    1.40
   1  -7   2   -1.10    1.40
  -1  -7  -2   -0.50    1.00
   1   7   2   -1.00    1.30
   1   7   2    1.00    1.10
  -1   7  -2   -0.70    1.40
  -1   7  -2   -1.00    1.10
  -1   7  -2    1.10    1.40
   3  -7   2  163.38   12.40
   3  -7   2  165.58   12.60
  -3  -7  -2  172.78   12.70
  -3  -7  -2  162.28   12.50
  -3  -7  -2  144.99   12.40
   3   7   2  168.28   12.60
  -3   7  -2  134.09   12.20
  -3   7  -2  168.38   12.10
  -3   7  -2  150.68   11.80
   5  -7   2  124.39   10.20
   5  -7   2  112.49    9.50
  -5  -7  -2  110.19    9.80
  -5  -7  -2  124.29   10.30
  -5  -7  -2  105.09    9.30
  -5   7  -2  106.99    8.80
  -5   7  -2   96.99    9.00
   5   7   2  122.09   10.00
  -5   7  -2   98.69    9.60
  -7  -7  -2    8.10    3.10
   7  -7   2    7.10    3.40
  -7  -7  -2    8.60    3.60
  -7  -7  -2    8.30    2.60
   7   7   2    7.40    3.40
  -7   7  -2    8.00    2.00
  -7   7  -2   10.60    3.40
  -7   7  -2    8.70    3.00
  -9  -7  -2   11.80    4.00
   9  -7   2    6.50    3.50
  -9  -7  -2    8.80    2.60
  -9   7  -2    4.70    1.50
   9   7   2    9.20    3.90
  -9   7  -2    4.30    3.10
 -10  -8   2    1.50    2.60
  10  -8  -2    1.40    2.80
 -10  -8   2    2.00    2.10
 -10   8   2   -0.90    1.90
 -10   8   2    1.50    2.60
  10   8  -2    4.30    3.10
 -10   8   2    1.00    2.30
  10   8  -2   -0.60    2.30
  -8  -8   2    1.30    2.30
  -8  -8   2    2.50    2.40
   8  -8  -2    3.60    2.70
  -8  -8   2    5.00    2.70
   8   8  -2    2.30    2.60
  -8   8   2    6.20    2.60
  -8   8   2    8.60    3.10
   8   8  -2    5.40    2.80
  -8   8   2    4.60    2.60
   6  -8  -2   16.40    3.70
  -6  -8   2   12.60    3.40
  -6  -8   2   18.90    3.90
  -6  -8   2   19.00    3.90
  -6   8   2   18.80    3.70
   6   8  -2   23.70    4.00
  -6   8   2   18.10    3.90
  -6   8   2   14.80    3.70
   6   8  -2   11.30    3.30
   4  -8  -2  375.26   25.00
   4  -8  -2  349.67   25.00
  -4  -8   2  388.16   25.50
  -4  -8   2  310.17   25.20
  -4  -8   2  383.46   25.00
  -4   8   2  356.36   25.10
  -4   8   2  296.27   25.00
   4   8  -2  362.16   25.00
   4   8  -2  376.86   24.80
  -4   8   2  360.96   24.70
  -2  -8   2  666.53   45.50
   2  -8  -2  757.62   45.70
  -2  -8   2  681.33   44.60
   2  -8  -2  666.53   45.00
  -2   8   2  685.83   44.80
  -2   8   2  687.63   45.40
   2   8  -2  646.54   45.20
   2   8  -2  646.84   45.50
   2   8  -2  715.33   44.90
  -2   8   2  609.84   45.50
   0  -8  -2    9.10    2.20
   0  -8  -2    4.80    2.30
   0  -8   2    7.90    2.80
   0  -8  -2    7.40    2.80
   0  -8   2    8.80    2.50
   0   8  -2    5.70    2.50
   0   8   2    7.80    2.10
   0   8   2   12.90    2.60
   0   8   2    9.60    2.70
   0   8  -2    8.10    2.50
   0   8  -2    6.30    2.10
   2  -8   2   58.69    6.60
  -2  -8  -2   37.60    5.60
  -2  -8  -2   51.99    6.50
  -2  -8  -2   45.80    5.90
   2  -8   2   65.89    7.00
  -2   8  -2   69.79    7.30
   2   8   2   42.70    5.90
  -2   8  -2   57.99    6.30
  -2   8  -2   56.69    5.90
  -4  -8  -2    5.00    2.60
   4  -8   2    1.00    2.30
  -4  -8  -2    4.40    2.20
  -4  -8  -2    5.10    2.40
   4  -8   2    2.60    2.30
  -4   8  -2    5.70    2.20
  -4   8  -2    6.20    2.20
   4   8   2    1.10    2.10
  -4   8  -2    3.70    2.60
   6  -8   2   -2.40    2.10
  -6  -8  -2   -0.60    1.70
  -6  -8  -2   -0.20    1.90
  -6  -8  -2   -0.30    2.10
  -6   8  -2   -1.00    1.20
  -6   8  -2   -1.50    2.00
  -6   8  -2   -0.40    1.60
   6   8   2   -0.60    2.10
  -8  -8  -2   54.89    6.60
   8  -8   2   61.79    8.30
  -8  -8  -2   42.30    7.30
  -8  -8  -2   58.09    7.90
  -8   8  -2   53.79    5.30
  -8   8  -2   54.39    7.70
   8   8   2   59.59    8.30
   9  -9  -2   20.40    4.70
  -9  -9   2   20.70    4.80
  -9  -9   2   15.80    4.50
  -9  -9   2   15.70    5.40
  -9   9   2   19.80    4.30
   9   9  -2   20.60    4.80
  -9   9   2   22.10    5.20
  -9   9   2   20.30    4.60
   9   9  -2   29.00    5.50
   7  -9  -2    7.30    3.00
  -7  -9   2    4.70    2.80
  -7  -9   2    2.10    2.20
  -7  -9   2    2.00    2.40
  -7   9   2    3.90    2.60
   7   9  -2   -0.10    2.00
   7   9  -2    4.70    2.80
  -7   9   2    9.00    3.20
  -7   9   2    3.40    2.60
  -5  -9   2    1.70    2.20
   5  -9  -2    0.20    2.00
  -5  -9   2   -0.30    2.00
   5  -9  -2    0.40    1.90
  -5  -9   2    0.50    1.90
  -5   9   2   -0.10    1.80
   5   9  -2    1.10    2.10
   5   9  -2    0.90    1.80
  -5   9   2   -0.10    1.80
  -5   9   2    1.70    2.30
  -3  -9   2    8.80    3.00
   3  -9  -2   12.10    3.00
   3  -9  -2   12.40    3.30
   3   9  -2    7.00    2.60
  -3   9   2    9.50    2.60
  -3   9   2    9.70    3.00
   3   9  -2    7.10    2.40
  -3   9   2    8.90    2.70
   1  -9  -2  122.89    9.90
   1  -9  -2  128.69   10.70
  -1  -9   2  125.09    9.90
  -1  -9   2  115.39   10.60
   1   9  -2  123.19   10.90
   1   9  -2  122.19   10.40
  -1   9   2  125.19   10.50
   1   9  -2  122.89    9.90
  -1  -9  -2   90.19    9.20
   1  -9   2   96.19    8.80
   1  -9   2  106.89    9.30
  -1  -9  -2  102.49    9.30
  -1   9  -2   91.79    8.90
  -1   9  -2   96.19    8.20
  -1   9  -2   93.09    8.90
   1   9   2  107.39    9.10
  -3  -9  -2   28.70    5.00
  -3  -9  -2   38.20    5.50
   3  -9   2   30.10    5.20
   3  -9   2   30.10    5.20
  -3  -9  -2   23.60    4.80
  -3   9  -2   33.00    5.40
   3   9   2   35.20    5.50
  -3   9  -2   31.90    4.60
  -3   9  -2   30.30    4.90
   5  -9   2   78.99    9.10
   5  -9   2   92.79   10.00
  -5  -9  -2   76.69    8.80
  -5  -9  -2   77.89    9.20
  -5  -9  -2   84.69    9.80
  -5   9  -2   74.19    7.60
  -5   9  -2   82.19    9.40
   5   9   2   91.99   10.00
   7  -9   2   63.69    8.60
  -7  -9  -2   57.69    8.10
  -7  -9  -2   71.59    7.90
  -7  -9  -2   51.69    8.10
  -7   9  -2   53.99    6.40
  -7   9  -2   58.29    8.30
   7   9   2   71.79    8.90
   8 -10  -2   29.70    6.10
  -8 -10   2   31.40    6.00
  -8 -10   2   24.50    5.50
  -8 -10   2   35.10    6.30
  -8  10   2   40.70    6.20
   8  10  -2   32.70    5.70
  -8  10   2   27.20    5.30
  -8  10   2   16.70    4.60
   8  10  -2   31.50    5.60
  -6 -10   2    0.80    2.50
  -6 -10   2    2.90    2.60
   6 -10  -2    7.00    3.30
  -6  10   2    3.30    2.40
  -6  10   2    3.90    2.50
   6  10  -2    3.60    2.80
  -6  10   2    3.10    2.70
   6  10  -2   -0.50    2.30
   4 -10  -2   43.90    6.10
   4 -10  -2   39.50    5.70
  -4 -10   2   33.30    5.60
   4  10  -2   37.70    5.60
   4  10  -2   32.90    5.00
  -4  10   2   29.20    5.30
  -4  10   2   51.19    6.60
  -4  10   2   36.20    5.20
   2 -10  -2   44.10    6.40
  -2 -10   2   54.49    7.10
   2 -10  -2   46.80    6.00
   2  10  -2   48.20    6.20
   2  10  -2   46.90    5.90
  -2  10   2   46.40    6.30
   0 -10  -2   69.09    8.00
   0 -10   2   59.19    7.00
   0 -10   2   68.59    8.20
   0  10   2   60.29    7.60
   0  10  -2   62.39    7.70
   0  10  -2   63.09    7.00
   0  10  -2   61.09    7.40
  -2 -10  -2   29.50    5.60
  -2 -10  -2   30.90    5.30
   2 -10   2   38.80    5.60
   2 -10   2   26.00    5.10
  -2  10  -2   28.20    5.10
   2  10   2   22.60    4.70
  -2  10  -2   30.20    5.50
  -2  10  -2   34.30    5.30
   4 -10   2   20.70    4.70
   4 -10   2   14.10    3.90
  -4 -10  -2    7.30    3.20
  -4 -10  -2   14.90    4.10
  -4 -10  -2   17.60    4.30
  -4  10  -2    7.10    3.50
  -4  10  -2   15.70    3.90
   4  10   2   11.60    4.10
  -6 -10  -2   19.10    5.00
  -6 -10  -2   24.70    4.80
  -6 -10  -2   13.10    4.60
   6 -10   2   24.30    5.50
   6  10   2   15.70    4.50
  -6  10  -2   17.00    4.60
  -6  10  -2   12.80    3.40
  -7 -11   2    5.40    3.40
   7 -11  -2   -0.50    3.00
  -7  11   2    6.80    3.30
  -7  11   2    3.70    3.00
  -7  11   2    9.80    3.70
   7  11  -2    3.60    3.10
   5 -11  -2   74.89    8.50
  -5 -11   2   42.50    7.00
  -5  11   2   53.89    7.40
   5  11  -2   59.09    7.60
  -5  11   2   64.19    8.30
   5  11  -2   60.19    7.40
   3 -11  -2  158.28   13.70
   3 -11  -2  170.48   13.50
  -3 -11   2  181.18   14.40
   3  11  -2  169.08   13.60
  -3  11   2  136.49   13.20
   3  11  -2  155.68   13.10
  -1 -11   2   21.40    5.00
   1 -11  -2   26.70    5.30
  -1  11   2   23.20    4.70
   1  11  -2   16.20    4.20
   1  11  -2   30.00    5.10
   1 -11   2    0.80    2.20
   1 -11   2   -0.50    2.50
  -1 -11  -2    0.20    2.60
  -1  11  -2    0.40    2.40
   1  11   2   -0.20    2.40
  -1  11  -2    1.00    2.20
  -3 -11  -2    2.30    2.70
  -3 -11  -2    5.00    3.30
   3 -11   2    3.60    3.20
   3 -11   2    4.60    3.10
  -3  11  -2    3.80    3.10
   3  11   2    2.70    2.90
  -3  11  -2    4.90    2.90
  -5 -11  -2   69.79    9.30
  -5 -11  -2   71.29    9.20
  -5 -11  -2   68.79    9.50
   5 -11   2   64.29    9.00
   5  11   2   81.99   10.20
  -5  11  -2   81.49    9.90
  -5  11  -2   70.99    8.60
   4 -12  -2    0.60    2.50
   4 -12  -2    3.30    3.20
  -4 -12   2    0.20    2.70
  -4  12   2    0.00    2.40
   4  12  -2    3.20    2.80
  -2 -12   2   33.60    6.10
   2 -12  -2   31.00    6.00
   2  12  -2   23.90    5.00
  -2  12   2   21.80    4.80
   0 -12  -2   13.40    4.60
   0 -12   2   16.80    4.50
   0  12   2   11.90    3.70
   0  12  -2   13.40    4.30
   2 -12   2    5.00    3.20
   2 -12   2    4.50    3.20
  -2 -12  -2    2.30    3.10
   2  12   2    1.40    3.00
  -2  12  -2    3.50    3.20
  -2  12  -2    4.80    3.10
   1  13  -2   54.19    7.90
 -14   0   3   38.50    6.70
 -12   0   3   23.70    4.70
 -12   0   3   21.20    3.70
 -12   0   3   22.10    4.50
  12   0  -3   15.40    4.10
 -10   0   3   71.69    6.80
  10   0  -3   72.69    8.00
 -10   0   3   86.09    7.50
 -10   0   3   73.69    8.10
  10   0  -3   68.39    8.30
  -8   0   3   81.09    7.10
  -8   0   3   75.09    6.90
  -8   0   3   87.99    7.30
   8   0  -3   83.69    6.70
   8   0  -3   79.19    7.20
   6   0  -3  495.45   32.10
  -6   0   3  476.35   32.40
  -6   0   3  524.25   32.50
   6   0  -3  493.95   32.40
   6   0  -3  475.25   32.40
  -6   0   3  447.46   32.20
  -4   0   3  540.65   31.30
  -4   0   3  458.25   31.40
   4   0  -3  470.15   31.60
   4   0  -3  467.55   31.30
  -4   0   3  465.65   30.80
   4   0  -3  461.55   31.30
   2   0  -3 1529.45   99.99
   2   0  -3 1637.34  100.39
  -2   0   3 1581.84  100.29
  -2   0   3 1554.84   99.79
  -2   0   3 1768.32  100.49
   2   0  -3 1373.36  100.19
   2   0  -3 1497.25  100.29
   0   0  -3    8.00    1.60
   0   0   3   11.40    1.80
   0   0  -3    6.70    1.20
   0   0  -3    8.80    1.40
   0   0  -3    9.00    1.70
   0   0   3    8.80    1.10
   0   0  -3   10.60    1.30
  -2   0  -3 2828.62  177.08
  -2   0  -3 2742.63  176.48
  -2   0  -3 2846.02  176.48
   2   0   3 2595.24  176.98
  -2   0  -3 2885.51  177.58
  -2   0  -3 2714.73  177.38
  -4   0  -3   32.80    3.90
  -4   0  -3   32.00    3.70
  -4   0  -3   36.20    4.40
  -4   0  -3   32.00    4.20
  -4   0  -3   33.00    4.00
  -6   0  -3  426.86   29.10
  -6   0  -3  417.06   28.70
  -6   0  -3  430.16   29.00
  -6   0  -3  420.66   29.30
  -8   0  -3   55.09    7.20
   8   0   3   81.39    7.30
  -8   0  -3   70.79    8.10
  10   0   3   60.79    9.60
 -13  -1   3    9.70    2.80
  13  -1  -3    5.80    3.30
 -13  -1   3    2.90    3.00
 -13  -1   3    7.80    3.30
  13   1  -3    6.30    3.30
 -13   1   3    5.90    4.30
 -13   1   3   12.20    3.70
 -13   1   3    5.20    2.20
 -11  -1   3    0.70    1.90
 -11  -1   3    2.20    1.70
  11  -1  -3   -3.10    1.70
 -11  -1   3   -0.30    1.90
 -11   1   3    0.20    1.90
  11   1  -3    0.60    2.10
 -11   1   3    1.10    1.50
 -11   1   3   -1.10    1.60
   9  -1  -3   51.29    5.60
  -9  -1   3   57.19    6.00
  -9  -1   3   62.79    6.60
  -9  -1   3   40.50    5.30
   9  -1  -3   44.30    5.70
  -9   1   3   55.79    6.20
  -9   1   3   49.60    5.70
  -9   1   3   47.10    5.50
   9   1  -3   50.79    6.00
   9   1  -3   53.79    4.90
  -7  -1   3   22.30    3.30
  -7  -1   3   14.90    2.70
  -7  -1   3   19.40    3.00
   7  -1  -3   21.90    3.20
  -7  -1   3   18.60    2.00
   7  -1  -3   20.20    2.80
   7   1  -3   16.80    2.50
   7   1  -3   21.50    3.20
  -7   1   3   19.30    3.10
  -7   1   3   16.20    2.80
  -7   1   3   16.20    2.80
   5  -1  -3  192.88   13.60
   5  -1  -3  191.88   13.40
   5  -1  -3  202.38   13.40
  -5  -1   3  185.48   12.80
  -5  -1   3  198.98   13.60
  -5  -1   3  162.08   13.10
  -5  -1   3  188.38   13.60
  -5   1   3  204.88   13.50
  -5   1   3  184.88   12.40
   5   1  -3  184.38   13.50
  -5   1   3  189.08   13.50
   5   1  -3  191.98   13.50
   5   1  -3  188.18   13.10
  -5   1   3  224.28   13.60
  -3  -1   3 1813.82  113.19
  -3  -1   3 1713.13  112.49
   3  -1  -3 1634.84  112.89
  -3  -1   3 1744.43  112.69
   3  -1  -3 1703.53  112.59
   3  -1  -3 1790.62  113.09
  -3  -1   3 1736.43  112.99
   3  -1  -3 1783.02  112.69
   3   1  -3 1812.82  112.89
  -3   1   3 1744.83  113.09
  -3   1   3 1819.32  112.99
   3   1  -3 1796.22  112.89
   3   1  -3 1696.13  113.09
  -3   1   3 1850.51  112.79
   1  -1  -3   28.90    3.10
   1  -1  -3   36.50    3.20
  -1  -1   3   28.90    3.10
   1  -1  -3   36.00    3.20
   1  -1  -3   38.10    2.60
  -1  -1   3   39.60    3.30
   1  -1  -3   43.80    3.40
  -1   1   3   30.60    3.10
  -1   1   3   38.40    3.30
   1   1  -3   30.10    3.10
   1   1  -3   31.60    3.20
  -1   1   3   32.90    2.80
   1   1  -3   37.80    3.20
   1   1  -3   35.00    3.00
  -1  -1  -3  106.69    7.30
  -1  -1  -3  113.19    7.80
  -1  -1  -3  109.99    8.00
  -1  -1  -3  103.79    7.40
   1  -1   3  112.49    7.90
  -1  -1  -3   91.39    7.30
  -1   1  -3  104.99    7.30
  -1   1  -3  103.49    7.30
   1   1   3  103.49    7.50
  -1   1  -3  113.99    7.40
  -1   1  -3  109.89    7.70
   1   1   3  106.19    8.00
  -1   1  -3  104.89    8.00
  -1   1  -3  104.29    8.00
  -3  -1  -3   93.59    6.40
  -3  -1  -3  114.79    7.20
  -3  -1  -3   93.59    7.50
  -3  -1  -3   99.39    7.80
  -3  -1  -3   98.89    7.40
  -3  -1  -3   92.39    6.40
  -3   1  -3   96.89    7.60
   3   1   3   87.89    7.20
  -3   1  -3   87.89    7.30
  -3   1  -3   85.79    7.10
  -3   1  -3  100.99    7.70
  -5  -1  -3   56.29    5.10
  -5  -1  -3   53.79    5.40
  -5  -1  -3   60.69    5.80
  -5   1  -3   55.89    5.30
  -5   1  -3   59.19    5.30
  -5   1  -3   52.59    5.30
  -5   1  -3   53.09    5.20
  -5   1  -3   49.99    5.30
   5   1   3   55.29    5.30
   5   1   3   47.20    4.80
  -7  -1  -3   52.99    6.50
   7  -1   3   43.70    5.50
  -7  -1  -3   47.30    5.90
  -7   1  -3   57.59    6.30
  -7   1  -3   49.99    6.00
   7   1   3   54.99    6.40
   7   1   3   43.30    5.40
  -7   1  -3   42.20    5.80
   9  -1   3   -3.90    1.70
  -9  -1  -3    2.10    2.50
   9   1   3   -1.50    2.20
  -9   1  -3   -1.00    1.90
 -12  -2   3   -0.50    1.60
 -12  -2   3    3.50    2.60
  12  -2  -3    1.30    2.40
 -12  -2   3    1.20    2.50
  12   2  -3    2.60    3.00
 -12   2   3    0.20    1.50
 -12   2   3    3.80    2.70
  10  -2  -3    5.30    2.20
  10  -2  -3    4.50    2.60
 -10  -2   3    2.20    2.40
 -10  -2   3    4.00    1.90
 -10  -2   3    3.90    2.20
 -10   2   3    5.60    2.40
 -10   2   3    5.20    2.00
 -10   2   3    4.10    2.20
  10   2  -3    3.90    2.30
   8  -2  -3    3.10    1.70
  -8  -2   3    6.30    2.10
  -8  -2   3    2.10    1.80
   8  -2  -3    7.40    2.30
  -8  -2   3    3.30    1.60
   8   2  -3    6.10    2.30
   8   2  -3    6.00    1.60
  -8   2   3    5.20    1.70
  -8   2   3    4.00    1.90
  -8   2   3    6.10    1.90
  -6  -2   3    1.30    1.50
  -6  -2   3    0.10    0.70
  -6  -2   3    0.50    1.10
   6  -2  -3    0.00    1.10
   6  -2  -3    0.00    1.20
   6  -2  -3    0.70    1.00
  -6  -2   3   -0.30    1.00
  -6   2   3    0.60    1.10
   6   2  -3    1.70    1.40
  -6   2   3   -0.60    1.00
   6   2  -3   -0.50    1.10
  -6   2   3    0.10    1.20
   6   2  -3   -0.20    0.80
   4  -2  -3  726.03   45.00
   4  -2  -3  703.43   44.60
  -4  -2   3  669.93   45.30
  -4  -2   3  710.03   44.90
   4  -2  -3  694.73   45.30
  -4  -2   3  702.13   44.90
  -4  -2   3  580.04   45.20
   4   2  -3  737.43   45.30
  -4   2   3  707.13   45.10
   4   2  -3  612.94   44.80
  -4   2   3  689.13   45.10
  -4   2   3  780.82   45.50
  -2  -2   3   14.60    2.10
   2  -2  -3    9.30    1.80
   2  -2  -3   11.90    2.00
  -2  -2   3    9.10    1.80
   2  -2  -3   12.80    1.40
   2  -2  -3    6.10    1.50
  -2  -2   3   12.10    1.90
  -2   2   3   11.60    1.70
  -2   2   3   11.70    1.90
   2   2  -3   10.60    1.10
   2   2  -3   13.30    2.00
  -2   2   3   12.90    2.00
   2   2  -3   12.30    1.90
   2   2  -3   11.70    1.90
   0  -2   3  916.21   59.39
   0  -2   3  922.21   59.69
   0  -2  -3  874.71   59.39
   0  -2  -3  829.62   59.69
   0  -2  -3  901.81   59.49
   0  -2  -3  974.50   59.49
   0   2   3  916.31   59.39
   0   2  -3  963.10   58.79
   0   2  -3  854.61   59.29
   0   2   3  986.00   59.79
   0   2  -3  914.21   59.69
   0   2  -3  977.00   59.49
   0   2  -3  930.11   59.49
  -2  -2  -3   -0.30    0.60
  -2  -2  -3   -0.30    1.10
  -2  -2  -3   -0.30    0.70
  -2  -2  -3   -1.00    1.00
   2  -2   3    0.30    1.10
   2  -2   3   -0.40    0.80
  -2  -2  -3   -0.10    0.90
  -2   2  -3   -0.80    1.00
  -2   2  -3    1.20    0.80
  -2   2  -3    0.20    0.60
  -2   2  -3    0.20    1.00
   2   2   3    0.60    1.00
  -2   2  -3   -0.30    0.50
   2   2   3    0.00    0.60
  -4  -2  -3   46.70    3.60
  -4  -2  -3   46.10    3.50
  -4  -2  -3   38.20    4.90
  -4  -2  -3   55.29    6.00
  -4  -2  -3   43.30    4.20
   4  -2   3   42.10    4.90
  -4   2  -3   44.40    4.20
   4   2   3   50.59    4.70
  -4   2  -3   39.80    4.90
  -4   2  -3   53.29    4.80
   4   2   3   46.30    4.10
   6  -2   3   46.70    5.20
  -6  -2  -3   47.30    6.00
  -6  -2  -3   27.90    4.50
  -6   2  -3   36.30    4.80
  -6   2  -3   41.80    4.90
   6   2   3   39.60    5.10
  -6   2  -3   42.70    4.90
   6   2   3   38.70    4.60
  -8  -2  -3   87.49   10.20
   8  -2   3   88.09    8.40
  -8  -2  -3   76.39    9.40
  -8   2  -3   91.79    8.60
  -8   2  -3  101.59    8.60
   8   2   3   93.69    8.80
 -10  -2  -3   44.10    7.10
  10  -2   3   29.10    5.50
 -10   2  -3   35.10    5.70
  13  -3  -3    4.40    3.30
 -13  -3   3    6.10    3.20
 -13  -3   3    1.30    2.00
  13   3  -3    2.10    2.80
 -13   3   3    1.50    1.80
 -13   3   3    3.60    2.90
 -11  -3   3  249.48   17.80
  11  -3  -3  224.28   17.10
 -11  -3   3  195.98   16.50
 -11  -3   3  244.68   17.50
 -11   3   3  196.78   17.00
  11   3  -3  237.28   17.70
 -11   3   3  227.08   16.60
   9  -3  -3    5.20    2.20
  -9  -3   3    7.70    2.60
  -9  -3   3   11.30    2.70
  -9  -3   3    6.40    2.30
   9  -3  -3    9.70    3.00
  -9   3   3    3.40    1.80
  -9   3   3   10.60    2.80
  -9   3   3    5.70    2.10
   9   3  -3    7.40    2.70
  -7  -3   3    7.40    2.20
  -7  -3   3    3.30    1.40
  -7  -3   3    6.90    2.00
   7  -3  -3    6.10    1.90
  -7  -3   3    1.90    1.50
   7  -3  -3    2.00    1.60
   7   3  -3    4.70    1.20
  -7   3   3    4.50    1.80
  -7   3   3    3.50    1.50
   7   3  -3    6.50    2.10
  -7   3   3    2.20    1.70
   5  -3  -3    7.80    1.70
  -5  -3   3    6.80    1.60
  -5  -3   3    7.50    2.10
   5  -3  -3   12.50    2.50
  -5  -3   3    7.60    1.70
  -5  -3   3    6.60    1.90
   5  -3  -3   10.60    1.40
   5  -3  -3    4.50    1.50
   5   3  -3    6.70    1.40
   5   3  -3   12.00    2.40
  -5   3   3    6.20    1.60
   5   3  -3    9.60    2.00
  -5   3   3    6.50    1.80
  -5   3   3    8.30    2.00
   3  -3  -3  189.28   13.40
   3  -3  -3  202.48   13.30
  -3  -3   3  172.88   13.10
  -3  -3   3  169.78   13.40
   3  -3  -3  190.98   13.00
  -3  -3   3  197.78   13.20
  -3   3   3  190.78   13.10
  -3   3   3  197.38   13.40
   3   3  -3  177.08   13.40
   3   3  -3  200.28   13.00
   3   3  -3  186.28   12.60
  -3   3   3  188.58   13.10
   3   3  -3  189.58   13.30
  -1  -3   3  645.64   40.30
   1  -3  -3  595.24   40.60
  -1  -3   3  710.73   40.80
  -1  -3   3  679.93   40.80
   1  -3  -3  645.14   40.50
   1  -3  -3  591.64   40.60
   1   3  -3  627.54   40.60
  -1   3   3  625.04   40.50
   1   3  -3  573.54   40.50
  -1   3   3  627.14   40.60
  -1   3   3  508.35   40.50
   1   3  -3  595.84   41.00
   1   3  -3  648.34   39.80
   1   3  -3  602.64   40.60
  -1  -3  -3   86.19    6.70
   1  -3   3   86.59    6.50
   1  -3   3   82.59    7.00
  -1  -3  -3   95.19    7.20
  -1  -3  -3   80.19    7.20
  -1  -3  -3   88.69    6.70
  -1  -3  -3   89.39    6.80
  -1   3  -3   80.49    6.50
  -1   3  -3   95.49    6.70
   1   3   3   90.49    6.90
  -1   3  -3   96.49    6.30
  -1   3  -3  100.69    7.20
  -1   3  -3   81.49    7.00
   3  -3   3   -0.10    0.90
  -3  -3  -3    0.40    0.80
  -3  -3  -3    2.20    1.00
  -3  -3  -3   -0.30    1.30
   3  -3   3   -0.80    1.00
  -3  -3  -3   -0.40    1.30
  -3  -3  -3    0.20    0.90
  -3   3  -3   -0.80    0.60
  -3   3  -3    0.00    0.90
  -3   3  -3   -0.80    1.20
   3   3   3   -0.10    1.20
  -3   3  -3    0.30    0.70
   3   3   3    1.00    0.80
  -3   3  -3   -0.40    1.20
  -5  -3  -3  159.78   12.50
   5  -3   3  164.98   11.90
   5  -3   3  172.88   12.50
  -5  -3  -3  176.88   11.40
  -5  -3  -3  163.98   11.30
  -5  -3  -3  147.79   12.80
  -5   3  -3  160.88   12.00
  -5   3  -3  164.58   12.60
  -5   3  -3  153.08   12.40
   5   3   3  168.58   12.60
   5   3   3  160.78   11.80
  -7  -3  -3  131.29   10.60
   7  -3   3  111.89   11.70
  -7  -3  -3  161.88   11.80
   7  -3   3  132.39   10.90
  -7   3  -3  129.29   10.70
   7   3   3  114.39   10.50
  -7   3  -3  107.49    9.90
  -9  -3  -3    2.40    2.50
   9  -3   3    1.00    2.40
   9   3   3    1.30    2.60
  -9   3  -3   -0.30    2.10
  -9   3  -3    1.50    2.60
  12  -4  -3  113.29   10.50
 -12  -4   3  118.29   11.20
 -12  -4   3  102.49    9.90
  12   4  -3  105.89   10.60
  12   4  -3  114.09   10.90
 -12   4   3  111.29    9.60
 -12   4   3  120.99   10.80
 -10  -4   3   91.09    8.30
  10  -4  -3   99.49    8.70
 -10  -4   3   93.09    8.80
  10  -4  -3   93.09    8.70
 -10   4   3   82.19    7.90
 -10   4   3   72.79    8.80
  10   4  -3   86.19    8.50
   8  -4  -3   76.99    7.30
   8  -4  -3   84.69    7.20
  -8  -4   3   72.79    7.10
  -8  -4   3   69.09    7.20
  -8  -4   3   76.89    6.50
  -8   4   3   82.89    6.60
   8   4  -3   85.09    7.10
  -8   4   3   69.59    6.90
   8   4  -3   80.89    7.30
  -8   4   3   66.09    7.60
  -6  -4   3  478.45   33.20
  -6  -4   3  541.35   33.20
   6  -4  -3  442.26   31.80
   6  -4  -3  500.65   33.10
  -6  -4   3  489.45   32.50
   6   4  -3  477.65   31.90
  -6   4   3  492.05   33.00
   6   4  -3  506.25   33.10
   6   4  -3  502.15   32.70
  -6   4   3  491.95   32.40
  -6   4   3  507.15   33.10
  -6   4   3  466.15   32.70
  -4  -4   3  172.28   12.00
  -4  -4   3  171.18   11.60
   4  -4  -3  122.09   11.50
  -4  -4   3  187.48   11.80
   4  -4  -3  158.68   11.10
  -4   4   3  153.28   11.70
  -4   4   3  162.38   11.20
  -4   4   3  153.58   11.10
   4   4  -3  157.98   11.10
   4   4  -3  174.38   11.10
  -4   4   3  149.49   11.50
   4   4  -3  158.08   11.60
   4   4  -3  139.39   11.60
   2  -4  -3  635.94   36.50
  -2  -4   3  544.35   36.10
   2  -4  -3  550.94   36.30
   2  -4  -3  575.74   36.70
  -2  -4   3  477.35   36.30
   2   4  -3  511.15   36.20
   2   4  -3  554.04   36.50
  -2   4   3  545.55   36.20
   2   4  -3  556.74   35.70
  -2   4   3  569.54   35.70
  -2   4   3  542.85   36.30
  -2   4   3  553.94   36.60
   0  -4   3  222.68   14.80
   0  -4   3  217.98   15.00
   0  -4  -3  241.58   15.20
   0  -4   3  204.08   14.20
   0  -4  -3  191.68   14.70
   0  -4  -3  196.58   14.40
   0   4  -3  213.58   14.90
   0   4   3  226.78   14.90
   0   4  -3  192.68   14.60
   0   4   3  199.28   14.70
   0   4   3  229.68   14.90
   0   4  -3  173.48   14.70
   0   4  -3  246.98   14.90
   0   4  -3  208.58   14.00
  -2  -4  -3  712.63   46.20
  -2  -4  -3  754.02   46.70
  -2  -4  -3  667.23   47.00
  -2  -4  -3  672.83   47.10
   2  -4   3  677.33   47.00
   2  -4   3  706.83   46.00
  -2   4  -3  728.13   47.00
   2   4   3  703.63   45.80
  -2   4  -3  676.43   46.30
   2   4   3  720.83   46.90
  -2   4  -3  802.72   47.20
  -2   4  -3  716.33   46.10
  -2   4  -3  712.13   46.30
   4  -4   3   65.39    6.20
  -4  -4  -3   58.39    6.90
  -4  -4  -3   65.69    6.40
  -4  -4  -3   67.49    5.50
   4   4   3   62.09    6.10
  -4   4  -3   62.69    4.90
  -4   4  -3   52.59    6.30
  -4   4  -3   60.89    5.60
  -4   4  -3   70.49    5.00
  -4   4  -3   65.09    6.20
  -6  -4  -3   39.40    3.80
  -6  -4  -3   39.60    5.40
  -6  -4  -3   42.80    5.80
   6  -4   3   43.70    5.50
   6  -4   3   40.80    5.60
  -6   4  -3   33.60    5.20
   6   4   3   36.50    5.30
  -6   4  -3   38.30    4.90
  -8  -4  -3    1.00    2.40
   8  -4   3   -0.60    2.20
  -8  -4  -3   -1.50    1.70
   8   4   3    2.80    2.70
  -8   4  -3    6.20    2.80
  -8   4  -3    1.60    1.90
  10  -4   3  186.28   15.70
 -10  -4  -3  186.68   18.40
  13  -5  -3    8.50    3.80
  11  -5  -3   82.19    9.60
 -11  -5   3   65.59    9.10
 -11  -5   3   80.29    8.40
  11  -5  -3  107.99    9.50
 -11   5   3   96.69    9.00
 -11   5   3   93.39    8.30
  11   5  -3   92.09   10.00
  11   5  -3   79.99    9.50
  -9  -5   3    1.10    1.90
   9  -5  -3    0.20    1.90
   9  -5  -3    0.30    2.00
  -9  -5   3    2.70    2.20
  -9   5   3   -0.50    1.40
  -9   5   3    0.10    1.90
   9   5  -3    3.50    2.20
   9   5  -3   -2.90    1.60
  -7  -5   3    0.40    1.40
   7  -5  -3   -2.50    1.30
  -7  -5   3   -2.00    1.30
  -7  -5   3    2.00    1.90
  -7   5   3    2.60    1.70
  -7   5   3    0.40    1.50
  -7   5   3    2.80    1.70
   7   5  -3    1.50    1.70
   7   5  -3    1.70    1.60
  -5  -5   3   52.99    5.00
  -5  -5   3   52.69    5.00
  -5  -5   3   68.09    5.90
   5  -5  -3   50.99    5.10
   5  -5  -3   57.09    4.50
   5   5  -3   50.59    4.60
   5   5  -3   47.00    5.50
  -5   5   3   52.49    5.80
  -5   5   3   45.30    4.30
  -5   5   3   43.60    4.60
  -5   5   3   40.80    5.10
   5   5  -3   54.19    5.90
   5   5  -3   43.80    4.00
   3  -5  -3    8.50    2.40
  -3  -5   3    7.80    2.00
  -3  -5   3    9.30    2.10
   3  -5  -3   10.30    2.10
  -3  -5   3    8.90    2.30
   3  -5  -3    8.20    2.00
  -3   5   3    8.40    1.70
  -3   5   3   11.20    2.50
  -3   5   3    6.40    1.80
   3   5  -3   10.40    2.50
  -3   5   3    9.20    1.80
   3   5  -3    8.00    1.70
   3   5  -3    7.80    2.00
   3   5  -3    9.20    1.70
  -1  -5   3  250.67   18.50
  -1  -5   3  276.87   17.90
   1  -5  -3  235.88   18.40
   1  -5  -3  255.67   18.40
  -1  -5   3  264.27   18.60
   1  -5  -3  267.67   18.20
   1   5  -3  260.97   17.60
   1   5  -3  291.27   18.60
  -1   5   3  258.57   18.40
  -1   5   3  260.77   18.40
  -1   5   3  239.38   17.40
   1   5  -3  285.37   18.60
  -1   5   3  283.07   18.70
   1   5  -3  292.77   18.50
   1  -5   3   35.10    3.00
  -1  -5  -3   25.00    3.90
  -1  -5  -3   40.30    4.70
  -1  -5  -3   42.90    4.60
  -1  -5  -3   37.50    3.50
   1  -5   3   35.40    4.40
  -1   5  -3   32.20    3.20
  -1   5  -3   37.40    4.30
   1   5   3   34.20    4.30
   1   5   3   35.60    2.80
  -1   5  -3   29.10    3.70
  -1   5  -3   39.10    4.50
   3  -5   3   63.89    6.50
  -3  -5  -3   81.39    6.40
  -3  -5  -3   69.39    6.70
  -3  -5  -3   67.39    6.80
   3   5   3   71.09    6.50
  -3   5  -3   67.79    6.50
  -3   5  -3   75.09    5.90
  -3   5  -3   63.29    5.70
  -3   5  -3   75.69    6.70
   5  -5   3   15.50    3.30
  -5  -5  -3   20.90    3.10
  -5  -5  -3   21.30    4.30
  -5  -5  -3   25.00    4.40
   5  -5   3   19.60    3.70
  -5   5  -3   17.60    2.40
  -5   5  -3   20.10    3.90
  -5   5  -3   20.10    3.40
   5   5   3   21.30    3.90
   7  -5   3    2.10    2.30
  -7  -5  -3    0.50    1.10
  -7  -5  -3   -0.50    2.30
  -7  -5  -3    1.70    2.10
  -7   5  -3    3.20    2.30
   7   5   3    0.60    2.30
  -7   5  -3    1.30    2.20
  -9  -5  -3    1.00    2.50
   9  -5   3    0.50    2.70
  -9   5  -3   -0.60    2.20
   9   5   3    2.20    2.90
  12  -6  -3   12.00    4.20
 -12  -6   3   31.40    5.30
  12  -6  -3   29.20    5.80
 -12  -6   3   24.20    5.60
  12   6  -3   25.10    5.60
 -12   6   3   19.20    4.70
  12   6  -3   25.70    5.30
 -12   6   3   24.40    4.30
 -10  -6   3   15.30    4.00
  10  -6  -3   23.20    4.80
  10  -6  -3   18.50    4.40
 -10  -6   3   22.50    4.40
 -10   6   3   28.00    4.80
  10   6  -3   18.50    4.10
  10   6  -3   24.70    4.80
 -10   6   3   15.40    3.50
  -8  -6   3    7.30    2.40
  -8  -6   3   14.30    3.40
   8  -6  -3   10.70    3.30
  -8  -6   3   11.20    3.10
  -8   6   3    7.50    2.70
   8   6  -3   15.20    3.50
  -8   6   3   16.80    3.30
  -8   6   3    8.60    2.60
   8   6  -3   15.20    3.40
   6  -6  -3   36.00    5.10
  -6  -6   3   41.60    5.20
  -6  -6   3   38.10    4.90
  -6  -6   3   36.30    5.50
   6   6  -3   43.20    5.50
   6   6  -3   43.70    5.00
  -6   6   3   52.49    5.90
  -6   6   3   49.40    5.70
  -6   6   3   47.40    5.30
   4  -6  -3   24.20    3.60
  -4  -6   3   26.60    4.00
   4  -6  -3   25.20    4.00
  -4  -6   3   34.20    4.10
   4  -6  -3   24.60    3.70
  -4  -6   3   34.70    4.80
   4   6  -3   24.00    3.00
   4   6  -3   27.50    4.00
  -4   6   3   26.90    4.00
   4   6  -3   28.40    3.60
  -4   6   3   46.70    5.00
   4   6  -3   32.00    4.40
  -4   6   3   32.20    3.80
  -4   6   3   27.80    3.30
  -2  -6   3  273.27   18.00
   2  -6  -3  259.17   18.30
  -2  -6   3  277.77   18.70
  -2  -6   3  242.18   18.80
   2  -6  -3  257.47   18.50
   2   6  -3  275.47   18.70
   2   6  -3  253.47   18.50
  -2   6   3  245.48   18.40
  -2   6   3  245.08   17.60
   2   6  -3  275.17   18.20
   2   6  -3  253.27   17.70
  -2   6   3  310.67   19.10
  -2   6   3  257.17   18.00
   0  -6  -3  231.08   15.70
   0  -6  -3  222.98   16.30
   0  -6   3  209.98   16.30
   0  -6  -3  238.98   16.40
   0   6  -3  231.18   16.10
   0   6  -3  227.58   15.30
   0   6  -3  227.38   16.10
   0   6   3  217.38   16.10
   0   6  -3  222.28   16.20
   0   6   3  213.08   15.90
   2  -6   3  112.99    9.30
  -2  -6  -3  120.99    9.40
  -2  -6  -3  105.79    9.10
  -2  -6  -3   93.09    9.10
  -2   6  -3  105.89    9.10
  -2   6  -3   97.99    8.60
   2   6   3  113.09    9.20
  -2   6  -3  123.39    8.50
  -2   6  -3  130.89    9.70
   4  -6   3   16.20    3.40
  -4  -6  -3   15.80    3.60
  -4  -6  -3   12.80    2.80
  -4  -6  -3   13.50    3.60
   4  -6   3   12.40    3.30
   4   6   3   15.30    3.40
  -4   6  -3   18.90    3.90
  -4   6  -3   17.40    2.90
  -4   6  -3   14.80    2.60
  -6  -6  -3   27.70    4.70
   6  -6   3   20.30    4.10
   6  -6   3   19.90    4.50
  -6  -6  -3   26.60    5.00
  -6  -6  -3   19.70    3.30
  -6   6  -3   24.70    2.90
   6   6   3   18.70    4.20
  -6   6  -3   23.00    4.50
  -8  -6  -3   11.10    3.70
  -8  -6  -3   21.90    5.00
   8  -6   3   18.60    4.60
  -8  -6  -3   15.50    2.80
   8   6   3   14.00    4.00
  -8   6  -3   15.20    4.00
 -11  -7   3   12.30    4.10
 -11  -7   3   13.10    3.70
  11  -7  -3    6.20    3.70
  11  -7  -3   12.00    4.20
 -11   7   3   13.70    3.50
  11   7  -3    9.90    3.90
 -11   7   3    8.40    3.60
  11   7  -3   11.90    4.00
   9  -7  -3   22.40    4.60
  -9  -7   3    9.50    3.50
  -9  -7   3   12.70    3.80
  -9   7   3   16.40    3.90
  -9   7   3   15.00    3.70
   9   7  -3   19.50    4.30
  -9   7   3   25.00    4.60
   9   7  -3   20.70    4.20
  -7  -7   3   58.09    6.90
  -7  -7   3   61.59    7.40
  -7  -7   3   81.69    8.70
   7  -7  -3   49.40    6.90
  -7   7   3   76.39    6.90
  -7   7   3   70.09    7.00
  -7   7   3   56.79    7.10
   7   7  -3   76.29    6.90
   7   7  -3   73.29    7.90
  -5  -7   3   23.60    3.70
   5  -7  -3   15.30    3.30
  -5  -7   3   21.00    4.30
  -5  -7   3   17.90    3.50
   5  -7  -3   16.40    3.20
  -5   7   3   14.60    3.30
   5   7  -3   19.70    3.30
   5   7  -3   17.80    3.50
  -5   7   3   16.60    3.10
  -5   7   3   12.80    3.40
   3  -7  -3  368.96   26.30
   3  -7  -3  383.16   26.80
   3  -7  -3  371.06   26.20
  -3  -7   3  394.16   26.70
  -3  -7   3  381.66   25.90
  -3   7   3  413.86   27.00
   3   7  -3  352.86   25.60
   3   7  -3  426.26   26.90
  -3   7   3  352.56   26.30
  -3   7   3  377.66   25.70
   3   7  -3  393.66   26.50
   1  -7  -3   74.39    6.40
   1  -7  -3   73.29    7.00
  -1  -7   3   70.99    6.80
   1  -7  -3   79.79    6.90
  -1   7   3   66.89    6.70
  -1   7   3   71.19    6.50
   1   7  -3   68.39    6.70
   1   7  -3   74.19    6.80
  -1  -7  -3    8.80    1.90
   1  -7   3    7.70    2.40
   1  -7   3    9.70    2.70
  -1  -7  -3    2.70    1.90
  -1  -7  -3    8.30    2.50
  -1   7  -3    7.70    2.60
  -1   7  -3    7.90    2.00
  -1   7  -3    6.90    2.20
   1   7   3    8.00    2.60
   3  -7   3    5.90    2.40
  -3  -7  -3    2.50    2.10
   3  -7   3    5.40    2.60
  -3  -7  -3    6.40    2.50
  -3  -7  -3    6.50    2.70
  -3   7  -3    6.20    2.60
  -3   7  -3    3.50    1.70
  -3   7  -3    6.20    2.20
   3   7   3    3.90    2.30
  -5  -7  -3   39.00    6.00
   5  -7   3   40.20    6.20
  -5  -7  -3   33.50    5.00
  -5  -7  -3   39.30    6.10
   5  -7   3   41.10    5.80
  -5   7  -3   40.10    4.60
  -5   7  -3   44.00    6.10
   5   7   3   37.70    5.90
  -7  -7  -3   20.50    4.80
   7  -7   3   22.10    5.00
  -7  -7  -3   26.50    5.60
  -7  -7  -3   21.80    3.90
  -7   7  -3   28.40    3.30
   7   7   3   28.20    5.60
  -7   7  -3   28.20    5.40
 -10  -8   3   30.40    5.70
  10  -8  -3   11.80    4.30
 -10  -8   3   28.60    5.60
 -10   8   3   27.20    5.30
  10   8  -3   20.60    4.60
  10   8  -3   22.50    5.00
 -10   8   3   18.10    4.20
  -8  -8   3   54.09    7.10
  -8  -8   3   49.20    7.20
  -8  -8   3   51.29    7.50
   8  -8  -3   64.69    7.80
   8   8  -3   58.79    7.10
  -8   8   3   61.99    7.50
   8   8  -3   61.99    7.70
  -8   8   3   45.00    6.70
  -8   8   3   58.69    7.20
  -6  -8   3  153.78   12.00
   6  -8  -3  134.19   11.80
  -6  -8   3  126.69   12.10
   6   8  -3  134.69   11.80
  -6   8   3  158.98   12.30
  -6   8   3  132.09   11.60
  -6   8   3  167.38   11.60
   6   8  -3  129.59   11.20
   4  -8  -3   91.19    8.10
   4  -8  -3   87.89    8.00
  -4  -8   3   89.29    7.80
  -4  -8   3   75.79    8.00
  -4   8   3   97.69    7.70
   4   8  -3   89.29    8.10
  -4   8   3   91.99    8.20
  -4   8   3   82.89    8.30
   4   8  -3   86.09    7.50
   2  -8  -3   59.09    6.20
  -2  -8   3   68.79    7.80
  -2  -8   3   69.19    6.10
   2  -8  -3   68.49    6.70
   2  -8  -3   51.19    6.80
  -2   8   3   72.99    6.80
   2   8  -3   66.39    7.30
   2   8  -3   66.89    5.90
   2   8  -3   70.89    6.80
   0  -8   3    2.20    1.90
   0  -8   3    0.50    1.60
   0  -8  -3    3.90    2.10
   0  -8  -3    0.60    1.80
   0  -8  -3    2.20    1.40
   0   8   3    0.40    1.90
   0   8  -3    1.20    1.50
   0   8  -3   -1.10    1.60
   0   8   3    0.30    1.60
   0   8  -3   -0.10    1.60
  -2  -8  -3  265.67   18.10
   2  -8   3  227.18   17.90
  -2  -8  -3  225.48   17.90
  -2  -8  -3  239.18   18.20
   2  -8   3  247.78   18.10
  -2   8  -3  246.18   17.60
  -2   8  -3  226.88   18.00
   2   8   3  234.98   17.90
  -4  -8  -3    0.10    2.00
   4  -8   3   -0.10    2.10
  -4  -8  -3    1.30    2.20
   4  -8   3    3.00    2.40
  -4  -8  -3    1.40    2.40
   4   8   3    1.50    2.50
  -4   8  -3    0.20    2.30
  -4   8  -3    0.30    1.50
   6  -8   3  108.69   10.90
  -6  -8  -3  112.29   11.10
  -6  -8  -3  129.49   11.20
  -6  -8  -3  118.39   10.00
  -6   8  -3   97.49    8.80
  -6   8  -3  105.99   10.60
   6   8   3  117.69   10.90
  -8  -8  -3   29.80    5.90
  -8   8  -3   31.90    3.70
  -9  -9   3    1.50    2.80
   9  -9  -3    6.00    3.80
  -9  -9   3    6.70    3.10
  -9   9   3    0.80    2.50
   9   9  -3    2.70    3.30
   9   9  -3    9.80    3.70
  -9   9   3    8.90    3.40
  -9   9   3    5.20    2.80
  -7  -9   3   15.10    3.90
   7  -9  -3   18.40    4.40
  -7  -9   3   27.00    5.30
  -7  -9   3   26.50    4.80
   7   9  -3   18.80    4.30
   7   9  -3   24.60    4.30
  -7   9   3   25.00    4.40
  -7   9   3   15.90    4.30
  -7   9   3   25.70    4.80
   5  -9  -3  100.39    9.90
  -5  -9   3  128.09   10.40
   5  -9  -3  108.09   10.30
  -5  -9   3  107.49   10.50
  -5   9   3  123.49   10.00
  -5   9   3  144.49   11.20
   5   9  -3  117.89   10.50
   5   9  -3  115.79    9.90
  -5   9   3  124.29   10.60
   3  -9  -3   26.40    4.40
  -3  -9   3   32.90    5.40
   3  -9  -3   42.20    5.60
  -3   9   3   24.10    4.40
   3   9  -3   25.20    4.60
   3   9  -3   25.30    4.00
  -1  -9   3   49.60    5.70
   1  -9  -3   46.70    6.20
  -1  -9   3   36.00    5.80
   1  -9  -3   35.20    5.70
   1  -9  -3   48.60    5.60
   1   9  -3   55.69    6.70
   1   9  -3   46.90    6.40
  -1   9   3   39.10    5.90
   1  -9   3    3.10    2.10
  -1  -9  -3   -2.30    1.70
   1  -9   3   -0.10    1.90
  -1  -9  -3   -0.40    2.00
   1   9   3   -0.20    1.60
  -1   9  -3   -1.70    1.90
   1   9   3    3.40    2.30
  -1   9  -3    0.10    1.70
   3  -9   3    5.90    3.00
   3  -9   3    5.40    3.20
  -3  -9  -3    4.80    2.90
  -3  -9  -3    3.20    2.60
  -3  -9  -3    4.10    2.60
   3   9   3    9.80    3.50
  -3   9  -3   10.50    3.30
  -3   9  -3    6.30    2.40
   5  -9   3   -1.70    2.50
  -5  -9  -3   -2.20    2.10
   5  -9   3    1.00    2.70
  -5  -9  -3   -0.90    2.40
  -5  -9  -3    0.20    2.20
  -5   9  -3    3.50    2.90
  -5   9  -3    0.90    1.70
   5   9   3   -1.50    2.20
  -7  -9  -3   10.40    6.80
  -7  -9  -3    2.60    3.20
  -8 -10   3    1.80    2.70
  -8 -10   3    2.60    2.70
   8 -10  -3   -4.30    2.20
   8  10  -3    1.30    2.70
  -8  10   3    1.80    2.50
  -8  10   3    0.40    2.40
  -8  10   3    3.20    2.30
   8  10  -3   -0.90    2.40
   6 -10  -3    3.80    2.90
  -6 -10   3    0.90    2.50
   6  10  -3    2.50    2.60
  -6  10   3    0.70    2.20
   6  10  -3    3.10    2.70
  -6  10   3    1.00    2.50
   4 -10  -3   52.29    6.70
  -4 -10   3   59.49    7.60
   4 -10  -3   54.19    6.90
   4  10  -3   49.20    6.70
  -4  10   3   43.40    6.40
  -2 -10   3   33.30    5.60
   2 -10  -3   45.90    6.20
   2 -10  -3   41.20    5.50
  -2  10   3   25.60    4.90
   2  10  -3   41.90    5.90
   0 -10   3   31.50    5.20
   0 -10  -3   32.70    6.70
   0 -10   3   34.30    5.80
   0 -10  -3   32.00    5.40
   0  10  -3   41.20    5.80
   0  10   3   42.90    6.20
   0  10  -3   36.00    5.60
  -2 -10  -3    4.20    2.90
  -2 -10  -3    6.10    3.00
   2 -10   3    5.90    3.10
   2 -10   3    9.10    3.50
  -2  10  -3    5.20    2.60
  -2  10  -3    3.40    2.80
   2  10   3    6.90    2.90
   4 -10   3    3.30    3.10
  -4 -10  -3    3.00    2.70
  -4 -10  -3    2.50    2.80
  -4 -10  -3    2.20    2.70
   4 -10   3   -2.30    2.50
   4  10   3   -0.10    2.40
  -4  10  -3    2.40    3.00
  -4  10  -3   -0.20    2.00
  -6 -10  -3   31.00    6.20
   7 -11  -3   20.50    5.10
  -7 -11   3   10.40    4.00
  -7  11   3    7.10    3.80
   7  11  -3   10.50    3.80
  -7  11   3   14.50    4.30
  -5 -11   3    0.10    2.70
   5 -11  -3    2.60    2.80
  -5  11   3   -0.40    2.30
   5  11  -3    1.70    2.70
  -3 -11   3   18.50    4.50
   3 -11  -3   19.10    4.40
   3 -11  -3   13.00    3.70
   3  11  -3   19.00    4.20
  -3  11   3   20.90    4.80
   1 -11  -3   34.90    6.00
  -1 -11   3   36.50    6.30
   1  11  -3   24.50    5.40
   1  11  -3   32.00    5.50
  -1  11   3   40.70    6.30
   1 -11   3   21.70    5.00
  -1 -11  -3   17.70    4.70
   1 -11   3   10.50    3.80
  -1  11  -3   17.60    4.50
   1  11   3   11.80    4.00
  -1  11  -3   31.00    5.30
   3 -11   3    3.30    3.50
   3 -11   3    5.80    3.60
  -3 -11  -3    1.20    2.80
  -3 -11  -3   -1.10    2.50
   3  11   3   -0.50    2.30
  -3  11  -3   -1.40    2.60
  -3  11  -3    1.60    2.40
   4 -12  -3    2.50    2.70
   4 -12  -3    2.30    3.60
  -4 -12   3   -1.80    2.80
  -4  12   3   -4.10    2.00
   4  12  -3    1.90    3.00
  -2 -12   3   13.50    4.80
   2 -12  -3   21.50    5.20
   2  12  -3   15.90    4.30
  -2  12   3   16.30    4.40
   0 -12   3   22.00    5.30
   0 -12  -3   22.20    5.20
   0  12  -3   25.60    5.50
   0  12   3   22.90    5.30
   0  12  -3   23.20    5.20
   2 -12   3  148.89   12.90
   2 -12   3  100.19   12.20
  -2  12  -3   97.69   12.70
  -2  12  -3  134.29   12.00
 -14   0   4  148.29   13.20
 -14   0   4  134.49   18.70
 -12   0   4    1.00    2.10
 -12   0   4   -0.10    2.00
 -12   0   4   -1.40    1.40
  12   0  -4    2.00    2.50
  10   0  -4  440.16   29.40
 -10   0   4  427.36   29.10
 -10   0   4  406.26   29.00
 -10   0   4  395.06   29.00
  10   0  -4  423.76   28.60
   8   0  -4    2.20    1.50
   8   0  -4    1.40    1.80
  -8   0   4    0.30    1.50
  -8   0   4    2.20    1.70
  -8   0   4   -0.20    1.20
  -6   0   4  639.84   43.10
   6   0  -4  589.94   43.00
   6   0  -4  651.33   42.90
  -6   0   4  632.34   41.90
  -6   0   4  687.23   42.70
   6   0  -4  647.34   42.70
  -6   0   4  703.63   43.10
   4   0  -4 1114.69   70.89
   4   0  -4 1044.10   71.09
  -4   0   4 1012.80   70.69
  -4   0   4 1120.89   71.19
  -4   0   4 1195.98   71.49
   4   0  -4 1120.19   71.39
  -4   0   4 1092.39   70.69
  -2   0   4 1316.07   94.19
   2   0  -4 1517.85   94.39
   2   0  -4 1500.55   94.29
   2   0  -4 1525.15   94.39
  -2   0   4 1414.96   94.39
   2   0  -4 1489.35   93.89
  -2   0   4 1481.65   93.59
   0   0  -4   79.59    6.50
   0   0   4   86.69    6.60
   0   0  -4   79.39    5.90
   0   0  -4   91.69    6.20
   0   0   4   78.09    5.70
   0   0  -4   79.79    6.10
   0   0  -4   75.09    6.60
  -2   0  -4    5.40    1.80
   2   0   4    7.30    2.00
  -2   0  -4    5.60    1.00
  -2   0  -4    5.20    1.00
  -2   0  -4    8.60    1.70
  -2   0  -4    6.10    1.90
   2   0   4    5.70    1.40
  -4   0  -4    5.90    2.00
   4   0   4    7.70    2.00
  -4   0  -4    8.30    1.90
  -4   0  -4    4.40    2.10
  -6   0  -4  149.79   11.10
  -6   0  -4  133.89   11.30
  -6   0  -4  124.09   11.30
   6   0   4  146.69   11.10
   8   0   4   11.40    3.30
  -8   0  -4   18.70    4.10
  13  -1  -4    3.50    3.30
 -13  -1   4    1.30    2.50
 -13  -1   4   -0.90    2.30
 -13  -1   4    3.60    2.30
  13   1  -4   -1.50    2.50
 -13   1   4    3.70    2.50
 -13   1   4    0.50    1.80
 -13   1   4    3.20    2.70
  11  -1  -4   65.39    7.90
 -11  -1   4   54.09    7.00
  11  -1  -4   63.99    7.00
 -11  -1   4   70.39    6.70
 -11  -1   4   52.99    7.10
  11   1  -4   74.49    8.20
 -11   1   4   73.59    7.90
 -11   1   4   60.99    7.30
 -11   1   4   62.09    7.10
  -9  -1   4  112.39    8.90
   9  -1  -4  112.09    9.20
  -9  -1   4  103.59    9.10
  -9  -1   4   88.19    8.70
   9  -1  -4  117.29    8.90
   9   1  -4  114.59    9.30
  -9   1   4   94.89    8.80
   9   1  -4  109.69    8.40
  -9   1   4  100.29    9.00
  -9   1   4   99.09    8.80
  -7  -1   4   64.49    6.40
  -7  -1   4   71.09    6.50
  -7  -1   4   53.79    5.80
  -7  -1   4   67.49    5.30
   7  -1  -4   78.49    6.40
   7  -1  -4   69.99    6.30
   7   1  -4   76.89    6.60
   7   1  -4   77.89    6.10
  -7   1   4   75.09    6.60
  -7   1   4   75.39    6.30
  -7   1   4   92.59    6.70
  -5  -1   4   72.79    5.50
  -5  -1   4   67.39    6.30
   5  -1  -4   73.89    6.10
  -5  -1   4   70.49    6.10
   5  -1  -4   73.79    5.90
  -5  -1   4   71.49    5.70
   5   1  -4   75.19    6.00
   5   1  -4   74.39    5.90
  -5   1   4   74.09    6.30
  -5   1   4   75.99    5.90
  -5   1   4   70.29    6.10
   5   1  -4   73.39    6.30
  -3  -1   4    5.90    1.50
  -3  -1   4    4.90    1.50
   3  -1  -4    2.30    1.30
   3  -1  -4    4.40    1.10
  -3  -1   4    4.30    1.50
  -3  -1   4    4.50    0.90
   3  -1  -4    4.40    1.30
   3  -1  -4    4.20    1.40
  -3   1   4    6.70    1.90
  -3   1   4    4.20    1.20
   3   1  -4    4.30    1.50
   3   1  -4    3.80    1.20
   3   1  -4    4.10    1.30
  -3   1   4    2.60    1.20
   1  -1  -4  146.79   10.80
  -1  -1   4  158.78   11.00
   1  -1  -4  131.49   10.70
   1  -1  -4  186.68   11.20
   1  -1  -4  163.58   11.10
   1  -1  -4  154.38   10.10
   1   1  -4  144.99   10.70
  -1   1   4  164.28   11.00
   1   1  -4  148.79   10.80
   1   1  -4  127.99   10.80
  -1   1   4  157.48   11.00
   1   1  -4  139.09   11.00
   1   1  -4  155.58   10.60
  -1   1   4  159.88   10.40
   1  -1   4  614.34   40.80
  -1  -1  -4  643.74   40.90
  -1  -1  -4  615.34   40.30
  -1  -1  -4  574.54   41.00
  -1  -1  -4  624.14   40.30
  -1  -1  -4  598.84   40.10
  -1   1  -4  627.84   40.30
   1   1   4  634.44   41.10
  -1   1  -4  611.84   40.60
   1   1   4  607.04   40.40
  -1   1  -4  731.73   41.40
  -1   1  -4  588.34   41.00
  -1   1  -4  613.54   40.20
  -3  -1  -4  199.28   13.20
   3  -1   4  194.28   14.40
  -3  -1  -4  190.18   14.70
  -3  -1  -4  197.08   14.40
  -3  -1  -4  202.08   13.30
  -3  -1  -4  217.88   14.00
  -3   1  -4  206.78   14.70
  -3   1  -4  207.58   14.10
  -3   1  -4  203.68   14.80
  -3   1  -4  205.88   14.30
   3   1   4  190.48   14.20
  -5  -1  -4    6.30    2.40
  -5  -1  -4    8.30    2.40
  -5  -1  -4    3.40    2.20
  -5   1  -4    9.10    2.50
  -5   1  -4   13.70    2.70
   5   1   4   10.50    2.50
   5   1   4   11.00    2.30
  -5   1  -4   10.40    2.50
  -5   1  -4    5.20    2.20
  -7  -1  -4    9.80    3.10
  -7  -1  -4   13.90    3.40
   7   1   4   10.30    3.00
  -7   1  -4   11.10    3.00
  -9  -1  -4    1.20    2.50
   9   1   4    0.70    2.50
 -14  -2   4   17.00    6.30
  12  -2  -4   37.70    6.20
 -12  -2   4   33.40    5.80
 -12  -2   4   44.90    5.90
 -12  -2   4   33.40    5.50
 -12   2   4   37.90    5.30
  12   2  -4   43.90    6.70
 -12   2   4   29.80    5.10
 -12   2   4   34.40    5.60
  10  -2  -4   15.30    3.20
 -10  -2   4   18.50    3.90
 -10  -2   4   13.20    3.40
  10  -2  -4   20.20    3.90
 -10  -2   4    7.20    2.50
 -10   2   4   14.50    3.20
 -10   2   4   11.70    3.20
 -10   2   4   16.10    3.30
  10   2  -4    9.40    3.20
  -8  -2   4    1.30    1.60
   8  -2  -4   -0.40    1.40
  -8  -2   4    3.00    1.80
  -8  -2   4    5.40    2.20
   8  -2  -4    2.60    1.80
   8   2  -4    5.30    2.10
  -8   2   4    4.20    1.90
  -8   2   4    2.50    1.70
   8   2  -4    3.50    1.50
  -8   2   4    1.40    1.70
   6  -2  -4  150.78   10.90
   6  -2  -4  139.09   11.10
   6  -2  -4  144.59   10.00
   6  -2  -4  158.28   11.50
  -6  -2   4  144.59   11.30
  -6  -2   4  164.98   10.80
  -6  -2   4  157.38   11.40
  -6  -2   4  151.18   10.50
  -6   2   4  137.49   10.90
   6   2  -4  146.79   10.70
  -6   2   4  146.29   11.00
  -6   2   4  148.39   11.30
   6   2  -4  155.28   11.40
   6   2  -4  145.99   11.10
   4  -2  -4  178.68   12.00
   4  -2  -4  169.38   12.60
   4  -2  -4  168.38   12.40
   4  -2  -4  200.18   12.10
  -4  -2   4  159.08   11.70
  -4  -2   4  162.58   12.40
  -4  -2   4  158.78   12.60
  -4  -2   4  179.98   12.20
   4   2  -4  169.38   12.30
  -4   2   4  194.68   12.50
  -4   2   4  160.18   12.50
  -4   2   4  168.68   12.20
   4   2  -4  170.08   12.60
   4   2  -4  186.28   12.30
   2  -2  -4  212.48   13.80
   2  -2  -4  185.68   13.60
  -2  -2   4  215.98   13.80
   2  -2  -4  210.28   12.80
  -2  -2   4  169.28   13.40
   2  -2  -4  205.48   13.80
  -2  -2   4  172.18   13.60
  -2   2   4  209.08   13.80
  -2   2   4  220.98   13.80
   2   2  -4  153.88   13.40
  -2   2   4  186.38   13.30
   2   2  -4  211.68   13.60
   2   2  -4  185.08   13.70
   0  -2   4    2.30    1.50
   0  -2  -4    0.30    1.00
   0  -2  -4    2.30    1.30
   0  -2  -4   -0.20    0.80
   0  -2  -4    0.40    0.80
   0  -2   4    0.40    0.90
   0   2  -4    0.70    0.80
   0   2   4   -0.40    0.90
   0   2  -4   -0.10    1.20
   0   2  -4    0.90    1.00
   0   2   4    0.30    1.30
   0   2  -4   -0.20    0.70
  -2  -2  -4   21.40    2.40
  -2  -2  -4   19.10    3.20
  -2  -2  -4   23.30    3.10
  -2  -2  -4   21.90    2.50
   2  -2   4   22.80    3.10
   2  -2   4   25.50    3.60
  -2   2  -4   22.70    2.10
  -2   2  -4   21.10    2.50
  -2   2  -4   25.00    3.50
  -2   2  -4   20.80    2.10
  -2   2  -4   20.80    3.00
   2   2   4   22.60    3.00
  -4  -2  -4   85.69    8.40
  -4  -2  -4  100.49    6.90
  -4  -2  -4  103.99    8.00
  -4  -2  -4   93.89    8.40
   4  -2   4  101.69    8.10
  -4  -2  -4  101.29    6.80
   4  -2   4   99.19    8.50
  -4   2  -4  102.09    7.80
  -4   2  -4   87.39    8.30
  -4   2  -4  106.29    8.30
   4   2   4   93.29    8.10
   4   2   4  100.09    7.50
   6  -2   4    3.10    1.80
  -6  -2  -4   -0.40    2.00
   6  -2   4    3.50    1.90
  -6  -2  -4    0.90    1.90
  -6   2  -4    6.00    2.30
  -6   2  -4    6.60    2.40
   6   2   4    1.70    1.90
  -6   2  -4    5.40    2.20
  -8  -2  -4   16.30    4.30
   8  -2   4   13.30    3.60
   8   2   4   19.60    4.10
  13  -3  -4   53.29    7.80
 -13  -3   4   37.50    6.80
 -13  -3   4   53.19    7.60
 -13  -3   4   49.30    6.50
  13   3  -4   42.80    6.90
 -13   3   4   54.99    6.60
 -13   3   4   48.50    7.20
  11  -3  -4   11.60    3.30
 -11  -3   4    7.30    2.90
 -11  -3   4    8.70    3.00
  11  -3  -4    6.50    3.10
 -11  -3   4    7.70    2.70
  11   3  -4    3.30    2.60
 -11   3   4    8.60    3.40
 -11   3   4    8.60    2.70
 -11   3   4    3.70    2.90
   9  -3  -4  110.49   10.10
  -9  -3   4  130.29   10.50
  -9  -3   4  117.19   10.10
   9  -3  -4  131.99   10.50
  -9  -3   4  131.49   10.50
  -9   3   4  116.49    9.90
  -9   3   4  128.09   10.30
   9   3  -4  127.09   10.60
  -9   3   4  124.49   10.30
  -7  -3   4  207.08   17.20
   7  -3  -4  247.88   17.10
  -7  -3   4  243.98   17.50
  -7  -3   4  247.08   16.60
  -7  -3   4  232.48   16.90
   7  -3  -4  251.47   17.40
   7   3  -4  230.08   16.40
  -7   3   4  232.58   17.10
  -7   3   4  243.78   17.00
  -7   3   4  267.67   17.60
   7   3  -4  244.18   17.40
  -5  -3   4  442.06   29.90
  -5  -3   4  465.25   29.40
  -5  -3   4  448.86   29.80
   5  -3  -4  472.35   28.90
   5  -3  -4  452.95   29.20
   5  -3  -4  431.96   29.60
   5  -3  -4  447.26   29.80
   5   3  -4  452.35   29.60
  -5   3   4  423.26   29.30
   5   3  -4  421.56   29.80
  -5   3   4  387.76   29.60
  -5   3   4  438.26   29.50
   5   3  -4  428.66   29.20
   3  -3  -4   28.20    3.40
   3  -3  -4   27.70    3.20
  -3  -3   4   26.20    3.40
   3  -3  -4   17.30    2.90
   3  -3  -4   22.60    2.20
  -3  -3   4   25.20    3.10
  -3  -3   4   28.30    3.30
  -3   3   4   23.00    3.10
   3   3  -4   18.70    2.90
   3   3  -4   23.10    2.00
   3   3  -4   25.20    3.10
   3   3  -4   19.90    3.00
  -3   3   4   19.50    2.80
  -3   3   4   23.50    3.20
  -1  -3   4    4.40    1.50
   1  -3  -4    2.30    1.50
  -1  -3   4    5.10    1.60
   1  -3  -4    3.20    1.40
  -1  -3   4    4.10    1.30
   1  -3  -4    4.40    1.50
  -1   3   4    0.00    1.30
   1   3  -4    1.20    1.30
  -1   3   4    3.30    1.30
   1   3  -4    5.30    1.60
   1   3  -4    3.60    1.40
   1   3  -4    1.10    1.10
  -1   3   4    3.10    1.30
  -1  -3  -4   -0.70    0.80
  -1  -3  -4   -1.10    0.80
  -1  -3  -4    1.50    1.40
  -1  -3  -4   -0.10    1.00
   1  -3   4   -1.60    0.70
   1  -3   4    0.90    1.20
  -1   3  -4    0.20    0.60
   1   3   4   -0.30    1.00
  -1   3  -4    0.40    0.80
  -1   3  -4    0.70    1.20
   1   3   4   -0.10    1.00
  -1   3  -4    0.30    0.70
  -1   3  -4    0.40    1.20
   3  -3   4  125.49    9.80
  -3  -3  -4  132.29    9.60
  -3  -3  -4  143.29   10.00
  -3  -3  -4  105.79   10.40
  -3  -3  -4  124.99    9.50
  -3  -3  -4  142.19   10.80
   3  -3   4  134.39   10.60
  -3   3  -4  143.49    9.70
   3   3   4  127.59   10.20
  -3   3  -4  139.69    9.10
  -3   3  -4  137.59   10.70
  -3   3  -4  128.49   10.40
  -3   3  -4  137.19    9.20
  -5  -3  -4   21.00    4.20
   5  -3   4   18.10    3.60
  -5  -3  -4   16.00    2.00
  -5  -3  -4   20.50    3.70
  -5  -3  -4   20.50    2.20
  -5   3  -4   21.30    3.20
  -5   3  -4   18.00    3.40
   5   3   4   14.70    3.20
  -5   3  -4   17.70    3.50
  -7  -3  -4    2.20    2.40
  -7  -3  -4    2.80    2.20
   7  -3   4    4.80    2.50
  -7   3  -4    1.50    2.10
   7   3   4    5.80    2.70
   9  -3   4   45.40    7.10
  -9  -3  -4   52.69    7.80
 -12  -4   4    3.50    2.40
  12  -4  -4    2.50    2.70
 -12  -4   4    1.70    2.50
  12  -4  -4   -0.90    2.50
 -12   4   4    1.50    2.00
  12   4  -4   -0.30    2.30
  12   4  -4    2.80    2.80
 -12   4   4    3.60    2.60
  10  -4  -4  169.08   12.90
 -10  -4   4  152.28   12.90
 -10  -4   4  160.28   13.00
  10  -4  -4  165.28   12.90
 -10   4   4  144.69   12.60
 -10   4   4  137.99   12.40
  10   4  -4  164.58   13.10
  -8  -4   4  231.08   15.70
   8  -4  -4  205.78   14.90
   8  -4  -4  203.58   15.10
  -8  -4   4  191.28   14.30
  -8  -4   4  174.08   14.80
   8   4  -4  188.38   15.00
  -8   4   4  199.38   15.00
  -8   4   4  192.68   14.50
  -8   4   4  214.08   15.20
   6  -4  -4  199.08   14.10
  -6  -4   4  167.38   14.30
   6  -4  -4  212.58   14.70
  -6  -4   4  181.48   14.70
   6  -4  -4  198.78   13.50
  -6  -4   4  203.48   14.20
  -6   4   4  197.38   14.60
   6   4  -4  198.38   13.90
  -6   4   4  201.48   14.50
  -6   4   4  213.68   14.20
   6   4  -4  209.58   14.90
   6   4  -4  182.98   13.60
   6   4  -4  198.68   14.50
   4  -4  -4   62.09    6.10
  -4  -4   4   78.69    6.30
  -4  -4   4   63.09    6.10
   4  -4  -4   76.59    6.00
  -4  -4   4   85.59    6.90
   4  -4  -4   77.59    5.60
   4  -4  -4   64.39    6.30
   4   4  -4   73.09    6.50
  -4   4   4   74.59    6.50
   4   4  -4   65.79    5.80
   4   4  -4   69.49    5.40
  -4   4   4   73.99    6.10
   4   4  -4   67.69    6.20
  -4   4   4   78.99    6.20
  -2  -4   4 1412.56   83.79
   2  -4  -4 1165.98   83.49
   2  -4  -4 1307.97   83.49
   2  -4  -4 1410.66   83.79
  -2  -4   4 1319.87   83.69
   2  -4  -4 1295.67   82.29
  -2  -4   4 1149.39   83.09
  -2   4   4 1342.57   83.49
   2   4  -4 1303.97   83.49
   2   4  -4 1238.08   83.49
   2   4  -4 1306.47   82.39
  -2   4   4 1261.27   83.59
  -2   4   4 1222.58   83.29
   2   4  -4 1308.77   83.59
   0  -4   4    0.10    1.40
   0  -4   4    0.50    0.90
   0  -4  -4    0.50    1.40
   0  -4  -4   -0.40    0.90
   0  -4  -4    0.10    1.00
   0   4  -4    0.70    1.10
   0   4  -4    3.30    1.50
   0   4   4    1.10    1.50
   0   4  -4    0.20    1.30
   0   4  -4    0.70    0.60
   0   4   4    0.10    1.20
   2  -4   4 1016.10   63.79
  -2  -4  -4  869.21   63.69
  -2  -4  -4  983.10   63.79
  -2  -4  -4  945.01   62.99
  -2  -4  -4 1008.80   62.99
   2  -4   4  968.50   62.69
  -2   4  -4  969.60   62.49
  -2   4  -4  980.10   63.49
  -2   4  -4  915.71   63.59
  -2   4  -4  982.00   62.59
   2   4   4  990.40   63.29
  -2   4  -4  972.20   63.49
  -4  -4  -4  251.37   20.50
  -4  -4  -4  316.07   19.60
  -4  -4  -4  304.57   21.10
   4  -4   4  276.87   20.50
  -4   4  -4  287.07   20.60
  -4   4  -4  258.57   20.30
  -4   4  -4  290.67   18.90
  -4   4  -4  294.87   18.90
   4   4   4  273.87   20.40
  -6  -4  -4   27.40    5.10
  -6  -4  -4   38.70    5.30
  -6  -4  -4   30.30    3.10
   6  -4   4   35.50    5.10
   6  -4   4   34.00    5.20
  -6   4  -4   33.50    5.10
   6   4   4   33.00    5.20
  -8  -4  -4    7.00    3.50
   8  -4   4   10.40    3.70
  -8  -4  -4   10.10    3.40
   8   4   4   11.40    3.50
  -8   4  -4   10.70    3.40
  13  -5  -4   24.80    5.40
  13   5  -4   15.70    4.60
  11  -5  -4   48.10    6.70
 -11  -5   4   45.90    6.70
 -11  -5   4   47.90    7.10
  11  -5  -4   60.99    7.40
 -11   5   4   55.59    6.60
 -11   5   4   39.90    6.30
  11   5  -4   34.30    5.80
  11   5  -4   70.39    8.20
  -9  -5   4   21.00    4.20
   9  -5  -4   23.20    4.20
   9  -5  -4   23.50    4.20
  -9  -5   4   21.40    4.30
  -9   5   4   26.60    4.40
   9   5  -4   23.50    4.00
   9   5  -4   28.70    4.90
  -9   5   4   15.90    3.70
  -7  -5   4   42.10    5.00
   7  -5  -4   43.80    5.60
  -7  -5   4   29.20    4.90
   7  -5  -4   42.50    5.10
  -7  -5   4   49.80    6.00
  -7   5   4   49.10    5.80
   7   5  -4   44.90    5.00
   7   5  -4   51.79    5.90
  -7   5   4   33.20    5.10
  -7   5   4   45.80    4.80
   5  -5  -4   12.50    2.60
   5  -5  -4   11.20    2.20
   5  -5  -4   12.10    2.80
  -5  -5   4    8.80    2.40
  -5  -5   4   15.10    2.90
  -5  -5   4    7.70    2.40
  -5   5   4   16.60    3.00
   5   5  -4   15.30    2.90
  -5   5   4   17.20    2.70
   5   5  -4   12.50    2.70
   5   5  -4   10.40    2.10
   5   5  -4   13.90    2.30
  -5   5   4   11.20    2.60
   3  -5  -4   37.50    4.80
   3  -5  -4   66.69    5.30
  -3  -5   4   43.40    4.70
  -3  -5   4   48.20    5.50
   3  -5  -4   62.49    5.60
  -3  -5   4   39.70    5.40
   3   5  -4   54.09    5.10
   3   5  -4   51.59    4.10
  -3   5   4   51.49    5.00
   3   5  -4   54.09    5.80
  -3   5   4   48.60    4.80
   3   5  -4   57.59    4.90
  -1  -5   4   30.60    4.10
  -1  -5   4   27.30    3.20
   1  -5  -4   23.20    3.20
   1  -5  -4   29.30    4.10
   1  -5  -4   29.30    3.80
   1   5  -4   24.20    2.40
   1   5  -4   20.70    3.40
  -1   5   4   27.00    3.90
   1   5  -4   24.20    3.60
  -1   5   4   33.10    4.10
   1   5  -4   26.70    3.60
  -1  -5  -4    5.50    2.30
   1  -5   4    7.20    2.10
  -1  -5  -4    5.90    2.00
   1  -5   4    6.70    2.20
  -1  -5  -4    6.50    1.80
  -1   5  -4    2.90    1.90
  -1   5  -4    7.20    1.80
  -1   5  -4    5.00    2.10
   1   5   4    8.50    2.20
   1   5   4    9.90    2.60
  -3  -5  -4   28.90    3.90
   3  -5   4   48.00    5.60
  -3  -5  -4   28.70    4.70
  -3  -5  -4   31.30    4.80
  -3   5  -4   34.70    3.50
  -3   5  -4   25.60    4.30
  -3   5  -4   32.50    4.70
   3   5   4   39.50    5.00
   5  -5   4   47.80    6.40
  -5  -5  -4   43.70    6.60
  -5  -5  -4   58.29    6.90
  -5  -5  -4   48.50    4.70
  -5   5  -4   46.40    3.80
  -5   5  -4   50.19    6.20
   5   5   4   44.30    6.20
  -7  -5  -4    7.20    3.00
   7  -5   4    8.90    3.40
  -7  -5  -4    7.50    1.70
  -7  -5  -4    4.20    3.20
  -7   5  -4    5.50    3.00
   7   5   4    7.80    3.30
  12  -6  -4    6.60    3.60
 -12  -6   4   15.20    4.70
  12  -6  -4    9.40    3.90
 -12  -6   4   18.80    4.40
  12   6  -4   10.00    3.80
 -12   6   4   13.60    4.30
  12   6  -4   22.70    5.40
 -12   6   4   17.10    3.80
  10  -6  -4   49.00    6.70
 -10  -6   4   36.80    6.00
  10  -6  -4   40.40    6.10
 -10  -6   4   43.30    6.40
  10   6  -4   39.70    6.50
 -10   6   4   62.59    7.50
 -10   6   4   55.29    6.70
  10   6  -4   41.90    5.90
  -8  -6   4    1.30    1.70
   8  -6  -4    2.10    2.10
  -8  -6   4    0.80    2.00
   8  -6  -4    2.00    2.00
  -8  -6   4    0.40    1.80
   8   6  -4   -2.10    1.50
   8   6  -4    1.40    2.10
  -8   6   4    3.60    2.00
  -8   6   4    0.60    1.70
  -6  -6   4    7.50    2.50
  -6  -6   4    4.10    2.10
   6  -6  -4    6.10    2.40
  -6  -6   4    7.60    2.80
   6   6  -4    7.80    2.20
  -6   6   4    6.80    2.10
  -6   6   4    5.40    2.30
  -6   6   4    8.50    2.40
  -6   6   4    5.10    2.20
   6   6  -4   11.50    3.00
   4  -6  -4   20.80    3.30
  -4  -6   4   18.50    3.30
   4  -6  -4   20.50    3.70
  -4  -6   4   12.90    2.80
   4  -6  -4   19.20    3.30
  -4  -6   4   14.10    3.20
   4   6  -4   13.20    3.30
  -4   6   4   19.70    3.60
  -4   6   4   20.70    3.00
   4   6  -4   16.40    2.80
   4   6  -4   18.70    3.50
  -4   6   4   19.60    2.70
  -4   6   4   18.10    3.30
   4   6  -4   14.30    2.40
   2  -6  -4    7.50    2.10
   2  -6  -4    8.90    2.60
  -2  -6   4   10.80    2.60
  -2  -6   4   11.60    2.30
   2  -6  -4   11.90    2.70
  -2   6   4    9.90    2.40
   2   6  -4    9.30    2.50
  -2   6   4    8.00    2.40
   2   6  -4   10.10    2.40
   2   6  -4    8.60    2.50
   0  -6  -4    0.10    1.50
   0  -6  -4    3.00    1.40
   0  -6   4   -0.20    1.60
   0  -6  -4   -0.60    1.50
   0   6   4    0.00    1.40
   0   6   4   -1.80    1.20
   0   6  -4    1.10    1.40
   0   6  -4    0.10    1.70
   0   6  -4   -0.60    1.40
  -2  -6  -4   53.59    5.80
   2  -6   4   71.99    6.80
  -2  -6  -4   69.59    7.60
   2   6   4   65.19    7.00
  -2   6  -4   64.69    5.80
  -2   6  -4   66.89    7.40
  -2   6  -4   58.19    6.80
  -4  -6  -4  117.49   10.60
   4  -6   4  115.69   10.40
  -4  -6  -4  125.59   10.80
  -4  -6  -4  110.99    9.40
   4   6   4  112.39   10.20
  -4   6  -4  114.79   10.50
  -4   6  -4  129.89    9.10
   6  -6   4   -0.40    2.40
  -6  -6  -4    7.60    3.40
  -6  -6  -4    4.20    1.80
   6  -6   4    0.30    2.40
  -6  -6  -4    4.80    2.80
  -6   6  -4    2.70    1.00
   6   6   4    2.80    2.80
  -6   6  -4    1.40    2.40
  -8  -6  -4   32.70    6.50
  -8  -6  -4   33.80    5.90
   8  -6   4   30.10    5.70
   8   6   4   29.10    6.00
  -8   6  -4   28.30    5.40
 -11  -7   4   29.50    5.70
  11  -7  -4   17.00    4.60
 -11  -7   4   17.50    4.90
  11   7  -4   24.60    5.50
 -11   7   4   21.60    4.50
  11   7  -4   18.10    4.60
 -11   7   4   17.60    4.50
  -9  -7   4   73.59    8.90
   9  -7  -4   65.59    8.60
   9  -7  -4   84.49    8.10
  -9  -7   4   69.69    8.60
  -9   7   4   76.39    8.60
  -9   7   4   58.09    8.00
   9   7  -4   94.89    8.20
   9   7  -4  102.59   10.20
  -7  -7   4   71.79    8.10
  -7  -7   4   48.30    6.50
   7  -7  -4   64.29    7.40
  -7  -7   4   73.59    7.00
  -7   7   4   71.29    7.70
   7   7  -4   65.39    7.70
  -7   7   4   61.19    7.30
  -7   7   4   55.89    6.70
   7   7  -4   66.19    7.00
   5  -7  -4   32.30    4.70
   5  -7  -4   34.20    4.60
  -5  -7   4   30.40    4.60
  -5  -7   4   38.00    5.00
   5   7  -4   27.00    4.70
  -5   7   4   41.00    4.50
  -5   7   4   32.80    4.90
   5   7  -4   33.10    4.10
  -5   7   4   36.70    5.30
   3  -7  -4    3.50    1.90
  -3  -7   4    7.20    2.40
  -3  -7   4    6.20    2.00
   3  -7  -4    6.40    2.40
   3  -7  -4    4.00    2.00
   3   7  -4    6.00    2.00
   3   7  -4    8.90    2.60
   3   7  -4    9.80    2.70
  -3   7   4    5.50    2.20
  -3   7   4    6.50    2.20
   1  -7  -4   68.69    7.40
   1  -7  -4   90.69    7.10
   1  -7  -4   83.79    7.60
  -1  -7   4   71.49    7.40
   1   7  -4   78.49    7.40
   1   7  -4   76.19    7.30
  -1   7   4   84.19    7.50
   1   7  -4   78.49    7.20
  -1   7   4   82.29    7.40
  -1  -7  -4  306.97   20.10
   1  -7   4  291.77   20.30
  -1  -7  -4  235.98   19.90
  -1   7  -4  267.07   20.00
  -1   7  -4  284.47   19.60
   1   7   4  260.27   19.80
   1   7   4  290.07   20.00
  -1   7  -4  255.57   19.80
  -3  -7  -4  210.98   15.70
   3  -7   4  196.18   15.50
   3  -7   4  242.28   16.10
  -3  -7  -4  160.88   14.60
  -3  -7  -4  173.28   15.50
  -3   7  -4  197.98   15.40
  -3   7  -4  204.38   14.50
   3   7   4  205.38   15.40
   5  -7   4    0.00    2.30
  -5  -7  -4    1.70    2.40
  -5  -7  -4    0.50    1.50
   5  -7   4   -0.50    2.20
  -5  -7  -4   -0.20    1.90
  -5   7  -4    0.50    1.20
  -5   7  -4   -1.10    1.80
   5   7   4    0.90    2.30
   7  -7   4   13.60    4.10
  -7  -7  -4    7.60    2.30
  -7  -7  -4   10.20    3.70
  -7  -7  -4    6.00    3.40
  -7   7  -4    7.10    3.60
   7   7   4    9.50    3.60
  10  -8  -4   86.29   10.40
 -10  -8   4   75.39   10.00
 -10  -8   4   78.59   10.10
  10  -8  -4  102.19   10.40
 -10   8   4  100.69   10.80
  10   8  -4   88.39    9.90
  10   8  -4   93.49   10.60
 -10   8   4   91.39   10.10
  -8  -8   4    4.10    2.70
  -8  -8   4    4.70    2.60
   8  -8  -4    4.60    2.80
  -8  -8   4    3.00    2.70
  -8   8   4    6.80    3.20
  -8   8   4    0.50    2.10
  -8   8   4    8.20    3.30
   8   8  -4    2.00    2.40
   8   8  -4    9.30    3.30
   6  -8  -4   64.49    7.30
  -6  -8   4   61.89    7.10
  -6  -8   4   56.99    7.00
  -6   8   4   49.20    6.70
  -6   8   4   48.70    7.10
   6   8  -4   44.20    6.40
  -6   8   4   51.59    7.00
   4  -8  -4  179.38   14.10
   4  -8  -4  174.18   13.90
  -4  -8   4  206.88   13.90
  -4  -8   4  177.18   14.40
   4   8  -4  194.08   14.40
   4   8  -4  162.28   14.30
  -4   8   4  175.38   14.10
   2  -8  -4  201.08   15.40
  -2  -8   4  186.28   15.90
   2  -8  -4  209.28   16.20
   2  -8  -4  198.18   15.70
   2   8  -4  224.68   16.20
   2   8  -4  193.38   15.80
  -2   8   4  212.78   15.30
  -2   8   4  202.98   15.80
   2   8  -4  242.68   15.60
   0  -8  -4   44.10    5.90
   0  -8   4   35.60    5.70
   0  -8  -4   36.10    5.50
   0   8  -4   31.70    5.10
   0   8   4   43.20    5.70
   0   8  -4   33.80    4.90
   0   8   4   38.80    5.50
  -2  -8  -4    0.90    2.40
   2  -8   4    3.90    2.70
  -2  -8  -4    2.70    2.20
   2  -8   4    4.30    2.70
   2   8   4    3.60    2.30
  -2   8  -4    3.30    1.90
   2   8   4    0.70    1.90
  -2   8  -4    0.90    2.10
  -4  -8  -4    7.40    2.70
   4  -8   4    7.40    3.50
   4  -8   4    8.80    3.40
  -4  -8  -4   12.10    3.90
  -4  -8  -4   15.30    4.20
  -4   8  -4    7.20    2.40
   4   8   4    7.30    3.30
  -4   8  -4    9.90    3.60
  -6  -8  -4   23.10    5.20
  -6  -8  -4   17.30    3.60
  -6  -8  -4   24.60    5.60
   6  -8   4   21.00    5.20
   6   8   4   20.00    4.80
  -6   8  -4   19.50    3.10
  -6   8  -4   25.70    5.20
  -9  -9   4   32.10    5.90
  -9  -9   4   27.90    7.10
   9  -9  -4   26.30    5.60
  -9   9   4   27.10    5.30
  -9   9   4   19.60    4.90
   9   9  -4   22.40    5.20
  -7  -9   4    0.90    2.40
   7  -9  -4    2.10    2.50
  -7  -9   4    4.70    2.80
   7   9  -4    5.60    2.90
  -7   9   4    2.80    2.70
  -7   9   4    3.90    2.70
  -5  -9   4    2.50    2.20
   5  -9  -4   -0.50    1.90
   5  -9  -4    1.20    2.20
   5   9  -4   -1.70    1.90
  -5   9   4   -1.20    2.00
  -3  -9   4   57.89    7.80
   3  -9  -4   58.79    7.10
   3  -9  -4   68.99    7.70
  -3   9   4   61.99    7.70
   3   9  -4   59.59    7.40
   3   9  -4   73.69    8.00
   1  -9  -4   10.80    3.50
   1  -9  -4    7.80    3.80
  -1  -9   4    8.20    3.30
  -1  -9   4    4.50    2.60
   1  -9  -4    7.00    2.80
   1   9  -4    5.40    2.60
   1   9  -4    5.80    2.90
  -1   9   4    6.70    3.10
  -1   9   4   14.90    4.70
   1  -9   4   22.10    4.60
   1  -9   4   26.50    4.60
  -1  -9  -4   25.60    4.90
  -1  -9  -4   22.70    4.50
  -1   9  -4   28.30    5.20
   1   9   4   22.90    4.70
  -1   9  -4   25.00    4.30
   1   9   4   24.20    4.70
  -3  -9  -4   16.30    4.40
   3  -9   4   19.20    4.60
  -3  -9  -4   15.90    4.00
   3  -9   4   19.50    4.70
  -3   9  -4   16.00    3.50
   3   9   4   25.70    5.00
  -3   9  -4   24.80    4.70
   5  -9   4   19.50    5.00
   5  -9   4   17.30    4.80
  -5  -9  -4   20.50    5.00
  -5  -9  -4   16.50    3.90
  -5  -9  -4   19.40    5.00
   5   9   4   26.00    5.60
  -5   9  -4   19.80    3.70
  -5   9  -4   24.10    5.20
   8 -10  -4   27.70    6.00
  -8 -10   4   32.10    5.90
  -8 -10   4   17.40    4.70
  -8  10   4   25.10    5.50
  -8  10   4   23.80    5.30
   8  10  -4   27.40    5.60
   6 -10  -4   99.99    9.60
  -6 -10   4   92.49   10.40
   6  10  -4  108.49    9.70
  -6  10   4   71.69    9.60
   4 -10  -4   10.70    3.10
   4 -10  -4    6.20    3.00
  -4 -10   4    3.50    2.70
   4  10  -4   11.80    3.50
  -4  10   4   10.30    3.50
  -2 -10   4   42.40    6.60
   2 -10  -4   42.80    6.30
   2 -10  -4   32.20    6.80
   2  10  -4   32.60    5.80
  -2  10   4   43.80    6.40
   2  10  -4   48.00    6.90
   0 -10  -4    3.20    2.50
   0 -10   4    4.20    3.20
   0 -10   4   -0.60    1.90
   0 -10  -4    1.50    2.60
   0  10   4    5.40    2.90
   0  10  -4   -0.80    2.20
   0  10  -4    0.00    2.00
   2 -10   4   54.59    7.50
  -2 -10  -4   54.99    7.50
  -2 -10  -4   40.60    6.50
   2 -10   4   37.30    6.30
   2  10   4   37.10    6.00
  -2  10  -4   44.00    6.70
   2  10   4   38.00    6.20
  -2  10  -4   30.40    5.30
  -4 -10  -4    4.10    2.50
   4 -10   4    4.90    3.70
  -4 -10  -4    0.00    2.90
   4 -10   4    8.10    3.80
  -4  10  -4    2.10    3.00
   4  10   4    0.90    2.70
  -4  10  -4    1.30    2.10
   7 -11  -4   40.40    6.80
  -7 -11   4   34.40    6.30
  -7  11   4   44.40   10.50
   7  11  -4   37.80    6.50
  -5 -11   4   70.09    9.00
   5 -11  -4   63.69    8.00
   5  11  -4   50.89    7.80
  -5  11   4   72.39    9.00
  -3 -11   4    8.70    3.90
   3 -11  -4    9.40    3.50
  -3  11   4    7.50    3.40
   3  11  -4    6.60    3.30
  -1 -11   4   14.10    4.30
   1 -11  -4   13.80    4.30
   1  11  -4   18.30    4.40
   1  11  -4   17.00    4.50
   1 -11   4    3.60    3.30
   1 -11   4    5.30    3.60
  -1 -11  -4    0.50    2.60
  -1 -11  -4    0.50    2.70
  -1  11  -4    6.30    3.60
  -1  11  -4   -0.40    2.20
   1  11   4    4.00    3.00
   3 -11   4   10.60    4.40
  -3 -11  -4   10.30    4.00
   3 -11   4   13.00    4.40
  -3  11  -4    8.20    4.20
   4  12  -4   26.60    5.60
  -2 -12   4   23.20    5.80
   2 -12  -4   41.00    6.70
   2  12  -4   31.30    5.80
  -2  12   4   18.60    5.00
   0 -12  -4   -1.10    3.70
   0  12  -4    0.70    2.70
   0  12  -4   -6.10    3.40
 -14   0   5   20.00    4.70
 -14   0   5   15.00    4.40
 -14   0   5   14.10    4.10
 -12   0   5   31.40    5.20
  12   0  -5   36.20    5.90
 -12   0   5   41.90    6.20
 -12   0   5   41.90    5.80
  10   0  -5   43.60    5.20
 -10   0   5   31.30    5.00
 -10   0   5   44.00    5.70
  10   0  -5   41.90    5.90
 -10   0   5   41.30    5.90
   8   0  -5   -0.50    1.60
   8   0  -5    2.70    1.70
  -8   0   5    3.30    2.00
  -8   0   5    4.70    2.20
  -8   0   5    3.60    1.90
  -6   0   5 1127.39   77.49
  -6   0   5 1350.76   78.39
  -6   0   5 1218.98   77.19
   6   0  -5 1226.98   77.89
  -6   0   5 1146.09   78.29
   6   0  -5 1156.78   78.29
   6   0  -5 1172.68   77.89
  -4   0   5  959.20   63.69
   4   0  -5  970.90   64.59
   4   0  -5  909.51   64.39
  -4   0   5 1035.20   64.59
  -4   0   5 1041.00   64.69
   4   0  -5 1020.20   63.99
  -2   0   5  147.29   10.10
  -2   0   5  133.29    9.10
   2   0  -5  111.79    9.80
   2   0  -5  132.19   10.20
   2   0  -5  138.29    9.50
   2   0  -5  138.79   10.10
   2   0  -5  135.19   10.10
  -2   0   5  153.58   10.40
   0   0   5   23.60    3.50
   0   0  -5   18.30    3.20
   0   0  -5   27.60    2.90
   0   0  -5   22.20    3.60
   0   0   5   25.00    2.50
   0   0  -5   24.00    2.90
   0   0  -5   24.20    2.80
  -2   0  -5    4.00    1.00
  -2   0  -5    4.60    1.10
  -2   0  -5    5.00    2.00
   2   0   5    5.80    2.30
  -2   0  -5    6.20    2.00
   2   0   5    3.50    1.30
  -2   0  -5    4.20    1.50
  -4   0  -5   50.59    4.90
  -4   0  -5   54.19    6.40
   4   0   5   44.00    5.10
  -4   0  -5   49.00    5.80
   4   0   5   60.99    6.70
  -6   0  -5   92.49    8.20
   6   0   5   91.79    8.50
  -6   0  -5   79.59    8.30
   8   0   5   49.50    7.60
 -13  -1   5    4.50    2.60
  13  -1  -5    3.90    3.10
 -13  -1   5    2.40    2.80
 -13  -1   5    5.00    2.80
 -13   1   5    4.30    2.90
 -13   1   5    2.30    2.50
 -13   1   5    1.20    2.20
  13   1  -5    7.40    3.70
 -11  -1   5    8.70    3.00
  11  -1  -5    4.10    2.30
 -11  -1   5    5.50    2.40
  11  -1  -5    7.80    3.00
 -11  -1   5   10.30    2.90
  11   1  -5   11.80    3.60
 -11   1   5    5.20    2.50
 -11   1   5    5.50    2.70
 -11   1   5    6.60    2.70
  -9  -1   5   -0.20    1.50
  -9  -1   5    2.10    1.70
   9  -1  -5   -2.00    1.50
  -9  -1   5    1.70    2.10
   9  -1  -5    1.00    2.00
  -9   1   5    1.40    1.80
   9   1  -5    3.20    1.70
  -9   1   5    2.80    1.90
  -9   1   5    1.50    1.80
   9   1  -5   -0.10    1.80
   7  -1  -5  875.91   58.89
  -7  -1   5  918.31   57.79
  -7  -1   5  859.71   56.49
  -7  -1   5  847.82   57.09
  -7  -1   5  926.71   57.99
   7  -1  -5  890.01   57.49
   7  -1  -5  909.91   57.39
   7   1  -5  913.51   57.49
  -7   1   5  825.12   57.39
   7   1  -5  891.71   57.29
   7   1  -5  865.71   57.79
  -7   1   5  865.51   57.79
  -7   1   5  777.52   56.99
   5  -1  -5  598.44   40.50
  -5  -1   5  554.34   41.00
   5  -1  -5  643.24   41.10
  -5  -1   5  641.64   41.40
  -5  -1   5  691.63   40.50
   5  -1  -5  648.34   41.40
  -5  -1   5  621.54   40.60
   5  -1  -5  637.24   40.70
  -5   1   5  595.04   40.60
  -5   1   5  590.34   41.00
   5   1  -5  624.04   40.90
  -5   1   5  627.34   41.40
   5   1  -5  606.34   41.00
   5   1  -5  597.54   41.30
  -3  -1   5  267.97   19.90
   3  -1  -5  260.07   19.90
   3  -1  -5  285.07   20.10
   3  -1  -5  290.77   19.20
   3  -1  -5  289.37   19.90
  -3  -1   5  289.17   18.90
  -3  -1   5  279.87   20.00
  -3  -1   5  325.57   20.00
  -3   1   5  278.87   20.00
   3   1  -5  303.47   20.00
  -3   1   5  294.37   19.30
  -3   1   5  302.07   20.10
   3   1  -5  302.07   19.70
   3   1  -5  294.27   20.10
  -1  -1   5    1.10    1.30
   1  -1  -5    1.60    1.40
   1  -1  -5    1.60    0.70
   1  -1  -5    3.00    1.30
   1  -1  -5    2.20    1.10
   1  -1  -5    3.10    1.40
   1   1  -5    2.70    1.60
  -1   1   5    3.40    1.50
  -1   1   5    2.50    1.00
   1   1  -5    2.30    1.10
   1   1  -5    2.00    1.10
   1   1  -5    2.00    1.40
   1   1  -5    1.40    1.10
  -1  -1  -5    5.90    2.10
   1  -1   5    2.90    1.00
  -1  -1  -5    0.70    1.00
   1  -1   5    2.40    1.50
  -1  -1  -5    2.20    1.00
  -1  -1  -5    3.70    1.10
  -1  -1  -5    2.60    1.50
   1   1   5    1.80    1.10
  -1   1  -5    3.20    1.40
  -1   1  -5    4.90    1.20
  -1   1  -5    4.80    1.90
  -1   1  -5    2.40    1.00
   1   1   5    4.40    1.90
  -1   1  -5    0.90    1.60
   3  -1   5  164.88   12.80
  -3  -1  -5  181.68   12.00
  -3  -1  -5  178.88   13.60
  -3  -1  -5  181.18   12.10
  -3  -1  -5  175.48   14.00
   3  -1   5  205.08   14.00
  -3   1  -5  200.48   14.10
  -3   1  -5  208.98   13.40
  -3   1  -5  177.88   13.70
   3   1   5  170.18   13.70
   3   1   5  165.38   13.00
  -5  -1  -5  113.39    9.50
   5  -1   5  118.69    9.70
  -5  -1  -5  115.59   10.10
  -5   1  -5  112.29    9.20
  -5   1  -5  105.89    9.60
  -5   1  -5  111.99    9.90
   5   1   5  105.39    9.80
   7  -1   5   16.30    4.00
  -7  -1  -5   13.10    3.70
   7   1   5   15.90    3.60
  -7   1  -5   17.90    3.70
 -14  -2   5    0.20    2.50
 -14  -2   5   -1.80    2.80
  12  -2  -5    9.40    3.30
  12  -2  -5   11.70    3.80
 -12  -2   5    6.90    2.90
 -12  -2   5    6.70    3.00
 -12  -2   5    7.60    3.10
 -12   2   5    4.90    2.70
  12   2  -5   10.60    3.60
 -12   2   5   13.70    3.30
 -12   2   5    6.80    3.10
 -10  -2   5    3.00    2.30
  10  -2  -5    5.50    2.30
 -10  -2   5    2.00    2.00
 -10  -2   5    0.70    1.60
  10  -2  -5    3.20    2.20
 -10   2   5    6.20    2.50
  10   2  -5    3.80    2.40
 -10   2   5    3.00    2.10
 -10   2   5    2.50    2.10
  -8  -2   5  490.85   33.20
   8  -2  -5  469.25   33.60
  -8  -2   5  520.95   34.10
   8  -2  -5  495.95   33.50
  -8  -2   5  476.35   33.80
   8   2  -5  512.95   33.30
  -8   2   5  487.65   33.60
  -8   2   5  533.55   33.60
  -8   2   5  474.35   33.80
   8   2  -5  484.05   33.70
  -6  -2   5   56.99    5.00
   6  -2  -5   64.09    5.00
   6  -2  -5   68.29    6.00
  -6  -2   5   58.99    5.80
   6  -2  -5   65.49    6.10
   6  -2  -5   60.69    5.40
  -6  -2   5   58.29    6.60
  -6  -2   5   64.39    5.30
  -6   2   5   62.69    5.70
   6   2  -5   61.69    6.00
   6   2  -5   55.89    5.60
   6   2  -5   60.29    5.50
  -6   2   5   60.69    5.50
  -6   2   5   58.39    6.40
  -4  -2   5   86.49    7.00
   4  -2  -5   82.39    7.20
   4  -2  -5  100.79    7.60
  -4  -2   5   81.09    6.10
  -4  -2   5   83.79    7.40
   4  -2  -5   91.99    6.90
  -4  -2   5   88.49    7.30
   4  -2  -5   92.99    6.50
  -4   2   5   74.49    7.20
   4   2  -5   81.19    7.00
  -4   2   5  101.79    6.90
  -4   2   5   92.69    7.30
   4   2  -5   86.09    7.10
   4   2  -5   87.59    7.30
   2  -2  -5  243.98   16.30
   2  -2  -5  236.58   17.50
   2  -2  -5  227.08   17.30
  -2  -2   5  269.37   17.60
  -2  -2   5  235.38   17.30
  -2  -2   5  264.57   17.70
   2  -2  -5  245.18   17.50
  -2   2   5  251.17   17.50
  -2   2   5  267.97   17.00
   2   2  -5  270.87   17.70
  -2   2   5  258.07   17.70
   2   2  -5  239.98   17.40
   2   2  -5  250.57   18.20
   2   2  -5  254.17   17.20
   0  -2  -5  511.45   33.90
   0  -2  -5  476.95   33.50
   0  -2   5  490.75   34.10
   0  -2  -5  577.54   34.40
   0  -2  -5  528.75   34.30
   0  -2   5  499.95   33.80
   0   2  -5  494.55   34.20
   0   2  -5  482.85   33.60
   0   2  -5  480.35   33.40
   0   2   5  491.95   33.40
   0   2   5  537.75   34.40
   0   2  -5  530.75   33.50
  -2  -2  -5   54.29    4.50
  -2  -2  -5   52.89    5.20
  -2  -2  -5   52.69    4.50
  -2  -2  -5   53.09    6.20
   2  -2   5   53.99    6.00
   2  -2   5   58.49    5.20
   2   2   5   48.10    4.90
   2   2   5   58.09    5.70
  -2   2  -5   51.69    4.20
  -2   2  -5   57.69    5.60
  -2   2  -5   50.89    4.20
  -2   2  -5   54.39    5.10
  -4  -2  -5  277.67   19.70
   4  -2   5  268.97   19.10
  -4  -2  -5  262.37   18.90
   4  -2   5  270.57   19.50
   4   2   5  257.37   19.50
  -4   2  -5  275.47   19.50
  -4   2  -5  261.77   19.00
   4   2   5  250.17   18.80
   6  -2   5   11.30    3.20
  -6  -2  -5   12.20    3.60
  -6   2  -5    8.40    2.90
  -6   2  -5   12.40    3.10
   6   2   5   12.50    3.10
   8   2   5   -1.60    2.20
  13  -3  -5  143.79   13.20
 -13  -3   5  177.08   13.40
 -13  -3   5  147.59   13.20
 -13  -3   5  136.49   12.70
  13  -3  -5  149.59   17.60
  13   3  -5  161.88   13.60
 -13   3   5  130.19   12.20
 -13   3   5  118.59   12.40
 -11  -3   5   -0.30    2.00
  11  -3  -5   -2.20    1.70
 -11  -3   5    1.60    2.10
 -11  -3   5    0.30    1.90
  11  -3  -5    3.40    2.60
 -11   3   5    0.00    2.00
 -11   3   5    2.50    2.10
  11   3  -5   -1.00    2.10
 -11   3   5    0.80    2.10
  -9  -3   5    3.40    2.10
   9  -3  -5    4.80    2.30
  -9  -3   5    7.20    2.60
   9  -3  -5    6.50    2.50
  -9  -3   5    7.30    2.40
  -9   3   5    4.50    2.30
  -9   3   5    4.50    2.10
   9   3  -5    4.90    2.50
  -9   3   5    5.20    2.10
   7  -3  -5   18.90    3.10
  -7  -3   5   13.40    3.20
  -7  -3   5   18.60    3.40
  -7  -3   5   17.30    2.80
   7  -3  -5   13.10    3.10
  -7  -3   5   14.20    2.50
   7   3  -5   13.80    3.10
   7   3  -5   21.40    2.90
  -7   3   5   12.50    2.80
  -7   3   5   19.50    3.20
  -7   3   5   22.90    3.90
   5  -3  -5  175.68   11.40
   5  -3  -5  131.09   12.00
  -5  -3   5  140.99   12.10
   5  -3  -5  173.98   12.20
  -5  -3   5  164.28   11.80
   5  -3  -5  149.09   11.30
  -5  -3   5  163.48   12.10
  -5   3   5  166.38   12.00
  -5   3   5  157.78   12.20
   5   3  -5  175.98   11.90
   5   3  -5  164.28   12.40
   5   3  -5  153.28   11.90
  -5   3   5  165.18   11.80
  -3  -3   5  515.25   33.30
  -3  -3   5  504.75   33.10
   3  -3  -5  483.85   32.00
   3  -3  -5  464.95   33.20
   3  -3  -5  499.65   33.00
  -3  -3   5  522.35   33.40
   3  -3  -5  524.45   33.20
  -3   3   5  466.55   32.70
  -3   3   5  531.15   33.40
   3   3  -5  511.35   33.00
   3   3  -5  484.35   33.10
  -3   3   5  525.75   33.30
   3   3  -5  409.26   33.00
  -1  -3   5   68.39    6.00
   1  -3  -5   67.79    6.20
   1  -3  -5   71.69    6.40
   1  -3  -5   81.89    6.30
  -1  -3   5   81.59    6.60
   1   3  -5   80.29    6.70
  -1   3   5   70.89    6.40
   1   3  -5   71.49    6.10
   1   3  -5   64.19    5.90
  -1   3   5   64.39    5.80
   1  -3   5  172.28   13.60
   1  -3   5  186.68   13.10
  -1  -3  -5  178.68   12.90
  -1  -3  -5  182.78   13.20
  -1  -3  -5  158.18   13.50
   1   3   5  191.98   13.20
   1   3   5  195.08   13.90
  -1   3  -5  179.58   12.70
  -1   3  -5  191.08   13.40
  -1   3  -5  174.88   13.60
  -3  -3  -5  153.28   11.50
  -3  -3  -5  166.58   12.30
   3  -3   5  165.88   12.10
   3  -3   5  158.18   12.90
  -3  -3  -5  182.38   13.20
  -3   3  -5  155.08   11.00
  -3   3  -5  167.98   13.10
   3   3   5  162.28   12.40
   3   3   5  164.88   13.00
  -3   3  -5  167.78   12.60
  -3   3  -5  168.78   11.10
   5  -3   5   -0.40    2.00
  -5  -3  -5    2.10    2.20
   5   3   5    5.10    2.40
  -5   3  -5    1.00    1.80
  -5   3  -5    1.30    2.00
  -7  -3  -5    2.70    2.90
  -7  -3  -5   10.30    3.50
   7  -3   5    6.00    2.90
  -7   3  -5   11.80    3.20
   7   3   5    7.40    2.90
 -12  -4   5    9.20    3.80
 -12  -4   5   17.40    4.10
  12  -4  -5    9.20    3.60
  12  -4  -5   18.70    4.30
  12   4  -5    8.30    3.60
 -12   4   5    9.40    3.10
 -12   4   5    7.10    3.00
 -10  -4   5   34.20    5.40
  10  -4  -5   29.00    4.80
  10  -4  -5   34.20    5.20
 -10  -4   5   30.60    5.30
 -10   4   5   30.50    4.60
 -10   4   5   28.00    4.60
 -10   4   5   23.60    4.60
  10   4  -5   31.00    5.40
   8  -4  -5  107.59    9.30
   8  -4  -5  110.09    8.90
  -8  -4   5  107.89    9.60
  -8  -4   5  106.59    9.10
  -8  -4   5  107.59    9.40
  -8   4   5   98.79    9.20
   8   4  -5  109.09    8.50
   8   4  -5  106.79    9.20
  -8   4   5   96.69    8.60
  -8   4   5   97.49    8.80
   6  -4  -5   44.40    4.20
  -6  -4   5   47.00    5.40
   6  -4  -5   51.39    5.70
   6  -4  -5   35.50    5.00
  -6  -4   5   47.00    5.00
   6  -4  -5   37.20    3.80
  -6  -4   5   41.80    5.30
  -6   4   5   29.40    4.30
   6   4  -5   39.90    3.90
  -6   4   5   38.70    5.00
   6   4  -5   40.10    5.20
   6   4  -5   47.60    4.40
   6   4  -5   38.60    5.00
  -6   4   5   41.50    4.80
   4  -4  -5   31.10    4.30
  -4  -4   5   47.00    5.00
   4  -4  -5   36.50    3.20
   4  -4  -5   37.10    4.20
  -4  -4   5   41.90    4.60
  -4  -4   5   32.40    4.70
   4  -4  -5   28.80    4.30
   4   4  -5   39.90    4.80
  -4   4   5   37.50    4.50
   4   4  -5   31.20    4.00
  -4   4   5   31.90    4.50
   4   4  -5   34.80    4.40
  -4   4   5   36.80    4.40
   2  -4  -5   63.89    6.40
  -2  -4   5   73.09    6.20
   2  -4  -5   74.69    6.50
   2  -4  -5   62.69    6.10
  -2  -4   5   73.89    6.60
   2   4  -5   74.19    6.30
  -2   4   5   68.29    6.30
  -2   4   5   69.19    6.10
   2   4  -5   73.19    6.40
   2   4  -5   80.69    6.60
   0  -4   5   50.69    4.90
   0  -4  -5   65.09    6.00
   0  -4   5   63.99    5.90
   0  -4  -5   49.90    5.10
   0  -4  -5   49.50    5.00
   0   4  -5   54.79    5.10
   0   4  -5   49.10    5.80
   0   4  -5   50.59    5.60
   0   4   5   49.80    6.20
   0   4   5   56.79    5.20
  -2  -4  -5  764.22   49.50
   2  -4   5  751.72   50.39
  -2  -4  -5  839.42   50.69
  -2  -4  -5  740.53   49.50
   2  -4   5  726.23   49.40
  -2   4  -5  744.53   49.99
   2   4   5  718.23   50.29
   2   4   5  755.72   49.80
  -2   4  -5  752.02   49.00
  -2   4  -5  732.83   50.39
  -4  -4  -5  326.67   21.00
   4  -4   5  327.77   22.60
  -4  -4  -5  280.47   22.30
  -4   4  -5  288.57   22.00
   4   4   5  322.57   22.20
  -4   4  -5  293.27   22.30
   6  -4   5   22.20    4.50
  -6  -4  -5   21.60    4.60
  -6  -4  -5   23.40    4.80
  -6   4  -5   26.70    4.70
   6   4   5   23.10    4.40
  -8  -4  -5   60.09    8.20
   8  -4   5   79.29    9.00
  -8  -4  -5   60.59    8.50
  -8   4  -5   69.09    8.30
   8   4   5   37.00    6.60
 -13  -5   5  105.79   10.20
  13  -5  -5   80.59   10.40
 -13   5   5   86.89   11.60
  11  -5  -5    0.20    2.30
  11  -5  -5    3.20    2.60
 -11  -5   5   -0.40    2.20
 -11  -5   5    0.10    2.00
 -11   5   5    2.00    2.50
 -11   5   5   -2.30    1.70
  11   5  -5    2.50    2.40
  11   5  -5    0.40    2.50
  -9  -5   5    0.10    1.90
   9  -5  -5    6.90    2.70
   9  -5  -5    7.50    2.90
  -9  -5   5    9.20    3.10
   9   5  -5    8.90    3.10
  -9   5   5    6.70    2.70
  -9   5   5    8.10    2.70
   9   5  -5    8.90    2.70
   7  -5  -5  134.39   11.00
  -7  -5   5  114.89   10.70
  -7  -5   5  133.99   10.50
  -7  -5   5  123.59   11.20
   7  -5  -5  135.09   10.30
  -7   5   5  154.08   11.10
  -7   5   5  118.69   10.20
   7   5  -5  135.99   10.10
  -7   5   5  134.89   11.10
   7   5  -5  142.29   11.10
  -5  -5   5    1.50    2.10
  -5  -5   5    0.30    1.70
   5  -5  -5    0.50    1.30
  -5  -5   5    1.90    1.70
   5  -5  -5   -0.70    1.50
   5  -5  -5   -0.10    1.60
   5  -5  -5    1.70    1.40
  -5   5   5   -0.40    1.40
  -5   5   5   -0.70    1.40
   5   5  -5    1.20    1.50
   5   5  -5    2.00    1.90
  -5   5   5    0.00    1.70
   5   5  -5   -1.00    1.30
   3  -5  -5  332.37   23.10
   3  -5  -5  340.87   23.40
   3  -5  -5  330.77   23.10
  -3  -5   5  337.97   23.30
  -3  -5   5  338.87   22.80
  -3   5   5  345.57   23.10
   3   5  -5  353.56   23.20
  -3   5   5  302.67   22.90
   3   5  -5  311.27   23.10
   3   5  -5  326.07   23.10
   1  -5  -5   27.90    4.20
  -1  -5   5   30.70    3.90
   1  -5  -5   31.10    4.10
   1  -5  -5   42.60    5.40
  -1  -5   5   30.90    4.60
  -1   5   5   31.50    4.60
   1   5  -5   27.70    4.00
  -1   5   5   38.70    4.70
   1   5  -5   46.10    5.20
   1   5  -5   40.80    4.70
  -1  -5  -5  203.68   14.10
  -1  -5  -5  205.08   14.30
  -1  -5  -5  195.68   15.10
   1  -5   5  193.58   14.90
  -1   5  -5  179.38   13.80
   1   5   5  190.88   14.30
  -1   5  -5  178.38   14.70
  -1   5  -5  197.98   14.60
   1   5   5  191.78   14.80
   3  -5   5    3.70    2.60
  -3  -5  -5    5.70    1.90
  -3  -5  -5    1.40    2.00
  -3   5  -5    3.80    2.30
  -3   5  -5    3.00    1.30
   3   5   5    4.10    2.20
   3   5   5    2.30    2.40
  -3   5  -5    0.50    1.80
  -5  -5  -5   14.30    2.60
  -5  -5  -5   14.30    4.10
   5  -5   5   14.10    3.90
  -5   5  -5    9.30    3.20
   5   5   5   16.30    3.80
  -5   5  -5   14.40    3.90
   7  -5   5   17.90    4.60
  -7  -5  -5    8.30    3.70
  -7  -5  -5    4.70    3.20
  -7   5  -5   10.80    3.50
   7   5   5    4.90    3.40
 -12  -6   5   16.90    4.70
  12  -6  -5   17.20    4.50
 -12  -6   5   19.30    4.60
  12  -6  -5   18.90    4.90
 -12   6   5   18.60    4.30
  12   6  -5   13.80    4.20
 -12   6   5   10.60    3.90
  12   6  -5   10.10    4.10
  10  -6  -5    6.30    3.10
 -10  -6   5    9.00    3.30
  10  -6  -5    5.40    2.80
 -10  -6   5    5.60    2.80
  10   6  -5    0.70    2.50
  10   6  -5    6.10    2.90
 -10   6   5    3.30    2.40
 -10   6   5    5.80    3.00
  -8  -6   5  260.47   17.80
  -8  -6   5  222.38   16.20
  -8  -6   5  210.08   16.60
   8  -6  -5  209.58   16.70
   8  -6  -5  199.78   16.00
  -8   6   5  222.88   17.00
  -8   6   5  224.68   16.70
   8   6  -5  204.48   16.80
   6  -6  -5   21.50    4.00
  -6  -6   5   23.40    4.20
  -6  -6   5   34.90    4.80
  -6   6   5   27.80    4.80
  -6   6   5   38.40    4.40
  -6   6   5   28.20    4.40
   6   6  -5   27.10    4.60
  -4  -6   5  157.18   12.10
   4  -6  -5  144.29   12.20
  -4  -6   5  159.68   12.50
   4  -6  -5  168.28   12.90
   4  -6  -5  150.08   12.20
  -4   6   5  157.78   12.20
   4   6  -5  163.08   12.00
   4   6  -5  153.38   12.30
   4   6  -5  199.48   13.30
  -4   6   5  142.19   11.90
  -2  -6   5   45.20    5.60
   2  -6  -5   23.20    3.80
   2  -6  -5   31.00    4.70
   2  -6  -5   28.70    4.40
  -2  -6   5   40.80    4.40
  -2   6   5   32.40    4.70
   2   6  -5   28.10    4.50
   2   6  -5   29.50    4.40
   2   6  -5   36.70    4.70
  -2   6   5   34.80    4.60
   0  -6   5  102.09    8.60
   0  -6  -5   79.59    8.20
   0  -6  -5   83.79    7.60
   0  -6  -5  104.89    8.30
   0   6   5   70.89    8.70
   0   6  -5   82.19    7.90
   0   6   5   87.19    7.80
   0   6  -5   89.89    7.60
   0   6  -5  101.49    8.50
  -2  -6  -5    1.30    2.40
   2  -6   5    2.00    2.30
  -2  -6  -5   -1.20    1.40
  -2   6  -5    0.20    1.90
   2   6   5    1.00    1.90
  -2   6  -5    2.20    1.40
  -2   6  -5    0.30    2.00
   2   6   5   -0.50    1.80
  -4  -6  -5   19.40    3.40
  -4  -6  -5   14.90    4.00
   4  -6   5   25.50    4.80
  -4   6  -5   19.40    4.30
   4   6   5   22.30    4.40
  -4   6  -5   22.60    3.00
  -4   6  -5   23.60    4.50
  -6  -6  -5   24.20    5.00
  -6  -6  -5   19.60    3.10
  -6  -6  -5   16.70    4.60
   6  -6   5   13.90    4.10
   6  -6   5   21.90    4.80
  -6   6  -5   20.10    4.60
   6   6   5   17.60    4.60
 -11  -7   5    1.80    2.90
  11  -7  -5    7.50    3.40
 -11  -7   5   -0.20    2.50
  11  -7  -5    2.20    2.80
 -11   7   5    1.90    2.70
  11   7  -5    5.30    3.50
 -11   7   5    1.00    2.50
   9  -7  -5   10.40    3.20
  -9  -7   5    4.20    2.70
  -9  -7   5    6.70    3.30
   9  -7  -5    1.30    2.50
  -9   7   5    7.10    3.10
  -9   7   5    9.30    3.20
   9   7  -5    8.20    3.30
  -7  -7   5  258.57   21.50
   7  -7  -5  317.87   22.10
  -7   7   5  321.07   22.00
  -7   7   5  294.17   22.20
   7   7  -5  308.37   22.20
  -5  -7   5  220.58   17.30
   5  -7  -5  252.87   17.50
   5  -7  -5  246.08   17.80
  -5  -7   5  239.28   17.80
  -5   7   5  218.78   17.50
   5   7  -5  267.37   18.50
   5   7  -5  214.08   17.60
  -5   7   5  245.78   17.10
   3  -7  -5   13.60    3.30
  -3  -7   5   11.20    3.00
  -3  -7   5   14.30    3.40
   3  -7  -5   12.60    3.30
   3  -7  -5   20.70    3.40
   3   7  -5   14.40    3.40
  -3   7   5   10.40    2.90
  -3   7   5   16.70    3.30
   3   7  -5   13.60    3.30
   3   7  -5    9.80    2.70
   1  -7  -5    4.70    2.30
  -1  -7   5    5.10    2.70
   1  -7  -5    2.50    2.30
   1  -7  -5    2.40    1.70
   1   7  -5    3.10    2.00
   1   7  -5    7.90    2.80
  -1   7   5    6.20    2.50
   1   7  -5    4.90    2.30
  -1   7   5    3.20    2.30
  -1  -7  -5    3.10    2.60
   1  -7   5    7.50    3.00
  -1  -7  -5    8.70    2.80
  -1   7  -5    1.80    1.70
  -1   7  -5    2.50    2.10
   1   7   5    3.80    2.50
   1   7   5    8.80    2.90
  -1   7  -5    7.50    2.80
  -3  -7  -5  192.08   14.70
   3  -7   5  210.88   15.90
  -3  -7  -5  209.68   16.10
   3   7   5  201.18   15.40
  -3   7  -5  163.48   14.90
  -3   7  -5  182.08   13.90
   3   7   5  189.38   15.50
   5  -7   5   51.39    7.50
  -5  -7  -5   67.49    8.30
  -5  -7  -5   51.79    6.20
   5  -7   5   61.49    7.90
   5   7   5   65.29    8.20
  -5   7  -5   51.49    7.40
  -5   7  -5   52.09    4.90
  10  -8  -5   25.40    5.50
 -10  -8   5   25.50    5.50
 -10   8   5   23.30    5.10
  10   8  -5   34.20    6.30
 -10   8   5   15.00    4.30
  -8  -8   5    1.70    2.40
  -8  -8   5    1.30    2.10
   8  -8  -5    0.10    2.50
  -8   8   5   -0.80    2.20
  -8   8   5    1.30    2.30
   8   8  -5    1.00    2.70
   6  -8  -5  212.28   16.60
  -6  -8   5  217.18   16.70
  -6  -8   5  192.98   16.10
   6   8  -5  214.58   16.70
  -6   8   5  230.38   16.70
   4  -8  -5  110.39   10.80
  -4  -8   5  138.49   11.60
   4  -8  -5  134.49   11.10
   4   8  -5  137.09   11.60
   4   8  -5  123.89   11.10
  -4   8   5  154.88   11.60
  -2  -8   5   -3.00    1.90
   2  -8  -5    0.50    1.50
   2  -8  -5   -1.40    1.80
   2  -8  -5   -1.10    1.90
   2   8  -5    2.50    2.20
   2   8  -5    2.40    2.10
  -2   8   5   -1.70    1.60
  -2   8   5   -1.00    1.90
   2   8  -5   -0.30    1.70
   0  -8   5   -0.10    2.10
   0  -8  -5   -1.20    2.00
   0  -8  -5   -1.00    1.70
   0   8   5    0.80    1.90
   0   8   5    2.30    2.60
   0   8  -5   -1.20    1.40
   0   8  -5   -0.60    1.80
   0   8  -5   -0.10    1.80
   2  -8   5    7.80    3.40
  -2  -8  -5    2.80    2.30
  -2  -8  -5    1.80    2.70
  -2   8  -5    1.80    2.50
   2   8   5    0.40    2.30
  -2   8  -5    3.40    1.90
   2   8   5    2.00    2.40
   4  -8   5    4.60    3.00
   4  -8   5    9.70    3.90
  -4  -8  -5    5.30    2.40
  -4  -8  -5    7.40    3.60
  -4   8  -5    7.30    2.30
   4   8   5    9.80    3.40
  -4   8  -5    9.20    3.60
   4   8   5    2.60    2.90
  -6   8  -5   46.30    4.50
   9  -9  -5   21.70    4.90
  -9  -9   5   22.50    5.00
  -9   9   5   11.10    3.90
   9   9  -5   16.40    5.00
  -9   9   5   15.90    4.60
  -7  -9   5  188.08   15.80
   7  -9  -5  201.58   16.10
  -7  -9   5  197.08   15.60
  -7   9   5  181.28   15.70
   7   9  -5  208.28   16.30
   5  -9  -5   17.00    5.50
   5  -9  -5   14.10    3.80
  -5  -9   5   20.10    4.60
  -5   9   5   16.50    4.10
   5   9  -5   16.30    3.90
   3  -9  -5   47.10    6.20
   3  -9  -5   54.09    6.70
  -3  -9   5   40.00    6.40
   3   9  -5   40.60    6.10
  -3   9   5   53.69    6.60
   3   9  -5   52.09    7.10
   1  -9  -5    1.00    2.00
  -1  -9   5    1.90    2.50
   1  -9  -5    1.80    2.40
  -1   9   5   -0.10    1.90
  -1   9   5   -2.00    2.00
   1   9  -5    0.10    2.20
   1   9  -5    2.00    2.00
  -1  -9  -5   28.20    5.10
  -1  -9  -5   31.20    5.60
   1  -9   5   22.90    4.90
   1  -9   5   25.10    5.20
  -1   9  -5   19.70    4.70
   1   9   5   26.60    5.40
  -1   9  -5   31.20    5.00
   1   9   5   33.40    5.70
  -3  -9  -5    0.90    3.10
   3  -9   5    4.80    3.40
   3  -9   5    1.80    2.80
  -3  -9  -5   -0.30    2.10
  -3   9  -5    2.60    1.90
  -3   9  -5    4.90    3.10
   3   9   5    4.70    3.00
   3   9   5    2.60    2.90
   5  -9   5   37.50    6.80
  -8 -10   5   80.99   10.10
   8 -10  -5  115.79   10.70
  -8  10   5   79.69   10.20
   8  10  -5   99.19   11.00
  -6 -10   5   48.90    7.30
   6 -10  -5   57.19    7.70
   6  10  -5   53.49    7.50
  -6  10   5   55.49    7.70
   4 -10  -5   -1.70    1.80
   4 -10  -5    2.00    2.60
  -4 -10   5    1.30    2.70
  -4  10   5   -0.30    2.30
   4  10  -5   -2.00    2.00
   2 -10  -5   89.29    9.70
  -2 -10   5   68.49    9.20
  -2  10   5   82.79    9.50
   2  10  -5   63.79    8.40
   2  10  -5   71.89    9.00
   0 -10   5   40.40    6.80
   0 -10  -5   51.19    7.60
   0 -10   5   47.20    7.10
   0 -10  -5   59.09    7.90
   0  10   5   69.69    8.60
   0  10  -5   56.29    7.70
   0  10  -5   60.69    7.70
   2 -10   5   94.99   11.00
  -2 -10  -5   73.19   10.10
  -2 -10  -5   80.49    9.70
   2  10   5   70.39    9.30
  -2  10  -5   83.59    8.30
  -2  10  -5   88.09   10.20
   2  10   5   96.19   10.80
  -7 -11   5    0.20    2.80
   7 -11  -5   -4.40    3.50
  -5 -11   5   31.00    5.90
   5 -11  -5   34.10    5.90
  -5  11   5   30.20    6.10
   5  11  -5   36.40    6.30
  -3 -11   5   53.79    7.60
   3 -11  -5   53.69    7.60
  -3  11   5   40.10    6.70
   3  11  -5   36.30    6.40
  -1 -11   5    2.20    3.20
   1 -11  -5    2.50    3.20
   1  11  -5    2.70    2.90
  -1  11   5    3.80    3.30
   1  11  -5    1.70    2.90
  -1 -11  -5   50.09    9.30
  -1 -11  -5   44.80    7.50
   1 -11   5   45.20    7.20
   1 -11   5   49.70    7.90
  -1  11  -5   44.70    6.60
   1  11   5   29.00    7.60
 -14   0   6  128.49   11.50
 -14   0   6  114.09   11.50
 -14   0   6  109.59   11.00
  12   0  -6  102.99    9.80
 -12   0   6   92.99    9.50
 -12   0   6   93.59    9.00
 -12   0   6   94.39    9.50
  10   0  -6   25.50    4.10
 -10   0   6   20.70    4.30
 -10   0   6   20.40    4.10
  10   0  -6   20.80    4.10
 -10   0   6   14.00    3.40
  -8   0   6    5.30    2.30
  -8   0   6    5.40    2.10
  -8   0   6    6.10    2.40
   8   0  -6    5.60    2.20
   8   0  -6    6.00    2.30
   6   0  -6  435.46   28.90
  -6   0   6  383.86   28.90
  -6   0   6  440.16   28.10
  -6   0   6  401.16   28.80
  -6   0   6  426.16   28.10
   6   0  -6  430.76   29.10
  -4   0   6   14.90    3.50
  -4   0   6   17.20    2.00
   4   0  -6   16.90    2.50
  -4   0   6   18.20    3.20
   4   0  -6   11.90    2.70
   4   0  -6   12.90    2.70
  -2   0   6   -1.80    1.00
   2   0  -6   -0.60    1.30
   2   0  -6    2.30    1.50
   2   0  -6    1.10    1.10
  -2   0   6    1.60    0.90
   2   0  -6   -0.50    1.10
   0   0  -6  198.68   13.80
   0   0  -6  206.18   14.90
   0   0  -6  166.58   14.80
   0   0   6  202.48   14.80
   0   0  -6  220.68   14.20
  -2   0  -6  193.08   14.20
  -2   0  -6  183.08   12.60
  -2   0  -6  201.78   14.80
  -2   0  -6  178.88   12.60
   2   0   6  178.38   14.10
  -4   0  -6   60.99    7.30
  -4   0  -6   76.99    8.40
   4   0   6   72.59    8.10
   6   0   6   18.00    4.40
  -6   0  -6   26.10    5.10
 -13  -1   6   -0.20    2.10
  13  -1  -6    4.90    3.10
 -13  -1   6    1.40    2.80
 -13  -1   6    3.10    2.80
 -13   1   6    0.60    2.20
 -13   1   6    3.50    2.50
  13   1  -6   -2.40    2.60
 -13   1   6    0.50    2.40
  11  -1  -6   55.79    6.40
  11  -1  -6   46.50    6.20
 -11  -1   6   39.80    6.40
 -11  -1   6   42.30    5.60
 -11  -1   6   35.50    5.70
  11   1  -6   43.90    6.40
 -11   1   6   40.00    5.80
 -11   1   6   38.60    5.90
 -11   1   6   44.30    6.30
  -9  -1   6   45.10    6.30
   9  -1  -6   56.79    6.50
  -9  -1   6   48.70    5.80
   9  -1  -6   57.29    6.60
  -9  -1   6   51.99    6.60
  -9   1   6   50.39    6.10
  -9   1   6   67.69    7.20
   9   1  -6   56.79    6.50
   9   1  -6   60.29    5.80
  -9   1   6   50.29    6.40
   7  -1  -6    1.50    1.60
  -7  -1   6    0.60    1.60
  -7  -1   6    1.80    1.80
   7  -1  -6   -2.30    1.40
  -7  -1   6    1.20    1.20
  -7  -1   6    0.70    1.40
   7  -1  -6    2.90    1.80
   7   1  -6   -0.50    1.60
  -7   1   6    0.00    1.30
  -7   1   6   -1.00    1.40
   7   1  -6    0.60    1.50
  -7   1   6   -0.70    1.70
   7   1  -6   -0.40    1.60
   5  -1  -6   53.69    5.80
  -5  -1   6   46.60    5.30
  -5  -1   6   53.09    5.70
   5  -1  -6   35.80    5.00
  -5  -1   6   58.99    4.10
   5  -1  -6   51.49    4.50
  -5  -1   6   59.49    4.80
   5  -1  -6   48.60    4.70
  -5   1   6   37.70    5.00
   5   1  -6   35.50    4.90
   5   1  -6   54.69    6.00
  -5   1   6   35.70    5.10
  -5   1   6   52.49    4.40
   5   1  -6   45.50    4.60
  -3  -1   6    0.80    1.40
  -3  -1   6    1.10    1.30
   3  -1  -6   -2.50    1.00
   3  -1  -6    2.20    1.50
   3  -1  -6   -0.30    0.80
   3  -1  -6    1.00    1.30
   3   1  -6    0.60    1.30
  -3   1   6    0.10    1.20
   3   1  -6    0.00    1.30
  -3   1   6    0.10    0.90
   3   1  -6    2.30    1.30
   1  -1  -6 1058.79   72.79
   1  -1  -6 1136.09   72.29
  -1  -1   6 1083.79   72.59
   1  -1  -6 1105.29   72.69
   1   1  -6 1095.29   71.89
   1   1  -6 1112.49   72.09
  -1   1   6 1090.29   71.69
   1   1  -6 1118.29   72.89
  -1   1   6 1116.99   72.79
   1   1  -6 1198.58   72.89
  -1  -1  -6    3.30    1.90
  -1  -1  -6    0.90    1.10
   1  -1   6    1.70    1.70
  -1  -1  -6   -0.30    1.50
  -1   1  -6   -1.00    1.50
  -1   1  -6    0.80    1.60
  -1   1  -6    0.10    1.20
   1   1   6    2.80    1.80
   1   1   6   -0.10    1.10
  -1   1  -6   -1.00    0.90
  -3  -1  -6  132.99   10.70
  -3  -1  -6  109.79    9.90
   3  -1   6  120.49   10.00
   3   1   6  122.59   10.60
  -3   1  -6  105.89   10.00
  -3   1  -6  124.79   10.50
   5  -1   6   31.00    5.10
  -5  -1  -6   23.20    5.00
  -5  -1  -6   31.10    5.50
   5   1   6   30.70    5.40
  -5   1  -6   33.20    5.20
   7  -1   6    9.30    3.50
  -7  -1  -6   10.50    3.70
   7   1   6    4.70    3.20
 -14  -2   6    8.10    4.70
 -14  -2   6   10.90    4.00
 -14   2   6    7.70    4.20
 -12  -2   6    1.00    2.20
  12  -2  -6    1.30    2.30
 -12  -2   6   -1.80    1.80
  12  -2  -6   -0.40    2.30
 -12  -2   6    1.40    2.30
 -12   2   6   -3.00    1.70
  12   2  -6    3.60    3.00
 -12   2   6   -0.10    2.00
 -12   2   6   -0.70    2.30
 -10  -2   6    1.20    2.20
 -10  -2   6    3.20    2.00
  10  -2  -6    0.50    2.10
  10  -2  -6    3.80    2.40
 -10  -2   6    6.50    2.90
 -10   2   6    3.40    2.40
 -10   2   6    3.00    2.40
  10   2  -6    0.00    2.10
 -10   2   6    3.30    2.30
  -8  -2   6   60.69    8.20
   8  -2  -6  104.19    8.20
  -8  -2   6   97.29    8.60
   8  -2  -6   86.49    8.20
  -8  -2   6   92.59    7.60
  -8   2   6  103.69    8.40
   8   2  -6   94.29    8.30
  -8   2   6   86.29    8.50
   8   2  -6  102.99    8.10
  -8   2   6   94.59    7.90
  -6  -2   6   98.79    7.50
   6  -2  -6  105.09    8.10
   6  -2  -6  101.09    8.60
  -6  -2   6  102.59    9.00
  -6  -2   6   85.19    8.40
   6  -2  -6  103.49    8.00
   6  -2  -6  103.09    9.00
  -6  -2   6  101.89    8.10
  -6   2   6  104.29    8.60
  -6   2   6  111.69    8.20
   6   2  -6   99.29    8.80
   6   2  -6  109.99    8.50
   6   2  -6  105.49    8.50
  -6   2   6  105.09    9.00
  -4  -2   6   30.20    4.10
   4  -2  -6   31.50    3.00
  -4  -2   6   35.10    4.30
   4  -2  -6   29.30    3.90
   4  -2  -6   28.30    4.10
   4  -2  -6   22.10    3.60
   4   2  -6   31.50    4.30
  -4   2   6   34.00    4.40
   4   2  -6   24.70    3.80
   4   2  -6   35.30    4.10
  -4   2   6   28.30    3.50
   2  -2  -6  260.97   19.40
   2  -2  -6  279.17   19.60
   2  -2  -6  298.57   19.80
  -2  -2   6  269.77   19.60
  -2  -2   6  266.87   19.40
   2   2  -6  270.27   19.30
   2   2  -6  291.77   19.20
  -2   2   6  294.97   19.80
  -2   2   6  272.97   18.80
   2   2  -6  268.97   19.60
   0  -2   6   96.79    7.50
   0  -2   6   77.19    7.30
   0  -2  -6   84.69    7.20
   0  -2  -6   72.59    6.70
   0  -2  -6   75.39    7.40
   0   2  -6   96.89    7.10
   0   2  -6   68.99    7.30
   0   2   6   76.09    6.50
   0   2  -6   90.59    6.70
   0   2   6   84.09    7.50
   2  -2   6   30.20    4.20
   2  -2   6   32.20    4.80
  -2  -2  -6   21.00    3.80
  -2  -2  -6   24.70    3.10
  -2  -2  -6   27.10    4.50
  -2   2  -6   26.00    4.20
   2   2   6   34.80    5.20
   2   2   6   23.60    3.50
  -2   2  -6   23.10    3.70
  -2   2  -6   26.40    2.60
  -4  -2  -6   78.69    9.60
   4  -2   6  105.69    9.20
   4  -2   6   92.59    8.40
  -4  -2  -6   98.79    8.60
   4   2   6   87.19    8.20
  -4   2  -6  100.29    8.40
  -4   2  -6   93.99    8.90
   4   2   6   98.89    9.30
   6  -2   6    5.00    3.10
  -6  -2  -6    7.40    3.60
  -6   2  -6    3.10    2.50
   6   2   6    4.90    3.10
 -13  -3   6   39.10    6.40
 -13  -3   6   39.40    6.80
 -13  -3   6   33.20    5.80
  13  -3  -6   34.00    6.10
  13   3  -6   49.99    7.50
 -13   3   6   28.70    5.50
 -13   3   6   35.10    5.90
  11  -3  -6   10.00    3.30
 -11  -3   6    7.00    3.00
  11  -3  -6   12.40    3.70
 -11  -3   6   10.80    3.10
 -11  -3   6   13.70    3.70
  11   3  -6    9.70    3.60
 -11   3   6   13.90    3.60
 -11   3   6   12.20    3.50
 -11   3   6   10.60    3.30
  -9  -3   6  431.86   26.40
   9  -3  -6  335.27   25.60
   9  -3  -6  350.66   25.30
  -9  -3   6  348.87   25.00
  -9  -3   6  335.87   25.80
   9   3  -6  340.37   25.70
  -9   3   6  383.66   26.20
  -9   3   6  372.16   25.50
  -9   3   6  365.76   25.50
   7  -3  -6    9.90    2.80
   7  -3  -6   10.00    2.40
  -7  -3   6   11.60    2.50
  -7  -3   6   12.90    3.40
  -7  -3   6    7.30    2.60
   7   3  -6   12.30    2.90
  -7   3   6   13.40    2.80
   7   3  -6    8.80    3.20
   7   3  -6   12.00    2.60
  -7   3   6   12.20    2.90
  -7   3   6   12.60    3.10
   5  -3  -6   32.00    4.40
   5  -3  -6   22.90    3.60
   5  -3  -6   21.00    3.30
  -5  -3   6   18.80    3.40
   5  -3  -6   24.70    3.00
  -5  -3   6   24.90    3.80
  -5   3   6   27.50    4.10
   5   3  -6   34.90    4.20
  -5   3   6   24.40    3.50
   5   3  -6   25.00    4.00
  -5   3   6   21.30    3.80
   5   3  -6   28.50    4.00
  -3  -3   6    0.40    1.50
   3  -3  -6    0.60    1.30
  -3  -3   6   -0.40    1.50
   3  -3  -6   -0.80    1.30
   3  -3  -6    0.30    1.50
   3   3  -6   -1.30    1.40
  -3   3   6    1.30    1.80
  -3   3   6   -0.20    1.30
   3   3  -6    0.60    1.40
   3   3  -6    0.60    1.40
   1  -3  -6  147.09   11.30
   1  -3  -6  147.49   11.70
   1  -3  -6  153.78   11.50
  -1  -3   6  147.19   11.30
  -1  -3   6  136.49   11.50
   1   3  -6  148.19   11.20
  -1   3   6  146.19   11.70
   1   3  -6  156.88   11.30
   1   3  -6  158.08   11.90
  -1   3   6  145.19   10.90
  -1  -3  -6   46.10    5.90
  -1  -3  -6   40.40    5.30
   1  -3   6   46.20    6.00
   1  -3   6   51.09    5.70
  -1  -3  -6   54.89    5.00
   1   3   6   57.09    6.90
   1   3   6   52.19    5.50
  -1   3  -6   52.29    5.70
  -1   3  -6   52.89    4.60
  -1   3  -6   47.50    5.90
  -3  -3  -6    1.50    1.80
   3  -3   6    2.30    2.50
  -3  -3  -6    2.50    2.40
   3  -3   6    1.50    2.20
  -3  -3  -6   -0.20    0.90
  -3   3  -6   -0.10    1.70
   3   3   6   -1.50    2.00
  -3   3  -6    0.60    2.00
   3   3   6    0.50    1.60
  -5  -3  -6    1.80    2.60
   5  -3   6    0.10    2.30
  -5   3  -6    4.90    2.50
  -5   3  -6    0.00    2.10
   5   3   6    1.50    2.30
   5   3   6    0.30    2.40
   7  -3   6  125.89   11.80
  -7  -3  -6  130.79   12.30
   7   3   6  131.99   12.50
 -12  -4   6   24.30    5.40
  12  -4  -6   41.10    6.30
  12  -4  -6   27.30    5.60
 -12  -4   6   39.10    6.50
  12   4  -6   56.49    7.80
 -12   4   6   37.30    6.10
 -12   4   6   50.19    6.90
 -10  -4   6   57.49    7.50
  10  -4  -6   46.00    6.50
 -10  -4   6   49.00    6.70
  10  -4  -6   51.79    6.90
 -10   4   6   60.69    7.30
  10   4  -6   65.29    7.60
 -10   4   6   57.19    6.70
 -10   4   6   47.60    6.40
   8  -4  -6   95.29    8.60
  -8  -4   6   81.49    8.30
  -8  -4   6   94.59    8.70
   8  -4  -6   86.79    7.70
  -8   4   6   88.89    8.00
  -8   4   6   91.89    8.60
  -8   4   6   70.49    7.60
   8   4  -6   94.29    8.40
  -6  -4   6  632.84   42.10
   6  -4  -6  662.23   42.90
   6  -4  -6  629.14   41.60
   6  -4  -6  564.44   42.30
  -6  -4   6  604.44   42.30
  -6   4   6  659.73   42.20
  -6   4   6  709.83   43.00
   6   4  -6  635.54   42.70
   6   4  -6  584.84   41.90
  -6   4   6  621.04   42.00
   6   4  -6  630.24   42.30
  -4  -4   6  218.28   16.60
   4  -4  -6  189.58   16.40
   4  -4  -6  245.98   16.60
  -4  -4   6  226.38   16.80
   4  -4  -6  261.47   17.20
  -4   4   6  235.98   16.40
   4   4  -6  224.08   16.60
  -4   4   6  199.78   16.60
   4   4  -6  255.57   16.90
   4   4  -6  249.48   17.10
   2  -4  -6  179.08   14.00
   2  -4  -6  216.78   14.50
   2  -4  -6  180.98   14.10
  -2  -4   6  181.18   13.70
  -2  -4   6  200.98   14.50
  -2   4   6  192.88   13.80
   2   4  -6  196.18   14.00
  -2   4   6  191.98   14.30
   2   4  -6  179.58   13.90
   2   4  -6  169.38   14.10
   0  -4  -6   63.49    8.10
   0  -4   6   90.99    8.10
   0  -4   6   81.19    7.20
   0  -4  -6   96.19    7.60
   0  -4  -6   83.09    7.40
   0   4   6   76.99    7.20
   0   4   6   93.39    8.30
   0   4  -6  111.09    8.50
   0   4  -6   81.79    7.50
   0   4  -6   82.69    7.10
  -2  -4  -6  103.19    9.00
   2  -4   6  103.49    9.00
  -2  -4  -6  100.89    7.70
  -2  -4  -6   81.79    7.80
   2   4   6   92.29    8.10
  -2   4  -6   95.19    8.90
  -2   4  -6   87.19    8.10
   2   4   6   81.79    8.70
  -2   4  -6   86.19    7.00
  -4  -4  -6   15.20    3.80
  -4  -4  -6   11.70    2.10
   4  -4   6   11.10    3.70
  -4   4  -6   14.90    3.50
   4   4   6    9.30    3.10
  -4   4  -6   10.20    3.20
   4   4   6    6.40    3.20
   6  -4   6   -1.90    2.30
  -6  -4  -6    0.60    2.50
  -6   4  -6    2.50    2.40
   6   4   6    0.40    2.60
   6   4   6    1.50    2.80
  13  -5  -6    1.00    3.00
 -13  -5   6    3.80    3.00
  13  -5  -6    4.00    3.40
 -13   5   6    4.30    3.10
 -11  -5   6    8.70    3.70
  11  -5  -6    4.70    3.10
 -11  -5   6    2.40    2.60
  11  -5  -6    3.40    2.70
 -11   5   6    5.50    3.00
 -11   5   6    6.60    3.00
  11   5  -6    4.60    3.20
   9  -5  -6  138.09   10.90
  -9  -5   6  128.59   11.90
  -9  -5   6  143.29   11.70
   9  -5  -6  147.09   11.70
  -9   5   6  132.79   11.10
   9   5  -6  139.19   11.60
  -9   5   6  119.09   10.60
  -9   5   6  102.19   11.10
  -7  -5   6   -0.60    1.50
  -7  -5   6   -0.60    1.80
   7  -5  -6   -3.00    1.50
  -7   5   6    0.70    2.00
  -7   5   6    1.80    1.60
  -7   5   6   -0.70    1.70
   7   5  -6   -2.00    1.70
  -5  -5   6    4.10    2.10
   5  -5  -6    1.60    1.60
   5  -5  -6    2.40    2.20
   5  -5  -6    3.00    2.10
  -5  -5   6    4.90    2.20
  -5   5   6   -0.30    1.60
   5   5  -6    7.30    2.40
   5   5  -6    4.40    2.40
  -5   5   6    3.10    2.10
   5   5  -6    3.00    1.90
   3  -5  -6    4.50    2.30
   3  -5  -6    3.50    2.00
  -3  -5   6    1.60    2.00
  -3  -5   6    1.90    1.70
   3  -5  -6    0.10    1.50
  -3   5   6    0.90    1.80
   3   5  -6    2.20    1.70
  -3   5   6    3.50    2.10
   3   5  -6    3.10    2.00
   3   5  -6    2.60    2.00
  -1  -5   6  301.27   20.30
   1  -5  -6  291.17   20.60
  -1  -5   6  279.67   21.10
   1  -5  -6  321.87   21.30
   1  -5  -6  327.97   21.00
   1   5  -6  278.37   20.50
   1   5  -6  274.37   20.70
   1   5  -6  256.07   20.70
  -1   5   6  301.97   21.10
  -1   5   6  270.47   20.40
  -1  -5  -6   26.00    4.70
   1  -5   6   32.00    5.20
  -1  -5  -6   37.00    4.60
  -1  -5  -6   34.90    4.60
   1   5   6   41.80    6.10
  -1   5  -6   31.20    4.80
  -1   5  -6   37.20    5.60
  -1   5  -6   30.10    4.00
   1   5   6   36.30    4.90
  -3  -5  -6   62.69    7.80
   3  -5   6   69.09    8.00
  -3  -5  -6   51.99    5.60
   3   5   6   54.29    7.00
  -3   5  -6   85.49    8.60
  -3   5  -6   58.09    7.10
   3   5   6   60.39    7.80
  -3   5  -6   59.09    5.00
  -5  -5  -6   12.20    3.90
   5  -5   6   16.70    4.40
  -5  -5  -6   21.80    2.90
  -5   5  -6   21.60    4.70
   5   5   6   26.00    4.90
   5   5   6   26.60    5.40
  -5   5  -6   21.80    4.70
 -12  -6   6    2.20    3.10
 -12  -6   6    4.30    3.10
  12  -6  -6    2.30    3.10
  12  -6  -6    1.90    2.90
 -12   6   6    2.40    2.70
  12   6  -6   -0.20    2.90
 -12   6   6   10.30    3.90
 -10  -6   6   34.10    6.80
  10  -6  -6   31.20    6.40
  10  -6  -6   24.00    5.00
 -10  -6   6   25.10    5.10
 -10   6   6   40.70    6.20
 -10   6   6   17.50    4.50
  10   6  -6   28.40    5.50
  -8  -6   6    3.60    2.20
  -8  -6   6    5.90    2.90
   8  -6  -6    3.10    2.50
  -8   6   6    4.70    2.50
   8   6  -6    5.10    2.90
  -8   6   6    2.30    2.40
   6  -6  -6   16.30    3.60
  -6  -6   6   12.30    3.30
  -6  -6   6   15.30    3.40
   6   6  -6   10.20    3.10
  -6   6   6   11.90    2.80
   6   6  -6   11.80    3.90
   6   6  -6    9.60    3.00
  -6   6   6    9.40    2.90
   4  -6  -6   81.89    7.70
   4  -6  -6   86.19    7.80
   4  -6  -6   76.09    7.90
  -4  -6   6   83.69    7.90
  -4  -6   6   82.39    7.50
   4   6  -6   94.59    7.70
   4   6  -6   83.09    7.70
  -4   6   6   82.39    7.60
   4   6  -6   77.99    7.90
  -4   6   6   62.59    7.60
  -2  -6   6   52.09    6.90
   2  -6  -6   39.00    5.80
   2  -6  -6   54.89    6.70
   2  -6  -6   61.89    5.90
   2   6  -6   49.60    6.30
   2   6  -6   55.39    6.50
  -2   6   6   60.59    6.70
  -2   6   6   47.70    6.00
   2   6  -6   51.59    6.20
   0  -6  -6  145.89   11.40
   0  -6  -6  143.89   12.30
   0  -6  -6  129.69   11.50
   0  -6   6  162.08   12.60
   0   6   6  151.48   11.70
   0   6  -6  161.08   12.40
   0   6  -6  149.39   12.00
   0   6   6  123.99   11.90
   0   6  -6  141.09   11.20
  -2  -6  -6    7.50    3.10
  -2  -6  -6    6.50    2.40
   2  -6   6   11.10    3.40
  -2   6  -6    9.70    2.30
   2   6   6   13.40    3.30
  -2   6  -6   11.50    3.40
  -2   6  -6    7.20    3.20
   2   6   6   10.40    3.60
  -4  -6  -6   10.40    3.70
   4  -6   6    9.00    3.70
  -4  -6  -6   17.00    3.00
   4   6   6    3.70    2.90
  -4   6  -6   14.40    3.90
  -4   6  -6   10.40    1.90
   4   6   6    6.20    3.00
  -4   6  -6    7.50    3.10
  -6  -6  -6    3.90    3.10
  -6  -6  -6    1.10    1.30
   6   6   6    2.50    3.10
  -6   6  -6    4.00    3.00
 -11  -7   6   30.50    6.10
  11  -7  -6   39.70    6.80
 -11   7   6   32.00    6.10
 -11   7   6   52.99    7.40
  11   7  -6   41.20    7.10
   9  -7  -6    2.20    2.70
  -9  -7   6    3.60    2.70
  -9   7   6    5.00    2.70
   9   7  -6    6.60    3.30
  -9   7   6    6.10    3.00
  -7  -7   6    3.00    2.50
  -7  -7   6    6.90    2.90
   7  -7  -6    4.90    2.80
  -7   7   6   10.10    3.10
   7   7  -6    5.10    2.80
   5  -7  -6   99.29    8.30
   5  -7  -6   87.29    8.30
  -5  -7   6   81.09    8.00
  -5  -7   6   84.99    8.40
   5   7  -6   95.59    9.10
   5   7  -6   85.89    8.30
  -5   7   6   76.59    8.70
  -5   7   6   91.19    8.10
   5   7  -6   79.69    7.70
   3  -7  -6    1.30    2.10
   3  -7  -6   -0.30    1.50
   3  -7  -6   -1.70    1.80
  -3  -7   6    3.20    2.30
   3   7  -6    2.10    2.00
  -3   7   6    0.50    2.10
   3   7  -6    1.30    2.00
  -3   7   6    2.60    2.10
   3   7  -6   -0.10    1.80
   1  -7  -6  482.05   38.30
  -1  -7   6  607.34   39.20
   1  -7  -6  569.74   39.00
   1  -7  -6  579.64   38.20
   1   7  -6  609.14   38.30
   1   7  -6  542.85   38.50
  -1   7   6  589.94   38.70
  -1   7   6  560.34   38.40
   1   7  -6  507.75   38.40
  -1  -7  -6   14.00    4.10
   1  -7   6   10.30    3.80
  -1  -7  -6   13.00    3.40
   1   7   6   17.20    3.90
  -1   7  -6   13.50    3.70
   1   7   6    9.60    3.70
  -1   7  -6   12.50    2.90
  -1   7  -6   12.20    3.50
  -3  -7  -6   54.89    6.40
  -3  -7  -6   31.20    6.20
   3  -7   6   47.80    7.30
  -3   7  -6   54.89    7.50
   3   7   6   58.19    7.50
   3   7   6   66.19    8.40
  -3   7  -6   44.60    6.70
  -3   7  -6   51.09    5.00
  -5  -7  -6   39.00    6.60
  -5  -7  -6   21.90    3.90
   5  -7   6   24.90    5.90
   5  -7   6   19.60    5.30
   5   7   6   15.00    5.10
  -5   7  -6   32.00    5.90
   5   7   6   26.00    5.60
 -10  -8   6    1.80    2.70
  10  -8  -6   -1.20    2.60
  10   8  -6   -0.20    2.60
 -10   8   6    0.10    2.50
 -10   8   6    0.00    2.50
  -8  -8   6    1.70    2.70
   8  -8  -6   -1.60    2.20
  -8  -8   6   -3.70    2.00
  -8   8   6   -1.20    2.10
   8   8  -6    0.40    2.60
  -6  -8   6  146.09   11.90
  -6  -8   6  129.89   12.10
   6  -8  -6  162.88   12.60
   6   8  -6  137.89   12.10
  -6   8   6  128.49   11.90
   4  -8  -6   19.50    4.20
  -4  -8   6   25.20    4.70
   4  -8  -6   17.40    4.00
   4   8  -6   17.00    3.70
   4   8  -6   18.70    4.10
  -4   8   6   18.00    3.90
  -4   8   6   16.70    3.80
   4   8  -6   18.40    4.10
   2  -8  -6    2.80    2.70
  -2  -8   6   -2.40    2.20
   2  -8  -6    2.10    2.20
   2  -8  -6    0.90    2.20
   2   8  -6    1.40    2.20
   2   8  -6    0.90    2.00
   2   8  -6    0.60    2.00
  -2   8   6    1.00    2.00
  -2   8   6    5.70    2.80
   0  -8  -6    3.70    2.90
   0  -8  -6    5.40    2.50
   0  -8   6   10.30    3.70
   0   8  -6    3.50    2.10
   0   8  -6   -1.00    2.30
   0   8  -6    4.30    2.80
   0   8   6    6.00    3.10
   0   8   6    7.80    3.10
   2  -8   6   74.79    9.00
  -2  -8  -6   71.09    9.20
  -2  -8  -6   55.39    7.20
  -2   8  -6   58.09    6.70
   2   8   6   54.39    8.20
   2   8   6   64.99    8.20
  -2   8  -6   61.19    8.00
  -2   8  -6   49.20    7.50
  -4  -8  -6    2.40    2.10
   4  -8   6    4.70    3.70
  -4  -8  -6    1.80    3.00
   4  -8   6    7.20    3.70
  -4   8  -6    4.70    1.80
  -4   8  -6    1.60    3.00
   4   8   6    3.80    3.20
   4   8   6    3.50    3.30
   9  -9  -6   92.69   10.20
  -9  -9   6   55.59    8.00
   9   9  -6   59.99    8.50
  -9   9   6   63.09    8.40
  -7  -9   6    0.00    2.50
   7  -9  -6    3.40    3.00
  -7   9   6   -1.80    2.20
   7   9  -6    0.50    2.70
  -5  -9   6   11.50    3.90
   5  -9  -6   21.20    4.50
  -5   9   6   19.20    4.40
   5   9  -6   15.30    4.20
  -3  -9   6   17.30    4.40
   3  -9  -6   27.10    5.10
   3  -9  -6   18.30    3.90
   3   9  -6   18.50    3.90
   3   9  -6   20.10    4.60
   3   9  -6   21.90    4.60
  -3   9   6   21.30    4.60
  -1  -9   6  104.19   11.50
   1  -9  -6   99.09    9.90
   1  -9  -6  119.19   10.60
   1   9  -6  107.09    9.80
   1   9  -6   94.09   10.70
  -1   9   6   91.79    9.40
   1   9  -6   88.69    9.20
  -1   9   6   92.99   10.40
  -1  -9  -6   30.60    6.10
  -1  -9  -6   41.90    6.10
   1  -9   6   47.50    7.40
  -1   9  -6   31.40    5.10
   1   9   6   28.00    5.90
  -1   9  -6   30.80    5.80
   1   9   6   42.90    6.60
  -3  -9  -6   32.80    6.20
   3  -9   6   36.50    6.70
   3  -9   6   21.80    6.30
   3   9   6   31.80    6.30
   3   9   6   23.40    5.30
  -3   9  -6   26.30    6.10
  -8 -10   6   37.60    6.70
  -6 -10   6   53.89    7.90
   6 -10  -6   36.90    6.40
  -6  10   6   44.50    7.10
   6  10  -6   37.40    6.50
  -4 -10   6    2.90    3.00
   4 -10  -6   -1.40    2.10
   4 -10  -6    4.70    3.20
  -4  10   6    2.80    2.90
   4  10  -6    1.10    2.40
  -2 -10   6   65.19    8.00
  -2 -10   6   50.59    7.90
   2 -10  -6   64.59    8.80
  -2  10   6   58.19    8.20
   2  10  -6   58.59    8.00
   2  10  -6   53.39    7.70
   0 -10   6    2.60    3.20
   0 -10   6    2.50    2.90
   0 -10  -6   -3.20    2.50
   0 -10  -6    0.70    2.50
   0  10   6    1.40    3.10
   0  10  -6    6.20    3.40
   0  10   6    0.30    2.80
   0  10  -6    1.00    2.30
   2  10   6   10.70    4.50
   5 -11  -6    1.20    2.70
  -3 -11   6   -0.50    4.70
   3 -11  -6    3.40    3.50
   3  11  -6   -4.00    4.20
  -3  11   6   -0.70    3.00
   1 -11  -6   46.70    8.50
   1  11  -6   33.20    6.20
 -14   0   7    7.00    3.40
 -14   0   7    5.50    3.40
 -14   0   7    9.10    3.70
 -12   0   7    7.50    2.80
 -12   0   7    6.50    3.00
  12   0  -7    3.60    2.90
 -12   0   7    6.40    3.00
  10   0  -7   82.49    8.30
  10   0  -7   87.09    8.10
 -10   0   7   77.89    7.70
 -10   0   7   86.99    8.70
 -10   0   7   85.09    8.60
   8   0  -7 1112.19   68.49
  -8   0   7 1117.59   68.99
  -8   0   7  953.30   67.79
   8   0  -7 1060.09   68.79
  -8   0   7  951.40   69.89
   6   0  -7    9.60    2.60
   6   0  -7   11.60    2.40
   6   0  -7    8.60    2.50
  -6   0   7    9.70    2.30
  -6   0   7   14.20    3.00
   4   0  -7    0.10    1.50
  -4   0   7   -0.80    1.30
   4   0  -7   -0.30    1.20
   4   0  -7    0.80    1.50
  -2   0   7    0.90    2.00
   2   0  -7    4.80    2.20
   2   0  -7    0.00    1.50
   2   0  -7    1.00    1.50
   0   0  -7   32.30    4.80
   0   0  -7   37.10    5.10
   0   0   7   28.90    4.60
   0   0  -7   33.00    3.90
  -2   0  -7  180.58   13.70
   2   0   7  159.28   13.40
  -2   0  -7  177.58   14.00
  -2   0  -7  162.78   11.60
   4   0   7   26.40    4.90
  -4   0  -7   22.50    4.80
  -4   0  -7   27.70    4.80
   6   0   7   87.39   10.20
  13  -1  -7   -0.20    2.80
 -13  -1   7   -0.50    2.60
 -13  -1   7   -0.20    2.30
 -13  -1   7    2.50    2.70
 -13   1   7    1.40    2.60
 -13   1   7    1.70    2.60
  13   1  -7   -0.20    2.90
 -13   1   7    5.20    2.90
 -11  -1   7   12.00    3.50
  11  -1  -7    8.10    3.30
 -11  -1   7    8.50    3.20
 -11  -1   7    5.30    2.50
  11  -1  -7    9.30    3.20
 -11   1   7   11.60    3.80
 -11   1   7   10.80    3.30
  11   1  -7    7.50    3.10
 -11   1   7    8.00    3.00
  -9  -1   7  326.57   21.90
  -9  -1   7  286.17   21.00
  -9  -1   7  347.37   22.40
   9  -1  -7  296.87   21.10
   9  -1  -7  288.17   21.30
   9   1  -7  271.37   21.20
  -9   1   7  276.27   20.80
  -9   1   7  298.27   21.90
   9   1  -7  308.57   21.40
  -9   1   7  252.27   21.20
   7  -1  -7    1.40    1.90
   7  -1  -7    2.80    2.10
  -7  -1   7    1.90    1.50
   7  -1  -7    0.20    1.50
  -7  -1   7   -0.60    1.80
   7   1  -7    1.80    1.80
  -7   1   7    4.60    2.30
  -7   1   7    2.00    1.60
   7   1  -7    3.60    2.00
   7   1  -7    3.70    2.10
   5  -1  -7   -0.10    1.60
  -5  -1   7   -0.60    1.40
   5  -1  -7   -0.30    1.10
   5  -1  -7   -0.50    1.30
   5  -1  -7    0.30    1.60
  -5  -1   7    0.10    1.70
  -5   1   7    0.20    1.10
   5   1  -7    0.10    1.60
   5   1  -7    0.40    1.50
  -5   1   7    1.40    1.70
   5   1  -7   -0.50    1.50
   3  -1  -7   83.99    7.80
   3  -1  -7   80.89    7.80
  -3  -1   7   97.39    8.00
   3  -1  -7   85.19    8.00
  -3  -1   7   90.09    7.90
   3   1  -7  101.89    8.00
   3   1  -7   88.39    7.30
  -3   1   7   88.99    8.10
   3   1  -7   96.19    8.10
   1  -1  -7    6.90    2.30
  -1  -1   7    5.10    2.40
   1  -1  -7    6.60    2.00
   1  -1  -7    4.00    2.30
   1   1  -7    4.50    1.70
   1   1  -7    4.80    2.30
  -1   1   7   11.20    3.00
   1   1  -7    5.50    1.80
  -1  -1  -7  262.37   18.20
  -1  -1  -7  237.38   16.30
  -1  -1  -7  212.88   17.20
   1  -1   7  224.08   17.30
   1   1   7  221.08   17.50
  -1   1  -7  251.37   16.20
  -1   1  -7  230.48   17.90
  -1   1  -7  219.08   17.40
   3  -1   7    5.90    2.70
  -3  -1  -7   12.70    3.50
  -3  -1  -7    7.60    3.10
   3   1   7   15.40    4.00
  -3   1  -7   13.70    3.60
   5  -1   7   67.69    8.50
   5  -1   7   35.00    8.30
  -5  -1  -7   57.49    7.80
  -5   1  -7   60.39    7.70
   5   1   7   79.89    9.20
  12  -2  -7   39.70    6.20
 -12  -2   7   21.00    4.90
  12  -2  -7   32.10    5.50
 -12  -2   7   31.70    5.60
 -12   2   7   25.50    5.10
 -12   2   7   26.80    5.10
 -12   2   7   26.60    5.20
  12   2  -7   32.80    5.70
 -10  -2   7   90.69    8.90
 -10  -2   7   85.39    9.60
  10  -2  -7   89.09    8.60
  10  -2  -7   90.69    8.50
  10   2  -7   93.59    8.80
 -10   2   7   64.89    8.40
 -10   2   7  101.09    8.50
 -10   2   7   83.39    9.50
   8  -2  -7   32.10    4.30
  -8  -2   7   23.70    4.20
   8  -2  -7   25.50    4.20
  -8   2   7   21.60    3.80
  -8   2   7   27.80    6.50
  -8   2   7   27.10    4.40
   8   2  -7   25.40    4.10
   8   2  -7   27.90    4.40
  -6  -2   7   11.90    2.70
  -6  -2   7   10.90    3.10
   6  -2  -7   20.20    3.90
   6  -2  -7   10.80    2.30
   6  -2  -7   16.30    2.80
   6  -2  -7   13.70    2.90
   6   2  -7    9.20    2.70
  -6   2   7   15.10    2.70
  -6   2   7   11.40    2.90
   6   2  -7    9.70    2.60
   6   2  -7   14.90    3.10
   4  -2  -7  253.47   17.10
   4  -2  -7  198.78   16.60
  -4  -2   7  235.98   16.70
  -4  -2   7  234.48   16.80
   4  -2  -7  233.48   16.70
   4   2  -7  237.48   16.80
   4   2  -7  221.58   16.20
  -4   2   7  223.58   16.90
   4   2  -7  244.78   16.90
  -4   2   7  206.78   15.80
  -2  -2   7   55.39    6.50
   2  -2  -7   57.89    5.90
  -2  -2   7   66.09    6.40
   2  -2  -7   46.80    6.10
   2  -2  -7   51.09    6.60
   2   2  -7   71.29    6.10
  -2   2   7   67.29    6.90
   2   2  -7   64.69    5.70
  -2   2   7   62.89    7.10
   2   2  -7   66.89    7.10
   0  -2  -7  248.28   18.90
   0  -2   7  252.67   18.90
   0  -2  -7  248.28   17.80
   0  -2   7  263.27   18.60
   0  -2  -7  256.87   18.50
   0   2  -7  236.48   17.60
   0   2  -7  270.67   19.00
   0   2   7  260.17   18.80
   0   2  -7  249.18   17.90
  -2  -2  -7    1.20    1.20
   2  -2   7    0.80    2.00
  -2  -2  -7    3.10    2.20
   2  -2   7    0.40    1.80
  -2  -2  -7   -0.80    2.00
  -2   2  -7   -0.20    1.80
  -2   2  -7    1.10    0.90
   2   2   7   -0.40    1.70
  -4  -2  -7   10.20    3.70
   4  -2   7    6.50    3.10
  -4   2  -7   10.70    3.40
   4   2   7    5.10    3.10
  -6  -2  -7    2.10    3.10
   6  -2   7   -0.10    2.60
  -6   2  -7    3.10    2.90
   6   2   7    4.20    3.40
  13  -3  -7    5.90    3.40
 -13  -3   7    0.60    2.70
 -13  -3   7    1.60    2.90
  13  -3  -7   -2.30    2.50
  13   3  -7    4.60    3.40
 -13   3   7   -1.10    2.40
 -13   3   7    0.40    2.60
  11  -3  -7   12.50    3.80
 -11  -3   7   21.50    4.50
 -11  -3   7   16.10    4.40
  11  -3  -7   17.70    4.00
 -11   3   7   14.30    3.80
 -11   3   7   14.60    3.90
  11   3  -7   22.60    4.80
 -11   3   7   17.00    4.10
   9  -3  -7   13.60    3.50
  -9  -3   7   19.20    4.20
   9  -3  -7   14.00    3.40
  -9   3   7   16.10    3.80
  -9   3   7   16.60    3.50
  -9   3   7   13.70    3.60
   9   3  -7   15.60    3.80
   9   3  -7   10.50    3.40
  -7  -3   7  220.38   16.70
   7  -3  -7  228.08   17.40
  -7  -3   7  223.48   17.30
   7   3  -7  206.98   17.40
   7   3  -7  257.47   17.20
  -7   3   7  256.37   16.90
  -7   3   7  225.58   17.20
  -5  -3   7    1.10    1.60
   5  -3  -7    1.10    1.70
   5  -3  -7   -0.60    1.50
  -5  -3   7   -0.20    1.80
   5  -3  -7   -0.60    1.60
  -5   3   7    0.60    1.70
   5   3  -7   -2.00    1.40
   5   3  -7   -0.10    1.50
   5   3  -7    0.70    1.70
  -5   3   7   -0.20    1.40
   3  -3  -7   50.79    5.90
   3  -3  -7   51.89    6.10
   3  -3  -7   63.69    5.90
  -3  -3   7   59.49    6.50
  -3  -3   7   58.49    6.60
  -3   3   7   58.49    6.80
   3   3  -7   45.90    6.00
   3   3  -7   37.30    5.40
  -3   3   7   55.49    5.10
   3   3  -7   45.20    5.50
  -1  -3   7  282.97   19.00
   1  -3  -7  227.78   19.10
   1  -3  -7  244.18   18.90
   1  -3  -7  255.67   18.80
  -1  -3   7  284.27   19.60
   1   3  -7  273.27   19.50
   1   3  -7  271.87   18.60
  -1   3   7  259.97   18.40
   1   3  -7  253.87   18.60
  -1   3   7  273.07   19.40
  -1  -3  -7   26.10    4.10
   1  -3   7   20.30    4.40
   1  -3   7   25.90    4.30
  -1  -3  -7   21.80    3.30
  -1  -3  -7   17.90    4.00
  -1   3  -7   23.90    3.20
  -1   3  -7   18.80    3.90
   1   3   7   19.80    4.20
  -1   3  -7   27.90    4.20
  -3  -3  -7   47.90    6.90
   3  -3   7   33.50    5.70
   3   3   7   53.79    7.40
  -3   3  -7   47.30    6.70
  -5  -3  -7   73.39    9.10
   5   3   7   56.49    8.30
  -5   3  -7   62.99    8.10
 -12  -4   7   21.30    5.20
  12  -4  -7   15.50    4.10
 -12  -4   7   19.40    5.00
  12  -4  -7   20.70    4.90
 -12   4   7   24.40    5.20
 -12   4   7   17.70    4.40
  12   4  -7   17.00    4.80
 -10  -4   7   79.99    9.00
  10  -4  -7   59.79    7.40
  10  -4  -7   75.59    8.60
  10   4  -7   70.89    8.50
 -10   4   7   65.79    8.30
 -10   4   7   54.79    7.30
 -10   4   7   58.89    7.40
  -8  -4   7   12.40    3.30
   8  -4  -7   17.10    3.70
  -8   4   7   17.90    3.50
  -8   4   7   14.30    3.40
   8   4  -7   13.70    3.10
   8   4  -7   13.20    3.60
   6  -4  -7   30.50    4.90
  -6  -4   7   32.70    5.00
   6  -4  -7   26.10    4.10
  -6  -4   7   37.30    5.10
   6  -4  -7   38.40    5.30
   6   4  -7   40.00    5.10
   6   4  -7   23.50    4.30
  -6   4   7   36.70    5.10
  -6   4   7   42.60    5.00
   6   4  -7   48.00    6.00
   4  -4  -7   -0.30    1.60
   4  -4  -7    4.10    2.00
   4  -4  -7    0.00    1.50
  -4  -4   7    3.70    2.00
  -4  -4   7    1.60    2.00
  -4   4   7    1.60    2.20
   4   4  -7    2.60    1.90
   4   4  -7    4.40    2.20
  -4   4   7    2.60    1.90
   4   4  -7    4.10    2.10
  -2  -4   7  253.27   18.80
  -2  -4   7  287.97   19.70
   2  -4  -7  224.48   18.90
   2  -4  -7  212.98   18.70
   2  -4  -7  264.47   19.00
   2   4  -7  272.97   18.90
  -2   4   7  259.97   19.30
  -2   4   7  283.17   18.70
   2   4  -7  277.77   19.50
   2   4  -7  282.57   18.90
   0  -4  -7 1049.00   73.99
   0  -4  -7 1198.88   73.49
   0  -4   7 1148.19   73.39
   0  -4   7 1135.79   74.29
   0  -4  -7 1087.79   73.49
   0   4   7 1100.09   73.09
   0   4   7 1141.29   74.19
   0   4  -7 1185.78   74.29
   0   4  -7 1039.30   72.89
   0   4  -7 1103.09   73.49
   2  -4   7    1.40    2.60
  -2  -4  -7    3.60    2.60
  -2  -4  -7    4.90    2.80
  -2  -4  -7    2.20    1.80
  -2   4  -7    3.40    1.30
   2   4   7    4.50    2.90
   2   4   7    1.70    2.10
  -2   4  -7    2.20    2.10
  -2   4  -7    3.00    2.70
  -4  -4  -7   29.00    3.20
  -4  -4  -7   27.50    5.40
  -4   4  -7   19.30    4.70
   4   4   7   30.00    5.90
 -11  -5   7    5.10    3.20
  11  -5  -7   12.80    4.10
 -11   5   7    5.20    3.20
 -11   5   7    4.20    2.70
  11   5  -7   10.40    4.00
  -9  -5   7   12.30    3.60
   9  -5  -7   14.00    3.80
  -9   5   7   14.80    3.50
  -9   5   7    5.30    2.80
   9   5  -7   11.40    3.50
   7  -5  -7   50.89    6.60
  -7  -5   7   66.69    7.20
  -7  -5   7   52.29    6.90
   7   5  -7   54.29    6.90
   7   5  -7   71.09    6.40
  -7   5   7   45.30    6.30
  -7   5   7   58.09    6.90
   5  -5  -7   13.50    3.00
  -5  -5   7   19.30    3.80
  -5  -5   7   20.40    3.90
   5  -5  -7   21.30    4.40
   5  -5  -7   21.00    3.70
   5   5  -7   20.60    3.80
   5   5  -7   14.90    3.50
   5   5  -7   11.80    3.10
  -5   5   7   18.20    3.70
  -5   5   7   12.60    3.10
   3  -5  -7   -0.60    1.60
  -3  -5   7    1.10    1.90
   3  -5  -7    1.40    1.90
  -3  -5   7   -1.00    1.50
   3  -5  -7   -0.30    1.80
  -3   5   7   -2.30    1.70
  -3   5   7   -0.80    1.70
   3   5  -7   -1.40    1.30
   3   5  -7   -0.50    1.60
   3   5  -7    0.20    1.80
  -1  -5   7  121.49   10.60
   1  -5  -7  114.19    9.90
   1  -5  -7  126.29   10.60
   1  -5  -7  101.69    9.70
  -1   5   7  118.09    9.80
   1   5  -7  113.49    9.60
  -1   5   7  118.09   10.30
   1   5  -7  112.09    9.80
   1   5  -7  118.69   10.50
  -1  -5  -7    1.60    2.40
  -1  -5  -7    2.10    1.90
  -1  -5  -7    1.60    1.80
   1  -5   7    8.70    3.40
   1   5   7    5.20    3.00
  -1   5  -7    8.10    3.40
  -1   5  -7    3.20    2.30
   1   5   7   -1.20    1.70
  -1   5  -7    2.50    1.60
   3  -5   7   24.90    5.40
  -3  -5  -7   22.50    3.70
  -3  -5  -7   51.39    7.20
   3   5   7   29.00    5.80
  -3   5  -7   25.90    5.40
  -3   5  -7   29.80    5.30
   3   5   7   33.80    5.40
  -3   5  -7   31.20    3.00
  -5  -5  -7   59.09    8.60
  -5   5  -7   72.99    9.10
   5   5   7   51.19   11.40
  12  -6  -7   37.50   10.20
 -12   6   7   29.80    5.80
 -12   6   7   30.70    6.00
  10  -6  -7   10.50    3.90
 -10  -6   7   16.20    4.30
  10   6  -7   10.70    3.90
 -10   6   7   10.70    3.70
  -8  -6   7  124.19   11.40
   8  -6  -7  143.49   11.80
  -8  -6   7  126.39   11.00
   8   6  -7  131.79   11.60
  -8   6   7  113.39   11.00
  -8   6   7  129.49   10.90
   6  -6  -7   -1.00    1.90
  -6  -6   7   -1.00    1.80
  -6  -6   7   -0.30    2.00
  -6   6   7    2.00    2.10
   6   6  -7    2.00    2.30
   6   6  -7    2.00    2.10
   6   6  -7   -1.20    1.90
  -6   6   7   -0.80    1.80
  -4  -6   7   60.79    6.50
   4  -6  -7   40.80    5.70
   4  -6  -7   52.29    6.40
   4  -6  -7   41.60    6.20
  -4  -6   7   55.89    6.90
   4   6  -7   43.50    6.20
   4   6  -7   47.90    6.20
  -4   6   7   55.99    6.60
   4   6  -7   32.50    5.50
  -4   6   7   51.99    6.20
  -2  -6   7   42.60    6.20
   2  -6  -7   30.90    5.40
   2  -6  -7   34.40    5.20
   2  -6  -7   39.60    5.80
  -2   6   7   42.60    6.00
   2   6  -7   34.40    5.20
   2   6  -7   50.99    6.40
   2   6  -7   35.20    5.20
  -2   6   7   39.70    5.60
   0  -6  -7   19.40    3.70
   0  -6  -7   17.80    4.30
   0  -6   7   10.90    3.60
   0  -6  -7   12.20    3.10
   0   6  -7   14.00    3.60
   0   6   7   13.80    4.00
   0   6  -7   17.90    3.20
   0   6   7   32.10    4.90
   0   6  -7   21.40    4.60
   2  -6   7   10.40    3.80
  -2  -6  -7   14.90    3.20
  -2  -6  -7   11.80    4.00
   2   6   7   19.40    4.20
   2   6   7   20.80    5.00
  -2   6  -7   13.20    3.70
  -2   6  -7    8.50    2.30
  -2   6  -7   17.50    4.40
  -4  -6  -7   26.60    3.80
  -4  -6  -7   17.90    5.10
   4  -6   7   16.90    5.10
   4   6   7   27.40    5.90
  -4   6  -7   22.10    5.00
   4   6   7   37.40    6.00
  -4   6  -7   23.30    5.40
  11  -7  -7    6.10    4.50
 -11  -7   7    3.30    3.10
 -11   7   7    4.00    3.40
  -9  -7   7  140.29   13.50
   9  -7  -7  164.68   14.10
   9   7  -7  158.78   14.00
  -9   7   7  171.58   13.70
  -7  -7   7    5.00    2.90
  -7  -7   7    5.40    2.90
   7  -7  -7    6.50    3.00
   7   7  -7    3.20    2.60
  -7   7   7    4.90    2.90
   5  -7  -7   -0.30    1.80
  -5  -7   7   -0.60    2.00
   5  -7  -7   -0.90    1.80
  -5  -7   7    1.10    2.30
   5   7  -7   -1.30    2.10
  -5   7   7    0.80    2.00
  -5   7   7   -2.60    2.00
   5   7  -7   -2.30    1.90
   5   7  -7    3.00    2.10
   3  -7  -7   65.29    8.40
   3  -7  -7   93.69   10.10
   3  -7  -7   86.79    8.50
  -3  -7   7   90.59    8.90
  -3   7   7   77.19    9.00
   3   7  -7   70.99    8.60
  -3   7   7   92.29    8.50
   3   7  -7   86.79    8.40
   3   7  -7   93.99    8.80
   1  -7  -7   80.49    8.60
   1  -7  -7   58.19    8.00
   1  -7  -7   68.29    7.60
  -1  -7   7   92.89    9.70
  -1   7   7   86.19    8.70
   1   7  -7   66.89    8.00
   1   7  -7   62.19    8.00
   1   7  -7   59.39    7.10
  -1   7   7   66.99    8.20
  -1  -7  -7  175.08   15.00
  -1  -7  -7  162.78   13.90
   1  -7   7  181.98   15.40
  -1   7  -7  172.78   13.40
  -1   7  -7  161.78   14.80
   1   7   7  169.58   14.30
   1   7   7  198.98   15.50
  -1   7  -7  192.48   14.90
  -3  -7  -7   22.10    3.90
   3  -7   7   11.00    4.30
  -3  -7  -7   16.70    4.60
   3   7   7   15.50    4.70
  -3   7  -7   12.90    2.60
  -3   7  -7   19.80    5.10
   3   7   7   25.10    5.10
  -3   7  -7   11.70    4.10
 -10  -8   7   27.20    5.80
 -10   8   7   31.10    5.90
  -8  -8   7  288.47   21.90
  -8  -8   7  271.27   21.70
   8  -8  -7  299.77   22.50
  -8   8   7  294.67   22.20
   8   8  -7  294.47   22.30
   6  -8  -7   16.00    3.90
  -6  -8   7   18.40    4.40
  -6   8   7   24.00    5.10
   6   8  -7   20.30    4.70
  -4  -8   7   19.50    4.60
   4  -8  -7   15.30    4.00
   4  -8  -7   12.00    3.40
  -4   8   7   18.10    4.20
   4   8  -7   17.20    4.30
   4   8  -7   12.80    3.90
   4   8  -7   19.30    3.90
  -4   8   7   15.40    3.90
   2  -8  -7   -0.90    2.20
  -2  -8   7   -1.00    2.40
   2  -8  -7   -2.00    2.00
   2  -8  -7   -1.80    2.10
   2   8  -7   -0.50    2.30
  -2   8   7    0.40    2.50
   2   8  -7   -1.50    1.90
  -2   8   7   -1.60    2.20
   2   8  -7    0.70    2.00
   0  -8   7   39.10    6.80
   0  -8  -7   46.30    6.50
   0  -8  -7   51.39    7.40
   0   8  -7   50.29    7.20
   0   8   7   49.99    7.10
   0   8   7   44.00    6.70
   0   8  -7   32.10    5.20
   0   8  -7   34.20    6.30
   2  -8   7   48.30    7.50
  -2  -8  -7   52.39    6.70
  -2  -8  -7   30.30    6.30
  -2   8  -7   44.40    7.00
  -2   8  -7   45.00    7.40
  -2   8  -7   49.60    5.90
   2   8   7   48.00    7.10
   2   8   7   52.59    8.10
  -9  -9   7   39.40    9.30
  -7  -9   7    1.30    2.60
   7  -9  -7    3.70    3.10
   7   9  -7   -3.90    1.80
  -7   9   7    0.50    2.60
  -5  -9   7    1.60    2.70
   5  -9  -7    3.00    2.50
  -5   9   7    3.50    3.00
   5   9  -7    3.20    2.80
   3  -9  -7   14.60    4.60
   3  -9  -7   17.30    4.00
   3  -9  -7   32.50    6.00
  -3  -9   7   19.80    5.20
   3   9  -7   23.90    5.00
  -3   9   7   18.10    4.50
   3   9  -7   19.10    4.50
   3   9  -7   23.20    4.50
  -1  -9   7   18.00    4.70
   1  -9  -7    9.90    3.70
   1  -9  -7   12.40    4.20
  -1   9   7   11.80    4.10
   1   9  -7   10.70    3.30
   1   9  -7   14.20    4.30
   1   9  -7   20.80    4.70
  -1   9   7   19.70    4.70
  -1  -9  -7    6.70    3.30
  -1  -9  -7    3.70    3.80
   1  -9   7    9.30    5.10
   1   9   7   15.90    4.80
  -1   9  -7    8.70    3.80
  -1   9  -7   11.20    5.00
   1   9   7   11.40    4.50
   6 -10  -7   -2.40    2.30
  -6 -10   7   -0.50    2.60
  -6  10   7    1.30    2.80
  -4 -10   7   58.29    8.30
   4 -10  -7   44.10    6.50
   4 -10  -7   61.89    8.20
   4  10  -7   59.59    8.10
   4  10  -7   32.60    6.40
  -4  10   7   45.60    7.20
  -2 -10   7    0.40    4.10
   2 -10  -7    1.60    3.10
   2 -10  -7   -1.00    2.80
   2  10  -7   -2.70    2.40
  -2  10   7   -3.50    2.50
   2  10  -7   -1.00    2.10
 -12   0   8   15.30    4.10
  12   0  -8   10.40    3.90
  10   0  -8   45.10    6.30
 -10   0   8   43.70    6.40
  10   0  -8   32.80    5.30
  -8   0   8    1.00    2.20
   8   0  -8   -0.80    2.10
   8   0  -8    2.80    2.00
  -6   0   8   14.80    3.00
   6   0  -8   10.40    2.50
   6   0  -8   12.80    3.60
  -6   0   8   11.90    3.20
   6   0  -8   26.00    4.30
  -4   0   8  244.58   18.10
   4   0  -8  229.98   17.80
   4   0  -8  249.68   18.10
   2   0  -8    9.70    3.10
  -2   0   8    9.70    3.20
   2   0  -8   15.20    3.00
   2   0  -8    8.60    2.70
   0   0  -8  298.87   23.40
   0   0  -8  349.87   24.10
   0   0   8  315.97   23.70
   0   0  -8  333.97   22.40
  -2   0  -8    3.80    2.80
  -2   0  -8    4.60    3.10
   2   0   8    6.00    2.90
  -2   0  -8    4.30    1.30
  -4   0  -8   17.90    4.80
  -4   0  -8   19.00    4.40
   4   0   8   24.60    5.20
 -13  -1   8    0.30    2.60
 -13  -1   8    0.30    3.00
  13  -1  -8    3.90    3.40
 -13   1   8    0.60    2.80
 -13   1   8    1.70    2.80
  13   1  -8   -0.40    2.90
  11  -1  -8    5.30    3.00
 -11  -1   8    0.40    2.40
  11  -1  -8    1.80    2.60
  11   1  -8    0.90    2.20
 -11   1   8    2.10    2.30
  11   1  -8   -1.40    3.80
   9  -1  -8    3.00    2.20
  -9  -1   8    4.50    2.80
   9  -1  -8    7.50    3.10
   9   1  -8    5.00    2.50
  -9   1   8    5.70    2.60
   9   1  -8    2.40    2.40
  -7  -1   8   80.79    7.40
   7  -1  -8   81.79    8.30
   7  -1  -8   96.49    8.70
  -7  -1   8   75.89    8.10
   7   1  -8   89.19    8.30
  -7   1   8   84.39    8.10
   7   1  -8   88.69    7.70
   7   1  -8   82.19    8.30
   5  -1  -8   37.80    5.50
   5  -1  -8   39.20    5.40
   5  -1  -8   39.80    5.50
  -5  -1   8   43.80    5.50
  -5  -1   8   44.90    6.00
   5   1  -8   38.00    5.60
  -5   1   8   40.70    5.90
   5   1  -8   43.70    5.80
   5   1  -8   42.70    4.90
   3  -1  -8  123.69    9.60
  -3  -1   8   90.29    8.90
   3  -1  -8   91.89    8.70
  -3  -1   8  107.69    9.10
   3  -1  -8  130.99    9.60
   3   1  -8   91.69    8.50
  -3   1   8   98.69    9.30
   3   1  -8   90.39    8.90
   1  -1  -8   82.19    8.60
   1  -1  -8   93.49    8.20
   1  -1  -8  107.89    9.70
  -1  -1   8  102.69    9.20
  -1  -1   8  102.49    9.20
   1   1  -8  101.29    8.20
  -1   1   8   97.99    9.20
   1   1  -8   91.39    8.90
  -1  -1  -8    5.60    1.80
   1  -1   8    6.80    2.90
  -1  -1  -8    6.60    2.80
  -1  -1  -8    4.70    2.90
  -1   1  -8    4.40    2.50
   1   1   8    2.30    2.30
  -1   1  -8    4.40    1.60
   3  -1   8   13.70    3.80
  -3  -1  -8    9.40    3.40
  -3  -1  -8    8.20    3.60
   3  -1   8    8.70    3.60
   3   1   8    6.70    3.40
  -3   1  -8   16.60    4.00
  -5  -1  -8   -0.60    2.90
   5  -1   8    0.60    2.80
   5   1   8   -1.10    2.70
  -5   1  -8    0.70    2.60
  12  -2  -8   13.80    4.00
  12  -2  -8   18.40    4.40
 -12  -2   8   10.30    3.90
 -12   2   8   15.70    4.00
  12   2  -8    6.60    3.70
 -12   2   8   17.70    4.50
  10  -2  -8   21.00    4.10
  10  -2  -8   27.60    5.00
 -10  -2   8   14.90    4.00
 -10   2   8   21.20    4.10
  10   2  -8   24.00    4.40
  10   2  -8   22.30    4.50
 -10   2   8   18.80    4.40
   8  -2  -8   13.90    3.60
  -8  -2   8    9.70    3.30
   8   2  -8    9.70    3.00
   8   2  -8   10.90    3.00
  -8   2   8    9.60    3.10
   6  -2  -8  149.99   11.20
   6  -2  -8  149.69   11.90
  -6  -2   8  155.98   11.90
  -6  -2   8  127.59   11.00
   6  -2  -8  149.39   12.00
  -6   2   8  124.89   11.30
   6   2  -8  138.09   11.50
   6   2  -8  129.19   11.40
   6   2  -8  123.09   10.80
   4  -2  -8    4.70    2.40
  -4  -2   8    6.80    2.60
   4  -2  -8    5.40    2.30
   4  -2  -8    2.50    2.10
  -4  -2   8    8.60    2.70
   4   2  -8    9.10    2.90
  -4   2   8    6.00    2.60
   4   2  -8    8.60    2.40
   4   2  -8    3.80    2.10
   2  -2  -8   40.30    5.90
   2  -2  -8   52.99    6.00
   2  -2  -8   44.60    6.00
  -2  -2   8   51.59    6.60
  -2  -2   8   49.30    6.10
  -2   2   8   40.30    6.30
   2   2  -8   46.80    5.60
   2   2  -8   47.90    6.20
   0  -2  -8    9.20    2.50
   0  -2   8   13.40    3.80
   0  -2   8   12.40    3.60
   0  -2  -8   14.60    3.40
   0  -2  -8   13.50    3.80
   0   2   8   16.40    4.10
   0   2  -8   13.40    3.50
   0   2  -8   16.40    2.80
  -2  -2  -8  157.48   13.00
   2  -2   8  157.48   13.00
  -2  -2  -8  159.88   13.80
  -2  -2  -8  157.88   11.10
   2   2   8  147.19   13.30
  -2   2  -8  166.88   13.50
  -2   2  -8  146.09   10.60
  -4  -2  -8   52.59    8.40
   4   2   8   74.39    9.40
  -4   2  -8   72.59    8.70
  13  -3  -8    8.60    3.70
  13  -3  -8    7.70    3.70
 -13   3   8   11.60    4.00
 -13   3   8    9.20    3.90
 -13   3   8    5.40    3.20
 -11  -3   8    5.40    3.20
  11  -3  -8    4.20    2.90
  11   3  -8   12.60    3.80
 -11   3   8    6.60    3.00
 -11   3   8    6.40    3.10
   9  -3  -8   35.50    5.70
  -9  -3   8   28.90    5.40
  -9   3   8   44.10    5.60
   9   3  -8   28.10    4.90
   9   3  -8   38.20    5.80
  -9   3   8   28.50    5.20
   7  -3  -8    3.00    2.20
  -7  -3   8   -1.00    1.70
  -7  -3   8    0.90    2.10
   7   3  -8    0.10    1.80
  -7   3   8    0.70    2.00
  -7   3   8    1.30    1.80
   7   3  -8    1.30    1.90
   7   3  -8    0.00    1.90
   5  -3  -8    1.50    2.20
  -5  -3   8    6.80    2.60
   5  -3  -8    2.40    2.10
   5  -3  -8    5.70    2.70
  -5  -3   8    6.20    2.60
   5   3  -8    2.00    2.20
   5   3  -8    3.00    2.00
   5   3  -8   -0.90    1.70
  -5   3   8    5.60    2.60
   3  -3  -8    6.50    2.60
   3  -3  -8    5.80    2.40
  -3  -3   8    4.30    2.60
   3  -3  -8    3.30    2.30
  -3  -3   8    6.30    2.50
  -3   3   8    2.90    2.40
   3   3  -8    1.40    2.10
   3   3  -8    2.60    2.00
   3   3  -8    6.70    2.40
   1  -3  -8    4.60    2.50
   1  -3  -8    5.40    2.80
   1  -3  -8    2.30    2.00
  -1  -3   8    2.50    2.30
  -1  -3   8    2.70    2.40
  -1   3   8    0.60    2.00
   1   3  -8    2.30    1.60
   1   3  -8    5.20    2.20
   1   3  -8    4.90    2.60
   1  -3   8  106.39    9.50
   1  -3   8   99.59   10.10
  -1  -3  -8  103.19   10.30
  -1  -3  -8   96.19    9.40
  -1  -3  -8   97.99    8.50
  -1   3  -8  106.19    8.20
  -1   3  -8  111.59   10.30
   1   3   8  112.99   10.20
  -3  -3  -8   -1.20    2.80
  -3  -3  -8    5.20    1.40
   3  -3   8    3.40    3.20
  -3   3  -8    6.70    3.30
   3   3   8    1.90    2.60
  12  -4  -8   69.29    8.80
 -12  -4   8   57.69    8.20
 -12   4   8   71.49    8.70
 -12   4   8   42.40   10.40
  12   4  -8   58.59    8.30
 -10  -4   8    4.60    3.00
  10  -4  -8    8.70    3.40
 -10   4   8    2.20    2.40
 -10   4   8    3.10    2.60
  10   4  -8    1.80    2.70
  -8  -4   8  200.38   17.20
  -8   4   8  247.18   16.90
   8   4  -8  210.68   16.70
   8   4  -8  229.78   17.30
   6  -4  -8    1.50    2.20
  -6  -4   8    3.70    2.30
   6  -4  -8   -0.40    1.80
  -6  -4   8   -1.10    1.90
   6  -4  -8    3.20    2.30
   6   4  -8    0.30    2.00
   6   4  -8    2.60    2.30
  -6   4   8    2.00    2.10
   6   4  -8   -2.30    1.50
  -6   4   8   -0.20    2.00
  -4  -4   8   12.30    3.60
   4  -4  -8   16.80    3.70
  -4  -4   8   22.70    4.30
   4  -4  -8   23.00    4.40
   4  -4  -8   14.70    3.60
   4   4  -8   14.20    3.40
  -4   4   8   18.30    4.20
   4   4  -8   26.80    4.10
  -4   4   8   15.40    3.40
   4   4  -8   22.30    4.20
   2  -4  -8    8.80    3.10
  -2  -4   8    9.90    3.30
   2  -4  -8    4.20    2.40
  -2  -4   8    3.20    2.60
   2  -4  -8    5.60    2.30
   2   4  -8    2.30    2.10
   2   4  -8    2.80    1.90
   2   4  -8    5.40    2.60
  -2   4   8   12.30    3.70
   0  -4  -8    4.20    2.80
   0  -4   8    2.90    2.60
   0  -4  -8    6.00    2.30
   0  -4  -8    2.50    2.00
   0   4   8    1.90    2.70
   0   4  -8    2.70    2.70
   0   4  -8    3.60    2.20
   0   4  -8    6.40    2.10
  -2  -4  -8   33.70    4.40
  -2  -4  -8   42.90    6.80
   2  -4   8   44.40    6.90
  -2   4  -8   35.80    3.60
   2   4   8   29.30    5.80
  -2   4  -8   32.30    5.90
  -4  -4  -8  103.39   17.20
   4   4   8   98.99   15.80
  -4   4  -8  108.89   13.10
  11  -5  -8    1.50    3.00
 -11  -5   8    3.70    3.00
 -11   5   8   -0.50    2.30
  11   5  -8    2.20    3.20
   9  -5  -8    7.50    3.40
  -9  -5   8    7.50    3.40
  -9   5   8   10.10    3.40
  -9   5   8    7.60    3.20
   9   5  -8    6.70    3.20
   7  -5  -8    1.50    2.20
  -7  -5   8    6.90    2.50
  -7  -5   8    0.80    2.40
   7   5  -8    1.40    2.20
  -7   5   8    4.10    2.40
   7   5  -8    0.20    2.00
  -7   5   8   -1.80    1.90
   5  -5  -8   37.70    5.40
  -5  -5   8   45.90    6.20
  -5  -5   8   48.40    6.10
   5  -5  -8   42.90    6.00
   5  -5  -8   22.60    4.80
  -5   5   8   37.10    6.00
   5   5  -8   26.50    5.10
   5   5  -8   36.50    5.40
   5   5  -8   39.60    5.50
  -5   5   8   40.30    5.40
   3  -5  -8   35.40    5.70
  -3  -5   8   54.39    6.40
   3  -5  -8   43.80    6.10
   3  -5  -8   38.20    5.70
  -3  -5   8   43.50    6.40
   3   5  -8   40.80    5.50
  -3   5   8   40.30    5.50
   3   5  -8   42.60    5.70
   3   5  -8   36.60    5.90
  -3   5   8   40.50    6.10
  -1  -5   8   35.50    5.90
   1  -5  -8   20.00    4.50
   1  -5  -8   34.80    5.00
   1  -5  -8   20.10    4.10
   1   5  -8   18.10    4.30
   1   5  -8   26.20    4.50
  -1   5   8   19.40    4.60
   1   5  -8   22.50    3.90
   1  -5   8    3.70    2.80
  -1  -5  -8    9.00    3.50
  -1  -5  -8    5.40    2.30
  -1   5  -8    4.30    1.80
  -1   5  -8    7.40    3.70
   1   5   8    5.10    3.10
  -1   5  -8   -0.30    2.20
  -3  -5  -8    5.10    3.30
   3  -5   8    8.80    4.00
  -3  -5  -8    9.00    2.30
   3   5   8   12.40    4.30
  -3   5  -8    9.60    4.10
  10  -6  -8   28.10    5.50
 -10  -6   8   19.60    4.90
 -10   6   8   24.10    5.10
  10   6  -8   26.00    5.60
   8  -6  -8    3.10    2.60
  -8  -6   8    6.90    3.10
  -8  -6   8    5.00    2.80
   8   6  -8    0.00    2.50
  -8   6   8    3.60    2.70
  -8   6   8    3.60    2.50
   6  -6  -8   87.69    9.40
  -6  -6   8  113.99   10.10
  -6  -6   8  109.39   10.00
   6   6  -8   89.29    9.60
  -6   6   8  103.09    9.30
  -6   6   8  118.99   10.10
   6   6  -8   92.59    9.50
   6   6  -8  101.59    9.60
  -4  -6   8   35.30    6.00
   4  -6  -8   37.70    6.00
   4  -6  -8   30.10    5.20
   4  -6  -8   29.40    5.10
  -4  -6   8   43.40    6.10
   4   6  -8   30.50    5.10
   4   6  -8   31.50    5.30
  -4   6   8   34.40    5.70
  -4   6   8   30.80    5.00
   4   6  -8   37.00    5.30
   2  -6  -8   56.29    7.70
  -2  -6   8   51.09    7.60
   2  -6  -8   58.09    7.30
   2  -6  -8   67.09    8.10
  -2   6   8   81.59    8.10
   2   6  -8   74.69    7.20
   2   6  -8   78.89    8.70
   2   6  -8   60.19    7.60
  -2   6   8   58.09    7.90
   0  -6   8    3.50    3.00
   0  -6  -8    3.20    2.90
   0  -6  -8    0.30    1.80
   0   6  -8   -0.80    2.50
   0   6   8    0.10    2.40
   0   6   8    1.90    4.30
   0   6  -8    0.00    2.20
   0   6  -8    1.70    1.70
   2  -6   8   26.20    6.00
  -2  -6  -8   44.20    7.40
  -2  -6  -8   42.60    5.50
  -2   6  -8   47.00    7.30
  -2   6  -8   35.00    6.10
  -2   6  -8   40.70    4.60
   2   6   8   40.20    6.80
   9  -7  -8   11.80    4.00
  -9  -7   8   14.80    4.20
  -9   7   8   18.80    4.50
   9   7  -8   10.60    4.10
  -7  -7   8   82.09    9.40
   7  -7  -8   76.89    9.30
  -7  -7   8   83.79    9.60
  -7   7   8   79.19    8.90
   7   7  -8   71.69    9.00
  -7   7   8   89.59    9.70
   5  -7  -8   13.10    3.70
   5  -7  -8   15.10    3.70
  -5  -7   8   17.30    4.60
  -5   7   8    9.30    3.60
   5   7  -8   10.00    3.40
   5   7  -8    9.70    3.40
   5   7  -8   14.80    4.20
  -5   7   8   19.30    4.40
   3  -7  -8   79.19    9.40
   3  -7  -8   74.29    9.30
   3  -7  -8   72.69    8.90
  -3  -7   8   87.69   10.10
   3   7  -8  100.89    8.90
  -3   7   8   90.39    9.60
   3   7  -8   83.99    9.70
   3   7  -8   77.19    9.30
  -1  -7   8   30.00    6.10
   1  -7  -8   31.30    6.00
   1  -7  -8   26.10    5.30
   1   7  -8   33.70    5.90
   1   7  -8   32.90    5.00
  -1   7   8   39.80    6.10
   1   7  -8   35.40    5.70
  -1   7   8   30.30    5.90
  -1  -7  -8    4.70    2.60
   1  -7   8    5.70    3.80
  -1  -7  -8    4.30    3.30
  -1   7  -8    8.30    3.60
  -1   7  -8    6.60    2.30
   1   7   8    6.30    4.30
   1   7   8    6.00    3.50
  -1   7  -8    3.40    3.30
   8  -8  -8    3.70    3.00
  -8  -8   8   14.00    4.70
  -8  -8   8    2.40    3.20
  -8   8   8    5.30    3.30
   8   8  -8    8.30    3.70
   6  -8  -8    6.60    3.10
  -6  -8   8    7.50    3.30
  -6   8   8    5.10    3.30
   6   8  -8    3.50    3.00
   4  -8  -8   31.80    6.20
  -4  -8   8   39.90    6.50
   4  -8  -8   36.40    5.90
   4  -8  -8   29.60    5.50
  -4   8   8   38.60    6.20
   4   8  -8   29.90    5.50
   4   8  -8   32.50    5.70
   4   8  -8   37.20    5.90
  -4   8   8   31.30    6.00
  -2  -8   8    0.30    3.00
   2  -8  -8    3.50    3.20
   2  -8  -8   -0.20    2.40
   2   8  -8    5.10    3.00
  -2   8   8    5.50    3.50
   2   8  -8    3.20    2.30
   2   8  -8   -1.20    2.50
  -2   8   8    1.10    2.60
   0  -8   8   71.99   10.00
   0  -8  -8   73.19    8.90
   0  -8  -8   61.29    9.50
   0   8  -8   84.39    9.90
   0   8  -8   78.59    7.90
   0   8  -8   89.59   10.10
   0   8   8   88.99   10.00
  -7  -9   8   -4.60    2.30
   7  -9  -8   -4.20    2.20
  -7   9   8    3.20    2.90
   5  -9  -8   12.30    3.80
  -5  -9   8    7.70    3.60
  -5   9   8    9.90    4.00
   5   9  -8    7.00    3.50
   5   9  -8   11.20    4.00
   3  -9  -8   -0.80    2.90
   3  -9  -8    5.20    3.40
  -3  -9   8    1.90    3.30
   3   9  -8    2.90    2.80
   3   9  -8    0.70    2.70
  -3   9   8    5.90    3.50
   3   9  -8    5.20    3.20
  -3   9   8    1.90    3.10
   1  -9  -8   33.70    6.20
  -1   9   8   24.80    5.80
  -1   9   8   32.80    6.30
   1   9  -8   38.80    6.40
  12   0  -9   78.79    9.20
 -12   0   9   70.89    9.40
 -10   0   9   50.99    7.00
  10   0  -9   49.40    6.90
  10   0  -9   50.09    6.40
   8   0  -9    2.70    2.50
  -8   0   9    5.20    2.90
  -6   0   9   81.99    8.20
  -6   0   9   87.79    9.80
   6   0  -9   97.49    9.20
   6   0  -9   98.29    9.00
   4   0  -9   18.00    3.80
  -4   0   9   14.70    3.60
  -4   0   9   12.30    3.70
   4   0  -9   10.80    3.30
   2   0  -9   20.00    4.20
  -2   0   9    9.10    3.30
   2   0  -9   11.40    2.80
   0   0  -9   13.10    2.60
   0   0  -9   14.90    3.80
   0   0  -9   15.70    4.40
   0   0   9   15.80    4.10
   2   0   9   24.30    5.20
  -2   0  -9   18.00    4.60
  13  -1  -9   17.80    4.80
  13   1  -9    8.70    4.40
  11  -1  -9   54.39    7.70
 -11  -1   9   50.39    7.30
  11   1  -9   49.40    7.00
 -11   1   9   36.10    6.40
  11   1  -9   46.60    6.70
   9  -1  -9   43.30    6.40
  -9  -1   9   41.00    6.50
   9   1  -9   41.10    5.70
  -9   1   9   43.20    6.60
   9   1  -9   47.50    6.60
  -7  -1   9   17.30    4.00
   7  -1  -9   13.80    3.80
   7  -1  -9   20.30    4.40
  -7  -1   9    8.20    3.30
   7   1  -9   14.60    3.80
  -7   1   9   17.80    4.00
   7   1  -9   12.20    3.60
  -5  -1   9   -0.10    2.10
   5  -1  -9    0.20    1.80
  -5  -1   9    0.00    1.90
   5  -1  -9   -1.00    1.70
   5   1  -9   -0.10    1.80
  -5   1   9   -2.10    1.90
   5   1  -9   -1.10    1.60
  -3  -1   9   25.70    4.90
   3  -1  -9   16.60    4.00
   3  -1  -9   30.80    4.80
  -3  -1   9   20.70    4.40
   3  -1  -9   30.10    4.90
   3   1  -9   27.10    4.30
   3   1  -9   31.20    5.30
  -3   1   9   35.40    5.60
   1  -1  -9   28.00    4.20
  -1  -1   9   36.10    5.80
   1  -1  -9   23.00    4.70
  -1  -1   9   37.40    5.80
   1  -1  -9   30.90    5.40
  -1   1   9   29.10    5.60
   1   1  -9   29.40    5.10
   1   1  -9   25.40    3.90
  -1  -1  -9   34.60    4.20
   1  -1   9   47.00    7.20
  -1  -1  -9   27.80    5.70
   1  -1   9   37.10    6.10
  -1  -1  -9   37.60    6.00
  -1   1  -9   43.70    4.10
  -1   1  -9   33.40    6.20
   1   1   9   41.70    6.50
  -3  -1  -9    2.50    2.80
  -3  -1  -9    5.00    3.90
   3  -1   9    2.80    3.10
   3  -1   9    6.80    6.30
   3   1   9    7.10    3.50
  -3   1  -9    2.60    2.90
 -12  -2   9   18.70    5.00
  12  -2  -9   11.00    4.00
 -12   2   9    5.20    3.30
  12   2  -9   13.80    4.40
 -10  -2   9   22.20    4.80
  10  -2  -9   10.10    3.80
  10   2  -9   25.40    4.80
  10   2  -9   21.60    4.60
 -10   2   9   17.30    4.30
  -8  -2   9    7.20    3.00
   8  -2  -9    8.40    3.30
   8   2  -9    6.40    2.60
  -8   2   9    0.90    2.60
   8   2  -9    2.80    2.70
   6  -2  -9  143.69   13.20
   6  -2  -9  144.89   12.80
  -6  -2   9  161.98   13.10
   6  -2  -9  153.28   13.40
  -6  -2   9  179.08   13.80
   6   2  -9  156.98   12.60
   6   2  -9  166.38   13.50
  -6   2   9  162.58   13.50
   6   2  -9  189.38   13.80
   4  -2  -9    5.90    2.60
  -4  -2   9    3.90    2.70
  -4  -2   9    3.00    2.50
   4  -2  -9    3.90    2.70
   4  -2  -9    3.00    2.40
   4   2  -9    2.00    2.20
  -4   2   9    4.90    3.10
   4   2  -9    1.90    2.10
  -2  -2   9   -0.10    2.20
   2  -2  -9    1.80    2.50
  -2  -2   9    2.10    2.20
   2  -2  -9    0.00    1.70
   2  -2  -9    0.30    2.00
   2   2  -9    1.00    2.20
  -2   2   9   -2.70    2.20
   2   2  -9    3.10    1.90
   0  -2  -9    1.90    2.90
   0  -2  -9    7.10    3.00
   0  -2   9    0.90    2.40
   0  -2   9    1.90    2.40
   0  -2  -9    4.50    2.20
   0   2  -9    3.10    1.60
   0   2   9    2.40    2.50
   0   2  -9    2.50    2.40
  -2  -2  -9   95.99   11.70
  -2  -2  -9  119.49    8.30
  -2  -2  -9  106.99   10.40
   2   2   9  107.49   10.80
  -2   2  -9   89.09   11.00
 -11  -3   9   18.30    5.20
  11  -3  -9   25.80    5.20
  11   3  -9   24.90    5.10
 -11   3   9   17.40    4.30
   9  -3  -9    3.40    2.80
  -9  -3   9    0.00    2.50
   9   3  -9    5.30    2.80
   9   3  -9    3.00    2.60
  -9   3   9    2.10    2.60
   7  -3  -9   26.90    5.00
   7  -3  -9   20.10    5.30
  -7  -3   9   17.00    3.90
  -7  -3   9   23.40    4.60
   7   3  -9   19.30    3.80
   7   3  -9   12.70    3.80
   7   3  -9   17.70    4.10
  -7   3   9   26.40    4.90
   5  -3  -9   42.50    6.40
  -5  -3   9   57.99    7.50
   5  -3  -9   71.69    7.90
  -5  -3   9   52.29    7.00
   5  -3  -9   55.69    7.30
   5   3  -9   59.49    7.40
  -5   3   9   62.99    8.00
   5   3  -9   52.89    7.00
   5   3  -9   59.39    6.70
   3  -3  -9   95.69   10.10
   3  -3  -9  108.39   10.00
  -3  -3   9  109.99   10.00
  -3  -3   9  114.39   10.50
   3  -3  -9  111.09    9.90
  -3   3   9  113.29   10.80
   3   3  -9   99.49   10.10
   3   3  -9  120.69    9.90
   1  -3  -9   15.80    3.60
  -1  -3   9   13.80    3.70
   1  -3  -9    8.00    2.70
   1  -3  -9    2.70    2.90
  -1  -3   9    8.60    3.30
   1   3  -9    5.40    3.00
  -1   3   9    7.50    3.50
   1   3  -9    3.90    2.00
   1  -3   9   25.60    5.50
  -1  -3  -9   28.30    4.10
  -1  -3  -9   21.60    4.70
  -1  -3  -9   30.50    5.90
  -1   3  -9   32.90    3.70
  -1   3  -9   34.50    6.00
   1   3   9   23.60    5.40
  12  -4  -9   23.90    6.90
 -12   4   9   22.60    5.20
 -10  -4   9   12.50    4.10
  10  -4  -9   12.90    4.20
  10   4  -9    8.50    3.80
 -10   4   9   14.60    4.00
  -8  -4   9    5.60    3.20
   8  -4  -9    2.60    2.50
   8   4  -9    1.80    2.40
  -8   4   9   -2.00    2.10
   8   4  -9    0.50    2.30
  -6  -4   9   10.80    3.70
  -6  -4   9   12.80    3.50
   6  -4  -9   16.80    4.30
   6  -4  -9   16.00    4.30
   6   4  -9   24.00    4.30
  -6   4   9   16.20    4.20
   6   4  -9   14.20    3.90
   6   4  -9   16.10    4.10
   4  -4  -9  226.48   16.80
   4  -4  -9  200.58   16.50
  -4  -4   9  205.08   16.40
  -4  -4   9  195.88   16.60
   4  -4  -9  209.48   16.60
   4   4  -9  207.48   16.70
   4   4  -9  195.98   15.90
  -4   4   9  224.38   17.00
   4   4  -9  204.88   16.30
   2  -4  -9  197.48   15.80
   2  -4  -9  181.58   15.20
   2  -4  -9  191.78   15.20
  -2  -4   9  185.38   15.10
   2   4  -9  193.38   14.60
   2   4  -9  210.18   16.10
  -2   4   9  164.08   15.40
   0  -4  -9   -1.10    2.70
   0  -4  -9   -2.20    1.90
   0  -4   9   -1.10    2.50
   0  -4  -9    0.50    1.90
   0   4  -9   -1.90    1.20
   0   4  -9   -2.60    2.40
   0   4   9   -1.70    2.30
  -2  -4  -9   19.60    3.20
   2  -4   9   18.80    5.70
  -2   4  -9   28.60    7.80
  -2   4  -9   20.40    2.50
   2   4   9   19.20    6.30
  11  -5  -9   -1.90    2.90
 -11  -5   9   -2.80    2.70
  11   5  -9    1.70    3.20
 -11   5   9   -1.50    4.20
  -9  -5   9    6.50    3.70
   9  -5  -9    6.60    3.30
   9   5  -9    4.90    3.10
  -9   5   9    9.10    3.50
   7  -5  -9   -1.90    1.90
  -7  -5   9    2.30    2.70
  -7  -5   9   -1.30    2.00
   7   5  -9    0.60    2.40
   7   5  -9    0.10    2.40
   7   5  -9   -0.40    2.70
  -7   5   9    4.30    2.80
  -5  -5   9   40.70    6.40
   5  -5  -9   57.09    7.40
   5  -5  -9   29.10    5.60
   5  -5  -9   42.40    6.10
  -5  -5   9   46.10    6.40
  -5   5   9   39.80    6.60
   5   5  -9   45.40    6.40
   5   5  -9   40.80    6.10
   5   5  -9   37.00    5.70
   3  -5  -9   34.90    5.90
   3  -5  -9   36.30    5.90
  -3  -5   9   41.90    6.70
   3  -5  -9   39.30    6.20
   3   5  -9   37.30    5.50
   3   5  -9   37.40    6.10
  -3   5   9   44.30    6.80
   3   5  -9   35.40    5.50
   1  -5  -9    0.80    2.50
   1  -5  -9    2.80    2.30
  -1  -5   9    0.70    2.80
   1  -5  -9    4.70    2.70
   1   5  -9    0.10    2.90
   1   5  -9    5.10    4.20
   1   5  -9   -0.40    1.60
  -1   5   9   -0.40    2.50
   1  -5   9   23.00    5.60
  -1  -5  -9   27.90    4.40
  -1  -5  -9   31.30    6.10
   1   5   9   28.60    6.00
  -1   5  -9   29.10    3.90
  -1   5  -9   31.30    6.30
 -10  -6   9   -1.70    2.90
  10  -6  -9   -3.40    3.60
 -10   6   9    1.60    2.80
  10   6  -9    1.10    3.00
   8  -6  -9    4.40    3.10
  -8  -6   9   13.20    4.30
  -8   6   9   12.90    4.00
  -8   6   9   14.70    4.50
   8   6  -9   14.60    4.10
  -6  -6   9   72.09    9.00
   6  -6  -9   67.69    8.80
  -6  -6   9   83.69    9.60
   6   6  -9   75.69    8.80
  -6   6   9   70.29    8.90
   6   6  -9   81.79    8.90
   6   6  -9   70.79    8.70
   4  -6  -9   35.10    6.20
   4  -6  -9   46.70    6.80
   4  -6  -9   34.80    6.00
  -4  -6   9   47.40    7.40
   4   6  -9   50.29    6.90
  -4   6   9   38.10    6.60
   4   6  -9   39.50    6.00
   4   6  -9   34.00    5.60
   2  -6  -9   16.00    4.10
   2  -6  -9   19.00    4.20
   2  -6  -9   23.30    5.00
  -2  -6   9   21.50    5.30
   2   6  -9   14.40    3.90
  -2   6   9   11.10    4.30
   2   6  -9   23.90    5.30
   2   6  -9   15.60    3.70
   0  -6  -9    0.40    2.20
   0  -6  -9    4.10    3.20
   0  -6   9    0.20    2.90
   0   6  -9   -2.10    2.40
   0   6  -9   -0.40    3.00
   0   6  -9   -0.40    1.60
   0   6   9    0.50    3.00
  -9  -7   9   19.10    5.00
   9   7  -9   22.40    6.90
  -9   7   9   12.90    4.30
  -7  -7   9    5.90    4.90
  -7  -7   9    7.80    3.80
   7  -7  -9    6.40    3.40
   7   7  -9    6.60    3.40
  -7   7   9    7.50    3.60
  -7   7   9    0.60    2.70
   5  -7  -9   17.60    4.90
  -5  -7   9   20.50    5.10
   5  -7  -9   20.40    4.90
   5   7  -9   16.30    4.30
   5   7  -9   14.80    4.30
  -5   7   9   14.40    4.40
   5   7  -9   23.90    5.10
   3  -7  -9   69.49    8.30
  -3  -7   9   54.59    8.30
   3  -7  -9   62.39    8.20
   3  -7  -9   63.89    7.90
   3   7  -9   55.99    8.10
   3   7  -9   52.79    7.50
  -3   7   9   47.40    7.70
   3   7  -9   60.79    7.80
   1  -7  -9   25.90    5.70
   1  -7  -9   21.90    4.80
   1   7  -9   23.70    5.70
   1   7  -9   26.00    5.30
   1   7  -9   22.80    5.40
  -1   7   9   20.10    5.30
   6  -8  -9   63.79    8.30
  -6  -8   9   54.09    8.30
  -6   8   9   56.39    7.80
   6   8  -9   47.80    7.40
   4  -8  -9    7.90    3.50
   4  -8  -9    1.90    2.80
   4  -8  -9    1.70    3.00
  -4  -8   9    5.90    3.90
  -4   8   9    6.50    4.40
   4   8  -9   -0.20    2.80
   4   8  -9    3.50    3.00
   4   8  -9    8.30    3.70
  -4   8   9    1.80    3.10
   2  -8  -9   -0.30    3.60
   2  -8  -9    1.00    2.80
   2   8  -9   -0.90    3.10
  12   0 -10   28.90    5.90
  10   0 -10   -0.10    2.70
 -10   0  10    0.90    2.70
   8   0 -10   10.50    3.70
  -8   0  10   16.10    4.50
  -6   0  10   29.00    5.00
   6   0 -10   13.70    3.90
   6   0 -10   19.60    4.60
  -6   0  10   22.40    4.90
  -4   0  10   97.39    9.90
  -4   0  10  106.89   10.50
   4   0 -10  110.49    9.90
   4   0 -10  111.99   10.40
   2   0 -10  121.89   10.80
   2   0 -10  141.69   12.20
  -2   0  10  135.69   12.20
  -2   0  10  128.69   12.20
   0   0  10    5.80    3.60
   0   0 -10    2.30    1.80
   0   0 -10    2.20    2.70
   0   0  10    3.70    3.40
 -11  -1  10  141.09   13.10
  11  -1 -10  113.39   12.40
  11   1 -10  170.68   13.30
 -11   1  10  137.09   12.90
   9  -1 -10   27.20    5.30
  -9  -1  10   21.60    5.00
   9   1 -10   23.20    5.00
  -9   1  10   14.70    4.30
   7  -1 -10    0.60    2.20
   7  -1 -10    1.70    2.50
  -7  -1  10    3.90    2.70
   7   1 -10    0.80    2.20
   7   1 -10    1.40    2.40
  -7   1  10    1.50    2.40
   5  -1 -10    0.70    2.30
  -5  -1  10   10.30    3.50
   5  -1 -10    7.90    3.10
  -5  -1  10    9.70    3.40
   5   1 -10    4.50    3.00
  -5   1  10    5.60    3.20
   5   1 -10    9.90    3.10
  -5   1  10    7.20    3.20
   3  -1 -10    1.30    2.70
   3  -1 -10    0.40    2.00
  -3  -1  10    1.90    2.50
  -3  -1  10    1.20    2.90
   3  -1 -10    1.50    2.50
   3   1 -10    5.70    3.00
  -3   1  10    3.40    3.10
   3   1 -10    4.20    2.50
   1  -1 -10   11.60    3.70
  -1  -1  10    5.90    3.80
  -1  -1  10   10.50    3.90
   1  -1 -10    9.50    2.60
   1  -1 -10    5.00    3.50
   1   1 -10    7.50    2.50
  -1   1  10   14.80    4.50
   1   1 -10    9.00    3.60
  -1  -1 -10   22.50    3.30
  -1  -1 -10   26.70    5.50
   1  -1  10   34.20    6.50
  -1   1 -10   27.80    3.30
   1   1  10   21.00    5.50
  -1   1 -10   23.60    5.40
  10  -2 -10    5.00    3.40
 -10  -2  10    5.50    3.60
 -10   2  10    7.20    3.80
  10   2 -10    8.40    3.90
  10   2 -10    6.40    3.30
   8  -2 -10    2.70    3.00
  -8  -2  10    2.30    2.80
  -8   2  10    0.90    2.60
   8   2 -10    5.50    3.10
   6  -2 -10    0.00    2.20
  -6  -2  10    1.30    2.60
  -6  -2  10    2.70    2.80
   6  -2 -10    0.30    2.40
  -6   2  10    0.80    2.60
   6   2 -10   -0.70    2.00
   6   2 -10    1.50    2.50
   4  -2 -10    5.60    2.70
   4  -2 -10    4.70    2.80
  -4  -2  10    3.20    2.70
   4  -2 -10    8.50    3.40
  -4  -2  10    5.00    3.10
   4   2 -10    6.60    3.20
  -4   2  10    1.90    2.70
   4   2 -10    1.80    2.50
   2  -2 -10   29.40    5.10
  -2  -2  10   44.60    6.60
  -2  -2  10   37.20    6.30
   2  -2 -10   25.10    5.00
   2  -2 -10   31.30    5.80
  -2   2  10   20.20    5.50
   2   2 -10   20.70    4.70
   2   2 -10   30.00    4.60
   0  -2  10   57.19    8.30
   0  -2 -10   57.19    6.40
   0  -2 -10   44.10    7.80
   0  -2 -10   63.79    8.40
   0  -2  10   86.39    9.70
   0   2 -10   64.49    5.90
   0   2 -10   60.29    8.20
  11  -3 -10    3.40    3.50
  11   3 -10    4.60    3.30
 -11   3  10    5.00    3.50
  -9  -3  10    0.90    2.90
   9  -3 -10    0.70    2.80
  -9   3  10   -1.40    2.40
   9   3 -10   -1.90    2.40
   9   3 -10    3.10    2.80
  -7  -3  10    1.50    2.60
   7  -3 -10   -2.70    2.20
  -7  -3  10    1.90    2.50
   7  -3 -10    1.10    2.50
   7   3 -10    3.70    2.80
   7   3 -10    0.70    2.70
  -7   3  10    2.70    2.90
   5  -3 -10   26.70    5.20
   5  -3 -10   23.90    4.90
  -5  -3  10   29.00    5.40
   5  -3 -10   24.30    4.80
  -5  -3  10   20.70    5.00
  -5   3  10   33.10    5.90
   5   3 -10   24.60    5.00
   5   3 -10   25.60    4.90
   3  -3 -10  201.08   16.20
   3  -3 -10  176.48   16.20
   3  -3 -10  173.08   15.40
  -3  -3  10  205.48   16.60
  -3  -3  10  213.58   16.20
  -3   3  10  200.08   16.70
   3   3 -10  187.58   16.30
   3   3 -10  209.88   15.60
   1  -3 -10   34.70    6.80
  -1  -3  10   41.50    7.10
   1  -3 -10   33.90    5.30
  -1  -3  10   43.80    8.50
   1  -3 -10   41.40    6.40
   1   3 -10   36.10    5.00
   1   3 -10   37.50    6.50
  -1   3  10   37.00    6.80
 -10  -4  10  106.59   11.90
  10  -4 -10   74.49    9.90
  10   4 -10   79.59    9.50
 -10   4  10   85.99   10.00
  -8  -4  10   27.40    5.70
   8  -4 -10   26.20    5.50
  -8   4  10   19.00    4.80
   8   4 -10   26.10    4.90
   8   4 -10   18.10    4.40
  -6  -4  10   18.10    4.50
  -6  -4  10    9.40    3.70
   6  -4 -10   11.70    3.90
   6  -4 -10   14.50    4.10
   6   4 -10   13.00    4.30
   6   4 -10   13.10    3.90
   6   4 -10   20.10    6.00
  -6   4  10   12.40    4.20
   4  -4 -10   -0.30    2.30
   4  -4 -10   -2.00    1.90
  -4  -4  10   -2.50    2.20
   4  -4 -10    0.00    2.20
  -4  -4  10    0.80    2.90
   4   4 -10    5.20    3.10
   4   4 -10   -0.10    2.20
  -4   4  10   -1.00    2.60
   2  -4 -10    8.50    3.40
  -2  -4  10   13.70    4.30
   2  -4 -10   16.50    4.00
   2  -4 -10    4.40    3.30
   2   4 -10   13.00    3.20
   2   4 -10   10.20    3.80
  -2   4  10   12.60    4.60
   0  -4 -10    8.80    3.60
  -9  -5  10   -2.40    3.00
   9  -5 -10   -0.60    2.80
  -9   5  10    0.20    2.60
   9   5 -10   -2.80    2.40
  -7  -5  10    3.20    3.30
   7  -5 -10    0.40    2.90
  -7  -5  10    3.10    3.20
  -7   5  10    7.30    3.40
   7   5 -10    1.10    2.60
   7   5 -10    4.80    3.30
   7   5 -10    1.90    3.00
   5  -5 -10   43.50    7.00
  -5  -5  10   42.80    6.90
  -5  -5  10   48.80    7.20
   5  -5 -10   30.50    6.30
   5  -5 -10   52.79    7.50
  -5   5  10   40.40    7.00
   5   5 -10   36.80    6.10
   5   5 -10   36.60    6.10
   5   5 -10   49.10    7.10
   3  -5 -10   48.90    7.40
   3  -5 -10   60.79    8.80
  -3  -5  10   60.09    8.50
   3  -5 -10   57.69    7.70
   3   5 -10   47.20    6.80
  -3   5  10   73.09    9.60
   3   5 -10   59.39    8.30
   1  -5 -10   -2.10    2.20
  -8  -6  10   -1.80    3.00
  -8   6  10   -2.70    2.80
   8   6 -10    1.80    2.70
   6  -6 -10    3.40    3.10
  -6  -6  10    1.90    2.90
  -6   6  10    2.90    3.10
   6   6 -10    3.00    3.00
   6   6 -10    6.80    3.40
   6   6 -10    4.00    2.80
   4  -6 -10    6.70    3.50
   4  -6 -10    6.30    3.20
  -4  -6  10    6.50    3.80
   4  -6 -10   11.10    3.90
  -4   6  10    4.70    3.70
   4   6 -10    8.30    3.60
   4   6 -10    6.90    3.20
   4   6 -10   20.60    4.80
   2  -6 -10    2.40    2.80
   5  -7 -10    9.40    4.10
  10   0 -11   23.00    5.40
   8   0 -11   61.29    8.80
  -8   0  11   68.69    9.20
  -6   0  11   21.50    4.80
   6   0 -11   25.50    5.30
  -6   0  11   15.80    4.80
   6   0 -11   19.00    4.70
   4   0 -11   22.70    4.50
   4   0 -11   12.80    3.90
  -4   0  11   18.90    4.90
  -4   0  11   26.30    5.70
  -2   0  11   46.60    7.70
  -2   0  11   39.00    9.90
  -9  -1  11   40.90    7.10
   9  -1 -11   38.50    6.50
  -9   1  11   31.40    6.40
   9   1 -11   33.10    6.50
   7  -1 -11   20.80    5.00
  -7  -1  11   22.20    5.50
   7  -1 -11   23.10    5.30
  -7   1  11   25.50    5.40
   7   1 -11   21.40    5.00
   7   1 -11   32.10    5.80
   5  -1 -11   55.79    7.80
  -5  -1  11   38.40    7.00
   5  -1 -11   53.49    7.50
  -5  -1  11   70.29    9.20
   5   1 -11   61.79    7.90
  -5   1  11   59.19    8.60
   5   1 -11   55.39    7.80
  -5   1  11   66.79    8.40
  -3  -1  11    0.40    2.90
   3  -1 -11   -0.70    2.00
  -3  -1  11   -4.20    2.10
   3  -1 -11    1.30    2.70
   3   1 -11    2.00    2.90
  -3   1  11   -3.50    2.50
   3   1 -11   -0.90    2.00
  10   2 -11   18.30    5.00
  -8  -2  11   66.29    8.90
   8  -2 -11   38.20    6.80
   8   2 -11   47.60    7.40
  -8   2  11   36.30    6.50
  -6  -2  11    6.00    3.70
   6  -2 -11    7.00    3.60
   6  -2 -11    8.10    3.80
  -6  -2  11    4.60    3.30
   6   2 -11    6.20    3.30
  -6   2  11    8.60    3.80
   6   2 -11    1.00    2.90
   4  -2 -11    7.20    3.70
   4  -2 -11    4.40    2.80
  -4  -2  11    2.00    3.00
  -4  -2  11    6.80    3.60
   4  -2 -11    2.80    3.00
   4   2 -11    5.60    3.50
  -4   2  11    5.80    3.50
   4   2 -11    7.10    3.10
  -2  -2  11   16.40    4.90
   9   3 -11   46.80    7.20
   7  -3 -11    5.00    3.40
   7  -3 -11    8.60    4.00
  -7  -3  11    8.50    4.10
   7   3 -11   11.90    4.00
   7   3 -11   11.50    4.00
  -7   3  11    5.60    3.50
   5  -3 -11   -2.70    2.40
  -5  -3  11   -0.70    2.80
   5  -3 -11    1.10    2.50
   5  -3 -11    0.80    2.80
  -5  -3  11    0.50    2.90
   5   3 -11   -1.80    2.40
   5   3 -11   -0.30    2.30
  -5   3  11   -2.30    2.60
  -3  -3  11    0.80    3.20
   3  -3 -11    9.80    3.70
   3  -3 -11    0.60    2.80
  -8  -4  11    2.80    3.70
   8   4 -11    4.10    3.30
  -6  -4  11   65.39    8.80
  -6  -4  11   39.60    7.20
   6  -4 -11   61.49    8.40
   6   4 -11   48.60    7.70
   6   4 -11   52.89    7.70
   4  -4 -11   59.49    9.20
   4  -4 -11   76.19   11.30
  -4  -4  11   85.49   10.40
   0   0   0    0.00    0.00

_computing_structure_solution     'SHELXT 2014/5 (Sheldrick, 2014)'
;
_shelx_hkl_checksum              61936
_olex2_submission_special_instructions 'No special instructions were received'
loop_
_space_group_symop_operation_xyz
'x, y, z'
'-x, y, -z'
'x+1/2, y+1/2, z'
'-x+1/2, y+1/2, -z'
'-x, -y, -z'
'x, -y, z'
'-x+1/2, -y+1/2, -z'
'x+1/2, -y+1/2, z'
loop_
_atom_site_label
_atom_site_type_symbol
_atom_site_fract_x
_atom_site_fract_y
_atom_site_fract_z
_atom_site_U_iso_or_equiv
_atom_site_adp_type
_atom_site_occupancy
_atom_site_site_symmetry_order
_atom_site_calc_flag
_atom_site_refinement_flags_posn
_atom_site_refinement_flags_adp
_atom_site_refinement_flags_occupancy
O1 O 0.61611(8) 0.35428(8) 0.92807(10) 0.01765(18) Uani 1 1 d . . .
O2 O 0.43081(9) 0.26054(8) 0.69263(11) 0.0219(2) Uani 1 1 d . . .
O3 O 0.32035(13) 0.500000 0.41358(14) 0.0253(3) Uani 1 2 d S T P
O4 O 0.18263(11) 0.500000 0.55521(15) 0.0213(2) Uani 1 2 d S T P
N1 N 0.59852(14) 0.000000 0.85148(16) 0.0143(2) Uani 1 2 d S T P
N2 N 0.49927(9) 0.36769(9) 0.78628(11) 0.01404(19) Uani 1 1 d . . .
N3 N 0.30342(13) 0.500000 0.55090(16) 0.0141(2) Uani 1 2 d S T P
C1 C 0.58178(14) 0.000000 1.02202(17) 0.0129(3) Uani 1 2 d S T P
H1C H 0.630309 0.086819 1.094128 0.016 Uiso 0.5 1 calc R . .
H1D H 0.630309 -0.086819 1.094127 0.016 Uiso 0.5 1 calc R . .
C2 C 0.43598(15) 0.500000 0.72408(18) 0.0136(3) Uani 1 2 d S T P
H1A H 0.5553(16) -0.0781(16) 0.7838(19) 0.025(4) Uiso 1 1 d . . .
H1B H 0.696(3) 0.000000 0.884(3) 0.044(7) Uiso 1 2 d S T P
loop_
_atom_site_aniso_label
_atom_site_aniso_U_11
_atom_site_aniso_U_22
_atom_site_aniso_U_33
_atom_site_aniso_U_23
_atom_site_aniso_U_13
_atom_site_aniso_U_12
O1 0.0128(3) 0.0181(4) 0.0164(4) 0.0043(3) 0.0013(3) 0.0010(3)
O2 0.0230(4) 0.0116(4) 0.0228(4) -0.0017(3) 0.0022(3) -0.0027(3)
O3 0.0237(6) 0.0404(7) 0.0111(5) 0.000 0.0069(4) 0.000
O4 0.0146(5) 0.0267(6) 0.0214(5) 0.000 0.0067(4) 0.000
N1 0.0151(5) 0.0139(6) 0.0139(5) 0.000 0.0064(4) 0.000
N2 0.0140(4) 0.0130(4) 0.0140(4) 0.0013(3) 0.0052(3) -0.0004(3)
N3 0.0149(5) 0.0129(5) 0.0119(5) 0.000 0.0035(4) 0.000
C1 0.0119(6) 0.0149(6) 0.0106(6) 0.000 0.0036(5) 0.000
C2 0.0140(6) 0.0125(6) 0.0104(6) 0.000 0.0018(5) 0.000
loop_
_atom_type_symbol
_atom_type_description
_atom_type_scat_dispersion_real
_atom_type_scat_dispersion_imag
_atom_type_scat_source
C C 0.0033 0.0016 'International Tables Vol C Tables 4.2.6.8 and 6.1.1.4'
H H 0.0000 0.0000 'International Tables Vol C Tables 4.2.6.8 and 6.1.1.4'
N N 0.0061 0.0033 'International Tables Vol C Tables 4.2.6.8 and 6.1.1.4'
O O 0.0106 0.0060 'International Tables Vol C Tables 4.2.6.8 and 6.1.1.4'
loop_
_geom_angle_atom_site_label_1
_geom_angle_atom_site_label_2
_geom_angle_atom_site_label_3
_geom_angle
_geom_angle_site_symmetry_1
_geom_angle_site_symmetry_3
C1 N1 H1A 111.3(9) . .
C1 N1 H1A 111.3(9) . 6
C1 N1 H1B 106.3(17) . .
H1A N1 H1A 106.8(18) . 6
H1A N1 H1B 110.6(13) . .
H1B N1 H1A 110.6(13) . 6
O1 N2 O2 122.20(8) . .
O1 N2 C2 122.05(9) . .
O2 N2 C2 115.74(9) . .
O3 N3 O4 124.71(12) . .
O3 N3 C2 118.12(12) . .
O4 N3 C2 117.17(12) . .
N1 C1 C1 109.39(13) . 5_657
N1 C1 H1C 109.8 . .
N1 C1 H1D 109.8 . .
C1 C1 H1C 109.8 5_657 .
C1 C1 H1D 109.8 5_657 .
H1C C1 H1D 108.2 . .
N2 C2 N2 126.47(12) 6_565 .
N2 C2 N3 116.03(6) . .
N2 C2 N3 116.03(6) 6_565 .
loop_
_geom_bond_atom_site_label_1
_geom_bond_atom_site_label_2
_geom_bond_distance
_geom_bond_site_symmetry_2
O1 N2 1.2464(11) .
O2 N2 1.2581(11) .
O3 N3 1.2170(16) .
O4 N3 1.2265(16) .
N1 C1 1.4883(18) .
N1 H1A 0.899(15) 6
N1 H1A 0.899(15) .
N1 H1B 0.89(3) .
N2 C2 1.3691(11) .
N3 C2 1.4633(17) .
C1 C1 1.516(3) 5_657
C1 H1C 0.9900 .
C1 H1D 0.9900 .
