#------------------------------------------------------------------------------
#$Date: 2019-11-26 09:13:04 +0200 (Tue, 26 Nov 2019) $
#$Revision: 243142 $
#$URL: file:///home/coder/svn-repositories/cod/cif/4/13/33/4133321.cif $
#------------------------------------------------------------------------------
#
# This file is available in the Crystallography Open Database (COD),
# http://www.crystallography.net/
#
# All data on this site have been placed in the public domain by the
# contributors.
#
data_4133321
loop_
_publ_author_name
'Chen, Kai'
'Zhang, Shuo-Qing'
'Brandenberg, Oliver F.'
'Hong, Xin'
'Arnold, Frances H.'
_publ_section_title
;
 Alternate Heme Ligation Steers Activity and Selectivity in Engineered
 Cytochrome P450-Catalyzed Carbene-Transfer Reactions.
;
_journal_issue                   48
_journal_name_full               'Journal of the American Chemical Society'
_journal_page_first              16402
_journal_page_last               16407
_journal_paper_doi               10.1021/jacs.8b09613
_journal_volume                  140
_journal_year                    2018
_chemical_absolute_configuration ad
_chemical_formula_sum            'C10 H9 Br O2 S'
_chemical_formula_weight         273.14
_space_group_crystal_system      monoclinic
_space_group_IT_number           4
_space_group_name_Hall           'P 2yb'
_space_group_name_H-M_alt        'P 1 21 1'
_atom_sites_solution_hydrogens   geom
_atom_sites_solution_primary     direct
_atom_sites_solution_secondary   difmap
_audit_creation_method           SHELXL-2017/1
_cell_angle_alpha                90
_cell_angle_beta                 92.034(3)
_cell_angle_gamma                90
_cell_formula_units_Z            2
_cell_length_a                   5.7304(6)
_cell_length_b                   8.3275(7)
_cell_length_c                   10.4712(8)
_cell_measurement_reflns_used    9994
_cell_measurement_temperature    100(2)
_cell_measurement_theta_max      36.33
_cell_measurement_theta_min      3.13
_cell_volume                     499.37(8)
_computing_cell_refinement       'SAINT v8.38A (Bruker-AXS, 2013)'
_computing_data_collection       'APEX3 v2017.3-0 (Bruker-AXS, 2017)'
_computing_data_reduction        'SAINT v8.38A (Bruker-AXS, 2013)'
_computing_molecular_graphics    'Bruker SHELXTL'
_computing_publication_material  'Bruker SHELXTL'
_computing_structure_refinement  'SHELXL-2017/1 (Sheldrick, 2017)'
_computing_structure_solution    'SHELXS-2013/1 (Sheldrick, 2013)'
_diffrn_ambient_temperature      100(2)
_diffrn_detector_area_resol_mean 7.69
_diffrn_measured_fraction_theta_full 0.996
_diffrn_measured_fraction_theta_max 0.998
_diffrn_measurement_device_type  'Bruker D8 VENTURE Kappa Duo PHOTON II CPAD'
_diffrn_measurement_method       '\f and \w scans'
_diffrn_radiation_type           MoK\a
_diffrn_radiation_wavelength     0.71073
_diffrn_reflns_av_R_equivalents  0.0244
_diffrn_reflns_av_unetI/netI     0.0439
_diffrn_reflns_Laue_measured_fraction_full 0.996
_diffrn_reflns_Laue_measured_fraction_max 0.998
_diffrn_reflns_limit_h_max       9
_diffrn_reflns_limit_h_min       -9
_diffrn_reflns_limit_k_max       13
_diffrn_reflns_limit_k_min       -13
_diffrn_reflns_limit_l_max       17
_diffrn_reflns_limit_l_min       -17
_diffrn_reflns_number            13036
_diffrn_reflns_point_group_measured_fraction_full 0.950
_diffrn_reflns_point_group_measured_fraction_max 0.963
_diffrn_reflns_theta_full        25.242
_diffrn_reflns_theta_max         36.330
_diffrn_reflns_theta_min         3.126
_diffrn_source                   'I\mS HB micro-focus sealed tube'
_exptl_absorpt_coefficient_mu    4.292
_exptl_absorpt_correction_T_max  0.7471
_exptl_absorpt_correction_T_min  0.6420
_exptl_absorpt_correction_type   multi-scan
_exptl_absorpt_process_details   'SADABS-2016/2 (Sheldrick, 2014)'
_exptl_crystal_colour            colourless
_exptl_crystal_density_diffrn    1.817
_exptl_crystal_density_method    'not measured'
_exptl_crystal_description       Block
_exptl_crystal_F_000             272
_exptl_crystal_size_max          0.250
_exptl_crystal_size_mid          0.150
_exptl_crystal_size_min          0.150
_refine_diff_density_max         0.388
_refine_diff_density_min         -0.336
_refine_diff_density_rms         0.058
_refine_ls_abs_structure_details
; 
 Flack x determined using 1893 quotients [(I+)-(I-)]/[(I+)+(I-)] 
 (Parsons, Flack and Wagner, Acta Cryst. B69 (2013) 249-259). 
;
_refine_ls_abs_structure_Flack   0.030(4)
_refine_ls_extinction_method     none
_refine_ls_goodness_of_fit_ref   0.859
_refine_ls_hydrogen_treatment    constr
_refine_ls_matrix_type           full
_refine_ls_number_parameters     127
_refine_ls_number_reflns         4669
_refine_ls_number_restraints     1
_refine_ls_restrained_S_all      0.859
_refine_ls_R_factor_all          0.0175
_refine_ls_R_factor_gt           0.0163
_refine_ls_shift/su_max          0.002
_refine_ls_shift/su_mean         0.000
_refine_ls_structure_factor_coef Fsqd
_refine_ls_weighting_details     'w=1/[\s^2^(Fo^2^)] where P=(Fo^2^+2Fc^2^)/3'
_refine_ls_weighting_scheme      calc
_refine_ls_wR_factor_gt          0.0408
_refine_ls_wR_factor_ref         0.0412
_reflns_Friedel_coverage         0.830
_reflns_Friedel_fraction_full    0.897
_reflns_Friedel_fraction_max     0.923
_reflns_number_gt                4441
_reflns_number_total             4669
_reflns_threshold_expression     'I > 2\s(I)'
_cod_data_source_file            ja8b09613_si_003.cif
_cod_data_source_block           V18160
_cod_original_sg_symbol_H-M      'P 21'
_cod_database_code               4133321
_shelx_shelxl_version_number     2017/1
_shelx_space_group_comment
; 
The symmetry employed for this shelxl refinement is uniquely defined 
by the following loop, which should always be used as a source of 
symmetry information in preference to the above space-group names. 
They are only intended as comments. 
;
_shelx_estimated_absorpt_t_min   0.413
_shelx_estimated_absorpt_t_max   0.565
_shelx_res_file
; 
TITL V18160 in P2(1) 
    V18160.res 
    created by SHELXL-2017/1 at 13:52:05 on 24-Apr-2018 
CELL 0.71073   5.73040   8.32750  10.47120  90.0000  92.0338  90.0000 
ZERR    2.00   0.00060   0.00070   0.00080   0.0000   0.0033   0.0000 
LATT -1 
SYMM -X, 0.5+Y, -Z 
SFAC C H O S BR 
UNIT 20 18 4 2 2 
TEMP -173 
SIZE 0.15 0.15 0.25 
  
ACTA 
WPDB -2 
CONF 
  
L.S. 10 
BOND $H 
FMAP 2 
PLAN 20 
  
WGHT    0.000000 
FVAR       0.24504 
BR1   5   -0.040992    0.745099    0.538620    11.00000    0.01369    0.01471 = 
         0.01536    0.00532   -0.00098    0.00098 
C1    1    0.159681    0.595252    0.623384    11.00000    0.01154    0.00945 = 
         0.01171    0.00058   -0.00074   -0.00087 
C2    1    0.094319    0.532682    0.740019    11.00000    0.01143    0.01121 = 
         0.01146    0.00066    0.00137   -0.00020 
AFIX  43 
H2    2   -0.047969    0.564675    0.776345    11.00000   -1.20000 
AFIX   0 
C3    1    0.240512    0.422641    0.802518    11.00000    0.01263    0.01212 = 
         0.01157    0.00140    0.00148    0.00058 
AFIX  43 
H3    2    0.199134    0.380600    0.882961    11.00000   -1.20000 
AFIX   0 
C4    1    0.447865    0.373236    0.748134    11.00000    0.01124    0.00945 = 
         0.01266    0.00056    0.00027   -0.00072 
C7    1    0.475668    0.076313    0.877786    11.00000    0.01269    0.01076 = 
         0.01393    0.00087    0.00206    0.00070 
AFIX  13 
H7    2    0.586463   -0.006029    0.914001    11.00000   -1.20000 
AFIX   0 
C8    1    0.306171    0.115560    0.982906    11.00000    0.01418    0.01015 = 
         0.01355    0.00277    0.00139    0.00166 
O1    3    0.107057    0.032289    0.962766    11.00000    0.01481    0.01532 = 
         0.01706   -0.00113    0.00422   -0.00194 
O2    3    0.335115    0.204334    1.072218    11.00000    0.02252    0.01501 = 
         0.01357   -0.00159    0.00211    0.00030 
C9    1    0.130106   -0.079220    0.856128    11.00000    0.01830    0.01550 = 
         0.01925   -0.00243    0.00209   -0.00452 
AFIX  23 
H9A   2   -0.018170   -0.086687    0.805006    11.00000   -1.20000 
H9B   2    0.173365   -0.187694    0.887579    11.00000   -1.20000 
AFIX   0 
C10   1    0.322753   -0.009124    0.776693    11.00000    0.01848    0.01406 = 
         0.01360   -0.00136    0.00222   -0.00255 
AFIX  23 
H10A  2    0.259103    0.067274    0.711931    11.00000   -1.20000 
H10B  2    0.410451   -0.094577    0.733452    11.00000   -1.20000 
AFIX   0 
S1    4    0.651687    0.242401    0.826337    11.00000    0.00969    0.01297 = 
         0.01871    0.00310   -0.00010    0.00010 
C5    1    0.509540    0.437669    0.630918    11.00000    0.01142    0.01282 = 
         0.01429    0.00040    0.00267   -0.00041 
AFIX  43 
H5    2    0.650010    0.404274    0.593350    11.00000   -1.20000 
AFIX   0 
C6    1    0.366695    0.550535    0.568637    11.00000    0.01419    0.01357 = 
         0.01206    0.00139    0.00218   -0.00091 
AFIX  43 
H6    2    0.410449    0.596172    0.489855    11.00000   -1.20000 
  
AFIX   0 
HKLF 4 
  
  
  
  
REM  V18160 in P2(1) 
REM R1 =  0.0163 for    4441 Fo > 4sig(Fo)  and  0.0175 for all    4669 data 
REM    127 parameters refined using      1 restraints 
  
END 
  
WGHT      0.0000      0.0000 
  
REM Highest difference peak  0.388,  deepest hole -0.336,  1-sigma level  0.058 
Q1    1   0.2555  0.5689  0.5924  11.00000  0.05    0.39 
Q2    1  -0.1470  0.7429  0.5806  11.00000  0.05    0.36 
Q3    1   0.1293  0.5589  0.6842  11.00000  0.05    0.36 
Q4    1   0.4805  0.3803  0.6857  11.00000  0.05    0.30 
Q5    1   0.3880  0.0995  0.9262  11.00000  0.05    0.29 
Q6    1   0.3386  0.3870  0.7815  11.00000  0.05    0.28 
Q7    1   0.4484  0.4929  0.6025  11.00000  0.05    0.27 
Q8    1   0.4818  0.1122  0.6800  11.00000  0.05    0.27 
Q9    1  -0.0639  0.7381  0.4594  11.00000  0.05    0.25 
Q10   1   0.4083  0.0603  0.8078  11.00000  0.05    0.24 
Q11   1   0.2829  0.1791  1.0216  11.00000  0.05    0.24 
Q12   1   0.0272  0.7362  0.4851  11.00000  0.05    0.24 
Q13   1   0.7591  0.2427  0.7629  11.00000  0.05    0.23 
Q14   1   0.2456 -0.0721  0.5873  11.00000  0.05    0.22 
Q15   1   0.1469  0.4562  0.7657  11.00000  0.05    0.21 
Q16   1   0.1539 -0.1146  0.6776  11.00000  0.05    0.21 
Q17   1   0.5584  0.4929  0.4009  11.00000  0.05    0.20 
Q18   1   0.5057  0.6441  0.7020  11.00000  0.05    0.20 
Q19   1   0.1927  0.2267  1.1175  11.00000  0.05    0.20 
Q20   1   0.1177 -0.0662  0.6785  11.00000  0.05    0.19 
;
_shelx_res_checksum              67642
_shelx_hkl_file
; 
   1   0   0   41.05    2.38 
  -2   0   0   97.90    5.57 
   2   0   0   96.62    5.57 
   2   0   0   94.08    5.57 
  -3   0   0  122.97    7.08 
  -3   0   0  117.36    7.07 
   3   0   0  127.09    7.09 
   3   0   0  120.14    7.07 
   4   0   0    0.70    0.16 
  -4   0   0    0.70    0.16 
  -6   0   0   16.47    1.16 
  -7   0   0   15.06    1.13 
  -8   0   0    0.85    0.34 
  -9   0   0    0.42    0.35 
   0  -1   0    0.02    0.02 
   0  -1   0    0.00    0.00 
   0   1   0    0.01    0.02 
   0   1   0    0.01    0.01 
  -1  -1   0    6.39    0.38 
   1  -1   0    6.41    0.39 
   1  -1   0    6.46    0.39 
  -1  -1   0    6.83    0.39 
  -1  -1   0    6.82    0.39 
  -1  -1   0    6.20    0.40 
  -1   1   0    5.90    0.39 
   1   1   0    5.11    0.40 
   2  -1   0   53.16    3.15 
  -2  -1   0   54.28    3.17 
   2  -1   0   54.23    3.16 
  -2  -1   0   54.24    3.15 
  -2  -1   0   52.98    3.15 
   2   1   0   55.42    3.16 
  -2   1   0   54.23    3.15 
   2   1   0   54.73    3.15 
   2   1   0   53.92    3.14 
  -2   1   0   52.95    3.15 
  -3  -1   0   34.70    2.05 
   3  -1   0   35.15    2.07 
  -3  -1   0   36.53    2.06 
   3  -1   0   34.94    2.06 
  -3   1   0   34.09    2.06 
  -3   1   0   32.47    2.05 
   3   1   0   33.75    2.05 
   3   1   0   32.47    2.04 
   3   1   0   35.52    2.07 
  -4  -1   0   60.18    3.46 
   4  -1   0   61.88    3.47 
  -4   1   0   52.38    3.44 
  -5  -1   0  136.85    8.00 
  -5   1   0  136.69    8.00 
  -6  -1   0   18.50    1.44 
  -6   1   0   25.62    1.49 
  -7  -1   0   25.54    1.63 
  -7   1   0   21.93    1.60 
  -8  -1   0   19.33    1.46 
  -8   1   0   20.60    1.47 
  -9  -1   0    1.10    0.42 
  -9   1   0    1.42    0.45 
   0  -2   0   84.53    5.00 
   0  -2   0   88.56    4.99 
   1  -2   0   83.21    4.78 
   1  -2   0   82.51    4.78 
  -1  -2   0   82.54    4.77 
  -1  -2   0   82.94    4.80 
  -1  -2   0   83.16    4.79 
  -1  -2   0   85.57    4.78 
   1   2   0   87.71    4.78 
   1   2   0   81.10    4.78 
  -1   2   0   80.16    4.78 
   1   2   0   79.27    4.80 
  -1   2   0   81.30    4.79 
  -2  -2   0   53.63    3.20 
  -2  -2   0   53.27    3.19 
  -2  -2   0   51.13    3.22 
  -2  -2   0   52.83    3.21 
   2  -2   0   51.14    3.21 
   2  -2   0   52.04    3.21 
   2   2   0   58.27    3.21 
   2   2   0   58.95    3.20 
   2   2   0   54.74    3.21 
   2   2   0   59.95    3.25 
  -2   2   0   58.47    3.20 
  -3  -2   0  220.25   12.75 
  -3  -2   0  227.00   12.76 
  -3  -2   0  230.52   12.78 
  -3   2   0  218.91   12.75 
   3   2   0  215.23   12.74 
  -3   2   0  213.57   12.76 
   4   2   0   17.24    1.08 
  -4   2   0   17.14    1.11 
  -5  -2   0   18.15    1.23 
  -5   2   0   18.74    1.22 
  -6  -2   0    9.54    0.76 
  -6   2   0    8.98    0.75 
  -7  -2   0    6.19    0.66 
  -7   2   0    6.71    0.67 
  -8  -2   0    6.33    0.72 
  -8   2   0    5.65    0.70 
  -9  -2   0    1.91    0.49 
  -9   2   0    1.63    0.46 
  -9   2   0    1.53    0.43 
   0  -3   0    0.03    0.04 
   0  -3   0    0.05    0.05 
   0  -3   0    0.02    0.05 
   0  -3   0    0.03    0.03 
   0   3   0    0.00    0.06 
   0   3   0    0.04    0.06 
   1  -3   0    0.72    0.11 
  -1  -3   0    0.69    0.07 
  -1  -3   0    0.62    0.10 
   1  -3   0    0.64    0.08 
   1  -3   0    0.62    0.09 
  -1  -3   0    0.67    0.11 
  -1  -3   0    0.74    0.08 
  -1  -3   0    0.93    0.14 
   2  -3   0  100.60    6.10 
   2  -3   0  104.79    6.09 
  -2  -3   0  105.31    6.09 
  -2  -3   0   98.04    6.15 
  -2  -3   0  105.51    6.08 
  -2  -3   0   97.90    6.12 
  -2  -3   0  104.95    6.10 
  -2   3   0  105.98    6.09 
   2   3   0  103.36    6.09 
   2   3   0  112.43    6.15 
  -2   3   0  107.64    6.11 
  -2   3   0  110.59    6.10 
   2   3   0  110.60    6.08 
  -3  -3   0   54.81    3.44 
   3  -3   0   55.67    3.45 
  -3  -3   0   57.68    3.46 
  -3   3   0   60.29    3.46 
  -3   3   0   58.69    3.44 
  -3   3   0   60.96    3.46 
   3   3   0   60.84    3.43 
   3   3   0   60.63    3.45 
  -4  -3   0   36.71    2.14 
   4   3   0   32.74    2.09 
  -4   3   0   35.82    2.13 
  -4   3   0   34.51    2.13 
  -5  -3   0   40.86    2.56 
  -5   3   0   42.64    2.55 
  -5   3   0   41.48    2.55 
  -6  -3   0   32.75    1.97 
  -6   3   0   28.08    1.93 
  -6   3   0   30.12    1.94 
  -7  -3   0   13.19    1.08 
  -7   3   0   14.39    1.08 
  -7   3   0   15.09    1.09 
  -8  -3   0   31.01    2.08 
  -8   3   0   29.42    2.04 
  -8   3   0   31.32    2.13 
  -9  -3   0    1.35    0.46 
  -9   3   0    2.47    0.51 
  -9   3   0    2.00    0.49 
   0  -4   0  238.41   13.76 
  -1  -4   0  108.64    6.39 
  -1  -4   0  101.93    6.37 
   1  -4   0  103.79    6.40 
   1  -4   0  101.63    6.42 
  -1  -4   0  102.18    6.43 
  -1  -4   0  107.52    6.41 
  -1   4   0  114.97    6.39 
   1   4   0  113.78    6.39 
   1   4   0  113.36    6.45 
  -1   4   0  117.65    6.44 
  -1   4   0  116.41    6.44 
  -1   4   0  120.87    6.37 
   1   4   0  115.51    6.45 
  -2  -4   0   58.92    3.62 
   2  -4   0   56.16    3.66 
  -2  -4   0   57.73    3.67 
  -2  -4   0   58.64    3.79 
  -2  -4   0   59.06    3.63 
   2   4   0   64.41    3.63 
  -2   4   0   69.53    3.64 
  -2   4   0   64.64    3.68 
   2   4   0   63.82    3.65 
  -2   4   0   66.45    3.68 
  -2   4   0   64.07    3.65 
   2   4   0   65.91    3.71 
  -3  -4   0  151.17    8.66 
  -3  -4   0  151.53    8.69 
  -3  -4   0  154.36    8.65 
   3   4   0  148.54    8.65 
  -3   4   0  151.06    8.70 
  -3   4   0  144.37    8.66 
  -3   4   0  151.64    8.68 
   3   4   0  142.42    8.67 
   3   4   0  151.70    8.75 
  -4   4   0    1.26    0.23 
  -4   4   0    1.28    0.22 
   4   4   0    1.47    0.19 
  -5  -4   0    0.94    0.24 
  -5   4   0    0.60    0.21 
  -5   4   0    0.52    0.19 
  -6  -4   0    3.82    0.48 
  -6   4   0    3.81    0.54 
  -7  -4   0   17.08    1.29 
  -7   4   0   17.29    1.28 
  -7   4   0   18.34    1.29 
  -8  -4   0    0.50    0.54 
  -8   4   0    0.83    0.39 
  -8   4   0    1.31    0.43 
  -9  -4   0    0.17    0.37 
  -9   4   0    0.43    0.38 
  -9   4   0    0.41    0.37 
   0  -5   0    0.01    0.05 
   0  -5   0    0.09    0.08 
   0   5   0    0.07    0.11 
   0   5   0    0.07    0.11 
   1  -5   0   10.57    0.65 
  -1  -5   0   11.37    0.60 
  -1  -5   0   11.31    0.67 
  -1  -5   0   11.13    0.64 
   1   5   0    9.23    0.70 
   1   5   0    8.88    0.70 
  -1   5   0    8.85    0.69 
   1   5   0    8.72    0.62 
  -2  -5   0   95.78    5.50 
  -2  -5   0   89.93    5.50 
  -2  -5   0   95.06    5.55 
  -2   5   0   93.87    5.53 
  -2   5   0   97.87    5.57 
  -2   5   0   97.92    5.58 
   2   5   0   95.61    5.52 
   2   5   0   92.95    5.59 
  -2   5   0   96.83    5.50 
  -3  -5   0   14.20    0.89 
  -3  -5   0   14.05    0.95 
  -3  -5   0   13.70    0.90 
   3   5   0   14.20    0.89 
  -3   5   0   14.48    0.97 
   3   5   0   14.46    1.02 
  -3   5   0   15.42    0.97 
   3   5   0   14.79    0.92 
  -3   5   0   14.31    0.93 
  -3   5   0   14.86    0.90 
  -4  -5   0   18.44    1.20 
  -4   5   0   18.05    1.18 
   4   5   0   17.95    1.16 
  -4   5   0   18.41    1.21 
  -5  -5   0   85.48    5.23 
  -5   5   0   87.57    5.26 
  -5   5   0   90.93    5.24 
  -6  -5   0   18.25    1.29 
  -6   5   0   17.76    1.25 
  -6   5   0   17.86    1.28 
  -7  -5   0    8.80    0.83 
  -7   5   0    8.42    0.82 
  -7   5   0    8.99    0.80 
  -8  -5   0   21.59    1.55 
  -8   5   0   21.28    1.51 
  -8   5   0   19.47    1.53 
   0  -6   0  297.81   16.84 
   0   6   0  286.10   16.89 
  -1  -6   0   35.85    2.18 
   1  -6   0   37.23    2.18 
  -1  -6   0   35.83    2.15 
  -1   6   0   35.90    2.22 
   1   6   0   35.93    2.23 
  -1   6   0   36.78    2.21 
   1   6   0   36.16    2.23 
  -2  -6   0   46.33    2.60 
  -2  -6   0   47.30    2.67 
  -2  -6   0   49.54    2.61 
   2  -6   0   46.30    2.67 
   2   6   0   43.75    2.61 
  -2   6   0   41.19    2.68 
  -2   6   0   43.01    2.69 
   2   6   0   42.52    2.72 
  -2   6   0   42.42    2.59 
  -2   6   0   42.22    2.62 
  -3  -6   0   42.84    2.28 
  -3  -6   0   41.85    2.35 
  -3  -6   0   39.34    2.29 
  -3   6   0   38.65    2.38 
   3   6   0   39.29    2.42 
  -3   6   0   38.88    2.36 
  -3   6   0   32.90    2.27 
   3   6   0   36.65    2.29 
  -3   6   0   37.02    2.31 
   4   6   0   12.18    0.83 
   4   6   0   12.43    0.80 
  -4   6   0   12.08    0.92 
  -4   6   0   12.99    0.91 
  -4   6   0   12.51    0.86 
   4   6   0   13.30    1.00 
  -5  -6   0    2.51    0.39 
  -5   6   0    2.29    0.38 
  -5   6   0    2.30    0.35 
   5   6   0    1.86    0.27 
  -5   6   0    2.61    0.41 
  -6  -6   0    7.23    0.69 
  -6   6   0    6.57    0.70 
  -6   6   0    6.52    0.63 
  -6   6   0    6.67    0.66 
  -7  -6   0    8.45    0.80 
  -7   6   0    7.67    0.75 
  -7   6   0    7.85    0.82 
  -7   6   0    7.35    0.74 
  -8  -6   0    0.38    0.36 
  -8   6   0    0.17    0.30 
  -8   6   0   -0.10    0.35 
  -8   6   0    0.14    0.29 
   0  -7   0    0.10    0.12 
   0   7   0    0.61    0.22 
   0   7   0   -0.11    0.15 
  -1  -7   0    0.58    0.14 
  -1  -7   0    0.52    0.16 
   1  -7   0    0.50    0.16 
  -1   7   0    0.95    0.20 
  -1   7   0    1.20    0.24 
   2  -7   0   19.73    1.24 
  -2  -7   0   19.93    1.24 
  -2  -7   0   19.68    1.16 
  -2  -7   0   19.39    1.13 
   2   7   0   18.56    1.30 
  -2   7   0   17.63    1.26 
  -2   7   0   19.55    1.29 
  -2   7   0   18.25    1.13 
  -3  -7   0   24.01    1.29 
  -3  -7   0   23.04    1.30 
   3  -7   0   24.45    1.41 
  -3  -7   0   24.59    1.40 
  -3   7   0   19.81    1.40 
  -3   7   0   18.76    1.28 
  -3   7   0   20.13    1.42 
  -3   7   0   20.47    1.33 
   3   7   0   19.19    1.29 
   3   7   0   19.32    1.45 
  -4  -7   0   15.50    1.22 
  -4   7   0   18.94    1.26 
  -4   7   0   18.83    1.20 
  -4   7   0   20.69    1.31 
   4   7   0   17.99    1.15 
   4   7   0   18.50    1.35 
  -5  -7   0   71.93    4.21 
  -5   7   0   70.11    4.23 
  -5   7   0   67.47    4.14 
  -5   7   0   68.38    4.20 
  -6   7   0   13.06    1.07 
  -6   7   0   12.66    1.01 
  -6   7   0   12.86    0.96 
  -7  -7   0   10.90    0.95 
  -7   7   0   10.16    0.90 
  -7   7   0    9.52    0.86 
  -7   7   0    9.98    0.99 
  -8  -7   0    7.64    0.88 
  -8   7   0    8.34    0.85 
  -8   7   0    8.92    0.96 
  -8   7   0    8.47    0.81 
   0  -8   0   69.33    4.11 
   0  -8   0   70.49    4.14 
   0   8   0   70.20    4.20 
   0   8   0   68.82    4.20 
  -1  -8   0   24.12    1.76 
   1  -8   0   23.86    1.76 
  -1  -8   0   24.16    1.72 
  -1   8   0   33.51    1.87 
  -1   8   0   33.10    1.87 
   1   8   0   31.97    1.87 
   1   8   0   31.34    1.88 
  -2  -8   0   17.19    1.13 
  -2  -8   0   16.29    1.03 
   2  -8   0   16.93    1.13 
   2   8   0   18.10    1.24 
  -2   8   0   15.81    1.17 
  -3  -8   0   62.99    3.50 
  -3  -8   0   61.71    3.62 
   3  -8   0   59.15    3.62 
   3   8   0   61.81    3.72 
  -3   8   0   53.78    3.49 
  -3   8   0   62.66    3.66 
  -3   8   0   61.52    3.68 
  -3   8   0   57.64    3.54 
   4  -8   0    1.96    0.34 
  -4  -8   0    1.99    0.34 
   4   8   0    0.92    0.16 
  -4   8   0    0.78    0.21 
  -4   8   0    0.98    0.33 
   4   8   0    0.90    0.38 
  -4   8   0    0.84    0.30 
  -5  -8   0    2.05    0.39 
   5  -8   0    2.43    0.42 
  -5   8   0    1.73    0.40 
  -5   8   0    1.62    0.38 
  -6  -8   0    7.92    0.77 
   6  -8   0    8.07    0.80 
  -6   8   0    7.34    0.76 
  -6   8   0    7.38    0.83 
  -6   8   0    6.77    0.66 
   7  -8   0    0.38    0.36 
  -7  -8   0    0.62    0.40 
  -7   8   0    0.46    0.38 
  -7   8   0    0.68    0.37 
   0  -9   0    0.02    0.16 
   0  -9   0   -0.03    0.13 
   0   9   0    0.04    0.25 
   0   9   0    0.07    0.22 
  -1  -9   0    1.68    0.23 
   1   9   0    1.10    0.33 
  -1   9   0    0.75    0.31 
   1   9   0    1.08    0.32 
  -1   9   0    0.82    0.29 
   2  -9   0   37.45    2.42 
  -2  -9   0   37.83    2.42 
  -2   9   0   42.30    2.51 
  -3  -9   0   12.89    1.05 
  -3   9   0   15.69    1.14 
   3   9   0   15.85    1.21 
  -3   9   0   16.69    1.18 
   4   9   0    6.77    0.80 
  -4   9   0    5.96    0.73 
  -4   9   0    6.69    0.68 
  -4   9   0    6.02    0.67 
   5  -9   0   22.57    1.61 
  -5  -9   0   21.64    1.58 
  -5   9   0   22.89    1.47 
  -5   9   0   23.52    1.63 
  -5   9   0   24.58    1.67 
   6  -9   0    4.51    0.73 
  -6  -9   0    4.82    0.62 
  -6   9   0    3.06    0.44 
  -6   9   0    2.45    0.54 
   7  -9   0    5.09    0.77 
  -7  -9   0    4.69    0.69 
  -7   9   0    5.32    0.71 
  -7   9   0    4.71    0.54 
  -7   9   0    4.86    0.74 
   0 -10   0   56.47    3.29 
   0 -10   0   55.37    3.24 
   0  10   0   52.21    3.37 
   0  10   0   51.41    3.36 
  -1 -10   0   21.57    1.23 
   1 -10   0   20.96    1.33 
  -1 -10   0   21.21    1.33 
  -1  10   0   16.01    1.36 
  -1  10   0   17.71    1.39 
   1  10   0   17.76    1.40 
   2 -10   0   22.00    1.71 
  -2 -10   0   22.49    1.60 
  -2 -10   0   23.52    1.47 
   2  10   0   26.51    1.76 
  -2  10   0   26.76    1.72 
  -2  10   0   26.09    1.70 
  -3 -10   0   19.61    1.47 
   3 -10   0   20.78    1.42 
  -3  10   0   20.55    1.47 
  -3  10   0   19.05    1.48 
   3  10   0   21.73    1.56 
  -4 -10   0    0.87    0.45 
   4  10   0    2.08    0.53 
  -4  10   0    2.06    0.46 
  -4  10   0    2.21    0.48 
  -5 -10   0    1.26    0.39 
   5 -10   0    1.07    0.38 
  -5  10   0    2.06    0.66 
  -5  10   0    1.92    0.53 
   6 -10   0    0.11    0.33 
  -6  10   0    0.23    0.38 
  -6  10   0   -0.01    0.20 
  -6  10   0    0.39    0.35 
   0 -11   0    0.06    0.17 
   0  11   0    0.06    0.34 
   0  11   0    0.30    0.29 
   1 -11   0    1.31    0.32 
  -1 -11   0    1.08    0.21 
  -1  11   0    1.53    0.43 
  -1  11   0    1.12    0.40 
   1  11   0    1.39    0.43 
   2 -11   0   22.74    1.58 
  -2 -11   0   23.90    1.55 
  -2  11   0   20.23    1.61 
   2  11   0   22.61    1.68 
  -2  11   0   23.30    1.64 
   3  11   0    3.22    0.63 
  -3  11   0    3.41    0.58 
  -3  11   0    2.96    0.52 
   4 -11   0    2.06    0.44 
  -4 -11   0    1.74    0.41 
  -4  11   0    2.75    0.56 
   4  11   0    2.49    0.58 
  -4  11   0    2.36    0.52 
  -5 -11   0   22.22    1.59 
   5 -11   0   23.20    1.63 
  -5  11   0   20.60    1.64 
  -5  11   0   21.99    1.66 
   0 -12   0   16.67    1.14 
   0  12   0   16.57    1.47 
   0  12   0   18.30    1.38 
   1 -12   0    6.74    0.72 
   1 -12   0    6.53    0.64 
  -1  12   0    9.70    0.91 
  -1  12   0    8.12    1.39 
   2 -12   0    4.50    0.55 
  -2 -12   0    4.91    0.59 
   2 -12   0    4.54    0.60 
  -2  12   0    4.43    0.71 
   2  12   0    3.33    0.61 
  -2  12   0    4.51    0.71 
   3 -12   0   10.96    0.94 
  -3 -12   0   11.58    0.91 
   3  12   0    9.93    1.11 
  -3  12   0    8.98    0.98 
  -3  12   0    9.13    1.00 
   4 -12   0    1.42    0.48 
  -4 -12   0    1.60    0.42 
   4  12   0    2.63    0.63 
  -4  12   0    2.22    0.53 
  -4  12   0    2.29    0.54 
   0 -13   0    0.13    0.27 
   0  13   0    0.08    0.36 
  -1 -13   0    1.26    0.37 
   1 -13   0    1.13    0.29 
   1 -13   0    1.29    0.37 
  -1  13   0    1.00    0.48 
  -1  13   0    1.17    0.46 
   1  13   0    0.98    0.46 
   2 -13   0    6.72    0.74 
   2 -13   0    6.55    0.68 
  -2 -13   0    6.10    0.70 
  -2  13   0    7.03    0.89 
   2  13   0    5.69    0.89 
  -2  13   0    5.96    0.86 
  -3 -13   0    4.66    0.62 
   3 -13   0    5.17    0.64 
   3 -13   0    4.38    0.66 
  -3  13   0    3.36    0.66 
  -3  13   0    4.20    0.72 
   3  13   0    3.16    0.69 
  -9   0   1   22.78    1.68 
  -8   0   1    2.60    0.48 
  -7   0   1    8.30    0.76 
  -6   0   1   27.02    1.76 
  -5   0   1   37.75    2.38 
   5   0  -1   39.87    2.40 
   4   0  -1    3.68    0.35 
  -4   0   1    3.98    0.36 
   3   0  -1   14.05    0.90 
   3   0  -1   14.64    0.91 
  -3   0   1   14.57    0.90 
   3   0  -1   14.13    0.90 
  -2   0   1  404.56   24.64 
   2   0  -1  382.22   24.36 
   1   0  -1  339.22   20.55 
  -1   0   1  342.41   20.56 
   1   0   1   90.61    6.35 
  -1   0  -1   97.55    6.42 
  -2   0  -1   76.56    4.49 
   2   0   1   77.25    4.48 
  -2   0  -1   77.93    4.49 
   3   0   1   30.13    1.77 
  -3   0  -1   29.48    1.78 
  -3   0  -1   28.89    1.77 
  -4   0  -1  140.33    8.17 
  -5   0  -1   10.68    0.78 
  -6   0  -1   14.32    1.04 
  -7   0  -1    2.64    0.45 
  -8   0  -1    2.74    0.50 
  -9   0  -1    6.52    0.80 
  -9  -1   1    0.63    0.39 
  -9   1   1    1.43    0.43 
  -8  -1   1    5.29    0.66 
  -8   1   1    3.93    0.61 
  -7  -1   1   36.73    2.40 
  -7   1   1   38.02    2.39 
  -6  -1   1   33.36    2.08 
  -6   1   1   31.93    2.07 
  -5  -1   1   62.15    3.53 
   5  -1  -1   64.24    3.55 
   5   1  -1   53.23    3.52 
  -5   1   1   54.94    3.51 
  -4  -1   1   81.25    4.81 
  -4  -1   1   81.39    4.80 
   4  -1  -1   80.58    4.80 
  -4   1   1   83.59    4.80 
   4   1  -1   81.22    4.81 
   3  -1  -1   67.76    4.52 
   3  -1  -1   70.67    4.53 
  -3  -1   1   69.41    4.51 
  -3  -1   1   69.31    4.53 
  -3  -1   1   71.72    4.53 
   3  -1  -1   66.41    4.52 
   3   1  -1   89.17    4.55 
   3   1  -1   84.31    4.54 
   3   1  -1   89.25    4.57 
  -3   1   1   89.47    4.55 
  -3   1   1   86.11    4.53 
  -2  -1   1   95.53    5.52 
   2  -1  -1   94.44    5.51 
  -2  -1   1   98.00    5.52 
  -2  -1   1   92.08    5.51 
  -2  -1   1   92.78    5.51 
   2   1  -1   95.60    5.51 
   2   1  -1   94.00    5.52 
  -2   1   1   99.04    5.52 
   1  -1  -1  154.58   10.58 
  -1  -1   1  166.37   10.83 
  -1   1   1  171.18   10.65 
   1   1  -1  179.79   10.89 
   0  -1  -1   21.70    1.21 
   0  -1  -1   21.34    1.20 
   0  -1   1   21.32    1.21 
   0  -1   1   22.01    1.21 
   0  -1  -1   21.83    1.21 
   0  -1   1   22.27    1.21 
   0   1   1   18.18    1.21 
   0   1   1   18.00    1.21 
   0   1   1   19.72    1.20 
   1  -1   1  161.64   10.45 
  -1  -1  -1  158.99   10.04 
  -1   1  -1  157.67   10.43 
   2  -1   1   21.76    1.37 
  -2  -1  -1   22.83    1.38 
  -2  -1  -1   22.12    1.37 
  -2  -1  -1   21.66    1.40 
   2   1   1   24.40    1.37 
  -2   1  -1   24.25    1.38 
  -2   1  -1   23.87    1.38 
  -3  -1  -1   62.61    3.99 
  -3  -1  -1   68.74    3.96 
  -3  -1  -1   65.75    3.96 
   3  -1   1   65.81    3.96 
   3   1   1   67.66    3.94 
   3   1   1   72.34    3.97 
  -3   1  -1   69.86    3.97 
  -3   1  -1   67.99    3.96 
  -4  -1  -1   36.39    2.38 
  -4   1  -1   42.55    2.40 
   4   1   1   39.75    2.37 
  -5  -1  -1   39.23    2.28 
  -5   1  -1   34.50    2.26 
  -6  -1  -1   80.55    4.66 
  -6   1  -1   74.66    4.64 
  -7  -1  -1    9.85    0.79 
  -7   1  -1    7.19    0.75 
  -8  -1  -1   13.25    1.11 
  -8   1  -1   14.13    1.12 
  -9  -1  -1   17.94    1.44 
  -9   1  -1   18.70    1.44 
  -9  -2   1   11.39    1.06 
  -9   2   1   11.18    1.03 
  -9   2   1   10.87    1.02 
  -8  -2   1    0.08    0.30 
  -8   2   1    0.97    0.37 
  -8   2   1    1.51    0.40 
  -7  -2   1    1.02    0.33 
  -7   2   1    1.62    0.34 
  -6  -2   1   18.44    1.26 
  -6   2   1   18.05    1.25 
  -5  -2   1   11.57    0.83 
   5  -2  -1   11.75    0.84 
  -5   2   1   10.96    0.81 
   5   2  -1   10.96    0.83 
   4   2  -1    0.87    0.18 
  -4   2   1    1.07    0.19 
  -3  -2   1    1.04    0.16 
   3  -2  -1    0.85    0.15 
   3  -2  -1    0.87    0.16 
  -3  -2   1    0.52    0.12 
  -3  -2   1    0.69    0.12 
   2  -2  -1  224.31   12.94 
   2   2  -1  224.13   12.95 
   2   2  -1  225.23   12.94 
  -1  -2   1   56.11    3.21 
  -1  -2   1   61.22    3.21 
  -1  -2   1   57.86    3.20 
   1  -2  -1   59.13    3.20 
  -1  -2   1   58.22    3.22 
  -1  -2   1   60.57    3.22 
   1   2  -1   52.52    3.20 
   1   2  -1   51.28    3.21 
   1   2  -1   51.95    3.21 
  -1   2   1   52.93    3.20 
  -1   2   1   51.43    3.21 
  -1   2   1   54.53    3.21 
  -1   2   1   54.57    3.20 
   1   2  -1   51.35    3.21 
   0  -2   1  116.08    6.70 
  -1  -2  -1  928.29   56.04 
   1  -2   1 1000.00   56.92 
   1   2   1  981.85   56.15 
  -1   2  -1  934.87   56.79 
  -2  -2  -1   98.47    6.06 
  -2  -2  -1   99.16    6.03 
  -2  -2  -1  103.05    6.04 
   2  -2   1   94.92    6.04 
  -2   2  -1  106.90    6.04 
   2   2   1  111.17    6.03 
  -2   2  -1  107.63    6.04 
   2   2   1  106.24    6.01 
   2   2   1  105.48    6.14 
  -2   2  -1  109.54    6.05 
  -3  -2  -1   47.81    3.20 
  -3  -2  -1   48.93    3.16 
  -3  -2  -1   52.34    3.17 
   3   2   1   55.42    3.16 
  -3   2  -1   55.78    3.17 
  -3   2  -1   59.74    3.19 
   3   2   1   56.82    3.15 
  -4  -2  -1  118.40    6.89 
   4   2   1  114.86    6.86 
  -4   2  -1  120.99    6.90 
  -5   2  -1    5.96    0.52 
  -6  -2  -1    0.11    0.20 
  -6   2  -1    0.52    0.22 
  -7  -2  -1    4.43    0.57 
  -7   2  -1    4.87    0.58 
  -8  -2  -1   11.75    1.03 
  -8   2  -1   12.56    1.04 
  -9  -2  -1    0.07    0.35 
  -9   2  -1    0.26    0.35 
  -9   2  -1   -0.01    0.34 
  -9  -3   1    3.78    0.62 
  -9   3   1    3.30    0.57 
  -9   3   1    2.66    0.52 
  -8  -3   1    2.69    0.54 
  -8   3   1    3.54    0.57 
  -8   3   1    4.33    0.60 
  -7  -3   1   34.14    2.25 
  -7   3   1   34.61    2.23 
  -7   3   1   34.92    2.23 
  -6  -3   1   16.81    1.14 
  -6   3   1   14.71    1.10 
  -6   3   1   15.26    1.11 
   5  -3  -1   35.38    2.20 
  -5  -3   1   34.95    2.20 
  -5   3   1   36.33    2.20 
  -5   3   1   34.86    2.19 
   4  -3  -1  208.26   11.65 
  -4  -3   1  204.09   11.65 
   4   3  -1  191.94   11.65 
  -4   3   1  200.93   11.64 
   4   3  -1  193.31   11.64 
  -4   3   1  206.05   11.64 
  -3  -3   1   48.71    2.59 
  -3  -3   1   46.44    2.58 
   3  -3  -1   49.86    2.58 
  -3  -3   1   49.51    2.56 
  -3  -3   1   48.81    2.56 
  -3   3   1   39.14    2.57 
   3   3  -1   39.32    2.56 
  -3   3   1   39.00    2.55 
   3   3  -1   40.48    2.56 
   3   3  -1   40.20    2.60 
  -3   3   1   37.84    2.54 
   3   3  -1   38.95    2.54 
  -2  -3   1   78.98    4.23 
   2  -3  -1   74.27    4.16 
  -2  -3   1   73.07    4.15 
  -2  -3   1   72.39    4.14 
  -2  -3   1   72.89    4.16 
   2  -3  -1   76.54    4.15 
  -2   3   1   67.64    4.16 
  -2   3   1   73.08    4.17 
  -2   3   1   68.35    4.16 
   2   3  -1   68.54    4.14 
  -2   3   1   71.27    4.14 
   2   3  -1   70.35    4.18 
   2   3  -1   64.36    4.14 
   2   3  -1   66.69    4.16 
   1  -3  -1   72.45    4.39 
  -1  -3   1   70.64    4.39 
   1  -3  -1   74.01    4.37 
  -1  -3   1   69.53    4.39 
   1  -3  -1   75.69    4.36 
  -1  -3   1   74.59    4.36 
  -1  -3   1   74.95    4.38 
  -1  -3   1   71.23    4.40 
  -1   3   1   80.38    4.36 
   1   3  -1   77.99    4.38 
   1   3  -1   77.97    4.40 
  -1   3   1   79.62    4.36 
   1   3  -1   79.63    4.39 
   1   3  -1   78.74    4.36 
   0  -3   1    4.72    0.33 
   0  -3   1    4.99    0.33 
   0  -3  -1    4.49    0.33 
   0  -3   1    4.65    0.32 
   0  -3  -1    4.76    0.34 
   0  -3   1    4.93    0.34 
   0  -3  -1    4.85    0.30 
   1  -3   1   75.33    4.40 
  -1  -3  -1   76.03    4.42 
   1  -3   1   74.89    4.41 
  -1  -3  -1   72.46    4.42 
   1  -3   1   75.39    4.41 
  -1  -3  -1   79.15    4.36 
  -1  -3  -1   77.29    4.39 
  -1   3  -1   76.24    4.41 
   1   3   1   75.05    4.37 
  -1   3  -1   75.71    4.40 
  -1   3  -1   76.33    4.38 
  -2  -3  -1   13.85    0.81 
  -2  -3  -1   14.78    0.82 
   2  -3   1   14.23    0.79 
  -2  -3  -1   14.38    0.77 
  -2   3  -1   10.89    0.77 
   2   3   1   11.11    0.82 
  -2   3  -1   11.15    0.78 
   2   3   1   10.88    0.75 
  -2   3  -1   11.27    0.76 
   2   3   1   11.38    0.74 
  -3  -3  -1  116.46    6.50 
  -3  -3  -1  110.04    6.49 
   3   3   1  113.00    6.46 
   3   3   1  108.07    6.48 
  -3   3  -1  110.66    6.51 
  -3   3  -1  109.21    6.50 
  -3   3  -1  114.64    6.49 
  -4  -3  -1    1.95    0.26 
   4   3   1    1.63    0.20 
  -4   3  -1    1.52    0.24 
   4   3   1    1.25    0.20 
  -4   3  -1    1.26    0.21 
  -5  -3  -1   28.85    1.81 
  -5   3  -1   28.42    1.81 
  -5   3  -1   29.01    1.82 
  -6  -3  -1   60.55    3.80 
  -6   3  -1   63.89    3.84 
  -6   3  -1   64.15    3.80 
  -7  -3  -1   17.70    1.44 
  -7   3  -1   22.37    1.48 
  -7   3  -1   23.14    1.47 
  -8  -3  -1    9.23    0.86 
  -8   3  -1    7.60    0.80 
  -9  -3  -1   13.89    1.21 
  -9   3  -1   15.31    1.23 
  -9   3  -1   13.96    1.20 
  -9  -4   1   18.52    1.49 
  -9   4   1   19.08    1.48 
  -9   4   1   19.59    1.46 
  -8  -4   1    2.77    0.83 
  -8   4   1    3.22    0.54 
  -7  -4   1    7.35    0.72 
  -7   4   1    6.09    0.68 
  -7   4   1    6.21    0.66 
  -6  -4   1    7.93    0.70 
  -6   4   1    7.18    0.68 
  -6   4   1    7.64    0.72 
  -5  -4   1    4.04    0.46 
  -5   4   1    4.50    0.44 
   4  -4  -1   31.51    1.82 
  -4  -4   1   30.61    1.84 
   4   4  -1   27.60    1.78 
  -4   4   1   28.51    1.83 
  -4   4   1   28.70    1.80 
  -3   4   1   30.78    1.87 
  -3   4   1   31.38    1.85 
   3   4  -1   29.99    1.85 
   3   4  -1   30.00    1.84 
   3   4  -1   29.16    1.85 
  -3   4   1   31.34    1.83 
   3   4  -1   31.96    1.92 
   2  -4  -1  158.00    9.08 
  -2  -4   1  158.17    9.10 
  -2  -4   1  167.18    9.08 
  -2  -4   1  168.29    9.06 
  -2  -4   1  166.88    9.11 
   2   4  -1  153.23    9.12 
   2   4  -1  159.42    9.07 
  -2   4   1  154.58    9.07 
  -2   4   1  152.98    9.11 
   2   4  -1  152.84    9.09 
   2   4  -1  150.15    9.07 
  -2   4   1  143.35    9.06 
   1  -4  -1   35.91    2.14 
   1  -4  -1   34.18    2.17 
  -1  -4   1   36.16    2.17 
  -1  -4   1   35.56    2.15 
  -1  -4   1   33.96    2.12 
  -1  -4   1   33.46    2.18 
   1  -4  -1   35.96    2.12 
   1   4  -1   39.31    2.12 
  -1   4   1   38.32    2.19 
  -1   4   1   34.58    2.12 
   1   4  -1   37.97    2.16 
  -1   4   1   40.41    2.18 
  -1   4   1   38.06    2.13 
   1   4  -1   37.30    2.19 
   1   4  -1   36.60    2.18 
   0  -4  -1   65.74    3.86 
   0  -4  -1   69.10    3.89 
   0  -4  -1   67.16    3.88 
   0  -4   1   64.24    3.90 
   0  -4   1   67.78    3.92 
   0  -4  -1   63.08    3.93 
   0  -4   1   63.51    3.92 
   0  -4  -1   60.34    3.92 
   0   4   1   70.53    3.94 
   0   4   1   69.01    3.94 
   0   4  -1   71.71    3.94 
   0   4  -1   69.99    3.93 
   0   4  -1   70.17    3.90 
  -1  -4  -1  247.42   13.48 
   1  -4   1  224.11   13.53 
   1  -4   1  221.96   13.52 
  -1  -4  -1  231.52   13.55 
  -1  -4  -1  247.71   13.51 
  -2  -4  -1   55.97    2.98 
  -2  -4  -1   57.77    3.00 
   2  -4   1   56.46    3.01 
   2   4   1   49.19    2.95 
   2   4   1   48.06    2.97 
  -2   4  -1   47.38    3.00 
  -2   4  -1   45.93    2.97 
   2   4   1   50.82    3.05 
  -2   4  -1   47.29    3.01 
  -3  -4  -1   62.70    3.77 
  -3  -4  -1   61.33    3.78 
   3   4   1   64.86    3.74 
  -3   4  -1   63.99    3.77 
  -3   4  -1   65.90    3.80 
   3   4   1   64.23    3.76 
   3   4   1   65.66    3.86 
  -3   4  -1   65.86    3.80 
  -4  -4  -1   67.87    3.69 
  -4   4  -1   61.42    3.68 
   4   4   1   59.34    3.65 
   4   4   1   59.76    3.62 
  -4   4  -1   61.13    3.68 
  -5   4  -1    8.63    0.69 
  -5   4  -1    9.25    0.90 
  -6  -4  -1    2.07    0.37 
  -6   4  -1    2.75    0.43 
  -7  -4  -1    5.46    0.63 
  -7   4  -1    5.10    0.61 
  -7   4  -1    5.29    0.62 
  -8  -4  -1    6.80    0.90 
  -8   4  -1    5.83    0.73 
  -8   4  -1    5.87    0.90 
  -9  -4  -1    0.24    0.38 
  -9   4  -1   -0.29    0.30 
  -9   4  -1   -0.09    0.34 
  -8  -5   1    4.97    0.68 
  -8   5   1    2.98    0.52 
  -8   5   1    3.20    0.58 
  -8   5   1    2.90    0.51 
  -7  -5   1   43.14    2.70 
  -7   5   1   40.75    2.64 
  -7   5   1   42.05    2.69 
  -6  -5   1   10.39    0.99 
  -6   5   1   12.57    0.91 
  -6   5   1   12.66    0.96 
  -5  -5   1   25.31    1.73 
  -5   5   1   28.33    1.75 
  -5   5   1   27.10    1.71 
  -4  -5   1   60.26    3.78 
  -4  -5   1   62.22    3.73 
  -4   5   1   65.72    3.75 
  -4   5   1   64.99    3.80 
   4   5  -1   64.67    3.84 
  -4   5   1   63.07    3.77 
   4   5  -1   62.17    3.73 
  -3  -5   1   17.13    1.10 
   3  -5  -1   18.18    1.07 
  -3  -5   1   16.81    1.04 
  -3  -5   1   16.58    1.04 
  -3   5   1   15.48    1.03 
  -3   5   1   16.63    1.09 
   3   5  -1   16.86    1.07 
  -3   5   1   16.62    1.05 
  -3   5   1   17.39    1.12 
   3   5  -1   16.01    1.04 
   3   5  -1   17.22    1.14 
  -2  -5   1   44.28    2.49 
  -2  -5   1   45.06    2.51 
   2  -5  -1   47.01    2.46 
  -2  -5   1   43.92    2.44 
  -2   5   1   40.88    2.52 
  -2   5   1   37.76    2.44 
   2   5  -1   40.07    2.47 
  -2   5   1   38.50    2.50 
  -2   5   1   40.39    2.46 
   2   5  -1   40.02    2.53 
  -1  -5   1   64.41    3.73 
   1  -5  -1   62.85    3.72 
   1  -5  -1   67.70    3.68 
  -1  -5   1   65.30    3.75 
  -1   5   1   62.77    3.76 
   1   5  -1   63.64    3.77 
   1   5  -1   61.97    3.77 
  -1   5   1   61.75    3.76 
   1   5  -1   62.38    3.72 
   0  -5   1    3.14    0.28 
   0  -5   1    3.08    0.25 
   0  -5  -1    2.93    0.24 
   0  -5  -1    3.28    0.24 
   1  -5   1   10.03    0.66 
  -1  -5  -1   10.01    0.61 
  -1  -5  -1    9.85    0.60 
  -1  -5  -1   10.31    0.64 
  -1   5  -1   10.46    0.59 
   1   5   1    9.60    0.70 
  -1   5  -1    9.88    0.69 
  -1   5  -1    9.31    0.63 
   1   5   1    9.43    0.70 
  -1   5  -1    9.72    0.68 
   2  -5   1    0.32    0.13 
  -2  -5  -1    0.39    0.12 
  -2  -5  -1    0.45    0.07 
  -2  -5  -1    0.42    0.09 
   2   5   1    0.63    0.19 
  -2   5  -1    0.59    0.16 
  -2   5  -1    0.75    0.14 
  -2   5  -1    0.46    0.14 
  -2   5  -1    0.66    0.10 
   2   5   1    0.63    0.10 
  -3  -5  -1   26.53    1.60 
  -3  -5  -1   27.12    1.61 
  -3   5  -1   25.72    1.61 
   3   5   1   26.96    1.54 
   3   5   1   26.88    1.70 
   3   5   1   25.65    1.57 
  -3   5  -1   25.79    1.64 
  -3   5  -1   24.75    1.57 
  -4  -5  -1   37.91    2.32 
   4   5   1   36.33    2.35 
   4   5   1   37.39    2.25 
  -4   5  -1   38.18    2.32 
  -4   5  -1   40.37    2.35 
  -5  -5  -1   18.20    1.19 
  -5   5  -1   17.81    1.18 
   5   5   1   15.86    1.08 
  -5   5  -1   17.48    1.19 
  -6  -5  -1   52.20    3.33 
  -6   5  -1   56.06    3.35 
  -6   5  -1   54.78    3.34 
  -7  -5  -1   10.50    0.85 
  -7   5  -1    8.53    0.81 
  -7   5  -1    8.27    0.83 
  -8  -5  -1   18.23    1.36 
  -8   5  -1   17.58    1.34 
  -8   5  -1   16.75    1.35 
  -8  -6   1    2.13    0.48 
  -8   6   1    0.47    0.32 
  -8   6   1    1.01    0.52 
  -8   6   1    0.36    0.39 
  -7  -6   1    4.60    0.65 
  -7   6   1    4.72    0.56 
  -7   6   1    4.35    0.56 
  -7   6   1    4.27    0.63 
  -6  -6   1    9.04    0.78 
  -6   6   1    8.01    0.78 
  -6   6   1    7.99    0.72 
  -6   6   1    7.77    0.69 
  -5  -6   1   14.91    1.04 
  -5   6   1   12.98    0.95 
  -5   6   1   13.88    1.00 
  -4  -6   1    0.62    0.22 
  -4  -6   1    0.58    0.15 
  -4   6   1    0.91    0.24 
  -4   6   1    0.68    0.18 
   4   6  -1    0.71    0.27 
   4   6  -1    0.91    0.17 
   3   6  -1   10.60    0.74 
  -3   6   1   10.52    0.71 
  -3   6   1   11.00    0.80 
   3   6  -1   11.61    0.86 
  -3   6   1   11.67    0.74 
  -3   6   1   11.96    0.84 
  -2  -6   1  102.98    5.97 
  -2  -6   1  100.36    5.88 
  -2  -6   1  103.01    5.92 
  -2   6   1  104.99    5.99 
   2   6  -1  101.66    5.92 
   2   6  -1  103.17    6.00 
  -2   6   1  102.80    5.98 
  -2   6   1  100.61    5.90 
  -2   6   1   97.06    5.88 
   1  -6  -1   55.51    3.36 
  -1  -6   1   55.80    3.34 
  -1  -6   1   52.46    3.31 
  -1   6   1   58.43    3.37 
   1   6  -1   56.67    3.37 
   1   6  -1   57.87    3.37 
  -1   6   1   57.25    3.37 
   1   6  -1   56.25    3.30 
   0  -6   1   56.55    3.54 
   0  -6  -1   54.42    3.50 
   0  -6  -1   56.68    3.51 
   0   6   1   60.40    3.58 
   0   6  -1   64.28    3.58 
   0   6  -1   63.29    3.58 
   0   6   1   64.53    3.59 
  -1  -6  -1  128.12    7.30 
   1  -6   1  124.61    7.36 
  -1  -6  -1  125.01    7.27 
  -1  -6  -1  125.84    7.34 
   1   6   1  123.65    7.41 
  -1   6  -1  126.81    7.39 
  -1   6  -1  126.07    7.39 
   1   6   1  131.65    7.41 
  -2  -6  -1   21.97    1.47 
  -2  -6  -1   22.14    1.40 
   2  -6   1   20.83    1.49 
  -2  -6  -1   21.39    1.42 
  -2   6  -1   27.42    1.54 
  -2   6  -1   25.51    1.42 
   2   6   1   25.61    1.57 
  -2   6  -1   27.29    1.54 
  -2   6  -1   25.07    1.47 
  -3  -6  -1   37.31    2.35 
  -3  -6  -1   36.66    2.31 
   3  -6   1   38.59    2.38 
  -3   6  -1   42.04    2.41 
  -3   6  -1   39.34    2.35 
  -3   6  -1   39.94    2.39 
   3   6   1   38.82    2.45 
   3   6   1   39.64    2.29 
  -3   6  -1   38.37    2.31 
  -4  -6  -1   63.67    3.72 
   4   6   1   59.65    3.61 
  -4   6  -1   62.44    3.74 
  -4   6  -1   64.47    3.75 
   4   6   1   62.63    3.83 
   4   6   1   60.62    3.65 
  -4   6  -1   61.95    3.71 
  -5   6  -1    2.04    0.37 
   5   6   1    2.13    0.26 
  -5   6  -1    2.24    0.35 
   5   6   1    1.73    0.22 
  -6  -6  -1    4.65    0.68 
  -6   6  -1    4.03    0.56 
  -6   6  -1    3.76    0.50 
  -7  -6  -1    3.63    0.55 
  -7   6  -1    3.28    0.53 
  -7   6  -1    2.37    0.45 
  -8  -6  -1    5.29    0.72 
  -8   6  -1    6.14    0.72 
  -8   6  -1    5.02    0.75 
  -8   6  -1    5.50    0.69 
  -8  -7   1    1.23    0.43 
  -8   7   1    0.51    0.31 
  -8   7   1    0.26    0.39 
  -7  -7   1   17.07    1.35 
  -7   7   1   18.37    1.27 
  -7   7   1   17.01    1.29 
  -7   7   1   18.04    1.39 
  -6  -7   1   18.42    1.30 
  -6   7   1   17.72    1.32 
  -6   7   1   17.14    1.20 
  -6   7   1   16.34    1.24 
  -5  -7   1   22.77    1.42 
  -5   7   1   19.79    1.42 
  -5   7   1   19.04    1.31 
  -5   7   1   19.02    1.42 
  -4  -7   1   77.02    4.39 
  -4  -7   1   77.32    4.49 
  -4   7   1   73.04    4.41 
   4   7  -1   76.74    4.58 
  -4   7   1   71.45    4.48 
  -4   7   1   73.82    4.51 
  -3  -7   1   17.37    1.09 
  -3  -7   1   18.31    1.20 
  -3  -7   1   18.10    1.12 
   3   7  -1   18.35    1.27 
  -3   7   1   18.89    1.22 
  -3   7   1   17.93    1.11 
  -3   7   1   19.66    1.28 
   3   7  -1   17.09    1.13 
  -3   7   1   16.56    1.09 
  -2  -7   1   21.34    1.40 
   2  -7  -1   20.42    1.43 
  -2  -7   1   21.14    1.35 
  -2  -7   1   22.14    1.47 
  -2   7   1   25.87    1.53 
  -2   7   1   25.92    1.51 
   2   7  -1   23.81    1.52 
   2   7  -1   24.44    1.41 
  -1  -7   1   51.51    3.12 
  -1  -7   1   49.35    3.08 
   1  -7  -1   51.48    3.09 
  -1   7   1   52.02    3.15 
  -1   7   1   52.81    3.16 
   1   7  -1   52.60    3.16 
   1   7  -1   55.17    3.18 
   0  -7  -1    5.28    0.41 
   0  -7   1    5.40    0.42 
   0  -7   1    5.15    0.44 
   0   7  -1    4.81    0.49 
   0   7  -1    4.75    0.48 
   0   7   1    5.04    0.50 
   0   7   1    4.70    0.48 
  -1  -7  -1    1.30    0.16 
   1  -7   1    1.18    0.21 
  -1  -7  -1    1.40    0.21 
  -1   7  -1    0.98    0.23 
   1   7   1    1.00    0.23 
   1   7   1    1.11    0.25 
  -1   7  -1    1.13    0.25 
   2  -7   1    5.40    0.44 
  -2  -7  -1    5.43    0.31 
  -2   7  -1    3.82    0.48 
  -2   7  -1    3.93    0.44 
  -2   7  -1    3.87    0.36 
  -2   7  -1    4.02    0.29 
   2   7   1    4.05    0.48 
   3  -7   1   65.34    3.97 
  -3  -7  -1   63.13    3.87 
  -3  -7  -1   64.75    3.94 
  -3   7  -1   71.05    4.00 
  -3   7  -1   67.19    3.92 
  -3   7  -1   65.17    3.99 
   3   7   1   69.81    4.06 
  -3   7  -1   64.59    3.87 
  -4  -7  -1   10.74    0.86 
   4  -7   1   12.19    0.97 
  -4   7  -1   12.40    0.91 
  -4   7  -1   11.85    0.91 
   4   7   1   12.22    0.76 
  -4   7  -1   13.09    0.95 
   4   7   1   12.08    1.01 
  -5   7  -1    6.97    0.69 
  -5   7  -1    8.09    0.74 
   5   7   1    7.45    0.54 
  -6  -7  -1   28.42    1.97 
  -6   7  -1   30.85    2.00 
  -6   7  -1   30.70    2.01 
  -6   7  -1   29.83    1.94 
  -7  -7  -1    2.68    0.50 
   7  -7   1    2.48    0.48 
  -7   7  -1    1.18    0.60 
  -7   7  -1    0.92    0.34 
  -7   7  -1    1.36    0.40 
   8  -7   1    2.43    0.55 
  -8  -7  -1    1.98    0.49 
  -8   7  -1    2.18    0.46 
  -8   7  -1    1.69    0.45 
  -8   7  -1    2.56    0.55 
  -7   8   1    2.89    0.43 
  -7   8   1    2.82    0.68 
  -7   8   1    3.13    0.60 
  -6  -8   1   11.62    0.99 
  -6   8   1   12.19    0.88 
  -6   8   1   12.16    1.07 
  -6   8   1   10.58    0.96 
  -5  -8   1    4.00    0.54 
  -5   8   1    4.20    0.63 
  -5   8   1    4.05    0.43 
  -5   8   1    4.08    0.54 
  -4   8   1    3.25    0.34 
   4   8  -1    3.85    0.35 
  -4   8   1    3.62    0.51 
  -3  -8   1    3.46    0.28 
   3  -8  -1    3.59    0.42 
  -3  -8   1    3.66    0.31 
  -3  -8   1    3.32    0.42 
  -2  -8   1   37.00    2.24 
   2  -8  -1   37.58    2.29 
  -2  -8   1   37.85    2.32 
  -2   8   1   37.34    2.36 
  -1  -8   1   36.39    2.11 
   1  -8  -1   35.97    2.13 
  -1  -8   1   35.08    2.16 
   1   8  -1   32.15    2.18 
  -1   8   1   34.05    2.19 
  -1   8   1   34.64    2.21 
   1   8  -1   34.79    2.21 
   0  -8  -1   27.63    1.73 
   0  -8   1   28.03    1.76 
   0  -8  -1   28.09    1.70 
   0  -8   1   28.04    1.74 
   0   8   1   26.69    1.81 
   0   8  -1   28.32    1.81 
   0   8   1   28.23    1.82 
   0   8  -1   28.87    1.82 
   1  -8   1  130.28    7.39 
  -1  -8  -1  136.21    7.37 
  -1  -8  -1  130.25    7.30 
  -1   8  -1  120.28    7.41 
   1   8   1  119.13    7.45 
   1   8   1  119.52    7.43 
  -2  -8  -1   35.29    2.04 
  -2  -8  -1   37.51    2.04 
  -2  -8  -1   36.01    2.16 
   2  -8   1   34.26    2.18 
  -2   8  -1   35.16    2.22 
  -2   8  -1   33.55    2.22 
   2   8   1   33.38    2.25 
  -3  -8  -1   11.58    0.91 
   3  -8   1   11.79    0.95 
  -3   8  -1   13.71    0.88 
   3   8   1   14.41    1.08 
  -3   8  -1   14.30    1.00 
  -3   8  -1   12.72    0.81 
  -3   8  -1   14.01    1.02 
  -4  -8  -1   30.72    1.98 
   4  -8   1   32.63    2.03 
  -4   8  -1   30.46    2.03 
  -4   8  -1   31.49    2.05 
  -4   8  -1   31.15    1.94 
   4   8   1   31.06    2.13 
  -5  -8  -1    0.65    0.27 
   5  -8   1    0.63    0.31 
  -5   8  -1    0.62    0.30 
  -5   8  -1    0.71    0.25 
  -5   8  -1    0.99    0.35 
   6  -8   1    1.51    0.42 
  -6  -8  -1    1.71    0.40 
  -6   8  -1    2.20    0.47 
  -6   8  -1    1.96    0.45 
  -6   8  -1    2.45    0.41 
   7  -8   1   -0.22    0.33 
  -7   8  -1   -0.07    0.26 
  -7   8  -1    0.27    0.37 
  -7   8  -1    0.17    0.32 
  -7  -9   1   12.10    1.08 
   7  -9  -1   12.59    1.11 
  -7   9   1   11.37    1.03 
  -7   9   1   11.31    1.13 
   6  -9  -1    5.07    0.69 
  -6  -9   1    5.36    0.68 
  -6   9   1    5.39    0.67 
  -6   9   1    5.09    0.50 
  -6   9   1    5.41    0.78 
   5  -9  -1   11.13    0.88 
  -5  -9   1   10.02    0.86 
  -5   9   1    9.08    0.85 
  -5   9   1    8.83    0.67 
  -5   9   1    8.85    0.93 
   5   9  -1    8.96    0.97 
  -4  -9   1   43.62    2.75 
   4  -9  -1   42.53    2.74 
   4   9  -1   45.98    2.88 
  -4   9   1   42.85    2.80 
  -4   9   1   43.96    2.77 
  -3  -9   1    5.85    0.44 
  -3  -9   1    6.47    0.61 
   3  -9  -1    6.16    0.58 
   3   9  -1    6.06    0.70 
  -3   9   1    5.43    0.64 
  -3   9   1    6.80    0.71 
  -2  -9   1    8.86    0.70 
  -2  -9   1    8.44    0.59 
   2  -9  -1    8.04    0.66 
   2   9  -1    7.32    0.81 
  -1  -9   1   23.00    1.46 
   1  -9  -1   24.14    1.50 
  -1  -9   1   22.42    1.52 
  -1   9   1   23.62    1.59 
   1   9  -1   23.55    1.61 
  -1   9   1   22.86    1.58 
   0  -9   1    0.86    0.22 
   0  -9  -1    1.01    0.23 
   0  -9  -1    0.89    0.20 
   0  -9   1    0.92    0.25 
   0   9  -1    2.02    0.38 
   0   9   1    1.66    0.36 
   0   9   1    1.64    0.35 
   0   9  -1    1.11    0.30 
   1  -9   1    0.75    0.24 
  -1  -9  -1    1.05    0.23 
  -1   9  -1    0.88    0.28 
   1   9   1    0.87    0.32 
   1   9   1    1.02    0.30 
  -1   9  -1    1.02    0.31 
   2  -9   1    1.77    0.31 
  -2  -9  -1    1.75    0.30 
   2   9   1    1.40    0.38 
  -2   9  -1    1.16    0.32 
  -2   9  -1    1.61    0.37 
  -3  -9  -1   24.72    1.48 
   3  -9   1   24.09    1.52 
  -3  -9  -1   22.57    1.32 
  -3   9  -1   19.85    1.52 
   3   9   1   20.17    1.60 
  -3   9  -1   22.33    1.55 
  -4  -9  -1    1.80    0.39 
   4  -9   1    1.69    0.39 
  -4   9  -1    1.27    0.25 
  -4   9  -1    1.04    0.34 
   4   9   1    0.90    0.41 
  -4   9  -1    1.43    0.39 
   5  -9   1    9.58    0.90 
  -5  -9  -1    8.77    0.83 
  -5   9  -1   10.38    0.77 
  -5   9  -1   10.94    0.93 
  -5   9  -1   10.20    0.96 
   6  -9   1   30.56    2.38 
  -6  -9  -1   32.56    2.10 
  -6   9  -1   32.78    2.14 
  -6   9  -1   30.04    2.14 
  -6   9  -1   30.30    2.00 
  -7  -9  -1   12.16    1.19 
   7  -9   1   13.01    1.27 
  -7   9  -1   17.49    1.34 
  -7   9  -1   16.90    1.14 
  -7   9  -1   17.16    1.30 
   6 -10  -1    0.55    0.36 
  -6 -10   1    0.48    0.35 
  -6  10   1    1.06    0.45 
  -6  10   1    0.58    0.37 
  -5 -10   1    2.02    0.45 
   5 -10  -1    2.23    0.45 
  -5  10   1    2.04    0.51 
   5  10  -1    2.00    0.53 
  -5  10   1    1.90    0.44 
  -4 -10   1    6.17    0.64 
   4 -10  -1    6.41    0.64 
  -4  10   1    3.83    0.64 
   4  10  -1    4.12    0.73 
  -4  10   1    4.78    0.71 
   3 -10  -1    6.85    0.67 
  -3 -10   1    6.61    0.50 
  -3 -10   1    6.10    0.67 
  -3  10   1    8.89    0.79 
   3  10  -1    8.75    0.85 
  -3  10   1    8.21    0.82 
  -2 -10   1   45.96    2.81 
   2 -10  -1   47.18    2.71 
  -2 -10   1   46.15    2.61 
  -2  10   1   40.72    2.76 
   2  10  -1   40.62    2.80 
  -2  10   1   40.27    2.78 
  -1 -10   1    2.87    0.44 
   1 -10  -1    3.32    0.42 
  -1 -10   1    2.83    0.36 
  -1  10   1    2.94    0.47 
  -1  10   1    3.81    0.54 
   1  10  -1    3.84    0.58 
   0 -10  -1   23.31    1.60 
   0 -10   1   22.93    1.63 
   0 -10   1   23.04    1.59 
   0 -10  -1   22.31    1.54 
   0  10   1   27.50    1.76 
   0  10  -1   27.45    1.75 
   0  10  -1   28.21    1.74 
   0  10   1   26.80    1.75 
  -1 -10  -1   31.17    2.05 
   1 -10   1   30.75    2.08 
   1 -10   1   30.35    2.05 
   1  10   1   33.22    2.17 
  -1  10  -1   34.67    2.16 
  -1  10  -1   36.63    2.19 
   1  10   1   32.83    2.18 
  -2 -10  -1    9.26    0.78 
   2 -10   1    9.09    0.83 
   2  10   1   11.56    0.98 
  -2  10  -1   11.38    0.93 
  -2  10  -1   10.62    0.92 
  -3 -10  -1   15.19    1.12 
   3 -10   1   16.07    1.18 
  -3  10  -1   15.62    1.22 
   3  10   1   16.75    1.33 
  -3  10  -1   16.08    1.24 
   4 -10   1   17.65    1.27 
  -4 -10  -1   17.93    1.22 
  -4  10  -1   15.97    1.29 
   4  10   1   15.43    1.38 
  -4  10  -1   16.12    1.28 
  -5 -10  -1    0.41    0.29 
   5 -10   1    0.24    0.32 
  -5  10  -1   -0.14    0.31 
  -5  10  -1    0.13    0.19 
  -6 -10  -1    1.56    0.43 
   6 -10   1    1.46    0.46 
  -6  10  -1    1.32    0.45 
  -6  10  -1    1.15    0.28 
  -6  10  -1    0.99    0.45 
   5 -11  -1    3.26    0.77 
  -5 -11   1    3.45    0.64 
  -5  11   1    4.96    0.76 
  -5  11   1    4.90    0.71 
   5  11  -1    5.04    0.84 
   4 -11  -1   21.67    1.55 
  -4 -11   1   21.85    1.57 
  -4  11   1   23.20    1.67 
   4  11  -1   21.70    1.91 
  -4  11   1   21.03    1.68 
  -3 -11   1    4.17    0.57 
   3 -11  -1    4.67    0.58 
  -3  11   1    5.03    0.71 
   3  11  -1    5.92    0.78 
  -3  11   1    4.76    0.69 
   2 -11  -1   13.24    0.96 
  -2 -11   1   13.09    0.98 
   2  11  -1   10.82    1.08 
  -2  11   1   11.38    1.04 
  -2  11   1   11.29    1.05 
   1 -11  -1   21.63    1.44 
  -1 -11   1   22.13    1.42 
  -1 -11   1   20.51    1.50 
   1 -11  -1   21.81    1.49 
   1  11  -1   24.65    1.65 
  -1  11   1   22.99    1.63 
  -1  11   1   21.55    1.61 
   0 -11  -1    2.95    0.34 
   0 -11   1    2.86    0.46 
   0 -11   1    2.94    0.40 
   0 -11  -1    3.19    0.43 
   0  11   1    2.36    0.51 
   0  11  -1    3.04    0.55 
   0  11  -1    2.99    0.51 
   0  11   1    2.20    0.48 
   1 -11   1    0.85    0.31 
  -1 -11  -1    0.69    0.26 
   1 -11   1    0.87    0.28 
  -1 -11  -1    0.69    0.13 
   1  11   1    0.57    0.36 
  -1  11  -1    0.61    0.36 
  -1  11  -1    0.64    0.36 
  -2 -11  -1    0.16    0.22 
   2 -11   1    0.27    0.27 
   2  11   1    0.40    0.34 
  -2  11  -1    0.40    0.32 
  -2  11  -1    0.31    0.34 
  -3 -11  -1   12.68    0.95 
   3 -11   1   12.61    1.02 
   3  11   1   11.35    1.15 
  -3  11  -1   12.05    1.09 
  -3  11  -1   11.73    1.07 
   4 -11   1    8.90    0.91 
  -4 -11  -1    9.93    0.86 
  -4  11  -1   10.25    1.06 
   4  11   1   11.52    1.13 
  -4  11  -1    9.70    0.99 
  -5 -11  -1    3.09    0.50 
   5 -11   1    3.03    0.54 
  -5  11  -1    0.79    0.42 
  -5  11  -1    0.68    0.42 
   4 -12  -1    0.03    0.30 
  -4 -12   1    0.33    0.33 
  -4  12   1    0.22    0.39 
   4  12  -1    0.26    0.41 
  -4  12   1    0.39    0.39 
  -3 -12   1    1.23    0.37 
   3 -12  -1    1.33    0.38 
  -3  12   1    0.24    0.39 
  -3  12   1    0.32    0.38 
   3  12  -1    0.51    0.44 
  -2 -12   1    7.96    0.82 
   2 -12  -1    8.66    0.81 
   2  12  -1    9.48    1.00 
  -2  12   1   10.54    0.99 
  -2  12   1    9.74    0.98 
   1 -12  -1   12.89    0.97 
  -1 -12   1    9.77    0.77 
  -1 -12   1    9.97    0.91 
   1 -12  -1   11.14    0.91 
  -1  12   1   13.60    1.50 
   0 -12  -1   10.06    0.85 
   0 -12   1   10.19    0.88 
   0 -12   1   10.49    0.89 
   0 -12  -1    9.96    0.72 
   0  12  -1   11.70    1.37 
   0  12   1    9.15    0.99 
   0  12  -1   10.09    0.97 
   0  12   1   11.56    1.40 
  -1 -12  -1   26.30    1.68 
   1 -12   1   27.37    1.73 
   1 -12   1   27.30    1.67 
  -1  12  -1   23.55    1.78 
   1  12   1   21.31    2.29 
  -1  12  -1   20.20    2.07 
  -2 -12  -1    4.36    0.59 
   2 -12   1    4.10    0.55 
   2 -12   1    3.97    0.60 
  -2  12  -1    4.02    0.70 
   2  12   1    3.35    0.64 
  -3 -12  -1   17.55    1.20 
   3 -12   1   16.10    1.25 
  -3  12  -1   15.87    1.33 
   3  12   1   13.78    1.38 
  -3  12  -1   15.30    1.30 
  -4 -12  -1    6.16    0.69 
   4 -12   1    6.21    0.77 
  -4  12  -1    6.60    0.86 
  -4  12  -1    6.42    0.85 
   4  12   1    7.01    0.98 
  -3 -13   1    0.89    0.48 
  -3  13   1    0.43    0.39 
  -3  13   1    0.56    0.42 
   3  13  -1    0.54    0.46 
   2 -13  -1    0.62    0.32 
   2 -13  -1    0.88    0.31 
  -2 -13   1    0.74    0.35 
  -2  13   1    2.01    0.56 
   2  13  -1    1.84    0.58 
  -2  13   1    1.65    0.51 
  -1 -13   1    9.33    0.88 
   1 -13  -1   10.82    0.85 
   1  13  -1    8.35    1.00 
  -1  13   1    8.51    0.98 
  -1  13   1    8.63    1.01 
   0 -13   1    2.13    0.46 
   0 -13   1    2.05    0.40 
   0 -13  -1    2.34    0.43 
   0  13   1    2.63    0.52 
   0  13  -1    2.87    0.61 
   1 -13   1    0.24    0.25 
  -1 -13  -1    0.30    0.28 
   1 -13   1    0.43    0.32 
  -1  13  -1    0.29    0.44 
  -1  13  -1    0.54    0.41 
   1  13   1    0.23    0.37 
   2 -13   1    2.40    0.45 
  -2 -13  -1    2.54    0.44 
   2 -13   1    1.63    0.52 
  -2  13  -1    1.98    0.55 
   2  13   1    1.73    0.55 
  -2  13  -1    2.16    0.55 
   3 -13   1    9.05    0.87 
   3 -13   1    9.32    0.92 
  -3 -13  -1    8.68    0.82 
  -3  13  -1    8.48    1.00 
  -3  13  -1    8.85    0.99 
   3  13   1    8.84    1.06 
  -9   0   2   11.23    1.06 
  -8   0   2   14.27    1.15 
  -7   0   2    1.28    0.34 
  -6   0   2    0.09    0.20 
   6   0  -2    0.17    0.23 
  -5   0   2   40.19    2.48 
   5   0  -2   40.66    2.49 
  -4   0   2    7.06    0.53 
   4   0  -2    6.67    0.53 
   3   0  -2   16.48    1.05 
  -3   0   2   17.30    1.04 
   3   0  -2   16.22    1.05 
  -3   0   2   17.24    1.06 
   3   0  -2   16.96    1.05 
  -2   0   2    1.27    0.13 
   2   0  -2    1.35    0.14 
   2   0  -2    1.40    0.14 
  -2   0   2    1.30    0.14 
  -2   0   2    1.32    0.16 
   1   0  -2  288.33   17.83 
  -1   0   2  289.97   17.86 
  -1   0  -2  157.94    9.94 
   1   0   2  143.78    9.78 
   2   0   2  352.51   22.28 
  -3   0  -2   91.72    5.34 
   3   0   2   91.52    5.34 
  -4   0  -2   24.48    1.53 
  -5   0  -2   91.85    5.43 
  -6   0  -2    0.14    0.20 
  -7   0  -2    1.93    0.38 
  -8   0  -2    0.25    0.32 
  -9   0  -2    5.82    0.78 
  -9  -1   2    2.77    0.56 
  -9   1   2    4.15    0.65 
  -8  -1   2    2.67    0.50 
  -8   1   2    2.60    0.49 
  -7  -1   2    7.79    0.79 
  -7   1   2   10.87    0.83 
   6  -1  -2   56.72    3.44 
  -6  -1   2   57.40    3.43 
   6   1  -2   55.59    3.44 
  -6   1   2   55.09    3.42 
  -5  -1   2   22.49    1.50 
   5  -1  -2   22.31    1.50 
   5   1  -2   24.92    1.52 
  -5   1   2   23.28    1.49 
  -4  -1   2  107.24    6.57 
   4  -1  -2  117.21    6.60 
  -4   1   2  113.74    6.59 
   4   1  -2  113.29    6.60 
  -3  -1   2  153.98    9.01 
  -3  -1   2  154.52    8.99 
  -3  -1   2  159.65    8.99 
   3  -1  -2  151.05    9.01 
   3  -1  -2  148.89    9.02 
  -3  -1   2  153.46    9.00 
   3   1  -2  158.73    9.01 
   3   1  -2  153.33    9.00 
  -3   1   2  157.87    8.99 
  -3   1   2  162.22    9.00 
  -2  -1   2  120.72    6.12 
  -2  -1   2  116.93    6.13 
   2  -1  -2  113.04    6.14 
   2  -1  -2  115.99    6.13 
  -2  -1   2  113.85    6.14 
  -2   1   2   88.78    6.12 
   2   1  -2   88.92    6.13 
   2   1  -2   88.70    6.13 
   1   1  -2  154.50    8.91 
   0  -1  -2  297.07   16.27 
   0  -1   2  281.80   17.21 
   0   1   2  262.09   16.17 
   0   1  -2  261.13   17.15 
  -1  -1  -2   37.66    2.32 
   1  -1   2   36.46    2.30 
  -1  -1  -2   38.27    2.28 
   1  -1   2   37.24    2.30 
   1   1   2   43.15    2.28 
  -1   1  -2   40.15    2.30 
   1   1   2   42.69    2.28 
  -2  -1  -2    2.41    0.24 
  -2  -1  -2    2.49    0.20 
   2  -1   2    2.55    0.21 
  -2   1  -2    2.77    0.24 
   2   1   2    2.50    0.20 
  -3  -1  -2   28.47    1.54 
   3  -1   2   26.77    1.54 
  -3   1  -2   22.89    1.53 
   3   1   2   22.93    1.52 
  -4  -1  -2  108.67    5.89 
   4   1   2   93.73    5.86 
  -4   1  -2   99.23    5.89 
  -5   1  -2   10.61    0.78 
  -6  -1  -2   24.26    1.80 
  -6   1  -2   32.39    1.85 
  -7  -1  -2   46.90    3.00 
  -7   1  -2   49.24    3.01 
  -8  -1  -2    6.45    0.74 
  -9  -1  -2    7.10    0.83 
  -9   1  -2    6.43    0.80 
  -9  -2   2    3.37    0.65 
  -9   2   2    5.66    0.72 
  -9   2   2    5.30    0.73 
  -8  -2   2   35.84    2.47 
  -8   2   2   38.21    2.46 
  -8   2   2   39.10    2.47 
  -7  -2   2    1.15    0.34 
  -7   2   2    1.69    0.37 
  -6  -2   2   12.57    0.97 
   6  -2  -2   12.56    0.98 
  -6   2   2   13.43    0.96 
   6   2  -2   13.34    0.99 
  -5  -2   2   25.71    1.60 
   5  -2  -2   26.40    1.60 
  -5   2   2   22.79    1.56 
   5   2  -2   23.95    1.59 
  -4  -2   2   27.85    1.73 
  -4  -2   2   28.03    1.74 
  -4  -2   2   28.11    1.75 
   4  -2  -2   28.81    1.75 
   4   2  -2   27.89    1.75 
  -4   2   2   28.76    1.74 
  -3  -2   2   15.30    0.95 
  -3  -2   2   14.89    0.94 
  -3  -2   2   15.22    0.94 
   3  -2  -2   15.55    0.96 
  -3  -2   2   14.97    0.96 
  -3   2   2   16.04    0.96 
   3   2  -2   14.62    0.95 
   3   2  -2   14.13    0.95 
   3   2  -2   14.20    0.94 
  -3   2   2   15.35    0.95 
  -2  -2   2    4.21    0.27 
   2  -2  -2    4.33    0.28 
   2  -2  -2    4.42    0.28 
   2  -2  -2    4.24    0.29 
  -2  -2   2    4.43    0.31 
  -2  -2   2    4.06    0.27 
  -2  -2   2    4.39    0.30 
   2   2  -2    2.96    0.27 
   2   2  -2    2.90    0.27 
  -2   2   2    3.05    0.26 
   2   2  -2    2.88    0.26 
   2   2  -2    2.97    0.27 
  -2   2   2    3.09    0.26 
  -1  -2   2  333.14   20.64 
   1  -2  -2  339.97   19.82 
  -1   2   2  307.97   19.74 
   1   2  -2  321.94   20.66 
   0  -2   2  252.06   14.85 
   0   2  -2  198.13   14.49 
  -1  -2  -2  109.06    6.40 
   1  -2   2  104.63    6.36 
  -1  -2  -2  117.57    6.35 
  -1  -2  -2  110.09    6.39 
  -2  -2  -2  215.70   12.95 
   2  -2   2  219.77   12.93 
   2   2   2  236.22   12.89 
  -3  -2  -2   68.80    3.87 
  -3   2  -2   65.09    3.87 
   3   2   2   64.55    3.85 
   3   2   2   65.01    3.83 
  -4  -2  -2   54.39    3.08 
  -4   2  -2   53.19    3.09 
   4   2   2   49.81    3.05 
   4   2   2   48.81    3.03 
  -5  -2  -2   50.80    2.98 
  -5   2  -2   47.33    2.98 
  -6  -2  -2    3.96    0.47 
  -6   2  -2    4.16    0.49 
  -7  -2  -2    2.74    0.46 
  -8  -2  -2    2.50    0.47 
  -8   2  -2    2.25    0.50 
  -9  -2  -2    4.99    0.73 
  -9   2  -2    4.48    0.71 
  -9   2  -2    4.59    0.70 
  -9  -3   2    9.68    1.00 
  -9   3   2   10.11    0.99 
  -9   3   2    9.38    0.93 
  -8  -3   2    2.01    0.58 
  -8   3   2    2.57    0.49 
  -7   3   2   11.42    0.95 
  -7   3   2   12.07    0.95 
   6  -3  -2   74.52    4.48 
  -6  -3   2   73.01    4.48 
  -6   3   2   77.73    4.58 
  -6   3   2   72.00    4.45 
  -5  -3   2   30.36    1.87 
   5  -3  -2   29.85    1.85 
  -5   3   2   28.89    1.84 
  -5   3   2   28.54    1.83 
   5   3  -2   28.29    1.85 
  -4  -3   2   48.45    2.77 
   4  -3  -2   47.89    2.74 
  -4  -3   2   47.48    2.73 
  -4   3   2   44.49    2.74 
   4   3  -2   42.49    2.73 
  -4   3   2   42.66    2.72 
  -3  -3   2  125.87    7.51 
  -3  -3   2  125.30    7.48 
   3  -3  -2  132.59    7.49 
  -3  -3   2  124.27    7.48 
  -3  -3   2  123.22    7.47 
  -3   3   2  132.53    7.50 
   3   3  -2  131.89    7.49 
  -3   3   2  135.30    7.48 
   3   3  -2  124.93    7.48 
   3   3  -2  133.48    7.52 
   2   3  -2   73.08    4.23 
   2   3  -2   71.60    4.21 
  -2   3   2   70.26    4.22 
  -2   3   2   73.66    4.19 
  -2   3   2   73.98    4.23 
   2   3  -2   75.90    4.25 
   2   3  -2   73.06    4.20 
  -2   3   2   65.88    4.19 
  -1  -3   2  119.33    6.69 
  -1  -3   2  117.32    6.73 
   1  -3  -2  123.67    6.72 
  -1  -3   2  114.78    6.71 
  -1  -3   2  117.93    6.72 
  -1  -3   2  118.19    6.72 
   1  -3  -2  127.02    6.71 
   1  -3  -2  122.28    6.69 
   1   3  -2  109.03    6.71 
   1   3  -2  114.43    6.69 
   1   3  -2  111.69    6.71 
  -1   3   2  110.87    6.66 
   1   3  -2  111.56    6.72 
  -1   3   2  109.82    6.69 
  -1   3   2  111.71    6.72 
   0  -3  -2   42.31    2.58 
   0  -3   2   41.38    2.61 
   0  -3  -2   40.63    2.62 
   0  -3   2   40.17    2.60 
   0  -3  -2   41.34    2.61 
   0  -3   2   40.13    2.61 
   0  -3   2   41.51    2.62 
   0   3   2   49.12    2.63 
   0   3  -2   47.19    2.62 
   0   3  -2   50.08    2.62 
   0   3   2   50.68    2.63 
   0   3  -2   50.30    2.63 
   1  -3   2    2.96    0.25 
  -1  -3  -2    3.26    0.30 
  -1  -3  -2    3.03    0.23 
   1  -3   2    2.93    0.27 
  -1   3  -2    3.95    0.27 
   1   3   2    3.87    0.30 
  -1   3  -2    3.93    0.27 
   1   3   2    4.27    0.30 
  -2  -3  -2   63.45    3.61 
  -2  -3  -2   60.65    3.66 
  -2  -3  -2   59.16    3.65 
  -2   3  -2   61.39    3.63 
   2   3   2   65.12    3.69 
   2   3   2   62.58    3.59 
   2   3   2   63.71    3.57 
  -2   3  -2   60.25    3.62 
  -2   3  -2   61.29    3.62 
  -3  -3  -2    0.56    0.13 
  -3   3  -2    0.25    0.12 
   3   3   2    0.40    0.10 
  -3   3  -2    0.47    0.13 
   3   3   2    0.32    0.08 
  -4  -3  -2   34.75    2.00 
  -4   3  -2   32.29    1.98 
   4   3   2   30.67    1.96 
  -4   3  -2   33.95    2.01 
   4   3   2   31.53    1.94 
  -5  -3  -2   21.67    1.53 
  -5   3  -2   24.85    1.56 
  -5   3  -2   25.90    1.55 
  -6  -3  -2   28.33    1.91 
  -6   3  -2   30.91    1.91 
  -6   3  -2   30.01    2.07 
  -7  -3  -2   43.84    2.72 
  -7   3  -2   43.32    2.69 
  -7   3  -2   41.54    2.71 
  -8  -3  -2    5.41    0.67 
  -8   3  -2    4.40    0.63 
  -8   3  -2    4.47    0.70 
  -9  -3  -2   13.36    1.13 
  -9   3  -2   11.42    1.09 
  -9   3  -2   11.43    1.06 
  -9  -4   2    4.02    0.66 
  -9   4   2    3.23    0.57 
  -9   4   2    3.56    0.64 
  -8  -4   2   23.18    1.62 
  -8   4   2   20.54    1.58 
  -7   4   2    2.95    0.48 
  -7   4   2    2.94    0.45 
  -6   4   2    9.99    0.79 
  -6   4   2   10.20    0.83 
   5  -4  -2    5.01    0.49 
  -5  -4   2    4.97    0.50 
  -5   4   2    4.31    0.47 
  -5   4   2    4.73    0.45 
   5   4  -2    4.66    0.49 
   4  -4  -2   15.61    1.02 
  -4  -4   2   15.48    1.01 
  -4  -4   2   15.42    1.04 
  -4   4   2   15.82    1.01 
   4   4  -2   15.26    1.03 
  -4   4   2   15.40    1.04 
  -4   4   2   15.18    1.00 
  -3   4   2    0.74    0.16 
   3   4  -2    0.58    0.18 
  -3   4   2    0.63    0.17 
  -3   4   2    0.73    0.14 
   3   4  -2    0.66    0.14 
   3   4  -2    0.60    0.14 
   2  -4  -2   10.49    0.78 
  -2  -4   2   11.18    0.74 
  -2  -4   2   11.22    0.80 
  -2  -4   2   10.51    0.77 
   2  -4  -2   11.61    0.77 
   2  -4  -2   10.78    0.76 
  -2  -4   2    9.99    0.76 
  -2   4   2   13.70    0.81 
  -2   4   2   13.79    0.76 
   2   4  -2   12.84    0.76 
   2   4  -2   13.00    0.78 
  -2   4   2   14.11    0.76 
   2   4  -2   12.68    0.79 
  -2   4   2   13.80    0.79 
   2   4  -2   12.15    0.80 
  -1  -4   2  153.64    9.08 
   1  -4  -2  154.74    9.08 
  -1  -4   2  161.29    9.11 
  -1  -4   2  156.58    9.09 
  -1  -4   2  150.68    9.09 
   1  -4  -2  154.23    9.04 
   1   4  -2  162.13    9.04 
   1   4  -2  157.49    9.08 
  -1   4   2  161.32    9.10 
   0  -4  -2   64.09    3.91 
   0  -4   2   63.07    3.95 
   0  -4   2   64.42    3.96 
   0  -4  -2   64.51    3.97 
   0  -4  -2   61.30    3.96 
   0  -4   2   65.15    3.96 
   0  -4   2   62.35    3.95 
   0   4  -2   74.69    3.91 
   0   4  -2   72.93    3.96 
   0   4  -2   72.09    3.97 
   0   4   2   73.50    3.98 
   0   4  -2   74.42    3.97 
  -1  -4  -2   79.51    4.42 
  -1  -4  -2   81.34    4.36 
   1  -4   2   77.49    4.41 
  -1  -4  -2   75.87    4.42 
   1  -4   2   74.29    4.40 
  -1   4  -2   71.90    4.39 
   1   4   2   74.07    4.43 
  -1   4  -2   72.64    4.41 
   1   4   2   73.25    4.43 
  -1   4  -2   72.83    4.40 
   2  -4   2  314.33   21.42 
  -2  -4  -2  324.88   20.07 
  -2   4  -2  311.69   21.44 
   2   4   2  309.34   19.91 
  -3  -4  -2   18.63    1.14 
   3   4   2   17.93    1.23 
  -3   4  -2   18.29    1.16 
   3   4   2   17.88    1.08 
  -3   4  -2   18.19    1.15 
   3   4   2   18.26    1.10 
  -4  -4  -2   36.83    2.34 
   4   4   2   38.19    2.30 
  -4   4  -2   39.93    2.35 
  -4   4  -2   38.86    2.36 
   4   4   2   38.98    2.28 
  -5  -4  -2   56.27    3.36 
  -5   4  -2   56.27    3.36 
   5   4   2   53.30    3.29 
  -5   4  -2   57.32    3.38 
  -6  -4  -2    0.55    0.25 
  -6   4  -2    0.11    0.23 
  -6   4  -2    0.08    0.22 
  -7  -4  -2    3.30    0.52 
  -7   4  -2    3.83    0.54 
  -7   4  -2    3.53    0.53 
  -8  -4  -2    4.82    0.96 
  -8   4  -2    3.14    0.68 
  -8   4  -2    3.57    0.56 
  -9  -4  -2    3.37    0.59 
  -9   4  -2    4.03    0.64 
  -9   4  -2    4.08    0.65 
  -8  -5   2    0.23    0.35 
  -8   5   2    0.48    0.32 
  -8   5   2    0.64    0.38 
  -8   5   2    0.76    0.30 
  -7   5   2    4.72    0.57 
  -7   5   2    4.76    0.54 
  -7   5   2    5.16    0.66 
  -6  -5   2   21.90    1.61 
  -6   5   2   24.65    1.55 
  -6   5   2   24.45    1.62 
   5  -5  -2   26.75    1.78 
  -5  -5   2   29.14    1.92 
  -5   5   2   28.01    1.76 
  -5   5   2   28.35    1.81 
  -5   5   2   27.90    1.76 
   4  -5  -2   39.90    2.30 
  -4  -5   2   40.33    2.34 
  -4  -5   2   39.60    2.28 
   4   5  -2   36.96    2.29 
  -4   5   2   35.16    2.28 
   4   5  -2   37.45    2.36 
  -4   5   2   36.10    2.32 
  -4   5   2   35.62    2.26 
  -3  -5   2  206.01   11.62 
  -3  -5   2  206.01   11.58 
   3  -5  -2  198.27   11.57 
  -3  -5   2  197.96   11.55 
   3   5  -2  208.30   11.64 
  -3   5   2  193.59   11.55 
  -3   5   2  198.44   11.62 
  -3   5   2  195.57   11.59 
   3   5  -2  209.29   11.57 
   3   5  -2  186.79   11.57 
  -2  -5   2   47.38    2.67 
  -2  -5   2   49.25    2.63 
  -2  -5   2   46.65    2.70 
   2  -5  -2   46.72    2.66 
  -2   5   2   42.28    2.63 
  -2   5   2   43.58    2.70 
   2   5  -2   41.54    2.67 
   2   5  -2   44.31    2.64 
   2   5  -2   43.49    2.70 
  -2   5   2   43.66    2.68 
  -2   5   2   45.38    2.68 
  -1  -5   2   52.67    3.16 
  -1  -5   2   54.59    3.18 
   1  -5  -2   58.41    3.11 
   1   5  -2   53.24    3.18 
  -1   5   2   53.03    3.19 
   1   5  -2   51.51    3.15 
  -1   5   2   53.81    3.18 
   1   5  -2   50.43    3.10 
   0  -5   2   77.01    4.64 
   0  -5  -2   73.54    4.57 
   0  -5  -2   79.36    4.59 
   0  -5  -2   76.59    4.58 
   0  -5   2   73.65    4.63 
   0  -5   2   78.32    4.63 
   0   5   2   82.09    4.67 
   0   5   2   84.26    4.67 
   0   5  -2   78.88    4.62 
   0   5  -2   79.08    4.56 
   0   5  -2   85.52    4.65 
   0   5  -2   82.86    4.66 
  -1  -5  -2    3.63    0.26 
  -1  -5  -2    3.65    0.20 
  -1  -5  -2    3.64    0.20 
   1  -5   2    3.25    0.30 
   1   5   2    3.03    0.33 
  -1   5  -2    2.83    0.31 
  -1   5  -2    3.03    0.23 
  -1   5  -2    2.88    0.28 
  -1   5  -2    3.09    0.31 
   2  -5   2    9.49    0.67 
  -2  -5  -2    9.33    0.62 
  -2  -5  -2    9.21    0.61 
  -2   5  -2    9.49    0.60 
   2   5   2    9.03    0.71 
  -2   5  -2    9.37    0.65 
  -2   5  -2    9.64    0.67 
  -2   5  -2   10.15    0.68 
  -3  -5  -2    5.64    0.43 
   3  -5   2    5.68    0.48 
  -3   5  -2    5.53    0.46 
   3   5   2    5.41    0.54 
  -3   5  -2    5.42    0.43 
  -3   5  -2    5.67    0.47 
   3   5   2    5.81    0.38 
  -4  -5  -2   50.88    3.05 
   4   5   2   50.21    3.00 
   4   5   2   50.09    2.97 
  -4   5  -2   51.03    3.07 
  -4   5  -2   52.46    3.08 
  -5   5  -2   10.17    0.79 
   5   5   2    9.15    0.71 
   5   5   2   10.30    0.70 
  -5   5  -2   11.20    0.80 
  -6   5  -2   12.53    0.98 
  -6   5  -2   12.98    0.98 
  -7  -5  -2   33.85    2.23 
  -7   5  -2   34.68    2.24 
  -7   5  -2   34.13    2.24 
  -8  -5  -2    1.73    0.46 
  -8   5  -2    1.85    0.45 
  -8   5  -2    1.46    0.44 
  -8  -6   2   13.29    1.18 
  -8   6   2   13.39    1.05 
  -8   6   2   13.69    1.19 
  -8   6   2   13.28    1.06 
  -7  -6   2    1.21    0.40 
  -7   6   2    0.87    0.38 
  -7   6   2    0.88    0.30 
  -7   6   2    0.69    0.29 
  -6   6   2    1.38    0.30 
  -6   6   2    1.06    0.28 
  -6   6   2    1.49    0.39 
  -5  -6   2   22.21    1.48 
  -5   6   2   21.00    1.49 
  -5   6   2   21.54    1.39 
  -5   6   2   22.36    1.50 
  -4  -6   2    8.36    0.68 
   4  -6  -2    8.40    0.62 
  -4  -6   2    8.13    0.60 
   4   6  -2    8.30    0.73 
  -4   6   2    8.08    0.59 
  -4   6   2    7.85    0.64 
  -4   6   2    7.41    0.68 
  -3  -6   2    5.21    0.42 
  -3  -6   2    5.12    0.38 
  -3  -6   2    5.14    0.48 
   3  -6  -2    5.51    0.41 
   3   6  -2    5.04    0.40 
  -3   6   2    4.93    0.46 
   3   6  -2    5.32    0.52 
  -3   6   2    5.11    0.50 
  -3   6   2    5.02    0.38 
   2  -6  -2   11.01    0.69 
  -2  -6   2   10.25    0.67 
  -2  -6   2   11.83    0.79 
  -2  -6   2   11.04    0.74 
  -1  -6   2   91.94    5.11 
   1  -6  -2   87.95    5.05 
  -1  -6   2   88.16    5.08 
   1  -6  -2   90.89    5.01 
  -1   6   2   84.08    5.12 
   1   6  -2   86.00    5.12 
   1   6  -2   84.20    5.07 
  -1   6   2   86.31    5.11 
   1   6  -2   81.20    5.11 
   0  -6  -2   36.20    2.15 
   0  -6  -2   36.82    2.10 
   0  -6   2   37.06    2.21 
   0  -6   2   36.30    2.19 
   0  -6  -2   35.75    2.14 
   0   6   2   35.09    2.23 
   0   6  -2   37.59    2.22 
   0   6   2   35.54    2.23 
   0   6  -2   36.52    2.22 
   1  -6   2   44.28    2.75 
  -1  -6  -2   43.84    2.67 
  -1  -6  -2   46.42    2.66 
  -1  -6  -2   45.04    2.71 
   1   6   2   46.87    2.80 
   1   6   2   46.50    2.80 
  -1   6  -2   46.45    2.76 
  -1   6  -2   48.22    2.78 
  -2  -6  -2  133.35    7.33 
   2  -6   2  131.18    7.37 
  -2  -6  -2  121.89    7.29 
  -2   6  -2  128.51    7.37 
   2   6   2  124.16    7.42 
  -2   6  -2  120.93    7.37 
  -2   6  -2  124.18    7.34 
  -2   6  -2  124.64    7.28 
   3  -6   2   40.21    2.40 
  -3  -6  -2   39.71    2.35 
  -3   6  -2   40.65    2.41 
  -3   6  -2   37.68    2.37 
  -3   6  -2   38.59    2.41 
  -3   6  -2   37.18    2.32 
   3   6   2   39.82    2.48 
   4  -6   2   19.84    1.47 
  -4  -6  -2   19.64    1.43 
  -4   6  -2   23.76    1.46 
   4   6   2   24.21    1.35 
  -4   6  -2   25.07    1.49 
  -5  -6  -2   46.25    2.69 
  -5   6  -2   44.39    2.73 
  -5   6  -2   43.69    2.70 
   5   6   2   41.12    2.53 
   5   6   2   41.98    2.58 
  -6  -6  -2    0.29    0.31 
  -6   6  -2    0.73    0.31 
  -6   6  -2    0.35    0.27 
   7  -6   2    1.29    0.41 
  -7  -6  -2    2.02    0.42 
  -7   6  -2    2.59    0.44 
  -7   6  -2    1.92    0.43 
  -8  -6  -2    2.40    0.50 
   8  -6   2    2.20    0.53 
  -8   6  -2    2.58    0.52 
  -8   6  -2    2.62    0.49 
  -8  -7   2    3.60    0.64 
  -8   7   2    2.94    0.47 
  -8   7   2    2.83    0.59 
  -8   7   2    3.22    0.51 
  -7  -7   2    5.39    0.72 
  -7   7   2    6.26    0.79 
  -7   7   2    6.01    0.65 
  -7   7   2    5.49    0.60 
  -6  -7   2   56.23    3.45 
  -6   7   2   55.97    3.46 
  -6   7   2   52.78    3.33 
  -6   7   2   56.11    3.40 
  -5   7   2   10.16    0.88 
  -5   7   2    9.84    0.80 
  -4  -7   2   37.14    2.25 
  -4  -7   2   38.40    2.35 
  -4   7   2   37.21    2.36 
   4   7  -2   37.68    2.61 
  -4   7   2   35.86    2.23 
  -3  -7   2   40.21    2.70 
  -3  -7   2   38.75    2.75 
  -3   7   2   50.13    2.78 
  -3   7   2   44.21    2.85 
   3   7  -2   49.68    2.84 
  -3   7   2   47.87    2.66 
  -3   7   2   46.26    2.68 
  -2   7   2    5.24    0.53 
   2   7  -2    4.54    0.39 
   2   7  -2    5.39    0.52 
  -2   7   2    4.54    0.47 
   1  -7  -2   16.12    1.00 
  -1  -7   2   16.38    1.03 
  -1  -7   2   16.61    1.06 
  -1   7   2   15.30    1.09 
   1   7  -2   14.64    0.99 
   1   7  -2   14.73    1.07 
   1   7  -2   15.74    1.09 
  -1   7   2   15.76    1.07 
   0  -7  -2   54.98    3.20 
   0  -7   2   54.85    3.25 
   0  -7   2   55.23    3.24 
   0   7  -2   56.60    3.28 
   0   7  -2   52.24    3.26 
   0   7   2   53.70    3.28 
   0   7   2   51.56    3.28 
  -1  -7  -2    3.90    0.26 
  -1  -7  -2    4.27    0.28 
  -1  -7  -2    3.92    0.27 
  -1  -7  -2    4.11    0.35 
  -1  -7  -2    3.85    0.26 
   1  -7   2    4.14    0.41 
   1   7   2    5.45    0.48 
   1   7   2    5.28    0.49 
  -2  -7  -2    7.82    0.56 
  -2  -7  -2    7.77    0.49 
   2  -7   2    7.81    0.61 
  -2   7  -2    7.10    0.62 
  -2   7  -2    7.58    0.56 
  -2   7  -2    8.17    0.65 
  -2   7  -2    6.91    0.47 
   2   7   2    7.53    0.67 
  -3   7  -2    1.68    0.19 
  -3   7  -2    1.51    0.25 
  -3   7  -2    1.81    0.32 
   3   7   2    1.71    0.38 
  -3   7  -2    1.48    0.28 
   4  -7   2   27.37    1.71 
  -4  -7  -2   26.89    1.65 
  -4   7  -2   25.86    1.70 
  -4   7  -2   25.58    1.65 
  -4   7  -2   23.97    1.69 
   4   7   2   24.90    1.78 
   5  -7   2    5.42    0.60 
  -5  -7  -2    5.45    0.54 
  -5   7  -2    4.51    0.52 
  -5   7  -2    4.59    0.58 
  -5   7  -2    4.87    0.59 
  -6  -7  -2    7.30    0.70 
   6  -7   2    6.70    0.77 
  -6   7  -2    7.59    0.77 
  -6   7  -2    7.71    0.76 
  -6   7  -2    7.27    0.70 
  -7  -7  -2   28.39    1.87 
   7  -7   2   29.40    1.94 
  -7   7  -2   23.51    1.94 
  -7   7  -2   27.27    1.88 
   8  -7   2    7.86    0.98 
  -8  -7  -2    7.61    0.88 
  -8   7  -2   10.05    0.90 
  -8   7  -2   10.70    1.00 
  -8   7  -2   10.25    0.95 
  -7  -8   2    0.63    0.40 
  -7   8   2    0.76    0.27 
  -7   8   2    0.79    0.37 
  -7   8   2    0.51    0.39 
  -6  -8   2    9.18    0.87 
  -6   8   2    8.95    0.69 
  -6   8   2    8.48    0.81 
  -6   8   2    8.65    0.91 
  -5  -8   2    6.41    0.63 
  -5   8   2    5.02    0.58 
  -5   8   2    4.40    0.59 
  -5   8   2    4.30    0.59 
  -4  -8   2    5.19    0.57 
  -4  -8   2    5.10    0.44 
  -4   8   2    4.40    0.54 
  -4   8   2    5.01    0.39 
   4   8  -2    4.85    0.65 
  -4   8   2    5.69    0.64 
  -3  -8   2    1.22    0.22 
  -3  -8   2    1.04    0.28 
  -3   8   2    0.82    0.30 
   3   8  -2    0.96    0.31 
  -3   8   2    1.15    0.30 
  -2  -8   2    7.64    0.55 
   2  -8  -2    7.39    0.56 
  -2  -8   2    7.58    0.62 
   2   8  -2    6.29    0.51 
  -2   8   2    6.58    0.66 
  -1  -8   2   85.83    4.85 
  -1  -8   2   84.58    4.88 
   1  -8  -2   84.51    4.82 
   1   8  -2   80.81    4.91 
  -1   8   2   74.48    4.89 
   0  -8  -2   17.34    1.07 
   0  -8   2   17.61    1.14 
   0  -8   2   17.73    1.11 
   0   8   2   15.38    1.18 
   0   8  -2   16.62    1.17 
   0   8   2   15.95    1.18 
   0   8  -2   15.90    1.16 
  -1  -8  -2   44.08    2.64 
  -1  -8  -2   45.14    2.65 
   1  -8   2   44.09    2.77 
  -1  -8  -2   44.00    2.72 
  -1   8  -2   50.64    2.82 
  -2  -8  -2   40.29    2.54 
  -2  -8  -2   43.48    2.64 
   2  -8   2   41.95    2.69 
   2   8   2   43.89    2.77 
  -2   8  -2   47.37    2.73 
  -2   8  -2   46.34    2.72 
  -3  -8  -2   10.53    0.77 
  -3  -8  -2    9.82    0.68 
   3  -8   2   11.93    1.14 
   3   8   2   11.51    0.94 
  -3   8  -2   10.14    0.75 
  -3   8  -2   10.89    0.87 
  -4  -8  -2   36.22    2.29 
  -4   8  -2   38.17    2.37 
  -4   8  -2   35.81    2.28 
   4   8   2   37.52    2.47 
  -5  -8  -2   16.35    1.11 
   5  -8   2   16.82    1.19 
  -5   8  -2   14.18    1.16 
  -5   8  -2   14.13    1.08 
  -5   8  -2   14.57    1.16 
   6  -8   2    0.96    0.37 
  -6  -8  -2    0.70    0.31 
  -6   8  -2    0.96    0.36 
  -6   8  -2    1.03    0.33 
  -6   8  -2    1.13    0.39 
  -7  -8  -2    1.40    0.46 
   7  -8   2    1.36    0.47 
  -7   8  -2    1.53    0.39 
  -7   8  -2    1.71    0.46 
  -7   8  -2    1.62    0.46 
  -7   9   2    1.62    0.28 
  -7   9   2    1.36    0.48 
  -7   9   2    1.10    0.38 
  -6  -9   2   16.51    1.31 
  -6   9   2   18.12    1.38 
  -6   9   2   15.87    1.07 
  -6   9   2   16.53    1.26 
  -5  -9   2    6.43    0.69 
   5   9  -2    5.11    0.76 
  -5   9   2    5.52    0.65 
  -5   9   2    5.41    0.75 
   4  -9  -2   12.88    1.00 
  -4  -9   2   13.19    1.09 
  -4  -9   2   13.54    0.90 
  -4   9   2   13.01    1.05 
   4   9  -2   13.76    1.15 
  -4   9   2   14.20    1.12 
  -3  -9   2   57.32    3.51 
   3  -9  -2   59.50    3.48 
  -3  -9   2   58.05    3.40 
  -3   9   2   55.21    3.51 
   3   9  -2   56.59    3.58 
  -3   9   2   56.79    3.55 
  -2  -9   2   17.51    1.23 
  -2  -9   2   17.88    1.32 
   2  -9  -2   18.56    1.27 
   2   9  -2   24.01    1.45 
  -1  -9   2   33.37    2.09 
  -1  -9   2   34.71    2.04 
   1  -9  -2   33.60    2.03 
  -1   9   2   30.78    2.11 
   1   9  -2   32.08    2.14 
  -1   9   2   32.27    2.14 
   0  -9   2   22.53    1.50 
   0  -9  -2   21.73    1.42 
   0  -9  -2   23.06    1.43 
   0  -9   2   23.54    1.54 
   0  -9  -2   22.94    1.48 
   0   9   2   23.47    1.60 
   0   9   2   24.50    1.62 
   0   9  -2   25.57    1.61 
   0   9  -2   23.48    1.58 
  -1  -9  -2    1.26    0.23 
  -1  -9  -2    1.33    0.13 
   1  -9   2    1.16    0.26 
   1  -9   2    1.28    0.30 
  -1  -9  -2    1.26    0.13 
   1   9   2    1.59    0.36 
   1   9   2    1.10    0.33 
  -1   9  -2    1.72    0.35 
  -1   9  -2    1.76    0.38 
  -2  -9  -2    0.88    0.23 
   2   9   2    0.84    0.35 
  -2   9  -2    0.89    0.30 
  -2   9  -2    0.91    0.31 
   3  -9   2    0.67    0.28 
  -3  -9  -2    0.76    0.23 
  -3   9  -2    0.25    0.06 
  -3   9  -2    0.23    0.26 
  -3   9  -2    0.08    0.25 
   3   9   2    0.09    0.32 
   4  -9   2   38.16    2.48 
  -4  -9  -2   37.26    2.40 
  -4   9  -2   38.49    2.38 
   4   9   2   39.97    2.62 
  -4   9  -2   39.13    2.50 
  -4   9  -2   39.28    2.50 
   5  -9   2    5.18    0.72 
  -5  -9  -2    6.32    0.96 
  -5   9  -2    7.23    0.62 
  -5   9  -2    6.87    0.78 
  -5   9  -2    7.05    0.76 
  -6  -9  -2    5.69    0.66 
   6  -9   2    5.32    0.76 
  -6   9  -2    5.62    0.60 
  -6   9  -2    5.43    0.74 
  -6   9  -2    5.57    0.76 
   7  -9   2    8.35    0.97 
  -7  -9  -2    8.65    0.87 
  -7   9  -2    8.21    0.78 
  -7   9  -2    9.56    0.95 
  -7   9  -2    8.09    0.93 
  -6 -10   2    0.43    0.39 
   6 -10  -2    0.54    0.37 
  -6  10   2    1.28    0.42 
  -6  10   2    1.54    0.50 
  -5 -10   2    2.58    0.49 
   5 -10  -2    2.41    0.47 
  -5  10   2    2.42    0.49 
   5  10  -2    1.37    0.48 
  -5  10   2    1.76    0.50 
   4 -10  -2    2.95    0.47 
  -4 -10   2    3.06    0.50 
  -4 -10   2    2.77    0.29 
   4  10  -2    2.67    0.55 
  -4  10   2    2.92    0.49 
  -4  10   2    3.46    0.60 
   3 -10  -2    1.31    0.37 
  -3 -10   2    1.30    0.46 
  -3 -10   2    1.24    0.22 
  -3  10   2    0.35    0.32 
  -3  10   2    0.64    0.34 
   3  10  -2    0.83    0.38 
  -2 -10   2    0.44    0.26 
   2 -10  -2    0.38    0.22 
  -2  10   2    1.10    0.33 
   2  10  -2    1.65    0.44 
  -2  10   2    0.94    0.35 
   1 -10  -2   22.80    1.57 
  -1 -10   2   24.09    1.58 
  -1 -10   2   23.29    1.67 
  -1  10   2   25.33    1.72 
  -1  10   2   26.51    1.73 
   1  10  -2   26.47    1.75 
   0 -10  -2   13.65    0.92 
   0 -10  -2   13.38    0.85 
   0 -10   2   12.81    1.12 
   0 -10   2   13.13    0.94 
   0  10  -2   12.39    1.02 
   0  10   2   12.59    1.08 
   0  10  -2   11.94    1.04 
   0  10   2   12.39    1.05 
   1 -10   2   19.57    1.33 
   1 -10   2   18.40    1.29 
  -1 -10  -2   18.56    1.25 
  -1  10  -2   19.68    1.38 
   1  10   2   18.31    1.40 
   1  10   2   18.95    1.39 
  -1  10  -2   18.84    1.38 
  -2 -10  -2   60.09    3.42 
   2 -10   2   57.64    3.48 
  -2  10  -2   54.00    3.49 
   2  10   2   53.03    3.56 
  -2  10  -2   56.90    3.52 
   3 -10   2    9.16    0.82 
  -3 -10  -2    9.55    0.74 
  -3  10  -2    8.24    0.85 
  -3  10  -2    8.66    0.85 
   3  10   2    9.08    0.95 
  -4 -10  -2    7.48    0.68 
   4 -10   2    7.30    0.77 
  -4  10  -2    7.53    0.81 
  -4  10  -2    7.93    0.82 
   4  10   2    7.17    0.90 
  -5 -10  -2   12.16    1.01 
   5 -10   2   12.52    1.21 
  -5  10  -2   13.21    0.94 
  -5  10  -2   11.92    1.23 
  -5  10  -2   13.62    1.14 
  -6 -10  -2   -0.08    0.28 
   6 -10   2   -0.07    0.33 
  -6  10  -2    0.00    0.23 
  -6  10  -2    0.24    0.38 
  -6  10  -2    0.05    0.38 
   5 -11  -2    8.21    0.99 
  -5 -11   2    7.13    0.83 
   5  11  -2    7.69    0.99 
  -5  11   2    8.46    0.88 
  -5  11   2    8.83    0.95 
  -4 -11   2    5.42    0.68 
   4 -11  -2    5.99    0.65 
  -4  11   2    4.35    0.86 
  -4  11   2    3.38    0.64 
  -3 -11   2   45.60    2.69 
  -3 -11   2   41.54    2.48 
   3  11  -2   40.53    2.76 
  -3  11   2   37.76    2.68 
  -3  11   2   42.19    2.74 
  -2 -11   2    3.29    0.52 
  -2 -11   2    3.17    0.37 
   2  11  -2    3.09    0.55 
  -2  11   2    2.88    0.53 
  -2  11   2    3.98    0.61 
   1 -11  -2    2.19    0.32 
  -1 -11   2    1.36    0.50 
  -1 -11   2    2.31    0.34 
   1 -11  -2    2.23    0.35 
  -1  11   2    0.27    0.34 
   1  11  -2    0.65    0.39 
   0 -11  -2   12.12    0.88 
   0 -11  -2   11.45    0.77 
   0 -11   2   11.35    0.89 
   0  11   2   11.41    1.03 
   0  11   2   13.41    1.08 
   0  11  -2   11.19    0.99 
   0  11  -2   10.86    1.04 
   1 -11   2    2.13    0.43 
  -1 -11  -2    2.43    0.39 
   1 -11   2    2.27    0.43 
  -1  11  -2    3.12    0.53 
   1  11   2    3.36    0.59 
  -1  11  -2    3.07    0.54 
  -2 -11  -2    0.06    0.20 
   2 -11   2    0.13    0.27 
   2 -11   2    0.21    0.26 
  -2  11  -2    0.34    0.34 
   2  11   2   -0.01    0.31 
  -2  11  -2    0.34    0.31 
   3 -11   2    0.72    0.35 
   3  11   2    0.30    0.40 
  -3  11  -2    0.14    0.31 
  -3  11  -2    0.37    0.36 
  -4 -11  -2    4.47    0.54 
   4 -11   2    4.80    0.66 
   4  11   2    2.87    0.65 
  -4  11  -2    3.89    0.66 
   5 -11   2    1.71    0.48 
  -5 -11  -2    2.07    0.44 
  -5  11  -2    2.89    0.57 
  -5  11  -2    2.66    0.57 
  -4 -12   2    2.73    0.54 
   4 -12  -2    2.66    0.49 
   4  12  -2    2.65    0.63 
  -4  12   2    2.41    0.53 
  -4  12   2    2.58    0.58 
   3 -12  -2    0.75    0.32 
  -3 -12   2    0.43    0.33 
  -3  12   2    0.39    0.36 
  -3  12   2    0.45    0.37 
   3  12  -2    0.68    0.43 
  -2 -12   2    6.78    0.75 
   2 -12  -2    7.63    0.87 
  -2 -12   2    6.84    0.58 
  -2  12   2    7.03    0.88 
  -2  12   2    8.54    0.91 
   2  12  -2    7.53    0.90 
  -1 -12   2   13.07    1.03 
   1 -12  -2   11.99    0.87 
   1 -12  -2   12.68    0.96 
  -1 -12   2   12.28    0.94 
  -1  12   2   11.73    1.17 
   1  12  -2   11.58    1.64 
   0 -12  -2    1.97    0.42 
   0 -12   2    2.69    0.41 
   0 -12   2    2.08    0.44 
   1 -12   2   12.57    1.07 
  -1 -12  -2   13.33    1.05 
   1 -12   2   13.10    1.02 
  -1  12  -2   14.07    1.18 
   1  12   2   13.42    1.21 
  -1  12  -2   12.52    1.13 
   2 -12   2   31.55    2.04 
   2 -12   2   31.52    2.08 
  -2 -12  -2   30.32    1.98 
  -2  12  -2   34.20    2.50 
  -2  12  -2   29.60    2.13 
   2  12   2   27.58    2.17 
   3 -12   2    0.81    0.39 
  -3 -12  -2    1.24    0.39 
  -3  12  -2    2.12    0.50 
  -3  12  -2    2.15    0.52 
   3  12   2    2.06    0.60 
  -4 -12  -2    5.73    0.66 
   4 -12   2    6.79    0.81 
  -4  12  -2    6.87    0.84 
   4  12   2    6.05    0.95 
  -4  12  -2    6.68    0.87 
  -3 -13   2    8.37    0.91 
   3 -13  -2    8.35    0.85 
  -3  13   2    9.97    1.06 
   3  13  -2   11.22    1.14 
  -3  13   2   10.80    1.07 
  -2 -13   2    3.40    0.79 
   2 -13  -2    2.70    0.42 
   2 -13  -2    3.10    0.48 
   2  13  -2    2.45    0.62 
  -2  13   2    2.49    0.59 
  -2  13   2    2.33    0.57 
  -1 -13   2    4.08    0.65 
   1 -13  -2    4.44    0.58 
  -1  13   2    6.95    0.85 
  -1  13   2    5.90    0.82 
   1  13  -2    6.88    0.85 
   0 -13   2   10.67    0.97 
   0 -13  -2   10.75    0.87 
   0 -13   2   10.03    0.84 
   0  13  -2   10.82    1.11 
   0  13   2   11.11    1.08 
   0  13   2   10.75    1.09 
   1 -13   2    0.39    0.29 
   1 -13   2    0.77    0.35 
  -1 -13  -2    0.48    0.27 
   1  13   2    0.55    0.46 
  -1  13  -2    0.64    0.45 
  -1  13  -2    1.03    0.41 
   2 -13   2    0.56    0.36 
  -2 -13  -2    0.59    0.33 
  -2  13  -2    0.54    0.44 
  -2  13  -2    0.53    0.39 
   2  13   2    0.51    0.45 
   3 -13   2    1.16    0.45 
   3 -13   2    1.15    0.41 
  -3  13  -2    1.33    0.50 
   3  13   2    1.63    0.58 
  -3  13  -2    1.87    0.49 
  -9   0   3    0.64    0.39 
  -8   0   3    3.36    0.54 
  -7   0   3   45.68    2.84 
   7   0  -3   44.31    2.86 
   6   0  -3    3.49    0.47 
  -6   0   3    3.95    0.46 
   5   0  -3   11.20    0.83 
  -5   0   3   11.60    0.83 
  -5   0   3   11.05    0.77 
   4   0  -3   21.82    1.33 
  -4   0   3   20.07    1.28 
  -4   0   3   20.73    1.33 
   3   0  -3   37.02    2.14 
  -3   0   3   36.33    2.10 
   3   0  -3   35.27    2.17 
  -3   0   3   34.99    2.15 
  -3   0   3   34.78    2.14 
  -2   0   3   35.77    2.18 
  -2   0   3   34.60    2.19 
   2   0  -3   37.05    2.18 
  -2   0   3   40.21    2.20 
   2   0  -3   36.83    2.18 
  -1   0   3    5.21    0.36 
   1   0  -3    5.13    0.36 
   1   0  -3    5.30    0.35 
  -1   0   3    5.32    0.35 
   1   0  -3    5.25    0.35 
  -1   0   3    5.21    0.35 
   0   0   3  235.16   14.76 
   1   0   3   96.11    5.48 
  -1   0  -3   96.04    5.48 
   1   0   3   95.41    5.48 
  -1   0  -3   91.86    5.48 
   2   0   3   33.03    2.03 
  -2   0  -3   35.68    2.04 
  -3   0  -3  193.19   11.19 
   3   0   3  193.71   11.18 
  -4   0  -3   57.97    3.45 
  -5   0  -3   84.08    4.98 
  -6   0  -3   26.70    1.74 
  -7   0  -3    0.37    0.27 
  -8   0  -3    1.33    0.41 
  -9   0  -3    0.17    0.35 
  -9  -1   3    0.66    0.40 
  -9   1   3    0.99    0.42 
  -9   1   3    1.19    0.43 
  -8  -1   3    8.03    0.81 
  -8   1   3    7.27    0.79 
  -7  -1   3    4.08    0.54 
   7  -1  -3    4.05    0.58 
  -7   1   3    4.14    0.53 
   7   1  -3    2.78    0.48 
   6  -1  -3   26.95    1.63 
  -6  -1   3   25.91    1.61 
   6   1  -3   22.23    1.60 
  -6   1   3   21.28    1.56 
  -5  -1   3  117.02    7.08 
   5  -1  -3  122.99    7.09 
  -5   1   3  118.60    7.07 
   5   1  -3  123.73    7.09 
  -4  -1   3   14.30    0.97 
  -4  -1   3   13.90    0.92 
  -4  -1   3   15.10    0.98 
   4  -1  -3   15.43    0.98 
   3  -1  -3  136.13    7.22 
  -3  -1   3  130.13    7.23 
  -3  -1   3  133.99    7.18 
  -3  -1   3  126.64    7.22 
  -3   1   3  116.71    7.20 
   3   1  -3  113.44    7.21 
   3   1  -3  111.89    7.21 
   2  -1  -3  206.91   12.13 
   2  -1  -3  207.05   12.14 
   2   1  -3  217.26   12.15 
  -1   1   3   54.13    3.08 
   1   1  -3   54.41    3.08 
  -1   1   3   53.90    3.11 
   1   1  -3   51.65    3.12 
   1   1  -3   52.58    3.11 
  -1   1   3   53.00    3.10 
   0  -1  -3  211.41   12.57 
   0  -1   3  195.70   13.33 
   0   1  -3  203.55   13.47 
   0   1   3  202.07   12.46 
   1  -1   3   94.99    5.55 
   1  -1   3   95.00    5.55 
  -1  -1  -3   89.79    5.57 
  -1  -1  -3   97.21    5.55 
  -1  -1  -3   93.23    5.53 
  -1  -1  -3   96.50    5.53 
  -1   1  -3   97.67    5.55 
  -1   1  -3   94.81    5.55 
   1   1   3  103.78    5.52 
   2  -1   3   38.66    2.42 
  -2  -1  -3   40.40    2.41 
   2  -1   3   38.93    2.41 
  -2   1  -3   42.08    2.42 
   2   1   3   43.71    2.40 
   2   1   3   41.97    2.40 
   3  -1   3   10.65    0.73 
  -3  -1  -3   11.42    0.74 
  -3   1  -3   11.69    0.75 
   3   1   3   11.28    0.72 
  -4   1  -3    1.61    0.25 
  -5  -1  -3   53.18    3.24 
  -5   1  -3   54.23    3.25 
  -6  -1  -3   10.32    0.81 
  -7  -1  -3   15.33    1.09 
  -7   1  -3   12.48    1.06 
  -8  -1  -3   31.30    2.07 
  -8   1  -3   29.73    2.10 
  -9  -1  -3    5.66    0.74 
  -9   1  -3    3.38    0.61 
  -9  -2   3    7.96    0.88 
  -9   2   3    6.56    0.80 
  -9   2   3    6.79    0.81 
  -8  -2   3   11.28    1.01 
  -8   2   3   10.72    0.95 
  -8   2   3   11.12    1.02 
  -7  -2   3   33.62    2.22 
   7  -2  -3   34.75    2.25 
  -7   2   3   33.56    2.19 
  -6  -2   3    3.56    0.47 
   6  -2  -3    4.11    0.49 
  -6   2   3    3.22    0.44 
   6   2  -3    2.89    0.47 
   5  -2  -3   10.49    0.82 
  -5  -2   3   10.39    0.82 
  -5   2   3   11.58    0.81 
   5   2  -3   11.94    0.83 
  -4  -2   3   18.83    1.17 
  -4  -2   3   20.00    1.22 
  -4  -2   3   18.91    1.22 
  -4   2   3   18.05    1.19 
   4   2  -3   18.06    1.20 
  -3  -2   3    4.80    0.33 
  -3  -2   3    4.99    0.38 
   3  -2  -3    4.53    0.37 
  -3  -2   3    4.74    0.38 
  -3   2   3    4.71    0.37 
   3   2  -3    4.23    0.36 
  -3   2   3    4.68    0.36 
   3   2  -3    4.09    0.36 
  -2  -2   3   26.22    1.53 
  -2  -2   3   27.04    1.53 
   2  -2  -3   27.06    1.52 
  -2  -2   3   27.32    1.51 
   2  -2  -3   27.52    1.51 
  -2  -2   3   25.47    1.49 
  -2   2   3   24.00    1.51 
   2   2  -3   23.70    1.51 
   2   2  -3   22.68    1.52 
   2   2  -3   23.63    1.50 
  -2   2   3   24.61    1.49 
  -2   2   3   24.37    1.49 
   2   2  -3   23.96    1.52 
  -1  -2   3   24.64    1.60 
  -1  -2   3   22.85    1.54 
   1  -2  -3   24.02    1.55 
   1  -2  -3   23.78    1.55 
   1  -2  -3   25.06    1.56 
   1  -2  -3   24.46    1.53 
   1  -2  -3   24.56    1.54 
  -1  -2   3   22.82    1.59 
  -1   2   3   29.00    1.52 
   1   2  -3   28.10    1.55 
   1   2  -3   28.13    1.58 
  -1   2   3   29.46    1.57 
  -1   2   3   28.03    1.55 
   1   2  -3   28.17    1.58 
  -1   2   3   29.88    1.57 
   1   2  -3   26.97    1.55 
   0  -2  -3  244.97   13.97 
   0  -2   3  225.38   15.79 
   0   2  -3  248.85   16.04 
   0   2   3  236.29   13.95 
   1  -2   3  136.86    8.63 
  -1  -2  -3  151.40    8.66 
  -1  -2  -3  139.54    8.63 
  -1  -2  -3  145.57    8.59 
  -1   2  -3  158.38    8.64 
  -1   2  -3  164.79    8.61 
  -2  -2  -3  172.49    9.02 
  -2  -2  -3  165.03    8.95 
   2  -2   3  162.03    8.98 
  -2  -2  -3  170.92    9.02 
   2  -2   3  156.71    8.97 
  -2   2  -3  140.31    8.97 
   2   2   3  142.14    8.93 
   2   2   3  142.82    8.93 
  -2   2  -3  143.66    8.94 
  -3  -2  -3  170.33   10.04 
  -3   2  -3  177.65   10.06 
   3   2   3  172.71   10.02 
   4   2   3   26.53    1.63 
  -4   2  -3   28.24    1.69 
   4   2   3   26.37    1.64 
  -5  -2  -3   19.43    1.32 
  -5   2  -3   21.03    1.34 
  -6  -2  -3   39.32    2.45 
  -6   2  -3   38.87    2.58 
  -7  -2  -3    2.38    0.42 
  -8  -2  -3    2.57    0.49 
  -8   2  -3    2.59    0.47 
  -8   2  -3    2.47    0.57 
  -9  -2  -3    2.61    0.53 
   9  -2   3    2.32    0.53 
  -9   2  -3    2.38    0.55 
  -9   2  -3    2.45    0.50 
  -9  -3   3    1.02    0.46 
  -9   3   3    2.19    0.50 
  -9   3   3    1.31    0.44 
  -9   3   3    1.27    0.31 
  -8  -3   3    9.29    1.13 
  -8   3   3    9.62    0.93 
  -8   3   3   10.10    0.89 
  -7   3   3    1.81    0.38 
  -7   3   3    1.49    0.37 
   6  -3  -3   10.80    0.89 
  -6   3   3   12.20    0.87 
   6   3  -3   11.63    0.91 
  -6   3   3   10.90    0.90 
   5  -3  -3   32.12    1.99 
  -5  -3   3   31.31    2.00 
  -5   3   3   32.75    1.98 
   5   3  -3   30.78    1.98 
  -5   3   3   30.83    1.96 
  -4  -3   3   56.36    3.52 
  -4  -3   3   52.78    3.46 
  -4  -3   3   56.67    3.50 
   4  -3  -3   56.60    3.50 
  -4   3   3   63.78    3.50 
  -4   3   3   65.05    3.52 
   4   3  -3   61.36    3.51 
  -3  -3   3  109.85    6.60 
   3  -3  -3  115.07    6.59 
  -3  -3   3  113.32    6.62 
  -3   3   3  114.22    6.57 
   3   3  -3  117.35    6.64 
   3   3  -3  114.27    6.59 
  -3   3   3  112.38    6.60 
  -3   3   3  111.39    6.57 
   3   3  -3  111.32    6.60 
  -2  -3   3  257.97   14.97 
  -2  -3   3  262.78   14.95 
   2  -3  -3  258.84   14.94 
   2  -3  -3  262.68   14.95 
  -2  -3   3  271.85   14.93 
   2   3  -3  254.11   14.95 
   2   3  -3  245.42   14.96 
   1  -3  -3   41.84    2.32 
  -1  -3   3   40.87    2.34 
  -1  -3   3   43.00    2.35 
   1  -3  -3   40.89    2.31 
   1  -3  -3   41.34    2.32 
  -1  -3   3   39.51    2.32 
  -1  -3   3   40.76    2.31 
   1  -3  -3   41.67    2.29 
  -1  -3   3   41.13    2.33 
   1   3  -3   33.68    2.30 
  -1   3   3   34.13    2.33 
   1   3  -3   33.18    2.35 
   0  -3   3  118.59    6.88 
   0  -3   3  120.66    6.87 
   0  -3  -3  111.53    6.85 
   0  -3   3  117.67    6.84 
   0  -3  -3  125.77    6.82 
   0  -3   3  122.47    6.87 
   0  -3  -3  121.43    6.86 
   0   3  -3  112.82    6.85 
   0   3  -3  119.59    6.84 
   0   3  -3  112.45    6.86 
  -1  -3  -3   85.99    4.60 
   1  -3   3   78.10    4.55 
  -1  -3  -3   76.84    4.56 
  -1  -3  -3   82.98    4.49 
   1  -3   3   78.10    4.52 
   1  -3   3   82.11    4.55 
   1   3   3   72.67    4.55 
  -1   3  -3   71.57    4.52 
   1   3   3   78.39    4.58 
  -1   3  -3   72.59    4.54 
   2  -3   3    7.80    0.62 
  -2  -3  -3    7.87    0.62 
  -2  -3  -3    8.27    0.58 
   2   3   3   10.46    0.55 
   2   3   3   10.30    0.55 
   2   3   3    9.89    0.69 
  -2   3  -3    9.20    0.63 
  -2   3  -3   10.11    0.63 
   3  -3   3    2.48    0.28 
  -3  -3  -3    2.66    0.25 
  -3   3  -3    2.34    0.25 
   3   3   3    2.40    0.21 
   3   3   3    2.56    0.20 
  -3   3  -3    2.61    0.28 
  -4  -3  -3    4.19    0.37 
   4   3   3    3.83    0.30 
   4   3   3    4.02    0.33 
  -4   3  -3    3.81    0.36 
  -4   3  -3    3.96    0.39 
  -5  -3  -3   59.46    3.51 
  -5   3  -3   57.17    3.49 
  -6   3  -3    2.83    0.42 
  -6   3  -3    2.78    0.44 
  -7  -3  -3   14.95    1.17 
  -7   3  -3   15.66    1.15 
  -7   3  -3   16.52    1.20 
  -8  -3  -3   27.41    1.96 
  -8   3  -3   29.66    1.94 
  -8   3  -3   29.37    1.98 
  -9  -3  -3    1.31    0.45 
   9  -3   3    1.58    0.49 
  -9   3  -3    1.40    0.46 
  -9   3  -3    1.26    0.44 
  -9  -4   3    2.91    0.60 
  -9   4   3    2.61    0.51 
  -9   4   3    2.41    0.53 
  -9   4   3    2.60    0.44 
  -8  -4   3   14.58    1.25 
  -8   4   3   15.95    1.11 
  -8   4   3   15.83    1.25 
  -7  -4   3   26.62    1.89 
  -7   4   3   28.94    1.79 
  -7   4   3   29.30    1.90 
  -7   4   3   27.05    1.83 
  -6   4   3    0.74    0.22 
  -6   4   3    0.59    0.24 
   6   4  -3    0.47    0.27 
  -6   4   3    0.60    0.28 
   5  -4  -3    3.16    0.42 
  -5  -4   3    3.32    0.41 
  -5   4   3    3.78    0.45 
  -5   4   3    3.73    0.39 
   5   4  -3    4.40    0.45 
  -5   4   3    4.13    0.38 
  -4  -4   3   27.86    1.72 
  -4  -4   3   26.84    1.68 
   4  -4  -3   28.55    1.69 
  -4   4   3   26.20    1.65 
   4   4  -3   26.99    1.68 
  -4   4   3   26.81    1.66 
  -4   4   3   25.70    1.69 
  -3  -4   3   36.59    2.25 
  -3  -4   3   37.15    2.27 
   3  -4  -3   37.59    2.23 
  -3  -4   3   36.79    2.23 
  -3   4   3   38.17    2.23 
   3   4  -3   37.62    2.23 
  -3   4   3   36.30    2.21 
   3   4  -3   37.77    2.27 
  -2  -4   3    0.41    0.12 
  -2  -4   3    0.41    0.10 
   2  -4  -3    0.47    0.10 
  -2  -4   3    0.42    0.14 
   2  -4  -3    0.38    0.11 
   2   4  -3   -0.01    0.08 
  -2   4   3    0.04    0.09 
  -2   4   3    0.23    0.12 
   2   4  -3    0.03    0.08 
   2   4  -3    0.03    0.07 
   2   4  -3    0.00    0.10 
  -1  -4   3    2.79    0.28 
  -1  -4   3    2.55    0.24 
   1  -4  -3    3.11    0.23 
   1  -4  -3    2.96    0.21 
  -1  -4   3    3.11    0.28 
   1  -4  -3    2.86    0.23 
   1  -4  -3    2.93    0.25 
   0  -4   3  163.66    9.25 
   0  -4  -3  165.54    9.20 
   0  -4   3  159.93    9.23 
   0  -4  -3  159.68    9.25 
   0  -4   3  160.82    9.24 
   0  -4   3  165.40    9.26 
   0  -4  -3  164.57    9.25 
   0   4  -3  158.63    9.20 
   0   4  -3  145.94    9.24 
   0   4   3  154.69    9.26 
   0   4  -3  151.44    9.24 
   0   4  -3  165.41    9.26 
   1  -4   3  134.33    7.08 
   1  -4   3  128.18    7.04 
  -1  -4  -3  140.28    7.13 
  -1  -4  -3  136.98    7.00 
   1   4   3  108.74    7.08 
  -1   4  -3  108.34    7.04 
   1   4   3  108.27    7.07 
  -1   4  -3  107.40    7.05 
  -2  -4  -3   64.20    4.56 
  -2   4  -3   80.89    4.62 
   2   4   3   88.57    4.69 
  -2   4  -3   82.02    4.60 
  -3  -4  -3  152.71    8.93 
   3  -4   3  156.62    8.98 
  -3   4  -3  153.46    8.94 
  -3   4  -3  153.69    8.96 
  -4  -4  -3   37.00    2.45 
   4  -4   3   36.87    2.49 
  -4   4  -3   41.14    2.47 
   4   4   3   43.52    2.40 
   4   4   3   42.04    2.42 
  -4   4  -3   43.81    2.50 
  -5  -4  -3   17.15    1.23 
   5   4   3   17.59    1.15 
   5   4   3   17.74    1.17 
  -5   4  -3   21.01    1.28 
  -5   4  -3   19.91    1.24 
  -6  -4  -3   36.81    2.46 
  -6   4  -3   41.46    2.50 
  -6   4  -3   40.08    2.47 
  -7  -4  -3    3.77    0.52 
  -7   4  -3    2.04    0.44 
  -7   4  -3    2.31    0.43 
   8  -4   3    0.50    0.36 
  -8   4  -3    0.77    0.39 
  -8   4  -3    0.86    0.38 
  -8  -5   3    7.79    0.89 
  -8   5   3    8.73    0.90 
  -8   5   3    7.69    0.77 
  -8   5   3    8.26    0.72 
  -7  -5   3    4.50    0.64 
  -7   5   3    4.25    0.62 
  -7   5   3    4.29    0.53 
  -6  -5   3   13.07    0.97 
  -6   5   3   11.17    0.85 
  -6   5   3   11.04    0.93 
  -6   5   3   11.17    0.86 
  -5  -5   3  114.19    6.63 
  -5  -5   3  116.77    6.69 
   5  -5  -3  115.04    6.65 
  -5   5   3  113.88    6.61 
   5   5  -3  107.75    6.64 
  -5   5   3  108.74    6.60 
  -5   5   3  112.74    6.67 
  -4   5   3   16.91    1.13 
  -4   5   3   16.30    1.05 
   4   5  -3   15.92    1.14 
  -4   5   3   16.65    1.08 
   4   5  -3   16.43    1.09 
  -3  -5   3   68.67    4.11 
   3  -5  -3   67.92    4.09 
  -3  -5   3   71.25    4.15 
   3   5  -3   69.24    4.14 
  -3   5   3   68.60    4.06 
  -3   5   3   69.78    4.11 
  -3   5   3   69.58    4.14 
   3   5  -3   71.95    4.09 
   2  -5  -3   54.36    3.38 
  -2  -5   3   55.31    3.42 
  -2  -5   3   54.84    3.44 
  -2  -5   3   49.88    3.37 
  -2   5   3   62.09    3.46 
   2   5  -3   63.43    3.40 
   2   5  -3   63.80    3.46 
   2   5  -3   57.91    3.42 
  -2   5   3   56.90    3.38 
  -2   5   3   60.49    3.43 
   1  -5  -3   22.18    1.30 
  -1  -5   3   21.46    1.37 
   0  -5   3   35.54    2.10 
   0  -5  -3   37.89    2.05 
   0  -5   3   40.06    2.13 
   0  -5   3   38.12    2.13 
   0  -5  -3   37.66    2.04 
   0  -5  -3   38.01    2.05 
   0   5  -3   30.02    2.09 
   0   5   3   31.91    2.12 
   0   5  -3   33.36    2.03 
   0   5  -3   30.52    2.10 
   0   5  -3   31.25    2.10 
   1  -5   3   49.30    3.22 
   1  -5   3   47.53    3.18 
  -1  -5  -3   53.10    3.15 
  -1   5  -3   58.01    3.23 
  -1   5  -3   56.49    3.21 
  -1   5  -3   56.98    3.21 
   1   5   3   59.35    3.27 
   1   5   3   53.27    3.25 
  -2  -5  -3    8.24    0.53 
   2   5   3    7.91    0.64 
  -2   5  -3    7.84    0.58 
  -2   5  -3    7.90    0.58 
  -2   5  -3    7.82    0.53 
   3  -5   3   27.59    1.63 
  -3  -5  -3   25.49    1.56 
   3   5   3   23.10    1.67 
  -3   5  -3   25.22    1.59 
  -3   5  -3   25.88    1.60 
   4  -5   3    1.11    0.25 
  -4  -5  -3    1.26    0.22 
   4   5   3    0.68    0.12 
  -4   5  -3    0.70    0.21 
  -4   5  -3    0.76    0.22 
   4   5   3    0.63    0.11 
  -5  -5  -3   33.20    1.97 
   5  -5   3   32.84    2.01 
  -5   5  -3   28.86    2.11 
   5   5   3   30.08    1.85 
  -5   5  -3   30.91    1.98 
   5   5   3   30.70    1.88 
  -6  -5  -3    3.01    0.45 
   6  -5   3    2.71    0.45 
  -6   5  -3    3.66    0.49 
  -6   5  -3    3.52    0.49 
   7  -5   3   12.73    1.09 
  -7  -5  -3   12.44    1.03 
  -7   5  -3   13.78    1.05 
  -7   5  -3   13.52    1.07 
   8  -5   3   17.10    1.36 
  -8  -5  -3   16.47    1.30 
  -8   5  -3   17.17    1.31 
  -8   5  -3   16.32    1.30 
  -8  -6   3    3.56    0.60 
  -8   6   3    2.53    0.54 
  -8   6   3    3.88    0.51 
  -8   6   3    3.36    0.53 
  -7  -6   3   16.03    1.21 
  -7   6   3   13.54    1.26 
  -7   6   3   14.52    1.06 
  -7   6   3   13.82    1.06 
  -6   6   3   14.00    1.10 
  -6   6   3   13.54    1.00 
  -5  -6   3   14.69    1.06 
  -5  -6   3   14.48    0.99 
   5  -6  -3   13.94    1.00 
  -5   6   3   13.59    1.06 
  -5   6   3   13.89    0.94 
  -5   6   3   13.79    0.99 
   4  -6  -3    7.08    0.57 
  -4  -6   3    7.74    0.66 
  -4  -6   3    7.57    0.58 
  -4   6   3    7.42    0.66 
   4   6  -3    7.75    0.69 
   4   6  -3    7.15    0.58 
  -4   6   3    7.31    0.53 
  -4   6   3    6.99    0.59 
   3  -6  -3   12.82    0.83 
  -3  -6   3   12.73    0.91 
  -3  -6   3   12.17    0.86 
  -3   6   3   12.55    0.88 
  -3   6   3   12.86    0.92 
   3   6  -3   13.74    0.84 
   3   6  -3   12.15    0.92 
  -3   6   3   12.41    0.78 
  -2  -6   3    1.72    0.25 
   2  -6  -3    1.58    0.18 
  -2  -6   3    1.61    0.26 
   2   6  -3    1.38    0.26 
  -2   6   3    1.11    0.23 
   2   6  -3    1.25    0.18 
  -2   6   3    1.37    0.25 
   1  -6  -3   25.58    1.74 
   1  -6  -3   28.02    1.71 
   1  -6  -3   25.25    1.72 
  -1  -6   3   26.08    1.78 
  -1  -6   3   26.20    1.79 
   1   6  -3   31.60    1.70 
   1   6  -3   31.84    1.82 
  -1   6   3   33.77    1.82 
  -1   6   3   33.53    1.84 
   0  -6  -3  111.19    6.58 
   0  -6  -3  111.12    6.57 
   0  -6  -3  115.21    6.58 
   0  -6  -3  113.35    6.58 
   0  -6   3  114.18    6.66 
   0  -6   3  113.02    6.65 
   0   6   3  113.53    6.68 
   0   6  -3  110.52    6.66 
   0   6  -3  114.86    6.66 
   0   6   3  127.75    6.70 
   0   6  -3  108.11    6.55 
   1  -6   3   21.22    1.45 
  -1  -6  -3   21.37    1.38 
   1   6   3   23.18    1.50 
  -1   6  -3   23.15    1.47 
   1   6   3   24.76    1.50 
  -1   6  -3   22.78    1.36 
  -1   6  -3   23.73    1.43 
  -1   6  -3   24.35    1.46 
  -2  -6  -3   52.23    3.25 
   2  -6   3   56.27    3.32 
  -2  -6  -3   55.24    3.24 
   2   6   3   53.48    3.37 
  -2   6  -3   54.17    3.32 
  -2   6  -3   53.79    3.29 
  -2   6  -3   59.46    3.24 
  -2   6  -3   57.58    3.31 
  -3  -6  -3   78.61    4.45 
   3  -6   3   82.49    4.53 
   3   6   3   75.38    4.58 
  -3   6  -3   76.55    4.49 
  -3   6  -3   76.81    4.49 
  -3   6  -3   64.52    4.49 
  -4  -6  -3   15.84    1.00 
   4  -6   3   16.13    1.08 
  -4   6  -3   13.22    1.02 
  -4   6  -3   14.10    1.03 
  -5  -6  -3   32.91    2.07 
   5  -6   3   33.54    2.13 
  -5   6  -3   31.94    2.09 
  -5   6  -3   33.17    2.10 
   6  -6   3   19.50    1.38 
  -6  -6  -3   18.86    1.32 
  -6   6  -3   18.37    1.34 
  -6   6  -3   17.98    1.32 
   7  -6   3    0.70    0.53 
  -7  -6  -3    0.99    0.34 
  -7   6  -3    0.63    0.35 
  -7   6  -3    0.58    0.35 
  -8  -6  -3    3.48    0.59 
   8  -6   3    3.56    0.63 
  -8   6  -3    4.25    0.66 
  -8   6  -3    3.74    0.61 
   8   6   3    4.24    0.61 
  -8  -7   3    4.11    0.68 
  -8   7   3    3.78    0.65 
  -8   7   3    3.72    0.54 
  -8   7   3    3.82    0.53 
  -7  -7   3    1.27    0.43 
  -7   7   3    1.66    0.33 
  -7   7   3    1.25    0.34 
  -7   7   3    1.45    0.45 
  -6  -7   3    2.89    0.54 
  -6   7   3    4.09    0.50 
  -6   7   3    4.37    0.64 
  -5  -7   3   27.19    1.72 
  -5  -7   3   26.97    1.81 
  -5   7   3   26.77    1.66 
  -5   7   3   27.41    1.75 
  -5   7   3   26.60    1.83 
  -4  -7   3    8.06    0.67 
   4  -7  -3    7.59    0.66 
  -4  -7   3    7.32    0.74 
   4   7  -3   11.31    0.84 
  -4   7   3   10.85    0.61 
  -3  -7   3   26.92    1.71 
  -3  -7   3   31.86    1.85 
  -3  -7   3   32.04    1.78 
   3  -7  -3   31.14    1.74 
  -3   7   3   26.14    1.83 
   3   7  -3   25.45    1.83 
  -3   7   3   25.17    1.79 
  -2  -7   3  131.08    7.70 
   2  -7  -3  135.74    7.64 
  -2  -7   3  133.68    7.75 
   2   7  -3  136.28    7.76 
  -2   7   3  128.78    7.73 
  -2   7   3  125.99    7.75 
   1  -7  -3   29.81    1.86 
   1  -7  -3   28.24    1.90 
   1  -7  -3   29.87    1.91 
  -1  -7   3   29.61    1.95 
  -1  -7   3   30.25    1.98 
  -1   7   3   35.74    2.01 
  -1   7   3   34.97    2.03 
   1   7  -3   37.08    2.02 
   0  -7  -3   55.13    3.00 
   0  -7  -3   52.86    3.03 
   0  -7   3   55.31    3.13 
   0  -7  -3   52.02    3.04 
   0  -7  -3   52.24    3.03 
   0  -7   3   53.75    3.11 
   0   7   3   46.45    3.14 
   0   7   3   49.91    3.15 
   0   7  -3   51.19    3.13 
   0   7  -3   48.29    3.13 
  -1  -7  -3   40.05    2.41 
  -1  -7  -3   39.47    2.38 
   1  -7   3   39.66    2.49 
  -1   7  -3   38.49    2.34 
   1   7   3   43.17    2.55 
  -1   7  -3   41.42    2.49 
   1   7   3   43.25    2.54 
   2  -7   3    4.34    0.46 
  -2  -7  -3    4.03    0.37 
  -2  -7  -3    3.92    0.35 
  -2   7  -3    5.37    0.49 
  -2   7  -3    5.30    0.49 
  -2   7  -3    4.80    0.42 
  -2   7  -3    5.34    0.33 
   2   7   3    4.65    0.52 
   3  -7   3    2.64    0.38 
  -3  -7  -3    2.39    0.29 
   3   7   3    2.96    0.49 
  -3   7  -3    2.01    0.35 
  -3   7  -3    2.74    0.34 
  -3   7  -3    2.88    0.42 
   4  -7   3    1.27    0.31 
  -4  -7  -3    1.17    0.24 
  -4   7  -3    0.60    0.26 
  -4   7  -3    0.65    0.33 
  -4   7  -3    0.57    0.23 
  -5  -7  -3   24.47    1.69 
   5  -7   3   25.53    1.77 
  -5   7  -3   27.48    1.72 
  -5   7  -3   27.01    1.75 
  -6  -7  -3    6.32    0.69 
   6  -7   3    6.85    0.81 
  -6   7  -3    9.24    0.76 
  -6   7  -3    8.02    0.80 
  -6   7  -3    8.84    0.82 
  -7  -7  -3    4.46    0.60 
   7  -7   3    5.16    0.74 
  -7   7  -3    3.73    0.57 
  -7   7  -3    4.10    0.66 
  -8  -7  -3   14.56    1.20 
   8  -7   3   16.01    1.32 
  -8   7  -3   13.99    1.24 
  -8   7  -3   14.44    1.19 
  -8   7  -3   14.47    1.24 
  -7  -8   3   20.93    1.55 
  -7   8   3   18.96    1.30 
  -7   8   3   19.95    1.56 
  -7   8   3   19.36    1.40 
  -6  -8   3    0.66    0.37 
  -6   8   3    0.00    0.33 
  -6   8   3    0.18    0.25 
  -6   8   3    0.02    0.17 
  -5  -8   3    4.72    0.62 
  -5  -8   3    5.51    0.50 
   5   8  -3    4.59    0.69 
  -5   8   3    5.04    0.69 
  -5   8   3    5.27    0.59 
  -5   8   3    4.94    0.40 
  -4  -8   3    5.17    0.58 
  -4  -8   3    5.32    0.46 
  -4   8   3    3.80    0.52 
  -4   8   3    4.04    0.60 
   4   8  -3    3.76    0.60 
  -3  -8   3    2.88    0.35 
   3   8  -3    2.95    0.46 
  -3   8   3    2.68    0.42 
   2  -8  -3   12.79    0.76 
  -2  -8   3   12.90    0.87 
  -2  -8   3   12.64    0.92 
   2   8  -3   11.09    1.01 
  -2   8   3   11.00    0.94 
  -1  -8   3    3.28    0.38 
   1  -8  -3    3.04    0.31 
  -1  -8   3    2.67    0.39 
  -1   8   3    3.25    0.47 
  -1   8   3    3.43    0.46 
   1   8  -3    3.06    0.45 
   0  -8   3   41.67    2.59 
   0  -8  -3   41.87    2.47 
   0  -8  -3   40.64    2.50 
   0  -8   3   40.76    2.56 
   0   8  -3   42.63    2.60 
   0   8  -3   44.48    2.64 
   0   8   3   41.78    2.73 
   0   8   3   42.04    2.65 
  -1  -8  -3   16.24    0.99 
   1  -8   3   16.94    1.14 
  -1  -8  -3   17.04    1.07 
   1  -8   3   16.49    1.15 
  -1  -8  -3   15.82    0.99 
   1   8   3   17.62    1.22 
   1   8   3   17.59    1.22 
  -1   8  -3   16.64    1.16 
  -1   8  -3   17.84    1.19 
   2  -8   3   32.09    1.96 
  -2  -8  -3   29.03    1.81 
  -2  -8  -3   31.57    1.87 
  -2   8  -3   30.27    1.97 
  -2   8  -3   29.74    1.78 
  -2   8  -3   31.24    1.96 
   2   8   3   30.73    2.02 
  -3  -8  -3   81.84    4.49 
   3  -8   3   78.77    4.57 
   3   8   3   65.10    4.71 
  -3   8  -3   75.68    4.50 
  -3   8  -3   80.33    4.57 
  -3   8  -3   74.58    4.42 
  -3   8  -3   73.91    4.58 
  -4  -8  -3    9.01    0.66 
   4  -8   3    9.12    0.76 
  -4   8  -3    7.03    0.73 
  -4   8  -3    7.14    0.65 
  -4   8  -3    8.43    1.10 
   4   8   3    6.83    0.82 
   5  -8   3   15.48    1.26 
  -5  -8  -3   15.16    1.24 
  -5   8  -3   18.44    1.27 
  -5   8  -3   16.63    1.26 
  -5   8  -3   17.99    1.21 
  -6  -8  -3   13.88    1.07 
   6  -8   3   13.39    1.21 
  -6   8  -3   14.10    1.19 
  -6   8  -3   13.87    1.15 
  -6   8  -3   14.15    1.08 
   7  -8   3    0.19    0.39 
  -7  -8  -3    0.36    0.31 
  -7   8  -3    1.44    0.40 
  -7   8  -3    1.05    0.40 
  -7   8  -3    1.58    0.45 
  -7  -9   3    0.87    0.45 
  -7   9   3    1.08    0.48 
  -7   9   3    1.00    0.36 
  -6  -9   3    4.65    1.04 
  -6   9   3    5.15    0.73 
  -6   9   3    4.86    0.63 
  -5  -9   3   26.64    1.84 
   5   9  -3   26.32    1.91 
  -5   9   3   27.22    1.81 
  -5   9   3   26.41    1.88 
  -4  -9   3   17.20    1.40 
  -4  -9   3   18.17    1.29 
  -4   9   3   21.51    1.42 
   4   9  -3   22.31    1.53 
  -4   9   3   21.28    1.49 
  -3  -9   3   19.23    1.23 
   3  -9  -3   19.59    1.26 
  -3  -9   3   19.62    1.34 
  -3   9   3   18.17    1.37 
  -3   9   3   17.82    1.33 
   3   9  -3   17.57    1.37 
   2  -9  -3   70.34    4.15 
  -2  -9   3   68.08    4.23 
  -2  -9   3   70.61    4.16 
  -2   9   3   68.77    4.26 
   2   9  -3   73.12    4.28 
  -2   9   3   67.50    4.25 
   0  -9   3    8.49    0.68 
   0  -9  -3    8.22    0.54 
   0  -9  -3    8.77    0.56 
   0  -9   3    9.06    0.72 
   0  -9  -3    8.67    0.61 
   0   9   3    7.26    0.73 
   0   9   3    7.10    0.85 
   0   9  -3    7.06    0.71 
   0   9  -3    7.41    0.75 
  -1  -9  -3   15.04    0.96 
   1   9   3   13.70    1.26 
  -1   9  -3   13.94    1.06 
   2  -9   3    4.47    0.53 
  -2  -9  -3    3.90    0.27 
  -2  -9  -3    3.81    0.27 
  -2  -9  -3    4.14    0.40 
  -2   9  -3    4.70    0.56 
  -2   9  -3    5.25    0.57 
   2   9   3    5.18    0.62 
  -3  -9  -3    0.10    0.16 
   3  -9   3    0.02    0.23 
   3   9   3    0.10    0.31 
  -3   9  -3    0.24    0.38 
  -3   9  -3    0.06    0.07 
  -3   9  -3    0.15    0.27 
  -4  -9  -3    1.46    0.30 
   4  -9   3    1.43    0.37 
  -4   9  -3    0.85    0.34 
  -4   9  -3    0.59    0.25 
  -4   9  -3    0.98    0.36 
   4   9   3    0.68    0.37 
   5  -9   3    9.40    0.89 
  -5  -9  -3   10.19    0.77 
  -5   9  -3    7.79    0.74 
  -5   9  -3    8.52    0.88 
  -5   9  -3    8.22    0.86 
   6  -9   3    2.67    0.53 
  -6  -9  -3    2.64    0.46 
  -6   9  -3    2.42    0.48 
  -6   9  -3    2.40    0.45 
  -6   9  -3    2.58    0.52 
  -7  -9  -3    3.05    0.51 
   7  -9   3    2.84    0.60 
  -7   9  -3    2.41    0.54 
  -7   9  -3    2.95    0.48 
  -7   9  -3    3.02    0.55 
  -6 -10   3    1.22    0.45 
   6 -10  -3    1.44    0.41 
  -6  10   3    0.43    0.32 
  -6  10   3    0.28    0.39 
   5 -10  -3    2.44    0.47 
  -5 -10   3    2.91    0.54 
  -5  10   3    3.72    0.58 
   5  10  -3    3.42    0.62 
  -5  10   3    3.09    0.56 
   4 -10  -3    1.77    0.46 
  -4 -10   3    2.02    0.29 
  -4 -10   3    1.98    0.45 
  -4  10   3    1.45    0.39 
   4  10  -3    1.45    0.46 
  -4  10   3    1.83    0.44 
  -3 -10   3    5.69    0.67 
   3 -10  -3    6.44    0.60 
  -3 -10   3    6.84    0.55 
   3  10  -3    5.73    0.75 
  -3  10   3    6.33    0.76 
  -3  10   3    5.92    0.69 
   2 -10  -3    3.25    0.42 
  -2 -10   3    3.64    0.42 
  -2 -10   3    3.46    0.70 
  -2  10   3    3.49    0.54 
  -2  10   3    3.95    0.61 
   2  10  -3    3.51    0.59 
   1 -10  -3    7.46    0.61 
  -1 -10   3    7.88    0.66 
  -1 -10   3    7.71    0.72 
  -1  10   3    7.33    0.77 
   1  10  -3    7.47    0.80 
  -1  10   3    7.55    0.79 
   0 -10   3   28.07    1.95 
   0 -10  -3   29.43    1.87 
   0 -10  -3   31.75    1.84 
   0  10   3   29.57    2.02 
   0  10  -3   32.02    2.03 
   0  10  -3   28.36    1.97 
   0  10   3   30.65    2.04 
   1 -10   3    8.69    0.72 
   1 -10   3    8.97    0.75 
  -1 -10  -3    9.01    0.62 
  -1  10  -3    7.04    0.76 
   1  10   3    6.49    0.78 
  -1  10  -3    7.16    0.77 
   1  10   3    6.21    0.76 
  -2 -10  -3   23.25    1.53 
   2 -10   3   21.71    1.62 
  -2  10  -3   25.02    1.68 
   2  10   3   26.04    1.76 
  -2  10  -3   24.02    1.65 
   3 -10   3   37.07    2.49 
  -3 -10  -3   36.56    2.38 
  -3  10  -3   40.35    2.51 
  -3  10  -3   38.41    2.52 
   3  10   3   41.51    2.65 
   4 -10   3    1.26    0.38 
  -4 -10  -3    1.41    0.36 
   4  10   3    1.04    0.45 
  -4  10  -3    1.89    0.43 
  -4  10  -3    1.49    0.46 
   5 -10   3   18.85    1.37 
  -5 -10  -3   19.32    1.25 
  -5  10  -3   15.04    1.17 
  -5  10  -3   16.53    1.35 
  -5  10  -3   14.73    1.40 
   6 -10   3    7.04    0.85 
  -6 -10  -3    6.75    0.70 
  -6  10  -3    6.24    0.83 
  -6  10  -3    7.06    0.84 
  -6  10  -3    5.91    0.65 
  -5 -11   3   21.77    1.56 
   5 -11  -3   22.02    1.54 
   5  11  -3   17.67    1.60 
  -5  11   3   19.49    1.58 
  -5  11   3   20.27    1.52 
   4 -11  -3    4.65    0.59 
  -4 -11   3    4.60    0.66 
  -4  11   3    3.79    0.67 
   3 -11  -3   10.84    0.88 
  -3 -11   3   10.07    0.78 
  -3 -11   3   10.79    0.96 
  -3  11   3   11.43    1.01 
   3  11  -3   11.79    1.07 
  -2 -11   3   13.49    0.94 
  -2 -11   3   14.10    1.07 
   2 -11  -3   13.84    0.97 
   2  11  -3   12.20    1.13 
  -2  11   3   11.95    1.10 
  -2  11   3   11.91    1.11 
  -1 -11   3   15.84    1.15 
  -1 -11   3   15.70    1.22 
   1 -11  -3   15.81    1.08 
   1 -11  -3   15.25    1.12 
  -1  11   3   20.67    1.37 
   0 -11   3    7.49    0.69 
   0 -11   3    7.12    0.74 
   0 -11  -3    7.53    0.62 
   0 -11  -3    7.17    0.50 
   0  11  -3    7.93    0.78 
   0  11   3    7.56    0.82 
   0  11   3    7.94    0.83 
   0  11  -3    8.17    0.84 
   1 -11   3   13.23    1.06 
   1 -11   3   13.62    1.02 
  -1 -11  -3   13.60    0.94 
  -1  11  -3   12.85    1.08 
   1  11   3   11.71    1.12 
  -1  11  -3   13.10    1.12 
  -2 -11  -3    0.69    0.23 
   2 -11   3    0.58    0.32 
   2 -11   3    0.71    0.31 
  -2  11  -3    0.73    0.37 
   2  11   3    0.41    0.37 
  -2  11  -3    0.97    0.36 
  -3 -11  -3    2.58    0.41 
   3 -11   3    2.69    0.49 
  -3  11  -3    2.50    0.50 
  -3  11  -3    1.39    0.62 
   4 -11   3    0.90    0.56 
  -4 -11  -3    1.14    0.33 
  -4  11  -3    1.46    0.46 
   4  11   3    1.60    0.54 
  -5 -11  -3   11.25    0.95 
   5 -11   3   12.35    1.12 
  -5  11  -3   12.09    1.09 
  -5  11  -3   11.41    1.11 
   4 -12  -3    2.98    0.49 
  -4 -12   3    3.62    0.62 
   4  12  -3    2.99    0.63 
  -4  12   3    2.45    0.57 
  -4  12   3    3.25    0.60 
   3 -12  -3    4.76    0.58 
  -3 -12   3    4.23    0.63 
  -3  12   3    3.57    0.61 
  -3  12   3    4.90    0.74 
   3  12  -3    5.14    0.81 
  -2 -12   3    0.12    0.21 
   2 -12  -3    0.00    0.22 
  -2 -12   3    0.24    0.30 
  -2  12   3    0.19    0.38 
   2  12  -3    0.45    0.43 
  -2  12   3   -0.02    0.34 
  -1 -12   3    1.32    0.40 
   1 -12  -3    1.00    0.28 
  -1 -12   3    1.17    0.32 
   1 -12  -3    1.17    0.23 
  -1  12   3    1.80    0.48 
   1  12  -3    1.46    0.59 
  -1  12   3    1.85    0.49 
   0 -12   3   35.32    2.30 
   0 -12  -3   34.19    2.18 
   0 -12   3   34.97    2.22 
   0  12   3   32.96    2.35 
   0  12  -3   35.05    2.51 
   0  12   3   34.47    2.47 
   1 -12   3    2.64    0.51 
  -1 -12  -3    3.07    0.43 
   1 -12   3    3.30    0.51 
   1  12   3    4.00    0.69 
  -1  12  -3    3.88    0.66 
  -1  12  -3    4.27    0.65 
   2 -12   3    9.06    0.85 
  -2 -12  -3    8.77    0.69 
   2 -12   3    8.56    0.81 
   2  12   3    7.16    0.95 
  -2  12  -3    6.92    0.90 
  -2  12  -3    7.47    0.92 
   3 -12   3   11.18    1.02 
   3 -12   3   10.66    0.98 
  -3 -12  -3   10.04    0.85 
  -3  12  -3   11.34    1.09 
  -3  12  -3   10.97    1.03 
   3  12   3   11.75    1.18 
   4 -12   3    5.49    0.77 
  -4  12  -3    5.83    0.77 
  -4  12  -3    5.73    0.85 
   4  12   3    5.04    0.84 
   2 -13  -3   13.27    1.07 
  -2 -13   3   13.96    1.17 
  -2  13   3   13.72    1.28 
  -2  13   3   14.03    1.23 
   2  13  -3   13.93    1.29 
  -1 -13   3    5.41    0.77 
  -1 -13   3    4.49    0.54 
  -1  13   3    4.61    0.75 
   1  13  -3    3.61    0.66 
  -1  13   3    4.91    0.73 
   0 -13   3    2.31    0.42 
   0  13   3    2.16    0.53 
   0  13   3    1.57    0.50 
   0  13  -3    1.91    0.58 
   1 -13   3    5.52    0.67 
   1 -13   3    5.60    0.74 
   1  13   3    6.26    0.86 
  -1  13  -3    6.16    0.86 
  -1  13  -3    6.33    0.79 
   2 -13   3    0.32    0.33 
   2 -13   3    0.58    0.36 
  -2  13  -3    0.75    0.39 
   2  13   3    0.75    0.49 
  -2  13  -3    0.27    0.42 
  -9   0   4    2.54    0.53 
  -8   0   4   16.46    1.27 
  -7   0   4   14.38    1.12 
   7   0  -4   15.09    1.17 
   6   0  -4   59.72    3.57 
  -6   0   4   57.11    3.55 
  -5   0   4   13.08    0.88 
  -5   0   4   12.06    0.89 
   5   0  -4   12.43    0.90 
  -4   0   4   26.03    1.61 
   4   0  -4   25.11    1.61 
  -4   0   4   26.38    1.63 
  -4   0   4   25.68    1.55 
  -3   0   4    3.33    0.22 
  -3   0   4    3.06    0.30 
  -3   0   4    3.10    0.31 
  -2   0   4    0.85    0.14 
  -2   0   4    0.51    0.10 
  -2   0   4    0.46    0.10 
   2   0  -4    0.59    0.11 
   2   0  -4    0.55    0.11 
   1   0  -4   46.73    2.70 
   1   0  -4   44.59    2.66 
   1   0  -4   46.55    2.72 
  -1   0   4   45.70    2.72 
  -1   0   4   46.18    2.70 
  -1   0   4   46.93    2.69 
   0   0  -4   41.66    2.42 
   0   0   4   42.08    2.40 
   0   0   4   41.06    2.42 
   0   0   4   40.38    2.40 
   0   0  -4   40.05    2.41 
   0   0  -4   41.69    2.40 
   1   0   4  149.94    8.63 
  -1   0  -4  148.60    8.65 
  -1   0  -4  150.61    8.64 
   2   0   4  100.94    5.87 
   2   0   4  101.44    5.87 
  -3   0  -4  215.52   12.25 
   3   0   4  208.26   12.23 
   3   0   4  211.61   12.24 
  -4   0  -4  104.89    6.14 
  -5   0  -4   18.40    1.23 
  -6   0  -4    6.09    0.59 
  -7   0  -4   22.25    1.55 
   8   0   4    1.04    0.36 
  -9   0  -4    3.25    0.59 
   9   0   4    4.05    0.60 
  -9  -1   4    1.90    0.50 
  -9   1   4    1.94    0.50 
  -9   1   4    2.22    0.50 
  -8  -1   4    4.59    0.71 
  -8   1   4    3.71    0.61 
   7  -1  -4   20.80    1.47 
  -7  -1   4   19.73    1.42 
  -7   1   4   20.44    1.42 
   7   1  -4   19.51    1.46 
   6  -1  -4    0.63    0.27 
  -6  -1   4    0.55    0.25 
   6   1  -4    1.04    0.28 
  -6   1   4    0.99    0.27 
   5  -1  -4   19.16    1.34 
  -5  -1   4   18.84    1.34 
  -5  -1   4   17.91    1.25 
  -5   1   4   23.63    1.35 
   5   1  -4   22.87    1.36 
  -4  -1   4  104.48    6.15 
   4  -1  -4  111.55    6.23 
  -4  -1   4  110.29    6.24 
  -4  -1   4  107.56    6.24 
  -4   1   4  101.40    6.21 
   4   1  -4  102.05    6.22 
  -3  -1   4   31.74    2.05 
   3  -1  -4   32.84    2.11 
  -3  -1   4   31.90    2.12 
  -3  -1   4   32.24    2.12 
  -3   1   4   40.13    2.12 
   3   1  -4   39.44    2.13 
  -3   1   4   38.59    2.15 
  -2  -1   4  178.10   10.19 
   2  -1  -4  171.75   10.19 
   2  -1  -4  172.03   10.17 
  -2  -1   4  164.18   10.17 
   2   1  -4  179.46   10.20 
  -2   1   4  177.05   10.18 
  -2   1   4  187.10   10.17 
   2   1  -4  174.77   10.19 
  -2   1   4  181.33   10.20 
  -1  -1   4  379.96   23.80 
   1  -1  -4  368.36   23.01 
   1   1  -4  371.11   23.77 
  -1   1   4  377.54   23.07 
   0  -1  -4   36.27    2.05 
   0  -1  -4   33.15    2.07 
   0  -1  -4   33.27    2.04 
   0  -1   4   35.51    2.08 
   0  -1   4   36.32    2.07 
   0  -1  -4   36.33    2.05 
  -1  -1  -4   76.68    4.33 
   1  -1   4   70.58    4.29 
  -1  -1  -4   69.66    4.27 
  -1  -1  -4   71.87    4.27 
  -1  -1  -4   70.73    4.27 
   1   1   4   76.48    4.26 
  -1   1  -4   72.22    4.30 
   1   1   4   83.25    4.28 
  -1   1  -4   67.52    4.25 
  -1   1  -4   75.43    4.30 
   1   1   4   77.50    4.29 
   2  -1   4   66.16    4.00 
  -2  -1  -4   65.11    3.99 
   2  -1   4   67.91    4.01 
   2   1   4   72.10    3.98 
   2   1   4   68.90    3.98 
  -2   1  -4   70.75    4.01 
  -3  -1  -4   13.26    0.82 
   3  -1   4   12.30    0.84 
   3  -1   4   13.12    0.83 
   3   1   4   12.10    0.80 
  -3   1  -4   12.67    0.83 
   3   1   4   12.53    0.80 
  -4  -1  -4    6.09    0.49 
   4   1   4    6.28    0.46 
  -4   1  -4    5.84    0.50 
  -5  -1  -4    4.71    0.46 
  -6  -1  -4   29.30    1.79 
  -6   1  -4   25.48    1.79 
  -7  -1  -4    5.27    0.60 
  -7   1  -4    3.91    0.57 
  -8  -1  -4   11.43    1.06 
   8  -1   4   12.38    1.07 
  -8   1  -4   12.52    1.15 
   9  -1   4   17.04    1.40 
  -9  -1  -4   16.91    1.43 
  -9   1  -4   19.84    1.47 
   9   1   4   19.62    1.38 
  -9  -2   4   29.54    2.06 
  -9   2   4   28.37    2.00 
  -9   2   4   29.40    2.03 
  -8  -2   4    2.72    0.70 
  -8   2   4    6.03    0.95 
  -8   2   4    3.92    0.59 
   7  -2  -4   17.94    1.33 
  -7  -2   4   16.88    1.29 
  -7   2   4   17.85    1.28 
  -7   2   4   18.06    1.27 
   7   2  -4   17.17    1.32 
   6  -2  -4   38.60    2.44 
  -6   2   4   39.63    2.39 
   6   2  -4   36.26    2.42 
   5  -2  -4   10.04    0.74 
  -5  -2   4    9.94    0.75 
  -5  -2   4    9.69    0.76 
  -5  -2   4    9.07    0.65 
  -4  -2   4    4.17    0.30 
  -4  -2   4    4.05    0.40 
  -4  -2   4    3.96    0.39 
   4  -2  -4    4.15    0.38 
   4   2  -4    3.68    0.37 
  -4   2   4    3.39    0.35 
  -4   2   4    3.36    0.36 
   3  -2  -4   25.01    1.57 
  -3  -2   4   25.31    1.52 
  -3  -2   4   24.95    1.58 
  -3  -2   4   25.12    1.58 
   3   2  -4   24.57    1.56 
  -3   2   4   25.66    1.57 
  -3   2   4   27.48    1.52 
  -3   2   4   26.57    1.55 
  -2  -2   4   78.29    4.65 
   2  -2  -4   74.95    4.63 
   2  -2  -4   76.80    4.62 
  -2  -2   4   79.19    4.59 
  -2  -2   4   75.84    4.64 
   2  -2  -4   76.06    4.61 
  -2  -2   4   78.73    4.62 
  -2   2   4   86.41    4.61 
   2   2  -4   80.16    4.63 
  -2   2   4   81.99    4.65 
   2   2  -4   81.89    4.60 
  -2   2   4   81.38    4.59 
  -2   2   4   81.80    4.63 
   2   2  -4   79.72    4.65 
  -2   2   4   77.23    4.62 
   1  -2  -4    5.81    0.39 
   1  -2  -4    5.62    0.39 
   1  -2  -4    5.99    0.36 
   1  -2  -4    5.60    0.37 
   1  -2  -4    5.40    0.38 
  -1  -2   4    5.30    0.41 
   0  -2   4   14.52    0.85 
   0  -2   4   14.66    0.90 
   0  -2   4   15.27    0.91 
   0  -2  -4   14.67    0.84 
   0  -2  -4   14.09    0.89 
   0  -2  -4   14.62    0.84 
   0  -2  -4   14.77    0.87 
   0  -2  -4   14.54    0.87 
   0   2   4   13.99    0.87 
   0   2   4   13.38    0.89 
   0   2   4   13.19    0.88 
  -1  -2  -4  147.95    7.79 
  -1  -2  -4  135.62    7.68 
   1  -2   4  134.00    7.73 
   1  -2   4  142.06    7.75 
  -1  -2  -4  138.64    7.68 
  -1  -2  -4  131.85    7.71 
  -1   2  -4  122.97    7.72 
  -1   2  -4  123.47    7.68 
   1   2   4  123.60    7.68 
   2  -2   4   50.75    2.83 
  -2  -2  -4   50.69    2.80 
   2  -2   4   47.33    2.82 
  -2   2  -4   44.59    2.82 
   2   2   4   47.23    2.77 
  -2   2  -4   46.83    2.78 
   2   2   4   46.76    2.77 
  -3  -2  -4   36.34    2.02 
   3  -2   4   34.72    2.04 
   3   2   4   33.01    1.98 
   3   2   4   30.57    1.98 
  -3   2  -4   33.12    2.03 
   4  -2   4  121.34    7.50 
  -4  -2  -4  129.94    7.49 
   4   2   4  128.54    7.49 
  -4   2  -4  133.98    7.52 
  -5  -2  -4   23.18    1.55 
  -5   2  -4   25.49    1.59 
  -6  -2  -4   47.36    3.04 
  -6   2  -4   51.73    3.07 
  -7  -2  -4   19.68    1.43 
  -7   2  -4   21.14    1.46 
   8  -2   4    0.94    0.39 
  -8  -2  -4    0.80    0.37 
   8   2   4    0.39    0.29 
  -8   2  -4    0.91    0.38 
  -8   2  -4    0.49    0.32 
  -9  -2  -4    1.02    0.43 
   9  -2   4    1.15    0.44 
   9   2   4    0.78    0.34 
  -9   2  -4    0.60    0.41 
  -9   2  -4    0.74    0.37 
  -9  -3   4    1.29    0.46 
  -9   3   4    1.31    0.46 
  -9   3   4    1.16    0.40 
  -8  -3   4    1.33    0.42 
  -8   3   4    1.41    0.27 
  -8   3   4    1.31    0.41 
  -8   3   4    1.44    0.39 
   7  -3  -4   11.34    0.97 
  -7  -3   4   11.32    0.97 
   7   3  -4   11.46    0.98 
  -7   3   4   11.27    0.80 
  -7   3   4   10.51    0.92 
  -7   3   4   10.70    0.89 
  -6  -3   4    2.26    0.38 
  -6   3   4    1.96    0.34 
  -6   3   4    2.87    0.32 
  -6   3   4    2.44    0.39 
   6   3  -4    2.11    0.49 
  -5  -3   4   40.32    2.55 
  -5  -3   4   38.65    2.43 
   5  -3  -4   40.11    2.43 
  -5   3   4   39.41    2.40 
   5   3  -4   39.11    2.44 
  -5   3   4   38.59    2.35 
  -4  -3   4  155.05    8.95 
  -4  -3   4  148.75    8.87 
  -4  -3   4  157.76    8.96 
   4  -3  -4  155.58    8.93 
  -4   3   4  156.12    8.88 
   4   3  -4  147.43    8.93 
  -4   3   4  156.13    8.94 
  -4   3   4  150.05    8.90 
  -3  -3   4   20.01    1.37 
  -3  -3   4   20.16    1.30 
   3  -3  -4   19.88    1.34 
  -3  -3   4   19.88    1.36 
  -3   3   4   22.96    1.32 
  -3   3   4   23.37    1.37 
   3   3  -4   22.23    1.35 
   3   3  -4   25.31    1.39 
   2  -3  -4   80.89    4.47 
   2  -3  -4   75.99    4.48 
  -2  -3   4   81.18    4.46 
  -2  -3   4   82.22    4.50 
   2  -3  -4   81.26    4.45 
  -2  -3   4   80.61    4.51 
  -2  -3   4   76.47    4.44 
  -2   3   4   76.26    4.48 
  -2   3   4   76.63    4.42 
   2   3  -4   74.14    4.46 
  -2   3   4   74.54    4.45 
   2   3  -4   69.12    4.48 
  -2   3   4   72.07    4.46 
   2   3  -4   69.44    4.45 
  -1  -3   4  112.52    6.77 
  -1  -3   4  113.46    6.76 
  -1  -3   4  118.31    6.80 
   1  -3  -4  121.19    6.77 
   1  -3  -4  117.28    6.76 
  -1  -3   4  116.44    6.80 
   1  -3  -4  118.19    6.73 
   1  -3  -4  119.77    6.77 
  -1   3   4  115.18    6.79 
  -1   3   4  117.72    6.78 
   1   3  -4  108.09    6.76 
   1   3  -4  112.89    6.76 
  -1   3   4  126.98    6.77 
   1   3  -4  116.36    6.79 
   1   3  -4  116.83    6.79 
   0   3   4   13.98    0.89 
   0   3   4   13.95    0.84 
   0   3   4   13.38    0.89 
   0   3  -4   13.49    0.85 
   0   3  -4   12.59    0.88 
   0   3  -4   16.31    0.88 
   0   3  -4   13.97    0.88 
  -1  -3  -4  140.76    8.53 
   1  -3   4  145.98    8.49 
  -1  -3  -4  157.42    8.47 
  -1  -3  -4  144.84    8.55 
   1  -3   4  149.00    8.55 
   1  -3   4  148.03    8.54 
   1   3   4  142.73    8.57 
  -1   3  -4  148.97    8.54 
   1   3   4  146.72    8.54 
  -1   3  -4  142.71    8.50 
   1   3   4  153.32    8.48 
  -2  -3  -4   51.89    3.25 
   2  -3   4   52.91    3.25 
  -2  -3  -4   54.98    3.20 
   2   3   4   58.19    3.18 
  -2   3  -4   56.54    3.22 
   3  -3   4    7.05    0.58 
  -3  -3  -4    7.62    0.54 
   3   3   4    8.04    0.50 
   3   3   4    8.24    0.50 
  -3   3  -4    7.81    0.54 
   3   3   4    7.82    0.50 
  -3   3  -4    7.96    0.58 
  -4  -3  -4    7.91    0.57 
   4  -3   4    7.68    0.61 
   4   3   4    7.57    0.52 
  -4   3  -4    7.79    0.56 
   4   3   4    7.25    0.51 
   4   3   4    7.40    0.52 
   5  -3   4    1.24    0.28 
  -5  -3  -4    1.34    0.25 
   5   3   4    1.31    0.20 
  -5   3  -4    1.40    0.26 
  -5   3  -4    1.07    0.27 
   6  -3   4   51.26    3.16 
  -6  -3  -4   50.24    3.13 
  -6   3  -4   50.29    3.11 
  -6   3  -4   52.67    3.16 
  -7  -3  -4    1.49    0.37 
   7  -3   4    1.38    0.38 
  -7   3  -4    2.44    0.38 
   8  -3   4    7.15    0.77 
  -8   3  -4    5.53    0.73 
   8   3   4    5.46    0.61 
  -8   3  -4    5.62    0.68 
  -8   4   4    1.68    0.37 
  -8   4   4    1.72    0.46 
  -7  -4   4   10.44    0.95 
   7  -4  -4   10.99    0.95 
  -7   4   4   10.29    0.85 
  -7   4   4   10.65    0.79 
  -7   4   4   10.87    0.93 
   6  -4  -4   30.25    1.90 
  -6  -4   4   30.96    1.93 
   6   4  -4   26.39    2.04 
  -6   4   4   28.28    1.88 
  -6   4   4   27.05    1.82 
  -6   4   4   28.89    1.78 
  -5  -4   4    9.51    0.90 
   5  -4  -4   10.00    0.87 
  -5   4   4   13.91    0.93 
  -5   4   4   13.80    0.84 
  -5   4   4   13.20    0.86 
   5   4  -4   13.30    0.91 
  -4  -4   4   23.44    1.59 
  -4  -4   4   23.75    1.57 
   4  -4  -4   23.77    1.56 
  -4   4   4   25.56    1.53 
  -4   4   4   25.60    1.59 
  -4   4   4   25.83    1.53 
   4   4  -4   25.55    1.57 
  -3  -4   4   24.43    1.57 
   3  -4  -4   25.40    1.53 
  -3  -4   4   25.36    1.56 
  -3  -4   4   22.25    1.50 
  -3   4   4   24.81    1.55 
  -3   4   4   25.70    1.51 
  -3   4   4   24.78    1.48 
   3   4  -4   25.05    1.54 
   3   4  -4   25.06    1.53 
  -2  -4   4    2.97    0.26 
  -2  -4   4    3.67    0.34 
  -2  -4   4    3.33    0.26 
   2  -4  -4    3.63    0.26 
  -2  -4   4    3.42    0.32 
  -2  -4   4    3.58    0.33 
   2  -4  -4    3.53    0.28 
  -2   4   4    2.97    0.26 
   2   4  -4    2.99    0.31 
   2   4  -4    3.01    0.27 
  -2   4   4    3.23    0.29 
  -2   4   4    2.86    0.32 
   1  -4  -4   29.02    1.74 
   1  -4  -4   29.77    1.70 
   1  -4  -4   28.12    1.75 
  -1  -4   4   28.68    1.78 
  -1  -4   4   27.66    1.78 
   1  -4  -4   31.40    1.74 
  -1   4   4   29.20    1.78 
  -1   4   4   28.70    1.76 
   1   4  -4   29.82    1.76 
   1   4  -4   28.42    1.73 
   0  -4  -4   34.27    2.08 
   0  -4  -4   30.73    2.04 
   0  -4   4   32.68    2.06 
   0  -4   4   31.67    2.01 
   0  -4  -4   32.97    1.99 
   0  -4   4   33.53    2.06 
   0   4  -4   37.70    2.03 
   0   4   4   35.50    2.06 
   0   4   4   36.72    2.07 
   0   4  -4   34.71    2.01 
   1  -4   4  165.84   10.26 
  -1  -4  -4  171.35   10.17 
   1  -4   4  157.80   10.21 
   1   4   4  186.24   10.27 
  -1   4  -4  184.75   10.25 
  -1   4  -4  177.51   10.22 
   1   4   4  195.94   10.30 
  -2  -4  -4   66.61    4.15 
   2  -4   4   63.26    4.21 
  -2   4  -4   74.83    4.19 
   2   4   4   80.22    4.30 
  -2   4  -4   73.20    4.22 
   3  -4   4   54.88    3.16 
  -3  -4  -4   53.90    3.10 
  -3   4  -4   50.13    3.13 
  -3   4  -4   50.24    3.10 
   3   4   4   53.99    3.02 
   3   4   4   51.24    3.02 
  -4  -4  -4   64.62    3.67 
   4  -4   4   63.39    3.71 
  -4   4  -4   62.27    3.70 
   4   4   4   58.89    3.58 
   4   4   4   58.87    3.59 
  -4   4  -4   61.90    3.66 
   4   4   4   62.20    3.59 
   5  -4   4   15.14    1.02 
  -5  -4  -4   16.04    0.98 
  -5   4  -4   12.45    0.94 
   5   4   4   12.65    0.87 
   5   4   4   12.69    0.87 
  -5   4  -4   13.22    0.99 
   6  -4   4   30.80    1.92 
  -6  -4  -4   30.28    1.87 
  -6   4  -4   26.58    1.88 
  -6   4  -4   27.15    1.84 
   7  -4   4    8.92    0.86 
  -7  -4  -4    9.40    0.82 
  -7   4  -4    8.48    0.79 
  -7   4  -4    8.49    0.82 
  -8  -4  -4    0.12    0.29 
   8  -4   4    0.09    0.36 
  -8   4  -4    0.49    0.33 
  -8   4  -4    0.53    0.36 
   8   4   4    0.26    0.24 
  -8  -5   4    0.12    0.37 
  -8   5   4    0.47    0.38 
  -8   5   4    0.72    0.27 
  -8   5   4    0.77    0.32 
  -7  -5   4    6.63    0.73 
  -7   5   4    5.56    0.69 
  -7   5   4    5.44    0.55 
  -7   5   4    5.46    0.58 
   6  -5  -4    5.55    0.66 
  -6  -5   4    5.30    0.68 
  -6   5   4    7.89    0.62 
   6   5  -4    7.19    0.69 
  -6   5   4    7.59    0.73 
  -6   5   4    7.91    0.60 
   5   5  -4    7.96    0.69 
  -5   5   4    8.71    0.76 
  -5   5   4    8.92    0.65 
  -5   5   4    8.31    0.63 
  -4  -5   4   48.84    3.10 
   4  -5  -4   51.80    3.06 
  -4  -5   4   47.22    3.06 
   4   5  -4   50.72    3.05 
   4   5  -4   51.02    3.10 
  -4   5   4   51.14    3.01 
  -4   5   4   55.14    3.14 
  -4   5   4   51.07    3.04 
   3  -5  -4   20.64    1.43 
  -3  -5   4   20.39    1.48 
  -3  -5   4   20.43    1.46 
   3   5  -4   24.28    1.49 
   3   5  -4   24.06    1.44 
  -3   5   4   25.68    1.46 
  -3   5   4   24.95    1.50 
  -3   5   4   24.64    1.38 
  -2  -5   4  118.63    6.80 
  -2  -5   4  114.03    6.81 
   2  -5  -4  121.09    6.75 
   2   5  -4  112.96    6.74 
   2   5  -4  117.49    6.79 
  -2   5   4  113.57    6.80 
  -2   5   4  115.94    6.78 
  -1  -5   4  142.90    7.96 
  -1  -5   4  139.04    7.97 
   1  -5  -4  133.16    7.89 
  -1  -5   4  138.56    7.95 
   1  -5  -4  138.26    7.91 
   1  -5  -4  137.42    7.87 
  -1   5   4  136.41    7.95 
   1   5  -4  124.45    7.88 
  -1   5   4  140.18    7.97 
   1   5  -4  135.17    7.94 
   0  -5   4   35.60    2.33 
   0  -5   4   35.63    2.36 
   0  -5   4   34.62    2.36 
   0  -5  -4   35.81    2.29 
   0  -5  -4   34.56    2.27 
   0   5  -4   43.01    2.30 
   0   5  -4   45.20    2.36 
   0   5  -4   41.95    2.37 
   0   5   4   42.72    2.39 
   0   5   4   43.92    2.40 
  -1  -5  -4   58.66    3.17 
   1  -5   4   56.47    3.22 
   1  -5   4   57.82    3.27 
   1   5   4   51.55    3.28 
   1   5   4   53.33    3.27 
  -1   5  -4   51.85    3.24 
  -1   5  -4   53.45    3.25 
  -1   5  -4   53.81    3.23 
   2  -5   4   39.29    2.26 
  -2  -5  -4   38.86    2.16 
  -2   5  -4   34.72    2.21 
   2   5   4   36.56    2.30 
  -2   5  -4   34.11    2.22 
   3  -5   4   15.52    1.12 
  -3  -5  -4   15.11    1.05 
  -3   5  -4   18.37    1.10 
  -3   5  -4   18.29    1.12 
   4  -5   4    0.07    0.30 
  -4  -5  -4    0.04    0.13 
  -4   5  -4    0.35    0.21 
  -4   5  -4    0.04    0.17 
   5  -5   4    1.96    0.41 
  -5   5  -4    0.81    0.29 
   5   5   4    1.14    0.17 
   5   5   4    1.03    0.15 
   5   5   4    0.89    0.14 
  -6  -5  -4   21.37    1.48 
   6  -5   4   23.15    1.57 
  -6   5  -4   21.47    1.49 
   6   5   4   22.79    1.37 
  -6   5  -4   21.79    1.52 
  -7  -5  -4    1.24    0.36 
   7  -5   4    1.33    0.40 
  -7   5  -4    1.61    0.39 
   7   5   4    1.68    0.26 
  -7   5  -4    1.68    0.39 
   8  -5   4    5.87    0.83 
  -8  -5  -4    5.50    0.73 
   8   5   4    7.33    0.58 
  -8   5  -4    8.35    0.81 
  -8   5  -4    7.65    0.82 
  -8  -6   4    4.54    0.73 
  -8   6   4    5.78    0.58 
  -8   6   4    6.11    0.82 
  -8   6   4    6.03    0.62 
  -7  -6   4   16.13    1.40 
  -7   6   4   20.76    1.53 
  -7   6   4   17.68    1.23 
  -7   6   4   17.46    1.22 
  -6  -6   4   36.89    2.46 
   6  -6  -4   39.00    2.42 
  -6   6   4   37.50    2.32 
  -6   6   4   37.64    2.35 
  -6   6   4   38.05    2.46 
  -5   6   4    1.15    0.26 
  -5   6   4    1.05    0.31 
  -5   6   4    1.24    0.22 
   5   6  -4    1.04    0.31 
  -4  -6   4    9.93    0.78 
  -4  -6   4   11.61    0.87 
   4  -6  -4   10.99    0.78 
  -4   6   4   10.76    0.79 
  -4   6   4   10.95    0.70 
  -4   6   4   10.57    0.85 
   4   6  -4   11.24    0.87 
   4   6  -4   10.78    0.78 
  -3  -6   4   11.59    0.75 
  -3  -6   4   11.58    0.79 
   3  -6  -4   10.47    0.68 
  -3   6   4    8.99    0.76 
   3   6  -4    8.41    0.67 
  -3   6   4    9.63    0.72 
   3   6  -4    8.85    0.75 
  -2  -6   4   14.01    0.94 
  -2  -6   4   12.91    0.96 
   2  -6  -4   14.12    0.87 
  -2   6   4   13.71    0.97 
  -2   6   4   13.39    0.93 
   2   6  -4   13.88    0.86 
   2   6  -4   13.64    0.96 
   1  -6  -4    7.08    0.43 
  -1  -6   4    7.36    0.54 
  -1  -6   4    6.84    0.54 
   1  -6  -4    6.71    0.45 
   1   6  -4    6.02    0.53 
  -1   6   4    5.56    0.52 
   1   6  -4    5.58    0.42 
  -1   6   4    5.98    0.55 
   0  -6  -4   10.59    0.64 
   0  -6  -4   10.63    0.66 
   0  -6   4   10.84    0.76 
   0  -6  -4    9.65    0.74 
   0  -6   4   10.87    0.76 
   0  -6  -4   10.54    0.64 
   1  -6   4   77.17    4.56 
  -1  -6  -4   79.61    4.46 
  -1   6  -4   65.86    4.54 
  -1   6  -4   78.13    4.53 
  -1   6  -4   75.42    4.52 
   1   6   4   78.33    4.58 
   1   6   4   83.85    4.61 
  -2   6  -4   25.52    1.60 
  -2   6  -4   25.94    1.65 
   2   6   4   28.86    1.76 
  -2   6  -4   26.10    1.66 
  -2   6  -4   26.49    1.69 
  -3  -6  -4   65.77    4.11 
   3  -6   4   65.69    4.19 
  -3   6  -4   74.04    4.17 
  -3   6  -4   74.38    4.18 
   3   6   4   70.69    4.28 
   4  -6   4   84.98    5.10 
  -4  -6  -4   83.30    5.01 
  -4   6  -4   85.07    5.06 
  -4   6  -4   87.10    5.05 
  -5  -6  -4   16.15    1.09 
   5  -6   4   14.98    1.16 
  -5   6  -4   15.52    1.13 
  -5   6  -4   15.98    1.12 
  -6  -6  -4    6.02    0.69 
   6  -6   4    7.10    0.79 
  -6   6  -4    9.86    0.79 
  -6   6  -4    9.94    0.80 
  -7  -6  -4   17.65    1.35 
   7  -6   4   18.45    1.45 
  -7   6  -4   19.47    1.40 
  -7   6  -4   19.36    1.40 
  -8  -6  -4   -0.06    0.29 
   8  -6   4    0.25    0.41 
  -8   6  -4    0.09    0.33 
  -8   6  -4    0.44    0.36 
  -8  -7   4    1.09    0.45 
  -8   7   4    0.90    0.34 
  -8   7   4    0.97    0.46 
  -8   7   4    0.87    0.28 
  -7  -7   4   11.90    1.11 
  -7   7   4   12.55    1.12 
  -7   7   4   12.48    0.89 
  -7   7   4   12.26    0.94 
  -6  -7   4    1.11    0.38 
  -6   7   4    0.77    0.33 
  -6   7   4    1.03    0.23 
  -6   7   4    1.00    0.29 
   5  -7  -4    9.15    0.70 
  -5  -7   4    9.24    0.78 
  -5   7   4    6.95    0.66 
  -5   7   4    7.32    0.56 
  -5   7   4    7.42    0.78 
  -4  -7   4   63.29    3.80 
  -4  -7   4   59.61    3.72 
   4  -7  -4   63.96    3.70 
  -4   7   4   64.29    3.80 
  -4   7   4   60.15    3.59 
   4   7  -4   60.60    3.79 
   4   7  -4   60.15    3.69 
  -4   7   4   64.24    3.74 
  -3  -7   4   19.56    1.32 
  -3  -7   4   20.22    1.38 
   3  -7  -4   19.99    1.27 
   3   7  -4   20.17    1.38 
   3   7  -4   21.87    1.28 
  -3   7   4   19.66    1.34 
  -3   7   4   19.99    1.39 
  -2  -7   4   42.32    2.65 
   2  -7  -4   42.86    2.57 
  -2  -7   4   42.12    2.68 
   2   7  -4   45.22    2.58 
  -2   7   4   43.65    2.70 
   2   7  -4   42.75    2.68 
  -2   7   4   45.26    2.67 
   1  -7  -4   96.34    6.07 
  -1  -7   4  102.94    6.14 
  -1  -7   4  102.66    6.16 
   1   7  -4  109.13    6.17 
   1   7  -4  104.70    6.03 
  -1   7   4  106.53    6.18 
  -1   7   4  108.40    6.17 
   0  -7   4    7.76    0.63 
   0  -7  -4    7.55    0.50 
   0  -7  -4    7.24    0.50 
   0  -7  -4    7.78    0.51 
   0  -7   4    7.21    0.61 
   0  -7  -4    7.53    0.50 
   0   7   4    8.46    0.68 
   0   7   4    8.34    0.66 
   0   7  -4    8.11    0.62 
   0   7  -4    7.76    0.47 
   0   7  -4    8.33    0.65 
  -1  -7  -4   17.87    0.96 
   1  -7   4   18.11    1.09 
   1  -7   4   17.95    1.08 
  -1   7  -4   15.07    1.07 
   1   7   4   14.30    1.09 
  -1   7  -4   14.60    0.93 
   1   7   4   14.23    1.10 
  -1   7  -4   13.50    0.93 
  -1   7  -4   14.63    1.04 
  -2  -7  -4   20.53    1.26 
  -2  -7  -4   19.78    1.27 
   2  -7   4   21.10    1.37 
   2   7   4   22.65    1.70 
  -2   7  -4   20.81    1.32 
  -2   7  -4   23.10    1.50 
  -2   7  -4   18.07    1.25 
  -2   7  -4   19.71    1.33 
   3  -7   4    2.06    0.37 
  -3  -7  -4    2.12    0.28 
   3   7   4    2.62    0.45 
  -3   7  -4    2.78    0.42 
  -3   7  -4    3.30    0.43 
  -3   7  -4    3.28    0.38 
  -4  -7  -4    3.50    0.38 
   4  -7   4    3.65    0.49 
  -4   7  -4    3.37    0.50 
  -4   7  -4    3.24    0.49 
  -4   7  -4    3.19    0.47 
  -5  -7  -4    0.16    0.20 
   5  -7   4    0.07    0.27 
  -5   7  -4    0.08    0.23 
  -5   7  -4    0.37    0.26 
  -6  -7  -4   15.07    1.07 
   6  -7   4   16.58    1.21 
  -6   7  -4   12.51    1.09 
  -6   7  -4   12.69    1.09 
  -7  -7  -4    2.30    0.44 
   7  -7   4    2.15    0.52 
  -7   7  -4    2.28    0.46 
  -7  -8   4    5.67    0.79 
  -7   8   4    4.79    0.61 
  -7   8   4    5.85    0.49 
  -7   8   4    6.11    0.84 
  -6  -8   4   12.62    1.08 
  -6   8   4   12.08    1.10 
  -6   8   4   11.12    0.92 
  -6   8   4   10.96    0.80 
  -5  -8   4    3.73    0.59 
  -5  -8   4    3.88    0.49 
   5   8  -4    5.43    0.68 
  -5   8   4    4.64    0.66 
  -5   8   4    4.92    0.55 
  -4  -8   4    4.61    0.49 
   4  -8  -4    5.08    0.47 
  -4  -8   4    4.60    0.60 
  -4   8   4    5.59    0.56 
  -4   8   4    5.02    0.66 
   4   8  -4    5.19    0.65 
  -3  -8   4    9.50    0.74 
  -3  -8   4    8.79    0.80 
   3  -8  -4    9.32    0.66 
  -3   8   4   10.34    0.79 
  -3   8   4    9.55    0.85 
   3   8  -4   10.04    0.84 
  -2  -8   4   18.28    1.26 
  -2  -8   4   17.98    1.35 
   2  -8  -4   19.44    1.16 
  -2   8   4   19.27    1.34 
   2   8  -4   19.62    1.61 
   1  -8  -4    8.39    0.51 
   1  -8  -4    8.44    0.56 
  -1  -8   4    8.00    0.65 
  -1  -8   4    8.29    0.68 
  -1   8   4    6.56    0.69 
   1   8  -4    7.34    0.70 
  -1   8   4    6.67    0.76 
   0  -8  -4   28.33    1.78 
   0  -8   4   28.92    1.93 
   0  -8  -4   29.42    1.80 
   0  -8   4   28.95    1.91 
   0  -8  -4   28.50    1.82 
   0   8  -4   33.84    1.94 
   0   8   4   32.37    2.06 
   0   8   4   34.23    2.00 
  -1  -8  -4   36.86    2.22 
   1  -8   4   38.11    2.37 
  -1  -8  -4   37.14    2.25 
  -1  -8  -4   36.28    2.23 
   1  -8   4   37.80    2.36 
   1   8   4   38.32    2.41 
   1   8   4   38.69    2.43 
  -1   8  -4   38.50    2.35 
  -1   8  -4   39.41    2.39 
  -2  -8  -4   11.45    0.84 
  -2  -8  -4   12.07    0.86 
   2  -8   4   12.62    0.98 
  -2   8  -4   14.34    1.02 
   2   8   4   15.09    1.10 
  -2   8  -4   14.53    0.98 
  -2   8  -4   14.55    0.82 
   3  -8   4   26.08    1.62 
  -3  -8  -4   23.72    1.47 
   3   8   4   23.83    1.69 
  -3   8  -4   23.76    1.65 
  -3   8  -4   21.86    1.58 
  -3   8  -4   22.31    1.52 
   4  -8   4   51.32    3.24 
  -4  -8  -4   51.10    3.15 
  -4   8  -4   53.48    3.19 
  -4   8  -4   53.75    3.22 
  -4   8  -4   50.72    3.24 
  -5   8  -4    1.11    0.38 
  -5   8  -4    1.13    0.32 
  -5   8  -4    0.88    0.32 
  -6  -8  -4   20.18    1.42 
   6  -8   4   21.03    1.54 
  -6   8  -4   19.46    1.47 
  -6   8  -4   20.31    1.52 
   7  -8   4    8.00    0.91 
  -7  -8  -4    7.51    0.90 
  -7   8  -4    7.84    0.81 
  -7   8  -4    7.49    0.85 
  -7   8  -4    7.18    0.87 
  -7  -9   4    8.18    0.92 
  -7   9   4    6.74    0.90 
  -6  -9   4    0.33    0.38 
  -6   9   4    1.11    0.35 
  -6   9   4    1.09    0.43 
  -5  -9   4    8.00    0.69 
  -5  -9   4    7.18    0.82 
   5   9  -4    9.53    0.92 
  -5   9   4    8.67    0.79 
  -5   9   4    9.24    0.91 
  -4  -9   4   32.40    1.96 
  -4  -9   4   34.14    2.10 
  -4   9   4   29.83    2.02 
  -4   9   4   28.58    2.08 
   4   9  -4   29.80    2.10 
  -3  -9   4   13.18    1.08 
  -3  -9   4   13.44    1.17 
  -3   9   4   18.25    1.25 
   3   9  -4   17.63    1.24 
  -3   9   4   17.58    1.19 
  -2  -9   4   12.40    0.95 
  -2  -9   4   12.81    0.89 
   2  -9  -4   13.22    0.84 
   2   9  -4   10.40    1.00 
  -2   9   4    9.30    0.94 
  -1  -9   4   46.64    2.74 
   1  -9  -4   47.37    2.66 
  -1  -9   4   49.01    2.79 
  -1   9   4   43.01    2.80 
   1   9  -4   41.62    2.78 
  -1   9   4   38.09    2.77 
   0  -9  -4   16.00    1.03 
   0  -9  -4   14.67    0.97 
   0  -9   4   13.89    1.17 
   0  -9   4   14.96    1.14 
   0  -9  -4   14.85    0.97 
   0   9  -4   19.43    1.25 
   0   9   4   18.28    1.36 
   0   9  -4   19.81    1.34 
   1  -9   4   17.77    1.33 
  -1  -9  -4   18.63    1.21 
   1  -9   4   18.34    1.32 
   1   9   4   21.45    1.43 
  -1   9  -4   20.54    1.35 
   1   9   4   18.25    1.38 
  -1   9  -4   20.12    1.37 
  -2  -9  -4   18.11    1.15 
   2  -9   4   21.15    1.61 
  -2  -9  -4   17.73    1.09 
  -2   9  -4   17.07    1.26 
  -2   9  -4   18.20    1.31 
   2   9   4   17.47    1.37 
   3  -9   4    2.11    0.42 
  -3  -9  -4    1.89    0.30 
  -3   9  -4    3.23    0.66 
  -3   9  -4    2.73    0.40 
  -3   9  -4    3.04    0.49 
   3   9   4    3.99    0.62 
   4  -9   4    1.29    0.38 
  -4  -9  -4    1.06    0.26 
  -4   9  -4    0.96    0.29 
  -4   9  -4    0.99    0.37 
  -4   9  -4    0.71    0.31 
  -5  -9  -4    1.84    0.36 
   5  -9   4    2.20    0.49 
  -5   9  -4    1.39    0.60 
  -5   9  -4    2.41    0.46 
  -5   9  -4    2.70    0.42 
  -6  -9  -4    7.38    0.75 
   6  -9   4    7.73    0.89 
  -6   9  -4    7.82    0.85 
  -6   9  -4    7.94    0.87 
  -6   9  -4    7.94    0.77 
  -6 -10   4    8.83    0.97 
  -6  10   4    9.01    0.86 
  -6  10   4    8.42    1.00 
  -5 -10   4    0.30    0.20 
  -5  10   4    0.15    0.31 
  -5  10   4    0.18    0.36 
   5  10  -4    0.19    0.37 
   4 -10  -4   12.01    0.98 
  -4 -10   4   11.48    1.01 
  -4 -10   4   12.07    0.86 
  -4  10   4    9.93    0.94 
   4  10  -4   11.08    1.07 
  -4  10   4   11.05    1.04 
   3 -10  -4    6.88    0.61 
  -3 -10   4    7.02    0.73 
  -3  10   4    6.81    0.73 
   3  10  -4    6.54    0.78 
  -3  10   4    6.27    0.77 
  -2 -10   4    2.86    0.47 
   2 -10  -4    3.41    0.39 
   2  10  -4    3.99    0.60 
  -2  10   4    4.09    0.61 
  -2  10   4    3.20    0.51 
  -1 -10   4    2.23    0.43 
  -1 -10   4    2.38    0.40 
   1 -10  -4    2.67    0.33 
   1  10  -4    2.22    0.48 
  -1  10   4    2.36    0.47 
  -1  10   4    2.36    0.45 
   0 -10  -4    5.62    0.38 
   0 -10   4    6.20    0.61 
   0 -10   4    6.48    0.67 
   0 -10  -4    6.41    0.49 
   0 -10  -4    5.90    0.38 
   0  10  -4    5.76    0.70 
   0  10   4    5.39    0.72 
   0  10  -4    5.96    0.75 
   0  10   4    6.15    0.70 
   1 -10   4   49.85    3.02 
   1 -10   4   50.05    3.04 
  -1 -10  -4   49.16    2.90 
  -1  10  -4   47.93    3.06 
   1  10   4   46.07    3.09 
  -1  10  -4   47.98    3.06 
   1  10   4   47.43    3.08 
   2 -10   4    6.83    0.72 
   2 -10   4    7.35    0.75 
  -2 -10  -4    6.97    0.58 
   2  10   4    8.01    0.87 
  -2  10  -4    8.71    0.81 
  -2  10  -4    8.07    0.75 
  -3 -10  -4   13.53    0.86 
   3 -10   4   14.82    1.06 
  -3  10  -4   10.14    1.00 
   3  10   4    9.64    1.08 
  -3  10  -4   10.97    0.98 
  -4 -10  -4   23.68    1.54 
   4 -10   4   23.90    1.69 
   4  10   4   25.04    2.17 
  -4  10  -4   21.59    1.63 
   5 -10   4    3.12    0.56 
  -5 -10  -4    2.81    0.46 
  -6 -10  -4    4.11    0.57 
   6 -10   4    3.21    0.62 
  -6  10  -4    4.40    0.74 
  -6  10  -4    4.40    0.63 
  -6  10  -4    4.03    0.56 
   5 -11  -4    2.13    0.45 
  -5 -11   4    2.04    0.51 
   5  11  -4    2.26    0.57 
  -5  11   4    2.03    0.57 
  -5  11   4    2.14    0.48 
   4 -11  -4   14.22    1.12 
  -4 -11   4   13.99    1.02 
  -4  11   4   15.07    1.27 
  -4  11   4   16.45    1.67 
   3 -11  -4    5.74    0.61 
  -3 -11   4    6.33    0.59 
  -3 -11   4    6.29    0.74 
  -3  11   4    7.10    0.82 
  -3  11   4    6.86    0.78 
   3  11  -4    7.23    0.84 
   2 -11  -4   19.26    1.30 
  -2 -11   4   19.23    1.33 
  -2 -11   4   19.57    1.43 
   2  11  -4   19.20    1.49 
  -2  11   4   18.79    1.47 
  -2  11   4   20.73    1.48 
   1 -11  -4   20.64    1.35 
  -1 -11   4   19.82    1.47 
  -1 -11   4   21.08    1.49 
  -1  11   4   20.34    1.55 
   1  11  -4   21.30    1.56 
  -1  11   4   19.81    1.51 
   0 -11   4    3.67    0.57 
   0 -11  -4    3.52    0.39 
   0 -11   4    3.92    0.53 
   0  11   4    2.61    0.51 
   0  11   4    4.31    0.64 
   0  11  -4    3.42    0.55 
   1 -11   4    8.77    0.83 
  -1 -11  -4    9.15    0.66 
   1 -11   4    8.81    0.79 
  -1  11  -4    8.26    0.88 
   1  11   4    7.47    0.89 
  -1  11  -4    7.62    0.81 
  -2 -11  -4    6.84    0.58 
   2 -11   4    7.37    0.78 
   2 -11   4    6.82    0.74 
  -2  11  -4    6.10    0.80 
   2  11   4    7.82    0.90 
  -2  11  -4    7.21    0.78 
   3 -11   4   -0.01    0.30 
  -3 -11  -4    0.17    0.19 
   3 -11   4   -0.05    0.29 
  -3  11  -4    0.38    0.31 
   3  11   4    0.32    0.41 
  -3  11  -4    0.31    0.36 
  -4 -11  -4    1.41    0.32 
   4 -11   4    1.20    0.44 
  -4  11  -4    1.39    0.47 
   4  11   4    1.10    0.51 
   5 -11   4    0.59    0.42 
  -5  11  -4    0.44    0.43 
  -5  11  -4    0.09    0.33 
   4 -12  -4    1.31    0.39 
  -4 -12   4    1.17    0.45 
  -4  12   4    1.21    0.44 
   4  12  -4    1.71    0.52 
  -4  12   4    1.55    0.53 
   3 -12  -4    0.56    0.28 
  -3 -12   4    0.59    0.35 
  -3  12   4    0.03    0.33 
  -3  12   4    0.22    0.39 
   3  12  -4    0.23    0.38 
   2 -12  -4    2.67    0.42 
  -2 -12   4    3.30    0.55 
  -2 -12   4    3.18    0.45 
  -2  12   4    3.23    0.62 
  -2  12   4    3.75    0.63 
   2  12  -4    3.81    0.67 
  -1 -12   4    0.42    0.33 
   1 -12  -4    0.38    0.22 
  -1 -12   4    0.47    0.29 
   1  12  -4    0.41    0.41 
  -1  12   4    0.40    0.36 
  -1  12   4    0.23    0.32 
   0 -12   4    1.81    0.39 
   0 -12  -4    1.75    0.30 
   0 -12   4    1.48    0.42 
   0  12  -4    0.52    0.42 
   1 -12   4   10.42    0.92 
   1 -12   4   11.10    0.98 
  -1  12  -4    9.85    1.03 
   1  12   4   10.81    1.09 
  -1  12  -4   10.38    0.96 
  -2  12  -4    0.12    0.40 
   2  12   4    0.30    0.42 
  -2  12  -4    0.29    0.33 
   3 -12   4   13.32    1.19 
   3 -12   4   14.77    1.26 
  -3  12  -4   15.28    1.30 
  -3  12  -4   15.32    1.23 
   3  12   4   16.00    1.42 
   4 -12   4   14.98    1.27 
   4 -12   4   14.15    1.29 
  -4  12  -4   16.49    1.36 
  -4  12  -4   14.86    1.24 
  -2 -13   4    7.62    0.88 
  -2  13   4    7.96    1.00 
  -2  13   4    8.88    0.94 
   2  13  -4    8.45    1.00 
  -1 -13   4   12.23    1.11 
  -1 -13   4   11.69    0.98 
  -1  13   4   13.87    1.22 
   1  13  -4   13.28    1.23 
  -1  13   4   13.47    1.21 
   0 -13   4    2.13    0.45 
   0 -13   4    1.89    0.50 
   0  13   4    2.85    0.59 
   0  13  -4    3.04    0.64 
   0  13   4    2.93    0.55 
   1 -13   4    5.01    0.85 
   1 -13   4    4.33    0.69 
  -1  13  -4    4.57    0.76 
   1  13   4    4.19    0.75 
   2 -13   4    1.15    0.40 
   2 -13   4    0.82    0.42 
  -2  13  -4    0.96    0.41 
  -2  13  -4    1.33    0.52 
   2  13   4    1.07    0.53 
  -9   0   5    7.85    0.88 
   8   0  -5   40.23    2.69 
   7   0  -5   11.19    0.97 
  -7   0   5   11.08    0.92 
   6   0  -5   38.60    2.44 
  -6   0   5   39.65    2.65 
  -6   0   5   37.28    2.29 
   5   0  -5   36.55    2.29 
  -5   0   5   36.83    2.26 
  -5   0   5   35.87    2.15 
   4   0  -5    1.46    0.24 
  -4   0   5    0.95    0.21 
  -4   0   5    1.09    0.12 
  -4   0   5    0.91    0.20 
   3   0  -5   12.82    0.87 
  -3   0   5   13.66    0.87 
   2   0  -5    2.83    0.28 
  -2   0   5    3.54    0.28 
  -2   0   5    3.58    0.31 
   2   0  -5    3.20    0.29 
  -1   0   5   36.33    2.07 
   1   0  -5   34.04    2.05 
  -1   0   5   34.92    2.02 
   1   0  -5   33.39    2.00 
   1   0  -5   35.18    2.06 
  -1   0   5   32.85    2.01 
   0   0   5    6.30    0.40 
   0   0   5    6.81    0.44 
   0   0  -5    7.07    0.44 
   0   0   5    6.97    0.47 
   0   0   5    6.99    0.44 
   0   0  -5    6.54    0.45 
   0   0  -5    6.59    0.46 
  -1   0  -5   12.12    0.75 
  -1   0  -5   12.79    0.79 
   1   0   5   12.83    0.78 
   1   0   5   12.87    0.81 
   1   0   5   12.90    0.79 
   2   0   5  202.95   12.22 
  -2   0  -5  219.92   12.23 
   2   0   5  212.64   12.23 
   3   0   5    8.42    0.58 
   3   0   5    8.46    0.58 
  -3   0  -5    8.36    0.59 
   4   0   5   44.94    2.74 
  -4   0  -5   46.55    2.76 
   5   0   5   65.21    3.95 
  -5   0  -5   67.18    3.97 
  -6   0  -5   11.39    0.89 
   6   0   5   11.01    0.85 
  -7   0  -5   23.57    1.60 
   7   0   5   22.52    1.56 
   8   0   5   16.85    1.28 
  -8   0  -5   17.24    1.32 
   9   0   5    0.57    0.35 
  -9   0  -5    0.47    0.39 
  -9  -1   5    1.93    0.52 
  -9   1   5    3.69    0.62 
  -9   1   5    3.13    0.55 
   8  -1  -5    1.03    0.43 
  -8  -1   5    1.09    0.41 
   8   1  -5    1.35    0.47 
  -8   1   5    0.89    0.44 
  -8   1   5    1.71    0.45 
   7  -1  -5    1.21    0.39 
  -7  -1   5    0.87    0.33 
  -7   1   5    1.01    0.33 
   7   1  -5    1.06    0.35 
  -6  -1   5   23.21    1.49 
  -6  -1   5   24.72    1.64 
   6  -1  -5   25.44    1.65 
   6   1  -5   25.46    1.66 
  -6   1   5   24.71    1.61 
  -6   1   5   23.79    1.50 
   5  -1  -5    3.64    0.47 
  -5  -1   5    3.41    0.27 
  -5  -1   5    3.71    0.44 
  -5  -1   5    3.12    0.42 
   4  -1  -5   33.11    2.32 
  -4  -1   5   32.85    2.32 
  -4  -1   5   34.96    2.34 
  -4  -1   5   34.20    2.23 
  -4   1   5   43.58    2.23 
  -4   1   5   41.84    2.25 
  -4   1   5   41.94    2.38 
   4   1  -5   40.56    2.34 
  -4   1   5   41.09    2.33 
  -3  -1   5  186.33   10.74 
  -3  -1   5  185.57   10.73 
  -3   1   5  188.54   10.71 
  -3   1   5  193.04   10.74 
   3   1  -5  177.10   10.71 
  -3   1   5  179.35   10.62 
  -2  -1   5   38.25    2.12 
   2  -1  -5   35.22    2.07 
   2  -1  -5   38.01    2.09 
  -2  -1   5   37.37    2.09 
   2  -1  -5   34.84    2.09 
  -2   1   5   35.08    2.06 
   2   1  -5   32.81    2.08 
  -2   1   5   30.60    2.08 
  -2   1   5   31.13    2.05 
  -1  -1   5  106.65    6.39 
  -1  -1   5  110.26    6.38 
   1  -1  -5  111.08    6.38 
  -1  -1   5  104.59    6.41 
   1  -1  -5  115.37    6.43 
   1  -1  -5  105.43    6.35 
  -1   1   5  118.44    6.37 
  -1   1   5  112.74    6.36 
   1   1  -5  109.72    6.39 
  -1   1   5  111.11    6.36 
   1   1  -5  108.72    6.41 
   1   1  -5  106.69    6.35 
  -1   1   5  113.82    6.41 
   1   1  -5  107.55    6.40 
   0  -1  -5  200.63   11.71 
   0  -1  -5  206.68   11.69 
   0  -1   5  198.78   11.70 
   0   1  -5  202.24   11.79 
   0   1  -5  201.17   11.72 
   0   1   5  207.95   11.67 
  -1  -1  -5    8.52    0.54 
  -1  -1  -5    8.41    0.55 
   1  -1   5    9.12    0.59 
   1  -1   5    8.61    0.58 
  -1  -1  -5    9.07    0.55 
   1  -1   5    8.28    0.56 
   2  -1   5   82.26    4.86 
  -2  -1  -5   86.55    4.85 
  -2  -1  -5   81.51    4.84 
   2  -1   5   82.35    4.86 
   2   1   5   81.58    4.83 
   2   1   5   84.12    4.85 
   2   1   5   82.85    4.85 
  -2   1  -5   84.90    4.87 
  -3  -1  -5   45.12    2.60 
   3  -1   5   44.57    2.61 
   3   1   5   42.81    2.58 
   3   1   5   42.64    2.57 
  -3   1  -5   42.95    2.61 
  -4  -1  -5    2.09    0.29 
   4  -1   5    2.09    0.30 
   4   1   5    1.89    0.23 
   4   1   5    1.79    0.25 
  -4   1  -5    1.99    0.29 
  -5  -1  -5    3.09    0.39 
   5  -1   5    3.45    0.40 
   5   1   5    3.20    0.36 
  -5   1  -5    3.15    0.41 
   6  -1   5    4.44    0.55 
   6   1   5    2.71    0.40 
  -6   1  -5    2.77    0.45 
  -7  -1  -5   35.84    2.36 
   7  -1   5   36.55    2.35 
  -7   1  -5   36.99    2.37 
   7   1   5   36.79    2.31 
  -8  -1  -5    0.57    0.37 
  -8   1  -5    1.01    0.39 
   8   1   5    0.85    0.33 
  -9  -1  -5    8.95    0.92 
   9  -1   5    9.44    0.92 
   9   1   5    7.91    0.82 
  -9   1  -5    8.80    0.94 
  -9   1  -5    7.81    0.85 
  -9  -2   5    3.19    0.58 
  -9   2   5    3.30    0.60 
  -9   2   5    2.87    0.53 
  -8  -2   5   11.31    1.04 
   8  -2  -5   10.28    1.06 
  -8   2   5   13.25    1.17 
  -8   2   5   12.76    0.82 
  -8   2   5   12.17    1.02 
   8   2  -5   11.64    1.09 
  -7   2   5   10.11    0.88 
  -7   2   5    9.95    0.86 
   7   2  -5   10.59    0.94 
  -7   2   5    9.98    0.70 
  -6  -2   5   21.94    1.49 
   6  -2  -5   21.33    1.48 
  -6   2   5   20.89    1.44 
   6   2  -5   21.56    1.49 
  -6   2   5   22.18    1.34 
  -6   2   5   22.21    1.47 
  -5  -2   5   47.74    2.80 
  -5  -2   5   46.17    2.80 
  -5  -2   5   46.05    2.67 
  -5   2   5   44.42    2.66 
  -5   2   5   43.16    2.74 
   5   2  -5   43.78    2.84 
  -5   2   5   45.50    2.77 
   4  -2  -5   29.81    2.03 
  -4  -2   5   28.36    2.04 
  -4  -2   5   29.71    2.05 
  -4   2   5   38.21    1.96 
   4   2  -5   36.10    2.06 
  -4   2   5   36.09    2.03 
  -3  -2   5   30.18    1.73 
  -3  -2   5   30.66    1.83 
   3  -2  -5   29.92    1.80 
  -3  -2   5   28.48    1.81 
  -3   2   5   27.91    1.82 
   3   2  -5   29.69    1.80 
  -3   2   5   30.15    1.79 
  -3   2   5   29.02    1.73 
  -3   2   5   29.24    1.77 
  -2  -2   5   27.99    1.79 
   2  -2  -5   27.17    1.79 
  -2  -2   5   27.59    1.78 
   2  -2  -5   27.03    1.74 
   2  -2  -5   29.04    1.77 
  -2   2   5   31.50    1.76 
  -2   2   5   28.96    1.72 
   2   2  -5   29.97    1.76 
  -2   2   5   29.85    1.78 
   2   2  -5   30.40    1.72 
  -2   2   5   31.51    1.73 
   1  -2  -5    1.33    0.15 
   1  -2  -5    1.34    0.17 
   1  -2  -5    1.50    0.15 
  -1  -2   5    1.41    0.17 
  -1  -2   5    1.33    0.21 
   1  -2  -5    1.37    0.14 
  -1  -2   5    1.46    0.20 
   1  -2  -5    1.56    0.18 
   1   2  -5    1.88    0.20 
  -1   2   5    1.88    0.21 
   1   2  -5    1.98    0.20 
  -1   2   5    2.01    0.19 
  -1   2   5    1.91    0.17 
   0  -2  -5   27.01    1.64 
   0  -2  -5   27.98    1.62 
   0  -2  -5   28.21    1.66 
   0  -2   5   28.13    1.69 
   0  -2   5   28.16    1.68 
   0  -2  -5   28.55    1.66 
   0  -2  -5   27.99    1.62 
   0  -2   5   26.63    1.66 
   0   2   5   27.36    1.65 
   0   2  -5   28.19    1.67 
   0   2  -5   26.14    1.68 
   0   2   5   28.30    1.65 
  -1  -2  -5   64.12    3.98 
  -1  -2  -5   65.22    4.00 
   1  -2   5   66.16    4.03 
   1  -2   5   65.63    4.04 
  -1  -2  -5   71.43    3.98 
   1  -2   5   64.98    4.02 
  -1  -2  -5   68.08    4.04 
   1   2   5   74.80    4.00 
  -1   2  -5   72.68    4.03 
  -1   2  -5   73.56    3.97 
   2  -2   5   73.83    4.43 
  -2  -2  -5   74.08    4.39 
  -2  -2  -5   71.41    4.41 
  -2   2  -5   73.36    4.38 
   2   2   5   80.30    4.40 
  -2   2  -5   78.66    4.44 
   2   2   5   77.20    4.36 
  -3  -2  -5   63.24    3.74 
   3  -2   5   63.05    3.77 
   3   2   5   64.49    3.71 
  -3   2  -5   61.25    3.72 
  -3   2  -5   65.55    3.78 
   3   2   5   64.26    3.71 
   4  -2   5   89.46    5.30 
  -4  -2  -5   85.47    5.27 
   4   2   5   87.83    5.23 
   4   2   5   92.46    5.24 
  -4   2  -5   93.61    5.31 
  -5  -2  -5   60.15    3.54 
   5  -2   5   61.84    3.56 
  -5   2  -5   56.86    3.55 
   5   2   5   56.32    3.49 
  -6  -2  -5   11.45    0.95 
   6  -2   5   11.80    0.97 
  -6   2  -5   14.19    1.01 
   6   2   5   13.90    0.92 
  -7  -2  -5   13.89    1.08 
   7  -2   5   15.75    1.12 
   7   2   5   13.45    1.01 
  -7   2  -5   12.68    1.09 
   8  -2   5    7.24    0.77 
  -8  -2  -5    6.14    0.77 
   8   2   5    5.51    0.63 
  -8   2  -5    5.68    0.74 
  -8   2  -5    5.43    0.67 
  -9  -3   5    0.01    0.36 
  -9   3   5    1.29    0.47 
  -8  -3   5    4.08    0.63 
   8  -3  -5    4.25    0.71 
  -8   3   5    4.72    0.67 
  -8   3   5    4.52    0.43 
   7  -3  -5    0.47    0.32 
  -7  -3   5    0.46    0.32 
   7   3  -5    0.52    0.34 
  -7   3   5    0.30    0.25 
  -7   3   5    0.25    0.29 
  -7   3   5    0.40    0.17 
  -6  -3   5   17.76    1.26 
   6  -3  -5   18.56    1.26 
  -6   3   5   16.52    1.19 
  -6   3   5   18.06    1.24 
  -6   3   5   17.31    1.10 
   6   3  -5   16.45    1.24 
   5  -3  -5    4.82    0.55 
  -5  -3   5    4.12    0.54 
  -5  -3   5    4.89    0.51 
  -5  -3   5    4.72    0.37 
  -4  -3   5   27.63    1.63 
  -4  -3   5   27.74    1.74 
  -4  -3   5   29.66    1.74 
   4  -3  -5   29.46    1.72 
   4   3  -5   25.52    1.70 
  -4   3   5   25.41    1.66 
  -4   3   5   26.90    1.71 
  -4   3   5   26.11    1.63 
  -3  -3   5   98.97    5.55 
   3  -3  -5   99.00    5.52 
  -3  -3   5   96.78    5.55 
  -3  -3   5   93.13    5.46 
  -3   3   5   90.69    5.47 
  -3   3   5   92.02    5.52 
   3   3  -5   90.90    5.49 
   3   3  -5   92.01    5.51 
  -3   3   5   94.32    5.46 
   2  -3  -5   21.85    1.26 
  -2  -3   5   21.63    1.29 
  -2  -3   5   22.28    1.30 
   2  -3  -5   21.31    1.23 
  -2   3   5   20.46    1.27 
  -2   3   5   19.21    1.26 
  -2   3   5   19.51    1.19 
   2   3  -5   17.53    1.24 
  -2   3   5   19.85    1.23 
  -2   3   5   19.95    1.19 
   2   3  -5   19.55    1.23 
   1  -3  -5  207.78   11.26 
   1  -3  -5  190.12   11.22 
  -1  -3   5  191.49   11.24 
   1  -3  -5  190.77   11.26 
   1  -3  -5  190.88   11.24 
  -1  -3   5  188.87   11.30 
  -1  -3   5  195.62   11.29 
  -1   3   5  203.66   11.26 
   0  -3  -5  220.84   12.95 
   0  -3  -5  227.51   12.91 
   0  -3   5  231.01   13.01 
   0  -3  -5  226.10   12.97 
   0  -3   5  220.85   13.00 
   0  -3   5  222.05   12.93 
  -1  -3  -5   29.91    1.81 
   1  -3   5   29.42    1.88 
  -1  -3  -5   30.39    1.81 
  -1  -3  -5   28.60    1.86 
   1  -3   5   29.33    1.89 
  -1   3  -5   38.48    1.84 
   2  -3   5   33.30    2.09 
  -2  -3  -5   34.98    2.03 
   2   3   5   34.60    2.01 
  -2   3  -5   33.95    2.08 
  -2   3  -5   35.13    2.03 
   3  -3   5   36.61    2.30 
  -3  -3  -5   38.00    2.26 
  -3   3  -5   37.87    2.30 
   3   3   5   38.60    2.22 
   3   3   5   38.49    2.19 
  -3   3  -5   37.07    2.25 
   4  -3   5   21.87    1.45 
  -4  -3  -5   21.64    1.41 
  -4   3  -5   22.89    1.40 
   4   3   5   22.54    1.35 
   4   3   5   22.00    1.36 
   4   3   5   23.19    1.35 
  -5  -3  -5    0.54    0.20 
   5  -3   5    0.63    0.24 
   5   3   5    0.57    0.17 
  -5   3  -5    0.54    0.19 
  -5   3  -5    0.52    0.23 
  -6  -3  -5    0.92    0.29 
   6  -3   5    1.00    0.32 
  -6   3  -5    1.73    0.31 
   6   3   5    1.70    0.27 
  -6   3  -5    1.72    0.36 
   7  -3   5    3.87    0.60 
  -7  -3  -5    3.38    0.53 
  -7   3  -5    3.02    0.48 
  -7   3  -5    3.24    0.52 
   7   3   5    2.88    0.43 
  -8  -3  -5    2.73    0.52 
   8  -3   5    3.08    0.56 
   8   3   5    2.99    0.45 
  -8   3  -5    2.69    0.52 
  -8   3  -5    3.00    0.55 
  -8  -4   5   22.13    1.65 
  -8   4   5   22.31    1.64 
  -8   4   5   22.31    1.43 
   7   4  -5   13.55    1.11 
  -7   4   5   12.86    1.07 
  -7   4   5   13.77    1.01 
  -7   4   5   13.55    0.92 
   6  -4  -5   22.79    1.58 
  -6  -4   5   23.63    1.63 
  -6   4   5   23.87    1.53 
   6   4  -5   23.32    1.60 
  -6   4   5   24.24    1.47 
  -6   4   5   22.76    1.59 
  -5  -4   5   54.50    3.51 
   5  -4  -5   55.40    3.48 
  -5   4   5   58.50    3.43 
   5   4  -5   58.19    3.57 
  -5   4   5   58.82    3.50 
  -5   4   5   59.46    3.40 
  -4   4   5   11.33    0.78 
  -4   4   5   11.52    0.78 
   4   4  -5   12.88    0.85 
  -4   4   5   12.01    0.86 
   3  -4  -5   11.66    0.77 
  -3  -4   5   12.06    0.81 
  -3  -4   5   10.81    0.72 
  -3  -4   5   11.01    0.81 
   3   4  -5   10.69    0.76 
  -3   4   5   11.01    0.70 
   3   4  -5   11.55    0.77 
  -3   4   5   11.15    0.74 
  -3   4   5   11.62    0.80 
   2  -4  -5    3.78    0.31 
   2  -4  -5    4.09    0.29 
  -2  -4   5    3.88    0.32 
  -2  -4   5    4.39    0.38 
  -2   4   5    3.36    0.35 
   2   4  -5    3.28    0.30 
  -2   4   5    3.33    0.31 
   2   4  -5    3.02    0.32 
   1  -4  -5   33.97    2.10 
  -1  -4   5   34.12    2.15 
   1  -4  -5   35.23    2.10 
  -1  -4   5   34.22    2.10 
  -1  -4   5   34.64    2.15 
   1  -4  -5   35.11    2.06 
   1   4  -5   37.94    2.10 
  -1   4   5   35.89    2.12 
   1   4  -5   33.86    2.11 
  -1   4   5   37.28    2.14 
   0  -4   5    1.76    0.19 
   0  -4   5    2.36    0.27 
   0  -4  -5    1.89    0.18 
   0  -4   5    1.73    0.25 
   0   4   5    2.16    0.26 
   0   4   5    2.34    0.27 
   0   4  -5    2.10    0.24 
   1  -4   5   37.79    2.04 
   1  -4   5   37.96    2.04 
   1  -4   5   34.07    1.95 
   1   4   5   32.16    2.05 
   1   4   5   30.41    2.01 
  -1   4  -5   29.59    1.96 
  -1   4  -5   30.10    2.00 
   2  -4   5   38.48    2.37 
  -2  -4  -5   40.65    2.28 
  -2   4  -5   38.47    2.31 
  -2   4  -5   37.83    2.35 
  -3   4  -5   22.70    1.49 
  -3   4  -5   23.68    1.45 
   3   4   5   23.36    1.36 
   3   4   5   23.88    1.36 
   4  -4   5   41.02    2.58 
  -4  -4  -5   41.07    2.44 
   4   4   5   41.04    2.36 
  -4   4  -5   39.44    2.54 
   4   4   5   34.52    2.32 
  -4   4  -5   41.93    2.44 
   4   4   5   43.50    2.36 
   5  -4   5   81.09    4.89 
  -5  -4  -5   74.95    4.59 
   5   4   5   74.78    4.51 
   5   4   5   79.29    4.50 
  -5   4  -5   79.20    4.58 
   5   4   5   74.64    4.50 
   6  -4   5    8.85    0.78 
  -6  -4  -5    7.89    0.69 
   6   4   5    7.69    0.57 
  -6   4  -5    7.41    0.67 
  -6   4  -5    6.95    0.72 
  -7  -4  -5   21.86    1.61 
   7  -4   5   23.40    1.68 
  -7   4  -5   23.71    1.60 
  -7   4  -5   24.79    1.68 
   7   4   5   24.58    1.51 
   8  -4   5    8.33    0.92 
  -8  -4  -5    7.51    0.85 
   8   4   5    8.63    0.68 
  -8   4  -5    9.43    0.91 
  -8   4  -5    8.84    0.83 
  -8  -5   5    1.49    0.49 
  -8   5   5    1.15    0.36 
  -8   5   5    1.48    0.30 
  -8   5   5    1.83    0.49 
  -7  -5   5    0.19    0.34 
   7  -5  -5   -0.01    0.28 
  -7   5   5   -0.25    0.29 
   7   5  -5   -0.17    0.28 
  -7   5   5    0.13    0.23 
  -6  -5   5   18.92    1.30 
  -6  -5   5   18.09    1.34 
   6  -5  -5   19.53    1.30 
  -6   5   5   17.64    1.18 
  -6   5   5   17.75    1.32 
   6   5  -5   16.35    1.28 
  -6   5   5   18.19    1.20 
  -5  -5   5    0.61    0.25 
  -5  -5   5    0.42    0.31 
   5  -5  -5    0.87    0.25 
  -5   5   5    0.79    0.27 
   5   5  -5    0.68    0.24 
  -5   5   5    1.10    0.22 
  -5   5   5    0.94    0.20 
  -4  -5   5   33.43    2.03 
   4  -5  -5   35.06    2.01 
  -4  -5   5   33.38    2.07 
  -4   5   5   31.80    1.92 
   4   5  -5   31.17    2.02 
   4   5  -5   30.72    1.99 
  -4   5   5   32.16    1.97 
  -4   5   5   30.18    2.04 
  -3  -5   5   96.50    5.70 
   3  -5  -5   98.71    5.64 
  -3  -5   5   99.61    5.69 
  -3   5   5   96.03    5.63 
  -3   5   5   93.16    5.68 
   3   5  -5   95.44    5.66 
   3   5  -5   94.45    5.63 
  -2   5   5   31.30    1.90 
   2   5  -5   30.66    1.91 
   2   5  -5   31.72    1.87 
  -2   5   5   30.75    1.93 
  -1  -5   5   36.83    2.31 
   1  -5  -5   36.69    2.24 
  -1  -5   5   37.84    2.31 
   1  -5  -5   36.31    2.25 
   1  -5  -5   37.89    2.21 
  -1  -5   5   35.89    2.26 
  -1   5   5   38.41    2.31 
  -1   5   5   42.05    2.30 
   1   5  -5   38.54    2.24 
   1   5  -5   37.16    2.28 
   0  -5   5  158.01    9.29 
   0  -5   5  162.47    9.29 
   0  -5  -5  158.01    9.23 
   0  -5   5  159.58    9.23 
   0  -5  -5  161.30    9.20 
   0   5   5  165.00    9.30 
   0   5  -5  150.95    9.26 
   0   5  -5  156.27    9.23 
   0   5  -5  166.38    9.22 
   0   5   5  156.49    9.28 
   1   5   5    0.89    0.24 
   1   5   5    0.96    0.22 
  -1   5  -5    0.96    0.17 
  -1   5  -5    0.85    0.17 
  -1   5  -5    1.23    0.22 
   2  -5   5   81.72    4.89 
  -2  -5  -5   82.34    4.79 
   2   5   5   86.53    4.95 
  -2   5  -5   79.85    4.83 
  -2   5  -5   82.65    4.87 
   3  -5   5   25.83    1.60 
  -3   5  -5   24.52    1.54 
  -3   5  -5   23.96    1.58 
   4  -5   5    3.04    0.44 
  -4  -5  -5    3.32    0.36 
  -4   5  -5    4.55    0.42 
   5  -5   5    2.08    0.38 
  -5  -5  -5    1.99    0.31 
  -5   5  -5    1.82    0.35 
  -5   5  -5    1.63    0.31 
   6  -5   5    0.21    0.28 
  -6  -5  -5    0.28    0.24 
   6   5   5    0.30    0.10 
  -6   5  -5    0.23    0.26 
  -6   5  -5    0.34    0.28 
  -7  -5  -5   28.83    1.92 
   7  -5   5   29.04    2.11 
  -7   5  -5   29.00    2.00 
  -7   5  -5   29.14    1.91 
   7   5   5   27.97    1.72 
   8  -5   5    1.82    0.49 
  -8  -5  -5    2.17    0.46 
  -8   5  -5    1.56    0.42 
  -8   5  -5    1.38    0.43 
  -8  -6   5   17.28    1.43 
  -8   6   5   18.98    1.42 
  -8   6   5   17.65    1.45 
  -8   6   5   16.75    1.22 
   7  -6  -5    6.12    0.69 
  -7  -6   5    6.49    0.76 
  -7   6   5    4.01    0.55 
  -7   6   5    4.02    0.49 
  -7   6   5    4.64    0.73 
  -6  -6   5    8.48    0.83 
  -6  -6   5    8.02    0.76 
   6  -6  -5    8.27    0.76 
  -6   6   5    8.54    0.83 
   6   6  -5    8.07    0.76 
  -6   6   5    8.02    0.63 
  -5  -6   5   32.58    2.06 
  -5  -6   5   32.55    2.00 
   5  -6  -5   31.47    1.98 
  -5   6   5   31.39    1.88 
  -5   6   5   30.79    2.03 
  -5   6   5   29.17    1.93 
   5   6  -5   29.87    1.97 
  -4  -6   5    1.66    0.32 
  -4  -6   5    2.11    0.39 
   4  -6  -5    1.98    0.33 
   4   6  -5    2.55    0.34 
   4   6  -5    2.74    0.43 
  -4   6   5    2.56    0.20 
  -4   6   5    2.89    0.45 
  -4   6   5    2.74    0.35 
  -3  -6   5   21.19    1.52 
   3  -6  -5   21.58    1.45 
  -3  -6   5   21.79    1.50 
  -3   6   5   25.77    1.57 
   3   6  -5   23.71    1.52 
  -3   6   5   24.29    1.48 
   3   6  -5   24.47    1.45 
  -2  -6   5   10.21    0.75 
  -2  -6   5    9.55    0.76 
   2  -6  -5    9.86    0.68 
   2   6  -5   10.18    0.67 
   2   6  -5   10.29    0.76 
  -2   6   5   10.11    0.78 
  -2   6   5    9.96    0.73 
  -1  -6   5    4.74    0.45 
   1  -6  -5    4.43    0.35 
   1  -6  -5    4.44    0.31 
   1  -6  -5    4.10    0.34 
  -1  -6   5    4.47    0.44 
   1   6  -5    4.15    0.43 
  -1   6   5    4.47    0.43 
  -1   6   5    4.98    0.48 
   1   6  -5    4.39    0.33 
   0  -6  -5    6.27    0.42 
   0  -6   5    6.56    0.55 
   0  -6  -5    6.49    0.39 
   0  -6  -5    6.28    0.45 
   0  -6   5    6.06    0.54 
   1  -6   5   17.67    1.27 
  -1  -6  -5   17.63    1.15 
   1  -6   5   17.83    1.28 
   1   6   5   20.94    1.31 
  -1   6  -5   20.79    1.24 
  -1   6  -5   20.38    1.26 
  -1   6  -5   22.65    1.29 
   1   6   5   18.48    1.32 
  -2  -6  -5  103.67    6.29 
   2  -6   5  105.32    6.41 
   2   6   5  112.92    6.48 
  -2   6  -5  110.84    6.41 
  -2   6  -5  110.19    6.36 
  -2   6  -5  109.71    6.38 
   3  -6   5   21.40    1.61 
  -3  -6  -5   20.66    1.51 
  -3   6  -5   27.96    1.56 
  -3   6  -5   27.76    1.59 
   4  -6   5   34.30    2.26 
  -4  -6  -5   36.09    2.08 
  -4   6  -5   31.79    2.10 
  -4   6  -5   32.93    2.18 
   5  -6   5   30.10    2.03 
  -5  -6  -5   28.28    1.93 
  -5   6  -5   32.25    1.98 
  -5   6  -5   33.04    2.01 
  -6   6  -5    3.24    0.51 
  -6   6  -5    3.51    0.54 
   7  -6   5   16.13    1.24 
  -7  -6  -5   14.32    1.11 
  -7   6  -5   13.21    1.10 
  -7   6  -5   12.95    1.13 
   8  -6   5    4.72    0.73 
  -8  -6  -5    4.15    0.65 
  -8   6  -5    4.69    0.68 
  -8   6  -5    4.31    0.65 
  -7  -7   5    0.27    0.38 
  -7   7   5    0.52    0.40 
  -7   7   5    0.23    0.24 
  -7   7   5    0.27    0.19 
  -6  -7   5    6.78    0.66 
  -6  -7   5    6.50    0.77 
   6  -7  -5    6.99    0.67 
  -6   7   5    5.48    0.66 
  -6   7   5    5.88    0.48 
  -6   7   5    5.62    0.74 
  -5   7   5    3.01    0.48 
  -5   7   5    3.72    0.44 
  -5   7   5    3.40    0.26 
   5   7  -5    3.17    0.45 
  -4  -7   5    9.38    0.87 
  -4  -7   5    9.26    0.86 
   4  -7  -5   10.15    0.77 
  -4   7   5   10.86    0.89 
   4   7  -5   10.70    0.88 
   4   7  -5   11.62    0.78 
  -4   7   5   10.87    0.81 
  -3  -7   5   68.61    4.05 
  -3  -7   5   70.58    4.10 
   3  -7  -5   69.75    3.98 
   3   7  -5   65.45    4.06 
   3   7  -5   64.40    3.96 
  -3   7   5   66.73    4.08 
  -3   7   5   65.95    4.03 
   2  -7  -5   32.93    2.26 
  -2  -7   5   32.43    2.36 
  -2  -7   5   33.00    2.34 
  -2   7   5   44.19    2.49 
  -2   7   5   43.11    2.38 
   2   7  -5   40.74    2.26 
   2   7  -5   40.38    2.38 
  -1  -7   5   75.28    4.20 
   1  -7  -5   77.76    4.09 
  -1  -7   5   75.56    4.21 
   1  -7  -5   72.40    4.11 
   1  -7  -5   59.77    4.09 
   1   7  -5   67.89    4.07 
  -1   7   5   64.02    4.18 
  -1   7   5   66.85    4.21 
   1   7  -5   70.31    4.19 
   0  -7  -5   47.15    2.64 
   0  -7  -5   47.42    2.64 
   0  -7  -5   47.48    2.63 
   0  -7   5   47.65    2.78 
   0  -7  -5   46.30    2.66 
   0  -7   5   49.37    2.78 
   0   7  -5   44.73    2.76 
   0   7   5   42.19    2.78 
   0   7  -5   40.35    2.63 
   0   7   5   43.32    2.78 
   0   7  -5   40.23    2.71 
   1  -7   5   21.42    1.61 
   1  -7   5   21.41    1.61 
  -1   7  -5   27.79    1.60 
   1   7   5   30.57    1.70 
  -2  -7  -5   13.14    0.79 
   2  -7   5   14.28    1.10 
  -2   7  -5   11.98    0.81 
  -2   7  -5   12.06    0.92 
  -2   7  -5   12.17    0.88 
  -2   7  -5   12.49    0.92 
   2   7   5   11.87    0.99 
  -3  -7  -5   13.10    0.77 
   3  -7   5   13.47    0.92 
  -3   7  -5   10.50    0.84 
   3   7   5    9.38    0.94 
  -3   7  -5   10.24    0.84 
  -3   7  -5   10.57    0.88 
   4  -7   5    5.59    0.65 
  -4  -7  -5    5.72    0.51 
  -4   7  -5    7.09    0.63 
  -4   7  -5    6.70    0.66 
   5  -7   5    1.59    0.39 
  -5  -7  -5    1.85    0.32 
  -5   7  -5    1.21    0.35 
  -5   7  -5    0.77    0.39 
  -6  -7  -5    0.84    0.30 
   6  -7   5    1.15    0.41 
  -6   7  -5    2.02    0.41 
  -6   7  -5    1.69    0.38 
   7  -7   5    9.01    0.95 
  -7  -7  -5   10.02    0.86 
  -7   7  -5    8.18    0.89 
  -7   7  -5    9.62    1.20 
  -7  -8   5    1.81    0.51 
  -7   8   5    2.07    0.52 
  -7   8   5    1.90    0.38 
  -6  -8   5   24.18    2.18 
  -6   8   5   26.91    1.88 
  -6   8   5   26.24    1.72 
  -5  -8   5   10.34    0.93 
   5  -8  -5   10.35    0.81 
   5   8  -5    9.38    1.24 
  -5   8   5    9.97    0.95 
  -5   8   5   10.34    0.84 
  -4   8   5    1.21    0.31 
   4   8  -5    1.16    0.25 
  -4   8   5    1.37    0.37 
   4   8  -5    1.16    0.36 
   3  -8  -5   16.14    1.01 
  -3  -8   5   16.56    1.11 
   3   8  -5   14.49    0.99 
  -3   8   5   14.80    1.10 
  -3   8   5   14.72    1.17 
   3   8  -5   15.33    1.15 
  -2  -8   5    5.60    0.58 
  -2  -8   5    5.20    0.53 
   2  -8  -5    5.46    0.40 
  -2   8   5    4.70    0.79 
   2   8  -5    4.57    0.37 
  -2   8   5    4.61    0.60 
   1  -8  -5   14.37    0.96 
  -1  -8   5   15.15    1.11 
   1  -8  -5   15.04    0.97 
  -1  -8   5   14.04    1.08 
   1   8  -5   15.93    0.93 
  -1   8   5   16.50    1.16 
  -1   8   5   19.16    1.32 
   0  -8  -5    1.00    0.16 
   0  -8  -5    1.13    0.14 
   0  -8  -5    1.03    0.16 
   0  -8   5    1.19    0.27 
   0  -8   5    0.90    0.27 
  -1  -8  -5    7.45    0.47 
  -1  -8  -5    7.66    0.46 
   1  -8   5    8.42    0.66 
   1  -8   5    7.03    0.63 
  -1   8  -5    5.83    0.42 
  -1   8  -5    5.71    0.58 
  -1   8  -5    6.45    0.64 
   1   8   5    5.86    0.64 
   1   8   5    5.76    0.65 
  -1   8  -5    5.95    0.42 
  -2  -8  -5   57.86    3.33 
   2  -8   5   57.20    3.47 
  -2   8  -5   54.86    3.42 
  -3   8  -5    6.34    0.64 
   3   8   5    6.19    0.72 
  -3   8  -5    6.13    0.57 
  -3   8  -5    5.16    0.79 
  -4  -8  -5   30.70    1.78 
   4  -8   5   29.47    1.91 
  -4   8  -5   26.92    1.83 
  -4   8  -5   27.51    1.84 
  -4   8  -5   26.14    1.88 
   5  -8   5   33.87    2.27 
  -5  -8  -5   33.18    2.15 
  -5   8  -5   34.44    2.21 
  -5   8  -5   34.58    2.27 
  -5   8  -5   34.24    2.21 
  -6  -8  -5    3.61    0.56 
   6  -8   5    4.67    0.74 
  -6   8  -5    5.60    0.75 
  -6   8  -5    5.78    0.66 
  -6   8  -5    6.22    0.70 
   7  -8   5    2.67    0.59 
  -7   8  -5    3.45    0.55 
  -7   8  -5    3.23    0.53 
  -7   8  -5    2.72    0.57 
  -6  -9   5    7.92    0.94 
  -6   9   5    8.96    0.79 
  -6   9   5    8.28    0.95 
  -5  -9   5    2.64    0.43 
  -5  -9   5    2.80    0.53 
  -5   9   5    2.78    0.59 
   5   9  -5    3.31    0.56 
  -5   9   5    3.28    0.51 
   4  -9  -5    5.38    0.45 
  -4  -9   5    4.90    0.52 
  -4  -9   5    4.89    0.64 
  -4   9   5    3.31    0.56 
   4   9  -5    3.28    0.56 
  -4   9   5    3.53    0.54 
   3  -9  -5   23.77    1.48 
  -3  -9   5   23.33    1.66 
  -3  -9   5   24.81    1.59 
  -3   9   5   23.67    1.63 
   3   9  -5   23.67    1.67 
  -3   9   5   24.38    1.69 
  -2  -9   5   12.84    0.96 
   2  -9  -5   12.68    0.80 
   2  -9  -5   12.46    0.86 
  -2  -9   5   12.37    1.00 
  -1  -9   5   38.78    2.56 
   1  -9  -5   39.45    2.48 
  -1  -9   5   40.38    2.60 
   1  -9  -5   38.65    2.40 
   1   9  -5   48.59    2.85 
  -1   9   5   42.01    2.63 
   0  -9   5   34.74    2.27 
   0  -9  -5   37.50    2.10 
   0  -9  -5   35.59    2.14 
   0  -9  -5   33.73    2.08 
   0  -9   5   35.45    2.30 
   0  -9  -5   33.88    2.10 
   0   9   5   37.61    2.35 
   0   9  -5   36.98    2.33 
   0   9   5   37.57    2.36 
   1  -9   5   14.10    1.14 
  -1  -9  -5   13.85    0.91 
  -1  -9  -5   14.94    0.94 
  -1   9  -5   15.96    1.14 
   1   9   5   15.39    1.18 
   1   9   5   15.24    1.15 
  -2  -9  -5   12.06    0.76 
   2  -9   5   12.39    0.97 
  -2  -9  -5   12.48    0.79 
   2  -9   5   11.94    0.95 
  -2   9  -5   11.69    0.92 
  -2   9  -5   12.51    1.00 
   2   9   5   12.01    1.05 
  -2   9  -5   10.45    0.69 
  -3  -9  -5   14.55    1.00 
   3  -9   5   15.45    1.18 
   3   9   5   15.09    1.27 
  -3   9  -5   15.81    1.09 
  -3   9  -5   15.01    1.17 
  -3   9  -5   15.05    1.12 
   4  -9   5    2.55    0.48 
  -4  -9  -5    2.56    0.37 
  -4   9  -5    2.60    0.43 
  -4   9  -5    2.93    0.46 
  -4   9  -5    3.57    0.58 
  -5  -9  -5    0.80    0.27 
   5  -9   5    0.21    0.34 
  -5   9  -5    0.13    0.29 
  -5   9  -5    0.04    0.30 
  -5   9  -5    0.37    0.28 
   6  -9   5    2.35    0.55 
  -6  -9  -5    1.97    0.39 
  -6   9  -5    1.92    0.43 
  -6   9  -5    1.52    0.48 
  -6   9  -5    1.77    0.44 
  -6 -10   5    6.14    0.85 
  -6  10   5    6.14    0.87 
  -6  10   5    6.01    0.70 
  -5 -10   5   14.39    1.07 
  -5 -10   5   14.50    1.23 
  -5  10   5   15.31    1.17 
   5  10  -5   14.56    1.26 
  -5  10   5   14.39    1.28 
  -4 -10   5    1.06    0.39 
  -4 -10   5    0.83    0.28 
   4  10  -5    0.82    0.40 
  -4  10   5    0.90    0.36 
  -4  10   5    0.72    0.45 
   3 -10  -5    2.28    0.36 
  -3 -10   5    2.12    0.40 
  -3 -10   5    1.93    0.44 
   3  10  -5    2.33    0.50 
  -3  10   5    2.96    0.49 
  -3  10   5    2.26    0.47 
  -2 -10   5    3.62    0.56 
   2 -10  -5    3.60    0.40 
  -2 -10   5    3.85    0.50 
  -2  10   5    3.62    0.58 
  -2  10   5    3.82    0.57 
   2  10  -5    4.16    0.63 
  -1 -10   5   14.92    1.14 
  -1 -10   5   15.32    1.18 
   1 -10  -5   14.59    1.01 
  -1  10   5   15.34    1.20 
   1  10  -5   16.50    1.22 
  -1  10   5   15.50    1.22 
   0 -10  -5    0.43    0.15 
   0 -10   5    0.51    0.30 
   0 -10   5    0.03    0.25 
   0  10  -5    1.18    0.41 
   0  10   5    1.59    0.43 
   0  10   5    0.78    0.32 
   1 -10   5    6.25    0.66 
   1 -10   5    6.31    0.64 
  -1 -10  -5    5.81    0.44 
   1  10   5    4.24    0.66 
  -1  10  -5    4.78    0.67 
   1  10   5    5.03    0.69 
  -2 -10  -5   13.14    0.86 
   2 -10   5   14.14    1.12 
   2 -10   5   14.60    1.15 
  -2 -10  -5   13.99    0.94 
   2  10   5   16.80    1.27 
  -2  10  -5   14.18    1.09 
  -2  10  -5   15.37    1.17 
   3 -10   5    2.02    0.45 
   3 -10   5    1.90    0.43 
  -3 -10  -5    2.25    0.30 
  -3  10  -5    1.68    0.38 
   3  10   5    1.29    0.46 
  -3  10  -5    1.04    0.39 
  -4 -10  -5   10.92    0.93 
   4 -10   5   14.01    1.50 
  -4  10  -5   15.54    1.18 
  -4  10  -5   14.21    1.09 
   5 -10   5   21.30    1.62 
  -5  10  -5   19.42    1.60 
  -5  10  -5   21.69    1.47 
  -5  10  -5   21.54    1.61 
   5 -11  -5    0.35    0.29 
  -5 -11   5    0.41    0.39 
  -5  11   5    1.13    0.38 
  -5  11   5    0.74    0.40 
   5  11  -5    0.60    0.43 
  -4 -11   5    7.65    0.68 
  -4 -11   5    7.55    0.87 
   4 -11  -5    8.14    0.73 
  -4  11   5    7.82    0.92 
   4  11  -5    6.60    1.25 
  -4  11   5    7.91    0.86 
  -3 -11   5   18.22    1.38 
   3 -11  -5   15.74    1.48 
  -3 -11   5   18.15    1.25 
  -3  11   5   18.45    1.37 
   3  11  -5   17.36    1.41 
  -3  11   5   17.49    1.42 
   2 -11  -5    6.82    0.57 
  -2 -11   5    6.55    0.75 
  -2 -11   5    5.89    0.64 
  -1 -11   5    5.90    0.68 
   1 -11  -5    6.79    0.55 
  -1 -11   5    6.62    0.75 
  -1  11   5    6.83    0.83 
   1  11  -5    7.25    0.84 
  -1  11   5    7.62    0.80 
   0 -11  -5   30.65    1.87 
   0 -11   5   31.10    2.01 
   0 -11   5   31.34    2.06 
   0  11   5   28.89    2.10 
   0  11   5   29.49    2.10 
   0  11  -5   30.15    2.08 
   1 -11   5    1.21    0.38 
   1 -11   5    0.78    0.34 
  -1 -11  -5    0.95    0.20 
   1  11   5    1.36    0.44 
  -1  11  -5    0.97    0.33 
  -1  11  -5    1.53    0.45 
   2 -11   5   14.81    1.18 
   2 -11   5   15.03    1.16 
  -2  11  -5   13.04    1.12 
   3 -11   5    1.61    0.47 
   3 -11   5    2.28    0.88 
  -3  11  -5    1.22    0.39 
   3  11   5    0.98    0.47 
  -3  11  -5    0.89    0.43 
   4 -11   5    3.19    0.60 
   4 -11   5    2.67    0.53 
  -4  11  -5    3.34    0.77 
  -4  11  -5    3.55    0.60 
   5 -11   5    0.51    0.44 
  -5  11  -5    0.37    0.34 
  -5  11  -5    0.09    0.41 
  -4 -12   5    0.25    0.39 
  -4  12   5    1.12    0.48 
  -4  12   5    1.03    0.40 
   4  12  -5    1.05    0.46 
  -3 -12   5   11.42    1.00 
  -3 -12   5   10.00    0.82 
  -3  12   5   10.02    1.03 
   3  12  -5   10.23    1.06 
  -3  12   5    8.78    0.96 
  -2 -12   5    1.55    0.44 
  -2 -12   5    1.90    0.38 
   2  12  -5    1.47    0.51 
  -2  12   5    1.19    0.40 
  -2  12   5    1.29    0.49 
  -1 -12   5    1.90    0.56 
  -1 -12   5    1.94    0.41 
   1  12  -5    1.87    0.51 
  -1  12   5    1.36    0.43 
  -1  12   5    1.80    0.50 
   0 -12   5    0.98    0.42 
   0 -12   5    1.24    0.37 
   0  12   5    0.30    0.38 
   0  12   5    0.52    0.38 
   0  12  -5    0.31    0.40 
   1 -12   5    3.38    0.56 
   1 -12   5    3.85    0.93 
  -1  12  -5    3.87    0.66 
   1  12   5    4.51    0.77 
   2 -12   5   23.08    1.64 
   2 -12   5   22.65    1.67 
   2  12   5   22.40    1.80 
  -2  12  -5   21.75    1.69 
  -2  12  -5   22.97    1.67 
   3 -12   5    5.35    0.81 
   3 -12   5    5.32    0.76 
  -3  12  -5    7.75    0.81 
  -3  12  -5    7.09    0.88 
   3  12   5    5.80    0.90 
  -2  13   5    4.35    0.75 
   2  13  -5    5.22    0.83 
  -2  13   5    4.30    0.72 
  -1 -13   5   11.15    1.02 
  -1 -13   5   11.59    0.90 
  -1  13   5    9.33    1.04 
   1  13  -5    9.44    1.07 
  -1  13   5    9.36    1.04 
   0 -13   5    7.45    0.85 
   0 -13   5    7.74    0.98 
   0  13   5    6.74    0.91 
   0  13   5    6.91    0.89 
   0  13  -5    7.49    0.94 
   1 -13   5    1.19    0.43 
   1 -13   5    1.09    0.45 
  -1  13  -5    2.39    0.58 
   1  13   5    2.15    0.61 
  -9   0   6    0.69    0.40 
  -9   0   6    0.71    0.38 
   8   0  -6   10.14    1.00 
  -8   0   6   10.19    0.94 
   7   0  -6   19.85    1.42 
  -7   0   6   18.57    1.37 
  -6   0   6    8.81    0.56 
  -6   0   6    9.26    0.77 
   6   0  -6    8.96    0.79 
  -5   0   6   39.32    2.46 
   5   0  -6   38.92    2.43 
   4   0  -6   51.17    2.98 
  -4   0   6   48.31    3.00 
  -4   0   6   48.22    2.96 
  -3   0   6    5.48    0.46 
  -3   0   6    5.46    0.43 
   3   0  -6    4.86    0.42 
  -2   0   6   67.25    3.97 
  -2   0   6   68.17    4.01 
  -2   0   6   69.33    3.96 
   2   0  -6   66.41    3.99 
  -1   0   6    6.74    0.39 
  -1   0   6    6.35    0.42 
  -1   0   6    5.88    0.45 
   1   0  -6    5.92    0.43 
  -1   0   6    5.93    0.41 
   1   0  -6    5.51    0.38 
   1   0  -6    5.73    0.44 
   1   0  -6    5.89    0.45 
   0   0   6    2.36    0.19 
   0   0   6    2.16    0.20 
   0   0   6    2.15    0.23 
   0   0  -6    1.82    0.20 
   0   0   6    2.15    0.15 
   0   0  -6    2.30    0.21 
   0   0  -6    2.03    0.22 
  -1   0  -6   25.11    1.57 
   1   0   6   26.67    1.55 
   1   0   6   26.57    1.56 
  -1   0  -6   24.64    1.51 
   1   0   6   27.42    1.59 
   2   0   6   39.92    2.38 
   2   0   6   40.23    2.36 
  -2   0  -6   39.91    2.37 
  -2   0  -6   37.18    2.33 
   2   0   6   41.86    2.37 
   3   0   6   43.28    2.63 
   3   0   6   44.55    2.63 
  -3   0  -6   44.73    2.65 
  -4   0  -6   41.13    2.45 
   4   0   6   39.34    2.43 
   5   0   6   41.47    2.54 
  -5   0  -6   41.63    2.57 
  -6   0  -6   42.48    2.71 
   6   0   6   44.45    2.75 
   7   0   6    6.05    0.64 
  -7   0  -6    6.70    0.70 
  -8   0  -6   21.22    1.56 
  -9  -1   6    5.47    0.79 
  -9   1   6    6.80    0.79 
  -9   1   6    5.92    0.76 
   8  -1  -6    2.61    0.52 
  -8  -1   6    2.30    0.48 
  -8   1   6    2.48    0.50 
  -8   1   6    2.47    0.47 
   8   1  -6    2.12    0.50 
  -7  -1   6    5.36    0.66 
   7  -1  -6    5.85    0.69 
  -7   1   6    6.09    0.64 
   7   1  -6    5.25    0.67 
  -6  -1   6    2.31    0.42 
  -6  -1   6    3.67    0.24 
   6  -1  -6    2.40    0.42 
  -6   1   6    2.76    0.53 
   6   1  -6    3.24    0.49 
  -6   1   6    3.04    0.24 
  -6   1   6    3.04    0.24 
  -5  -1   6   20.52    1.40 
  -5  -1   6   18.97    1.23 
   5  -1  -6   21.10    1.40 
  -5  -1   6   21.42    1.43 
  -5   1   6   20.57    1.37 
   5   1  -6   22.66    1.42 
  -5   1   6   21.61    1.24 
  -5   1   6   21.82    1.23 
   4  -1  -6   10.56    0.75 
  -4  -1   6    9.90    0.74 
  -4  -1   6    9.86    0.76 
  -3  -1   6   73.24    3.70 
   3  -1  -6   71.04    3.66 
   3   1  -6   55.42    3.64 
  -3   1   6   59.10    3.62 
  -3   1   6   56.26    3.66 
  -3   1   6   54.57    3.61 
  -2  -1   6  154.10    8.87 
  -2  -1   6  149.36    8.82 
  -2  -1   6  149.12    8.84 
   2   1  -6  151.97    8.84 
  -2   1   6  148.61    8.85 
  -2   1   6  154.09    8.81 
  -2   1   6  151.12    8.80 
  -2   1   6  160.24    8.81 
  -1  -1   6   58.69    3.08 
   1  -1  -6   56.40    3.09 
  -1  -1   6   60.09    3.12 
   1  -1  -6   57.22    3.06 
   1  -1  -6   56.26    3.09 
   1  -1  -6   56.13    3.03 
  -1   1   6   47.03    3.08 
  -1   1   6   45.79    3.02 
  -1   1   6   47.49    3.03 
  -1   1   6   44.91    3.03 
   1   1  -6   43.88    3.06 
   0  -1  -6  134.11    7.94 
   0  -1  -6  133.73    7.95 
   0  -1   6  140.87    7.98 
   0  -1  -6  129.91    7.97 
   0  -1   6  139.77    8.00 
   0  -1  -6  137.47    7.92 
   0  -1   6  131.83    7.96 
   0   1  -6  135.19    7.99 
   0   1   6  144.11    7.92 
   0   1  -6  142.18    7.97 
   0   1   6  139.09    7.98 
   0   1   6  137.45    7.93 
   0   1  -6  142.65    8.01 
  -1  -1  -6  169.93    9.69 
  -1  -1  -6  143.67    9.74 
   1  -1   6  169.13    9.74 
  -1  -1  -6  164.31    9.70 
  -1  -1  -6  161.35    9.67 
   1  -1   6  167.72    9.71 
   1  -1   6  167.89    9.72 
   1   1   6  182.12    9.67 
   1   1   6  174.55    9.67 
   1   1   6  174.55    9.72 
  -1   1  -6  171.70    9.72 
  -2  -1  -6    8.91    0.60 
   2  -1   6    8.62    0.61 
  -2  -1  -6    9.56    0.61 
   2  -1   6    9.54    0.63 
   3  -1   6   65.58    3.74 
  -3  -1  -6   67.17    3.73 
   3   1   6   61.42    3.70 
  -3   1  -6   62.72    3.74 
   3   1   6   58.77    3.69 
  -4  -1  -6   18.11    1.27 
   4  -1   6   18.30    1.28 
   4   1   6   19.86    1.24 
  -4   1  -6   21.83    1.31 
   4   1   6   21.31    1.26 
  -5  -1  -6    4.22    0.45 
   5  -1   6    4.04    0.46 
  -5   1  -6    3.93    0.46 
   5   1   6    4.53    0.43 
   6  -1   6    0.02    0.21 
  -6  -1  -6    0.28    0.37 
  -6   1  -6   -0.09    0.22 
   6   1   6    0.08    0.20 
  -7  -1  -6    0.78    0.32 
   7  -1   6    0.84    0.32 
   7   1   6    0.93    0.30 
  -7   1  -6    1.16    0.36 
  -8  -1  -6   10.20    0.95 
   8  -1   6   10.61    0.94 
   8   1   6    9.65    0.86 
  -8   1  -6   10.13    0.96 
   8  -2  -6   15.96    1.21 
  -8  -2   6   15.75    1.17 
   8   2  -6   12.53    1.16 
  -8   2   6   10.32    1.11 
  -8   2   6   12.05    1.07 
  -7  -2   6   36.30    2.43 
   7  -2  -6   35.50    2.43 
   7   2  -6   38.29    2.46 
  -7   2   6   41.17    2.42 
  -7   2   6   36.41    2.21 
  -7   2   6   37.11    2.38 
  -6  -2   6   11.23    0.97 
  -6  -2   6   10.68    0.78 
   6  -2  -6   12.12    0.98 
  -6   2   6   14.38    0.98 
  -6   2   6   13.94    1.03 
  -6   2   6   13.41    0.81 
   6   2  -6   14.01    1.01 
  -5  -2   6   47.28    2.96 
  -5  -2   6   48.50    2.97 
  -5  -2   6   42.48    2.79 
   5  -2  -6   47.56    2.94 
  -5   2   6   50.38    2.80 
  -5   2   6   47.90    2.97 
  -5   2   6   47.12    2.82 
  -5   2   6   49.43    2.91 
   5   2  -6   52.26    2.96 
   4  -2  -6   48.65    2.99 
  -4  -2   6   48.30    3.01 
  -4  -2   6   48.58    3.01 
  -4   2   6   47.85    2.87 
   4   2  -6   50.55    2.99 
  -4   2   6   50.52    2.96 
  -4   2   6   51.95    2.98 
  -3   2   6    4.76    0.36 
  -3   2   6    4.49    0.30 
   3   2  -6    4.90    0.41 
  -3   2   6    4.42    0.39 
  -3   2   6    4.57    0.43 
  -2  -2   6   23.96    1.41 
  -2  -2   6   24.44    1.43 
   2  -2  -6   23.65    1.39 
   2   2  -6   21.41    1.38 
  -2   2   6   22.07    1.33 
  -2   2   6   21.79    1.40 
   2   2  -6   20.98    1.32 
  -2   2   6   22.24    1.37 
  -2   2   6   21.34    1.32 
   1  -2  -6    4.94    0.36 
   1  -2  -6    4.47    0.34 
  -1  -2   6    4.69    0.34 
  -1  -2   6    4.75    0.30 
  -1  -2   6    4.89    0.40 
  -1  -2   6    5.04    0.38 
   1  -2  -6    4.75    0.31 
   1   2  -6    3.49    0.30 
  -1   2   6    3.34    0.32 
  -1   2   6    3.47    0.34 
   0  -2  -6   22.79    1.36 
   0  -2  -6   23.47    1.35 
   0  -2  -6   22.01    1.36 
   0  -2   6   22.45    1.39 
   0  -2   6   22.67    1.43 
   0  -2   6   21.75    1.41 
   0  -2  -6   22.52    1.39 
   0  -2  -6   22.63    1.39 
   0   2   6   23.31    1.38 
   0   2  -6   23.75    1.40 
   0   2   6   23.45    1.39 
   1  -2   6    1.60    0.22 
   1  -2   6    1.62    0.20 
  -1  -2  -6    1.49    0.21 
  -1  -2  -6    1.64    0.17 
  -1  -2  -6    1.54    0.16 
   1  -2   6    1.49    0.23 
  -1  -2  -6    1.77    0.16 
  -1   2  -6    1.90    0.22 
  -2  -2  -6   38.56    2.24 
  -2  -2  -6   41.65    2.23 
   2  -2   6   39.04    2.27 
   2   2   6   34.70    2.22 
  -2   2  -6   36.25    2.19 
  -2   2  -6   35.16    2.26 
  -3  -2  -6  103.17    5.84 
   3  -2   6  101.17    5.87 
  -3   2  -6  102.43    5.88 
  -3   2  -6   93.81    5.80 
   3   2   6  101.90    5.80 
   3   2   6   97.18    5.79 
   3   2   6  101.05    5.82 
  -4  -2  -6    8.67    0.59 
   4  -2   6    8.92    0.63 
   4   2   6    7.17    0.53 
  -4   2  -6    7.03    0.61 
   4   2   6    6.48    0.51 
   5  -2   6   50.70    3.17 
  -5  -2  -6   49.90    3.14 
   5   2   6   48.94    3.08 
   5   2   6   53.47    3.09 
  -5   2  -6   56.69    3.19 
   6  -2   6   38.91    2.57 
  -6  -2  -6   38.68    2.56 
   6   2   6   44.11    2.52 
  -6   2  -6   41.89    2.59 
  -7   2  -6    4.13    0.59 
  -7   2  -6    3.35    0.50 
   7   2   6    3.74    0.47 
   8  -2   6   11.12    1.00 
  -8  -2  -6   11.16    1.00 
  -8   2  -6   11.01    0.93 
   8   2   6   10.77    0.86 
  -8   2  -6   10.53    1.01 
  -8  -3   6    0.37    0.36 
   8  -3  -6    0.59    0.40 
  -8   3   6    0.75    0.37 
   8   3  -6    0.59    0.40 
  -8   3   6    0.69    0.38 
   7  -3  -6    0.74    0.35 
  -7  -3   6    0.79    0.35 
  -7   3   6    1.31    0.33 
  -7   3   6    1.27    0.37 
   7   3  -6    1.15    0.39 
  -7   3   6    1.23    0.21 
   6  -3  -6    0.23    0.25 
  -6  -3   6    0.14    0.27 
  -6  -3   6    0.40    0.28 
  -6   3   6    0.47    0.13 
   6   3  -6    0.39    0.27 
  -6   3   6    0.29    0.22 
  -6   3   6    0.44    0.24 
   5  -3  -6   46.78    2.86 
  -5  -3   6   47.27    2.89 
  -5  -3   6   45.96    2.88 
  -5  -3   6   44.75    2.73 
   5   3  -6   46.07    2.86 
  -5   3   6   45.04    2.80 
  -5   3   6   48.86    2.77 
  -5   3   6   47.50    2.86 
   4  -3  -6    3.99    0.40 
  -4  -3   6    3.69    0.43 
  -4  -3   6    3.70    0.28 
  -4  -3   6    4.02    0.43 
  -3  -3   6   33.82    2.28 
  -3  -3   6   33.59    2.28 
   3  -3  -6   34.80    2.25 
   3   3  -6   39.51    2.27 
   3   3  -6   38.98    2.21 
  -3   3   6   38.12    2.26 
  -3   3   6   38.24    2.20 
  -3   3   6   39.96    2.20 
  -2  -3   6  166.39    9.64 
  -2  -3   6  164.47    9.63 
   2   3  -6  167.24    9.56 
   2   3  -6  164.12    9.60 
  -2   3   6  167.19    9.61 
  -2   3   6  162.81    9.60 
  -2   3   6  166.36    9.56 
   1  -3  -6   13.78    0.85 
   1  -3  -6   13.26    0.82 
   1  -3  -6   13.88    0.87 
  -1  -3   6   12.93    0.83 
   1  -3  -6   13.28    0.86 
   1  -3  -6   13.08    0.84 
  -1  -3   6   13.62    0.91 
  -1  -3   6   13.76    0.90 
   0  -3  -6   60.47    3.63 
   0  -3  -6   61.68    3.59 
   0  -3   6   60.47    3.69 
   0  -3  -6   58.03    3.65 
   0  -3   6   59.36    3.67 
   0  -3   6   58.80    3.59 
   0  -3  -6   61.73    3.59 
   0  -3  -6   59.47    3.63 
   0   3   6   68.23    3.66 
   0   3   6   64.61    3.68 
   0   3   6   69.67    3.64 
  -1  -3  -6  152.39    9.12 
  -1  -3  -6  167.29    9.12 
  -1  -3  -6  153.15    9.16 
   1  -3   6  155.60    9.21 
   1  -3   6  160.42    9.20 
   1   3   6  161.56    9.13 
  -1   3  -6  162.90    9.11 
   1   3   6  156.93    9.17 
  -1   3  -6  153.72    9.18 
  -2  -3  -6   13.12    0.76 
   2  -3   6   13.32    0.84 
  -2   3  -6   10.94    0.74 
  -2   3  -6   11.49    0.81 
   2   3   6   11.40    0.74 
   3  -3   6   29.45    1.76 
  -3  -3  -6   27.81    1.69 
  -3   3  -6   27.08    1.68 
  -3   3  -6   26.57    1.74 
   3   3   6   28.68    1.67 
  -4  -3  -6   43.36    2.51 
   4  -3   6   43.73    2.56 
  -4   3  -6   38.79    2.48 
   4   3   6   40.21    2.43 
   4   3   6   39.93    2.46 
  -4   3  -6   40.81    2.55 
   4   3   6   43.60    2.44 
  -5  -3  -6    1.29    0.27 
   5  -3   6    1.53    0.32 
  -5   3  -6    2.14    0.32 
  -5   3  -6    1.65    0.32 
   5   3   6    2.16    0.26 
   5   3   6    2.18    0.23 
  -6  -3  -6    7.21    0.65 
   6  -3   6    6.68    0.69 
  -6   3  -6    6.68    0.68 
  -6   3  -6    6.24    0.59 
   6   3   6    6.53    0.53 
  -7  -3  -6    1.99    0.41 
   7  -3   6    1.99    0.43 
  -7   3  -6    1.70    0.34 
   7   3   6    1.13    0.34 
  -7   3  -6    1.34    0.41 
   8  -3   6   18.13    1.37 
  -8  -3  -6   17.00    1.33 
   8   3   6   16.62    1.17 
  -8   3  -6   17.25    1.36 
   8  -4  -6    4.76    0.78 
  -8  -4   6    4.85    0.77 
   8   4  -6    7.12    0.82 
  -8   4   6    6.66    0.72 
  -8   4   6    7.95    0.83 
   7  -4  -6   21.93    1.51 
  -7  -4   6   21.26    1.53 
  -7   4   6   19.24    1.28 
  -7   4   6   20.35    1.39 
   7   4  -6   21.36    1.52 
  -7   4   6   19.96    1.49 
  -6   4   6    7.43    0.62 
   6   4  -6    7.46    0.73 
  -6   4   6    7.35    0.72 
  -6   4   6    7.56    0.55 
  -5  -4   6   30.21    1.79 
  -5  -4   6   27.58    1.90 
   5  -4  -6   30.08    1.77 
   5   4  -6   26.15    1.75 
  -5   4   6   25.83    1.75 
  -5   4   6   25.48    1.67 
  -5   4   6   24.77    1.63 
  -4  -4   6   35.18    2.23 
  -4  -4   6   37.38    2.35 
   4  -4  -6   37.49    2.31 
  -4  -4   6   37.66    2.36 
  -4   4   6   38.00    2.24 
  -4   4   6   37.82    2.33 
  -4   4   6   37.93    2.24 
   4   4  -6   39.58    2.32 
  -3  -4   6   16.46    1.17 
  -3  -4   6   17.62    1.18 
   3  -4  -6   16.86    1.13 
  -3   4   6   17.78    1.09 
  -3   4   6   18.24    1.04 
  -3   4   6   16.50    1.14 
   3   4  -6   16.94    1.11 
   3   4  -6   17.62    1.13 
  -3   4   6   18.09    1.04 
  -2  -4   6   16.09    1.17 
  -2  -4   6   16.32    1.17 
  -2  -4   6   15.72    1.12 
   2  -4  -6   16.88    1.13 
  -2   4   6   19.85    1.17 
   2   4  -6   18.16    1.12 
   2   4  -6   19.53    1.13 
  -2   4   6   19.49    1.12 
  -1  -4   6    9.68    0.71 
  -1  -4   6   10.06    0.71 
   1  -4  -6    9.38    0.65 
   1  -4  -6    8.85    0.64 
   1  -4  -6    9.65    0.64 
  -1  -4   6    9.22    0.63 
   1  -4  -6    9.76    0.60 
  -1   4   6   10.21    0.70 
   1   4  -6    8.94    0.64 
  -1   4   6   10.29    0.68 
   1   4  -6   10.32    0.66 
   0  -4  -6   11.62    0.67 
   0  -4  -6   11.53    0.68 
   0  -4   6   11.40    0.71 
   0  -4   6   11.58    0.81 
   0  -4  -6   11.67    0.73 
   0   4   6   10.55    0.79 
   0   4   6   12.01    0.74 
   0   4   6   10.75    0.77 
   0   4  -6   11.38    0.76 
   1  -4   6    0.81    0.19 
   1  -4   6    0.78    0.18 
   1   4   6    0.03    0.14 
  -1   4  -6    0.10    0.12 
   1   4   6    0.08    0.12 
  -1   4  -6    0.14    0.09 
   2  -4   6   36.03    2.34 
  -2  -4  -6   38.11    2.26 
  -2   4  -6   39.54    2.35 
   2   4   6   39.73    2.22 
   3  -4   6   53.08    3.47 
  -3  -4  -6   53.07    3.40 
  -3   4  -6   58.79    3.47 
   3   4   6   58.85    3.34 
  -3   4  -6   61.38    3.41 
   3   4   6   61.07    3.34 
  -4  -4  -6   18.66    1.31 
   4  -4   6   19.89    1.39 
  -4   4  -6   21.91    1.32 
   4   4   6   20.48    1.24 
  -4   4  -6   22.04    1.39 
   4   4   6   21.61    1.25 
  -5  -4  -6   53.81    3.13 
   5  -4   6   55.51    3.20 
   5   4   6   51.45    3.03 
  -5   4  -6   50.97    3.10 
  -5   4  -6   50.80    3.17 
   5   4   6   47.31    3.02 
   6  -4   6   27.26    1.82 
  -6  -4  -6   27.57    1.75 
  -6   4  -6   26.67    1.79 
   6   4   6   26.76    1.60 
  -6   4  -6   24.79    1.71 
   7  -4   6    4.39    0.85 
  -7  -4  -6    4.33    0.61 
  -7   4  -6    6.35    0.62 
   7   4   6    5.44    0.45 
  -8  -4  -6    7.68    0.80 
   8  -4   6    7.70    0.85 
  -8   4  -6    6.10    0.80 
  -8   4  -6    6.54    0.73 
  -8  -5   6    1.41    0.47 
   8  -5  -6    1.11    0.44 
  -8   5   6    1.75    0.42 
  -8   5   6    1.80    0.48 
  -7  -5   6    7.47    0.86 
   7  -5  -6    7.31    0.78 
  -7   5   6    6.99    0.63 
  -7   5   6    6.88    0.56 
   7   5  -6    7.04    0.78 
   6  -5  -6    2.20    0.40 
  -6  -5   6    2.13    0.45 
  -6  -5   6    2.06    0.40 
   6   5  -6    1.27    0.35 
  -6   5   6    1.27    0.37 
  -6   5   6    1.77    0.29 
  -6   5   6    1.61    0.26 
  -5  -5   6   15.37    1.15 
   5  -5  -6   15.01    1.08 
  -5  -5   6   15.56    1.12 
  -5   5   6   15.56    0.98 
   5   5  -6   15.20    1.08 
  -5   5   6   14.77    0.99 
  -5   5   6   14.37    1.12 
  -4   5   6    2.14    0.28 
  -4   5   6    2.11    0.34 
   4   5  -6    2.14    0.34 
  -4   5   6    2.18    0.21 
   4   5  -6    2.07    0.34 
  -3  -5   6   27.88    1.92 
   3  -5  -6   27.18    1.87 
  -3  -5   6   27.41    1.93 
  -3   5   6   34.98    1.95 
   3   5  -6   31.25    1.88 
   3   5  -6   32.24    1.89 
  -3   5   6   32.65    1.87 
   2  -5  -6   93.98    5.47 
  -2  -5   6   97.26    5.55 
  -2  -5   6   98.83    5.54 
  -2   5   6   90.47    5.48 
  -2   5   6   93.68    5.52 
   2   5  -6   89.75    5.46 
   2   5  -6   91.35    5.48 
   1  -5  -6   38.01    2.48 
  -1  -5   6   40.24    2.55 
  -1  -5   6   38.68    2.48 
  -1  -5   6   39.12    2.55 
   1  -5  -6   40.76    2.49 
   1  -5  -6   38.49    2.43 
  -1   5   6   46.29    2.55 
   1   5  -6   46.06    2.52 
   1   5  -6   44.58    2.48 
  -1   5   6   44.95    2.54 
   0  -5   6  140.69    7.74 
   0  -5  -6  139.86    7.68 
   0  -5   6  136.65    7.73 
   0  -5  -6  139.01    7.64 
   0   5   6  128.16    7.71 
   0   5  -6  123.22    7.65 
   0   5  -6  126.33    7.69 
   0   5   6  122.40    7.72 
   1  -5   6  102.52    5.79 
   1  -5   6  102.25    5.80 
  -1  -5  -6  105.96    5.65 
   1   5   6   91.72    5.77 
   1   5   6   95.63    5.81 
  -1   5  -6   95.83    5.76 
  -1   5  -6   92.49    5.70 
   2  -5   6   15.03    1.16 
  -2  -5  -6   15.28    1.06 
  -2   5  -6   20.80    1.18 
  -2   5  -6   19.90    1.12 
  -3   5  -6   19.08    1.21 
  -4  -5  -6   10.19    0.71 
   4  -5   6   10.24    0.82 
  -4   5  -6    9.24    0.78 
  -4   5  -6   10.16    0.74 
  -5  -5  -6    8.20    0.70 
   5  -5   6    8.68    0.80 
  -5   5  -6    9.31    0.73 
  -5   5  -6   10.32    0.80 
   6  -5   6    0.38    0.29 
  -6  -5  -6    0.32    0.23 
  -6   5  -6    0.12    0.27 
  -6   5  -6    0.03    0.23 
  -7  -5  -6    0.89    0.33 
   7  -5   6    0.75    0.37 
  -7   5  -6    1.87    0.44 
  -7   5  -6    1.69    0.39 
  -8  -5  -6    1.57    0.44 
   8  -5   6    1.31    0.48 
  -8   5  -6    1.64    0.42 
  -8   5  -6    2.14    0.50 
  -8  -6   6    9.17    1.01 
  -8   6   6   10.13    1.05 
  -7  -6   6   12.35    1.16 
   7  -6  -6   12.59    1.10 
  -7   6   6   13.55    0.93 
   7   6  -6   13.22    1.10 
  -7   6   6   13.77    0.93 
  -7   6   6   13.85    1.17 
  -6  -6   6    7.93    0.87 
   6  -6  -6    8.83    0.81 
  -6  -6   6    8.44    0.81 
   6   6  -6   10.11    0.84 
  -6   6   6   10.46    0.91 
  -6   6   6    8.52    0.74 
  -6   6   6    9.78    0.71 
  -5  -6   6   31.89    2.14 
   5  -6  -6   31.68    2.06 
  -5   6   6   32.99    2.01 
  -5   6   6   32.32    1.92 
  -5   6   6   33.57    2.13 
   5   6  -6   32.16    2.06 
  -4  -6   6   27.55    1.86 
   4  -6  -6   26.88    1.80 
  -4   6   6   34.51    2.21 
   4   6  -6   27.48    1.80 
  -4   6   6   29.05    1.79 
   4   6  -6   29.20    1.85 
  -3  -6   6    2.60    0.40 
  -2  -6   6   31.14    1.91 
  -2  -6   6   31.02    1.93 
   2  -6  -6   30.18    1.83 
   2   6  -6   28.66    1.82 
   2   6  -6   28.35    1.87 
  -2   6   6   31.07    1.92 
  -2   6   6   30.08    1.87 
   1  -6  -6   11.03    0.75 
  -1  -6   6   10.73    0.83 
   1  -6  -6   10.56    0.70 
  -1  -6   6   10.61    0.84 
   1  -6  -6   10.59    0.74 
  -1   6   6   11.62    0.83 
   1   6  -6   12.78    0.83 
   1   6  -6   12.38    0.74 
  -1   6   6   12.52    0.86 
   0  -6  -6   23.83    1.52 
   0  -6  -6   25.23    1.60 
   0  -6   6   25.29    1.68 
   0  -6  -6   24.52    1.57 
   0  -6   6   24.91    1.68 
   0   6   6   29.10    1.71 
   0   6   6   29.01    1.70 
   0   6  -6   27.39    1.59 
   0   6  -6   28.60    1.68 
   1  -6   6    1.13    0.26 
   1  -6   6    0.79    0.23 
  -1  -6  -6    1.02    0.10 
   1   6   6    1.03    0.24 
   1   6   6    1.10    0.30 
  -1   6  -6    1.11    0.24 
  -1   6  -6    1.01    0.23 
  -1   6  -6    1.13    0.21 
   2  -6   6   22.72    1.44 
  -2  -6  -6   22.85    1.26 
  -2   6  -6   21.03    1.56 
  -2   6  -6   20.83    1.40 
  -2   6  -6   19.30    1.32 
   2   6   6   18.93    1.44 
   3  -6   6   33.34    2.14 
  -3  -6  -6   36.59    2.09 
  -3   6  -6   32.42    2.06 
  -3   6  -6   31.94    2.10 
   4  -6   6    7.98    0.73 
  -4  -6  -6    8.01    0.59 
  -4   6  -6    7.63    0.69 
  -4   6  -6    7.71    0.64 
  -5  -6  -6   27.93    1.68 
   5  -6   6   29.16    1.80 
  -5   6  -6   23.74    1.73 
  -5   6  -6   23.43    1.68 
   6  -6   6   35.34    2.36 
  -6   6  -6   34.63    2.26 
  -6   6  -6   36.56    2.32 
  -7  -6  -6    1.50    0.39 
   7  -6   6    1.58    0.48 
  -7   6  -6    2.93    0.51 
  -7   6  -6    2.70    0.46 
   7  -7  -6    0.29    0.34 
  -7  -7   6    0.45    0.40 
  -7   7   6    0.32    0.22 
  -7   7   6    0.11    0.36 
  -6  -7   6    0.01    0.25 
  -6  -7   6    0.17    0.34 
   6  -7  -6   -0.06    0.24 
  -6   7   6    0.13    0.12 
   6   7  -6    0.18    0.27 
  -6   7   6    0.27    0.22 
  -6   7   6    0.08    0.36 
  -5  -7   6   14.57    1.09 
  -5  -7   6   14.08    1.15 
  -5   7   6   14.31    1.16 
   5   7  -6   14.49    1.05 
  -4  -7   6    5.82    0.64 
   4  -7  -6    5.79    0.57 
  -4  -7   6    5.40    0.68 
  -4   7   6    7.67    0.61 
  -4   7   6    7.97    0.73 
   4   7  -6    7.55    0.59 
   4   7  -6    7.60    0.69 
   3  -7  -6   25.63    1.47 
  -3  -7   6   24.14    1.58 
  -3  -7   6   23.98    1.63 
  -3   7   6   22.82    1.50 
   3   7  -6   20.82    1.52 
   3   7  -6   22.15    1.44 
  -3   7   6   21.33    1.56 
   2  -7  -6   44.64    2.47 
  -2  -7   6   42.85    2.56 
  -2  -7   6   43.65    2.59 
   2   7  -6   38.95    2.44 
  -2   7   6   38.05    2.56 
  -2   7   6   40.25    2.53 
   2   7  -6   39.18    2.54 
   1  -7  -6   10.26    0.66 
   1  -7  -6   10.55    0.61 
  -1  -7   6   10.27    0.77 
   1  -7  -6    9.00    0.66 
  -1   7   6    8.72    0.75 
   1   7  -6    8.98    0.75 
  -1   7   6    8.65    0.84 
   1   7  -6    9.47    0.63 
   0  -7   6   29.49    2.05 
   0  -7  -6   30.23    1.89 
   0  -7  -6   29.69    1.91 
   0  -7  -6   29.93    1.95 
   0  -7   6   34.95    2.33 
   0  -7  -6   29.26    1.89 
   0   7   6   39.37    2.11 
   0   7  -6   39.06    1.94 
  -1  -7  -6   58.12    3.22 
   1  -7   6   60.54    3.40 
   1  -7   6   59.90    3.40 
  -1   7  -6   55.18    3.32 
   1   7   6   53.17    3.40 
  -1   7  -6   51.10    3.43 
   1   7   6   56.13    3.59 
  -1   7  -6   50.29    3.25 
   2  -7   6    4.33    0.59 
   2   7   6    7.11    0.70 
  -2   7  -6    7.10    0.56 
  -2   7  -6    7.06    0.62 
  -2   7  -6    7.31    0.59 
   3  -7   6   59.17    3.53 
  -3   7  -6   58.32    3.49 
  -3   7  -6   57.78    3.52 
  -3   7  -6   54.31    3.43 
   4  -7   6   11.72    0.97 
  -4  -7  -6   10.97    0.82 
  -4   7  -6   12.32    0.90 
  -4   7  -6   12.78    0.95 
   5  -7   6    1.63    0.42 
  -5  -7  -6    1.59    0.30 
  -5   7  -6    0.89    0.33 
  -6  -7  -6    2.38    0.41 
   6  -7   6    1.83    0.47 
  -6   7  -6    1.71    0.42 
  -6   7  -6    1.69    0.38 
   7  -7   6    1.13    0.47 
  -7  -7  -6    0.50    0.33 
  -7   7  -6    1.38    0.44 
  -7   7  -6    0.92    0.40 
  -7  -8   6   25.48    1.82 
  -7   8   6   24.57    1.82 
  -7   8   6   22.80    1.59 
   6  -8  -6    1.65    0.38 
  -6  -8   6    1.77    0.48 
  -6  -8   6    1.25    0.36 
  -5  -8   6   10.35    0.90 
   5  -8  -6    9.87    0.85 
  -5  -8   6   10.06    0.98 
  -5   8   6   13.10    1.21 
  -5   8   6   11.71    1.02 
   5   8  -6   11.63    0.86 
   4  -8  -6   31.21    1.94 
  -4  -8   6   31.50    2.08 
   4   8  -6   31.42    2.05 
  -4   8   6   30.36    1.98 
   4   8  -6   29.66    1.92 
  -4   8   6   30.94    2.07 
  -3  -8   6    0.24    0.27 
  -3   8   6    0.79    0.34 
   3   8  -6    1.11    0.21 
  -3   8   6    1.03    0.30 
   3   8  -6    0.75    0.31 
  -2  -8   6   10.50    0.82 
   2  -8  -6   10.15    0.68 
   2   8  -6    9.44    0.66 
  -2   8   6   10.01    0.86 
  -2   8   6    9.64    0.80 
   2   8  -6    9.20    0.94 
  -1  -8   6    7.15    0.67 
   1  -8  -6    7.30    0.50 
  -1  -8   6    6.63    0.64 
   1   8  -6    7.00    0.49 
   1   8  -6    6.33    0.66 
  -1   8   6    7.49    0.70 
  -1   8   6    6.30    0.65 
   0  -8   6    6.96    0.68 
   0  -8   6    7.46    0.68 
   0  -8  -6    7.21    0.49 
   0  -8  -6    7.74    0.53 
   0  -8  -6    7.25    0.48 
   0  -8  -6    7.09    0.47 
   0   8   6    7.47    0.70 
   0   8  -6    8.33    0.70 
   0   8  -6    8.13    0.50 
   0   8   6    8.31    0.75 
  -1  -8  -6    2.37    0.27 
   1  -8   6    2.99    0.46 
  -1  -8  -6    2.72    0.21 
  -1  -8  -6    2.33    0.19 
   1  -8   6    2.34    0.41 
   1   8   6    2.88    0.45 
   1   8   6    2.47    0.45 
  -1   8  -6    2.35    0.34 
  -1   8  -6    2.23    0.23 
  -1   8  -6    2.21    0.40 
  -2  -8  -6    6.38    0.40 
   2  -8   6    6.15    0.61 
   2  -8   6    6.99    0.64 
  -2   8  -6    4.17    0.50 
   2   8   6    4.09    0.63 
  -2   8  -6    4.07    0.57 
  -3  -8  -6   56.44    3.26 
   3  -8   6   53.72    3.41 
  -3   8  -6   55.82    3.42 
  -3   8  -6   54.71    3.36 
  -3   8  -6   54.29    3.34 
   4  -8   6    4.42    0.65 
  -4  -8  -6    4.46    0.45 
  -4   8  -6    5.88    0.59 
  -4   8  -6    5.45    0.65 
  -4   8  -6    5.22    0.59 
  -5  -8  -6   10.16    0.84 
   5  -8   6    9.80    0.99 
  -5   8  -6   11.91    1.03 
  -5   8  -6   12.72    0.94 
  -5   8  -6   11.53    0.94 
  -6  -8  -6   14.64    1.13 
   6  -8   6   14.70    1.27 
  -6   8  -6   15.54    1.19 
  -6   8  -6   16.25    1.23 
  -6   8  -6   16.21    1.30 
  -6  -9   6   -0.01    0.27 
  -6  -9   6   -0.17    0.37 
  -6   9   6   -0.13    0.37 
  -6   9   6    0.21    0.26 
  -5  -9   6    2.52    0.74 
   5  -9  -6    2.49    0.39 
  -5  -9   6    2.25    0.43 
  -5   9   6    2.01    0.40 
  -5   9   6    1.68    0.46 
   5   9  -6    1.53    0.42 
  -4  -9   6    2.93    0.53 
   4  -9  -6    3.21    0.38 
  -4  -9   6    2.94    0.47 
   4   9  -6    2.51    0.49 
  -4   9   6    2.48    0.44 
  -4   9   6    2.88    0.56 
   3  -9  -6   11.15    0.79 
  -3  -9   6   11.56    0.98 
  -3   9   6   11.34    1.00 
   3   9  -6   10.92    0.97 
  -3   9   6   11.92    0.94 
   2  -9  -6   47.66    2.82 
  -2  -9   6   47.96    3.00 
  -2  -9   6   48.56    2.97 
  -2   9   6   47.64    3.03 
   2   9  -6   47.58    2.80 
  -2   9   6   45.86    2.97 
   2   9  -6   48.05    3.14 
  -1  -9   6   15.13    1.13 
  -1  -9   6   14.66    1.10 
   1  -9  -6   15.29    0.92 
   1  -9  -6   13.60    0.93 
   0  -9   6   42.86    2.85 
   0  -9   6   42.51    2.69 
   0  -9  -6   41.73    2.50 
   0  -9  -6   43.58    2.51 
   0   9   6   38.38    2.70 
   0   9  -6   44.40    2.70 
   0   9   6   43.58    2.74 
   1  -9   6   24.31    1.75 
  -1  -9  -6   26.16    1.58 
  -1  -9  -6   25.08    1.56 
   1  -9   6   26.85    1.76 
  -1   9  -6   25.65    1.70 
  -1   9  -6   28.30    1.78 
   1   9   6   27.61    1.84 
   1   9   6   25.55    1.78 
  -2  -9  -6    4.99    0.43 
   2  -9   6    5.79    0.65 
  -2  -9  -6    5.23    0.41 
   2  -9   6    5.61    0.66 
   2   9   6    5.99    0.75 
  -2   9  -6    6.16    0.57 
  -2   9  -6    5.97    0.68 
   3  -9   6    9.07    0.84 
  -3  -9  -6    8.79    0.60 
   3  -9   6    9.13    0.82 
   3   9   6    7.50    0.88 
  -3   9  -6    7.59    0.79 
  -3   9  -6    7.40    0.71 
  -3   9  -6    7.04    0.71 
  -4   9  -6    1.62    0.40 
  -4   9  -6    1.55    0.36 
  -4   9  -6    2.40    0.41 
  -5  -9  -6    6.70    0.64 
   5  -9   6    5.65    0.80 
  -5   9  -6    6.85    0.71 
  -5   9  -6    6.37    0.79 
  -5   9  -6    7.08    0.73 
  -6  -9  -6    2.33    0.40 
   6  -9   6    2.09    0.55 
  -6   9  -6    1.33    0.41 
  -6   9  -6    1.74    0.43 
  -6   9  -6    1.38    0.49 
  -5 -10   6   14.58    1.09 
  -5 -10   6   14.96    1.25 
   5  10  -6   13.70    1.20 
  -5  10   6   14.22    1.26 
  -5  10   6   13.29    1.10 
  -4 -10   6    9.42    0.85 
  -4  10   6   10.36    0.91 
  -4  10   6   10.32    1.01 
   4  10  -6   10.87    1.00 
   3 -10  -6    0.63    0.16 
  -3 -10   6    0.77    0.37 
  -3 -10   6    0.81    0.30 
   3 -10  -6    0.38    0.21 
  -3  10   6    1.50    0.41 
   3  10  -6    1.20    0.39 
  -3  10   6    1.37    0.36 
  -2 -10   6    8.63    0.83 
   2 -10  -6    8.85    0.64 
  -2 -10   6    7.73    0.76 
   2 -10  -6    9.09    0.58 
   2  10  -6    8.53    0.87 
  -2  10   6    7.07    0.78 
  -2  10   6    7.53    0.86 
   1 -10  -6    1.84    0.27 
  -1 -10   6    1.42    0.39 
  -1 -10   6    2.26    0.42 
   1 -10  -6    1.91    0.16 
   1  10  -6    1.06    0.40 
  -1  10   6    1.38    0.42 
  -1  10   6    0.89    0.35 
   0 -10  -6    9.40    0.65 
   0 -10   6    9.86    0.89 
   0 -10   6    9.72    0.87 
   0 -10  -6    9.48    0.59 
   0  10   6   11.24    0.96 
   0  10  -6   10.24    0.92 
   0  10   6    9.85    0.92 
   1 -10   6    0.91    0.34 
  -1 -10  -6    1.46    0.19 
   1 -10   6    0.99    0.34 
  -1 -10  -6    1.12    0.14 
   1  10   6    0.98    0.41 
  -1  10  -6    0.33    0.32 
  -2 -10  -6    5.22    0.40 
  -2 -10  -6    4.97    0.38 
   2 -10   6    4.60    0.65 
   2 -10   6    5.48    0.67 
  -2  10  -6    5.28    0.70 
   2  10   6    4.96    0.76 
  -2  10  -6    5.20    0.61 
   3 -10   6   18.01    1.37 
  -3 -10  -6   17.07    1.18 
   3 -10   6   17.61    1.38 
   3  10   6   18.06    1.50 
  -3  10  -6   18.38    1.42 
  -3  10  -6   18.71    1.30 
   4 -10   6    4.67    0.72 
   4 -10   6    4.35    0.69 
  -4  10  -6    4.93    0.62 
  -4  10  -6    4.28    0.70 
   5 -10   6   16.03    1.24 
  -5  10  -6   11.21    1.11 
  -5  10  -6   11.80    1.15 
  -5  10  -6   12.84    1.04 
  -4 -11   6    0.16    0.27 
   4 -11  -6    0.05    0.22 
  -4 -11   6   -0.08    0.37 
   4  11  -6    0.40    0.40 
  -4  11   6    0.38    0.30 
  -4  11   6    0.45    0.42 
  -3 -11   6    4.42    0.58 
   3 -11  -6    4.85    0.51 
  -3 -11   6    4.63    0.69 
   3  11  -6    4.82    0.73 
  -3  11   6    4.99    0.76 
  -3  11   6    4.56    0.64 
  -2 -11   6    9.26    0.81 
   2 -11  -6    8.08    0.67 
  -2 -11   6    9.09    0.89 
   2  11  -6    8.36    0.90 
  -2  11   6    8.36    0.92 
  -2  11   6    8.59    0.87 
   1  11  -6    4.61    0.72 
  -1  11   6    4.39    0.67 
  -1  11   6    5.18    0.78 
   0 -11   6   24.84    1.65 
   0 -11   6   24.83    1.68 
   0  11  -6   21.57    1.67 
   0  11   6   23.06    1.71 
   0  11   6   22.20    1.70 
   1 -11   6   16.23    1.29 
   1 -11   6   17.44    1.28 
   1  11   6   16.14    1.38 
  -1  11  -6   16.02    1.32 
   2 -11   6    3.31    0.56 
   2 -11   6    4.14    0.77 
  -2  11  -6    4.66    0.71 
   2  11   6    3.35    0.65 
  -2  11  -6    3.84    0.58 
   3 -11   6    7.47    0.88 
   3 -11   6    8.05    0.89 
  -3  11  -6    8.67    0.93 
  -3  11  -6    8.25    0.81 
   3  11   6    8.37    1.00 
   4 -11   6    5.71    0.81 
   4 -11   6    6.40    0.87 
  -4  11  -6    7.28    0.88 
  -3 -12   6   -0.05    0.23 
  -3 -12   6   -0.06    0.33 
   3  12  -6    0.22    0.39 
  -3  12   6    0.17    0.37 
  -3  12   6    0.48    0.36 
  -2 -12   6    0.77    0.34 
  -2 -12   6    1.21    0.44 
   2  12  -6    1.21    0.47 
  -2  12   6    1.09    0.47 
  -2  12   6    1.22    0.43 
  -1 -12   6    3.91    0.58 
  -1 -12   6    3.71    0.61 
  -1  12   6    4.25    0.70 
  -1  12   6    3.86    0.67 
   1  12  -6    3.70    0.66 
   0 -12   6    5.73    0.70 
   0 -12   6    4.73    0.74 
   0  12   6    6.17    0.81 
   0  12   6    5.95    0.82 
   0  12  -6    6.06    0.79 
   1 -12   6    0.16    0.32 
   1 -12   6    0.20    0.37 
  -1  12  -6    0.19    0.40 
   1  12   6    0.27    0.40 
   2 -12   6    2.55    0.52 
   2 -12   6    2.89    0.53 
  -2  12  -6    2.60    0.59 
   2  12   6    2.61    0.64 
  -2  12  -6    2.09    0.44 
   3 -12   6    5.85    0.83 
   3 -12   6    6.15    0.80 
  -3  12  -6    5.54    0.73 
  -3  12  -6    6.05    0.86 
   3  12   6    5.91    0.92 
   0 -13   6    3.63    0.60 
   0 -13   6    2.65    0.57 
   0  13   6    4.71    0.80 
  -8   0   7    2.08    0.46 
   8   0  -7    1.77    0.50 
   7   0  -7   30.43    2.08 
  -7   0   7   30.94    2.03 
  -6   0   7   23.65    1.62 
   6   0  -7   24.99    1.66 
  -5   0   7   13.34    0.99 
   5   0  -7   14.41    1.02 
  -5   0   7   14.15    1.04 
  -4   0   7   25.62    1.58 
  -4   0   7   24.08    1.61 
   4   0  -7   24.76    1.59 
  -3   0   7   64.29    3.90 
   3   0  -7   66.89    3.89 
  -3   0   7   64.97    3.87 
  -2   0   7    6.40    0.55 
  -2   0   7    6.93    0.49 
  -2   0   7    7.14    0.52 
  -2   0   7    7.96    0.49 
   1   0  -7   37.52    2.34 
  -1   0   7   41.40    2.34 
  -1   0   7   39.54    2.37 
  -1   0   7   39.93    2.36 
  -1   0   7   40.77    2.42 
   1   0  -7   41.30    2.41 
   0   0   7    0.73    0.13 
   0   0   7    0.80    0.13 
   0   0  -7    0.84    0.14 
   0   0   7    0.57    0.15 
  -1   0  -7   10.21    0.66 
   1   0   7    9.74    0.64 
   1   0   7   10.02    0.65 
   1   0   7    9.98    0.70 
  -2   0  -7    0.70    0.15 
   2   0   7    0.74    0.14 
  -2   0  -7    0.81    0.11 
   2   0   7    0.90    0.19 
   2   0   7    0.80    0.15 
   3   0   7   43.49    2.65 
   3   0   7   43.90    2.66 
   3   0   7   46.14    2.69 
  -3   0  -7   44.92    2.68 
   4   0   7   52.96    3.19 
  -4   0  -7   53.68    3.22 
  -5   0  -7   12.19    0.93 
   5   0   7   13.17    0.92 
   6   0   7   35.62    2.21 
  -6   0  -7   34.20    2.24 
   7   0   7   33.99    2.15 
  -7   0  -7   32.95    2.21 
  -8   0  -7    1.67    0.45 
   8   0   7    1.77    0.41 
   8  -1  -7    8.69    0.93 
  -8  -1   7    8.46    0.85 
  -8   1   7    7.71    0.81 
  -8   1   7    7.92    0.82 
   8   1  -7    8.45    0.93 
   7  -1  -7    0.12    0.31 
  -7  -1   7    0.19    0.31 
   7   1  -7    0.04    0.31 
  -7   1   7   -0.08    0.26 
  -7   1   7    0.20    0.27 
   6  -1  -7    3.27    0.51 
  -6  -1   7    3.18    0.49 
  -6   1   7    4.13    0.49 
   6   1  -7    3.18    0.51 
  -6   1   7    3.34    0.45 
   5  -1  -7    0.72    0.24 
  -5  -1   7    0.93    0.30 
  -5  -1   7    0.86    0.26 
   5   1  -7    0.41    0.23 
   4  -1  -7   58.09    3.32 
  -4  -1   7   54.60    3.30 
  -4  -1   7   57.90    3.35 
  -4   1   7   55.81    3.27 
  -4   1   7   52.19    3.33 
   4   1  -7   53.99    3.30 
  -4   1   7   50.96    3.26 
   3   1  -7    6.42    0.52 
  -3   1   7    6.58    0.54 
  -3   1   7    6.13    0.45 
  -3   1   7    6.64    0.49 
  -3   1   7    6.55    0.48 
  -2  -1   7   65.77    4.40 
  -2  -1   7   65.97    4.43 
  -2   1   7   82.20    4.38 
  -2   1   7   75.81    4.36 
  -2   1   7   80.77    4.38 
   2   1  -7   78.49    4.42 
  -2   1   7   75.13    4.43 
  -1  -1   7  118.88    6.99 
  -1  -1   7  128.26    6.89 
  -1  -1   7  113.52    6.93 
  -1  -1   7  112.42    6.95 
   1  -1  -7  113.74    6.90 
   1  -1  -7  113.09    6.96 
  -1   1   7  127.49    6.92 
   1   1  -7  121.35    6.96 
  -1   1   7  120.37    6.97 
  -1   1   7  125.85    6.90 
   0  -1  -7   33.91    2.07 
   0  -1  -7   32.95    2.10 
   0  -1   7   34.72    2.09 
   0  -1   7   33.46    2.12 
   0  -1  -7   32.63    2.08 
   0  -1  -7   34.60    2.09 
   0   1   7   41.50    2.05 
   1  -1   7   57.67    3.64 
  -1  -1  -7   59.65    3.59 
   1  -1   7   57.42    3.61 
   1  -1   7   58.90    3.60 
  -1  -1  -7   55.28    3.55 
  -1   1  -7   65.15    3.62 
   1   1   7   64.42    3.62 
   1   1   7   67.20    3.56 
   1   1   7   66.35    3.56 
   2  -1   7  140.09    8.15 
   2  -1   7  146.56    8.19 
  -2  -1  -7  145.05    8.15 
   2  -1   7  150.48    8.17 
  -2  -1  -7  138.81    8.12 
   2   1   7  143.56    8.16 
  -2   1  -7  141.99    8.17 
   2   1   7  140.27    8.11 
  -2   1  -7  119.81    8.08 
   2   1   7  141.94    8.12 
  -2   1  -7  137.21    8.09 
  -3  -1  -7    6.88    0.51 
  -3  -1  -7    7.36    0.54 
   3  -1   7    7.67    0.56 
   3   1   7    7.07    0.54 
  -3   1  -7    6.96    0.56 
   3   1   7    7.00    0.49 
   3   1   7    7.38    0.51 
  -4  -1  -7   35.13    2.10 
   4  -1   7   35.79    2.11 
   4   1   7   31.28    2.05 
   4   1   7   34.24    2.06 
  -4   1  -7   33.74    2.11 
   5  -1   7   18.18    1.17 
  -5  -1  -7   16.84    1.16 
   5   1   7   15.74    1.10 
  -5   1  -7   16.37    1.17 
  -6  -1  -7    2.84    0.46 
   6  -1   7    2.86    0.43 
  -6   1  -7    3.60    0.51 
   6   1   7    3.28    0.42 
   7  -1   7    2.03    0.41 
  -7  -1  -7    2.67    0.45 
   7   1   7    2.26    0.38 
  -7   1  -7    2.50    0.47 
  -8  -1  -7    1.09    0.41 
   8  -1   7    1.16    0.40 
   8   1   7    1.99    0.39 
  -8   1  -7    1.33    0.41 
  -8   1  -7    1.85    0.46 
   8  -2  -7    1.72    0.49 
  -8  -2   7    1.06    0.41 
  -8   2   7    0.73    0.35 
  -8   2   7    1.02    0.38 
   8   2  -7    0.88    0.43 
   7  -2  -7   11.72    1.06 
  -7  -2   7   10.67    1.02 
  -7   2   7   13.12    0.99 
   7   2  -7   13.86    1.09 
  -7   2   7   13.30    1.02 
  -6  -2   7   38.80    2.47 
  -6  -2   7   39.91    2.51 
   6  -2  -7   39.33    2.48 
   6   2  -7   37.70    2.47 
  -6   2   7   38.29    2.43 
  -6   2   7   38.14    2.46 
   5  -2  -7   10.66    0.88 
  -5  -2   7   10.71    0.90 
  -5  -2   7   10.13    0.88 
   5   2  -7   12.17    0.90 
  -5   2   7   12.23    0.84 
  -5   2   7   13.50    0.88 
  -4  -2   7   84.45    4.81 
   4  -2  -7   80.98    4.73 
  -4  -2   7   82.11    4.75 
   4   2  -7   75.03    4.72 
  -4   2   7   74.19    4.67 
  -4   2   7   78.63    4.83 
  -4   2   7   81.77    4.70 
  -3  -2   7   40.70    2.57 
  -3  -2   7   40.47    2.54 
   3  -2  -7   41.63    2.53 
  -3   2   7   42.01    2.51 
  -3   2   7   42.40    2.48 
  -3   2   7   43.56    2.57 
  -3   2   7   41.18    2.46 
   3   2  -7   42.33    2.53 
  -2  -2   7    8.41    0.58 
  -2  -2   7    8.29    0.55 
  -2   2   7    6.46    0.49 
  -2   2   7    6.11    0.52 
   2   2  -7    6.24    0.43 
   2   2  -7    6.83    0.52 
  -2   2   7    6.14    0.43 
   1  -2  -7   39.32    2.42 
  -1  -2   7   40.81    2.40 
  -1  -2   7   40.22    2.48 
   1  -2  -7   38.48    2.43 
   1  -2  -7   39.93    2.47 
  -1  -2   7   41.65    2.51 
   1   2  -7   45.60    2.43 
  -1   2   7   44.77    2.49 
   1   2  -7   39.68    2.47 
  -1   2   7   42.02    2.44 
   0  -2  -7    1.06    0.17 
   0  -2  -7    1.12    0.13 
   0  -2   7    1.12    0.19 
   0  -2  -7    1.23    0.15 
   0  -2  -7    1.12    0.14 
   0  -2   7    1.21    0.21 
   0  -2  -7    1.23    0.17 
   0   2   7    1.02    0.16 
   0   2   7    1.01    0.18 
   0   2  -7    1.07    0.19 
   1  -2   7   24.08    1.53 
  -1  -2  -7   23.53    1.48 
  -1  -2  -7   24.59    1.47 
  -1  -2  -7   25.27    1.47 
   1  -2   7   25.69    1.56 
  -1   2  -7   24.73    1.52 
   1   2   7   24.44    1.50 
  -2   2  -7    1.49    0.14 
   2   2   7    1.53    0.21 
  -2   2  -7    1.39    0.22 
  -3  -2  -7   30.44    1.91 
   3  -2   7   28.71    1.94 
  -3   2  -7   33.05    1.96 
   3   2   7   33.78    1.91 
   4  -2   7   33.78    2.32 
  -4  -2  -7   33.87    2.30 
   4   2   7   39.49    2.25 
  -4   2  -7   38.01    2.26 
  -4   2  -7   40.50    2.36 
   4   2   7   38.40    2.24 
   4   2   7   40.39    2.29 
   5  -2   7   11.50    0.84 
  -5  -2  -7   11.33    0.82 
  -5   2  -7   10.10    0.83 
   5   2   7   10.15    0.73 
   5   2   7   10.34    0.76 
  -5   2  -7   10.20    0.75 
   6  -2   7   32.61    2.06 
  -6  -2  -7   33.04    2.13 
  -6   2  -7   30.00    1.97 
  -6   2  -7   30.77    2.06 
  -7  -2  -7   18.50    1.31 
   7  -2   7   18.27    1.31 
  -7   2  -7   16.83    1.22 
  -7   2  -7   18.00    1.33 
   7   2   7   16.58    1.18 
  -8  -2  -7    2.97    0.53 
   8  -2   7    2.50    0.50 
   8   2   7    3.39    0.46 
  -8   2  -7    3.58    0.58 
  -8  -3   7    4.40    0.72 
   8  -3  -7    5.14    0.78 
   8   3  -7    5.45    0.78 
  -8   3   7    5.69    0.72 
  -8   3   7    5.49    0.62 
   7  -3  -7    5.94    0.74 
  -7  -3   7    5.76    0.71 
   7   3  -7    5.89    0.73 
  -7   3   7    6.61    0.63 
  -7   3   7    6.39    0.78 
   6  -3  -7   11.42    0.92 
  -6  -3   7   11.61    0.95 
  -6  -3   7   12.63    0.96 
  -6   3   7   11.45    0.91 
   6   3  -7   11.00    0.92 
  -6   3   7   11.31    0.84 
  -6   3   7    9.84    0.66 
  -5  -3   7   -0.05    0.22 
   5  -3  -7    0.00    0.20 
  -5  -3   7   -0.05    0.21 
   5   3  -7    0.14    0.20 
  -5   3   7    0.06    0.17 
  -5   3   7    0.14    0.20 
  -5   3   7    0.20    0.07 
   4  -3  -7   12.99    0.99 
  -4  -3   7   13.27    1.02 
  -4  -3   7   13.61    1.08 
   4   3  -7   14.18    1.00 
  -4   3   7   15.84    0.93 
  -4   3   7   14.43    0.87 
  -4   3   7   15.77    1.00 
  -3   3   7    6.49    0.42 
   3   3  -7    6.10    0.44 
  -3   3   7    6.59    0.53 
  -3   3   7    6.36    0.43 
  -3   3   7    6.60    0.43 
   3   3  -7    6.46    0.53 
  -3   3   7    6.25    0.54 
  -2  -3   7   15.46    0.97 
   2  -3  -7   15.69    0.92 
  -2  -3   7   16.17    0.95 
  -2   3   7   12.36    0.90 
   2   3  -7   12.31    0.84 
   2   3  -7   11.39    0.89 
  -2   3   7   12.96    0.85 
  -2   3   7   12.93    0.89 
   1  -3  -7  172.79    9.80 
   1  -3  -7  170.14    9.78 
  -1  -3   7  172.37    9.77 
  -1  -3   7  172.01    9.77 
   1  -3  -7  171.53    9.84 
  -1  -3   7  167.71    9.85 
   1   3  -7  173.53    9.80 
  -1   3   7  166.48    9.82 
   1   3  -7  162.67    9.82 
  -1   3   7  164.94    9.82 
   0  -3   7   41.88    2.61 
   0  -3   7   44.37    2.63 
   0  -3  -7   41.58    2.57 
   0  -3  -7   39.55    2.55 
   0  -3  -7   44.54    2.53 
   0  -3  -7   45.63    2.60 
   0  -3  -7   42.91    2.53 
   0   3   7   44.39    2.57 
   0   3  -7   43.91    2.60 
   0   3   7   43.77    2.58 
   1  -3   7  160.72    9.44 
  -1  -3  -7  169.18    9.36 
   1  -3   7  163.48    9.46 
  -1  -3  -7  166.77    9.40 
  -1   3  -7  155.80    9.43 
   1   3   7  157.86    9.38 
  -2  -3  -7   70.13    4.01 
   2  -3   7   69.58    4.10 
   2  -3   7   68.79    4.08 
  -2   3  -7   69.06    4.08 
  -2   3  -7   66.01    3.98 
   3  -3   7   14.85    1.09 
  -3  -3  -7   15.15    1.03 
   3   3   7   17.02    1.02 
  -3   3  -7   16.99    1.01 
  -3   3  -7   17.02    1.10 
  -4  -3  -7   19.56    1.28 
   4  -3   7   20.08    1.34 
   4   3   7   20.66    1.24 
  -4   3  -7   19.78    1.33 
  -4   3  -7   19.29    1.24 
   5  -3   7    7.70    0.74 
  -5  -3  -7    7.33    0.68 
  -5   3  -7    9.67    0.76 
   5   3   7    8.96    0.57 
  -5   3  -7    8.62    0.65 
   5   3   7    8.90    0.63 
   5   3   7    8.89    0.58 
   6  -3   7    2.05    0.42 
  -6   3  -7    2.99    0.47 
   6   3   7    2.82    0.32 
  -6   3  -7    2.81    0.40 
  -7  -3  -7    0.31    0.29 
   7  -3   7    0.19    0.32 
  -7   3  -7    0.18    0.24 
   7   3   7    0.26    0.18 
   8  -3   7    0.74    0.39 
  -8  -3  -7    1.17    0.41 
   8   3   7    1.26    0.26 
  -8   3  -7    1.33    0.43 
  -8   3  -7    1.09    0.37 
   8  -4  -7    2.21    0.52 
  -8  -4   7    1.90    0.51 
  -8   4   7    2.28    0.41 
  -8   4   7    2.36    0.50 
   8   4  -7    2.38    0.55 
  -7  -4   7   14.10    1.32 
   7  -4  -7   13.90    1.05 
  -7   4   7   10.25    0.86 
  -7   4   7   10.33    1.00 
   7   4  -7   10.65    1.01 
  -6  -4   7   26.49    1.83 
   6  -4  -7   26.57    1.80 
  -6  -4   7   26.95    1.82 
  -6   4   7   28.76    1.82 
   6   4  -7   26.32    1.80 
  -6   4   7   26.76    1.69 
  -6   4   7   25.94    1.61 
  -5  -4   7   13.11    1.07 
  -5  -4   7   13.44    1.07 
  -5   4   7   14.81    0.90 
  -5   4   7   14.29    1.13 
   5   4  -7   14.38    1.04 
  -5   4   7   14.39    0.93 
  -4  -4   7   62.78    3.95 
  -4  -4   7   66.23    3.97 
  -4   4   7   65.70    3.82 
   4   4  -7   65.62    3.92 
  -4   4   7   66.44    3.83 
  -3  -4   7   16.71    1.19 
   3  -4  -7   16.23    1.14 
  -3  -4   7   16.05    1.18 
  -3   4   7   18.55    1.17 
   3   4  -7   17.94    1.15 
  -3   4   7   18.33    1.09 
   3   4  -7   18.00    1.11 
   2  -4  -7    2.53    0.32 
  -2  -4   7    2.85    0.37 
  -2  -4   7    2.72    0.28 
  -2  -4   7    2.54    0.38 
  -2   4   7    3.73    0.31 
   2   4  -7    3.36    0.31 
   2   4  -7    3.51    0.33 
  -2   4   7    3.16    0.36 
  -1  -4   7   43.29    2.48 
   1  -4  -7   39.83    2.41 
  -1  -4   7   40.95    2.48 
   1  -4  -7   40.83    2.36 
  -1  -4   7   42.54    2.38 
   1  -4  -7   43.72    2.44 
   1   4  -7   36.90    2.41 
  -1   4   7   39.17    2.43 
  -1   4   7   39.38    2.41 
  -1   4   7   37.51    2.43 
   1   4  -7   39.25    2.41 
   0  -4  -7   10.40    0.66 
   0  -4   7   10.24    0.79 
   0  -4   7    9.74    0.66 
   0  -4   7   10.17    0.78 
   0  -4  -7   10.06    0.66 
   0  -4  -7   10.23    0.72 
   0   4   7   12.29    0.71 
   0   4  -7   11.20    0.74 
   0   4  -7   11.92    0.75 
   0   4   7   11.80    0.76 
   0   4   7   12.11    0.79 
   1  -4   7    9.54    0.80 
  -1  -4  -7   10.21    0.68 
  -1  -4  -7   10.78    0.68 
   1  -4   7    9.82    0.79 
  -1   4  -7   12.52    0.80 
   1   4   7   12.71    0.70 
   1   4   7   12.39    0.78 
   2  -4   7    0.53    0.20 
   2  -4   7    0.90    0.22 
  -2   4  -7    0.40    0.11 
   2   4   7    0.51    0.09 
  -2   4  -7    0.38    0.18 
  -3  -4  -7   24.78    1.41 
   3  -4   7   24.86    1.52 
  -3   4  -7   21.69    1.39 
  -3   4  -7   21.44    1.48 
   3   4   7   21.51    1.35 
   4  -4   7   76.52    4.43 
  -4  -4  -7   77.60    4.35 
  -4   4  -7   73.65    4.33 
   4   4   7   71.64    4.27 
   4   4   7   67.78    4.26 
  -4   4  -7   74.22    4.41 
  -5   4  -7    4.79    0.56 
   5   4   7    5.23    0.38 
   5   4   7    4.40    0.36 
  -5   4  -7    5.20    0.48 
   6  -4   7   41.10    2.43 
  -6   4  -7   36.33    2.39 
   6   4   7   36.97    2.22 
  -6   4  -7   34.44    2.30 
   7  -4   7   18.90    1.50 
  -7  -4  -7   18.06    1.44 
  -7   4  -7   20.82    1.41 
  -7   4  -7   22.74    1.52 
   7   4   7   21.84    1.48 
   8  -4   7    2.28    0.52 
  -8  -4  -7    2.11    0.47 
  -8   4  -7    1.14    0.39 
  -8   4  -7    0.79    0.42 
   8  -5  -7    5.86    0.78 
  -8  -5   7    5.47    0.80 
   8   5  -7    4.72    0.74 
  -8   5   7    4.29    0.69 
   7  -5  -7    3.23    0.64 
  -7  -5   7    3.31    0.61 
  -7   5   7    4.34    0.68 
   7   5  -7    3.93    0.64 
  -7   5   7    4.58    0.46 
  -6  -5   7    0.04    0.29 
  -6  -5   7    0.02    0.29 
   6  -5  -7    0.08    0.26 
  -6   5   7   -0.17    0.26 
  -6   5   7    0.02    0.13 
  -6   5   7    0.07    0.18 
   6   5  -7    0.11    0.27 
   5  -5  -7    0.08    0.21 
  -5  -5   7    0.13    0.26 
  -5  -5   7   -0.01    0.25 
  -5   5   7    0.26    0.15 
   5   5  -7    0.07    0.27 
  -5   5   7    0.14    0.12 
  -5   5   7    0.16    0.26 
  -4  -5   7   40.33    2.42 
   4  -5  -7   39.54    2.37 
  -4   5   7   36.41    2.38 
   4   5  -7   38.51    2.35 
  -4   5   7   37.50    2.29 
   4   5  -7   35.99    2.31 
  -3  -5   7    6.33    0.59 
   3  -5  -7    6.14    0.51 
  -3  -5   7    5.73    0.63 
  -3   5   7    6.07    0.56 
  -3   5   7    5.42    0.46 
   3   5  -7    5.83    0.49 
   3   5  -7    5.58    0.50 
   2  -5  -7   34.10    2.09 
  -2  -5   7   32.98    2.15 
  -2  -5   7   33.42    2.16 
  -2   5   7   35.12    2.10 
  -2   5   7   36.97    2.14 
   2   5  -7   33.46    2.08 
   2   5  -7   33.93    2.09 
  -1  -5   7   96.86    5.43 
  -1  -5   7   99.86    5.44 
  -1  -5   7   92.36    5.33 
   1  -5  -7   94.52    5.36 
   1  -5  -7   93.12    5.29 
  -1   5   7   85.67    5.38 
  -1   5   7   90.56    5.39 
   1   5  -7   86.16    5.36 
   1   5  -7   83.97    5.34 
   0  -5   7   12.02    0.75 
   0  -5   7   12.71    0.88 
   0  -5   7   12.84    0.90 
   0  -5  -7   12.47    0.71 
   0  -5  -7   12.51    0.77 
   0  -5  -7   12.78    0.82 
   0   5   7   11.12    0.84 
   0   5  -7   10.19    0.78 
   0   5  -7   11.49    0.82 
   0   5   7   11.75    0.87 
  -1  -5  -7   33.11    2.21 
   1  -5   7   31.04    2.34 
  -1   5  -7   38.72    2.34 
  -1   5  -7   43.04    2.35 
   1   5   7   40.39    2.35 
  -1   5  -7   40.53    2.26 
   1   5   7   41.02    2.41 
  -2  -5  -7   62.16    3.60 
   2  -5   7   61.62    3.73 
  -2   5  -7   62.06    3.71 
  -2   5  -7   61.37    3.63 
  -3  -5  -7    7.90    0.57 
   3  -5   7    7.15    0.66 
  -3   5  -7    7.16    0.64 
  -3   5  -7    7.43    0.56 
   4  -5   7   25.37    1.74 
  -4  -5  -7   24.37    1.63 
  -4   5  -7   27.80    1.74 
  -4   5  -7   27.93    1.66 
   5  -5   7   12.98    1.01 
  -5  -5  -7   12.93    0.89 
  -5   5  -7   11.25    0.86 
  -5   5  -7   11.10    0.94 
   6  -5   7    1.17    0.39 
  -6   5  -7    0.68    0.33 
  -6   5  -7    0.93    0.35 
  -7  -5  -7    2.52    0.45 
   7  -5   7    2.36    0.52 
  -7   5  -7    1.67    0.43 
  -7   5  -7    1.82    0.39 
  -7  -6   7   13.99    1.22 
   7  -6  -7   14.01    1.14 
   7   6  -7   13.49    1.24 
  -7   6   7   13.03    1.18 
  -6  -6   7   24.24    1.70 
   6  -6  -7   24.21    1.67 
  -6  -6   7   24.87    1.76 
   6   6  -7   24.86    1.67 
  -6   6   7   22.97    1.53 
  -6   6   7   24.68    1.47 
  -6   6   7   25.10    1.73 
  -5   6   7    2.63    0.35 
   5   6  -7    3.03    0.59 
  -5   6   7    2.87    0.46 
  -4  -6   7   16.42    1.20 
  -4  -6   7   16.09    1.17 
   4  -6  -7   15.80    1.10 
   4   6  -7   15.89    1.10 
  -4   6   7   14.93    1.05 
  -4   6   7   16.19    1.17 
   4   6  -7   16.12    1.11 
  -3  -6   7   51.15    3.18 
   3  -6  -7   48.95    3.09 
  -3  -6   7   50.62    3.17 
   3   6  -7   51.73    3.11 
  -3   6   7   51.57    3.09 
  -3   6   7   53.11    3.16 
   3   6  -7   52.83    3.09 
  -2  -6   7    3.31    0.47 
   2  -6  -7    3.26    0.36 
  -2  -6   7    3.24    0.52 
  -2   6   7    4.44    0.43 
  -2   6   7    4.66    0.52 
   2   6  -7    4.24    0.44 
   2   6  -7    4.48    0.38 
   1  -6  -7   11.67    0.72 
  -1  -6   7   12.60    0.90 
   1  -6  -7   12.03    0.80 
  -1  -6   7   11.28    0.98 
   1   6  -7   10.47    0.83 
  -1   6   7   11.97    0.88 
   1   6  -7   11.62    0.78 
  -1   6   7   11.67    0.85 
   0  -6   7    5.38    0.54 
   0  -6  -7    5.41    0.37 
   0  -6   7    5.23    0.39 
   0  -6  -7    5.14    0.43 
   0  -6   7    5.26    0.52 
   0   6  -7    4.88    0.41 
   0   6   7    4.66    0.52 
   0   6   7    5.03    0.52 
   0   6  -7    4.91    0.48 
   1  -6   7   15.60    1.26 
   1  -6   7   11.03    0.81 
  -1  -6  -7   12.71    0.76 
   1  -6   7   12.26    0.95 
   1   6   7   12.74    0.99 
  -1   6  -7   13.04    0.93 
   1   6   7   13.93    0.95 
  -1   6  -7   14.01    0.86 
   2  -6   7    2.00    0.35 
   2  -6   7    1.45    0.32 
  -2  -6  -7    1.63    0.18 
  -3  -6  -7   18.12    1.08 
  -3   6  -7   15.41    1.09 
  -4  -6  -7   33.78    2.08 
   4  -6   7   34.02    2.21 
  -4   6  -7   33.22    2.10 
  -4   6  -7   34.82    2.18 
   5  -6   7    8.16    0.79 
  -5  -6  -7    8.59    0.65 
  -5   6  -7    6.98    0.73 
  -5   6  -7    6.62    0.65 
   6  -6   7   10.98    1.30 
  -6  -6  -7   11.79    0.93 
  -6   6  -7   11.86    0.94 
  -6   6  -7   12.44    1.26 
   7  -6   7   18.96    1.46 
  -7  -6  -7   19.89    1.36 
  -7   6  -7   17.07    1.31 
  -7   6  -7   16.70    1.38 
   7  -7  -7    0.40    0.35 
  -7  -7   7    0.10    0.39 
  -7   7   7    0.56    0.39 
  -6  -7   7    5.84    0.79 
  -6  -7   7    6.49    0.71 
   6  -7  -7    5.79    0.65 
  -6   7   7    6.08    0.58 
   6   7  -7    5.85    0.67 
  -6   7   7    5.86    0.77 
  -5  -7   7    0.06    0.30 
   5  -7  -7   -0.08    0.21 
  -5  -7   7   -0.23    0.24 
  -5   7   7    0.08    0.19 
  -5   7   7    0.19    0.31 
   5   7  -7    0.04    0.22 
  -4  -7   7   11.97    0.91 
   4  -7  -7   11.88    0.82 
  -4  -7   7   12.14    0.96 
   4   7  -7    9.69    0.85 
  -4   7   7   10.38    0.80 
  -4   7   7    9.47    0.90 
   4   7  -7    9.31    0.84 
   3  -7  -7    0.43    0.19 
  -3  -7   7    0.26    0.25 
  -3  -7   7    0.45    0.27 
   3   7  -7    0.31    0.17 
  -3   7   7    0.32    0.21 
  -3   7   7    0.76    0.30 
   3   7  -7    0.25    0.24 
  -2  -7   7   34.59    2.34 
   2  -7  -7   36.79    2.24 
  -2  -7   7   35.87    2.33 
   2   7  -7   37.65    2.31 
  -2   7   7   37.70    2.31 
   2   7  -7   36.28    2.22 
  -2   7   7   39.08    2.35 
   1  -7  -7   47.71    2.69 
   1  -7  -7   39.22    2.61 
  -1  -7   7   44.14    2.79 
  -1  -7   7   43.16    2.78 
  -1   7   7   48.62    2.79 
   1   7  -7   42.40    2.65 
   1   7  -7   47.18    2.76 
  -1   7   7   46.13    2.79 
   0  -7  -7   21.52    1.33 
   0  -7   7   23.49    1.51 
   0  -7  -7   23.72    1.40 
   0  -7   7   22.63    1.51 
   0  -7  -7   22.55    1.29 
   0   7   7   21.88    1.51 
   0   7  -7   21.15    1.36 
   0   7  -7   20.89    1.46 
   1  -7   7   69.76    4.10 
   1  -7   7   67.55    4.09 
  -1   7  -7   66.49    3.97 
   1   7   7   60.60    4.12 
  -1   7  -7   74.52    4.10 
   1   7   7   67.41    4.10 
  -1   7  -7   66.96    4.00 
  -2  -7  -7   59.38    3.35 
   2  -7   7   61.21    3.55 
  -2   7  -7   54.90    3.42 
  -2   7  -7   62.77    3.53 
  -2   7  -7   51.88    3.70 
   2   7   7   54.18    3.58 
   3  -7   7    4.56    0.58 
   3  -7   7    4.81    0.59 
  -3  -7  -7    4.22    0.38 
  -3   7  -7    6.23    0.56 
  -4  -7  -7   15.42    1.02 
   4  -7   7   16.37    1.21 
  -4   7  -7   15.00    1.07 
  -4   7  -7   14.57    1.12 
  -5  -7  -7    1.39    0.29 
   5  -7   7    1.16    0.38 
  -5   7  -7    0.97    0.30 
  -5   7  -7    1.01    0.34 
  -6  -7  -7    5.70    0.63 
   6  -7   7    5.86    0.80 
  -6   7  -7    7.61    0.79 
  -6   7  -7    6.96    0.68 
  -7  -7  -7    0.45    0.31 
   7  -7   7    0.35    0.41 
  -7   7  -7    0.30    0.37 
  -7   7  -7    0.04    0.30 
  -6  -8   7   13.32    1.10 
  -6  -8   7   12.57    1.20 
   6  -8  -7   13.23    1.08 
  -6   8   7   13.86    1.00 
  -6   8   7   15.09    1.22 
   5  -8  -7    4.14    0.53 
  -5  -8   7    3.56    0.60 
  -5  -8   7    4.11    0.59 
  -5   8   7    4.45    0.52 
  -5   8   7    5.03    0.70 
   5   8  -7    5.04    0.54 
  -4  -8   7   29.06    1.84 
  -4  -8   7   28.38    1.90 
   4  -8  -7   29.32    1.76 
  -4   8   7   27.72    1.77 
   4   8  -7   25.79    1.82 
  -4   8   7   25.59    1.86 
   4   8  -7   24.91    1.73 
   3  -8  -7   21.27    1.39 
  -3  -8   7   21.40    1.53 
  -3  -8   7   22.10    1.51 
   3   8  -7   20.66    1.37 
  -3   8   7   22.27    1.46 
  -3   8   7   22.73    1.55 
   3   8  -7   21.48    1.49 
   2  -8  -7    0.98    0.21 
  -2  -8   7    0.93    0.36 
  -2  -8   7    1.03    0.33 
  -2   8   7    0.70    0.30 
   2   8  -7    0.63    0.17 
   2   8  -7    0.52    0.29 
  -2   8   7    0.81    0.28 
   1  -8  -7   13.63    0.86 
  -1  -8   7   14.20    1.02 
  -1  -8   7   13.48    1.02 
  -1   8   7   11.28    1.30 
  -1   8   7   11.55    0.98 
   1   8  -7   12.64    0.99 
   1   8  -7   12.31    0.82 
   0  -8  -7    5.02    0.35 
   0  -8  -7    5.21    0.43 
   0  -8  -7    4.97    0.34 
   0  -8   7    5.15    0.59 
   0   8   7    5.46    0.62 
   0   8  -7    5.49    0.40 
   0   8   7    5.67    0.69 
   0   8  -7    5.90    0.60 
   1  -8   7   15.66    1.12 
   1  -8   7   15.63    1.12 
  -1  -8  -7   13.14    0.87 
  -1  -8  -7   14.54    0.88 
  -1  -8  -7   14.87    0.97 
  -1   8  -7   14.75    1.01 
  -1   8  -7   15.03    0.93 
   1   8   7   14.66    1.36 
  -2  -8  -7    0.60    0.12 
   2  -8   7    0.54    0.30 
   2  -8   7    0.75    0.32 
  -2   8  -7   -0.07    0.23 
   2   8   7    0.13    0.28 
  -2   8  -7    0.13    0.19 
   3  -8   7   12.44    1.02 
  -3  -8  -7   11.96    0.79 
   3  -8   7   13.01    1.02 
  -3   8  -7   11.56    0.94 
  -3   8  -7   11.29    0.88 
  -3   8  -7   12.18    1.00 
   4  -8   7    7.26    0.84 
  -4  -8  -7    6.79    0.62 
  -4   8  -7    9.44    0.74 
  -4   8  -7   10.21    0.88 
  -4   8  -7   10.83    0.83 
   5  -8   7    5.92    0.79 
  -5  -8  -7    5.84    0.58 
  -5   8  -7    7.20    0.81 
  -5   8  -7    7.47    0.68 
  -5   8  -7    6.29    0.75 
   6  -8   7   13.51    1.19 
  -6  -8  -7   13.93    1.00 
  -6   8  -7   11.99    1.02 
  -6   8  -7   12.51    1.09 
  -6   8  -7   12.00    1.14 
   6  -9  -7    1.60    0.38 
  -6  -9   7    0.88    0.46 
  -6  -9   7    1.86    0.44 
  -6   9   7    1.52    0.33 
  -6   9   7    0.61    0.41 
   5  -9  -7    2.92    0.46 
  -5  -9   7    3.63    0.55 
  -5  -9   7    3.47    0.60 
  -5   9   7    3.13    0.49 
  -5   9   7    2.82    0.55 
   4  -9  -7    7.96    0.65 
  -4  -9   7    7.96    0.77 
  -4  -9   7    8.08    0.87 
  -4   9   7    7.52    0.85 
  -4   9   7    7.40    0.72 
   4   9  -7    7.88    0.81 
   4   9  -7    7.89    0.64 
   3  -9  -7    2.37    0.33 
  -3  -9   7    2.16    0.43 
  -3  -9   7    2.10    0.46 
  -3   9   7    2.77    0.44 
   3   9  -7    2.95    0.33 
  -3   9   7    2.70    0.49 
   3   9  -7    3.22    0.51 
   2  -9  -7   13.54    0.84 
  -2  -9   7   12.95    1.00 
  -2  -9   7   13.12    1.03 
   2   9  -7   11.62    1.00 
   2   9  -7   11.26    0.78 
  -2   9   7   11.16    1.02 
  -2   9   7   11.05    0.96 
   1  -9  -7   21.52    1.27 
   1  -9  -7   20.24    1.24 
  -1  -9   7   20.90    1.44 
  -1  -9   7   20.54    1.46 
   1   9  -7   19.34    1.43 
  -1   9   7   19.25    1.44 
  -1   9   7   19.08    1.45 
   0  -9   7    4.39    0.61 
   0  -9  -7    4.31    0.34 
   0  -9  -7    4.90    0.41 
   0  -9   7    4.46    0.60 
   0   9  -7    6.77    0.68 
   0   9   7    6.76    0.70 
   0   9   7    6.16    0.69 
   1  -9   7   35.29    2.20 
   1  -9   7   35.40    2.20 
  -1  -9  -7   34.44    2.02 
  -1  -9  -7   32.66    1.95 
   1   9   7   30.43    2.23 
  -1   9  -7   32.16    2.17 
   1   9   7   32.62    2.20 
   2  -9   7   16.41    1.20 
  -2  -9  -7   16.03    1.01 
  -2  -9  -7   16.29    0.94 
   2  -9   7   16.44    1.21 
  -2   9  -7   14.90    0.95 
  -2   9  -7   13.94    1.17 
   2   9   7   13.85    1.24 
  -2   9  -7   12.69    1.25 
   3  -9   7    1.70    0.44 
  -3  -9  -7    1.92    0.27 
   3  -9   7    1.90    0.45 
  -3   9  -7    2.22    0.37 
  -3   9  -7    1.71    0.40 
  -3   9  -7    1.98    0.39 
  -4  -9  -7   15.73    1.06 
   4  -9   7   14.79    1.68 
   4  -9   7   16.05    1.29 
  -4   9  -7   16.49    1.17 
  -4   9  -7   16.62    1.25 
   5  -9   7    7.12    0.87 
  -5   9  -7    7.27    0.72 
  -5   9  -7    7.01    0.75 
  -5   9  -7    7.10    0.85 
   6  -9   7    0.54    0.43 
  -6   9  -7    0.63    0.44 
  -6   9  -7    1.06    0.39 
  -6   9  -7    1.16    0.34 
  -5 -10   7    3.78    0.69 
  -5 -10   7    3.68    0.62 
   5  10  -7    5.99    0.72 
  -5  10   7    5.69    0.80 
  -5  10   7    6.57    0.65 
  -4 -10   7    6.63    0.73 
  -4 -10   7    6.46    0.84 
   4 -10  -7    6.96    0.59 
  -4  10   7    7.10    0.85 
   4  10  -7    7.09    0.82 
  -4  10   7    6.96    0.71 
   3 -10  -7   17.27    1.14 
  -3 -10   7   18.16    1.31 
  -3 -10   7   17.59    1.38 
   3  10  -7   18.00    1.37 
  -3  10   7   17.92    1.33 
  -2 -10   7    0.17    0.27 
  -2 -10   7    0.05    0.31 
   2  10  -7    0.64    0.35 
  -2  10   7    0.96    0.36 
  -2  10   7    0.91    0.35 
   1 -10  -7    5.10    0.37 
  -1 -10   7    4.78    0.66 
  -1 -10   7    4.76    0.63 
   1  10  -7    3.99    0.63 
  -1  10   7    4.38    0.68 
  -1  10   7    4.53    0.64 
   0 -10   7    4.94    0.65 
   0 -10  -7    5.50    0.39 
   0 -10   7    5.53    0.66 
   0  10   7    5.12    0.70 
   0  10  -7    4.17    0.66 
   0  10   7    4.74    0.68 
   1 -10   7    1.67    0.45 
   1 -10   7    2.27    0.47 
  -1 -10  -7    2.35    0.25 
  -1  10  -7    3.30    0.53 
   1  10   7    3.32    0.57 
  -2 -10  -7    1.67    0.24 
   2 -10   7    2.09    0.47 
   2 -10   7    1.78    0.43 
   2  10   7    1.09    0.47 
  -2  10  -7    0.95    0.39 
  -2  10  -7    0.96    0.41 
   3 -10   7    1.33    0.43 
   3 -10   7    1.54    0.47 
  -3  10  -7    1.23    0.42 
  -3  10  -7    1.44    0.35 
   4 -10   7   31.52    2.04 
   4 -10   7   29.26    2.01 
  -4  10  -7   26.09    1.97 
  -4  10  -7   26.20    1.85 
   5 -10   7    1.73    0.51 
   5 -10   7    2.02    0.56 
  -5  10  -7    3.00    0.63 
  -5  10  -7    2.46    0.46 
  -5  10  -7    2.76    0.57 
  -4 -11   7    3.16    0.61 
  -4 -11   7    2.24    0.46 
  -4  11   7    2.89    0.51 
  -4  11   7    2.19    0.53 
   4  11  -7    2.83    0.57 
  -3 -11   7    1.64    0.47 
  -3 -11   7    1.34    0.40 
  -3  11   7    0.52    0.40 
  -2 -11   7    9.55    0.89 
  -2 -11   7    9.51    0.96 
  -2  11   7   10.02    0.99 
   2  11  -7    9.81    0.96 
  -2  11   7    9.49    0.93 
  -1 -11   7   29.08    1.92 
  -1 -11   7   33.31    2.35 
   1  11  -7   25.32    1.93 
  -1  11   7   26.66    1.96 
  -1  11   7   26.91    1.99 
   0 -11   7    7.81    1.09 
   0  11  -7   12.61    1.07 
   0  11   7   11.38    1.07 
   0  11   7   12.35    1.16 
   1 -11   7   11.70    1.18 
   1 -11   7   11.28    1.03 
   1  11   7   11.61    1.12 
  -1  11  -7   11.84    1.09 
   2 -11   7   12.24    1.14 
   2 -11   7   12.69    1.16 
  -2  11  -7   14.67    1.07 
  -2  11  -7   14.44    1.21 
   2  11   7   14.34    1.29 
   3 -11   7    1.55    0.49 
   3 -11   7    1.88    0.52 
  -3  11  -7    2.73    0.58 
   4 -11   7    4.94    0.75 
   4 -11   7    4.75    0.73 
  -4  11  -7    3.66    0.67 
  -3 -12   7    3.98    0.57 
  -3 -12   7    3.02    0.60 
  -3  12   7    4.57    0.73 
  -3  12   7    4.84    0.69 
   3  12  -7    3.77    0.66 
  -2 -12   7    1.21    0.47 
  -2 -12   7    1.67    0.47 
   2  12  -7    1.80    0.49 
  -2  12   7    2.56    0.57 
  -2  12   7    1.85    0.49 
  -1 -12   7    4.20    0.65 
  -1 -12   7    3.79    0.63 
  -1  12   7    4.55    0.72 
   1  12  -7    4.33    0.71 
  -1  12   7    4.46    0.72 
   0 -12   7    0.37    0.37 
   0 -12   7    0.44    0.35 
   0  12  -7    0.08    0.37 
   0  12   7    0.45    0.37 
   0  12   7    0.02    0.37 
   1 -12   7    5.26    0.74 
   1 -12   7    5.30    0.77 
  -1  12  -7    5.71    0.82 
   1  12   7    5.85    0.86 
   2 -12   7    0.32    0.36 
   2 -12   7    0.76    0.42 
   2  12   7    0.35    0.45 
  -2  12  -7    0.54    0.43 
   8   0  -8   10.85    1.05 
  -8   0   8   10.63    0.96 
  -8   0   8   10.42    0.96 
   7   0  -8    0.16    0.34 
  -7   0   8    0.21    0.26 
  -7   0   8    0.37    0.28 
  -6   0   8    8.48    0.74 
   6   0  -8    8.34    0.78 
   5   0  -8   62.97    3.78 
  -5   0   8   61.40    3.81 
  -5   0   8   61.90    3.75 
  -4   0   8   13.59    1.00 
   4   0  -8   13.57    0.97 
  -4   0   8   13.32    0.94 
  -3   0   8  181.67   10.48 
   3   0  -8  179.19   10.54 
  -3   0   8  179.87   10.51 
  -3   0   8  183.56   10.57 
  -2   0   8   38.70    2.17 
  -2   0   8   37.36    2.21 
  -2   0   8   35.90    2.19 
  -2   0   8   36.20    2.26 
   2   0  -8   35.13    2.24 
  -1   0   8   17.68    1.15 
  -1   0   8   17.85    1.09 
   1   0  -8   17.04    1.13 
  -1   0   8   17.52    1.08 
   1   0  -8   17.78    1.06 
  -1   0   8   17.20    1.04 
   0   0  -8   11.60    0.73 
   0   0  -8   10.01    0.75 
   0   0   8   11.21    0.77 
   0   0   8   11.09    0.71 
   0   0   8   10.79    0.70 
   1   0   8    0.08    0.10 
   1   0   8    0.10    0.13 
   1   0   8   -0.01    0.07 
  -1   0  -8    0.01    0.10 
  -2   0  -8   55.73    3.22 
   2   0   8   52.91    3.19 
   2   0   8   54.87    3.24 
   2   0   8   55.03    3.20 
  -2   0  -8   52.39    3.14 
   3   0   8    1.45    0.21 
   3   0   8    1.48    0.27 
   3   0   8    1.68    0.24 
  -3   0  -8    1.45    0.27 
  -3   0  -8    1.64    0.27 
  -4   0  -8   33.65    2.11 
   4   0   8   34.80    2.11 
   4   0   8   33.19    2.07 
   5   0   8   14.03    0.97 
  -5   0  -8   13.01    1.00 
   6   0   8    5.56    0.57 
  -6   0  -8    5.62    0.63 
   7   0   8   24.10    1.61 
  -7   0  -8   23.77    1.68 
   8   0   8    8.53    0.78 
  -8   0  -8    7.88    0.86 
  -8  -1   8   10.75    1.02 
   8  -1  -8   11.84    1.11 
   8   1  -8   11.95    1.12 
  -8   1   8   12.18    1.02 
  -8   1   8   12.13    1.02 
  -7  -1   8    5.33    0.91 
   7  -1  -8    4.51    0.69 
  -7   1   8    4.89    0.60 
  -7   1   8    5.35    0.62 
   7   1  -8    5.35    0.71 
   6  -1  -8    0.08    0.26 
  -6  -1   8    0.37    0.26 
  -6  -1   8    0.32    0.30 
   6   1  -8    0.37    0.29 
  -6   1   8    0.05    0.22 
  -6   1   8    0.39    0.25 
  -5  -1   8    2.89    0.43 
   5  -1  -8    3.27    0.46 
  -5  -1   8    3.08    0.48 
   5   1  -8    2.84    0.44 
  -5   1   8    2.69    0.40 
  -5   1   8    2.85    0.47 
  -5   1   8    2.85    0.39 
  -4  -1   8    0.24    0.21 
   4  -1  -8    0.19    0.19 
  -4  -1   8    0.26    0.18 
   4   1  -8    0.11    0.18 
  -4   1   8    0.14    0.16 
  -4   1   8    0.11    0.15 
  -4   1   8    0.22    0.20 
   3  -1  -8   45.78    2.86 
  -3  -1   8   43.21    2.84 
  -3  -1   8   44.68    2.89 
  -3   1   8   50.63    2.82 
  -3   1   8   48.02    2.89 
  -3   1   8   46.20    2.79 
   3   1  -8   50.16    2.87 
  -3   1   8   49.00    2.82 
  -2   1   8    7.21    0.58 
   2   1  -8    7.10    0.56 
  -2   1   8    7.01    0.50 
  -2   1   8    7.30    0.50 
  -2   1   8    7.18    0.48 
   1  -1  -8   43.61    2.45 
  -1  -1   8   43.03    2.34 
   1  -1  -8   41.74    2.37 
  -1  -1   8   44.15    2.48 
  -1  -1   8   43.48    2.43 
  -1  -1   8   42.74    2.41 
   1   1  -8   36.51    2.43 
  -1   1   8   37.25    2.37 
  -1   1   8   37.35    2.36 
  -1   1   8   36.25    2.44 
  -1   1   8   38.15    2.37 
   0  -1   8  116.18    6.59 
   0  -1   8  114.12    6.53 
   0  -1   8  112.16    6.54 
   0  -1  -8  116.40    6.54 
   0  -1  -8  116.89    6.52 
   0   1   8  109.29    6.48 
   0   1  -8  112.79    6.54 
   0   1   8   99.56    6.48 
   0   1   8  111.02    6.56 
   0   1   8  113.86    6.48 
  -1  -1  -8   40.64    2.29 
   1  -1   8   39.65    2.40 
  -1  -1  -8   40.70    2.35 
   1  -1   8   39.55    2.36 
   1  -1   8   38.82    2.35 
   1   1   8   38.48    2.30 
   1   1   8   38.47    2.37 
  -1   1  -8   38.38    2.37 
   2  -1   8   93.47    5.64 
   2  -1   8  100.62    5.66 
  -2  -1  -8   95.16    5.60 
   2  -1   8   98.78    5.69 
  -2  -1  -8  102.56    5.64 
  -2   1  -8   94.75    5.66 
   2   1   8   95.22    5.66 
   2   1   8   92.75    5.59 
   2   1   8   95.81    5.59 
  -3  -1  -8   63.75    4.05 
   3  -1   8   69.03    4.12 
   3  -1   8   71.80    4.10 
  -3  -1  -8   69.30    4.09 
   3   1   8   70.05    4.04 
  -3   1  -8   69.54    4.11 
   3   1   8   67.90    4.03 
   3   1   8   71.13    4.09 
  -4  -1  -8    8.52    0.69 
   4  -1   8    8.34    0.69 
   4   1   8    9.45    0.65 
  -4   1  -8    8.89    0.71 
   4   1   8    9.64    0.69 
   5  -1   8   13.55    1.02 
  -5  -1  -8   13.29    1.02 
  -5   1  -8   15.39    1.06 
   5   1   8   14.83    0.97 
   6  -1   8    7.33    0.69 
  -6  -1  -8    7.22    0.70 
   6   1   8    7.68    0.63 
  -6   1  -8    6.95    0.71 
   7  -1   8    1.50    0.38 
  -7  -1  -8    1.35    0.38 
  -7   1  -8    1.51    0.43 
   7   1   8    1.45    0.32 
   8  -1   8    0.83    0.37 
  -8  -1  -8    1.24    0.41 
  -8   1  -8    0.68    0.39 
  -8   1  -8    1.10    0.58 
   8   1   8    0.99    0.34 
   8  -2  -8    7.29    0.90 
  -8  -2   8    7.77    0.85 
   8   2  -8    8.04    0.93 
  -8   2   8    7.60    0.76 
  -8   2   8    7.78    0.83 
   7  -2  -8    5.23    0.72 
  -7  -2   8    5.69    0.70 
   7   2  -8    5.78    0.74 
  -7   2   8    5.84    0.66 
  -7   2   8    5.64    0.62 
  -6  -2   8   38.66    2.44 
  -6  -2   8   37.30    2.40 
   6  -2  -8   37.72    2.40 
  -6   2   8   36.46    2.35 
  -6   2   8   36.61    2.32 
   6   2  -8   36.43    2.40 
   5  -2  -8   26.20    1.64 
  -5  -2   8   24.83    1.66 
  -5  -2   8   23.12    1.62 
  -5   2   8   23.37    1.60 
  -5   2   8   24.34    1.59 
   5   2  -8   24.53    1.63 
  -4  -2   8   15.40    1.07 
   4  -2  -8   16.15    1.06 
  -4  -2   8   14.77    1.08 
  -4   2   8   14.13    0.95 
  -4   2   8   15.39    0.98 
   4   2  -8   14.17    1.05 
  -4   2   8   14.65    1.01 
  -4   2   8   15.21    1.08 
  -3  -2   8   30.08    1.91 
  -3  -2   8   29.53    1.87 
   3  -2  -8   29.91    1.87 
   3   2  -8   29.22    1.86 
  -3   2   8   30.00    1.79 
  -3   2   8   30.43    1.84 
  -3   2   8   30.27    1.90 
  -3   2   8   29.37    1.78 
  -2  -2   8   32.06    2.00 
   2  -2  -8   34.57    2.01 
  -2  -2   8   33.14    2.03 
  -2   2   8   30.32    1.99 
   2   2  -8   31.43    1.88 
  -2   2   8   32.10    1.95 
  -2   2   8   33.01    1.92 
   2   2  -8   32.17    1.99 
  -1  -2   8    1.73    0.13 
  -1  -2   8    1.59    0.26 
   1  -2  -8    1.55    0.25 
  -1  -2   8    1.52    0.27 
   1  -2  -8    1.49    0.18 
  -1  -2   8    1.45    0.13 
  -1   2   8    1.61    0.23 
   1   2  -8    1.55    0.25 
  -1   2   8    1.65    0.26 
   1   2  -8    1.63    0.19 
   0  -2   8   52.21    3.06 
   0  -2  -8   47.75    3.03 
   0  -2   8   48.03    3.08 
   0  -2  -8   59.03    2.99 
   0  -2  -8   53.00    3.01 
   0   2   8   45.72    3.01 
   0   2  -8   50.66    3.05 
   0   2   8   52.60    3.05 
   1  -2   8   10.04    0.73 
  -1  -2  -8    9.14    0.65 
   1  -2   8    9.88    0.76 
  -1  -2  -8   10.20    0.67 
  -1   2  -8   11.65    0.74 
   1   2   8   11.88    0.72 
   2  -2   8    1.61    0.26 
  -2  -2  -8    1.59    0.22 
   2  -2   8    1.36    0.28 
  -2  -2  -8    1.58    0.19 
  -2   2  -8    2.48    0.29 
   3   2   8    1.64    0.24 
  -3   2  -8    1.19    0.17 
  -3   2  -8    1.49    0.27 
   4  -2   8   27.33    1.60 
  -4  -2  -8   27.60    1.56 
   4   2   8   23.88    1.46 
   4   2   8   22.58    1.45 
   4   2   8   24.24    1.52 
  -4   2  -8   22.19    1.47 
  -4   2  -8   22.98    1.58 
   5  -2   8   49.27    3.00 
  -5  -2  -8   49.18    3.09 
   5   2   8   48.28    2.93 
  -5   2  -8   49.13    2.90 
   5   2   8   44.80    2.87 
  -5   2  -8   49.28    3.01 
   5   2   8   50.08    2.88 
   6  -2   8    3.60    0.53 
  -6  -2  -8    3.69    0.51 
  -6   2  -8    3.02    0.41 
  -6   2  -8    3.82    0.55 
   6   2   8    3.32    0.52 
   6   2   8    3.25    0.37 
  -7  -2  -8   27.24    1.85 
   7  -2   8   27.65    1.85 
  -7   2  -8   28.24    1.95 
  -7   2  -8   25.90    1.75 
   7   2   8   27.39    1.72 
   8  -2   8   14.23    1.17 
  -8  -2  -8   14.68    1.19 
   8   2   8   14.34    0.99 
  -8   2  -8   14.60    1.22 
  -8   2  -8   14.77    1.15 
   8   2   8   13.54    1.06 
  -8  -3   8    3.57    0.61 
   8  -3  -8    3.27    0.60 
   8   3  -8    2.99    0.60 
  -8   3   8    2.38    0.51 
  -8   3   8    2.77    0.45 
  -7  -3   8   14.84    1.40 
  -7   3   8   14.47    1.06 
  -7   3   8   14.84    1.16 
   7   3  -8   14.04    1.27 
  -6  -3   8    0.53    0.32 
  -6  -3   8    0.70    0.35 
   6  -3  -8    0.46    0.31 
  -6   3   8    1.32    0.34 
   6   3  -8    1.52    0.38 
   5  -3  -8    3.78    0.50 
  -5  -3   8    3.97    0.52 
  -5  -3   8    3.95    0.54 
  -5   3   8    4.01    0.39 
  -5   3   8    3.25    0.46 
   5   3  -8    3.73    0.50 
  -4  -3   8    1.54    0.32 
  -4  -3   8    1.39    0.31 
   4  -3  -8    1.96    0.33 
  -4   3   8    1.00    0.25 
  -4   3   8    1.19    0.17 
   4   3  -8    1.02    0.27 
  -4   3   8    1.28    0.20 
  -3  -3   8   20.85    1.33 
   3  -3  -8   21.89    1.31 
  -3  -3   8   20.93    1.47 
  -3   3   8   18.48    1.17 
   3   3  -8   19.76    1.29 
  -3   3   8   18.42    1.27 
  -3   3   8   18.36    1.31 
   2  -3  -8   30.07    1.80 
  -2  -3   8   29.81    1.83 
  -2  -3   8   28.74    1.81 
  -2  -3   8   28.72    1.84 
   2   3  -8   27.87    1.71 
  -2   3   8   28.71    1.77 
  -2   3   8   29.01    1.80 
   2   3  -8   27.52    1.78 
  -1  -3   8   47.51    3.04 
  -1  -3   8   48.77    2.94 
  -1  -3   8   47.98    3.07 
   1  -3  -8   48.33    3.03 
   1  -3  -8   45.61    2.98 
  -1   3   8   54.73    3.01 
  -1   3   8   54.50    3.03 
   1   3  -8   55.75    2.99 
   1   3  -8   52.03    3.03 
   0  -3  -8   99.35    5.94 
   0  -3   8  105.12    6.05 
   0  -3  -8  105.29    5.93 
   0  -3   8  103.05    6.02 
   0  -3  -8  102.01    6.01 
   0  -3  -8   99.42    5.94 
   0   3   8   99.34    5.97 
   0   3  -8  104.05    6.00 
   0   3   8  103.74    5.98 
   1  -3   8   17.98    1.22 
  -1  -3  -8   18.21    1.10 
  -1  -3  -8   17.09    1.12 
   1  -3   8   16.60    1.18 
  -1  -3  -8   16.98    1.11 
   1   3   8   20.36    1.14 
  -1   3  -8   19.86    1.19 
  -2  -3  -8   31.32    2.14 
   2  -3   8   31.63    2.23 
   2  -3   8   32.15    2.21 
   2   3   8   39.37    2.16 
  -2   3  -8   40.34    2.08 
  -2   3  -8   40.60    2.24 
   3  -3   8   56.39    3.24 
  -3  -3  -8   58.34    3.17 
  -3   3  -8   50.32    3.21 
   3   3   8   51.56    3.14 
  -3   3  -8   49.76    3.11 
   4  -3   8    7.35    0.73 
  -4  -3  -8    8.22    0.68 
  -4   3  -8    9.66    0.64 
  -4   3  -8   10.34    0.77 
   4   3   8   10.11    0.65 
  -5  -3  -8   24.07    1.59 
   5  -3   8   23.68    1.64 
  -5   3  -8   24.27    1.64 
   5   3   8   25.30    1.53 
  -5   3  -8   24.97    1.54 
   6  -3   8    4.64    0.60 
  -6  -3  -8    4.46    0.53 
   6   3   8    3.79    0.42 
  -6   3  -8    3.41    0.56 
  -6   3  -8    3.60    0.43 
   6   3   8    3.50    0.29 
   7  -3   8   -0.11    0.31 
  -7  -3  -8    0.06    0.27 
   7   3   8    0.17    0.24 
  -7   3  -8   -0.09    0.31 
   7   3   8   -0.04    0.19 
  -7   3  -8    0.13    0.23 
  -8  -3  -8    1.46    0.41 
   8  -3   8    1.25    0.43 
  -8   3  -8    1.10    0.34 
  -8   3  -8    1.01    0.43 
  -8  -4   8    3.71    0.64 
   8  -4  -8    3.85    0.65 
   8   4  -8    3.01    0.60 
  -8   4   8    3.40    0.60 
  -8   4   8    3.24    0.48 
  -7  -4   8    2.63    0.52 
  -7   4   8    1.24    0.40 
   7   4  -8    1.66    0.78 
  -7   4   8    1.12    0.28 
  -6  -4   8   26.31    1.93 
   6  -4  -8   27.53    1.91 
  -6  -4   8   28.73    1.96 
  -6   4   8   30.67    1.93 
  -6   4   8   28.62    1.78 
   6   4  -8   29.66    1.93 
   5  -4  -8   38.11    2.42 
  -5  -4   8   37.76    2.46 
  -5  -4   8   36.69    2.45 
   5   4  -8   36.99    2.41 
  -5   4   8   39.00    2.29 
  -5   4   8   40.87    2.43 
   4  -4  -8    6.70    0.58 
  -4  -4   8    7.14    0.64 
  -4   4   8    5.50    0.41 
  -4   4   8    5.86    0.57 
   4   4  -8    5.66    0.55 
  -4   4   8    5.79    0.39 
  -3  -4   8   54.53    3.38 
   3  -4  -8   54.34    3.34 
  -3  -4   8   58.31    3.41 
   3   4  -8   56.07    3.27 
  -3   4   8   55.80    3.34 
   3   4  -8   53.84    3.33 
  -2  -4   8   56.43    3.45 
  -2  -4   8   52.12    3.35 
  -2  -4   8   56.28    3.47 
   2  -4  -8   55.34    3.41 
  -2   4   8   59.48    3.38 
   2   4  -8   57.04    3.36 
  -2   4   8   58.26    3.42 
  -2   4   8   58.33    3.41 
   2   4  -8   59.95    3.41 
   1   4  -8    1.50    0.25 
  -1   4   8    1.67    0.27 
   1   4  -8    1.71    0.26 
   0  -4   8   52.55    3.06 
   0  -4  -8   48.76    2.96 
   0  -4   8   50.32    3.02 
   0  -4  -8   50.89    2.92 
   0   4  -8   47.75    2.97 
   0   4   8   50.82    2.96 
   0   4   8   48.94    2.98 
   0   4  -8   49.04    2.98 
   1  -4   8    0.60    0.22 
   1  -4   8    0.38    0.18 
  -1  -4  -8    0.70    0.11 
  -1  -4  -8    0.52    0.10 
  -1   4  -8    0.19    0.17 
   1   4   8    0.35    0.11 
   2  -4   8   18.91    1.29 
  -2  -4  -8   19.59    1.18 
  -2   4  -8   19.63    1.28 
   2   4   8   19.72    1.17 
  -2   4  -8   18.86    1.15 
  -3  -4  -8    1.89    0.26 
   3  -4   8    1.77    0.33 
   3  -4   8    1.66    0.33 
  -3   4  -8    2.50    0.26 
   3   4   8    2.57    0.21 
  -3   4  -8    2.54    0.38 
  -4  -4  -8   14.28    1.01 
   4  -4   8   13.66    1.10 
  -4   4  -8   15.52    1.10 
  -4   4  -8   15.32    0.99 
   4   4   8   16.66    0.97 
  -5  -4  -8   32.38    2.02 
   5  -4   8   32.27    2.10 
  -5   4  -8   31.81    2.08 
   5   4   8   31.78    1.91 
  -5   4  -8   31.42    1.97 
  -6  -4  -8    2.91    0.44 
   6  -4   8    3.20    0.52 
  -6   4  -8    2.37    0.46 
   6   4   8    2.49    0.29 
  -6   4  -8    2.30    0.36 
  -7  -4  -8    7.72    0.76 
   7  -4   8    8.08    0.83 
  -7   4  -8    6.43    0.67 
  -7   4  -8    6.79    0.80 
   7  -5  -8    3.70    0.63 
  -7  -5   8    3.78    0.63 
  -7   5   8    3.76    0.41 
   7   5  -8    3.00    0.55 
  -7   5   8    4.23    0.62 
  -6  -5   8    1.66    0.43 
  -6  -5   8    1.24    0.39 
   6  -5  -8    1.59    0.40 
   6   5  -8    1.93    0.42 
  -6   5   8    1.92    0.44 
  -6   5   8    1.64    0.25 
  -5  -5   8    7.19    0.72 
   5  -5  -8    7.09    0.65 
  -5  -5   8    7.03    0.71 
  -5   5   8    5.85    0.40 
  -5   5   8    5.66    0.39 
  -5   5   8    7.01    0.67 
   5   5  -8    6.55    0.64 
  -5   5   8    6.14    0.46 
  -4  -5   8    0.68    0.30 
   4  -5  -8    0.74    0.24 
  -4  -5   8    0.76    0.30 
  -4   5   8    1.20    0.20 
   4   5  -8    1.02    0.28 
  -4   5   8    1.10    0.31 
  -3  -5   8   17.54    1.26 
   3  -5  -8   17.54    1.18 
  -3  -5   8   18.27    1.25 
   3   5  -8   18.27    1.18 
  -3   5   8   17.53    1.13 
   3   5  -8   17.57    1.14 
  -3   5   8   16.68    1.29 
   2   5  -8    1.81    0.30 
  -2   5   8    1.94    0.29 
  -2   5   8    2.24    0.34 
   2   5  -8    1.85    0.29 
  -1  -5   8   28.84    1.89 
   1  -5  -8   26.94    1.74 
   1  -5  -8   28.75    1.82 
  -1  -5   8   26.88    1.95 
  -1   5   8   31.22    1.86 
  -1   5   8   30.35    1.86 
   1   5  -8   31.38    1.82 
   1   5  -8   31.06    1.82 
   0  -5  -8   52.31    3.17 
   0  -5   8   50.76    3.17 
   0  -5  -8   51.30    3.22 
   0  -5   8   50.99    3.38 
   0  -5  -8   55.04    3.27 
   0  -5   8   52.00    3.30 
   0   5  -8   59.39    3.26 
   0   5   8   57.91    3.33 
   0   5   8   57.24    3.29 
   0   5  -8   58.48    3.27 
  -1  -5  -8   34.27    2.00 
   1  -5   8   34.16    2.17 
  -2  -5  -8   78.63    4.38 
   2  -5   8   75.10    4.53 
   2  -5   8   74.34    4.51 
  -2   5  -8   75.96    4.49 
  -2   5  -8   71.83    4.38 
   3  -5   8   46.46    2.90 
  -3  -5  -8   44.68    2.73 
   3  -5   8   46.97    2.87 
  -3   5  -8   44.31    2.72 
  -3   5  -8   47.82    2.87 
   4  -5   8    5.51    0.59 
  -4  -5  -8    5.46    0.44 
  -4   5  -8    3.75    0.42 
  -4   5  -8    3.82    0.53 
  -5  -5  -8   24.79    1.59 
   5  -5   8   25.64    1.71 
  -5   5  -8   23.35    1.56 
  -5   5  -8   23.89    1.67 
   6  -5   8    0.59    0.42 
  -6  -5  -8    0.89    0.30 
  -6   5  -8    1.18    0.45 
   7  -5   8    1.29    0.46 
  -7  -5  -8    1.63    0.40 
  -7   5  -8    2.23    0.38 
  -7   5  -8    1.77    0.45 
  -7  -6   8    1.24    0.46 
   7  -6  -8    1.18    0.40 
  -7   6   8    2.93    0.55 
  -6   6   8    6.72    0.78 
  -6   6   8    6.65    0.55 
   6   6  -8    6.63    0.71 
   5  -6  -8   22.11    1.61 
  -5  -6   8   25.52    1.72 
  -5  -6   8   24.18    1.69 
  -5   6   8   23.94    1.52 
   5   6  -8   24.92    1.63 
  -5   6   8   25.56    1.70 
  -4  -6   8    8.88    0.86 
  -4  -6   8    9.48    0.89 
   4  -6  -8    9.28    0.79 
   4   6  -8   11.39    0.79 
   4   6  -8   10.75    0.80 
  -4   6   8   10.64    0.87 
  -4   6   8   10.28    0.73 
  -3  -6   8   64.89    4.00 
  -3  -6   8   70.15    3.91 
  -3   6   8   63.48    3.86 
   3   6  -8   61.05    3.80 
   3   6  -8   63.11    3.80 
  -3   6   8   59.82    3.79 
   2  -6  -8   13.51    1.00 
  -2  -6   8   14.65    1.10 
  -2  -6   8   14.55    1.10 
  -2   6   8   16.34    1.04 
   2   6  -8   15.43    1.03 
   2   6  -8   14.99    0.99 
   1  -6  -8    5.73    0.41 
  -1  -6   8    6.54    0.61 
   1  -6  -8    6.30    0.52 
  -1  -6   8    5.80    0.61 
   1   6  -8    6.25    0.50 
  -1   6   8    6.32    0.57 
  -1   6   8    6.15    0.59 
   1   6  -8    6.80    0.56 
   0  -6   8   12.65    0.90 
   0  -6   8   11.86    0.74 
   0  -6  -8   13.15    0.83 
   0  -6   8   13.43    0.93 
   0  -6  -8   12.26    0.69 
   0  -6  -8   11.19    0.78 
   0   6  -8    9.76    0.78 
   0   6  -8    9.95    0.83 
   0   6   8   10.35    0.86 
   0   6   8   11.33    0.90 
  -1  -6  -8    4.99    0.33 
   1  -6   8    5.40    0.57 
   1  -6   8    5.09    0.54 
  -1   6  -8    5.57    0.53 
  -1   6  -8    5.31    0.51 
   1   6   8    5.60    0.53 
   2  -6   8   17.55    1.34 
  -2  -6  -8   19.32    1.10 
   2  -6   8   18.18    1.37 
  -2   6  -8   16.68    1.30 
  -2   6  -8   18.28    1.14 
   3  -6   8    1.90    0.39 
   3  -6   8    2.48    0.42 
  -3   6  -8    1.97    0.37 
  -3   6  -8    1.58    0.25 
   4  -6   8   18.91    1.28 
  -4  -6  -8   17.19    1.11 
  -4   6  -8   15.67    1.11 
  -4   6  -8   15.96    1.21 
   5  -6   8   10.95    0.99 
  -5  -6  -8   10.49    0.83 
  -5   6  -8   12.20    1.03 
  -5   6  -8   11.16    0.95 
   6  -6   8    5.97    0.78 
  -6  -6  -8    5.65    0.61 
   7  -6   8   18.34    1.43 
  -7  -6  -8   16.38    1.28 
  -7   6  -8   16.89    1.24 
  -7   6  -8   17.13    1.36 
  -7  -7   8    2.64    0.60 
   7  -7  -8    2.73    0.50 
   7   7  -8    2.18    0.47 
  -7   7   8    2.96    0.58 
   6  -7  -8    0.53    0.32 
  -6  -7   8    0.99    0.42 
  -6  -7   8    0.26    0.36 
  -6   7   8    0.61    0.39 
   6   7  -8    0.45    0.33 
  -6   7   8    0.87    0.24 
   5  -7  -8    0.61    0.28 
  -5  -7   8    0.71    0.34 
  -5  -7   8    1.22    0.42 
  -5   7   8    0.92    0.23 
   5   7  -8    1.07    0.31 
  -5   7   8    1.10    0.38 
  -4  -7   8    3.68    0.57 
  -4  -7   8    2.86    0.51 
   4   7  -8    3.95    0.50 
   4   7  -8    3.51    0.45 
  -4   7   8    4.04    0.60 
  -3  -7   8   23.65    1.61 
  -3  -7   8   24.54    1.62 
   3  -7  -8   23.12    1.50 
   3   7  -8   22.55    1.53 
  -3   7   8   23.50    1.60 
  -3   7   8   22.65    1.52 
   3   7  -8   22.81    1.48 
  -2  -7   8    0.98    0.33 
  -2  -7   8    1.27    0.49 
   2   7  -8    1.77    0.33 
  -2   7   8    1.82    0.32 
  -2   7   8    1.55    0.34 
   2   7  -8    1.49    0.25 
  -1  -7   8   22.38    1.53 
  -1  -7   8   22.64    1.51 
   1  -7  -8   23.41    1.40 
  -1   7   8   21.36    1.47 
  -1   7   8   21.09    1.48 
   1   7  -8   20.75    1.36 
   1   7  -8   20.71    1.44 
   0  -7   8   51.30    3.22 
   0  -7  -8   45.03    2.68 
   0  -7  -8   45.31    2.74 
   0   7   8   44.83    2.84 
   0   7   8   45.73    3.04 
   0   7  -8   42.83    2.71 
   1  -7   8    6.96    0.72 
   1  -7   8    7.47    0.71 
  -1  -7  -8    7.16    0.61 
  -1   7  -8    8.50    0.71 
  -1   7  -8    7.99    0.59 
   1   7   8    8.57    0.72 
   1   7   8    9.27    0.79 
   2  -7   8   40.54    2.60 
   2  -7   8   40.77    2.59 
  -2  -7  -8   40.34    2.39 
  -2   7  -8   40.88    2.46 
  -2   7  -8   41.41    2.57 
  -2   7  -8   40.91    2.55 
  -3  -7  -8   23.04    1.51 
   3  -7   8   24.14    1.71 
   3  -7   8   25.00    1.72 
  -3   7  -8   24.61    1.66 
  -3   7  -8   27.93    1.72 
  -3   7  -8   25.11    1.57 
   4  -7   8    4.22    0.61 
  -4  -7  -8    3.77    0.36 
   4  -7   8    3.75    0.59 
  -4   7  -8    2.39    0.38 
  -4   7  -8    2.65    0.47 
  -5  -7  -8    6.45    0.62 
  -5   7  -8    8.74    0.68 
  -6  -7  -8    6.04    0.61 
   6  -7   8    6.89    0.84 
  -6   7  -8    5.28    0.72 
  -6   7  -8    5.66    0.62 
  -6  -8   8   11.82    1.00 
  -6  -8   8   10.71    1.09 
  -6   8   8   11.50    1.06 
   6   8  -8    9.72    0.91 
  -5  -8   8   17.21    1.36 
   5  -8  -8   18.13    1.23 
  -5  -8   8   17.11    1.29 
  -5   8   8   15.66    1.32 
   5   8  -8   16.32    1.19 
  -5   8   8   16.26    1.16 
   4  -8  -8    5.00    0.57 
  -4  -8   8    5.26    0.75 
  -4  -8   8    4.84    0.67 
   4   8  -8    6.89    0.59 
  -4   8   8    8.00    0.64 
   4   8  -8    7.65    0.70 
  -4   8   8    7.44    0.78 
  -3  -8   8    8.15    0.80 
   3  -8  -8    8.08    0.65 
  -3  -8   8    9.42    0.81 
  -3   8   8    7.81    0.80 
   3   8  -8    7.45    0.62 
  -3   8   8    8.33    0.71 
   3   8  -8    6.85    0.72 
  -2  -8   8   31.63    2.11 
   2  -8  -8   31.34    1.98 
  -2  -8   8   30.98    2.12 
   2   8  -8   32.19    2.07 
   2   8  -8   32.50    1.96 
  -2   8   8   33.48    2.08 
  -1  -8   8    0.87    0.33 
  -1  -8   8    0.99    0.34 
   1  -8  -8    1.25    0.24 
  -1   8   8    1.79    0.38 
   1   8  -8    1.90    0.39 
  -1   8   8    1.81    0.38 
   1   8  -8    1.45    0.22 
   0  -8   8    5.03    0.60 
   0  -8   8    4.55    0.60 
   0  -8  -8    5.25    0.45 
   0   8  -8    5.04    0.42 
   0   8   8    5.37    0.64 
   0   8  -8    5.02    0.59 
   0   8   8    5.62    0.75 
   1  -8   8    2.24    0.42 
   1  -8   8    2.70    0.45 
  -1  -8  -8    2.90    0.33 
   1   8   8    2.14    0.45 
  -1   8  -8    2.28    0.29 
  -1   8  -8    1.54    0.38 
   2  -8   8    0.39    0.31 
   2  -8   8    0.68    0.33 
  -2  -8  -8    0.51    0.10 
  -2   8  -8    1.00    0.24 
  -2   8  -8    0.73    0.31 
  -3  -8  -8    1.83    0.23 
   3  -8   8    1.55    0.41 
   3  -8   8    1.78    0.43 
   4  -8   8    5.90    0.88 
   4  -8   8    6.73    0.76 
  -4  -8  -8    5.58    0.46 
  -4   8  -8    4.30    0.62 
  -4   8  -8    4.53    0.69 
  -4   8  -8    4.90    0.53 
  -5  -8  -8   23.62    1.55 
   5  -8   8   25.61    1.77 
  -5   8  -8   23.53    1.75 
  -5   8  -8   22.37    1.57 
  -5   8  -8   25.33    1.70 
  -6   8  -8    1.12    0.46 
  -6   8  -8    1.34    0.34 
  -6   8  -8    1.45    0.44 
   5  -9  -8    4.27    0.53 
  -5  -9   8    4.35    0.69 
   5   9  -8    3.84    0.49 
  -5   9   8    4.14    0.51 
  -5   9   8    3.91    0.66 
  -4  -9   8    2.58    0.54 
   4  -9  -8    2.77    0.41 
  -4  -9   8    2.64    0.48 
  -4   9   8    1.89    0.51 
   4   9  -8    2.08    0.44 
  -4   9   8    1.86    0.39 
   4   9  -8    2.20    0.38 
  -3  -9   8    3.97    0.62 
   3  -9  -8    3.73    0.42 
  -3  -9   8    4.03    0.59 
  -3   9   8    4.27    0.61 
   3   9  -8    4.40    0.59 
   3   9  -8    3.68    0.40 
  -3   9   8    3.42    0.52 
  -2  -9   8    1.00    0.35 
  -2  -9   8    0.81    0.35 
   2   9  -8    0.29    0.30 
  -2   9   8    0.48    0.30 
   2   9  -8    0.28    0.16 
  -2   9   8    0.24    0.29 
  -1  -9   8   24.40    1.68 
   1  -9  -8   20.94    1.44 
   1  -9  -8   23.61    1.51 
  -1  -9   8   23.70    1.69 
   1   9  -8   23.91    1.65 
   1   9  -8   25.57    1.47 
  -1   9   8   26.11    1.71 
  -1   9   8   25.64    1.70 
   0  -9   8   37.29    2.40 
   0  -9   8   35.70    2.39 
   0  -9  -8   38.55    2.24 
   0   9  -8   36.48    2.38 
   0   9   8   38.54    2.42 
   0   9   8   36.29    2.43 
   0   9  -8   34.98    2.18 
   1  -9   8    5.07    0.62 
  -1   9  -8    3.55    0.57 
  -1   9  -8    3.04    0.31 
   1   9   8    3.24    0.56 
  -2  -9  -8   24.50    1.55 
   2  -9   8   23.33    1.71 
   2  -9   8   25.41    1.73 
  -2   9  -8   25.76    1.72 
  -2   9  -8   24.00    1.50 
  -2   9  -8   23.47    1.57 
   3  -9   8   21.69    1.56 
   3  -9   8   20.79    1.50 
  -3   9  -8   18.57    1.32 
  -3   9  -8   18.04    1.44 
   4  -9   8    3.50    0.65 
  -4   9  -8    5.69    0.72 
  -4   9  -8    5.33    0.65 
  -4   9  -8    5.02    0.55 
   5  -9   8    8.21    0.92 
   5  -9   8    8.30    0.93 
  -5   9  -8    7.34    0.69 
  -5   9  -8    6.30    0.86 
  -5   9  -8    7.63    0.80 
  -5 -10   8   13.03    1.21 
  -5 -10   8   12.64    1.09 
  -5  10   8   13.22    1.19 
  -5  10   8   13.02    1.02 
  -4 -10   8    4.37    0.66 
   4  10  -8    2.53    0.52 
  -4  10   8    1.96    0.42 
  -4  10   8    2.51    0.55 
  -3 -10   8   16.22    1.27 
  -3 -10   8   16.20    1.23 
  -3  10   8   15.21    1.28 
   3  10  -8   15.45    1.24 
  -3  10   8   14.38    1.18 
   2 -10  -8    9.65    0.67 
  -2 -10   8   10.19    0.97 
  -2 -10   8   10.32    0.91 
  -2  10   8    9.28    0.93 
   2  10  -8    7.47    0.88 
  -2  10   8    8.88    0.87 
  -1 -10   8    2.18    0.46 
  -1 -10   8    2.30    0.49 
   1 -10  -8    2.09    0.28 
  -1  10   8    2.36    0.50 
   1  10  -8    2.35    0.47 
  -1  10   8    2.52    0.51 
   0 -10   8    9.65    0.88 
   0 -10   8    9.44    0.89 
   0 -10  -8    9.43    0.62 
   0  10   8    7.02    0.86 
   0  10  -8    8.22    0.85 
   0  10   8    8.24    0.88 
   1 -10   8    4.82    0.70 
  -1 -10  -8    5.74    0.46 
   1 -10   8    5.72    0.73 
  -1  10  -8    6.40    0.74 
   1  10   8    5.95    0.79 
   2 -10   8    6.78    0.88 
  -2 -10  -8    5.86    0.49 
   2 -10   8    6.41    1.16 
  -2  10  -8    5.93    0.88 
  -3 -10  -8    2.42    0.33 
   3 -10   8    1.70    0.49 
   3 -10   8    2.11    0.50 
  -3  10  -8    1.65    0.34 
  -3  10  -8    1.62    0.49 
   4 -10   8    7.63    0.92 
   4 -10   8    7.75    0.94 
  -4  10  -8    8.36    0.91 
  -4  10  -8    7.29    0.70 
  -4 -11   8    0.74    0.37 
  -4  11   8    1.36    0.44 
  -3 -11   8    4.81    0.69 
  -3 -11   8    5.44    0.78 
   3  11  -8    6.72    1.02 
  -3  11   8    5.49    0.79 
  -3  11   8    5.58    0.70 
  -2 -11   8    1.21    0.46 
   2  11  -8    2.04    0.62 
  -2  11   8    1.72    0.47 
  -1 -11   8   10.18    0.99 
  -1 -11   8    9.42    1.21 
  -1  11   8    9.57    1.01 
   1  11  -8    9.81    1.17 
   0 -11   8    8.44    0.93 
   0 -11   8    8.23    0.87 
   0  11   8    6.36    0.82 
   0  11  -8    7.40    0.91 
   0  11   8    6.59    0.85 
   1 -11   8    4.32    0.66 
   1 -11   8    3.75    0.64 
  -1  11  -8    5.04    0.74 
   1  11   8    4.94    0.78 
   2 -11   8   16.08    1.31 
   2 -11   8   15.39    1.29 
  -2  11  -8   14.79    1.29 
   2  11   8   15.51    1.38 
   3 -11   8    6.27    0.83 
   3 -11   8    6.22    0.80 
  -3  11  -8    5.22    0.61 
  -3  11  -8    5.41    0.82 
  -2 -12   8    6.97    0.89 
  -2 -12   8    7.15    0.79 
   2  12  -8    7.14    0.86 
  -2  12   8    7.90    0.95 
  -2  12   8    7.76    0.86 
  -1 -12   8    0.79    0.40 
   1  12  -8    1.61    0.50 
  -1  12   8    2.09    0.52 
  -1  12   8    1.76    0.50 
   0 -12   8    3.20    0.59 
   0 -12   8    3.73    0.62 
   0  12   8    2.60    0.56 
   0  12   8    3.05    0.65 
   0  12  -8    3.59    0.65 
   1 -12   8    1.99    0.52 
   1 -12   8    2.24    0.52 
  -1  12  -8    2.04    0.53 
   1  12   8    1.95    0.55 
  -8   0   9    1.90    0.43 
  -8   0   9    1.52    0.42 
   8   0  -9    2.46    0.57 
  -7   0   9    5.86    0.64 
  -7   0   9    4.75    0.61 
   7   0  -9    5.86    0.75 
  -6   0   9   19.42    1.35 
   6   0  -9   18.71    1.40 
  -6   0   9   20.06    1.34 
  -5   0   9   44.25    2.70 
  -5   0   9   44.37    2.80 
  -5   0   9   43.63    2.72 
   5   0  -9   44.04    2.76 
  -4   0   9   47.67    2.91 
   4   0  -9   48.62    2.99 
  -4   0   9   49.53    2.95 
  -3   0   9    8.29    0.77 
  -3   0   9    9.11    0.66 
  -3   0   9    9.04    0.62 
   2   0  -9   42.33    2.66 
  -2   0   9   43.36    2.69 
  -2   0   9   45.75    2.62 
  -2   0   9   45.73    2.58 
  -2   0   9   41.62    2.60 
  -1   0   9    6.37    0.45 
  -1   0   9    6.04    0.39 
   1   0  -9    5.67    0.42 
   1   0  -9    6.35    0.51 
  -1   0   9    6.08    0.44 
  -1   0   9    6.16    0.53 
   0   0   9    2.68    0.24 
   0   0   9    2.85    0.26 
   0   0  -9    2.45    0.28 
   0   0  -9    2.62    0.29 
   0   0   9    2.70    0.34 
  -1   0  -9   30.27    1.89 
   1   0   9   31.18    1.93 
   1   0   9   32.13    1.86 
   1   0   9   30.03    1.84 
  -2   0  -9    1.53    0.24 
   2   0   9    1.23    0.25 
   2   0   9    1.42    0.21 
   2   0   9    1.33    0.19 
   3   0   9    0.45    0.13 
   3   0   9    0.45    0.20 
  -3   0  -9    0.54    0.12 
  -3   0  -9    0.48    0.19 
   3   0   9    0.53    0.17 
   4   0   9    1.28    0.30 
  -4   0  -9    1.48    0.30 
   4   0   9    2.04    0.29 
  -5   0  -9   21.86    1.69 
   5   0   9   20.58    1.41 
   5   0   9   20.88    1.38 
   6   0   9   35.95    2.23 
  -6   0  -9   35.64    2.30 
   6   0   9   35.07    2.27 
   7   0   9    1.76    0.36 
  -7   0  -9    1.81    0.49 
  -8  -1   9    1.75    0.44 
  -8  -1   9    1.55    0.40 
   8  -1  -9    2.41    0.56 
  -8   1   9    0.76    0.34 
  -8   1   9    0.65    0.36 
   8   1  -9    0.74    0.44 
   7  -1  -9   14.68    1.16 
  -7  -1   9   14.56    1.11 
  -7   1   9   12.00    1.02 
   7   1  -9   12.79    1.14 
  -7   1   9   12.34    1.04 
  -6  -1   9    8.14    0.85 
   6  -1  -9    7.35    0.79 
  -6  -1   9    6.86    0.74 
  -6   1   9    9.34    0.73 
   6   1  -9    9.03    0.82 
  -6   1   9    9.38    0.75 
  -5  -1   9    0.55    0.26 
  -5  -1   9    0.41    0.29 
   5  -1  -9    0.55    0.27 
  -5   1   9    0.62    0.29 
  -5   1   9    0.87    0.25 
   5   1  -9    0.61    0.26 
  -5   1   9    0.88    0.25 
  -4  -1   9    4.02    0.57 
   4  -1  -9    4.77    0.50 
  -4  -1   9    4.53    0.48 
  -4   1   9    4.32    0.52 
  -4   1   9    4.78    0.44 
   4   1  -9    4.33    0.50 
  -4   1   9    4.53    0.43 
  -3  -1   9    0.55    0.21 
  -3  -1   9    0.55    0.24 
  -3  -1   9    0.48    0.15 
  -3   1   9    0.93    0.16 
  -3   1   9    0.96    0.18 
  -3   1   9    0.96    0.19 
   2  -1  -9   20.67    1.20 
  -2  -1   9   19.67    1.15 
   2   1  -9   16.86    1.16 
  -2   1   9   15.97    1.17 
  -2   1   9   17.13    1.09 
  -2   1   9   15.81    1.07 
  -2   1   9   17.23    1.09 
  -1  -1   9   15.97    1.13 
  -1  -1   9   15.29    1.06 
   1  -1  -9   14.62    1.01 
   1  -1  -9   16.11    1.10 
   1   1  -9   16.64    1.10 
  -1   1   9   17.47    1.01 
  -1   1   9   17.47    1.12 
   1   1  -9   17.21    1.03 
  -1   1   9   17.62    1.02 
  -1   1   9   17.49    1.01 
   0  -1   9   33.25    2.13 
   0  -1   9   32.82    2.07 
   0  -1   9   32.31    2.06 
   0  -1  -9   34.08    2.06 
   0  -1  -9   30.98    2.07 
   0   1   9   39.45    2.13 
   0   1  -9   37.66    2.10 
   1  -1   9  102.37    6.35 
   1  -1   9  110.53    6.37 
   1  -1   9  107.91    6.41 
  -1  -1  -9  111.80    6.36 
  -1   1  -9  106.81    6.37 
   1   1   9  105.81    6.30 
   1   1   9  109.90    6.39 
   1   1   9  116.96    6.31 
   2  -1   9   26.82    1.54 
   2  -1   9   27.77    1.60 
  -2  -1  -9   27.38    1.54 
  -2  -1  -9   24.87    1.46 
   2   1   9   21.37    1.54 
   2   1   9   22.75    1.46 
  -2   1  -9   21.45    1.54 
   3  -1   9   50.21    3.07 
  -3  -1  -9   45.39    2.97 
  -3  -1  -9   47.88    3.02 
   3  -1   9   51.05    3.03 
   3   1   9   53.45    2.97 
  -3   1  -9   48.01    2.93 
  -3   1  -9   55.07    3.06 
  -3   1  -9   48.75    2.94 
   3   1   9   50.52    2.96 
   3   1   9   54.20    3.05 
   4  -1   9   30.12    1.87 
  -4  -1  -9   31.22    1.82 
   4  -1   9   31.11    1.86 
   4   1   9   28.30    1.80 
   4   1   9   26.35    1.72 
  -4   1  -9   26.02    1.71 
   4   1   9   28.10    1.74 
  -4   1  -9   28.09    1.83 
   5  -1   9    9.55    0.83 
  -5  -1  -9    8.50    0.73 
   5  -1   9    8.47    0.72 
  -5   1  -9    8.47    0.75 
   5   1   9    8.41    0.65 
  -6  -1  -9    8.53    0.80 
   6  -1   9    8.47    0.77 
  -6   1  -9    9.85    0.85 
   6   1   9    9.36    0.71 
  -6   1  -9    8.90    0.75 
  -7  -1  -9    4.19    0.78 
   7  -1   9    3.61    0.54 
   7   1   9    2.98    0.41 
  -7   1  -9    2.69    0.41 
  -7   1  -9    3.22    0.54 
   7   1   9    2.86    0.45 
  -8  -2   9    3.39    0.57 
   8  -2  -9    3.15    0.61 
  -8   2   9    2.12    0.42 
   8   2  -9    2.35    0.58 
  -8   2   9    2.79    0.53 
  -7  -2   9    9.45    0.90 
   7  -2  -9    9.92    0.96 
  -7   2   9    8.81    0.85 
   7   2  -9   10.19    0.97 
  -7   2   9    9.26    0.80 
   6  -2  -9    1.17    0.35 
  -6  -2   9    1.23    0.35 
  -6  -2   9    1.38    0.39 
  -6   2   9    0.27    0.23 
  -6   2   9    0.10    0.24 
   6   2  -9    0.10    0.29 
  -5  -2   9   24.80    1.77 
   5  -2  -9   25.90    1.74 
  -5  -2   9   25.01    1.74 
  -5   2   9   25.62    1.69 
   5   2  -9   26.36    1.75 
  -5   2   9   29.24    1.77 
  -4  -2   9   45.21    2.78 
   4  -2  -9   43.75    2.77 
  -4   2   9   46.82    2.83 
  -4   2   9   45.83    2.73 
   4   2  -9   44.51    2.77 
  -4   2   9   46.34    2.69 
  -4   2   9   42.06    2.66 
  -3  -2   9   15.83    1.03 
  -3  -2   9   15.43    0.97 
   3  -2  -9   14.91    0.97 
  -3   2   9   11.30    0.83 
  -3   2   9   12.44    0.90 
  -3   2   9   12.75    0.85 
   2  -2  -9  126.41    7.31 
  -2  -2   9  126.23    7.35 
  -2  -2   9  124.11    7.30 
  -2   2   9  123.24    7.31 
   2   2  -9  121.54    7.17 
  -2   2   9  130.65    7.19 
   2   2  -9  121.24    7.30 
  -2   2   9  123.61    7.25 
  -1  -2   9   64.69    4.01 
  -1  -2   9   64.02    4.05 
   1  -2  -9   64.34    4.02 
   1  -2  -9   61.84    3.94 
  -1   2   9   73.03    4.03 
   1   2  -9   71.32    4.03 
  -1   2   9   72.94    3.97 
   1   2  -9   68.48    3.96 
   0  -2  -9    1.51    0.20 
   0  -2   9    1.48    0.25 
   0  -2   9    1.04    0.25 
   0   2  -9    1.58    0.26 
   0   2   9    1.67    0.26 
   1  -2   9   41.57    2.57 
   1  -2   9   41.72    2.53 
  -1  -2  -9   43.19    2.49 
  -1  -2  -9   37.09    2.44 
  -1   2  -9   44.17    2.54 
   1   2   9   42.93    2.52 
  -2  -2  -9    1.90    0.24 
  -2  -2  -9    1.50    0.19 
   2  -2   9    1.70    0.30 
   2  -2   9    1.67    0.27 
   2   2   9    1.86    0.26 
  -2   2  -9    1.81    0.29 
  -3  -2  -9   35.87    2.15 
   3  -2   9   34.07    2.27 
   3  -2   9   35.29    2.18 
  -3   2  -9   35.21    2.19 
  -3   2  -9   32.79    2.05 
  -3   2  -9   36.49    2.05 
   3   2   9   36.01    2.15 
  -4   2  -9    3.27    0.44 
   4   2   9    3.21    0.37 
   4   2   9    2.78    0.21 
  -4   2  -9    3.03    0.28 
  -5  -2  -9   15.05    1.07 
   5  -2   9   15.57    1.09 
  -5   2  -9   15.43    1.11 
   5   2   9   14.75    0.95 
   5   2   9   14.47    0.92 
  -5   2  -9   13.41    0.96 
   5   2   9   14.98    1.02 
  -6  -2  -9   17.24    1.24 
   6  -2   9   16.75    1.24 
  -6   2  -9   17.20    1.28 
   6   2   9   16.80    1.17 
   6   2   9   16.97    1.08 
   7  -2   9    1.62    0.44 
  -7  -2  -9    2.00    0.43 
   7   2   9    1.10    0.22 
  -7   2  -9    1.13    0.40 
  -7   2  -9    1.13    0.31 
   7   2   9    1.04    0.31 
   8  -3  -9    1.60    0.48 
  -8  -3   9    1.63    0.48 
  -8   3   9    1.74    0.46 
  -8   3   9    1.44    0.34 
   8   3  -9    1.42    0.50 
  -7  -3   9    7.79    0.88 
   7  -3  -9    8.14    0.90 
   7   3  -9    9.48    0.93 
  -7   3   9    9.38    0.74 
  -7   3   9    9.70    0.91 
  -6  -3   9    8.26    0.83 
  -6  -3   9    7.58    0.77 
   6  -3  -9    8.15    0.78 
  -6   3   9    6.40    0.72 
   6   3  -9    6.98    0.76 
  -5  -3   9    0.55    0.29 
  -5  -3   9    0.58    0.32 
   5  -3  -9    0.50    0.28 
  -5   3   9    1.30    0.32 
   5   3  -9    0.87    0.30 
   4  -3  -9    3.20    0.51 
  -4  -3   9    3.41    0.49 
  -4   3   9    2.93    0.26 
   4   3  -9    2.93    0.44 
  -4   3   9    3.55    0.55 
  -4   3   9    3.02    0.28 
  -3  -3   9    1.59    0.31 
  -3  -3   9    1.34    0.29 
   3  -3  -9    1.33    0.27 
  -3   3   9    3.04    0.55 
  -2  -3   9   45.60    2.81 
  -2  -3   9   46.64    2.91 
   2  -3  -9   48.15    2.90 
  -2  -3   9   46.17    3.01 
  -2   3   9   48.68    2.86 
  -2   3   9   48.68    2.90 
   2   3  -9   47.89    2.80 
   2   3  -9   49.86    2.89 
   1   3  -9    1.17    0.20 
  -1   3   9    0.91    0.20 
   1   3  -9    1.05    0.23 
  -1   3   9    0.99    0.21 
   0  -3   9   48.28    3.02 
   0  -3  -9   48.88    2.90 
   0  -3  -9   49.68    2.91 
   0  -3   9   48.30    2.99 
   0   3   9   51.39    2.94 
   0   3   9   49.24    2.95 
   0   3  -9   49.98    2.98 
   1  -3   9   26.16    1.64 
  -1  -3  -9   22.23    1.50 
   1  -3   9   25.06    1.59 
  -1  -3  -9   25.36    1.51 
   1   3   9   25.97    1.54 
  -1   3  -9   25.12    1.58 
   2  -3   9   34.04    2.18 
  -2  -3  -9   34.26    2.02 
   2  -3   9   33.72    2.09 
   2   3   9   32.67    2.02 
  -2   3  -9   32.77    2.09 
  -3  -3  -9   57.75    3.38 
   3  -3   9   57.26    3.45 
   3  -3   9   55.51    3.47 
   3   3   9   58.08    3.37 
  -3   3  -9   56.17    3.30 
  -3   3  -9   56.09    3.44 
   4  -3   9   43.52    2.81 
  -4  -3  -9   44.37    2.73 
   4  -3   9   43.71    3.08 
   4   3   9   46.81    2.70 
  -4   3  -9   46.87    2.81 
  -4   3  -9   44.42    2.66 
   5  -3   9    2.60    0.42 
  -5  -3  -9    2.75    0.39 
  -5   3  -9    1.87    0.39 
   5   3   9    1.50    0.26 
  -5   3  -9    1.52    0.25 
  -6  -3  -9   24.04    1.63 
   6  -3   9   23.49    1.68 
  -6   3  -9   27.41    1.65 
  -6   3  -9   23.34    1.69 
   6   3   9   23.23    1.54 
   7  -3   9    0.16    0.33 
  -7  -3  -9    0.23    0.31 
  -7   3  -9    0.27    0.34 
  -7   3  -9    0.15    0.22 
   7  -4  -9   18.01    1.39 
  -7  -4   9   17.30    1.40 
  -7   4   9   17.49    1.18 
  -7   4   9   17.87    1.36 
   7   4  -9   17.68    1.38 
   6  -4  -9    2.13    0.41 
  -6  -4   9    2.42    0.50 
  -6  -4   9    2.22    0.50 
  -5  -4   9   38.65    2.39 
   5  -4  -9   39.03    2.34 
  -5  -4   9   39.23    2.37 
  -5   4   9   33.13    2.14 
  -5   4   9   34.23    2.29 
   5   4  -9   33.89    2.31 
  -4  -4   9   22.38    1.54 
  -4  -4   9   20.79    1.55 
   4  -4  -9   20.05    1.52 
   4   4  -9   24.41    1.52 
  -4   4   9   25.13    1.52 
   3  -4  -9   11.31    0.89 
  -3  -4   9   11.20    0.95 
  -3  -4   9   11.46    0.93 
  -3   4   9   13.37    0.91 
   3   4  -9   12.85    0.79 
   3   4  -9   14.41    1.00 
  -2  -4   9   38.14    2.32 
  -2  -4   9   39.13    2.22 
   2  -4  -9   39.43    2.29 
  -2  -4   9   38.17    2.35 
  -2   4   9   35.48    2.28 
  -2   4   9   37.52    2.27 
   2   4  -9   33.69    2.20 
   2   4  -9   34.38    2.27 
  -1  -4   9   40.06    2.16 
  -1  -4   9   38.44    2.32 
   1  -4  -9   40.27    2.29 
  -1  -4   9   39.11    2.35 
  -1   4   9   34.39    2.25 
   1   4  -9   32.93    2.25 
   1   4  -9   33.70    2.22 
   0   4  -9    5.08    0.46 
   0   4  -9    5.08    0.45 
   0   4   9    5.15    0.47 
   0   4   9    5.15    0.42 
  -1  -4  -9   19.17    1.11 
   1  -4   9   19.51    1.28 
   1  -4   9   18.48    1.28 
  -1   4  -9   17.25    1.23 
   1   4   9   16.67    1.13 
   2  -4   9    6.86    0.66 
   2  -4   9    6.79    0.63 
  -2  -4  -9    6.99    0.52 
  -2   4  -9    7.92    0.63 
   2   4   9    8.11    0.52 
  -3  -4  -9    7.90    0.58 
   3  -4   9    6.83    0.76 
   3  -4   9    7.98    0.71 
  -3   4  -9    7.92    0.68 
   3   4   9    7.72    0.53 
  -3   4  -9    8.07    0.51 
  -4  -4  -9    0.67    0.21 
   4  -4   9    0.75    0.31 
   4  -4   9    0.62    0.29 
  -4   4  -9    0.29    0.14 
   4   4   9    0.22    0.11 
  -4   4  -9    0.20    0.24 
   5  -4   9   13.33    0.99 
  -5  -4  -9   13.32    1.10 
  -5   4  -9   10.27    0.79 
   5   4   9   10.71    0.73 
  -5   4  -9   10.69    0.93 
   6  -4   9    8.38    0.83 
  -6  -4  -9    7.74    0.73 
  -6   4  -9    7.91    0.66 
   7  -4   9    4.34    0.73 
  -7  -4  -9    4.31    0.63 
  -7   4  -9    6.86    0.60 
  -7   4  -9    6.25    0.75 
  -7  -5   9    4.99    0.77 
   7  -5  -9    4.84    0.73 
  -7  -5   9    5.84    0.78 
   7   5  -9    5.86    0.74 
  -7   5   9    5.30    0.73 
  -6  -5   9    8.06    0.90 
   6  -5  -9    8.05    0.80 
  -6  -5   9    7.54    0.83 
  -6   5   9    8.15    0.80 
   6   5  -9    7.30    0.79 
  -5  -5   9    0.15    0.31 
   5  -5  -9    0.20    0.26 
  -5  -5   9    0.29    0.30 
  -5   5   9    0.22    0.27 
   5   5  -9    0.00    0.25 
  -4  -5   9    1.72    0.41 
   4  -5  -9    1.61    0.33 
  -4  -5   9    1.73    0.38 
  -4   5   9    1.67    0.40 
   4   5  -9    1.70    0.40 
  -3  -5   9    2.06    0.38 
   3  -5  -9    2.42    0.37 
  -3  -5   9    2.78    0.46 
  -3   5   9    2.27    0.37 
   3   5  -9    2.08    0.29 
  -3   5   9    2.27    0.29 
   3   5  -9    2.21    0.37 
  -2  -5   9    5.89    0.63 
  -2  -5   9    6.26    0.66 
   2  -5  -9    6.73    0.59 
  -2  -5   9    6.41    0.58 
  -2   5   9    7.68    0.56 
   2   5  -9    7.38    0.58 
   2   5  -9    6.70    0.54 
  -2   5   9    7.04    0.63 
  -1  -5   9   10.31    0.81 
  -1  -5   9   11.02    0.84 
  -1  -5   9   10.15    0.63 
   1  -5  -9   10.87    0.75 
   1   5  -9    9.36    0.71 
   1   5  -9    9.12    0.72 
  -1   5   9    9.21    0.75 
   0  -5   9   36.30    2.32 
   0  -5  -9   34.28    2.18 
   0  -5   9   37.37    2.35 
   0  -5  -9   38.00    2.29 
   0   5  -9   39.13    2.27 
   0   5   9   36.83    2.22 
   0   5  -9   36.19    2.26 
   0   5   9   37.88    2.29 
   1  -5   9   51.79    3.18 
   1  -5   9   52.16    3.16 
  -1  -5  -9   52.54    3.00 
  -1   5  -9   45.11    3.10 
  -1   5  -9   54.55    3.14 
   1   5   9   52.24    3.02 
  -2  -5  -9   12.38    0.82 
   2  -5   9   12.64    0.98 
   2  -5   9   11.53    1.04 
  -2   5  -9   15.45    0.98 
   3  -5   9   47.02    3.01 
   3  -5   9   47.43    2.99 
  -3  -5  -9   46.32    2.85 
  -3   5  -9   44.80    2.95 
  -3   5  -9   53.74    2.88 
   4  -5   9   22.98    1.52 
   4  -5   9   23.03    1.51 
  -4  -5  -9   22.52    1.37 
  -4   5  -9   18.65    1.31 
  -4   5  -9   19.01    1.45 
   5  -5   9    5.81    0.72 
  -5  -5  -9    6.32    0.59 
  -5   5  -9    6.78    0.55 
  -5   5  -9    6.65    0.71 
   6  -5   9    4.74    0.70 
  -6  -5  -9    4.51    0.55 
  -6   5  -9    4.34    0.50 
  -6   5  -9    4.56    0.67 
   7  -5   9    3.78    0.65 
  -7   5  -9    4.57    0.71 
  -7   5  -9    4.82    0.56 
   7  -6  -9    2.76    0.54 
  -7  -6   9    3.01    0.59 
  -7  -6   9    2.48    0.58 
  -7   6   9    2.74    0.53 
   7   6  -9    2.55    0.52 
  -6  -6   9    4.07    0.65 
   6  -6  -9    4.39    0.62 
  -6  -6   9    4.31    0.67 
   5  -6  -9   23.00    1.55 
  -5  -6   9   21.95    1.60 
  -5  -6   9   23.71    1.63 
  -5   6   9   21.40    1.38 
  -5   6   9   22.10    1.58 
   5   6  -9   22.37    1.54 
  -4  -6   9   35.97    2.34 
   4  -6  -9   37.64    2.26 
  -4  -6   9   35.95    2.34 
   4   6  -9   34.17    2.17 
  -4   6   9   34.72    2.16 
   4   6  -9   35.81    2.40 
  -4   6   9   35.11    2.29 
   3   6  -9   11.30    0.83 
   3   6  -9   12.41    0.86 
  -3   6   9   11.46    0.82 
  -3   6   9   10.30    1.03 
   2  -6  -9   36.68    2.43 
  -2  -6   9   39.97    2.47 
  -2  -6   9   39.62    2.45 
  -2   6   9   39.63    2.39 
  -2   6   9   38.52    2.41 
   2   6  -9   36.26    2.34 
   2   6  -9   38.26    2.36 
   1  -6  -9   20.67    1.43 
  -1  -6   9   21.26    1.82 
  -1  -6   9   19.72    1.34 
  -1  -6   9   18.23    1.79 
  -1   6   9   24.45    1.49 
  -1   6   9   23.80    1.49 
   1   6  -9   24.11    1.45 
   1   6  -9   23.77    1.42 
   0  -6  -9    1.59    0.21 
   0  -6   9    1.74    0.49 
   0  -6  -9    1.76    0.17 
   0  -6  -9    2.04    0.31 
   0  -6   9    1.56    0.18 
  -1  -6  -9   11.54    0.68 
   1  -6   9   11.29    0.90 
   1  -6   9   11.24    0.92 
  -1   6  -9   10.29    0.84 
   2  -6   9    3.30    0.49 
  -2  -6  -9    2.92    0.25 
   2  -6   9    3.34    0.49 
  -2   6  -9    2.28    0.41 
  -2   6  -9    2.66    0.43 
   3  -6   9    3.75    0.57 
  -3  -6  -9    3.44    0.33 
   3  -6   9    3.13    0.51 
  -3   6  -9    3.76    0.33 
  -3   6  -9    4.09    0.51 
   4  -6   9    0.47    0.32 
  -4  -6  -9    0.19    0.17 
   4  -6   9    0.35    0.32 
  -4   6  -9   -0.01    0.25 
  -4   6  -9   -0.10    0.14 
  -5  -6  -9   11.14    0.89 
   5  -6   9   10.41    1.28 
   5  -6   9   11.68    1.07 
  -5   6  -9   14.75    1.23 
  -5   6  -9   13.10    0.88 
  -6  -6  -9   21.76    1.47 
   6  -6   9   21.99    1.61 
  -6   6  -9   21.67    1.58 
  -6   6  -9   19.86    1.42 
  -6  -7   9    1.19    0.42 
   6  -7  -9    1.31    0.39 
  -6  -7   9    1.15    0.45 
  -6   7   9    1.77    0.47 
   6   7  -9    2.29    0.51 
  -5  -7   9    1.52    0.44 
  -5  -7   9    1.75    0.44 
   5  -7  -9    1.58    0.37 
  -5   7   9    1.50    0.43 
  -5   7   9    1.72    0.27 
   5   7  -9    1.58    0.37 
   4  -7  -9    7.89    0.70 
  -4  -7   9    8.28    0.80 
  -4  -7   9    8.52    0.85 
  -4   7   9    7.60    0.80 
   4   7  -9    7.71    0.67 
  -4   7   9    7.72    0.63 
   4   7  -9    7.57    0.68 
  -3  -7   9    0.85    0.35 
  -3  -7   9    0.66    0.34 
   3  -7  -9    0.67    0.23 
  -3   7   9    0.34    0.28 
   3   7  -9    0.67    0.25 
  -3   7   9    0.57    0.24 
   3   7  -9    0.54    0.23 
  -2  -7   9   11.60    0.96 
  -2  -7   9   11.19    0.95 
   2  -7  -9    9.90    0.82 
  -2   7   9   11.54    0.89 
  -2   7   9   12.09    0.95 
   2   7  -9   12.36    0.88 
   2   7  -9   11.63    0.82 
   1   7  -9    2.30    0.37 
  -1   7   9    1.99    0.39 
  -1   7   9    2.56    0.42 
   1   7  -9    2.46    0.33 
   0  -7   9   24.71    1.79 
   0  -7  -9   24.05    1.70 
   0  -7   9   25.33    1.82 
   0   7   9   29.75    1.85 
   0   7  -9   28.86    1.78 
   0   7   9   29.99    1.82 
   0   7  -9   27.70    1.69 
  -1  -7  -9   48.85    3.15 
   1  -7   9   48.02    3.15 
   1  -7   9   49.46    3.15 
  -1   7  -9   53.80    3.04 
  -1   7  -9   51.61    3.14 
   2  -7   9    9.33    0.84 
   2  -7   9    8.91    0.85 
  -2  -7  -9    9.51    0.59 
  -3  -7  -9   27.56    1.63 
   3  -7   9   27.05    1.86 
   3  -7   9   26.79    1.83 
  -3   7  -9   27.02    1.79 
  -3   7  -9   24.42    1.64 
  -3   7  -9   27.46    1.82 
   4  -7   9   13.22    1.13 
   4  -7   9   13.58    1.14 
  -4  -7  -9   12.79    0.91 
  -4   7  -9   14.42    1.09 
  -4   7  -9   13.66    0.93 
   5  -7   9    1.50    0.45 
   5  -7   9    1.11    0.45 
  -5  -7  -9    1.34    0.29 
  -5   7  -9    1.33    0.30 
  -5   7  -9    1.32    0.40 
  -6  -7  -9   10.64    0.85 
   6  -7   9   10.38    1.05 
   6  -7   9   11.23    1.04 
  -6   7  -9    9.22    0.80 
  -6   7  -9    9.82    0.97 
  -6  -8   9    1.27    0.49 
  -6  -8   9    1.57    0.45 
   6  -8  -9    2.18    0.45 
  -6   8   9    2.99    0.57 
  -5  -8   9    2.81    0.58 
  -5  -8   9    3.67    0.65 
   5  -8  -9    3.68    0.54 
  -5   8   9    4.10    0.63 
  -5   8   9    4.50    0.45 
   5   8  -9    3.58    0.51 
  -4  -8   9   22.41    1.56 
   4  -8  -9   22.43    1.45 
   4   8  -9   20.20    1.41 
  -4   8   9   20.24    1.41 
  -4   8   9   19.98    1.55 
   4   8  -9   22.34    1.67 
  -3  -8   9   11.12    0.95 
  -3  -8   9   10.86    0.93 
  -3   8   9    9.88    0.92 
   3   8  -9    9.17    0.83 
  -3   8   9    9.11    0.80 
   3   8  -9    9.92    0.76 
  -2  -8   9   38.76    2.30 
  -2  -8   9   38.09    2.30 
   2  -8  -9   38.25    2.16 
   2   8  -9   32.05    2.10 
  -2   8   9   32.01    2.25 
  -2   8   9   30.63    2.20 
   2   8  -9   32.31    2.20 
   1  -8  -9   10.70    0.83 
  -1  -8   9    9.75    0.92 
  -1  -8   9   10.75    0.94 
  -1   8   9   10.32    0.92 
   1   8  -9   10.69    0.75 
   1   8  -9   10.79    0.88 
  -1   8   9   11.05    0.92 
   0  -8   9    2.50    0.46 
   0  -8  -9    2.28    0.35 
   0  -8   9    2.32    0.45 
   0   8   9    3.45    0.53 
   0   8   9    3.94    0.55 
   0   8  -9    2.51    0.42 
   0   8  -9    3.17    0.34 
  -1  -8  -9   17.32    1.10 
   1  -8   9   15.26    1.16 
   1  -8   9   15.44    1.18 
  -1   8  -9   12.73    0.97 
  -1   8  -9   14.04    1.12 
   2  -8   9    2.58    0.47 
   2  -8   9    2.21    0.47 
  -2   8  -9    3.71    0.55 
  -2   8  -9    3.65    0.39 
   3  -8   9    6.69    0.79 
   3  -8   9    7.15    0.81 
  -3   8  -9    6.81    0.58 
  -3   8  -9    7.86    0.79 
  -3   8  -9    7.10    0.72 
   4  -8   9    0.59    0.38 
   4  -8   9    0.21    0.36 
  -4   8  -9    0.21    0.30 
  -4   8  -9    0.31    0.20 
  -4   8  -9    0.24    0.34 
   5  -8   9   10.68    0.99 
   5  -8   9    8.90    0.97 
  -5   8  -9    7.60    0.93 
  -5   8  -9    8.13    0.86 
  -5  -9   9    1.89    0.53 
  -5  -9   9    3.27    0.57 
   5  -9  -9    2.90    0.49 
  -5   9   9    3.68    0.54 
   5   9  -9    4.19    0.50 
  -5   9   9    3.71    0.63 
  -4  -9   9    3.76    0.61 
   4  -9  -9    4.09    0.49 
  -4   9   9    2.67    0.45 
  -4   9   9    3.60    0.58 
   4   9  -9    3.25    0.43 
   4   9  -9    3.56    0.55 
  -3  -9   9    2.20    0.68 
   3  -9  -9    2.09    0.41 
  -3  -9   9    1.67    0.45 
   3   9  -9    3.19    0.49 
  -3   9   9    2.69    0.51 
   3   9  -9    2.47    0.44 
  -3   9   9    2.62    0.44 
  -2  -9   9   12.45    1.11 
   2  -9  -9   13.70    0.93 
  -2  -9   9   12.90    1.09 
   2   9  -9   13.03    0.88 
   2   9  -9   12.90    1.05 
  -2   9   9   12.25    1.04 
  -2   9   9   13.81    1.11 
   1  -9  -9    0.35    0.32 
  -1  -9   9    0.43    0.35 
  -1  -9   9    0.32    0.34 
  -1   9   9    1.34    0.39 
   1   9  -9    1.45    0.38 
   1   9  -9    1.27    0.22 
  -1   9   9    1.14    0.37 
   0  -9   9   12.02    0.99 
   0  -9   9   10.50    0.95 
   0  -9  -9   12.04    0.78 
   0   9   9    9.59    0.96 
   0   9   9   10.98    0.96 
   0   9  -9    9.44    0.71 
   0   9  -9    9.67    0.92 
  -1  -9  -9   18.22    1.18 
   1  -9   9   17.77    1.32 
   1  -9   9   18.97    1.33 
  -1   9  -9   16.09    1.26 
  -1   9  -9   14.97    1.05 
   1   9   9   14.70    1.31 
   2  -9   9    6.81    0.80 
  -2  -9  -9    6.72    0.60 
   2  -9   9    5.70    0.77 
  -2   9  -9    7.97    0.81 
  -2   9  -9    7.52    0.56 
   3  -9   9   20.33    1.57 
   3  -9   9   21.19    1.59 
  -3   9  -9   19.91    1.36 
  -3   9  -9   22.48    1.61 
   4  -9   9   16.63    1.33 
   4  -9   9   14.89    1.31 
  -4   9  -9   14.54    1.07 
  -4   9  -9   15.65    1.21 
  -4   9  -9   15.82    1.28 
   5  -9   9    1.08    0.47 
   5  -9   9    0.94    0.47 
  -5   9  -9    0.61    0.42 
  -5   9  -9    0.94    0.40 
  -4 -10   9    5.86    0.77 
   4 -10  -9    5.72    0.60 
  -4 -10   9    6.19    0.87 
  -4  10   9    7.94    0.72 
   4  10  -9    8.57    0.79 
  -4  10   9    7.51    0.86 
  -3 -10   9    2.25    0.48 
  -3 -10   9    1.79    0.51 
  -3  10   9    3.25    0.59 
  -3  10   9    2.50    0.47 
   3  10  -9    2.84    0.51 
  -2 -10   9    6.01    0.83 
  -2 -10   9    6.80    0.86 
   2 -10  -9    7.18    0.60 
  -2  10   9    8.14    0.85 
  -2  10   9    9.07    0.83 
   2  10  -9    7.96    0.83 
   1 -10  -9   13.90    0.95 
  -1 -10   9   13.54    1.17 
  -1 -10   9   14.30    1.20 
   1  10  -9   14.01    1.15 
  -1  10   9   15.13    1.20 
  -1  10   9   14.24    1.22 
   0 -10   9    2.18    0.55 
   0 -10  -9    1.77    0.28 
   0 -10   9    1.53    0.44 
   0  10  -9    3.18    0.50 
   1 -10   9    3.05    0.55 
   1 -10   9    4.04    0.62 
  -1 -10  -9    3.93    0.41 
   1  10   9    2.97    0.63 
  -1  10  -9    2.83    0.54 
   2 -10   9    1.44    0.46 
   2 -10   9    1.61    0.45 
  -2 -10  -9    1.53    0.27 
  -2  10  -9    0.98    0.42 
   3 -10   9    0.80    0.42 
  -3 -10  -9    0.81    0.24 
   3 -10   9    1.32    0.47 
  -3  10  -9    1.38    0.47 
   4 -10   9    0.44    0.43 
   4 -10   9    0.66    0.45 
  -4  10  -9    1.59    0.49 
  -3 -11   9    1.15    0.44 
  -3 -11   9    0.52    0.40 
  -3  11   9    1.25    0.39 
  -3  11   9    0.95    0.43 
   3  11  -9    1.01    0.41 
  -2 -11   9    3.14    0.57 
  -2 -11   9    3.41    0.62 
  -2  11   9    2.87    0.57 
  -2  11   9    2.97    0.60 
   2  11  -9    2.88    0.55 
  -1 -11   9    1.14    0.42 
  -1 -11   9    1.19    0.45 
   1  11  -9    0.78    0.41 
  -1  11   9    1.02    0.45 
  -1  11   9    0.56    0.41 
   0 -11   9   15.23    1.25 
   0 -11   9   14.24    1.22 
   0  11   9   14.44    1.28 
   0  11   9   13.10    1.20 
   0  11  -9   14.32    1.21 
   1 -11   9   10.98    1.09 
   1 -11   9   10.31    1.06 
   1  11   9   11.83    1.15 
  -1  11  -9   12.95    1.11 
   2 -11   9    3.09    0.61 
   2 -11   9    2.58    0.59 
  -8   0  10    2.32    0.47 
   8   0 -10    2.34    0.58 
  -8   0  10    2.37    0.48 
  -7   0  10    7.08    0.71 
   7   0 -10    7.60    0.86 
   6   0 -10    6.42    0.73 
  -6   0  10    6.35    0.63 
  -6   0  10    6.77    0.65 
  -5   0  10    0.45    0.31 
  -5   0  10    0.29    0.21 
   5   0 -10    0.27    0.28 
  -5   0  10    0.31    0.24 
   4   0 -10   34.33    2.23 
  -4   0  10   35.82    2.14 
  -4   0  10   34.07    2.17 
  -4   0  10   35.76    2.28 
  -3   0  10   37.80    2.45 
  -3   0  10   40.00    2.37 
   3   0 -10   37.15    2.42 
  -3   0  10   40.25    2.33 
  -2   0  10   10.88    0.73 
   2   0 -10   11.00    0.81 
  -2   0  10   10.56    0.68 
  -2   0  10    9.58    0.70 
  -1   0  10  106.82    6.26 
   1   0 -10  111.38    6.34 
  -1   0  10  109.40    6.25 
  -1   0  10  112.51    6.36 
  -1   0  10  100.62    6.19 
   1   0 -10  104.87    6.23 
   0   0  10   48.46    2.91 
   0   0 -10   50.02    2.96 
   0   0  10   49.22    3.01 
   0   0  10   49.94    2.92 
   1   0  10    0.18    0.17 
   1   0  10    0.28    0.11 
   1   0  10    0.35    0.14 
  -1   0 -10    0.23    0.15 
   2   0  10   73.13    4.15 
   2   0  10   67.89    4.14 
  -2   0 -10   69.04    4.19 
   2   0  10   72.97    4.24 
  -3   0 -10    1.72    0.29 
   3   0  10    1.72    0.25 
  -3   0 -10    1.85    0.17 
   3   0  10    1.95    0.32 
   3   0  10    1.77    0.24 
   4   0  10   28.79    1.83 
   4   0  10   28.60    1.75 
  -4   0 -10   27.09    1.81 
   5   0  10    0.17    0.28 
   5   0  10    0.30    0.22 
  -5   0 -10    0.42    0.26 
  -6   0 -10    8.55    0.80 
   6   0  10    8.14    0.76 
   6   0  10    7.83    0.69 
   7   0  10   14.23    1.12 
   7   0  10   14.63    1.05 
  -7   0 -10   14.03    1.17 
  -7  -1  10    2.16    0.43 
   7  -1 -10    2.33    0.52 
  -7  -1  10    2.31    0.45 
  -7   1  10    3.68    0.61 
   7   1 -10    4.30    0.69 
  -6  -1  10   10.16    0.91 
  -6  -1  10   11.34    1.03 
   6  -1 -10   10.36    0.97 
  -6  -1  10    9.48    0.85 
  -6   1  10   12.06    0.87 
  -6   1  10   12.29    0.91 
   6   1 -10   12.11    1.00 
  -5  -1  10   16.56    1.04 
  -5  -1  10   17.31    1.21 
   5  -1 -10   16.70    1.15 
  -5  -1  10   15.94    1.10 
  -5   1  10   13.31    1.15 
   5   1 -10   13.09    1.11 
  -5   1  10   13.28    1.02 
  -5   1  10   13.46    1.03 
  -4  -1  10    0.37    0.27 
  -4  -1  10    0.08    0.20 
  -4  -1  10    0.47    0.19 
   4  -1 -10    0.17    0.23 
  -4   1  10    0.60    0.26 
  -4   1  10    0.50    0.20 
   4   1 -10    0.39    0.24 
  -4   1  10    0.76    0.21 
  -3  -1  10    7.10    0.66 
  -3  -1  10    7.27    0.49 
   3  -1 -10    6.37    0.59 
  -3  -1  10    6.82    0.57 
  -3   1  10    6.09    0.47 
  -3   1  10    6.56    0.62 
   3   1 -10    6.08    0.59 
  -3   1  10    6.49    0.51 
  -3   1  10    6.39    0.51 
   2  -1 -10    3.27    0.41 
  -2  -1  10    3.00    0.43 
  -2  -1  10    3.13    0.27 
  -2  -1  10    2.79    0.35 
  -2   1  10    3.58    0.32 
   2   1 -10    3.35    0.46 
  -2   1  10    3.61    0.43 
  -2   1  10    3.98    0.31 
  -2   1  10    3.40    0.28 
   1  -1 -10   22.13    1.48 
   1  -1 -10   21.25    1.37 
  -1  -1  10   22.25    1.43 
  -1  -1  10   22.05    1.51 
  -1   1  10   24.03    1.36 
  -1   1  10   23.94    1.50 
   1   1 -10   21.80    1.39 
  -1   1  10   23.05    1.37 
   1   1 -10   24.00    1.49 
  -1   1  10   23.81    1.37 
   0  -1  10   28.51    1.78 
   0  -1  10   28.65    1.85 
   0  -1 -10   29.73    1.78 
   0  -1  10   30.62    1.85 
   0   1  10   27.74    1.73 
   1  -1  10   40.72    2.40 
   1  -1  10   39.25    2.46 
  -1  -1 -10   40.37    2.39 
  -1   1 -10   39.63    2.42 
   1   1  10   38.31    2.43 
   1   1  10   39.57    2.30 
  -2  -1 -10   41.48    2.42 
   2  -1  10   40.22    2.41 
   2  -1  10   42.61    2.49 
  -2  -1 -10   39.92    2.31 
  -2   1 -10   37.05    2.43 
   2   1  10   37.68    2.44 
   3  -1  10   22.25    1.63 
  -3  -1 -10   22.04    1.58 
   3  -1  10   21.11    1.57 
  -3   1 -10   27.26    1.63 
   3   1  10   27.76    1.51 
   3   1  10   26.67    1.50 
   3   1  10   28.41    1.63 
   4  -1  10   36.83    2.25 
  -4  -1 -10   34.42    2.22 
   4  -1  10   36.69    2.19 
   4   1  10   33.71    2.10 
  -4   1 -10   36.79    2.23 
   4   1  10   35.10    2.20 
  -4   1 -10   35.09    2.10 
   4   1  10   33.08    2.09 
   5  -1  10   19.17    1.45 
   5  -1  10   18.28    1.39 
  -5  -1 -10   17.86    1.42 
   5   1  10   22.89    1.33 
  -5   1 -10   24.13    1.48 
  -5   1 -10   20.99    1.31 
   5   1  10   23.73    1.43 
  -6   1 -10    3.57    0.57 
  -6   1 -10    3.49    0.41 
   6   1  10    3.88    0.41 
   6   1  10    4.17    0.52 
   7  -1  10   12.63    1.22 
  -7  -1 -10   11.52    1.03 
   7  -1  10   11.91    1.02 
   7   1  10   12.42    0.86 
  -7   1 -10   12.54    1.06 
  -7   1 -10   11.40    0.88 
   7   1  10   12.06    0.96 
   7  -2 -10    2.48    0.51 
  -7  -2  10    3.14    0.54 
  -7   2  10    3.72    0.48 
   7   2 -10    3.56    0.60 
  -7   2  10    3.98    0.58 
   6  -2 -10   15.43    1.25 
  -6  -2  10   16.12    1.31 
  -6  -2  10   15.55    1.22 
  -6   2  10   17.40    1.13 
   6   2 -10   16.77    1.27 
  -6   2  10   15.88    1.18 
  -5  -2  10    8.54    0.83 
   5  -2 -10    8.83    0.79 
  -5  -2  10    9.37    0.79 
   5   2 -10    7.59    0.77 
  -5   2  10    8.35    0.65 
  -4  -2  10   52.19    3.31 
   4  -2 -10   55.00    3.28 
  -4   2  10   52.50    3.30 
   4   2 -10   51.16    3.26 
  -4   2  10   53.58    3.15 
  -4   2  10   54.25    3.21 
  -3  -2  10   43.26    2.58 
  -3  -2  10   42.40    2.89 
   3  -2 -10   43.58    2.60 
   3   2 -10   40.00    2.58 
  -3   2  10   38.55    2.45 
  -3   2  10   41.27    2.53 
  -3   2  10   42.15    2.61 
  -3   2  10   43.66    2.47 
  -2  -2  10   14.47    1.01 
  -2  -2  10   15.60    0.89 
  -2  -2  10   14.22    1.08 
  -2  -2  10   14.00    0.90 
   2  -2 -10   14.88    1.04 
  -1  -2  10   47.64    2.66 
   1  -2 -10   48.73    2.72 
  -1  -2  10   41.96    2.74 
   1   2 -10   43.31    2.67 
  -1   2  10   41.30    2.59 
   1   2 -10   40.99    2.58 
  -1   2  10   42.43    2.67 
   0  -2  10   18.26    1.25 
   0  -2  10   19.15    1.36 
   0  -2 -10   18.82    1.20 
   0   2 -10   20.26    1.28 
   0   2  10   19.54    1.26 
   1  -2  10    1.96    0.50 
  -1  -2 -10    1.57    0.23 
  -1  -2 -10    1.53    0.16 
   1  -2  10    1.62    0.27 
   1   2  10    1.40    0.25 
  -1   2 -10    1.29    0.25 
   2  -2  10    9.33    0.79 
   2  -2  10    9.98    0.74 
  -2  -2 -10   10.73    0.69 
   2   2  10    9.16    0.71 
  -2   2 -10    9.04    0.74 
   3  -2  10    1.00    0.27 
   3  -2  10    1.00    0.29 
  -3  -2 -10    1.53    0.26 
  -3   2 -10    1.19    0.28 
   3   2  10    0.85    0.22 
  -4  -2 -10    3.15    0.41 
   4  -2  10    2.95    0.45 
   4  -2  10    3.59    0.51 
  -4   2 -10    2.69    0.25 
  -4   2 -10    2.72    0.42 
  -4   2 -10    2.65    0.25 
   4   2  10    2.64    0.37 
   5  -2  10    0.91    0.31 
  -5  -2 -10    0.72    0.26 
   5  -2  10    0.60    0.31 
  -5   2 -10    0.35    0.27 
  -5   2 -10    0.40    0.15 
   5   2  10    0.54    0.23 
   6  -2  10   11.49    0.96 
   6  -2  10   10.86    0.92 
  -6  -2 -10   11.42    0.92 
  -6   2 -10   11.09    0.96 
   6   2  10   10.91    0.84 
  -6   2 -10    9.82    0.77 
   7  -2  10    9.58    0.90 
   7  -2  10    9.81    0.86 
  -7  -2 -10   10.17    0.86 
  -7   2 -10    8.37    0.88 
  -7   2 -10    7.84    0.69 
   7   2  10    7.44    0.72 
  -7  -3  10    2.26    0.53 
   7  -3 -10    2.23    0.54 
   7   3 -10    3.07    0.56 
  -7   3  10    3.08    0.41 
  -7   3  10    3.41    0.55 
  -6  -3  10   13.76    1.12 
  -6  -3  10   13.87    1.26 
   6  -3 -10   14.63    1.13 
  -6   3  10   13.95    1.08 
   6   3 -10   13.21    1.13 
  -6   3  10   12.81    0.94 
  -5  -3  10    4.16    0.64 
  -5  -3  10    4.25    0.60 
   5  -3 -10    3.91    0.58 
   5   3 -10    6.20    0.64 
  -5   3  10    6.09    0.44 
  -5   3  10    5.64    0.59 
   4  -3 -10    0.19    0.24 
  -4  -3  10    0.23    0.25 
  -4  -3  10    0.15    0.27 
  -4   3  10    0.20    0.09 
  -4   3  10    0.04    0.25 
   4   3 -10    0.03    0.22 
  -4   3  10    0.12    0.19 
  -3  -3  10    1.42    0.34 
  -3  -3  10    1.45    0.31 
   3  -3 -10    1.22    0.27 
  -3   3  10    1.59    0.33 
   3   3 -10    1.18    0.27 
  -2  -3  10    1.83    0.32 
  -2  -3  10    2.10    0.39 
   2  -3 -10    1.83    0.34 
  -2  -3  10    1.62    0.19 
  -2   3  10    2.09    0.34 
   2   3 -10    2.19    0.35 
   2   3 -10    2.04    0.21 
  -2   3  10    2.38    0.30 
   1  -3 -10    3.95    0.34 
  -1  -3  10    4.33    0.45 
  -1  -3  10    4.08    0.50 
   1   3 -10    4.21    0.35 
   1   3 -10    4.09    0.44 
  -1   3  10    3.79    0.41 
  -1   3  10    4.00    0.38 
   0  -3 -10    2.79    0.46 
   0  -3  10    2.34    0.37 
   0  -3  10    2.44    0.37 
   0   3  10    2.75    0.29 
   0   3 -10    3.11    0.38 
   0   3  10    2.71    0.33 
  -1  -3 -10   36.17    2.42 
   1  -3  10   41.14    2.57 
   1  -3  10   40.39    2.52 
  -1  -3 -10   41.44    2.44 
   1   3  10   42.81    2.48 
  -1   3 -10   44.21    2.53 
   2  -3  10   46.77    2.89 
   2  -3  10   45.15    2.92 
  -2  -3 -10   46.38    2.81 
   2   3  10   48.42    2.83 
  -2   3 -10   48.91    2.89 
   3  -3  10   18.01    1.26 
  -3  -3 -10   17.92    1.14 
   3  -3  10   17.74    1.21 
   3   3  10   16.60    1.11 
  -3   3 -10   16.50    1.21 
  -4  -3 -10   45.44    2.73 
   4  -3  10   45.31    2.83 
   4  -3  10   45.86    2.79 
   4   3  10   44.11    2.69 
  -4   3 -10   42.44    2.61 
  -4   3 -10   45.36    2.80 
   5  -3  10   20.13    1.43 
  -5  -3 -10   20.32    1.35 
   5  -3  10   20.44    1.40 
   5   3  10   18.90    1.26 
  -5   3 -10   18.78    1.22 
  -5   3 -10   19.21    1.40 
   6  -3  10    4.94    0.99 
  -6  -3 -10    4.21    0.53 
   6  -3  10    3.94    0.60 
   6   3  10    2.43    0.37 
  -6   3 -10    2.82    0.51 
  -6   3 -10    2.66    0.38 
   7  -3  10    2.72    0.49 
  -7  -3 -10    3.02    0.51 
   7  -3  10    2.26    0.50 
  -7   3 -10    2.25    0.45 
  -7   3 -10    2.73    0.54 
  -7  -4  10    3.80    0.61 
  -7  -4  10    4.04    0.66 
   7  -4 -10    4.02    0.63 
  -7   4  10    2.62    0.51 
   7   4 -10    2.57    0.54 
  -7   4  10    3.20    0.42 
  -6  -4  10   11.95    1.02 
  -6  -4  10   11.30    1.03 
   6   4 -10   10.15    0.96 
  -6   4  10   10.00    0.69 
  -6   4  10   10.91    0.93 
   5  -4 -10   -0.01    0.25 
  -5  -4  10    0.11    0.31 
  -5  -4  10    0.00    0.27 
  -5   4  10    1.27    0.33 
   5   4 -10    1.06    0.34 
  -4  -4  10   26.39    1.76 
  -4  -4  10   26.35    1.80 
   4  -4 -10   27.05    1.74 
   4   4 -10   25.95    1.73 
  -4   4  10   24.91    1.70 
  -3  -4  10   42.52    2.67 
  -3  -4  10   41.36    2.70 
   3   4 -10   42.66    2.63 
  -3   4  10   43.61    2.62 
   2  -4 -10    9.81    0.71 
  -2  -4  10    9.69    0.89 
  -2  -4  10    9.30    0.55 
  -2  -4  10    9.40    0.73 
   2   4 -10    7.34    0.67 
  -2   4  10    7.37    0.66 
  -2   4  10    7.30    0.66 
   2   4 -10    7.17    0.58 
  -1  -4  10   73.86    4.48 
   1  -4 -10   76.22    4.43 
  -1  -4  10   75.03    4.45 
  -1   4  10   75.28    4.40 
  -1   4  10   72.84    4.38 
   1   4 -10   74.21    4.36 
   1   4 -10   70.68    4.40 
   0  -4 -10   28.49    1.88 
   0  -4  10   28.26    1.89 
   0  -4  10   27.85    1.85 
   0   4  10   30.47    1.80 
   0   4 -10   29.38    1.80 
   0   4  10   29.69    1.79 
   0   4 -10   27.72    1.82 
  -1  -4 -10    2.77    0.25 
   1  -4  10    2.70    0.41 
   1  -4  10    2.31    0.38 
   2  -4  10   11.07    0.90 
   2  -4  10   11.53    0.86 
  -2  -4 -10   11.51    0.74 
   2   4  10   10.55    0.73 
  -2   4 -10   10.30    0.84 
   3  -4  10    0.96    0.30 
  -3  -4 -10    1.14    0.22 
   3  -4  10    1.14    0.36 
   3   4  10    1.23    0.18 
  -3   4 -10    1.05    0.29 
   4  -4  10    5.22    0.66 
   4  -4  10    5.63    0.64 
  -4  -4 -10    5.55    0.51 
  -4   4 -10    5.53    0.62 
  -4   4 -10    5.14    0.38 
   4   4  10    5.40    0.41 
   5  -4  10    0.03    0.29 
   5  -4  10    0.00    0.31 
  -5  -4 -10    0.21    0.23 
  -5   4 -10    0.28    0.15 
  -5   4 -10    0.35    0.32 
   5   4  10    0.26    0.12 
  -6  -4 -10    9.02    0.81 
   6  -4  10    9.29    0.91 
   6  -4  10    8.27    0.92 
  -6   4 -10   11.31    0.94 
  -7  -4 -10   12.35    1.02 
   7  -4  10   11.77    1.11 
   7  -4  10   11.19    1.06 
  -7   4 -10   12.16    1.08 
  -7  -5  10    3.81    0.66 
  -7  -5  10    3.53    0.65 
   7  -5 -10    3.41    0.59 
  -6  -5  10   17.50    1.39 
   6  -5 -10   17.31    1.34 
  -6  -5  10   18.04    1.41 
  -5  -5  10    3.63    0.56 
  -5  -5  10    3.14    0.54 
   5  -5 -10    3.29    0.54 
  -5   5  10    3.02    0.49 
   5   5 -10    3.30    0.50 
  -4  -5  10    0.87    0.37 
  -4  -5  10    0.79    0.33 
   4  -5 -10    0.92    0.31 
   4   5 -10    0.34    0.26 
  -4   5  10    0.38    0.27 
   3  -5 -10    7.58    0.66 
  -3  -5  10    7.62    0.72 
  -3  -5  10    7.41    0.74 
   3   5 -10    7.12    0.65 
  -3   5  10    7.39    0.68 
   3   5 -10    6.97    0.53 
  -2  -5  10    4.62    0.56 
  -2  -5  10    4.87    0.38 
   2  -5 -10    5.27    0.52 
  -2  -5  10    5.37    0.61 
   2   5 -10    4.56    0.44 
  -2   5  10    4.86    0.53 
   2   5 -10    5.03    0.50 
  -1  -5  10   26.35    1.81 
  -1  -5  10   29.98    2.04 
   1  -5 -10   33.28    1.98 
  -1   5  10   32.35    1.94 
   1   5 -10   32.28    1.96 
  -1   5  10   31.96    1.97 
   1   5 -10   32.91    1.93 
   0  -5  10    1.79    0.40 
   0  -5  10    2.08    0.41 
   0  -5 -10    1.94    0.34 
   0   5  10    1.98    0.27 
   0   5 -10    1.92    0.31 
   0   5  10    1.85    0.32 
   0   5 -10    2.02    0.34 
   1  -5  10   34.93    2.27 
  -1  -5 -10   34.98    2.08 
   1  -5  10   34.09    2.38 
   1   5  10   35.58    2.10 
  -1   5 -10   34.34    2.24 
  -1   5 -10   36.18    2.21 
   2  -5  10   35.42    2.41 
   2  -5  10   35.81    2.38 
  -2  -5 -10   35.63    2.24 
   2   5  10   39.99    2.21 
  -2   5 -10   40.82    2.38 
  -3  -5 -10   13.29    0.88 
   3  -5  10   12.44    1.06 
   3  -5  10   13.58    1.04 
  -4  -5 -10   33.32    2.11 
   4  -5  10   34.97    2.25 
   4  -5  10   33.30    2.27 
  -4   5 -10   34.77    2.23 
   5  -5  10    8.01    0.85 
  -5  -5 -10    8.25    0.71 
  -5   5 -10    8.69    0.62 
  -5   5 -10    9.95    1.13 
  -6  -5 -10    1.19    0.33 
   6  -5  10    0.64    0.42 
   6  -5  10    0.68    0.40 
  -6  -6  10    8.91    0.94 
   6  -6 -10    9.48    0.88 
  -6  -6  10    8.61    0.93 
  -6   6  10    8.24    0.88 
   6   6 -10    8.37    0.85 
  -5  -6  10    3.76    0.60 
  -5  -6  10    4.38    0.67 
   5  -6 -10    3.62    0.57 
  -4  -6  10   12.05    1.07 
  -4  -6  10   12.17    1.07 
   4  -6 -10   12.82    0.99 
   4   6 -10   12.98    0.98 
  -4   6  10   13.98    1.05 
  -3  -6  10   31.62    2.02 
   3  -6 -10   29.68    1.91 
  -3  -6  10   30.06    1.99 
   3   6 -10   28.56    1.90 
  -3   6  10   29.30    1.95 
   3   6 -10   28.95    1.84 
   2  -6 -10    9.08    0.74 
  -2  -6  10    9.08    0.84 
  -2  -6  10    8.19    0.80 
   2   6 -10    8.91    0.71 
  -2   6  10   10.15    0.79 
   2   6 -10    8.87    0.70 
  -1  -6  10   32.71    2.08 
  -1  -6  10   30.28    1.87 
  -1  -6  10   34.74    2.12 
   1  -6 -10   33.73    2.02 
   1   6 -10   29.57    2.02 
  -1   6  10   31.87    2.06 
   1   6 -10   30.09    1.98 
   0  -6 -10   18.85    1.18 
   0  -6  10   20.06    1.29 
   0  -6  10   19.13    1.25 
   0   6 -10   14.02    1.14 
   0   6 -10   15.19    1.12 
   0   6  10   15.82    1.19 
   1  -6  10    3.39    0.51 
   1  -6  10    3.76    0.56 
  -1  -6 -10    3.51    0.26 
   2  -6  10   17.91    1.27 
  -2  -6 -10   17.34    1.06 
   2  -6  10   16.30    1.28 
  -2   6 -10   16.61    1.23 
  -2   6 -10   17.36    1.23 
   3  -6  10    0.89    0.37 
   3  -6  10    1.35    0.39 
  -3  -6 -10    1.16    0.20 
  -3   6 -10    1.47    0.36 
  -4  -6 -10    5.89    0.51 
   4  -6  10    5.26    0.74 
   4  -6  10    5.72    0.73 
  -4   6 -10    5.95    0.68 
  -4   6 -10    6.22    0.44 
  -5  -6 -10    0.60    0.26 
   5  -6  10    0.79    0.40 
   5  -6  10    0.87    0.42 
  -5   6 -10    0.88    0.38 
   6  -6  10    6.19    0.84 
   6  -6  10    7.88    0.87 
  -6  -6 -10    6.47    0.64 
  -6   6 -10    4.85    0.74 
   6  -7 -10    3.25    0.56 
  -6  -7  10    3.40    0.64 
  -6  -7  10    3.70    0.63 
  -6   7  10    3.45    0.59 
   6   7 -10    4.40    0.60 
  -5  -7  10    4.25    0.66 
  -5  -7  10    3.66    0.59 
   5  -7 -10    4.12    0.56 
   5   7 -10    2.78    0.48 
  -5   7  10    3.27    0.55 
  -4  -7  10    2.00    0.47 
  -4  -7  10    1.90    0.46 
   4  -7 -10    2.20    0.41 
   4   7 -10    3.52    0.39 
  -4   7  10    3.60    0.54 
  -4   7  10    3.35    0.38 
   4   7 -10    3.12    0.47 
   3  -7 -10    6.31    0.61 
  -3  -7  10    6.71    0.74 
  -3  -7  10    7.04    0.75 
  -3   7  10    6.25    0.59 
   3   7 -10    6.03    0.59 
  -3   7  10    6.78    0.71 
  -2  -7  10    3.57    0.57 
  -2  -7  10    3.97    0.58 
   2   7 -10    3.27    0.43 
  -2   7  10    3.76    0.56 
  -2   7  10    3.73    0.47 
   2   7 -10    3.23    0.47 
  -1  -7  10    4.34    0.59 
   1  -7 -10    3.71    0.46 
  -1  -7  10    3.92    0.60 
   1   7 -10    5.06    0.62 
   0  -7  10    5.64    0.65 
   0  -7  10    5.99    0.68 
   0  -7 -10    6.47    0.55 
   0   7 -10    4.92    0.50 
   0   7 -10    4.54    0.56 
   0   7  10    5.41    0.60 
   1  -7  10   16.31    1.23 
   1  -7  10   15.36    1.19 
  -1  -7 -10   17.31    1.12 
  -1   7 -10   14.12    1.14 
  -2  -7 -10   19.33    1.16 
   2  -7  10   19.43    1.41 
   2  -7  10   20.27    1.44 
  -2   7 -10   18.12    1.36 
  -2   7 -10   18.74    1.35 
   3  -7  10    8.90    0.88 
   3  -7  10    8.67    0.86 
  -3  -7 -10    8.22    0.59 
  -4  -7 -10   21.58    1.42 
   4  -7  10   23.50    1.66 
   4  -7  10   22.90    1.68 
  -4   7 -10   21.93    1.58 
   5  -7  10   11.75    1.13 
   5  -7  10   12.43    1.16 
  -5   7 -10   12.73    1.08 
  -5  -8  10    5.26    0.75 
  -5  -8  10    5.41    0.71 
  -5   8  10    3.81    0.63 
   5   8 -10    3.84    0.55 
  -4  -8  10   30.14    2.35 
   4  -8 -10   33.34    2.05 
  -4  -8  10   35.86    2.21 
   4   8 -10   30.22    2.00 
   4   8 -10   30.84    2.01 
  -4   8  10   28.17    2.19 
  -3  -8  10    8.92    1.04 
   3  -8 -10    8.92    0.72 
  -3  -8  10    8.62    0.87 
  -3   8  10    7.26    0.71 
   3   8 -10    8.17    0.73 
  -3   8  10    8.44    0.84 
  -2   8  10   10.90    0.92 
   2   8 -10   10.31    0.77 
  -2   8  10    9.45    0.85 
   2   8 -10   10.33    0.86 
   1  -8 -10   19.50    1.30 
  -1  -8  10   19.39    1.43 
  -1  -8  10   19.92    1.44 
   1   8 -10   18.69    1.65 
  -1   8  10   19.68    1.41 
  -1   8  10   18.72    1.39 
   1   8 -10   19.09    1.25 
   0  -8  10   10.89    1.00 
   0  -8 -10   10.02    0.84 
   0  -8  10   10.94    0.99 
   0   8 -10   11.96    0.94 
   0   8  10   12.58    0.98 
   0   8 -10   12.48    0.83 
   1  -8  10    0.93    0.38 
   1  -8  10    1.35    0.39 
  -1  -8 -10    1.20    0.31 
   2  -8  10    7.70    0.82 
   2  -8  10    8.47    0.82 
  -2   8 -10    7.05    0.62 
  -2   8 -10    6.63    0.75 
   3  -8  10    0.75    0.39 
   3  -8  10    0.81    0.39 
  -3   8 -10    0.43    0.35 
  -3   8 -10    0.83    0.34 
   4  -8  10    2.07    0.54 
   4  -8  10    2.17    0.52 
  -4   8 -10    2.28    0.46 
  -4   8 -10    2.44    0.51 
   5  -8  10    0.76    0.48 
   5  -8  10    0.88    0.45 
  -5   8 -10    0.33    0.42 
  -5   8 -10    0.18    0.33 
  -4  -9  10    0.81    0.46 
  -4  -9  10    0.57    0.37 
   4  -9 -10    0.71    0.28 
  -4   9  10    0.25    0.34 
   4   9 -10    0.54    0.25 
  -4   9  10    0.66    0.27 
  -3  -9  10    4.45    0.68 
  -3  -9  10    4.28    0.67 
   3  -9 -10    4.48    0.51 
   3   9 -10    5.21    0.60 
  -3   9  10    4.34    0.57 
  -3   9  10    5.08    0.70 
   3   9 -10    4.03    0.47 
   2  -9 -10    0.41    0.22 
  -2  -9  10    0.16    0.35 
  -2  -9  10    0.34    0.36 
  -2   9  10    0.98    0.34 
  -2   9  10    1.08    0.37 
   2   9 -10    0.99    0.35 
  -1  -9  10    8.94    0.91 
  -1  -9  10    9.83    1.24 
   1  -9 -10    8.98    0.75 
  -1   9  10    9.38    0.90 
   1   9 -10    9.20    0.84 
  -1   9  10    9.35    0.87 
   1   9 -10    8.32    0.66 
   0  -9  10    2.91    0.60 
   0   9 -10    1.48    0.41 
   0   9  10    1.74    0.40 
   0   9 -10    1.52    0.25 
   1  -9  10   23.88    1.86 
  -1  -9 -10   25.24    1.70 
   1  -9  10   23.52    2.23 
  -1   9 -10   24.36    1.53 
  -1   9 -10   25.12    1.72 
   2  -9  10   13.88    1.24 
  -2  -9 -10   14.34    1.07 
   2  -9  10   13.93    1.25 
  -2   9 -10   17.43    1.38 
  -2   9 -10   16.34    1.03 
  -3   9 -10    4.15    0.68 
  -3   9 -10    4.14    0.45 
   4  -9  10    8.52    0.96 
   4  -9  10    7.68    0.97 
  -4   9 -10    8.63    0.92 
  -4   9 -10    9.19    0.88 
   3 -10 -10   10.91    0.86 
  -3 -10  10   11.67    1.11 
  -3 -10  10   11.20    1.06 
   3  10 -10   12.11    1.01 
  -3  10  10   11.91    1.00 
  -3  10  10   12.17    1.07 
   2 -10 -10    7.05    0.59 
  -2 -10  10    7.32    0.83 
  -2 -10  10    7.12    0.86 
  -2  10  10    5.98    0.73 
  -2  10  10    6.68    0.80 
   2  10 -10    6.61    0.77 
  -1 -10  10   16.18    1.29 
  -1 -10  10   17.02    1.29 
   1 -10 -10   16.82    1.07 
   1  10 -10   14.28    1.19 
  -1  10  10   13.16    1.21 
  -1  10  10   13.82    1.23 
   0 -10  10   11.28    1.04 
   0 -10  10   10.78    1.02 
   0 -10 -10   10.33    0.77 
   0  10  10   10.27    1.05 
   0  10 -10   10.15    0.96 
   1 -10  10    0.98    0.42 
   1 -10  10    1.27    0.44 
  -1  10 -10    1.04    0.41 
   2 -10  10    2.77    0.61 
  -2 -10 -10    2.96    0.39 
   2 -10  10    2.84    0.58 
  -2  10 -10    2.58    0.56 
  -3 -10 -10    0.72    0.26 
   3 -10  10    0.74    0.45 
   3 -10  10    0.54    0.44 
  -3  10 -10    1.19    0.46 
  -2 -11  10    2.28    0.54 
  -2 -11  10    2.41    0.55 
  -2  11  10    2.55    0.54 
  -2  11  10    2.62    0.59 
   2  11 -10    2.53    0.50 
  -1 -11  10    7.33    0.86 
  -1 -11  10    7.24    0.90 
  -1  11  10    7.63    0.85 
   1  11 -10    7.27    0.85 
  -1  11  10    7.66    0.88 
   0 -11  10    0.40    0.40 
   0 -11  10    1.12    0.46 
   0  11 -10    0.59    0.40 
   0  11  10    0.69    0.41 
   1 -11  10    4.29    0.69 
   1 -11  10    5.30    0.78 
  -1  11 -10    5.15    0.75 
  -7   0  11    2.28    0.44 
   7   0 -11    3.46    0.62 
  -7   0  11    2.39    0.46 
  -6   0  11    6.82    0.83 
   6   0 -11    6.68    0.89 
  -6   0  11    7.07    0.67 
  -6   0  11    7.35    0.67 
  -5   0  11   18.33    1.39 
  -5   0  11   17.87    1.25 
   5   0 -11   18.15    1.35 
  -5   0  11   18.79    1.24 
  -4   0  11    5.96    0.54 
  -4   0  11    5.72    0.50 
   4   0 -11    5.55    0.63 
  -4   0  11    6.36    0.68 
  -3   0  11   59.88    3.47 
   3   0 -11   58.33    3.55 
  -3   0  11   58.32    3.43 
  -3   0  11   55.78    3.57 
  -2   0  11   37.13    2.38 
  -2   0  11   36.19    2.26 
  -2   0  11   40.29    2.28 
   2   0 -11   37.19    2.36 
   1   0 -11    3.83    0.30 
  -1   0  11    4.19    0.49 
  -1   0  11    3.83    0.35 
   1   0 -11    4.06    0.45 
  -1   0  11    3.51    0.32 
   0   0  11   51.15    3.24 
   0   0  11   58.49    3.43 
   0   0  11   56.66    3.25 
   0   0 -11   54.85    3.35 
   1   0  11   27.01    1.74 
   1   0  11   29.67    1.87 
   1   0  11   29.75    1.75 
  -1   0 -11   30.01    1.82 
  -2   0 -11    2.12    0.31 
   2   0  11    1.88    0.25 
   2   0  11    1.72    0.22 
   3   0  11    3.39    0.35 
  -3   0 -11    2.88    0.44 
   3   0  11    3.44    0.46 
   3   0  11    2.84    0.33 
  -4   0 -11    1.24    0.31 
   4   0  11    1.24    0.35 
   4   0  11    1.18    0.23 
  -4   0 -11    1.01    0.14 
  -5   0 -11    2.90    0.31 
  -5   0 -11    3.52    0.51 
   5   0  11    3.17    0.50 
   5   0  11    3.32    0.40 
   6   0  11    0.30    0.28 
  -6   0 -11    0.07    0.29 
   6   0  11    0.38    0.22 
  -6   0 -11    0.10    0.18 
  -7   0 -11    4.75    0.69 
   7   0  11    5.67    0.53 
   7   0  11    5.40    0.66 
  -7  -1  11    4.88    0.63 
  -7  -1  11    5.26    0.66 
   7  -1 -11    4.70    0.72 
   7   1 -11    4.44    0.76 
  -7   1  11    4.61    0.62 
  -6  -1  11    5.19    0.53 
   6  -1 -11    6.06    0.76 
  -6  -1  11    5.20    0.60 
  -6  -1  11    5.25    0.73 
   6   1 -11    4.32    0.67 
  -6   1  11    3.43    0.53 
  -6   1  11    3.91    0.51 
  -5  -1  11   11.39    0.85 
  -5  -1  11   10.57    0.90 
  -5  -1  11   11.30    1.02 
   5  -1 -11   11.51    0.98 
  -5   1  11   12.89    0.95 
   5   1 -11   12.17    0.99 
  -5   1  11   11.75    1.02 
  -4  -1  11    7.67    0.60 
   4  -1 -11    6.79    0.72 
  -4  -1  11    6.44    0.75 
   4   1 -11    8.38    0.75 
  -4   1  11    8.80    0.78 
  -4   1  11    8.80    0.65 
  -4   1  11    8.46    0.62 
  -3  -1  11    0.41    0.14 
  -3  -1  11    0.47    0.22 
   3  -1 -11    0.66    0.27 
  -3  -1  11    0.47    0.29 
  -3   1  11    0.45    0.25 
  -3   1  11    0.52    0.16 
  -3   1  11    0.81    0.19 
  -3   1  11    0.56    0.18 
   3   1 -11    0.35    0.23 
   2  -1 -11    1.40    0.32 
  -2  -1  11    1.40    0.33 
  -2  -1  11    1.43    0.16 
  -2  -1  11    1.56    0.27 
   2   1 -11    1.59    0.33 
  -2   1  11    1.71    0.24 
  -2   1  11    1.30    0.29 
  -2   1  11    1.65    0.21 
  -2   1  11    1.72    0.18 
   1  -1 -11   14.84    0.97 
   1  -1 -11   13.70    0.82 
  -1  -1  11   14.93    1.01 
  -1  -1  11   14.31    0.90 
  -1   1  11   12.40    0.79 
   1   1 -11   11.11    0.82 
  -1   1  11   13.48    0.82 
   1   1 -11   11.68    0.93 
  -1   1  11   12.07    0.80 
   0  -1  11    7.41    0.60 
   0  -1 -11    7.41    0.68 
   0  -1  11    7.07    0.69 
   0   1  11    9.46    0.69 
   0   1 -11    9.78    0.71 
   1  -1  11    6.48    0.55 
   1  -1  11    6.95    0.64 
  -1  -1 -11    6.25    0.54 
   1   1  11    7.69    0.61 
  -1   1 -11    7.74    0.59 
  -2  -1 -11   42.33    2.66 
   2  -1  11   41.89    2.64 
   2  -1  11   40.75    2.71 
  -2   1 -11   46.21    2.69 
   2   1  11   48.01    2.71 
   3  -1  11   18.50    1.20 
   3  -1  11   18.18    1.28 
  -3  -1 -11   16.22    1.08 
  -3  -1 -11   18.10    1.22 
   3   1  11   19.78    1.06 
  -4  -1 -11   13.00    0.92 
   4  -1  11   12.47    0.97 
   4  -1  11   12.78    0.88 
   4   1  11   11.20    0.74 
  -4   1 -11   10.97    0.92 
   4   1  11   11.87    0.91 
  -5  -1 -11   38.95    2.29 
   5  -1  11   39.15    2.24 
   5  -1  11   38.35    2.32 
  -5   1 -11   30.85    2.10 
   5   1  11   33.54    2.10 
   5   1  11   33.94    2.33 
  -5   1 -11   34.65    2.29 
  -6  -1 -11    9.68    0.83 
   6  -1  11   10.51    0.87 
   6  -1  11    9.43    0.77 
  -6   1 -11    6.91    0.62 
   6   1  11    8.50    0.77 
   6   1  11    8.17    0.61 
  -7  -1 -11    3.60    0.56 
   7  -1  11    3.80    0.52 
   7  -1  11    2.69    0.52 
  -7   1 -11    1.96    0.48 
   7   1  11    2.37    0.44 
  -7  -2  11    0.24    0.34 
  -7  -2  11    0.34    0.29 
   7  -2 -11    0.34    0.40 
  -7   2  11    0.55    0.33 
  -7   2  11    0.59    0.25 
   7   2 -11    0.79    0.42 
   6  -2 -11    9.54    0.87 
  -6  -2  11    9.12    0.79 
   6   2 -11    7.17    0.82 
  -6   2  11    6.44    0.62 
  -6   2  11    7.05    0.72 
  -5  -2  11   14.65    1.00 
  -5  -2  11   14.92    1.19 
  -5  -2  11   13.91    1.10 
   5  -2 -11   14.00    1.13 
  -5   2  11   13.39    1.04 
  -5   2  11   16.33    1.08 
   5   2 -11   13.93    1.13 
  -4  -2  11    0.12    0.27 
   4  -2 -11    0.28    0.25 
   4   2 -11    2.01    0.39 
  -4   2  11    1.60    0.33 
  -4   2  11    1.70    0.37 
  -3  -2  11   37.18    2.38 
   3  -2 -11   37.29    2.34 
  -3  -2  11   35.85    2.30 
  -3  -2  11   38.48    2.19 
  -3   2  11   38.71    2.15 
  -3   2  11   35.98    2.24 
   3   2 -11   34.78    2.31 
  -3   2  11   35.52    2.34 
   2  -2 -11   38.77    2.45 
  -2  -2  11   34.77    2.25 
  -2  -2  11   39.36    2.27 
  -2  -2  11   38.27    2.41 
  -2  -2  11   39.53    2.50 
   2   2 -11   41.74    2.45 
  -2   2  11   39.69    2.44 
  -2   2  11   40.43    2.35 
   1  -2 -11   12.25    0.92 
  -1  -2  11   12.16    0.95 
  -1  -2  11   12.05    0.87 
   1  -2 -11   12.41    0.80 
   1   2 -11   12.16    0.79 
  -1   2  11   11.42    0.79 
   1   2 -11   12.99    0.91 
  -1   2  11   12.32    0.91 
   0  -2  11   61.64    3.70 
   0  -2  11   60.56    3.77 
   0  -2 -11   62.29    3.75 
   0   2 -11   61.25    3.73 
   0   2  11   63.49    3.72 
   1  -2  11   26.45    1.63 
   1  -2  11   26.47    1.70 
  -1  -2 -11   28.26    1.59 
   1   2  11   22.44    1.61 
  -1   2 -11   23.50    1.67 
  -2  -2 -11    1.05    0.14 
   2  -2  11    0.86    0.30 
  -2  -2 -11    1.11    0.23 
   3  -2  11   25.51    1.57 
   3  -2  11   24.02    1.63 
  -3  -2 -11   25.27    1.54 
   3   2  11   22.80    1.53 
  -3   2 -11   21.60    1.66 
  -4  -2 -11    3.35    0.55 
   4  -2  11    3.25    0.47 
   4  -2  11    3.43    0.54 
  -4   2 -11    3.97    0.52 
   4   2  11    4.01    0.45 
  -5  -2 -11    7.46    0.67 
   5  -2  11    6.93    0.69 
   5  -2  11    6.77    0.74 
   5   2  11    7.29    0.62 
  -5   2 -11    6.52    0.70 
  -5   2 -11    6.46    0.48 
   6  -2  11    2.31    0.43 
  -6  -2 -11    2.42    0.45 
   6  -2  11    2.13    0.63 
   7  -2  11    6.50    0.72 
  -7  -2 -11    6.64    0.78 
   7  -2  11    6.10    0.80 
  -7   2 -11    8.53    0.84 
   7  -3 -11   14.11    1.22 
  -7  -3  11   13.18    1.16 
   7   3 -11   13.44    1.21 
  -7   3  11   13.38    0.93 
  -7   3  11   14.28    1.14 
  -6  -3  11    2.46    0.55 
   6  -3 -11    2.87    0.55 
  -6  -3  11    2.36    0.48 
   6   3 -11    3.13    0.55 
  -6   3  11    3.11    0.32 
  -6   3  11    3.18    0.48 
   5  -3 -11   25.27    1.71 
  -5  -3  11   24.70    1.76 
  -5  -3  11   23.89    1.68 
  -5   3  11   23.93    1.47 
  -5   3  11   25.31    1.64 
   5   3 -11   24.26    1.70 
   4   3 -11    4.06    0.55 
  -4   3  11    3.91    0.55 
  -4   3  11    3.47    0.46 
   3  -3 -11    0.99    0.29 
  -3  -3  11    1.22    0.18 
  -3  -3  11    1.36    0.31 
  -3  -3  11    0.87    0.32 
  -3   3  11    0.91    0.25 
  -3   3  11    0.75    0.28 
   3   3 -11    0.82    0.28 
  -2  -3  11    6.53    0.61 
  -2  -3  11    6.58    0.68 
  -2  -3  11    7.11    0.40 
   2   3 -11    6.29    0.61 
  -2   3  11    6.70    0.61 
  -2   3  11    6.35    0.54 
   2   3 -11    6.48    0.43 
  -1  -3  11    3.59    0.44 
  -1  -3  11    3.42    0.57 
   1  -3 -11    3.90    0.47 
  -1   3  11    3.50    0.36 
   1   3 -11    3.59    0.45 
  -1   3  11    4.04    0.43 
   1   3 -11    3.94    0.35 
   0  -3  11   28.25    1.79 
   0  -3 -11   27.84    1.80 
   0   3  11   28.27    1.76 
   0   3 -11   26.96    1.78 
  -1  -3 -11   10.99    0.71 
  -1  -3 -11    9.14    0.65 
   1  -3  11   10.66    0.80 
   1  -3  11   10.30    1.20 
   2  -3  11   36.78    2.34 
  -2  -3 -11   37.80    2.21 
   2  -3  11   33.96    2.26 
  -2   3 -11   36.13    2.29 
   2   3  11   36.69    2.22 
   3  -3  11   34.47    2.22 
   3  -3  11   34.39    2.27 
  -3  -3 -11   35.78    2.16 
   3   3  11   34.16    2.14 
  -3   3 -11   36.03    2.24 
   4  -3  11    9.89    0.84 
  -4  -3 -11   10.51    0.78 
   4  -3  11    9.65    0.89 
  -4   3 -11    9.81    0.85 
   4   3  11    9.58    0.72 
   5  -3  11   18.92    1.36 
  -5  -3 -11   19.14    1.32 
   5  -3  11   19.26    1.42 
   5   3  11   18.60    1.23 
  -5   3 -11   17.65    1.37 
   6  -3  11    5.27    0.75 
  -6  -3 -11    5.73    0.66 
   6  -3  11    5.28    0.70 
  -6   3 -11    7.26    0.75 
   7  -4 -11    1.11    0.45 
  -7  -4  11    0.50    0.38 
  -7  -4  11    0.89    0.48 
  -7   4  11    1.07    0.39 
   7   4 -11    0.80    0.42 
  -6  -4  11    2.50    0.55 
  -6  -4  11    2.91    0.55 
   6  -4 -11    2.99    0.55 
   6   4 -11    4.36    0.66 
  -6   4  11    4.00    0.58 
  -5  -4  11    9.66    0.91 
  -5  -4  11    9.38    0.95 
   5  -4 -11   10.01    0.90 
   5   4 -11   10.35    0.91 
  -5   4  11    9.81    0.84 
  -4  -4  11    6.58    0.69 
   4  -4 -11    6.17    0.66 
  -4  -4  11    6.45    0.75 
  -4   4  11    6.63    0.84 
   4   4 -11    6.01    0.66 
  -3  -4  11   21.42    1.46 
   3  -4 -11   20.99    1.44 
  -3  -4  11   21.07    1.52 
  -3   4  11   21.42    1.46 
   3   4 -11   20.47    1.43 
  -2  -4  11   52.94    2.89 
   2  -4 -11   51.14    3.07 
  -2  -4  11   49.05    3.07 
  -2  -4  11   56.47    2.89 
  -2  -4  11   47.85    3.12 
   2   4 -11   46.66    3.05 
  -2   4  11   45.62    3.01 
  -2   4  11   47.29    3.05 
  -1   4  11   21.43    1.36 
  -1   4  11   20.01    1.33 
   1   4 -11   20.05    1.37 
   1   4 -11   20.77    1.30 
   0  -4  11   32.13    2.10 
   0  -4 -11   37.41    2.12 
   0  -4  11   35.39    2.16 
   0   4  11   30.76    2.01 
   0   4 -11   30.29    2.06 
   0   4 -11   32.59    2.03 
   0   4  11   32.19    2.03 
   1  -4  11   11.46    0.97 
  -1  -4 -11   11.56    0.79 
   1   4  11   12.74    0.83 
  -1   4 -11   12.35    0.94 
  -2  -4 -11    2.57    0.29 
   2  -4  11    2.49    0.45 
   2  -4  11    2.29    0.40 
   3  -4  11   11.78    1.01 
  -3  -4 -11   11.65    0.83 
   3  -4  11   12.18    0.95 
   3   4  11   11.92    0.79 
  -3   4 -11   11.90    0.94 
   4  -4  11    1.61    0.43 
   4  -4  11    1.64    0.40 
  -4  -4 -11    1.96    0.32 
  -4   4 -11    1.77    0.39 
   4   4  11    1.58    0.23 
   5  -4  11    1.91    0.80 
   5  -4  11    2.37    0.46 
  -6  -4 -11    0.59    0.30 
   6  -4  11    0.86    0.39 
   6  -4  11    0.61    0.40 
  -6   4 -11    1.15    0.41 
  -6  -5  11    2.25    0.53 
  -6  -5  11    2.17    0.50 
   6  -5 -11    2.65    0.51 
   6   5 -11    1.88    0.48 
  -6   5  11    2.13    0.47 
  -5  -5  11    8.80    0.92 
   5  -5 -11    8.93    0.85 
  -5  -5  11    9.27    1.00 
   5   5 -11    8.52    0.83 
  -5   5  11    8.19    0.82 
  -4  -5  11    4.70    0.65 
  -4  -5  11    5.00    0.70 
   4  -5 -11    4.87    0.59 
  -3  -5  11    2.53    0.50 
   3  -5 -11    2.42    0.43 
  -3  -5  11    2.12    0.44 
   3   5 -11    3.20    0.47 
   3   5 -11    2.89    0.24 
  -3   5  11    3.21    0.44 
  -2  -5  11    6.07    0.41 
  -2  -5  11    6.10    0.65 
  -2  -5  11    6.14    0.69 
   2  -5 -11    6.35    0.61 
   2   5 -11    5.66    0.49 
  -1  -5  11    4.67    0.64 
  -1  -5  11    4.91    0.61 
   1   5 -11    5.91    0.51 
   1   5 -11    5.85    0.56 
  -1   5  11    6.22    0.53 
  -1   5  11    6.12    0.56 
   0  -5  11    0.81    0.32 
   0   5  11    1.61    0.26 
   0   5 -11    1.22    0.27 
   0   5 -11    1.39    0.29 
   0   5  11    1.47    0.27 
   1  -5  11    2.17    0.43 
   1  -5  11    2.53    0.42 
  -1  -5 -11    2.17    0.23 
   2  -5  11   23.73    1.58 
  -2  -5 -11   23.87    1.37 
   2  -5  11   24.60    1.55 
  -2   5 -11   19.86    1.49 
   2   5  11   19.28    1.33 
   3  -5  11   19.99    1.47 
  -3  -5 -11   19.26    1.26 
   3  -5  11   21.18    1.43 
  -3   5 -11   19.29    1.40 
   4  -5  11    6.80    0.77 
   4  -5  11    7.43    0.82 
  -4  -5 -11    6.91    0.60 
  -4   5 -11    7.36    0.74 
   5  -5  11   21.34    1.62 
   5  -5  11   22.10    1.58 
  -5  -5 -11   21.55    1.44 
  -5   5 -11   20.64    1.55 
  -6  -5 -11   11.17    0.93 
   6  -5  11   11.88    1.08 
   6  -5  11   11.14    1.11 
  -6   5 -11   12.32    1.07 
   6  -6 -11    4.94    0.70 
  -6  -6  11    4.20    0.66 
  -6  -6  11    4.35    0.72 
   6   6 -11    4.94    0.68 
  -6   6  11    4.82    0.69 
  -5  -6  11    5.43    0.73 
  -5  -6  11    5.68    0.75 
  -5   6  11    4.56    0.66 
   5   6 -11    4.67    0.64 
   4  -6 -11    4.34    0.59 
  -4  -6  11    4.74    0.71 
  -4  -6  11    4.49    0.68 
   4   6 -11    5.98    0.62 
  -4   6  11    5.93    0.66 
  -3  -6  11   35.76    2.23 
   3  -6 -11   34.94    2.13 
  -3  -6  11   34.27    2.19 
  -3   6  11   30.92    2.11 
   3   6 -11   32.00    2.10 
   3   6 -11   30.07    1.99 
  -2  -6  11   14.44    1.16 
   2  -6 -11   14.85    1.12 
  -2  -6  11   14.98    1.21 
   2   6 -11   16.65    1.24 
   2   6 -11   15.78    1.06 
  -2   6  11   16.12    1.16 
   1  -6 -11    6.04    0.56 
  -1  -6  11    5.96    0.67 
  -1  -6  11    6.38    0.65 
   1   6 -11    4.25    0.50 
   1   6 -11    4.32    0.50 
  -1   6  11    3.97    0.54 
   0  -6  11   35.88    2.33 
   0  -6  11   35.21    2.37 
   0  -6 -11   37.75    2.28 
   0   6 -11   38.23    2.27 
   0   6 -11   33.45    2.24 
   0   6  11   35.90    2.27 
   1  -6  11   12.43    1.04 
   1  -6  11   12.85    1.09 
  -1  -6 -11   12.78    0.99 
  -1   6 -11   14.91    0.98 
   2  -6  11    0.62    0.35 
  -2  -6 -11    0.96    0.16 
   2  -6  11    0.67    0.33 
  -2   6 -11    1.16    0.32 
  -2   6 -11    1.20    0.35 
   3  -6  11    7.52    0.77 
  -3  -6 -11    7.27    0.53 
   3  -6  11    7.41    0.80 
  -3   6 -11    5.57    0.70 
  -4  -6 -11    1.03    0.24 
   4  -6  11    0.64    0.39 
  -4   6 -11    0.76    0.35 
  -5  -6 -11    1.08    0.28 
   5  -6  11    1.41    0.49 
   5  -6  11    1.18    0.44 
  -5   6 -11    1.40    0.42 
  -5  -7  11   10.72    1.02 
   5  -7 -11   10.19    0.93 
  -5  -7  11   10.65    1.03 
  -5   7  11   10.59    0.98 
   4  -7 -11    9.68    0.83 
  -4  -7  11    8.80    0.93 
  -4  -7  11    9.22    0.95 
  -4   7  11    9.81    0.89 
   4   7 -11    9.29    0.81 
   3  -7 -11    1.68    0.36 
  -3  -7  11    1.81    0.45 
  -3  -7  11    1.85    0.43 
   3   7 -11    1.44    0.29 
  -3   7  11    1.31    0.38 
   3   7 -11    1.54    0.34 
  -2  -7  11    3.19    0.56 
  -2  -7  11    3.17    0.53 
   2  -7 -11    3.33    0.46 
   2   7 -11    3.00    0.45 
   2   7 -11    3.27    0.46 
  -2   7  11    3.03    0.48 
  -1  -7  11    4.84    0.64 
   1  -7 -11    5.23    0.54 
  -1  -7  11    5.07    0.68 
  -1   7  11    4.98    0.61 
   1   7 -11    4.38    0.54 
   1   7 -11    4.91    0.52 
   0  -7  11   15.05    1.23 
   0  -7 -11   16.39    1.14 
   0  -7  11   15.37    1.26 
   0   7 -11   16.47    1.11 
   0   7  11   16.38    1.17 
   1  -7  11    4.08    0.64 
  -1  -7 -11    4.02    0.49 
   1  -7  11    4.16    0.59 
  -1   7 -11    3.42    0.46 
  -1   7 -11    3.14    0.52 
   2  -7  11   24.28    1.82 
   2  -7  11   24.23    1.79 
  -2   7 -11   28.92    1.79 
   3  -7  11   14.35    1.28 
  -3   7 -11   16.94    1.33 
  -3   7 -11   16.61    1.26 
   4  -7  11    4.39    0.68 
  -4   7 -11    2.54    0.54 
  -4   7 -11    3.21    0.55 
   5  -7  11   16.89    1.41 
   5  -7  11   18.79    1.47 
  -5   7 -11   16.47    1.35 
  -5  -8  11   12.15    1.12 
   5  -8 -11   12.20    0.99 
  -5  -8  11   11.06    1.07 
   5   8 -11   11.18    0.95 
  -5   8  11   11.29    1.06 
  -4  -8  11    0.43    0.37 
   4  -8 -11    0.21    0.27 
  -4  -8  11    0.07    0.33 
  -4   8  11    0.68    0.37 
   4   8 -11    1.09    0.32 
  -3  -8  11   12.06    1.08 
  -3  -8  11   11.14    1.07 
   3  -8 -11   11.73    0.94 
   3   8 -11   11.82    0.94 
   3   8 -11   12.28    0.92 
  -3   8  11   12.63    1.04 
   2  -8 -11   16.25    1.11 
  -2  -8  11   16.52    1.57 
  -2  -8  11   13.30    1.33 
   2   8 -11   15.00    1.07 
  -2   8  11   15.18    1.19 
   2   8 -11   15.87    1.14 
  -1  -8  11    6.87    0.78 
  -1  -8  11    5.09    0.76 
   1  -8 -11    6.02    0.62 
   1   8 -11    7.62    0.71 
  -1   8  11    8.25    0.77 
   1   8 -11    7.39    0.60 
   0  -8  11   19.64    1.40 
   0  -8  11   19.42    1.42 
   0  -8 -11   20.05    1.26 
   0   8 -11   16.22    1.19 
   0   8  11   15.89    1.29 
   0   8 -11   17.58    1.30 
  -1  -8 -11   13.66    0.95 
   1  -8  11   13.22    1.13 
  -1   8 -11   11.58    0.90 
  -1   8 -11   11.93    1.03 
   2  -8  11    1.53    0.48 
   2  -8  11    1.77    0.47 
  -2  -8 -11    1.90    0.37 
  -2   8 -11    2.86    0.41 
  -2   8 -11    2.67    0.49 
   3  -8  11    4.70    0.72 
   3  -8  11    4.85    0.74 
  -3   8 -11    3.81    0.66 
   4  -8  11    1.43    0.50 
   4  -8  11    1.41    0.48 
  -4   8 -11    0.98    0.38 
  -4   8 -11    1.16    0.45 
  -4  -9  11    1.01    0.47 
   4  -9 -11    0.48    0.38 
  -4  -9  11    0.74    0.40 
   4   9 -11    0.30    0.25 
  -4   9  11    0.19    0.33 
  -3  -9  11    0.02    0.35 
   3  -9 -11    0.16    0.25 
  -3  -9  11    0.05    0.34 
   3   9 -11    0.34    0.23 
   3   9 -11    0.31    0.26 
  -3   9  11    0.28    0.31 
   2  -9 -11    0.39    0.24 
  -2  -9  11    0.49    0.38 
  -2  -9  11    0.74    0.41 
   2   9 -11    0.18    0.29 
  -1  -9  11    3.10    0.56 
   1  -9 -11    3.11    0.42 
  -1  -9  11    3.29    0.58 
   1   9 -11    2.63    0.47 
  -1   9  11    2.90    0.53 
   1   9 -11    2.89    0.39 
   0  -9  11    6.53    0.83 
   0  -9  11    6.51    0.82 
   0  -9 -11    6.81    0.63 
   0   9  11    7.86    0.78 
   0   9 -11    7.71    0.59 
   0   9 -11    7.60    0.78 
   1  -9  11    2.44    0.52 
  -1  -9 -11    2.60    0.41 
   1  -9  11    1.84    0.47 
  -2  -9 -11   10.31    0.77 
   2  -9  11    9.15    0.94 
   2  -9  11    9.77    0.99 
  -2   9 -11    7.88    0.70 
  -2   9 -11    8.94    0.92 
  -3  -9 -11    6.54    0.66 
   3  -9  11    6.61    0.88 
   3  -9  11    6.90    0.87 
  -3   9 -11    7.26    0.84 
  -3   9 -11    7.11    0.62 
  -2 -10  11    8.61    0.92 
   2 -10 -11    9.32    0.71 
  -2 -10  11    9.34    0.96 
   2  10 -11    6.90    0.79 
  -2  10  11    7.31    0.88 
  -2  10  11    8.16    0.82 
  -1 -10  11    5.27    0.80 
   1 -10 -11    5.33    0.54 
  -1 -10  11    6.22    0.81 
  -1  10  11    8.06    0.81 
   0 -10 -11   15.14    1.02 
   0 -10  11   15.00    1.27 
   0 -10  11   14.89    1.27 
   0  10 -11   13.08    1.17 
   1 -10  11    0.54    0.41 
   1 -10  11    0.60    0.41 
  -1 -10 -11    0.44    0.24 
  -1  10 -11    1.14    0.43 
   2 -10  11    2.88    0.59 
  -2 -10 -11    2.72    0.41 
   2 -10  11    3.22    0.65 
  -2  10 -11    4.09    0.68 
  -7   0  12   -0.17    0.26 
   7   0 -12    0.16    0.39 
  -7   0  12    0.01    0.25 
  -6   0  12    0.11    0.24 
  -6   0  12   -0.23    0.32 
  -6   0  12    0.22    0.24 
   6   0 -12    0.26    0.36 
  -5   0  12    4.36    0.67 
   5   0 -12    4.93    0.66 
  -5   0  12    3.84    0.47 
  -5   0  12    4.52    0.51 
   4   0 -12   24.67    1.67 
  -4   0  12   23.79    1.70 
  -4   0  12   24.12    1.53 
  -4   0  12   24.19    1.56 
  -3   0  12    0.38    0.19 
  -3   0  12    0.67    0.17 
   3   0 -12    0.57    0.30 
  -3   0  12    0.25    0.25 
  -2   0  12   29.28    1.76 
  -2   0  12   27.15    1.90 
   2   0 -12   30.75    1.96 
  -2   0  12   30.39    1.97 
  -2   0  12   32.39    1.85 
   1   0 -12   47.16    2.94 
  -1   0  12   52.79    3.14 
   1   0 -12   50.22    3.09 
  -1   0  12   52.44    2.97 
  -1   0  12   48.17    2.95 
   0   0  12   21.32    1.39 
   0   0 -12   20.84    1.38 
   0   0  12   19.68    1.24 
   0   0  12   19.07    1.23 
   1   0  12   29.34    1.83 
  -1   0 -12   30.49    1.93 
   1   0  12   31.45    1.84 
   1   0  12   31.79    1.99 
  -2   0 -12   16.86    1.19 
   2   0  12   17.59    1.08 
   2   0  12   16.85    1.07 
   2   0  12   18.10    1.23 
   3   0  12    0.65    0.17 
  -3   0 -12    0.58    0.25 
   4   0  12    8.68    0.61 
   4   0  12    7.97    0.76 
  -4   0 -12    8.39    0.74 
   5   0  12    1.12    0.34 
  -5   0 -12    1.19    0.34 
   5   0  12    1.23    0.27 
   6   0  12    1.09    0.35 
  -6   0 -12    0.67    0.35 
   6   0  12    0.99    0.26 
  -7  -1  12    5.40    0.64 
   7  -1 -12    5.33    0.84 
  -7  -1  12    5.62    0.67 
  -7   1  12    7.20    0.72 
  -7   1  12    6.65    0.63 
   7   1 -12    6.75    0.88 
   6  -1 -12    8.29    0.90 
  -6  -1  12    7.78    0.80 
  -6  -1  12    8.32    0.75 
  -6  -1  12    7.43    0.93 
  -6   1  12    9.87    0.80 
  -6   1  12   10.83    0.76 
   6   1 -12   10.30    0.95 
  -5  -1  12    8.59    0.74 
  -5  -1  12    8.45    0.67 
   5  -1 -12    8.95    0.85 
  -5  -1  12    8.57    0.95 
   5   1 -12    7.70    0.82 
  -5   1  12    7.10    0.68 
  -5   1  12    7.89    0.86 
  -5   1  12    8.30    0.68 
  -4  -1  12   20.04    1.36 
  -4  -1  12   19.82    1.48 
  -4  -1  12   20.97    1.29 
   4  -1 -12   18.04    1.42 
   4   1 -12   21.14    1.45 
  -4   1  12   20.03    1.31 
  -4   1  12   20.69    1.48 
  -4   1  12   20.04    1.28 
  -3   1  12    3.99    0.54 
  -3   1  12    3.70    0.35 
   3   1 -12    4.14    0.53 
  -3   1  12    3.98    0.39 
  -2  -1  12    1.62    0.38 
   2  -1 -12    1.65    0.35 
  -2  -1  12    1.63    0.30 
  -2   1  12    1.31    0.23 
  -2   1  12    1.55    0.20 
   2   1 -12    1.57    0.35 
  -2   1  12    1.61    0.19 
  -2   1  12    1.43    0.36 
   1  -1 -12    3.28    0.47 
  -1  -1  12    3.66    0.51 
  -1  -1  12    3.78    0.39 
   1  -1 -12    3.54    0.30 
  -1   1  12    3.63    0.47 
   1   1 -12    3.47    0.48 
   1   1 -12    3.48    0.30 
   0  -1  12   13.01    0.92 
   0  -1  12   13.04    1.10 
   0  -1 -12   13.01    1.00 
   0   1  12   14.20    1.01 
   0   1 -12   14.80    1.02 
  -1  -1 -12    7.46    0.58 
   1  -1  12    7.10    0.72 
   1  -1  12    6.93    0.55 
   1   1  12    6.61    0.63 
   2  -1  12    2.47    0.41 
   2  -1  12    2.30    0.34 
  -2  -1 -12    2.84    0.37 
  -2   1 -12    2.62    0.39 
   2   1  12    2.91    0.42 
  -3  -1 -12   32.81    2.06 
   3  -1  12   33.51    2.07 
  -3   1 -12   29.32    2.15 
   3   1  12   30.12    2.01 
  -4  -1 -12   21.23    1.43 
   4  -1  12   20.28    1.35 
   4  -1  12   21.08    1.47 
  -4   1 -12   20.56    1.44 
  -5  -1 -12    6.58    0.66 
   5  -1  12    6.94    0.71 
   5  -1  12    6.43    0.57 
   5   1  12    4.69    0.59 
  -5   1 -12    4.98    0.64 
   6  -1  12   19.40    1.52 
   6  -1  12   20.85    1.42 
  -6  -1 -12   20.39    1.56 
  -6   1 -12   23.47    1.56 
   6   1  12   22.21    1.48 
  -7  -2  12    3.75    0.54 
  -7  -2  12    4.20    0.64 
   7  -2 -12    3.72    0.65 
  -7   2  12    3.94    0.46 
   7   2 -12    4.25    0.70 
  -7   2  12    4.27    0.62 
  -6  -2  12    3.40    0.63 
   6  -2 -12    2.41    0.50 
  -6  -2  12    2.51    0.48 
  -6  -2  12    2.71    0.42 
  -6   2  12    2.49    0.36 
  -6   2  12    2.62    0.43 
   6   2 -12    3.44    0.59 
  -5  -2  12    7.43    0.72 
   5  -2 -12    6.57    0.76 
  -5  -2  12    6.70    0.59 
  -5   2  12    7.04    0.84 
   5   2 -12    7.30    0.78 
  -5   2  12    7.58    0.66 
  -4  -2  12   12.17    1.01 
  -4  -2  12   11.94    0.91 
   4  -2 -12   11.97    0.97 
  -4  -2  12   11.51    0.78 
  -4   2  12   11.12    0.97 
   4   2 -12   10.66    0.95 
  -4   2  12   11.45    0.88 
  -4   2  12   10.70    0.71 
  -3  -2  12    5.06    0.65 
   3  -2 -12    5.15    0.60 
  -3  -2  12    4.90    0.40 
  -3  -2  12    4.90    0.55 
  -3   2  12    6.65    0.64 
   3   2 -12    6.34    0.62 
  -3   2  12    6.56    0.51 
  -2  -2  12   32.27    2.08 
   2  -2 -12   32.39    2.04 
  -2  -2  12   32.22    1.98 
   2   2 -12   31.53    2.03 
  -2   2  12   29.65    2.03 
  -2   2  12   30.59    1.91 
  -1  -2  12   37.51    2.29 
   1  -2 -12   38.41    2.26 
  -1  -2  12   38.32    2.20 
   1  -2 -12   34.57    2.10 
   1   2 -12   31.79    2.12 
   1   2 -12   32.97    2.09 
  -1   2  12   33.31    2.10 
   1   2 -12   35.69    2.23 
  -1   2  12   35.18    2.23 
   0  -2  12    4.39    0.54 
   0  -2  12    3.85    0.43 
   0  -2 -12    4.72    0.52 
   0   2 -12    3.56    0.48 
   0   2  12    3.52    0.45 
   1  -2  12   44.86    2.88 
  -1  -2 -12   44.70    2.76 
   1  -2  12   44.91    2.80 
  -1   2 -12   47.62    2.83 
   1   2  12   47.46    2.82 
   2  -2  12   16.17    1.11 
   2  -2  12   16.49    1.21 
  -2  -2 -12   16.96    1.10 
  -2   2 -12   15.84    1.38 
   2   2  12   15.30    1.11 
   3  -2  12    6.80    0.77 
  -3  -2 -12    7.49    0.66 
  -3   2 -12    9.29    0.75 
   3   2  12    9.34    0.90 
   4  -2  12    6.22    0.61 
   4  -2  12    5.81    0.70 
  -4  -2 -12    5.96    0.60 
  -4   2 -12    6.80    0.68 
   4   2  12    6.28    0.59 
   5  -2  12    0.77    0.36 
   5  -2  12    0.89    0.31 
  -5  -2 -12    0.91    0.32 
  -5   2 -12    0.58    0.33 
  -6  -2 -12    2.75    0.68 
   6  -2  12    1.38    0.43 
  -6   2 -12    2.36    0.50 
   6   2  12    2.45    0.38 
  -6  -3  12    6.62    0.86 
   6  -3 -12    6.66    0.81 
  -6  -3  12    6.12    0.61 
  -6  -3  12    6.35    0.75 
   6   3 -12    7.04    0.81 
  -6   3  12    6.38    0.69 
  -5  -3  12    4.11    0.65 
  -5  -3  12    4.76    0.63 
  -5  -3  12    4.18    0.45 
  -4  -3  12   17.41    1.26 
  -4  -3  12   16.33    1.09 
  -4  -3  12   16.65    1.33 
   4  -3 -12   16.67    1.28 
  -4   3  12   17.32    1.31 
   4   3 -12   18.28    1.29 
  -4   3  12   17.72    1.20 
  -3  -3  12    2.31    0.45 
   3  -3 -12    3.24    0.49 
  -3  -3  12    3.37    0.27 
  -3  -3  12    3.04    0.48 
   2  -3 -12    0.02    0.23 
  -2  -3  12    0.02    0.28 
  -2  -3  12    0.13    0.22 
  -2   3  12    0.20    0.18 
   2   3 -12    0.05    0.21 
  -1  -3  12    3.52    0.51 
  -1  -3  12    4.59    0.57 
   1  -3 -12    4.01    0.50 
   1   3 -12    3.48    0.34 
   1   3 -12    3.14    0.46 
  -1   3  12    3.33    0.36 
  -1   3  12    3.37    0.43 
   0  -3  12    7.13    0.62 
   0  -3 -12    7.70    0.67 
   0  -3  12    7.31    0.71 
   0   3  12    6.10    0.58 
   0   3 -12    5.65    0.61 
  -1  -3 -12    6.14    0.52 
   1  -3  12    5.90    0.69 
   1  -3  12    6.41    0.63 
   1   3  12    7.94    0.60 
  -1   3 -12    7.57    0.64 
  -2  -3 -12    3.37    0.37 
   2  -3  12    3.24    0.46 
   2  -3  12    2.95    0.50 
  -3  -3 -12   34.80    2.09 
   3  -3  12   33.70    2.14 
   3  -3  12   33.89    2.22 
   3   3  12   32.44    2.07 
  -3   3 -12   32.97    2.16 
  -4  -3 -12    6.48    0.63 
   4  -3  12    5.63    0.67 
   4  -3  12    6.83    0.78 
   4   3  12    8.82    0.61 
  -5  -3 -12    5.82    0.63 
   5  -3  12    6.41    0.76 
   5  -3  12    6.14    0.67 
   5   3  12    5.84    0.52 
  -5   3 -12    6.44    0.73 
   6  -3  12   14.69    1.14 
   6  -3  12   14.99    1.23 
  -6  -3 -12   15.83    1.18 
  -6   3 -12   12.72    1.17 
  -6  -4  12    0.21    0.34 
  -6  -4  12    0.21    0.39 
   6  -4 -12    0.20    0.36 
   6   4 -12    0.32    0.35 
  -6   4  12    0.30    0.30 
   5  -4 -12    5.55    0.68 
  -5  -4  12    4.97    0.73 
  -5  -4  12    4.95    0.65 
  -5   4  12    3.58    0.56 
  -4  -4  12    9.02    0.91 
   4  -4 -12    9.95    0.85 
  -4  -4  12    9.22    0.83 
  -4   4  12    7.83    0.75 
   4   4 -12    7.70    0.80 
  -3  -4  12    8.81    0.83 
  -3  -4  12    8.79    0.60 
  -3  -4  12    8.36    0.88 
   3  -4 -12    8.45    0.80 
  -3   4  12   10.75    0.78 
   3   4 -12    9.82    0.82 
  -3   4  12   10.90    0.85 
  -2  -4  12   45.50    2.87 
  -2  -4  12   44.07    2.92 
   2  -4 -12   47.32    2.88 
  -2   4  12   46.81    2.81 
   2   4 -12   44.92    2.70 
   2   4 -12   47.77    2.87 
   1  -4 -12   15.78    1.16 
  -1  -4  12   14.44    1.21 
  -1  -4  12   14.15    1.13 
  -1   4  12   17.14    1.08 
   1   4 -12   16.71    1.05 
   1   4 -12   17.10    1.16 
  -1   4  12   15.75    1.11 
   0  -4  12    9.43    0.80 
   0  -4 -12    9.42    0.80 
   0  -4  12    9.42    0.86 
   0   4 -12    9.24    0.71 
   0   4 -12    8.71    0.76 
   0   4  12    9.81    0.72 
   1  -4  12   31.48    2.01 
   1  -4  12   30.44    2.07 
  -1  -4 -12   32.15    1.89 
   1   4  12   29.97    1.92 
   2  -4  12    6.73    0.66 
   2  -4  12    6.85    0.75 
  -2  -4 -12    6.71    0.53 
   2   4  12    6.57    0.53 
  -2   4 -12    6.77    0.66 
  -3  -4 -12    2.40    0.33 
   3  -4  12    1.96    0.47 
   3  -4  12    2.66    0.44 
   4  -4  12   10.37    0.94 
   4  -4  12   10.22    0.86 
  -4   4 -12    9.09    0.85 
   4   4  12    8.30    0.63 
   5  -4  12    0.76    0.40 
   5  -4  12    0.89    0.37 
  -5  -4 -12    0.84    0.29 
  -5   4 -12    0.99    0.39 
  -6  -4 -12    3.88    0.57 
   6  -4  12    3.91    0.66 
   6  -4  12    3.72    0.58 
  -6   4 -12    4.56    0.67 
  -6  -5  12    4.44    0.70 
  -6  -5  12    4.60    0.75 
   6  -5 -12    4.11    0.68 
  -6   5  12    3.35    0.57 
   6   5 -12    4.09    0.65 
  -5  -5  12    5.32    0.74 
   5  -5 -12    5.35    0.71 
  -5  -5  12    4.65    0.76 
   5   5 -12    7.15    0.74 
  -5   5  12    6.75    0.69 
  -4  -5  12   12.68    1.33 
  -4  -5  12   11.62    0.98 
   4  -5 -12   11.51    0.95 
   4   5 -12    9.47    0.92 
  -4   5  12   10.09    0.90 
  -3  -5  12   10.51    0.99 
  -3  -5  12   10.89    0.95 
   3  -5 -12   10.97    0.92 
  -3   5  12   11.10    0.92 
   3   5 -12   11.27    0.91 
  -2  -5  12    1.17    0.35 
   2  -5 -12    1.27    0.35 
  -2  -5  12    0.85    0.34 
   2   5 -12    0.55    0.17 
  -2   5  12    0.44    0.24 
   2   5 -12    0.55    0.28 
   1  -5 -12    7.50    0.66 
  -1  -5  12    7.19    0.70 
  -1  -5  12    7.16    0.75 
   1   5 -12    5.84    0.54 
  -1   5  12    6.04    0.58 
  -1   5  12    6.17    0.59 
   1   5 -12    6.33    0.63 
   0  -5  12    4.37    0.59 
   0  -5 -12    4.41    0.54 
   0  -5  12    4.97    0.66 
   0   5 -12    5.09    0.55 
   0   5 -12    4.73    0.50 
   0   5  12    4.91    0.46 
  -1  -5 -12   15.90    1.16 
   1  -5  12   16.11    1.24 
   1  -5  12   15.53    1.17 
  -1   5 -12   15.76    1.12 
  -1   5 -12   15.54    1.13 
   1   5  12   15.44    1.02 
   2  -5  12    6.33    0.68 
   2  -5  12    6.12    0.74 
  -2  -5 -12    6.11    0.48 
   3  -5  12   17.86    1.34 
  -3  -5 -12   17.11    1.18 
   3  -5  12   18.04    1.41 
  -3   5 -12   20.12    1.35 
   4  -5  12   14.58    1.31 
  -4  -5 -12   16.62    1.12 
  -4   5 -12   17.86    1.29 
   5  -5  12    5.21    0.79 
   5  -5  12    5.24    0.72 
  -5  -5 -12    5.46    0.56 
  -5   5 -12    5.61    0.72 
  -5  -6  12    2.63    0.58 
   5  -6 -12    3.67    0.59 
  -5  -6  12    2.87    0.56 
   5   6 -12    2.85    0.51 
  -5   6  12    4.13    0.57 
   4  -6 -12   13.45    1.10 
  -4  -6  12   13.09    1.19 
  -4  -6  12   14.15    1.16 
  -4   6  12   13.84    1.10 
   4   6 -12   13.93    1.08 
   3  -6 -12    3.69    0.54 
  -3  -6  12    4.24    0.65 
  -3  -6  12    5.63    1.05 
  -2  -6  12   15.08    1.25 
  -2  -6  12   15.17    1.22 
   2  -6 -12   16.72    1.18 
  -2   6  12   16.26    1.16 
   2   6 -12   15.40    1.13 
   2   6 -12   15.74    1.06 
   1  -6 -12   23.38    1.51 
  -1  -6  12   24.61    1.62 
  -1  -6  12   23.56    1.57 
   1   6 -12   20.18    1.43 
   1   6 -12   20.14    1.46 
  -1   6  12   20.52    1.48 
   0  -6  12   14.61    1.26 
   0  -6 -12   14.44    1.15 
   0  -6  12   14.69    1.21 
   0   6 -12   18.28    1.17 
   0   6 -12   18.06    1.16 
   1  -6  12   18.35    1.33 
  -1  -6 -12   18.79    1.29 
   1  -6  12   18.45    1.38 
  -1   6 -12   17.81    1.25 
  -1   6 -12   16.48    1.26 
   2  -6  12   15.37    1.25 
   2  -6  12   15.52    1.21 
  -2   6 -12   14.69    1.16 
  -2   6 -12   16.03    1.18 
   3  -6  12    1.21    0.42 
   3  -6  12    1.17    0.48 
   4  -6  12    6.76    0.84 
   4  -6  12    6.85    0.78 
  -4   6 -12    5.63    0.73 
   5  -6  12   -0.05    0.41 
   5  -6  12    0.67    0.41 
  -5   6 -12    0.58    0.38 
   5  -7 -12    2.70    0.50 
  -5  -7  12    2.35    0.55 
  -5  -7  12    2.75    0.56 
   5   7 -12    2.73    0.48 
  -5   7  12    2.74    0.52 
  -4  -7  12   12.49    1.12 
   4  -7 -12   13.14    1.05 
   4   7 -12   11.89    1.00 
  -3  -7  12    0.20    0.35 
   3  -7 -12    0.19    0.26 
  -3  -7  12    0.54    0.37 
  -3   7  12    1.08    0.35 
   3   7 -12    1.26    0.34 
  -2  -7  12    0.31    0.43 
   2  -7 -12    0.51    0.27 
   2   7 -12    1.25    0.29 
   2   7 -12    0.93    0.30 
  -2   7  12    1.05    0.34 
  -1  -7  12    1.02    0.39 
   1  -7 -12    1.01    0.30 
  -1  -7  12    1.16    0.39 
   1   7 -12    0.82    0.28 
   1   7 -12    1.01    0.31 
  -1   7  12    0.96    0.33 
   0  -7 -12    4.99    0.57 
   0  -7  12    4.70    0.68 
   0  -7  12    4.62    0.73 
   0   7 -12    5.88    0.59 
   0   7 -12    5.50    0.56 
   1  -7  12    2.06    0.57 
   1  -7  12    1.91    0.45 
  -1  -7 -12    1.38    0.35 
  -1   7 -12    2.28    0.41 
  -1   7 -12    3.23    0.45 
   2  -7  12    0.88    0.40 
  -2  -7 -12    0.91    0.33 
   2  -7  12    1.34    0.45 
   3  -7  12   11.97    1.06 
   3  -7  12   12.70    1.12 
  -3   7 -12   10.91    1.00 
  -3   7 -12   11.28    1.03 
   4  -7  12    7.73    0.94 
   4  -7  12    7.88    0.90 
  -4   7 -12    8.27    0.85 
  -4   7 -12    8.09    0.89 
  -4  -8  12    1.41    0.48 
  -4  -8  12    1.38    0.48 
   4  -8 -12    1.42    0.40 
  -4   8  12    1.18    0.40 
  -3  -8  12    5.40    0.79 
   3  -8 -12    5.62    0.64 
  -3  -8  12    5.82    0.80 
   3   8 -12    7.35    0.65 
  -3   8  12    7.18    0.81 
   2  -8 -12   12.59    0.98 
  -2  -8  12   12.43    1.10 
  -2  -8  12   14.01    1.15 
   2   8 -12   11.77    1.15 
   2   8 -12   12.29    0.95 
  -2   8  12   13.34    1.06 
  -1  -8  12   12.72    1.17 
   1  -8 -12   13.39    1.04 
  -1  -8  12   13.12    1.17 
   1   8 -12   14.32    1.00 
  -1   8  12   13.70    1.10 
   1   8 -12   15.36    1.07 
   0  -8  12    2.44    0.50 
   0  -8  12    2.96    0.59 
   0  -8 -12    2.77    0.42 
   0   8 -12    1.55    0.34 
   0   8 -12    2.02    0.43 
  -1  -8 -12   25.67    1.72 
   1  -8  12   27.02    1.85 
   1  -8  12   24.63    1.86 
  -1   8 -12   25.15    1.68 
  -1   8 -12   27.16    1.79 
   2  -8  12    0.95    0.42 
  -2  -8 -12    1.27    0.34 
   2  -8  12    1.03    0.42 
  -2   8 -12    0.58    0.51 
  -2   8 -12    0.91    0.29 
   3  -8  12    3.45    0.61 
   3  -8  12    2.89    0.63 
  -3   8 -12    4.35    0.66 
  -3   8 -12    3.29    0.50 
   3  -9 -12    2.88    0.46 
  -3  -9  12    2.54    0.57 
  -3  -9  12    2.21    0.53 
   3   9 -12    3.80    0.48 
  -3   9  12    2.84    0.51 
  -2  -9  12    1.34    0.44 
  -2  -9  12    1.39    0.47 
   2  -9 -12    1.40    0.33 
   2   9 -12    1.66    0.38 
   2   9 -12    1.50    0.31 
  -2   9  12    1.23    0.41 
  -1  -9  12    3.77    0.62 
   1  -9 -12    4.02    0.49 
  -1  -9  12    3.98    0.66 
   1   9 -12    2.88    0.43 
  -1   9  12    3.56    0.60 
   1   9 -12    3.15    0.55 
   0  -9 -12    4.99    0.55 
   0  -9  12    5.10    0.75 
   0  -9  12    5.17    0.75 
   0   9 -12    3.94    0.62 
   0   9 -12    4.16    0.47 
   1  -9  12    2.44    0.56 
   1  -9  12    2.42    0.57 
  -1  -9 -12    3.00    0.46 
  -1   9 -12    3.69    0.60 
  -1   9 -12    3.65    0.44 
  -2  -9 -12    2.43    0.41 
   2  -9  12    2.21    0.53 
   2  -9  12    2.41    0.58 
   1 -10 -12    7.24    0.64 
  -1 -10  12    7.64    0.90 
  -1 -10  12    8.69    0.93 
  -1  10  12    6.24    0.77 
   1  10 -12    6.54    0.77 
   0 -10  12    2.12    0.54 
   0 -10  12    2.82    0.58 
   0 -10 -12    2.40    0.40 
   0  10 -12    2.66    0.52 
  -6   0  13    8.00    0.96 
  -6   0  13    8.24    0.72 
  -6   0  13    8.52    0.74 
   6   0 -13    8.31    0.91 
  -5   0  13    1.84    0.47 
  -5   0  13    1.62    0.31 
   5   0 -13    0.91    0.36 
  -4   0  13    2.91    0.52 
   4   0 -13    4.32    0.62 
  -4   0  13    4.35    0.41 
   3   0 -13   12.32    0.99 
  -3   0  13   11.21    0.77 
  -3   0  13   12.51    1.00 
  -2   0  13    3.82    0.37 
  -2   0  13    3.58    0.56 
   1   0 -13   34.65    2.18 
  -1   0  13   33.16    2.01 
  -1   0  13   33.19    2.18 
  -1   0  13   33.51    2.01 
   0   0 -13   16.97    1.31 
   0   0  13   18.47    1.32 
   0   0  13   19.39    1.15 
   0   0  13   19.10    1.14 
   1   0  13    7.63    0.52 
  -1   0 -13    7.91    0.66 
   1   0  13    8.50    0.75 
   2   0  13   19.40    1.33 
   2   0  13   18.22    1.12 
  -2   0 -13   18.60    1.28 
  -3   0 -13   12.02    0.91 
   3   0  13   10.84    0.71 
   3   0  13   11.68    0.94 
  -4   0 -13    1.28    0.35 
   4   0  13    1.35    0.20 
   4   0  13    1.68    0.39 
  -5   0 -13    8.87    0.83 
   5   0  13    8.56    0.82 
  -6   0 -13    0.18    0.30 
   6   0  13    0.27    0.31 
  -6  -1  13   19.99    1.29 
  -6  -1  13   21.09    1.55 
  -6  -1  13   19.04    1.33 
   6  -1 -13   20.10    1.49 
  -6   1  13   16.78    1.29 
  -6   1  13   17.24    1.23 
   6   1 -13   17.37    1.45 
  -5  -1  13    5.20    0.52 
   5  -1 -13    6.64    0.77 
  -5  -1  13    5.35    0.77 
  -5  -1  13    5.47    0.60 
  -5   1  13    5.31    0.55 
  -5   1  13    6.93    0.73 
   5   1 -13    5.57    0.73 
  -5   1  13    5.13    0.75 
  -4   1  13    4.78    0.48 
  -4   1  13    5.27    0.43 
   4   1 -13    4.82    0.66 
  -4   1  13    5.05    0.67 
  -3  -1  13   22.35    1.62 
   3  -1 -13   22.24    1.58 
  -3   1  13   22.53    1.59 
   3   1 -13   23.33    1.58 
  -3   1  13   22.54    1.41 
  -2   1  13    4.53    0.54 
   2   1 -13    4.05    0.55 
  -2   1  13    3.60    0.29 
  -1  -1  13    0.40    0.20 
   1  -1 -13    0.66    0.27 
  -1  -1  13    0.39    0.31 
   1   1 -13   -0.07    0.23 
  -1   1  13    0.13    0.23 
   0  -1  13    7.33    0.72 
   0  -1  13    7.19    0.56 
   0  -1 -13    6.82    0.69 
   0   1  13    6.97    0.67 
   0   1 -13    7.12    0.69 
   1  -1  13    8.59    0.78 
  -1  -1 -13    8.80    0.67 
   1  -1  13    8.40    0.62 
   1   1  13    7.80    0.91 
  -1   1 -13    7.62    0.69 
   2  -1  13    5.13    0.60 
   2  -1  13    4.18    0.42 
  -2  -1 -13    4.55    0.55 
  -2   1 -13    4.55    0.52 
   3  -1  13    1.03    0.35 
  -3  -1 -13    1.19    0.31 
   3  -1  13    1.08    0.25 
  -3   1 -13    2.10    0.37 
   3   1  13    2.08    0.38 
   4  -1  13   30.40    2.04 
   4  -1  13   28.14    1.95 
  -4  -1 -13   33.38    2.00 
  -4   1 -13   29.98    2.01 
   4   1  13   30.56    1.99 
  -5  -1 -13    7.87    0.76 
   5  -1  13    7.80    0.89 
   5  -1  13    7.37    0.63 
   5   1  13    8.02    0.73 
  -5   1 -13    8.07    0.88 
   6  -1  13    3.25    0.57 
  -6  -1 -13    3.88    0.60 
   6   1  13    3.50    0.53 
  -6   1 -13    4.02    0.64 
   6  -2 -13    0.18    0.38 
  -6  -2  13    0.36    0.30 
  -6  -2  13    0.00    0.40 
  -6  -2  13   -0.07    0.21 
   6   2 -13    0.44    0.38 
  -6   2  13    0.18    0.26 
  -5  -2  13    1.58    0.48 
  -5  -2  13    1.62    0.28 
   5  -2 -13    1.87    0.49 
  -5  -2  13    2.06    0.41 
  -5   2  13    1.27    0.46 
  -5   2  13    1.10    0.31 
   5   2 -13    1.12    0.39 
  -4  -2  13    4.88    0.43 
  -4  -2  13    4.30    0.72 
   4  -2 -13    4.57    0.65 
  -4  -2  13    4.54    0.58 
  -4   2  13    5.78    0.53 
  -4   2  13    5.60    0.68 
   4   2 -13    5.85    0.70 
  -3  -2  13   14.02    1.01 
   3  -2 -13   14.50    1.09 
  -3  -2  13   14.49    1.14 
  -3   2  13   13.35    1.08 
   3   2 -13   12.26    1.05 
  -3   2  13   12.94    0.92 
   2  -2 -13    8.69    0.86 
  -2  -2  13    9.01    0.91 
  -2  -2  13    8.86    0.79 
   2   2 -13   12.16    0.90 
  -2   2  13   11.84    0.89 
  -2   2  13   11.68    0.71 
   1  -2 -13   27.10    1.78 
  -1  -2  13   25.82    1.69 
  -1  -2  13   25.79    1.80 
  -1   2  13   28.07    1.77 
   1   2 -13   27.93    1.77 
   1   2 -13   24.85    1.59 
   0  -2 -13   33.86    2.19 
   0  -2  13   33.96    2.21 
   0  -2  13   33.10    2.10 
   0   2 -13   33.62    2.17 
   0   2  13   33.95    2.15 
   1  -2  13   15.82    1.16 
  -1  -2 -13   15.11    1.01 
   1  -2  13   15.47    1.03 
  -1   2 -13   14.24    1.07 
   1   2  13   13.33    1.05 
  -2  -2 -13   22.86    1.52 
   2  -2  13   22.35    1.53 
   2  -2  13   23.15    1.64 
  -2   2 -13   24.25    1.58 
   2   2  13   25.09    1.56 
   3  -2  13    5.40    0.70 
  -3  -2 -13    5.82    0.58 
   3  -2  13    5.36    0.57 
   3   2  13    6.27    0.59 
  -3   2 -13    6.66    0.65 
  -4  -2 -13    3.54    0.49 
   4  -2  13    3.44    0.54 
   4  -2  13    3.23    0.46 
  -5  -2 -13    1.76    0.39 
   5  -2  13    1.55    0.44 
   5  -2  13    1.44    0.32 
   5   2  13    1.88    0.35 
  -5   2 -13    1.41    0.42 
   6  -3 -13    6.50    0.84 
  -6  -3  13    6.99    0.90 
  -6  -3  13    5.93    0.75 
  -6  -3  13    6.38    0.59 
  -6   3  13    6.70    0.69 
   6   3 -13    6.57    0.83 
  -5  -3  13    5.99    0.53 
  -5  -3  13    5.49    0.80 
  -5  -3  13    5.85    0.71 
   5  -3 -13    5.77    0.76 
   5   3 -13    6.56    0.77 
  -5   3  13    7.29    0.66 
   4  -3 -13    5.80    0.71 
  -4  -3  13    5.86    0.47 
  -4  -3  13    6.10    0.76 
  -4  -3  13    6.02    0.66 
  -4   3  13    5.16    0.71 
   4   3 -13    7.20    0.73 
  -4   3  13    7.29    0.76 
  -3  -3  13   14.80    1.15 
  -3  -3  13   14.26    1.04 
   3  -3 -13   14.82    1.09 
  -3   3  13   12.34    1.06 
   3   3 -13   13.08    1.06 
  -3   3  13   12.25    0.94 
   2  -3 -13    8.28    0.79 
  -2  -3  13    8.61    0.75 
  -2  -3  13    8.18    0.85 
  -2   3  13    9.13    0.66 
   2   3 -13    8.69    0.79 
  -2   3  13    9.39    0.78 
   1  -3 -13    1.67    0.38 
  -1  -3  13    1.91    0.35 
  -1  -3  13    2.04    0.45 
   1   3 -13    1.39    0.24 
   1   3 -13    1.39    0.35 
  -1   3  13    1.43    0.32 
   0  -3  13    1.82    0.39 
   0  -3  13    1.49    0.32 
   0  -3 -13    1.53    0.36 
   0   3 -13    1.42    0.35 
   0   3  13    1.79    0.33 
   0   3 -13    1.80    0.30 
  -1  -3 -13   11.45    0.82 
   1  -3  13   10.81    0.99 
   1  -3  13   11.45    0.90 
  -1   3 -13   11.94    0.94 
   1   3  13   12.41    0.88 
  -2  -3 -13    7.91    0.63 
   2  -3  13    7.73    0.79 
   2  -3  13    7.91    0.71 
  -2   3 -13    6.89    0.70 
   3  -3  13    2.57    0.43 
   3  -3  13    2.21    0.47 
  -3  -3 -13    2.27    0.37 
   3   3  13    3.16    0.52 
  -3   3 -13    3.25    0.51 
  -4  -3 -13    8.89    0.79 
   4  -3  13    8.14    0.74 
  -4   3 -13    7.21    0.80 
   4   3  13    7.46    0.77 
   5  -3  13   11.45    1.06 
  -5  -3 -13   12.37    0.96 
   5  -3  13   11.14    1.03 
  -5   3 -13   11.96    1.05 
  -6  -4  13    0.32    0.28 
  -6   4  13    0.35    0.31 
  -5  -4  13    0.48    0.40 
  -5  -4  13    0.61    0.21 
  -5  -4  13    0.62    0.37 
   5  -4 -13    0.56    0.34 
   5   4 -13    0.77    0.37 
  -5   4  13    0.83    0.31 
  -4  -4  13   11.29    0.81 
   4  -4 -13   10.30    1.19 
  -4  -4  13   10.60    1.05 
  -4  -4  13   11.18    0.97 
   4   4 -13   11.51    0.99 
  -4   4  13   11.91    0.91 
  -3  -4  13   11.75    0.99 
   3  -4 -13   12.54    1.01 
  -3  -4  13   11.39    1.07 
  -3   4  13   12.54    1.01 
  -3   4  13   12.18    0.91 
   3   4 -13   12.06    1.00 
   2   4 -13    2.24    0.43 
  -2   4  13    2.44    0.34 
  -2   4  13    1.90    0.38 
  -1  -4  13   19.00    1.41 
  -1  -4  13   18.76    1.32 
   1  -4 -13   19.12    1.34 
  -1   4  13   18.06    1.21 
   1   4 -13   18.50    1.32 
   1   4 -13   18.73    1.19 
   0  -4 -13   21.20    1.37 
   0  -4  13   21.12    1.44 
   0  -4  13   21.08    1.35 
   0   4 -13   16.61    1.30 
   0   4  13   16.78    1.26 
   0   4 -13   17.48    1.23 
  -1  -4 -13    2.39    0.45 
   1  -4  13    2.48    0.48 
   1  -4  13    2.16    0.41 
   2  -4  13   35.01    2.24 
   2  -4  13   35.19    2.32 
  -2  -4 -13   35.70    2.14 
   2   4  13   34.31    2.13 
  -2   4 -13   33.50    2.24 
  -3  -4 -13    9.43    0.71 
   3  -4  13    9.60    0.95 
   3  -4  13    8.40    0.81 
  -3   4 -13    8.21    0.81 
   3   4  13    8.72    0.65 
  -4  -4 -13    3.73    0.46 
   4  -4  13    3.46    0.59 
   4  -4  13    3.74    0.63 
  -4   4 -13    5.09    0.65 
   5  -4  13    3.33    0.56 
   5  -4  13    4.56    0.69 
  -5  -4 -13    4.39    0.55 
  -5   4 -13    4.85    0.68 
  -5  -5  13    7.49    0.84 
   5  -5 -13    7.96    0.86 
  -5  -5  13    6.96    0.92 
   5   5 -13    8.16    0.84 
  -5   5  13    9.10    1.14 
  -4  -5  13    1.21    0.44 
   4  -5 -13    1.19    0.38 
  -4  -5  13    1.16    0.39 
   4   5 -13    1.11    0.54 
  -4   5  13    0.93    0.32 
  -3  -5  13   21.02    1.52 
  -3  -5  13   21.09    1.60 
   3  -5 -13   21.85    1.52 
   3   5 -13   21.91    1.51 
  -3   5  13   20.53    1.45 
  -2  -5  13   -0.12    0.31 
   2  -5 -13   -0.09    0.27 
  -2  -5  13   -0.06    0.28 
   2   5 -13    0.31    0.29 
  -2   5  13    0.42    0.24 
   2   5 -13    0.49    0.15 
   1  -5 -13    0.30    0.26 
  -1  -5  13    0.28    0.33 
  -1  -5  13    0.41    0.29 
  -1   5  13    0.37    0.23 
   1   5 -13    0.42    0.20 
  -1   5  13    0.34    0.21 
   1   5 -13    0.49    0.28 
   0  -5  13    0.80    0.36 
   0  -5 -13    0.87    0.30 
   0  -5  13    1.10    0.35 
   0   5 -13    0.82    0.30 
   0   5 -13    0.82    0.26 
   1  -5  13    3.89    0.61 
   1  -5  13    4.06    0.58 
  -1  -5 -13    4.17    0.55 
  -1   5 -13    2.93    0.47 
   1   5  13    2.93    0.36 
  -1   5 -13    3.20    0.48 
   2  -5  13    5.78    1.03 
  -2  -5 -13    4.33    0.43 
   2  -5  13    4.37    0.64 
   2   5  13    6.18    0.43 
  -2   5 -13    6.52    0.66 
   3  -5  13    2.20    0.47 
  -3  -5 -13    2.50    0.34 
   3  -5  13    2.68    0.55 
   4  -5  13   21.47    1.63 
   4  -5  13   21.17    1.55 
  -4   5 -13   21.59    1.56 
   5  -5  13    3.13    0.56 
   5  -5  13    2.95    0.63 
  -5   5 -13    4.94    0.69 
   5  -6 -13    0.46    0.36 
  -5  -6  13    0.64    0.39 
  -5  -6  13    0.39    0.43 
  -5   6  13    0.35    0.32 
   5   6 -13    0.59    0.36 
  -4  -6  13    4.79    0.73 
  -4  -6  13    4.75    0.67 
   4   6 -13    3.18    0.52 
  -4   6  13    3.06    0.50 
  -3  -6  13    4.60    0.68 
   3  -6 -13    5.75    0.92 
  -3  -6  13    5.14    0.77 
   3   6 -13    4.77    0.62 
  -3   6  13    4.66    0.59 
  -2  -6  13    5.24    0.79 
   2  -6 -13    6.34    0.72 
   2   6 -13    8.20    0.72 
  -2   6  13    8.07    0.71 
   2   6 -13    8.07    0.58 
  -1  -6  13   31.74    2.15 
   1  -6 -13   32.44    2.12 
  -1  -6  13   30.18    2.24 
   1   6 -13   31.86    2.08 
   1   6 -13   34.59    2.05 
   0  -6  13    8.69    1.21 
   0  -6  13    9.35    0.95 
   0  -6 -13    9.93    0.87 
   0   6 -13   11.88    0.87 
  -1  -6 -13    9.12    0.83 
   1  -6  13    8.97    0.93 
   1  -6  13    9.22    0.89 
  -1   6 -13    9.47    0.79 
  -1   6 -13    8.79    0.79 
   2  -6  13   15.32    1.60 
   2  -6  13   15.83    1.27 
  -2   6 -13   14.50    1.14 
  -2   6 -13   13.94    1.10 
   3  -6  13    2.21    0.51 
   3  -6  13    2.40    0.48 
  -3   6 -13    1.25    0.39 
  -3   6 -13    1.19    0.42 
   4  -6  13    0.54    0.37 
   4  -6  13    0.46    0.43 
  -4   6 -13    0.43    0.35 
  -4  -7  13    2.96    0.60 
   4  -7 -13    3.84    0.60 
  -4  -7  13    3.16    0.57 
  -4   7  13    2.62    0.49 
   4   7 -13    2.82    0.50 
  -3  -7  13    6.16    0.79 
  -3  -7  13    5.51    0.79 
   3  -7 -13    6.12    0.68 
   3   7 -13    5.77    0.66 
  -3   7  13    5.99    0.67 
   2  -7 -13    1.80    0.41 
  -2  -7  13    2.29    0.55 
  -2  -7  13    2.49    0.51 
   2   7 -13    2.46    0.42 
  -2   7  13    2.72    0.45 
   2   7 -13    2.72    0.40 
   1  -7 -13    0.39    0.28 
  -1  -7  13    0.21    0.35 
  -1  -7  13    0.28    0.36 
   1   7 -13    1.06    0.48 
  -1   7  13    1.03    0.31 
   1   7 -13    0.57    0.30 
   0  -7  13    7.03    0.77 
   0  -7 -13    5.93    0.63 
   0  -7  13    5.86    0.78 
   0   7 -13    4.97    0.59 
   0   7 -13    4.63    0.58 
   1  -7  13    5.39    0.79 
   1  -7  13    6.05    0.75 
  -1  -7 -13    5.93    0.63 
  -1   7 -13    5.81    0.61 
  -1   7 -13    4.95    0.64 
   2  -7  13    2.77    0.54 
   2  -7  13    2.50    0.55 
  -2   7 -13    2.94    0.59 
  -2   7 -13    3.29    0.50 
   3  -7  13    0.90    0.43 
   3  -7  13    1.16    0.42 
  -3   7 -13    1.84    0.45 
  -3  -8  13    5.51    0.78 
   3  -8 -13    5.07    0.61 
  -3  -8  13    4.34    0.68 
  -3   8  13    4.45    0.65 
   3   8 -13    5.05    0.90 
  -2  -8  13    1.91    0.50 
  -2  -8  13    2.22    0.54 
   2  -8 -13    2.32    0.45 
   2   8 -13    2.51    0.42 
  -1  -8  13   10.38    0.99 
   1  -8 -13   11.32    0.90 
  -1  -8  13   10.23    1.02 
  -1   8  13    8.75    0.85 
   1   8 -13    9.30    0.82 
   1   8 -13    8.74    0.79 
   0  -8 -13   16.56    1.16 
   0  -8  13   15.95    1.32 
   0  -8  13   15.53    1.28 
   0   8 -13   13.78    1.15 
   0   8 -13   15.10    1.11 
   1  -8  13    5.79    0.80 
   1  -8  13    6.44    0.78 
  -1   8 -13    4.52    0.57 
  -1   8 -13    5.07    0.80 
   2  -8  13    7.36    0.94 
  -2  -8 -13    7.05    0.75 
   2  -8  13    6.92    0.88 
  -2   8 -13    9.18    0.74 
  -2   8 -13    8.59    0.85 
   1  -9 -13    0.35    0.27 
  -1  -9  13    0.08    0.38 
  -1  -9  13    0.24    0.39 
   1   9 -13    0.42    0.29 
   1   9 -13    0.37    0.28 
  -1   9  13    0.32    0.29 
   0  -9  13    2.21    0.55 
   0  -9 -13    2.06    0.39 
   0  -9  13    2.04    0.53 
   0   9 -13    1.23    0.38 
   0   9 -13    1.88    0.34 
   1  -9  13    4.69    0.76 
  -1  -9 -13    3.63    0.55 
   1  -9  13    4.71    0.73 
  -1   9 -13    4.62    0.53 
  -1   9 -13    4.95    0.66 
  -5   0  14    1.55    0.48 
   5   0 -14    1.16    0.46 
  -5   0  14    1.39    0.28 
  -4   0  14    0.08    0.32 
  -4   0  14    0.36    0.23 
   4   0 -14    0.32    0.34 
  -4   0  14    0.44    0.18 
  -3   0  14    1.06    0.39 
   3   0 -14    1.42    0.39 
   2   0 -14   11.63    0.98 
  -2   0  14   11.92    0.78 
  -2   0  14   11.88    1.01 
  -1   0  14   11.20    0.69 
   1   0 -14   12.10    0.94 
   1   0 -14    9.58    0.65 
  -1   0  14   11.26    0.94 
   0   0  14   22.51    1.63 
   0   0 -14   24.74    1.64 
   1   0  14   16.93    1.27 
  -1   0 -14   17.87    1.30 
  -2   0 -14   15.77    1.12 
   2   0  14   14.86    1.16 
  -3   0 -14   14.80    1.09 
   3   0  14   13.95    1.11 
  -4   0 -14    3.32    0.53 
   4   0  14    3.01    0.50 
  -5   0 -14    5.00    0.65 
   5   0  14    4.44    0.62 
  -5  -1  14   19.53    1.56 
   5  -1 -14   19.90    1.52 
  -5  -1  14   19.62    1.35 
  -5   1  14   20.14    1.32 
   5   1 -14   19.88    1.51 
  -5   1  14   19.08    1.54 
  -4  -1  14    4.92    0.71 
  -4  -1  14    4.47    0.51 
   4  -1 -14    4.40    0.67 
   4   1 -14    4.42    0.69 
  -4   1  14    4.79    0.45 
  -4   1  14    4.64    0.69 
   3  -1 -14    4.98    0.70 
  -3  -1  14    5.05    0.56 
  -3  -1  14    5.60    0.74 
  -3   1  14    7.96    0.49 
  -3   1  14    7.89    0.77 
   3   1 -14    7.78    0.75 
  -2  -1  14   20.60    1.28 
  -2  -1  14   19.73    1.45 
   2  -1 -14   20.82    1.43 
  -2   1  14   17.81    1.40 
   2   1 -14   18.74    1.41 
  -1  -1  14    2.11    0.46 
   1  -1 -14    2.04    0.43 
   1   1 -14    2.64    0.22 
   1   1 -14    2.85    0.45 
  -1   1  14    3.27    0.50 
   0  -1 -14    0.60    0.31 
   0  -1  14    0.65    0.19 
   0  -1  14    0.29    0.28 
   0   1  14    0.99    0.33 
   0   1 -14    0.65    0.32 
  -1  -1 -14    2.60    0.45 
   1  -1  14    2.46    0.46 
   1  -1  14    3.01    0.33 
   1   1  14    2.63    0.41 
  -1   1 -14    2.63    0.47 
   2  -1  14    5.49    0.68 
  -2  -1 -14    5.52    0.64 
   2  -1  14    5.58    0.48 
   2   1  14    6.86    0.65 
  -2   1 -14    6.79    0.64 
  -3  -1 -14   11.18    0.86 
   3  -1  14   11.44    0.96 
   3   1  14    9.63    0.86 
  -3   1 -14   10.16    0.88 
  -4  -1 -14    0.90    0.33 
   4  -1  14    0.51    0.18 
   4  -1  14    0.86    0.39 
   4   1  14    0.56    0.30 
  -4   1 -14    0.73    0.32 
   5  -1  14   10.80    1.01 
  -5  -1 -14   11.39    0.99 
  -5   1 -14   11.89    1.02 
   5   1  14   12.55    0.97 
   5  -2 -14    2.98    0.58 
  -5  -2  14    3.48    0.54 
  -5  -2  14    3.71    0.68 
  -5   2  14    3.80    0.50 
   5   2 -14    3.64    0.62 
  -5   2  14    4.72    0.72 
  -4  -2  14   -0.04    0.25 
  -4  -2  14    0.28    0.36 
   4  -2 -14    0.32    0.33 
  -4   2  14    0.17    0.22 
  -4   2  14   -0.06    0.30 
   4   2 -14   -0.17    0.31 
  -3  -2  14    9.71    0.86 
   3  -2 -14   10.01    1.03 
  -3   2  14   12.21    0.79 
   3   2 -14   13.04    1.01 
  -3   2  14   12.12    1.00 
  -2  -2  14   10.12    0.97 
   2  -2 -14   11.82    0.96 
  -2  -2  14   10.08    0.83 
   2   2 -14   11.32    0.94 
  -2   2  14   10.66    0.92 
  -1  -2  14    9.72    0.91 
   1  -2 -14    9.68    0.87 
  -1  -2  14    9.57    0.75 
   0  -2 -14   25.08    1.70 
   0  -2  14   24.60    1.73 
   0   2 -14   24.29    1.68 
   0   2  14   24.94    1.66 
  -1  -2 -14   10.34    0.89 
   1  -2  14   10.20    0.90 
   1   2  14    9.27    0.80 
  -1   2 -14    9.05    0.86 
   2  -2  14    4.04    0.48 
   2  -2  14    4.78    0.66 
  -2  -2 -14    4.68    0.50 
  -2   2 -14    4.97    0.58 
   2   2  14    4.78    0.53 
   3  -2  14   17.39    1.35 
   3  -2  14   17.51    1.20 
  -3  -2 -14   18.08    1.23 
   3   2  14   17.14    1.23 
  -3   2 -14   17.76    1.30 
   4  -2  14    4.73    0.52 
  -4  -2 -14    4.93    0.59 
   4  -2  14    4.68    0.70 
  -4   2 -14    4.44    0.61 
   4   2  14    4.70    0.54 
   5  -2  14    0.35    0.33 
   5  -2  14    0.52    0.24 
   5   2  14    0.56    0.35 
  -5   2 -14    0.78    0.38 
   5  -3 -14   11.39    1.04 
  -5  -3  14   10.57    1.09 
  -5  -3  14   11.19    0.95 
   5   3 -14    9.62    1.00 
  -5   3  14   11.09    0.89 
  -4  -3  14    6.38    0.81 
  -4  -3  14    6.38    0.81 
   4  -3 -14    6.25    0.78 
  -4   3  14    6.77    0.77 
   4   3 -14    6.78    0.78 
  -4   3  14    7.42    0.64 
  -3  -3  14    3.42    0.55 
   3   3 -14    4.85    0.61 
  -3   3  14    4.37    0.62 
  -3   3  14    4.53    0.46 
  -2  -3  14   23.04    1.62 
   2  -3 -14   22.92    1.56 
  -2  -3  14   21.68    1.48 
   2   3 -14   21.74    1.54 
  -2   3  14   20.62    1.37 
  -2   3  14   21.92    1.53 
  -1  -3  14    0.19    0.31 
  -1  -3  14   -0.22    0.21 
   1  -3 -14    0.03    0.29 
  -1   3  14    0.52    0.27 
   1   3 -14    0.33    0.29 
   1   3 -14    0.37    0.14 
   0  -3  14   -0.04    0.30 
   0  -3  14    0.06    0.22 
   0  -3 -14   -0.06    0.27 
   0   3  14    0.13    0.22 
   0   3 -14    0.31    0.21 
   0   3 -14    0.21    0.28 
  -1  -3 -14    5.82    0.67 
   1  -3  14    5.96    0.59 
   1  -3  14    5.61    0.78 
  -1   3 -14    5.03    0.63 
   2  -3  14    6.26    0.75 
   2  -3  14    6.07    0.61 
  -2  -3 -14    5.60    0.54 
  -2   3 -14    5.80    0.63 
   2   3  14    5.39    0.55 
   3  -3  14    0.22    0.33 
   3  -3  14    0.26    0.27 
  -3  -3 -14    0.23    0.21 
  -3   3 -14    0.58    0.34 
   3   3  14    0.27    0.22 
  -4  -3 -14    2.88    0.44 
   4  -3  14    2.65    0.54 
   4  -3  14    3.06    0.48 
  -4   3 -14    1.81    0.44 
   4   3  14    1.90    0.37 
  -5  -3 -14   17.31    1.31 
   5  -3  14   15.77    1.18 
   5  -3  14   15.72    1.33 
  -5   3 -14   16.02    1.29 
   5  -4 -14    2.52    0.56 
  -5  -4  14    2.73    0.61 
  -5  -4  14    2.52    0.50 
  -5   4  14    2.59    0.43 
   5   4 -14    2.22    0.50 
   4  -4 -14    1.46    0.42 
  -4  -4  14    1.51    0.49 
  -4  -4  14    1.43    0.40 
   4   4 -14    0.83    0.38 
  -4   4  14    1.19    0.31 
  -3  -4  14    7.71    0.87 
   3  -4 -14    8.08    0.80 
  -3  -4  14    8.77    0.78 
  -3   4  14    6.83    0.76 
  -3   4  14    6.53    0.64 
  -2  -4  14    3.20    0.56 
  -2  -4  14    3.94    0.56 
   2  -4 -14    3.86    0.59 
  -2   4  14    3.90    0.54 
  -2   4  14    3.84    0.44 
   2   4 -14    4.00    0.60 
   1  -4 -14    7.16    0.78 
  -1  -4  14    6.47    0.73 
  -1  -4  14    8.07    0.99 
   1   4 -14    9.49    0.81 
  -1   4  14    9.02    0.75 
   1   4 -14    9.14    0.62 
   0  -4  14   16.42    1.37 
   0  -4 -14   17.32    1.32 
   0  -4  14   15.51    1.25 
   0   4  14   19.98    1.27 
   0   4 -14   20.55    1.33 
   0   4 -14   17.65    1.23 
  -1  -4 -14   23.43    1.66 
   1  -4  14   24.08    1.63 
   1  -4  14   23.67    1.89 
  -1   4 -14   25.63    1.59 
   1   4  14   23.10    1.54 
  -1   4 -14   22.81    1.63 
   2  -4  14    8.67    0.81 
  -2  -4 -14    8.48    0.68 
   2  -4  14    8.69    0.92 
  -2   4 -14    9.70    0.87 
   3  -4  14   14.23    1.21 
   3  -4  14   13.80    1.08 
  -3  -4 -14   13.60    0.98 
  -3   4 -14   13.68    1.12 
  -4  -4 -14    2.41    0.39 
   4  -4  14    2.07    0.43 
   4  -4  14    2.15    0.52 
  -4   4 -14    3.01    0.53 
   4  -5 -14    6.78    0.82 
  -4  -5  14    6.45    0.88 
  -4  -5  14    6.88    0.81 
  -4   5  14    8.29    0.73 
   4   5 -14    8.06    0.83 
  -3  -5  14    7.87    0.78 
   3  -5 -14    8.50    0.81 
  -3  -5  14    8.22    0.89 
  -3   5  14    5.85    0.65 
   3   5 -14    6.19    0.74 
  -2  -5  14    8.46    0.90 
  -2   5  14    7.52    0.67 
   2   5 -14    7.31    0.76 
   1  -5 -14    2.16    0.46 
  -1  -5  14    2.40    0.46 
  -1  -5  14    2.12    0.51 
   1   5 -14    2.56    0.46 
  -1   5  14    2.76    0.42 
   1   5 -14    3.01    0.36 
   0  -5 -14    1.33    0.39 
   0  -5  14    1.67    0.41 
   0  -5  14    0.96    0.40 
   0   5 -14    1.50    0.31 
   0   5  14    1.70    0.30 
   0   5 -14    1.89    0.39 
   1  -5  14    0.79    0.35 
   1  -5  14    0.50    0.39 
  -1  -5 -14    0.45    0.35 
   1   5  14    0.32    0.19 
  -1   5 -14    0.25    0.26 
  -1   5 -14    0.08    0.26 
   2  -5  14   10.76    1.02 
  -2   5 -14    9.45    0.87 
  -2   5 -14    9.42    1.01 
   3  -5  14    1.50    0.48 
   3  -5  14    1.58    0.42 
  -3   5 -14    2.63    0.47 
   4  -5  14    0.94    0.37 
   4  -5  14    0.71    0.42 
  -4   5 -14    2.05    0.47 
  -4  -6  14   -0.20    0.36 
  -4  -6  14    0.27    0.37 
   4  -6 -14    0.06    0.29 
   4   6 -14    0.18    0.29 
  -4   6  14    0.21    0.27 
   3  -6 -14    7.38    0.80 
  -3  -6  14    7.06    0.91 
  -3  -6  14    6.99    0.84 
   3   6 -14    8.65    0.81 
  -3   6  14    8.81    0.76 
  -2  -6  14    8.00    0.91 
   2  -6 -14    8.02    0.80 
  -2  -6  14    7.93    0.83 
   2   6 -14    6.79    0.85 
  -2   6  14    7.69    0.72 
  -1  -6  14    1.74    0.43 
  -1  -6  14    1.50    0.45 
   1  -6 -14    1.53    0.44 
   1   6 -14    1.52    0.39 
   0  -6  14   15.57    1.29 
   0  -6  14   17.61    1.24 
   0   6 -14   14.07    1.08 
   0   6 -14   14.71    1.15 
   1  -6  14   10.72    1.01 
   1  -6  14   10.72    0.92 
  -1  -6 -14   10.19    0.86 
  -1   6 -14    7.68    0.80 
  -1   6 -14    7.76    0.79 
   2  -6  14    5.14    0.78 
   2  -6  14    4.69    0.68 
  -2  -6 -14    4.97    0.65 
   3  -6  14   12.58    1.10 
   3  -6  14   11.62    1.18 
  -3   6 -14   12.56    1.09 
  -3   6 -14   13.66    1.11 
  -3  -7  14   -0.14    0.34 
   3  -7 -14    0.36    0.32 
  -3  -7  14    0.32    0.36 
   3   7 -14    0.62    0.33 
  -3   7  14    0.64    0.31 
  -2  -7  14   10.33    1.02 
   2  -7 -14   11.40    0.95 
  -2  -7  14   10.86    1.09 
  -2   7  14   10.92    0.92 
   2   7 -14   10.96    0.92 
   1  -7 -14    2.98    0.49 
  -1  -7  14    2.76    0.59 
  -1  -7  14    2.52    0.50 
   1   7 -14    3.53    0.58 
   0  -7 -14    1.19    0.37 
   0  -7  14    0.80    0.41 
   0  -7  14    0.95    0.44 
   0   7 -14    0.48    0.30 
   0   7 -14    0.41    0.27 
   1  -7  14    4.34    0.69 
  -1  -7 -14    4.24    0.59 
   1  -7  14    3.75    0.64 
  -1   7 -14    3.02    0.51 
  -2  -7 -14    0.48    0.36 
   2  -7  14    0.57    0.45 
   2  -7  14    0.68    0.39 
  -2   7 -14    0.83    0.36 
  -2   7 -14    1.02    0.33 
  -1  -8  14    4.06    0.63 
  -1  -8  14    3.61    0.62 
   1  -8 -14    3.88    0.57 
   1   8 -14    2.81    0.48 
   0  -8  14   16.35    1.37 
   0  -8  14   16.79    1.42 
   0  -8 -14   16.92    1.26 
   0   8 -14   18.15    1.39 
   0   8 -14   16.43    1.24 
   1  -8  14    1.00    0.44 
  -1  -8 -14    0.76    0.33 
   1  -8  14    1.26    0.51 
   5   0 -15    0.67    0.37 
  -5   0  15    0.38    0.40 
  -4   0  15   -0.04    0.33 
   4   0 -15    0.04    0.35 
  -3   0  15    0.72    0.19 
  -3   0  15    0.49    0.35 
   3   0 -15    1.01    0.39 
   2   0 -15    8.22    0.83 
  -2   0  15    8.39    0.91 
  -1   0  15    8.15    0.82 
   1   0 -15    8.59    0.87 
   0   0  15    4.46    0.62 
   0   0 -15    4.45    0.63 
   1   0  15   21.71    1.54 
   2   0  15    5.37    0.66 
  -2   0 -15    5.32    0.59 
  -3   0 -15    3.18    0.49 
   3   0  15    3.07    0.49 
   4   0  15   21.98    1.61 
  -4   0 -15   23.98    1.62 
  -5  -1  15    2.16    0.57 
   5  -1 -15    2.38    0.53 
  -5   1  15    4.41    0.68 
  -4  -1  15   11.74    1.14 
  -4  -1  15   12.11    0.92 
   4  -1 -15   12.65    1.13 
  -4   1  15   13.53    1.15 
   4   1 -15   14.31    1.16 
  -3  -1  15    6.89    0.79 
  -3  -1  15    6.15    0.56 
   3  -1 -15    6.69    0.77 
  -3   1  15    6.65    0.77 
   3   1 -15    6.09    0.76 
  -2  -1  15    1.50    0.26 
   2  -1 -15    0.96    0.39 
  -2  -1  15    1.53    0.45 
  -1  -1  15   22.01    1.63 
   1  -1 -15   22.73    1.76 
   1   1 -15   22.97    1.65 
  -1   1  15   23.52    1.62 
   0  -1 -15    3.67    0.68 
   0  -1  15    2.62    0.31 
   0  -1  15    2.72    0.50 
  -1  -1 -15    0.47    0.40 
   1  -1  15    0.71    0.35 
   1  -1  15    0.53    0.16 
   1   1  15    0.13    0.25 
  -2  -1 -15    1.35    0.33 
   2  -1  15    1.25    0.39 
   2  -1  15    1.48    0.24 
  -2   1 -15    1.24    0.34 
   2   1  15    1.63    0.37 
  -3  -1 -15    2.49    0.42 
   3  -1  15    2.20    0.52 
  -3   1 -15    2.12    0.44 
   3   1  15    2.44    0.44 
   4  -1  15    2.50    0.49 
  -4   1 -15    2.30    0.47 
   4   1  15    2.21    0.43 
  -4  -2  15    0.41    0.39 
  -4  -2  15    0.24    0.26 
   4  -2 -15    0.38    0.38 
  -4   2  15    0.28    0.35 
   4   2 -15    0.02    0.36 
  -3  -2  15    0.45    0.27 
   3  -2 -15    0.62    0.38 
  -3  -2  15    0.30    0.40 
  -3   2  15    0.52    0.33 
   3   2 -15    0.04    0.32 
   2  -2 -15    9.25    0.85 
  -2  -2  15    8.85    0.70 
  -2  -2  15    9.99    0.91 
   2   2 -15    6.60    0.80 
  -2   2  15    6.83    0.77 
  -1  -2  15    3.29    0.44 
   1  -2 -15    3.51    0.65 
   1   2 -15    4.20    0.66 
  -1   2  15    4.48    0.56 
   0  -2  15    7.50    0.66 
   0  -2 -15    7.14    1.16 
   0  -2  15    8.18    0.88 
   0   2 -15    9.59    0.92 
   0   2  15    8.92    0.79 
   0   2 -15    8.74    0.64 
  -1  -2 -15   12.90    1.09 
   1  -2  15   12.46    1.19 
   1  -2  15   12.20    0.92 
   1   2  15   14.37    1.03 
  -1   2 -15   15.14    1.53 
   2  -2  15   12.67    1.10 
  -2  -2 -15   12.96    0.96 
   2  -2  15   11.91    0.89 
   2   2  15   13.27    0.99 
  -2   2 -15   13.13    1.02 
  -3  -2 -15    9.27    0.79 
   3  -2  15    8.27    0.70 
   3  -2  15    9.87    0.95 
   3   2  15    9.85    0.79 
  -3   2 -15    9.76    0.87 
   4  -2  15    7.04    0.59 
  -4  -2 -15    7.94    0.71 
   4  -2  15    7.79    0.84 
   4   2  15    6.06    0.65 
  -4   2 -15    7.02    0.77 
  -4  -3  15   22.82    1.58 
   4  -3 -15   23.93    1.70 
  -4  -3  15   23.99    1.73 
   4   3 -15   22.36    1.66 
  -4   3  15   21.16    1.67 
  -3  -3  15    3.56    0.62 
  -3  -3  15    4.34    0.56 
   3  -3 -15    3.68    0.64 
   3   3 -15    4.76    0.66 
  -3   3  15    5.54    0.67 
  -2  -3  15   12.42    1.11 
   2  -3 -15   12.68    1.06 
  -2  -3  15   12.39    0.95 
  -2   3  15   11.10    1.00 
   2   3 -15   12.12    1.05 
   1  -3 -15    7.90    0.80 
  -1  -3  15    7.41    0.83 
  -1  -3  15    7.50    0.67 
  -1   3  15    6.23    0.69 
   1   3 -15    6.23    0.99 
   0  -3 -15    1.46    0.42 
   0  -3  15    1.48    0.43 
   0  -3  15    1.88    0.34 
   0   3 -15    1.51    0.27 
   0   3  15    1.74    0.35 
  -1  -3 -15    1.29    0.42 
   1  -3  15    0.94    0.40 
   1  -3  15    0.97    0.30 
  -1   3 -15    1.65    0.42 
   1   3  15    1.74    0.34 
   2  -3  15    2.34    0.51 
   2  -3  15    2.09    0.37 
  -2  -3 -15    2.40    0.36 
   2   3  15    1.94    0.36 
   3  -3  15    7.51    0.71 
  -3  -3 -15    8.01    0.70 
   3  -3  15    9.19    0.93 
   3   3  15    7.71    0.68 
  -3   3 -15    8.21    0.81 
   4  -3  15    3.55    0.63 
   4  -3  15    3.09    0.48 
  -4  -3 -15    3.18    0.49 
  -4   3 -15    3.37    0.55 
  -4  -4  15    0.91    0.44 
  -4  -4  15    1.13    0.37 
   4  -4 -15    0.93    0.41 
   4   4 -15    1.39    0.43 
  -3  -4  15    0.42    0.32 
  -3  -4  15    0.55    0.39 
   3  -4 -15    0.72    0.36 
   3   4 -15    0.06    0.32 
  -2  -4  15    6.78    0.91 
   2  -4 -15    8.06    0.88 
   2   4 -15   10.57    0.91 
  -2   4  15   10.47    0.85 
   1  -4 -15    6.13    0.74 
  -1  -4  15    6.33    0.81 
  -1  -4  15    6.48    0.67 
   1   4 -15    6.25    0.72 
  -1   4  15    6.21    0.64 
   0  -4  15    4.85    0.70 
   0   4 -15    3.48    0.57 
   0   4  15    2.95    0.45 
   0   4 -15    2.44    0.38 
   1  -4  15   19.66    1.37 
  -1  -4 -15   21.48    1.48 
   1  -4  15   18.43    1.50 
   1   4  15   18.16    1.31 
  -1   4 -15   19.79    1.34 
  -1   4 -15   19.61    1.42 
   2  -4  15    5.41    0.74 
   2  -4  15    6.28    0.82 
  -2  -4 -15    5.51    0.74 
   2   4  15    5.07    0.70 
  -2   4 -15    7.39    0.75 
   3  -4  15    8.67    0.92 
   3  -4  15    8.23    0.75 
  -3   4 -15    5.64    0.76 
  -3  -5  15    1.92    0.55 
   3  -5 -15    1.83    0.46 
  -3  -5  15    2.39    0.48 
  -3   5  15    3.49    0.52 
   3   5 -15    3.25    0.55 
  -2  -5  15    0.86    0.37 
  -2  -5  15    0.55    0.40 
   2  -5 -15    1.01    0.38 
   2   5 -15    1.37    0.41 
  -1  -5  15   11.87    1.03 
  -1  -5  15   13.72    1.17 
   1  -5 -15   12.93    1.07 
   1   5 -15   11.98    1.03 
   0  -5  15    1.10    0.46 
   0  -5 -15    1.89    0.47 
   0   5  15    2.62    0.40 
   0   5 -15    3.07    0.50 
   1  -5  15    0.27    0.31 
  -1  -5 -15    0.27    0.33 
   1  -5  15    0.05    0.35 
  -1   5 -15    0.33    0.28 
   1   5  15    0.22    0.25 
  -1   5 -15    0.39    0.32 
  -2  -5 -15    6.17    0.73 
   2  -5  15    6.07    0.71 
   2  -5  15    5.46    0.83 
  -2   5 -15    4.67    0.68 
  -2   5 -15    5.99    0.96 
   3  -5  15    0.65    0.44 
   3  -5  15    1.11    0.36 
  -3   5 -15    1.29    0.40 
  -2  -6  15    1.98    0.48 
  -2  -6  15    2.35    0.54 
   2  -6 -15    2.82    0.50 
  -2   6  15    2.89    0.44 
   2   6 -15    2.90    0.49 
   1  -6 -15    5.14    0.68 
  -1  -6  15    5.10    0.80 
  -1  -6  15    6.30    0.72 
   1   6 -15    4.90    0.66 
   0  -6  15    4.95    0.65 
   0  -6  15    4.18    0.66 
   0  -6 -15    4.31    0.62 
   0   6 -15    3.64    0.49 
   0   6 -15    3.68    0.59 
   1  -6  15   10.08    1.09 
   1  -6  15   10.41    0.99 
  -1  -6 -15   11.09    0.99 
  -1   6 -15   10.42    0.90 
  -1   6 -15   13.29    0.98 
  -2  -6 -15    5.02    0.68 
   2  -6  15    5.10    0.71 
   2  -6  15    4.38    0.73 
  -2   6 -15    4.17    0.63 
  -2   6 -15    4.23    0.61 
   1  -7 -15   11.92    1.00 
  -1  -7  15   12.49    1.06 
  -1  -7  15   11.45    1.13 
   1   7 -15    8.91    0.90 
   0  -7 -15    2.26    0.46 
   0  -7  15    1.90    0.48 
   0  -7  15    1.35    0.51 
   0   7 -15    3.12    0.47 
   0   7 -15    2.30    0.42 
  -4   0  16    0.46    0.39 
   4   0 -16    0.27    0.39 
  -3   0  16    0.86    0.41 
   3   0 -16    1.14    0.43 
  -2   0  16    0.11    0.31 
   2   0 -16   -0.08    0.32 
  -1   0  16   15.99    1.27 
   1   0 -16   16.29    1.29 
   0   0  16    0.21    0.30 
   0   0 -16    0.59    0.34 
   1   0  16    6.46    0.75 
  -1   0 -16    7.04    0.80 
   2   0  16    6.66    0.74 
  -2   0 -16    6.93    0.81 
   3   0  16   10.58    0.96 
  -3   0 -16   11.47    0.95 
  -4  -1  16    2.29    0.55 
   4  -1 -16    2.60    0.55 
   4   1 -16    1.84    0.50 
  -4   1  16    1.39    0.47 
   3  -1 -16   11.74    1.06 
  -3  -1  16   12.85    0.96 
  -3  -1  16   11.34    1.07 
   3   1 -16   11.44    1.05 
  -3   1  16   10.46    1.03 
  -2  -1  16    9.77    0.95 
  -2  -1  16    7.50    0.72 
   2  -1 -16    9.53    0.92 
   2   1 -16    9.20    0.91 
  -2   1  16    8.82    0.87 
  -1   1  16    5.48    0.68 
   1   1 -16    5.98    0.75 
   0  -1  16   11.35    1.01 
   0  -1 -16   11.13    1.01 
   0   1  16   11.21    1.07 
   0   1 -16   10.86    1.00 
   1  -1  16    1.08    0.40 
  -1  -1 -16    1.34    0.42 
  -1   1 -16    2.06    0.47 
   1   1  16    1.93    0.41 
   2  -1  16    0.18    0.32 
  -2  -1 -16    0.21    0.36 
  -2   1 -16    0.49    0.38 
   2   1  16    0.38    0.38 
   3  -1  16    0.78    0.37 
  -3   1 -16    0.87    0.35 
   3   1  16    0.69    0.31 
  -3  -2  16    0.25    0.24 
  -3  -2  16    0.29    0.39 
   3  -2 -16    0.19    0.35 
  -3   2  16    0.20    0.34 
   3   2 -16    0.25    0.36 
   2  -2 -16    0.50    0.37 
  -2  -2  16    0.48    0.37 
  -2  -2  16    0.22    0.22 
   2   2 -16   -0.03    0.34 
  -2   2  16   -0.15    0.28 
  -1  -2  16    3.03    0.40 
   1  -2 -16    2.78    0.55 
  -1  -2  16    2.88    0.54 
   1   2 -16    3.99    0.64 
  -1   2  16    4.28    0.78 
   0  -2  16    4.52    0.69 
   0  -2  16    4.22    0.45 
   0  -2 -16    4.89    0.69 
   0   2  16    4.85    0.61 
   0   2 -16    5.89    0.70 
  -1  -2 -16    4.26    0.68 
   1  -2  16    3.82    0.62 
   1  -2  16    4.08    0.41 
  -1   2 -16    4.04    0.65 
   1   2  16    3.97    0.56 
   2  -2  16   20.28    1.51 
  -2  -2 -16   20.84    1.52 
   2   2  16   19.64    1.39 
  -2   2 -16   17.96    1.47 
  -3  -2 -16    3.33    0.48 
   3  -2  16    2.81    0.53 
  -3   2 -16    2.62    0.47 
   3   2  16    2.43    0.41 
   3  -3 -16   18.54    1.39 
  -3  -3  16   16.88    1.43 
  -3  -3  16   16.76    1.23 
   3   3 -16   17.08    1.36 
  -3   3  16   17.80    1.36 
  -2  -3  16    1.14    0.31 
   2  -3 -16    0.77    0.39 
  -2  -3  16    0.96    0.45 
   2   3 -16    0.70    0.38 
  -2   3  16    0.83    0.34 
  -1  -3  16    1.40    0.31 
   1  -3 -16    1.20    0.41 
  -1  -3  16    1.01    0.43 
   0  -3  16   10.03    0.99 
   0  -3 -16    9.63    0.95 
   0  -3  16    9.71    0.79 
   0   3  16    9.48    0.83 
   0   3 -16    9.77    0.93 
   1  -3  16    0.31    0.23 
  -1  -3 -16    0.27    0.34 
   1  -3  16    0.38    0.37 
   1   3  16    0.51    0.26 
  -1   3 -16    0.36    0.34 
  -1   3 -16    0.24    0.27 
  -2  -3 -16    0.02    0.35 
   2  -3  16   -0.02    0.21 
   2  -3  16   -0.08    0.33 
  -2   3 -16    0.15    0.32 
   2   3  16   -0.09    0.20 
   2  -4 -16    0.79    0.41 
  -2  -4  16    0.91    0.41 
  -2  -4  16    1.00    0.34 
   2   4 -16    0.84    0.39 
  -2   4  16    0.65    0.33 
  -1  -4  16    2.78    0.60 
  -1  -4  16    2.18    0.41 
   1  -4 -16    1.98    0.43 
  -1   4  16    1.63    0.43 
   1   4 -16    1.78    0.45 
   0  -4  16    7.47    0.90 
   0  -4  16    7.00    0.70 
   0  -4 -16    7.94    0.83 
   0   4  16    7.41    0.69 
   0   4 -16    7.19    0.80 
  -1  -4 -16    4.72    0.69 
   1  -4  16    4.99    0.78 
   1  -4  16    4.33    0.56 
  -1   4 -16    4.36    0.65 
  -1   4 -16    4.51    0.55 
   1   4  16    5.30    0.53 
  -2  -4 -16   10.48    0.98 
   2  -4  16    9.51    0.83 
   2  -4  16    9.31    1.03 
  -2   4 -16    9.52    0.89 
  -2   4 -16   11.19    0.97 
  -1  -5  16    3.59    0.61 
   1  -5 -16    4.40    0.67 
  -1  -5  16    4.53    0.62 
   1   5 -16    4.87    0.66 
   0  -5 -16   12.07    1.04 
   0  -5  16   12.11    1.14 
   0  -5  16   11.74    0.97 
   0   5 -16   11.18    1.01 
   0   5  16    9.96    0.90 
   1  -5  16    0.40    0.42 
  -1  -5 -16    0.52    0.38 
   1  -5  16    0.49    0.30 
  -1   5 -16    0.32    0.33 
  -1   5 -16    0.22    0.26 
   2   0 -17    0.00    0.37 
  -2   0  17    0.27    0.35 
   1   0 -17    1.74    0.47 
  -1   0  17    1.85    0.48 
   0   0 -17    1.37    0.46 
   0   0  17    2.02    0.47 
   1   0  17    1.84    0.43 
  -1   0 -17    1.58    0.45 
  -2  -1  17   13.16    1.22 
   2  -1 -17   14.68    1.24 
  -2   1  17   14.68    1.20 
   2   1 -17   14.44    1.24 
  -1  -1  17    4.14    0.63 
   1  -1 -17    4.13    0.69 
  -1   1  17    2.13    0.48 
   1   1 -17    2.50    0.52 
   0  -1 -17    5.36    0.77 
   0  -1  17    4.66    0.73 
   0   1 -17    6.97    0.81 
   0   1  17    7.00    0.74 
  -1  -1 -17    4.07    0.70 
   1  -1  17    4.16    0.64 
  -1   1 -17    4.06    0.67 
   1   1  17    3.98    0.60 
   2  -2 -17    0.30    0.41 
  -2  -2  17    0.28    0.37 
   2   2 -17    0.05    0.37 
  -2   2  17    0.34    0.34 
  -1  -2  17    0.59    0.41 
   1  -2 -17    1.36    0.45 
  -1   2  17    1.92    0.43 
   1   2 -17    1.42    0.42 
   0  -2  17    8.54    0.93 
   0  -2 -17    9.08    0.94 
   0   2  17    9.11    0.84 
   0   2 -17    9.10    0.93 
   1  -2  17    2.42    0.54 
  -1  -2 -17    2.91    0.56 
  -1   2 -17    3.68    0.61 
   1   2  17    3.94    0.57 
  -1   3  17    7.02    0.74 
   0  -3 -17    1.87    0.50 
   0  -3  17    1.59    0.51 
   0  -3  17    2.49    0.38 
   0   3  17    1.06    0.36 
   0   3 -17    1.33    0.47 
   0   0   0    0.00    0.00 
;
_shelx_hkl_checksum              6669
loop_
_space_group_symop_operation_xyz
'x, y, z'
'-x, y+1/2, -z'
loop_
_atom_site_label
_atom_site_type_symbol
_atom_site_fract_x
_atom_site_fract_y
_atom_site_fract_z
_atom_site_U_iso_or_equiv
_atom_site_adp_type
_atom_site_occupancy
_atom_site_site_symmetry_order
_atom_site_calc_flag
_atom_site_refinement_flags_posn
_atom_site_refinement_flags_adp
Br1 Br -0.04099(2) 0.74510(2) 0.53862(2) 0.01462(3) Uani 1 1 d . .
C1 C 0.1597(3) 0.59525(15) 0.62338(12) 0.0109(2) Uani 1 1 d . .
C2 C 0.0943(3) 0.53268(16) 0.74002(12) 0.0113(2) Uani 1 1 d . .
H2 H -0.047969 0.564675 0.776345 0.014 Uiso 1 1 calc R U
C3 C 0.2405(3) 0.42264(16) 0.80252(12) 0.0121(2) Uani 1 1 d . .
H3 H 0.199134 0.380600 0.882961 0.014 Uiso 1 1 calc R U
C4 C 0.4479(3) 0.37324(16) 0.74813(12) 0.0111(2) Uani 1 1 d . .
C7 C 0.4757(3) 0.07631(16) 0.87779(13) 0.0124(2) Uani 1 1 d . .
H7 H 0.586463 -0.006029 0.914001 0.015 Uiso 1 1 calc R U
C8 C 0.3062(3) 0.11556(15) 0.98291(13) 0.0126(2) Uani 1 1 d . .
O1 O 0.1071(2) 0.03229(14) 0.96277(10) 0.01564(19) Uani 1 1 d . .
O2 O 0.3351(2) 0.20433(13) 1.07222(10) 0.0170(2) Uani 1 1 d . .
C9 C 0.1301(3) -0.07922(19) 0.85613(14) 0.0176(3) Uani 1 1 d . .
H9A H -0.018170 -0.086687 0.805006 0.021 Uiso 1 1 calc R U
H9B H 0.173365 -0.187694 0.887579 0.021 Uiso 1 1 calc R U
C10 C 0.3228(3) -0.00912(18) 0.77669(13) 0.0153(2) Uani 1 1 d . .
H10A H 0.259103 0.067274 0.711931 0.018 Uiso 1 1 calc R U
H10B H 0.410451 -0.094577 0.733452 0.018 Uiso 1 1 calc R U
S1 S 0.65169(5) 0.24240(6) 0.82634(3) 0.01380(5) Uani 1 1 d . .
C5 C 0.5095(3) 0.43767(17) 0.63092(12) 0.0128(2) Uani 1 1 d . .
H5 H 0.650010 0.404274 0.593350 0.015 Uiso 1 1 calc R U
C6 C 0.3667(3) 0.55054(17) 0.56864(13) 0.0132(2) Uani 1 1 d . .
H6 H 0.410449 0.596172 0.489855 0.016 Uiso 1 1 calc R U
loop_
_atom_site_aniso_label
_atom_site_aniso_U_11
_atom_site_aniso_U_22
_atom_site_aniso_U_33
_atom_site_aniso_U_23
_atom_site_aniso_U_13
_atom_site_aniso_U_12
Br1 0.01369(6) 0.01471(5) 0.01536(5) 0.00532(6) -0.00098(4) 0.00098(7)
C1 0.0115(6) 0.0094(5) 0.0117(5) 0.0006(4) -0.0007(4) -0.0009(4)
C2 0.0114(6) 0.0112(5) 0.0115(5) 0.0007(4) 0.0014(4) -0.0002(4)
C3 0.0126(6) 0.0121(5) 0.0116(5) 0.0014(4) 0.0015(4) 0.0006(4)
C4 0.0112(6) 0.0094(5) 0.0127(5) 0.0006(4) 0.0003(4) -0.0007(4)
C7 0.0127(6) 0.0108(5) 0.0139(5) 0.0009(4) 0.0021(4) 0.0007(4)
C8 0.0142(6) 0.0101(5) 0.0136(5) 0.0028(4) 0.0014(4) 0.0017(4)
O1 0.0148(5) 0.0153(5) 0.0171(4) -0.0011(3) 0.0042(4) -0.0019(4)
O2 0.0225(6) 0.0150(5) 0.0136(4) -0.0016(3) 0.0021(4) 0.0003(4)
C9 0.0183(7) 0.0155(6) 0.0193(6) -0.0024(5) 0.0021(5) -0.0045(5)
C10 0.0185(7) 0.0141(6) 0.0136(5) -0.0014(4) 0.0022(5) -0.0025(5)
S1 0.00969(12) 0.01297(11) 0.01871(11) 0.00310(17) -0.00010(9) 0.00010(18)
C5 0.0114(6) 0.0128(5) 0.0143(5) 0.0004(4) 0.0027(4) -0.0004(4)
C6 0.0142(6) 0.0136(5) 0.0121(5) 0.0014(4) 0.0022(4) -0.0009(4)
loop_
_atom_type_symbol
_atom_type_description
_atom_type_scat_dispersion_real
_atom_type_scat_dispersion_imag
_atom_type_scat_source
C C 0.0033 0.0016 'International Tables Vol C Tables 4.2.6.8 and 6.1.1.4'
H H 0.0000 0.0000 'International Tables Vol C Tables 4.2.6.8 and 6.1.1.4'
O O 0.0106 0.0060 'International Tables Vol C Tables 4.2.6.8 and 6.1.1.4'
S S 0.1246 0.1234 'International Tables Vol C Tables 4.2.6.8 and 6.1.1.4'
Br Br -0.2901 2.4595 'International Tables Vol C Tables 4.2.6.8 and 6.1.1.4'
loop_
_geom_angle_atom_site_label_1
_geom_angle_atom_site_label_2
_geom_angle_atom_site_label_3
_geom_angle
C6 C1 C2 121.55(13)
C6 C1 Br1 119.79(10)
C2 C1 Br1 118.67(10)
C3 C2 C1 118.93(13)
C3 C2 H2 120.5
C1 C2 H2 120.5
C2 C3 C4 120.62(12)
C2 C3 H3 119.7
C4 C3 H3 119.7
C5 C4 C3 119.36(12)
C5 C4 S1 117.27(11)
C3 C4 S1 123.19(10)
C10 C7 C8 103.61(12)
C10 C7 S1 117.60(9)
C8 C7 S1 115.28(9)
C10 C7 H7 106.5
C8 C7 H7 106.5
S1 C7 H7 106.5
O2 C8 O1 122.22(13)
O2 C8 C7 128.28(15)
O1 C8 C7 109.50(12)
C8 O1 C9 110.37(11)
O1 C9 C10 105.12(12)
O1 C9 H9A 110.7
C10 C9 H9A 110.7
O1 C9 H9B 110.7
C10 C9 H9B 110.7
H9A C9 H9B 108.8
C9 C10 C7 102.09(11)
C9 C10 H10A 111.4
C7 C10 H10A 111.4
C9 C10 H10B 111.4
C7 C10 H10B 111.4
H10A C10 H10B 109.2
C4 S1 C7 104.02(7)
C6 C5 C4 120.52(13)
C6 C5 H5 119.7
C4 C5 H5 119.7
C1 C6 C5 118.99(12)
C1 C6 H6 120.5
C5 C6 H6 120.5
loop_
_geom_bond_atom_site_label_1
_geom_bond_atom_site_label_2
_geom_bond_distance
Br1 C1 1.8960(14)
C1 C6 1.387(2)
C1 C2 1.3914(18)
C2 C3 1.390(2)
C2 H2 0.9500
C3 C4 1.398(2)
C3 H3 0.9500
C4 C5 1.3965(18)
C4 S1 1.7759(14)
C7 C10 1.526(2)
C7 C8 1.5290(19)
C7 S1 1.8053(14)
C7 H7 1.0000
C8 O2 1.1990(17)
C8 O1 1.3454(19)
O1 C9 1.4619(18)
C9 C10 1.522(2)
C9 H9A 0.9900
C9 H9B 0.9900
C10 H10A 0.9900
C10 H10B 0.9900
C5 C6 1.393(2)
C5 H5 0.9500
C6 H6 0.9500
loop_
_geom_torsion_atom_site_label_1
_geom_torsion_atom_site_label_2
_geom_torsion_atom_site_label_3
_geom_torsion_atom_site_label_4
_geom_torsion
C6 C1 C2 C3 -0.1(2)
Br1 C1 C2 C3 179.91(10)
C1 C2 C3 C4 -1.2(2)
C2 C3 C4 C5 1.1(2)
C2 C3 C4 S1 176.16(11)
C10 C7 C8 O2 -166.83(14)
S1 C7 C8 O2 -36.93(19)
C10 C7 C8 O1 13.60(15)
S1 C7 C8 O1 143.51(10)
O2 C8 O1 C9 -173.56(13)
C7 C8 O1 C9 6.04(15)
C8 O1 C9 C10 -23.45(16)
O1 C9 C10 C7 30.25(15)
C8 C7 C10 C9 -26.25(14)
S1 C7 C10 C9 -154.73(11)
C5 C4 S1 C7 -134.75(11)
C3 C4 S1 C7 50.10(13)
C10 C7 S1 C4 54.59(12)
C8 C7 S1 C4 -68.13(12)
C3 C4 C5 C6 0.2(2)
S1 C4 C5 C6 -175.13(11)
C2 C1 C6 C5 1.4(2)
Br1 C1 C6 C5 -178.62(11)
C4 C5 C6 C1 -1.4(2)
