#------------------------------------------------------------------------------
#$Date: 2020-02-04 05:13:16 +0200 (Tue, 04 Feb 2020) $
#$Revision: 247531 $
#$URL: file:///home/coder/svn-repositories/cod/cif/4/13/39/4133979.cif $
#------------------------------------------------------------------------------
#
# This file is available in the Crystallography Open Database (COD),
# http://www.crystallography.net/
#
# All data on this site have been placed in the public domain by the
# contributors.
#
data_4133979
loop_
_publ_author_name
'Bear, Joseph C.'
'Cockcroft, Jeremy K.'
'Williams, Jeffrey H.'
_publ_section_title
;
 Influence of Solvent in Crystal Engineering: A Significant Change to the
 Order-Disorder Transition in Ferrocene.
;
_journal_issue                   4
_journal_name_full               'Journal of the American Chemical Society'
_journal_page_first              1731
_journal_page_last               1734
_journal_paper_doi               10.1021/jacs.9b11895
_journal_volume                  142
_journal_year                    2020
_chemical_formula_moiety         '0.5(C20 H20 Fe2), C6 F6'
_chemical_formula_sum            'C16 H10 F6 Fe'
_chemical_formula_weight         372.09
_chemical_name_systematic        Ferrocene:hexafluorobenzene
_space_group_crystal_system      triclinic
_space_group_IT_number           2
_space_group_name_Hall           '-B 1'
_space_group_name_H-M_alt        'B -1'
_atom_sites_solution_hydrogens   geom
_atom_sites_solution_primary     iterative
_audit_creation_date             2019-08-29
_audit_creation_method
;
Olex2 1.2
(compiled 2018.05.29 svn.r3508 for OlexSys, GUI svn.r5506)
;
_cell_angle_alpha                76.588(6)
_cell_angle_beta                 77.763(6)
_cell_angle_gamma                83.749(6)
_cell_formula_units_Z            2
_cell_length_a                   7.1683(5)
_cell_length_b                   9.2643(6)
_cell_length_c                   11.9160(8)
_cell_measurement_reflns_used    3064
_cell_measurement_temperature    304
_cell_measurement_theta_max      26.3630
_cell_measurement_theta_min      5.4800
_cell_volume                     750.78(9)
_computing_cell_refinement       'CrysAlisPro 1.171.39.46 (Rigaku OD, 2018)'
_computing_data_collection       'CrysAlisPro 1.171.39.46 (Rigaku OD, 2018)'
_computing_data_reduction        'CrysAlisPro 1.171.39.46 (Rigaku OD, 2018)'
_computing_molecular_graphics    'Olex2 (Dolomanov et al., 2009)'
_computing_publication_material  'Olex2 (Dolomanov et al., 2009)'
_computing_structure_refinement  'ShelXL (Sheldrick, 2015)'
_computing_structure_solution    'ShelXT (Sheldrick, 2015)'
_diffrn_ambient_environment      C6F6
_diffrn_ambient_temperature      304
_diffrn_detector                 'CCD plate'
_diffrn_detector_area_resol_mean 5.2031
_diffrn_detector_type            Atlas
_diffrn_measured_fraction_theta_full 0.998
_diffrn_measured_fraction_theta_max 0.998
_diffrn_measurement_details
;
List of Runs (angles in degrees, time in seconds):

  # Type    Start    End  Width  t~exp~   \w     \q     \k     \f   Frames
--------------------------------------------------------------------------
  1  \w    -80.00 -14.00   1.00    2.00    --   -9.99 -57.00  60.00   66
  2  \w    -18.00  78.00   1.00    2.00    --   11.17  77.00-180.00   96
  3  \w     -3.00  84.00   1.00    2.00    --   11.17  57.00 -30.00   87
  4  \w      3.00  68.00   1.00    2.00    --   11.17-127.00 178.50   65
  5  \w    -53.00  44.00   1.00    2.00    --   11.17 -77.00  60.00   97
  6  \w    -20.00  52.00   1.00    2.00    --   11.17 -99.00 -30.00   72
  7  \w    -63.00  44.00   1.00    2.00    --   12.00 -73.00-155.54  107
;
_diffrn_measurement_device       'four-circle diffractometer'
_diffrn_measurement_device_type  'SuperNova, Dual, Cu at home/near, Atlas'
_diffrn_measurement_method       '\w scans'
_diffrn_orient_matrix_type
'CrysAlisPro convention (1999,Acta A55,543-557)'
_diffrn_orient_matrix_UB_11      0.0215730000
_diffrn_orient_matrix_UB_12      -0.0755177000
_diffrn_orient_matrix_UB_13      0.0254162000
_diffrn_orient_matrix_UB_21      -0.0296858000
_diffrn_orient_matrix_UB_22      0.0153812000
_diffrn_orient_matrix_UB_23      0.0569477000
_diffrn_orient_matrix_UB_31      -0.0945807000
_diffrn_orient_matrix_UB_32      -0.0167386000
_diffrn_orient_matrix_UB_33      0.0008405000
_diffrn_radiation_monochromator  mirror
_diffrn_radiation_probe          x-ray
_diffrn_radiation_type           MoK\a
_diffrn_radiation_wavelength     0.71073
_diffrn_reflns_av_R_equivalents  0.0323
_diffrn_reflns_av_unetI/netI     0.0251
_diffrn_reflns_Laue_measured_fraction_full 0.998
_diffrn_reflns_Laue_measured_fraction_max 0.998
_diffrn_reflns_limit_h_max       8
_diffrn_reflns_limit_h_min       -8
_diffrn_reflns_limit_k_max       10
_diffrn_reflns_limit_k_min       -10
_diffrn_reflns_limit_l_max       14
_diffrn_reflns_limit_l_min       -14
_diffrn_reflns_number            5120
_diffrn_reflns_point_group_measured_fraction_full 0.998
_diffrn_reflns_point_group_measured_fraction_max 0.998
_diffrn_reflns_theta_full        24.712
_diffrn_reflns_theta_max         24.712
_diffrn_reflns_theta_min         3.499
_diffrn_source                   'micro-focus sealed X-ray tube'
_diffrn_source_type              'SuperNova (Mo) X-ray Source'
_exptl_absorpt_coefficient_mu    1.063
_exptl_absorpt_correction_T_max  1.000
_exptl_absorpt_correction_T_min  0.262
_exptl_absorpt_correction_type   gaussian
_exptl_absorpt_process_details
;
CrysAlisPro 1.171.39.46 (Rigaku Oxford Diffraction, 2018)
Numerical absorption correction based on gaussian integration over
			a multifaceted crystal model
Empirical absorption correction using spherical harmonics,
 implemented in SCALE3 ABSPACK scaling algorithm.
;
_exptl_crystal_colour            'clear dark orange'
_exptl_crystal_colour_lustre     clear
_exptl_crystal_colour_modifier   dark
_exptl_crystal_colour_primary    orange
_exptl_crystal_density_diffrn    1.646
_exptl_crystal_description       block
_exptl_crystal_F_000             372
_exptl_crystal_preparation       'Ferrocene dissolved in hot C6F6'
_exptl_crystal_recrystallization_method
'Crystals grown using C6F6 as solvent in an NMR tube stood in hot water'
_exptl_crystal_size_max          0.722
_exptl_crystal_size_mid          0.389
_exptl_crystal_size_min          0.2
_refine_diff_density_max         0.316
_refine_diff_density_min         -0.163
_refine_diff_density_rms         0.055
_refine_ls_extinction_coef       0.040(4)
_refine_ls_extinction_expression Fc^*^=kFc[1+0.001xFc^2^\l^3^/sin(2\q)]^-1/4^
_refine_ls_extinction_method     'SHELXL-2014/7 (Sheldrick 2014'
_refine_ls_goodness_of_fit_ref   1.070
_refine_ls_hydrogen_treatment    constr
_refine_ls_matrix_type           full
_refine_ls_number_parameters     152
_refine_ls_number_reflns         1276
_refine_ls_number_restraints     190
_refine_ls_restrained_S_all      1.314
_refine_ls_R_factor_all          0.0415
_refine_ls_R_factor_gt           0.0407
_refine_ls_shift/su_max          0.001
_refine_ls_shift/su_mean         0.000
_refine_ls_structure_factor_coef Fsqd
_refine_ls_weighting_details
'w=1/[\s^2^(Fo^2^)+(0.0681P)^2^+0.4373P] where P=(Fo^2^+2Fc^2^)/3'
_refine_ls_weighting_scheme      calc
_refine_ls_wR_factor_gt          0.1135
_refine_ls_wR_factor_ref         0.1146
_reflns_Friedel_coverage         0.000
_reflns_number_gt                1249
_reflns_number_total             1276
_reflns_threshold_expression     'I > 2\s(I)'
_cod_data_source_file            ja9b11895_si_002.cif
_cod_data_source_block           exp_1342
_cod_depositor_comments
'Adding full bibliography for 4133967--4133980.cif.'
_cod_original_sg_number          -1
_cod_original_sg_symbol_H-M      '-B 1'
_cod_database_code               4133979
_shelx_shelxl_version_number     2014/7
_chemical_oxdiff_formula         'Fe C16 H10 F6'
_chemical_oxdiff_usercomment     'In capillary'
_shelx_space_group_comment
;
The symmetry employed for this shelxl refinement is uniquely defined
by the following loop, which should always be used as a source of
symmetry information in preference to the above space-group names.
They are only intended as comments.
;
_shelx_estimated_absorpt_t_max   0.816
_shelx_estimated_absorpt_t_min   0.514
_reflns_odcompleteness_completeness 49.79
_reflns_odcompleteness_iscentric 1
_reflns_odcompleteness_theta     26.32
_olex2_refinement_description
;
1. Fixed Uiso
 At 1.2 times of:
  All C(H) groups
2. Restrained distances
 C7-C9A \\sim C7-C10A \\sim C8-C10A \\sim C8-C11A \\sim C9-C11A \\sim C9-C7A
\\sim C10-C7A \\sim C10-C8A ~
 C11-C8A \\sim C11-C9A
 with sigma of 0.02
 C7-C7A \\sim C8-C8A \\sim C9-C9A \\sim C10-C10A \\sim C11-C11A
 with sigma of 0.02
 Fe1-C7 \\sim Fe1-C7A \\sim Fe1-C8 \\sim Fe1-C8A \\sim Fe1-C9 \\sim Fe1-C9A
\\sim Fe1-C10 \\sim Fe1-C10A ~
 Fe1-C11 \\sim Fe1-C11A
 with sigma of 0.02
3. Rigid bond restraints
 Fe1, C7, Fe1, C8, Fe1, C9, Fe1, C10, Fe1, C11, Fe1, C7A, Fe1, C8A, Fe1, C9A,
 Fe1, C10A, Fe1, C11A
 with sigma for 1-2 distances of 0.01 and sigma for 1-3 distances of 0.01
4. Rigid body (RIGU) restrains
 C7, C9A, C7, C10A, C8, C10A, C8, C11A, C9, C11A, C9, C7A, C10, C7A, C10, C8A,
 C11, C8A, C11, C9A
 with sigma for 1-2 distances of 0.004 and sigma for 1-3 distances of 0.004
5. Others
 Fixed Sof: C7(0.5) H7(0.5) C8(0.5) H8(0.5) C9(0.5) H9(0.5) C10(0.5) H10(0.5)
 C11(0.5) H11(0.5) C7A(0.5) H7A(0.5) C8A(0.5) H8A(0.5) C9A(0.5) H9A(0.5)
 C10A(0.5) H10A(0.5) C11A(0.5) H11A(0.5)
6.a Aromatic/amide H refined with riding coordinates:
 C7(H7), C8(H8), C9(H9), C10(H10), C11(H11), C7A(H7A), C8A(H8A), C9A(H9A),
 C10A(H10A), C11A(H11A)
;
_shelx_res_file
;
    exp_1342.res created by SHELXL-2014/7

TITL exp_1342 in B-1
REM B-1 (#2 in standard setting)
CELL 0.71073 7.168323 9.264304 11.915979 76.5883 77.7626 83.7493
ZERR 2 0.000504 0.0006 0.000821 0.0057 0.0059 0.0056
LATT 6
SFAC C H F Fe
UNIT 32 20 12 2
SADI C7 C9A C7 C10A C8 C10A C8 C11A C9 C11A C9 C7A C10 C7A C10 C8A C11 C8A =
 C11 C9A
SADI C7 C7A C8 C8A C9 C9A C10 C10A C11 C11A
SADI Fe1 C7 Fe1 C7A Fe1 C8 Fe1 C8A Fe1 C9 Fe1 C9A Fe1 C10 Fe1 C10A Fe1 C11 =
 FE1 C11A
DELU Fe1 C7 Fe1 C8 Fe1 C9 Fe1 C10 Fe1 C11 Fe1 C7A Fe1 C8A Fe1 C9A Fe1 C10A =
 FE1 C11A
RIGU C7 C9A C7 C10A C8 C10A C8 C11A C9 C11A C9 C7A C10 C7A C10 C8A C11 C8A =
 C11 C9A

L.S. 20 0 0
PLAN  1
SIZE 0.2 0.389 0.722
CONN 20 1.24 Fe1
BOND $H
CONF
list 4
fmap 2 53
acta
SHEL 50 0.85
REM <olex2.extras>
REM <HklSrc "%.\\exp_1342.hkl">
REM </olex2.extras>

WGHT    0.068100    0.437300
EXTI    0.039985
FVAR       8.98018
FE1   4    0.250000    0.500000    0.250000    10.50000    0.07629    0.05375 =
         0.06058   -0.00456   -0.02243    0.00430
PART 1
C7    1    0.309617    0.695844    0.137092    10.50000    0.10019    0.06926 =
         0.08336    0.00901   -0.00798   -0.00261
AFIX  43
H7    2    0.423895    0.742057    0.122002    10.50000   -1.20000
AFIX   0
C8    1    0.268232    0.592947    0.076921    10.50000    0.11372    0.09128 =
         0.06415   -0.00243   -0.01739    0.02009
AFIX  43
H8    2    0.349063    0.558920    0.015092    10.50000   -1.20000
AFIX   0
C9    1    0.083315    0.551984    0.127695    10.50000    0.10395    0.08306 =
         0.06628   -0.02103   -0.03670    0.01653
AFIX  43
H9    2    0.018627    0.484929    0.105247    10.50000   -1.20000
AFIX   0
C10   1    0.010276    0.627469    0.217657    10.50000    0.08544    0.06484 =
         0.07638   -0.02036   -0.03575    0.01014
AFIX  43
H10   2   -0.110481    0.619598    0.265500    10.50000   -1.20000
AFIX   0
C11   1    0.150739    0.716644    0.222860    10.50000    0.08238    0.05824 =
         0.08253   -0.00981   -0.02049    0.00477
AFIX  43
H11   2    0.140165    0.779423    0.274819    10.50000   -1.20000
AFIX   0

PART 0
F1    3    0.360844    0.982155   -0.120045    11.00000    0.09558    0.17414 =
         0.13895    0.01581    0.01153    0.02389
F2    3    0.101423    0.812678   -0.148179    11.00000    0.23285    0.10577 =
         0.10413   -0.04632   -0.04849    0.04639
F3    3   -0.259347    0.829160   -0.027348    11.00000    0.16669    0.13031 =
         0.19908   -0.00925   -0.08755   -0.05249
C1    1    0.181291    0.990999   -0.061505    11.00000    0.07747    0.08520 =
         0.07904    0.01089   -0.00850    0.01329
C2    1    0.049793    0.906304   -0.074591    11.00000    0.11978    0.06188 =
         0.07105   -0.01187   -0.02924    0.01682
C3    1   -0.130324    0.914272   -0.013781    11.00000    0.09979    0.06821 =
         0.09788    0.00417   -0.04262   -0.01355

PART 2
C7A   1    0.022647    0.575828    0.171019    10.50000    0.06934    0.09390 =
         0.07575   -0.00780   -0.02006    0.00797
AFIX  43
H7A   2   -0.091541    0.529680    0.185401    10.50000   -1.20000
AFIX   0
C8A   1    0.065267    0.683423    0.233201    10.50000    0.09047    0.07510 =
         0.07929   -0.01033   -0.01781    0.02370
AFIX  43
H8A   2   -0.015795    0.718774    0.294306    10.50000   -1.20000
AFIX   0
C9A   1    0.256101    0.723226    0.181302    10.50000    0.09784    0.05252 =
         0.06264   -0.01347   -0.01507    0.00753
AFIX  43
H9A   2    0.322075    0.790185    0.202955    10.50000   -1.20000
AFIX   0
C10A  1    0.328069    0.644236    0.091766    10.50000    0.09078    0.05521 =
         0.05572   -0.01431   -0.01773   -0.00607
AFIX  43
H10A  2    0.449536    0.650321    0.044695    10.50000   -1.20000
AFIX   0
C11A  1    0.186109    0.554776    0.085314    10.50000    0.07327    0.07083 =
         0.05983   -0.00623   -0.02063   -0.00851
AFIX  43
H11A  2    0.197974    0.492078    0.033173    10.50000   -1.20000
AFIX   0
HKLF 4

REM  exp_1342 in B-1
REM R1 =  0.0407 for    1249 Fo > 4sig(Fo)  and  0.0415 for all    1276 data
REM    152 parameters refined using    190 restraints

END

WGHT      0.0681      0.4373

REM Highest difference peak  0.316,  deepest hole -0.163,  1-sigma level  0.055
Q1    1  -0.0646  0.8062 -0.0988  11.00000  0.05    0.32
;
_shelx_res_checksum              37580
_shelx_hkl_file
;
   0   0   2 9162.41 449.757   1
   0   0   2 10000.4 387.699   7
   0   0  -2 10295.3 454.186   5
   0   0   2 9740.64 437.800   5
   0   0  -4 9619.76 584.840   5
   0   0   4 8991.65 564.227   5
   0   0  -4 8277.34 448.263   7
   0   0   4 8843.54 588.965   1
   0   0  -4 9552.97 611.408   1
   0   0   4 8685.61 478.195   7
   0   0   6 74230.4 2439.74   5
   0   0   6 70891.1 2174.23   7
   0   0   6 74283.6 2512.47   1
   0   0  -6 72789.2 2126.27   7
   0   0  -8 26531.2 1539.19   1
   0   0   8 26351.8 1511.54   1
   0   0   8 24454.1 1230.08   7
   0   0   8 24722.1 1435.70   5
   0   0  -8 27608.1 1203.04   7
   0   0  10 11151.5 1048.73   5
   0   0 -10 13585.2 899.417   7
   0   0 -10 13275.7 1195.11   1
   0   0  10 11361.3 901.155   7
   0   0 -10 10833.6 1013.68   2
   0   0 -12 6967.47 946.287   1
   0   0  12 6624.34 613.520   4
   0   0  12 6636.17 898.285   5
   0   0 -12 7087.50 705.648   7
   0   0 -14 202.081 192.643   1
   0   0  14 8.99601 226.395   5
   0   0  14 153.131 154.149   3
   0  -1  14 741.008 337.551   5
   0  -1  12 2906.52 597.741   5
   0   1 -12 4107.41 753.852   1
   0   1 -12 3423.05 506.027   7
   0   1 -10 5049.72 554.508   7
   0  -1  10 4634.32 597.124   7
   0  -1  10 5258.34 411.274   4
   0   1 -10 4723.70 719.856   1
   0  -1  10 5325.12 739.194   5
   0  -1   8 1337.68 326.760   5
   0  -1   8 1616.58 201.900   4
   0   1  -8 1031.95 320.681   2
   0   1  -8 1213.92 241.891   7
   0   1  -8 1200.66 336.367   1
   0  -1   8 1656.65 382.946   1
   0  -1   6 48120.2 1739.76   7
   0   1  -6 51021.2 1700.66   7
   0  -1   6 49586.2 1956.20   5
   0  -1   6 49930.7 1999.19   1
   0   1  -4 32040.2 1109.12   7
   0   1  -4 28278.7 1265.03   2
   0  -1   4 33001.3 1313.85   1
   0  -1   4 30586.9 1256.90   5
   0  -1   4 29146.5 1096.75   7
   0   1  -2 584956. 12669.0   7
   0  -1   2 548694. 12670.2   7
   0  -1   2 587481. 12815.7   5
   0  -1   2 569439. 12817.5   1
   0   1   2 451826. 10286.4   7
   0   1   2 466874. 10235.3   5
   0  -1  -2 482994. 10245.2   5
   0   1   2 464790. 10341.9   1
   0   1   2 462112. 10397.9   3
   0  -1  -2 467358. 10396.8   3
   0  -1  -2 461377. 10327.9   1
   0  -1  -4 231446. 5561.67   7
   0   1   4 239817. 5711.63   5
   0  -1  -4 241198. 5770.80   1
   0   1   4 235060. 5812.24   1
   0  -1  -4 242883. 5670.47   5
   0   1   4 232915. 5588.22   7
   0   1   6 103811. 3124.83   5
   0   1   6 102587. 3241.86   1
   0  -1  -6 104637. 3072.37   5
   0   1   6 106195. 2917.30   7
   0  -1  -6 109173. 3218.80   1
   0  -1  -6 100499. 2845.13   7
   0   1   8 72506.7 2605.30   5
   0  -1  -8 73087.6 2706.98   1
   0  -1  -8 67193.2 2221.26   7
   0   1   8 70849.4 2716.36   1
   0  -1 -10 4033.07 591.767   2
   0   1  10 4491.26 636.039   5
   0  -1 -10 4464.39 675.763   1
   0  -1 -10 4203.58 480.625   7
   0   1  12 2487.67 435.919   7
   0   1  12 3212.55 603.982   5
   0   1  12 2706.65 528.064   3
   0  -1 -12 3573.92 664.948   1
   0  -1 -12 3130.21 469.798   7
   0  -1 -14 1845.17 528.593   1
   0   1  14 1779.81 462.421   3
   0   1  14 1415.99 445.841   5
   0  -2  12 1289.05 436.138   5
   0   2 -12 1270.78 315.114   7
   0  -2  10 7023.78 789.564   7
   0  -2  10 5875.11 806.275   5
   0   2 -10 7639.99 716.565   7
   0   2  -8 9852.35 747.646   7
   0   2  -8 9414.04 920.946   2
   0   2  -8 9343.34 956.014   1
   0  -2   8 9801.10 922.447   5
   0  -2   8 9729.69 834.839   7
   0  -2   6 72607.2 2630.84   5
   0   2  -6 75350.5 2384.04   7
   0  -2   6 75838.9 2688.29   1
   0  -2   6 70262.2 2433.30   7
   0   2  -4 58984.9 1776.46   6
   0  -2   4 63547.1 2129.78   1
   0  -2   4 58345.6 1948.40   7
   0   2  -4 61392.7 1926.33   7
   0  -2   4 61877.2 2129.49   5
   0  -2   2 437492. 9145.52   6
   0   2  -2 416695. 9349.28   7
   0  -2   2 408106. 9405.63   3
   0   2  -2 403947. 9134.02   6
   0  -2   2 398844. 9390.07   1
   0  -2   2 405585. 9555.26   2
   0   2   0 259336. 6230.38   3
   0  -2   0 257337. 6071.68   6
   0   2   0 262724. 6068.60   2
   0  -2  -2 486041. 11134.6   3
   0  -2  -2 500440. 10748.3   2
   0   2   2 488127. 11113.5   3
   0   2   4 871.182 148.816   7
   0  -2  -4 1029.15 189.950   1
   0   2   4 899.366 150.747   5
   0   2   4 819.476 188.318   3
   0  -2  -4 863.152 145.852   5
   0   2   6 168524. 4312.02   7
   0  -2  -6 166884. 4342.04   5
   0   2   6 166540. 4403.02   5
   0  -2  -6 171679. 4558.78   1
   0   2   6 161428. 4545.18   3
   0   2   6 162849. 4573.20   1
   0   2   8 16094.7 1062.18   3
   0   2   8 16394.4 1120.02   1
   0  -2  -8 15434.7 901.197   7
   0   2   8 13777.4 869.632   7
   0  -2  -8 15440.3 1062.46   1
   0   2   8 16037.6 1026.62   5
   0   2  10 5376.07 717.073   1
   0  -2 -10 4724.01 538.180   7
   0  -2 -10 5721.07 748.617   1
   0   2  10 4699.14 626.182   5
   0   2  10 4944.76 651.504   3
   0  -2 -10 3968.05 563.492   2
   0  -2 -12 6002.21 842.544   1
   0   2  12 6046.06 778.125   3
   0   2  12 5097.82 617.905   7
   0   2  12 5472.59 756.229   5
   0  -2 -14 1666.50 496.631   1
   0   2  14 1536.39 437.540   3
   0   2  14 1234.13 422.393   5
   0  -3  12 1953.98 541.335   5
   0   3 -12 1769.92 389.598   7
   0  -3  10 6701.62 891.413   5
   0   3 -10 7351.72 750.838   7
   0   3  -8 11577.8 799.182   6
   0  -3   8 12797.4 1032.30   7
   0  -3   8 12936.6 1094.44   5
   0   3  -8 13943.4 951.757   7
   0  -3   6 8846.02 813.768   1
   0   3  -6 9204.99 855.822   2
   0   3  -6 10646.1 764.923   7
   0   3  -6 9795.04 646.741   6
   0  -3   6 10482.6 879.865   5
   0  -3   4 70870.7 2404.67   1
   0  -3   4 66721.1 2379.09   5
   0   3  -4 65708.2 2190.40   7
   0   3  -4 63465.3 1936.52   6
   0  -3   2 21773.6 1105.73   2
   0  -3   2 21491.7 862.324   6
   0   3  -2 21960.6 1004.20   7
   0  -3   2 22222.9 1004.69   1
   0   3  -2 21884.2 845.151   6
   0  -3   2 20766.9 1018.85   3
   0   3   0 79610.8 2203.59   2
   0  -3   0 76946.6 2236.05   6
   0   3   0 74456.4 2402.59   3
   0  -3  -2 33736.1 1335.10   3
   0   3   2 33000.7 1036.50   2
   0   3   2 35547.8 1351.08   3
   0  -3  -2 35280.1 1056.39   2
   0   3   4 98203.0 2480.62   5
   0  -3  -4 96706.7 2524.22   5
   0   3   4 99109.7 2977.02   3
   0  -3  -4 93327.1 2965.99   3
   0  -3  -4 101900. 2531.61   2
   0  -3  -4 92545.5 2744.02   1
   0  -3  -6 3256.50 330.720   5
   0   3   6 3916.44 396.198   7
   0  -3  -6 3465.91 422.790   1
   0   3   6 3758.16 357.895   5
   0   3   6 4164.47 486.762   3
   0   3   8 28236.0 1302.75   5
   0  -3  -8 25680.7 1248.08   5
   0   3   8 27311.4 1277.97   7
   0   3   8 28265.8 1521.95   3
   0   3  10 16627.9 1218.84   3
   0   3  10 13244.5 998.942   5
   0  -3 -10 13554.1 1125.50   1
   0  -3 -10 12903.6 999.813   2
   0   3  12 4047.13 655.064   3
   0   3  12 3174.57 467.872   7
   0  -3 -12 4282.85 699.252   1
   0  -3 -12 3732.11 562.063   2
   0   3  12 3468.80 561.822   5
   0   3  14 783.357 349.344   3
   0  -3 -14 466.138 272.384   1
   0   3  14 603.274 260.240   5
   0   4 -12 473.098 208.081   7
   0  -4  12 765.110 372.273   5
   0   4 -10 9791.66 922.278   7
   0  -4  10 10150.3 1149.08   5
   0   4  -8 5764.64 541.109   6
   0   4  -8 5873.22 658.063   7
   0  -4   8 5855.66 782.889   5
   0  -4   8 6238.55 758.658   3
   0  -4   6 19688.1 1303.10   1
   0   4  -6 20939.7 1200.19   7
   0  -4   6 18358.4 1257.04   3
   0   4  -6 19026.9 1322.58   2
   0   4  -6 19659.1 974.008   6
   0  -4   6 20107.0 1353.83   5
   0  -4   4 54670.3 2143.52   1
   0   4  -4 50339.0 1990.67   7
   0   4  -4 52601.8 1721.20   6
   0  -4   4 54910.5 2199.81   5
   0   4  -4 53375.0 1354.72   4
   0   4  -2 129240. 3301.52   6
   0  -4   2 125085. 3803.16   2
   0  -4   2 124887. 3556.33   1
   0  -4   2 121930. 3359.97   6
   0   4  -2 121259. 3603.35   2
   0   4  -2 122158. 3613.56   7
   0   4   0 82610.8 2731.11   3
   0  -4   0 79005.7 2487.36   6
   0   4   0 84680.7 2480.10   2
   0   4   2 110817. 2886.57   2
   0   4   2 109235. 3336.26   3
   0  -4  -2 115218. 2981.10   2
   0  -4  -4 1825.26 205.866   2
   0   4   4 2037.18 340.652   3
   0  -4  -4 1425.03 298.976   3
   0  -4  -4 1558.77 181.776   5
   0   4   6 27981.8 1055.53   5
   0  -4  -6 26906.8 1064.65   5
   0  -4  -6 27348.4 1484.21   3
   0   4   6 27817.4 1298.15   7
   0   4   6 31373.6 1523.67   3
   0  -4  -6 28653.2 1331.55   1
   0  -4  -6 28689.4 1105.53   2
   0   4   8 36625.2 1454.93   5
   0   4   8 38487.0 1863.02   3
   0  -4  -8 37626.5 1487.39   5
   0   4  10 4389.94 502.204   5
   0  -4 -10 4776.94 618.299   1
   0   4  10 3831.44 595.002   3
   0   4  10 4611.25 539.653   7
   0   4  12 868.230 320.837   3
   0  -4 -12 541.888 257.845   1
   0   4  12 723.049 233.223   5
   0   4  14 949.922 295.397   5
   0  -4 -14 1127.30 391.643   1
   0   4  14 817.389 347.883   3
   0  -4 -16 53.3797 115.795   1
   0   5 -12 1252.76 357.247   7
   0  -5  10 2321.21 574.445   5
   0   5 -10 2385.07 481.990   7
   0   5  -8 14330.3 1131.82   7
   0  -5   8 15935.1 1357.68   5
   0   5  -8 12391.6 803.796   6
   0  -5   6 10323.7 1012.71   5
   0   5  -6 9949.79 892.895   7
   0   5  -6 11663.7 728.219   6
   0  -5   6 10792.1 1010.17   3
   0  -5   4 44068.0 2101.24   5
   0   5  -4 43020.7 1931.11   7
   0  -5   4 44844.0 2085.52   3
   0   5  -4 46636.4 2118.64   2
   0  -5   4 47155.1 2064.88   1
   0   5  -4 49701.6 1689.82   6
   0   5  -2 36784.3 1682.70   2
   0   5  -2 38925.6 1732.53   7
   0  -5   2 38768.3 1886.66   2
   0  -5   2 36298.4 1617.29   1
   0  -5   2 35217.3 1747.70   3
   0  -5   2 39250.4 1532.62   6
   0   5  -2 40753.5 1420.75   6
   0   5   0 20432.0 1223.01   3
   0   5   0 20479.9 1010.69   2
   0  -5   0 19615.5 1048.63   6
   0   5   2 91449.7 2633.16   2
   0  -5  -2 101392. 3140.08   6
   0   5   2 94225.9 3152.77   3
   0  -5  -2 95978.3 2824.60   2
   0  -5  -4 138460. 3489.50   5
   0  -5  -4 135816. 4374.37   3
   0   5   4 146580. 4307.52   3
   0  -5  -4 143140. 3637.76   2
   0  -5  -6 27633.8 1060.72   2
   0  -5  -6 25879.0 1024.37   5
   0  -5  -6 25389.1 1541.99   3
   0  -5  -6 26887.2 1309.39   1
   0   5   6 28602.7 1539.84   3
   0   5   8 2135.03 280.263   5
   0   5   8 2235.35 371.540   7
   0   5   8 2592.71 453.208   3
   0  -5  -8 1934.15 268.645   5
   0  -5  -8 2825.01 344.626   2
   0   5  10 1636.92 293.462   5
   0   5  10 1247.27 291.517   7
   0   5  10 1080.73 314.559   3
   0  -5 -10 1339.91 314.399   1
   0  -5 -12 3273.71 575.582   1
   0   5  12 2756.71 428.246   5
   0   5  12 3104.55 583.851   3
   0   5  14 802.337 373.907   3
   0  -5 -14 660.427 311.304   1
   0   6 -12 174.398 181.689   7
   0   6 -10 1940.13 460.552   7
   0  -6  10 2621.96 665.453   5
   0  -6   8 6624.87 933.429   5
   0   6  -8 7065.86 843.332   7
   0   6  -6 17635.3 937.126   6
   0  -6   6 18655.8 1452.35   5
   0   6  -6 16738.3 1245.96   7
   0  -6   4 3681.24 573.161   3
   0   6  -4 5076.77 457.492   6
   0   6  -4 4598.94 603.645   7
   0  -6   4 4453.09 605.895   1
   0  -6   4 5064.87 701.255   5
   0   6  -2 4346.46 546.970   2
   0  -6   2 4972.85 525.664   6
   0  -6   2 4340.76 537.427   1
   0   6  -2 5514.57 632.472   7
   0  -6   2 4559.47 604.389   3
   0  -6   2 5715.53 731.241   2
   0  -6   0 58969.5 2415.07   3
   0   6   0 55980.0 2076.30   2
   0  -6   0 52475.5 2113.77   6
   0   6   0 54339.7 2416.57   3
   0  -6  -2 90772.2 2980.61   2
   0   6   2 96091.0 3379.03   3
   0   6   2 88984.3 2740.91   2
   0  -6  -4 32628.4 1790.96   3
   0  -6  -4 32172.2 1168.49   5
   0  -6  -4 34020.8 1861.57   6
   0   6   4 33626.8 1244.59   2
   0  -6  -4 32281.8 1361.06   2
   0   6   4 33158.2 1751.46   3
   0  -6  -6 4408.02 400.234   2
   0  -6  -6 4249.30 644.097   3
   0   6   6 5324.27 675.448   3
   0  -6  -6 4510.34 363.422   5
   0  -6  -6 3975.73 472.944   1
   0  -6  -8 7294.22 538.254   2
   0   6   8 7427.04 827.077   3
   0  -6  -8 6353.98 459.780   5
   0   6   8 5731.42 649.492   7
   0  -6 -10 9509.84 871.257   1
   0   6  10 9617.25 1000.38   3
   0   6  10 7710.37 764.498   7
   0  -6 -10 10218.5 704.651   2
   0   6  10 9615.47 655.769   5
   0  -6 -12 951.687 330.987   1
   0   6  12 2088.24 490.490   3
   0   6  14 389.339 288.413   3
   0  -6 -14 315.102 211.958   1
   0   7 -10 422.879 250.632   7
   0  -7   8 4435.23 802.082   5
   0   7  -8 2998.55 573.042   7
   0   7  -6 6232.76 790.905   7
   0  -7   6 4897.68 779.276   5
   0  -7   4 19765.1 1498.26   5
   0   7  -4 18773.7 1348.55   7
   0   7  -2 11874.1 991.184   2
   0  -7   2 11843.4 981.818   1
   0  -7   2 12437.3 924.736   6
   0   7  -2 12744.7 1066.95   7
   0  -7   2 12476.8 1079.21   5
   0  -7   0 12678.6 1077.41   3
   0  -7   0 9718.73 849.410   6
   0   7   0 11585.9 870.910   2
   0   7   0 12418.9 1108.56   3
   0  -7  -2 4131.99 551.741   2
   0   7   2 5545.85 519.942   2
   0  -7  -2 4966.29 665.434   6
   0   7   2 5081.90 698.328   3
   0  -7  -2 5924.93 738.816   3
   0   7   4 9370.84 652.390   2
   0  -7  -4 10759.1 1064.74   6
   0   7   4 9764.05 974.892   3
   0  -7  -4 9804.10 611.646   5
   0  -7  -4 8409.78 696.500   2
   0  -7  -6 12366.3 1268.02   6
   0  -7  -6 11819.1 750.802   2
   0   7   6 13659.4 1163.43   3
   0  -7  -6 12814.4 651.109   5
   0  -7  -8 14679.5 755.828   2
   0   7   8 15577.3 1261.32   3
   0  -7  -8 12915.7 648.823   5
   0  -7  -8 13987.9 1020.79   1
   0  -7 -10 1722.87 245.020   2
   0   7  10 2269.19 517.644   3
   0  -7 -10 1432.52 338.721   1
   0  -7 -12 676.258 253.635   1
   0   7  12 1101.21 405.355   3
   0   7  14 123.548 220.839   3
   0  -8   8 702.176 431.731   5
   0   8  -8 338.767 197.206   7
   0  -8   6 6714.96 999.820   5
   0   8  -6 7335.19 921.525   7
   0   8  -4 8357.07 957.687   7
   0  -8   4 9804.98 1109.81   5
   0   8  -2 11233.4 1103.52   7
   0  -8   2 11061.0 1112.01   5
   0  -8   2 10098.6 901.698   6
   0   8   0 4249.12 685.024   3
   0  -8   0 3608.35 548.720   6
   0   8   0 4541.40 572.582   2
   0   8   0 3219.55 576.584   7
   0  -8   0 5208.73 771.051   2
   0  -8  -2 4589.84 666.444   2
   0   8   2 7136.81 868.127   3
   0  -8  -2 6546.73 807.972   6
   0   8   2 6682.30 631.645   2
   0  -8  -4 9416.72 827.334   2
   0  -8  -4 11883.8 734.529   5
   0   8   4 12149.6 1170.49   3
   0  -8  -4 13881.2 1304.30   6
   0   8   4 11526.6 791.076   2
   0  -8  -6 6901.03 468.827   5
   0  -8  -6 5743.16 543.479   2
   0  -8  -6 7860.30 1066.62   6
   0   8   6 6912.93 875.874   3
   0  -8  -8 989.601 178.568   2
   0   8   8 1712.93 448.223   3
   0  -8  -8 988.930 271.576   1
   0  -8  -8 1940.79 573.100   6
   0  -8 -10 1350.49 336.229   1
   0   8  10 1229.99 423.789   3
   0   8  12 320.481 164.848   3
   0   8  14 9.07198 140.124   3
   0  -9   6 189.949 150.897   5
   0   9  -6 235.092 232.516   7
   0   9  -4 6551.58 899.998   7
   0  -9   4 5002.12 855.043   5
   0   9  -2 7099.76 917.394   7
   0  -9   2 5620.83 707.191   6
   0  -9   2 6982.47 941.567   5
   0   9   0 5697.47 861.135   3
   0  -9   0 4974.46 677.843   1
   0   9   0 6016.46 829.894   7
   0  -9   0 4992.24 692.074   6
   0  -9   0 5782.98 787.463   5
   0  -9  -2 14249.9 1273.67   6
   0  -9  -2 14125.2 1290.99   2
   0   9   2 15771.0 1071.28   2
   0   9   2 16538.0 1482.39   3
   0  -9  -4 6948.25 962.727   6
   0   9   4 6470.95 919.120   3
   0  -9  -4 4694.29 634.922   2
   0  -9  -4 5099.04 508.899   5
   0   9   4 5137.48 552.035   2
   0  -9  -6 969.222 249.540   2
   0  -9  -6 662.055 373.731   6
   0   9   6 1338.98 414.811   3
   0  -9  -8 1070.62 279.727   1
   0   9   8 1718.22 466.428   3
   0  -9  -8 1058.38 446.807   6
   0   9  10 1362.29 475.182   3
   0  -9 -10 902.734 435.780   6
   0   9  12 197.158 183.702   3
   0  10  -4 936.466 366.985   7
   0 -10   4 850.638 419.457   5
   0 -10   2 1478.23 380.281   6
   0 -10   2 974.598 382.516   5
   0  10  -2 1322.59 430.649   7
   0 -10   0 6644.73 848.402   6
   0  10   0 7271.28 982.695   7
   0 -10   0 6820.00 904.335   5
   0  10   2 2336.67 623.514   3
   0 -10  -2 2173.27 509.112   6
   0 -10  -2 1654.02 400.325   5
   0 -10  -4 4399.30 669.669   2
   0 -10  -4 2943.76 449.101   5
   0 -10  -4 4271.11 800.726   6
   0  10   4 4545.39 828.420   3
   0  10   6 2290.24 603.602   3
   0 -10  -6 2456.13 687.273   6
   0  10   8 1381.40 444.411   3
   0 -10  -8 734.116 402.734   6
   0  10  10 1115.99 445.299   3
   0 -11   4 797.053 474.434   5
   0  11  -2 2843.01 656.376   7
   0 -11   2 1949.02 575.145   5
   0 -11   0 79.9068 171.421   5
   0 -11   0-117.859 136.127   6
   0  11   0 202.483 211.315   7
   0  11   2 1019.79 416.440   3
   0 -11  -2 1831.10 493.017   6
   0  11   2 1895.75 534.958   7
   0 -11  -4 2632.32 662.057   6
   0  11   4 4107.85 850.757   3
   0 -11  -6 1563.33 592.008   6
   0  11   6 2695.98 679.897   3
   0 -11  -8 838.294 430.393   6
   0  11   8 195.923 254.720   3
   0 -12  -2 596.714 299.263   6
   0 -12  -4-188.809 218.287   6
   0 -12  -6 1068.68 518.160   6
   1 -12  -5 484.730 368.161   6
   1 -12  -3 140.455 197.904   6
   1 -11  -7 253.073 258.680   6
  -1  11   7 81.5001 178.157   3
  -1  11   5 1363.51 437.660   7
   1 -11  -5 895.180 399.029   6
  -1  11   5 1915.97 581.945   3
   1 -11  -3 400.237 304.233   6
  -1  11   3 742.009 372.929   3
   1 -11  -3 98.0691 106.383   2
  -1  11   3 907.139 388.160   7
  -1  11   1 262.729 228.102   7
   1 -11  -1 254.112 166.829   6
   1 -11  -1 556.689 384.871   2
  -1  11  -1 1678.77 502.988   7
   1 -11   1 1004.96 414.395   5
   1 -11   3 829.020 414.836   5
  -1  10   9 177.741 228.489   3
   1 -10  -9 1126.05 477.104   6
   1 -10  -7 814.178 403.621   6
  -1  10   7 1155.89 430.658   3
  -1  10   5 1235.62 449.874   3
   1 -10  -5 753.665 302.456   2
   1 -10  -5 1642.61 526.932   6
   1 -10  -3 4533.30 723.368   2
  -1  10   3 5274.89 899.173   3
  -1  10   3 4616.03 761.625   7
   1 -10  -3 4695.76 809.271   6
   1 -10  -1 4635.72 709.561   6
   1 -10  -1 3913.76 751.185   2
  -1  10   1 5207.41 818.809   7
   1 -10   1 1286.75 456.675   2
  -1  10  -1 1562.30 486.539   7
   1 -10   1 1680.53 391.106   6
  -1  10  -3 2217.68 553.905   7
   1 -10   3 1544.13 516.844   5
   1 -10   5 712.835 409.766   5
  -1   9  11 438.826 270.087   3
  -1   9   9 959.512 363.294   3
   1  -9  -9 1028.98 299.070   1
   1  -9  -7 1523.81 329.784   2
  -1   9   7 1693.79 470.760   3
   1  -9  -7 1719.27 529.015   6
  -1   9   5 7297.11 1018.50   3
   1  -9  -5 6906.57 779.869   2
   1  -9  -5 7949.20 1075.66   6
  -1   9   3 5642.85 661.757   2
   1  -9  -3 6639.01 920.219   6
   1  -9  -3 5436.59 738.779   2
  -1   9   3 6556.22 950.110   3
   1  -9  -3 5720.16 634.429   5
  -1   9   1 5743.71 874.527   3
   1  -9  -1 3997.21 637.610   6
   1  -9  -1 3163.27 613.181   2
  -1   9   1 4141.80 693.348   7
   1  -9   1 5614.22 882.210   2
  -1   9  -1 6561.26 876.407   7
   1  -9   1 5241.00 655.296   6
   1  -9   3 11016.4 1348.23   2
   1  -9   3 9710.25 1145.69   5
  -1   9  -3 7707.10 979.211   7
  -1   9  -5 1019.60 400.282   7
   1  -9   5 1915.48 561.773   5
   1  -9   7 436.343 273.133   5
  -1   9  -7 1024.32 387.981   7
  -1   8  13-60.2001 135.468   3
  -1   8  11 867.046 334.872   3
   1  -8 -11 1081.62 361.115   1
   1  -8  -9 1461.31 375.708   1
  -1   8   9 2599.48 560.393   3
   1  -8  -9 1583.15 314.635   2
  -1   8   7 8375.48 981.580   3
   1  -8  -7 7464.53 693.744   2
   1  -8  -7 6175.71 586.928   5
  -1   8   5 2431.33 527.125   3
   1  -8  -5 2578.83 445.690   2
   1  -8  -3 1330.24 332.401   2
   1  -8  -3 1770.58 429.750   6
  -1   8   3 1647.00 331.529   2
  -1   8   3 1787.23 489.775   3
   1  -8  -1 5163.88 707.631   2
  -1   8   1 5140.54 760.622   3
   1  -8  -1 5415.56 692.925   6
  -1   8   1 4594.59 575.439   2
  -1   8   1 5229.02 708.293   7
   1  -8   1 17733.6 1493.15   2
  -1   8  -1 19490.7 1443.18   7
   1  -8   1 19326.6 1212.58   6
  -1   8  -3 13588.9 1219.31   7
   1  -8   3 12088.5 872.440   6
   1  -8   5 7352.45 983.635   5
  -1   8  -5 7712.08 942.614   7
   1  -8   7 1397.94 498.065   5
  -1   8  -7 1342.63 380.028   7
  -1   8  -9 288.983 153.717   7
   1  -7 -13 175.579 179.444   1
  -1   7  13 510.198 257.066   3
   1  -7 -11 1598.98 413.481   1
  -1   7  11 1868.05 466.163   3
  -1   7   9 6565.46 820.919   3
  -1   7   9 4084.19 548.721   7
   1  -7  -9 5606.44 592.149   2
   1  -7  -9 5774.60 733.733   1
   1  -7  -7 1377.78 348.037   1
  -1   7   7 1412.05 370.522   3
   1  -7  -7 1087.21 264.320   2
   1  -7  -7 911.350 222.960   5
  -1   7   5 5232.25 716.780   3
   1  -7  -5 4834.30 495.386   5
   1  -7  -5 6129.98 610.910   2
  -1   7   3 23105.0 1569.94   3
   1  -7  -3 22606.1 1334.28   2
  -1   7   3 23484.7 1248.81   2
   1  -7  -1 19933.6 1280.89   6
  -1   7   1 18778.7 1419.68   3
  -1   7   1 19736.7 1171.71   2
   1  -7  -1 20148.7 1328.21   2
  -1   7   1 20747.3 1360.03   7
  -1   7  -1 3155.25 475.356   2
  -1   7  -1 2976.85 519.511   7
   1  -7   1 2818.76 414.831   6
   1  -7   1 3627.79 575.800   2
  -1   7  -3 11196.2 1019.19   7
   1  -7   3 9926.10 723.951   6
  -1   7  -5 7180.84 473.730   4
   1  -7   5 9973.61 1055.23   5
  -1   7  -5 10706.8 1029.36   7
   1  -7   7 6573.08 928.460   5
  -1   7  -7 6235.22 839.452   7
  -1   7  -9 2120.88 519.869   7
   1  -7   9 1928.03 561.888   5
  -1   7 -11 269.484 201.754   7
   1  -6 -15 630.063 357.098   1
   1  -6 -13 360.990 237.087   1
  -1   6  13 780.018 303.224   3
   1  -6 -11 1688.02 367.497   2
   1  -6 -11 1799.56 435.303   1
  -1   6  11 1327.61 280.241   5
  -1   6  11 1183.20 348.912   3
   1  -6  -9 1325.66 350.883   1
  -1   6   9 1599.81 389.365   3
  -1   6   9 1250.59 283.425   7
   1  -6  -9 1528.17 342.386   2
   1  -6  -7 9516.71 726.248   5
   1  -6  -7 9587.05 900.412   1
   1  -6  -7 9059.43 959.184   3
   1  -6  -7 10482.2 796.364   2
  -1   6   7 10579.8 963.143   3
   1  -6  -5 59961.2 2609.41   3
  -1   6   5 62366.9 2535.31   3
   1  -6  -5 55067.8 2019.18   5
   1  -6  -5 61304.2 2193.22   2
   1  -6  -3 63697.6 2626.74   3
   1  -6  -3 66416.9 2238.36   5
   1  -6  -3 67791.3 2376.38   2
  -1   6   3 65946.2 2698.40   3
  -1   6   3 65314.1 2272.10   2
   1  -6  -1 195.717 130.034   3
   1  -6  -1 470.843 193.495   2
  -1   6   1 308.431 195.973   3
   1  -6  -1 409.039 171.003   6
  -1   6   1 248.049 118.784   2
   1  -6   1 22519.0 1417.86   3
  -1   6  -1 23613.5 1292.54   2
  -1   6  -1 21491.0 1350.64   7
   1  -6   1 22254.7 1128.50   6
   1  -6   1 21340.6 1334.29   2
   1  -6   3 19473.9 1401.19   3
   1  -6   3 20138.9 991.425   6
  -1   6  -3 20897.8 1346.16   7
  -1   6  -3 23659.5 1401.34   2
  -1   6  -5 8286.18 846.635   7
   1  -6   5 8713.20 1022.48   2
  -1   6  -5 7704.57 436.299   4
   1  -6   7 7672.13 940.099   5
  -1   6  -7 8038.57 885.905   7
  -1   6  -9 3666.54 626.552   7
   1  -6   9 3545.28 713.240   5
  -1   6 -11 24.3212 139.251   7
   1  -5 -15 357.354 178.616   1
  -1   5  13 688.270 255.360   5
  -1   5  13 385.336 220.168   3
   1  -5 -13 702.699 353.621   1
   1  -5 -11 1616.15 405.758   1
   1  -5 -11 1118.87 292.615   5
  -1   5  11 1454.71 373.048   3
  -1   5  11 727.620 235.082   5
  -1   5   9 12446.0 1031.43   3
  -1   5   9 11719.3 850.905   5
   1  -5  -9 13460.2 1113.58   1
   1  -5  -9 14355.7 1005.15   2
  -1   5   7 28898.3 1547.88   3
   1  -5  -7 29197.6 1400.33   2
   1  -5  -7 26984.4 1534.67   1
  -1   5   7 29215.4 1290.33   5
   1  -5  -7 26022.5 1557.58   3
   1  -5  -7 26193.1 1305.01   5
  -1   5   5 27930.3 1457.69   3
   1  -5  -5 26507.9 1247.54   2
   1  -5  -5 24159.9 1463.16   3
   1  -5  -5 24256.8 1134.82   5
   1  -5  -3 21613.4 1023.15   5
   1  -5  -3 23472.6 1125.43   2
  -1   5   3 21436.6 1260.65   3
   1  -5  -3 20722.9 1240.78   3
  -1   5   3 21017.5 1028.76   2
   1  -5  -1 167086. 4530.36   2
  -1   5   1 168090. 4835.95   3
  -1   5   1 157799. 4381.97   2
  -1   5  -1 28809.3 1447.24   7
  -1   5  -1 26535.9 1321.57   2
   1  -5   1 26943.4 1426.40   2
   1  -5   1 27749.2 1179.43   6
   1  -5   3 97849.4 3481.75   3
  -1   5  -3 104706. 3380.14   2
   1  -5   3 95656.6 2719.31   6
  -1   5  -3 100358. 3318.68   7
   1  -5   5 29416.8 1774.61   2
   1  -5   5 30586.2 1681.51   1
  -1   5  -5 30175.5 903.071   4
  -1   5  -5 29536.3 1609.04   7
   1  -5   5 30519.9 1771.33   3
  -1   5  -7 2912.90 496.366   7
   1  -5   7 4371.54 640.800   5
   1  -5   9 6661.73 912.413   5
  -1   5  -9 5975.15 782.239   7
  -1   5 -11 2390.85 518.834   7
   1  -5  11 2430.62 609.535   5
  -1   5 -13 87.4510 208.972   7
   1  -4 -15 314.141 222.827   1
  -1   4  13 990.994 354.026   3
   1  -4 -13 898.681 342.892   1
  -1   4  13 402.976 206.897   5
  -1   4  11 2940.04 479.708   5
   1  -4 -11 3264.22 505.597   5
  -1   4  11 3612.86 559.600   3
   1  -4 -11 2555.79 537.100   1
  -1   4   9 11722.4 964.992   3
   1  -4  -9 12036.1 1037.37   1
  -1   4   9 10951.6 757.932   7
   1  -4  -9 12004.9 904.012   5
  -1   4   9 11890.2 882.514   5
  -1   4   7 5626.66 493.235   7
   1  -4  -7 5999.45 584.935   5
  -1   4   7 5986.64 631.122   3
  -1   4   7 5639.08 518.090   5
   1  -4  -7 6357.48 682.475   3
   1  -4  -7 5791.65 667.367   1
   1  -4  -5 872.630 196.121   2
   1  -4  -5 372.625 153.700   3
  -1   4   5 580.142 161.859   5
  -1   4   5 589.229 195.399   3
   1  -4  -5 807.196 191.515   5
  -1   4   3 233467. 6080.01   3
   1  -4  -3 230152. 6068.52   3
   1  -4  -3 231062. 5722.03   5
   1  -4  -3 236513. 5832.30   2
  -1   4   1 40224.2 1479.42   2
   1  -4  -1 39279.3 1498.72   2
  -1   4   1 40181.4 1675.37   3
   1  -4   1 160386. 4022.93   6
   1  -4   1 161746. 4413.86   2
  -1   4  -1 162389. 4421.81   7
  -1   4  -1 154202. 4295.50   2
   1  -4   3 260986. 6225.48   6
  -1   4  -3 267160. 6307.01   4
  -1   4  -3 275407. 6962.73   7
   1  -4   5 17706.1 1255.11   2
  -1   4  -5 15691.0 1124.06   2
  -1   4  -5 15738.8 1044.91   7
   1  -4   5 15482.4 1093.94   1
   1  -4   7 22848.5 1496.00   5
  -1   4  -7 23969.1 760.529   6
  -1   4  -7 22683.5 1382.29   7
   1  -4   9 12812.0 1198.45   5
  -1   4  -9 13609.4 1095.07   7
  -1   4  -9 13983.8 613.691   6
   1  -4  11 2342.91 561.898   5
  -1   4 -11 2585.77 504.988   7
  -1   4 -13 363.719 247.554   7
   1  -3 -15-159.733 155.170   1
  -1   3  15 462.048 303.677   5
  -1   3  13 1832.28 460.208   5
   1  -3 -13 1669.43 481.920   1
  -1   3  13 1332.68 410.505   3
  -1   3  11 2214.43 447.035   5
   1  -3 -11 1741.02 424.157   1
  -1   3  11 2322.45 468.447   3
  -1   3  11 1533.50 275.928   7
   1  -3  -9 1443.08 357.359   1
   1  -3  -9 1803.64 348.317   5
  -1   3   9 2587.36 436.960   3
  -1   3   9 2621.40 420.182   5
  -1   3   9 2083.69 301.040   7
  -1   3   7 10368.9 757.884   5
   1  -3  -7 9752.31 850.625   1
  -1   3   7 11406.1 825.752   3
  -1   3   7 9233.86 608.557   7
  -1   3   5 48966.1 1639.93   7
   1  -3  -5 50217.8 1825.97   5
   1  -3  -5 49397.8 1898.68   3
   1  -3  -5 53699.5 2045.69   1
  -1   3   5 51002.3 1762.53   5
   1  -3  -3 46551.2 1570.59   5
   1  -3  -3 50714.0 1670.31   2
   1  -3  -3 47335.9 1718.93   3
  -1   3   3 51096.5 1748.61   3
  -1   3   1 187115. 4703.21   3
  -1   3   1 172777. 4450.16   2
   1  -3  -1 180923. 4489.96   2
   1  -3  -1 177507. 4594.71   3
   1  -3   1 3269.62 377.514   2
  -1   3  -1 3008.84 337.052   2
  -1   3  -3 7747.41 606.492   7
   1  -3   3 8408.21 649.029   2
  -1   3  -3 7434.70 401.336   4
   1  -3   5 487227. 11754.4   1
  -1   3  -5 498580. 10651.7   6
   1  -3   5 481381. 11878.9   2
  -1   3  -5 496094. 11587.7   7
   1  -3   5 468241. 11647.3   7
  -1   3  -7 21936.6 1427.93   2
   1  -3   7 21578.2 1334.70   7
  -1   3  -7 21281.2 822.537   6
  -1   3  -7 20913.6 1221.80   7
   1  -3   7 21229.2 1361.17   1
   1  -3   7 19394.9 1303.69   5
   1  -3   9 8853.45 920.956   5
  -1   3  -9 10168.1 886.379   7
  -1   3  -9 8337.75 567.069   6
  -1   3 -11 6112.54 761.249   7
   1  -3  11 6675.06 888.359   5
  -1   3 -13 617.443 263.756   7
   1  -3  13 849.618 372.385   5
  -1   2  15 401.536 254.180   5
   1  -2 -13 2314.08 582.172   1
  -1   2  13 2470.95 580.774   5
  -1   2  13 1870.69 419.382   3
   1  -2 -11-8.17007 145.426   1
  -1   2  11-34.0940 144.757   3
  -1   2  11-5.71636 68.7500   7
  -1   2   9 9471.59 861.897   5
  -1   2   9 11075.3 865.944   3
  -1   2   9 9429.32 649.119   7
   1  -2  -9 9939.75 872.330   5
   1  -2  -9 10692.3 988.582   1
  -1   2   7 70948.9 2100.65   7
  -1   2   7 70649.6 2504.72   5
  -1   2   7 70224.4 2419.51   3
   1  -2  -7 70530.9 2659.84   1
  -1   2   5 43907.0 1559.11   3
   1  -2  -5 40410.9 1724.92   1
  -1   2   5 40695.0 1311.65   7
   1  -2  -5 43254.9 1653.01   5
  -1   2   5 42742.5 1593.08   5
  -1   2   3 7248.65 464.871   3
  -1   2   3 7235.05 472.617   5
   1  -2  -3 7210.60 489.261   3
   1  -2  -3 6697.99 468.189   5
  -1   2   1 26382.4 980.433   2
  -1   2   1 27865.5 1043.38   3
   1  -2  -1 28197.7 1018.95   2
   1  -2  -1 26817.9 994.099   3
   1  -2  -1 28755.7 1002.46   5
   1  -2   1 360280. 8597.21   2
  -1   2  -1 384841. 8606.40   7
  -1   2  -3 553077. 12966.0   7
  -1   2  -3 535411. 12501.6   4
   1  -2   5 9082.99 761.037   2
   1  -2   5 9747.23 736.498   1
  -1   2  -5 9299.42 671.698   7
  -1   2  -7 18981.3 1255.56   2
   1  -2   7 19060.3 1168.91   7
   1  -2   7 19009.3 1216.42   1
   1  -2   7 19132.8 1193.61   5
  -1   2  -7 20520.2 1129.32   7
   1  -2   9 10375.0 968.527   5
  -1   2  -9 11868.2 918.737   7
   1  -2   9 11317.8 981.386   7
   1  -2  11 7364.54 897.674   5
  -1   2 -11 7915.68 808.975   7
  -1   2 -13 1363.37 371.930   7
   1  -2  13 1242.76 429.976   5
  -1   1  15-427.803 282.915   5
  -1   1  13 1165.75 331.935   4
  -1   1  13 1644.44 490.009   5
  -1   1  13 1429.52 396.956   3
   1  -1 -13 841.431 396.645   1
  -1   1  11 10507.6 1077.53   5
   1  -1 -11 11311.8 794.777   7
  -1   1  11 9646.15 769.447   7
   1  -1 -11 10441.4 1155.06   1
  -1   1  11 12471.0 1011.16   3
   1  -1  -9 10276.3 918.243   5
   1  -1  -9 10513.5 682.871   7
  -1   1   9 12382.1 1042.93   5
  -1   1   9 10672.0 834.496   3
   1  -1  -9 11286.1 1039.06   1
  -1   1   9 9743.87 675.757   7
  -1   1   7 39085.2 1865.08   1
   1  -1  -7 36589.0 1270.20   7
   1  -1  -7 32702.2 1609.13   5
  -1   1   7 35188.9 1255.08   7
   1  -1  -7 38153.7 1788.47   1
  -1   1   7 34460.6 1467.01   3
  -1   1   7 38994.1 1757.06   5
   1  -1  -5 1334.45 158.495   7
  -1   1   5 1340.23 249.149   5
  -1   1   5 1092.41 203.609   3
  -1   1   5 1697.57 171.469   7
  -1   1   5 1518.54 304.662   1
   1  -1  -5 1681.49 278.125   5
  -1   1   3 118828. 3142.58   5
  -1   1   3 111926. 2695.36   7
   1  -1  -3 116971. 2922.47   3
   1  -1  -3 120199. 3281.68   1
  -1   1   3 123586. 2931.89   3
   1  -1  -3 117618. 3173.88   5
   1  -1  -1 453734. 10595.2   5
  -1   1   1 474154. 10603.6   5
   1  -1  -1 481371. 10476.8   3
   1  -1  -1 459913. 10645.3   2
  -1   1   1 492096. 10502.0   3
  -1   1  -1 549058. 11218.7   4
  -1   1  -1 538927. 11259.8   7
   1  -1   1 527303. 11173.8   4
   1  -1   3 999999. 21640.8   2
  -1   1  -3 945001. 21575.3   7
  -1   1  -3 980629. 21671.7   2
  -1   1  -5 67827.5 2280.36   2
   1  -1   5 69372.9 2286.15   1
   1  -1   5 63937.8 2261.12   2
   1  -1   5 65846.6 1782.62   4
  -1   1  -5 71117.5 2169.23   7
   1  -1   5 66938.3 2187.79   7
   1  -1   7 60777.7 1737.43   4
   1  -1   7 60211.9 2329.00   1
  -1   1  -7 55863.0 2341.80   2
   1  -1   7 61172.7 2275.19   5
  -1   1  -7 61582.0 2150.53   7
   1  -1   9 3815.34 331.602   4
  -1   1  -9 3855.02 491.643   7
  -1   1  -9 3934.16 584.700   2
   1  -1   9 3800.52 533.030   7
   1  -1   9 3248.82 506.666   5
   1  -1  11 12504.0 1115.37   5
  -1   1 -11 11090.9 943.514   7
   1  -1  11 10005.6 550.987   4
   1  -1  13 667.090 277.168   5
  -1   1 -13 1164.86 324.739   7
   1  -1  15 239.781 279.448   5
  -1   0  13 5645.30 903.786   5
   1   0 -13 4864.23 858.927   1
  -1   0  13 4110.00 633.751   3
   1   0 -11 4511.09 736.505   1
  -1   0  11 3084.15 458.208   4
   1   0 -11 3227.99 415.384   7
  -1   0  11 3645.62 670.436   5
  -1   0   9 4016.05 612.078   5
   1   0  -9 3363.61 385.308   7
  -1   0   9 3008.46 385.165   7
  -1   0   9 4139.57 471.366   4
   1   0  -9 3497.04 607.083   1
   1   0  -9 3105.99 514.468   5
  -1   0   7 29851.5 1603.54   5
   1   0  -7 31304.2 1135.82   7
  -1   0   7 29421.6 1626.31   1
  -1   0   7 28635.2 1154.59   7
   1   0  -7 29433.6 1538.62   5
  -1   0   5 218012. 5775.81   1
   1   0  -5 218638. 5016.22   7
   1   0  -5 203658. 5597.92   5
  -1   0   5 219875. 5767.51   5
  -1   0   5 214485. 5053.18   7
  -1   0   3 227204. 5280.32   4
  -1   0   3 225799. 4974.03   7
   1   0  -3 206567. 5496.10   5
  -1   0   3 215579. 5566.02   1
  -1   0   3 221595. 5539.23   5
   1   0  -3 223728. 4950.92   7
  -1   0   1 599190. 13371.8   4
   1   0  -1 608387. 13358.5   4
   1   0   3 86654.5 2228.08   2
  -1   0  -3 87560.7 2299.16   7
  -1   0  -3 86917.0 2270.85   2
   1   0   3 80917.0 2289.98   7
  -1   0  -3 84764.3 2105.03   6
  -1   0  -5 142259. 3918.32   2
  -1   0  -5 150520. 4014.28   1
  -1   0  -5 145634. 3841.87   7
   1   0   5 152061. 3934.72   7
   1   0   5 147588. 3962.09   1
   1   0   5 140195. 3908.49   2
   1   0   7 18949.6 1104.50   1
   1   0   7 18401.4 1030.11   5
  -1   0  -7 16836.2 941.295   7
   1   0   9 16989.6 1137.67   7
  -1   0  -9 15620.7 1134.93   2
  -1   0  -9 16761.8 1237.91   1
   1   0   9 16763.0 1189.33   1
   1   0   9 15355.7 1082.99   5
  -1   0  -9 16332.2 1020.65   7
   1   0  11 1659.76 375.549   7
   1   0  11 1846.82 432.314   5
  -1   0 -11 1701.26 358.841   7
  -1   0 -13 2071.14 424.574   7
   1   0  13 2267.56 523.024   5
   1   0  15 956.960 431.773   5
   1   1 -13 109.460 227.254   1
  -1  -1  13 357.498 301.177   5
  -1  -1  11 8060.63 1022.57   5
  -1  -1  11 7509.00 601.145   4
   1   1 -11 7690.96 668.950   7
   1   1 -11 8236.35 1035.31   1
  -1  -1   9 11298.9 848.398   7
   1   1  -9 10853.7 717.366   7
   1   1  -9 12313.8 1147.20   1
  -1  -1   9 11362.4 726.115   4
  -1  -1   9 10036.4 1035.23   5
   1   1  -7 34412.7 1730.62   5
   1   1  -7 37791.9 1893.37   1
  -1  -1   7 34148.4 1289.71   4
   1   1  -7 35230.3 1304.93   7
  -1  -1   7 35773.7 1846.88   1
  -1  -1   7 35686.6 1439.14   7
  -1  -1   7 33764.3 1786.85   5
  -1  -1   5 127534. 3890.29   5
  -1  -1   5 128158. 3289.22   4
  -1  -1   5 137939. 3951.23   1
  -1  -1   5 127887. 3353.08   7
   1   1  -5 126027. 3267.05   7
  -1  -1   3 3884.15 287.967   4
  -1  -1   3 3975.84 406.534   5
  -1  -1   3 4164.38 414.171   1
   1   1  -3 3889.17 259.833   7
   1   1  -1 329155. 7701.82   1
  -1  -1   1 328395. 7745.36   1
  -1  -1   1 344335. 7651.98   4
   1   1  -1 363902. 7512.42   3
   1   1  -1 347227. 7817.06   6
  -1  -1   1 342083. 7492.37   3
  -1  -1   1 329049. 7804.53   5
   1   1  -1 345381. 7654.84   4
  -1  -1  -1 644232. 14279.5   6
   1   1   3 316105. 7235.21   2
  -1  -1  -3 321115. 7264.17   2
   1   1   3 331278. 7554.36   7
   1   1   3 314724. 7340.33   1
  -1  -1  -3 307646. 7444.02   6
   1   1   5 60921.0 1824.14   5
   1   1   5 58169.1 1932.09   7
  -1  -1  -5 55735.2 1801.11   2
  -1  -1  -5 59028.4 1917.14   7
   1   1   5 57531.4 1884.88   1
   1   1   7 148129. 4000.53   5
   1   1   7 147465. 4152.63   1
   1   1   7 146959. 4110.54   7
  -1  -1  -7 145755. 4005.00   7
  -1  -1  -9 286.549 116.765   7
  -1  -1  -9 805.735 267.666   1
   1   1   9 614.426 202.668   7
   1   1   9 905.014 278.053   1
   1   1   9 871.638 266.746   5
  -1  -1  -9 607.413 209.715   2
  -1  -1 -11 4578.87 645.957   2
   1   1  11 5282.34 660.648   7
  -1  -1 -11 6231.44 797.449   1
   1   1  11 5466.18 703.121   5
  -1  -1 -11 5816.04 646.746   7
   1   1  13 4088.77 684.894   5
  -1  -1 -13 3751.09 578.078   7
   1   1  15 277.247 261.518   3
   1   1  15 197.688 308.088   5
   1   2 -13 476.042 300.053   1
  -1  -2  13 507.638 304.646   5
   1   2 -11 3756.69 481.197   7
   1   2 -11 4541.48 782.264   1
  -1  -2  11 2941.50 644.475   5
   1   2  -9 1778.07 307.336   7
   1   2  -9 2608.80 536.672   1
  -1  -2   9 1640.84 182.447   4
  -1  -2   9 2569.25 549.094   5
  -1  -2   7 18691.5 745.224   4
  -1  -2   7 19643.8 1363.62   5
   1   2  -7 19034.3 1326.11   1
   1   2  -7 20354.4 990.981   7
   1   2  -7 18708.3 1351.47   2
  -1  -2   7 20263.3 1358.81   1
  -1  -2   5 28298.9 1478.55   5
  -1  -2   5 27739.2 945.609   4
   1   2  -5 29896.9 1161.32   7
  -1  -2   5 31595.8 1516.48   1
   1   2  -3 162006. 3817.32   4
  -1  -2   3 161333. 3830.66   4
  -1  -2   3 161372. 4295.89   1
   1   2  -3 154770. 4186.81   6
  -1  -2   3 152440. 4012.19   3
   1   2  -3 168074. 4373.61   1
  -1  -2   3 160323. 4387.28   5
   1   2  -3 160603. 4006.64   7
   1   2  -1 21828.9 839.793   3
  -1  -2   1 21028.8 899.680   6
   1   2  -1 24880.6 902.252   1
  -1  -2   1 21397.2 817.523   3
   1   2  -1 20653.2 854.428   5
  -1  -2   1 20752.7 898.231   5
   1   2  -1 21532.4 812.739   4
  -1  -2   1 21420.8 844.384   1
   1   2  -1 20706.2 895.266   6
   1   2   1 445708. 10160.3   3
   1   2   1 447623. 9809.46   5
  -1  -2  -1 430058. 10188.0   3
  -1  -2  -1 460623. 9847.64   5
  -1  -2  -1 455779. 10177.3   6
   1   2   3 161224. 3974.98   7
  -1  -2  -3 138963. 3527.67   1
   1   2   3 173796. 4144.12   3
   1   2   3 169915. 3578.33   1
  -1  -2  -3 133185. 3898.22   6
   1   2   5 62061.3 1905.24   1
  -1  -2  -5 62768.2 2069.23   7
   1   2   5 63923.8 1776.85   5
  -1  -2  -5 59647.0 1726.87   2
   1   2   5 57914.1 2027.27   7
   1   2   5 59077.0 2145.86   3
  -1  -2  -7 34364.1 1467.31   1
  -1  -2  -7 30970.7 1388.56   7
  -1  -2  -7 27333.4 1226.92   2
   1   2   7 33447.1 1454.67   1
   1   2   7 31423.1 1414.55   7
   1   2   7 31220.1 1535.17   3
   1   2   7 32516.4 1310.59   5
   1   2   9 46261.9 1978.13   7
   1   2   9 46482.7 1960.35   5
   1   2   9 47816.7 2101.11   1
  -1  -2  -9 47695.6 2121.86   1
   1   2   9 44984.9 2124.83   3
  -1  -2  -9 47300.7 1937.99   7
  -1  -2 -11 9105.67 950.741   1
  -1  -2 -11 9617.00 851.040   7
  -1  -2 -11 8097.12 815.800   2
   1   2  11 9607.73 891.861   5
   1   2  11 7695.62 789.946   7
   1   2  11 9072.29 963.976   3
   1   2  13 1741.11 480.556   3
   1   2  13 1984.74 459.751   5
  -1  -2 -13 2325.21 473.859   7
  -1  -2 -13 3040.75 602.498   1
   1   2  15 86.0773 176.909   5
   1   2  15 63.4370 197.484   3
  -1  -3  11 2899.85 687.178   5
   1   3 -11 1999.15 374.654   7
   1   3 -11 1695.16 500.061   1
   1   3  -9 9032.90 858.953   6
   1   3  -9 9645.07 779.444   7
  -1  -3   9 9737.83 1082.38   5
   1   3  -9 11810.5 1179.56   1
   1   3  -7 294.121 169.048   1
   1   3  -7 139.500 109.282   7
  -1  -3   7-59.6083 151.221   5
  -1  -3   5 38319.6 1851.86   5
   1   3  -5 37985.3 1496.74   7
  -1  -3   5 39566.3 1792.52   1
  -1  -3   5 36020.9 1568.03   3
   1   3  -5 38121.9 1807.40   1
   1   3  -5 36821.9 1586.54   6
  -1  -3   3 67785.7 2394.47   5
  -1  -3   3 71357.4 2343.13   1
  -1  -3   3 68137.7 2195.86   3
   1   3  -3 66517.1 1872.72   4
   1   3  -3 65521.8 2201.39   6
   1   3  -3 70233.6 2183.07   7
   1   3  -3 73982.1 2386.81   1
  -1  -3   1 220115. 5349.94   5
   1   3  -1 215341. 5225.45   1
   1   3  -1 202575. 5369.80   2
  -1  -3   1 206822. 5287.57   3
   1   3  -1 218047. 5342.76   3
   1   3  -1 210576. 5323.32   6
  -1  -3   1 218167. 5242.07   1
  -1  -3   1 216038. 5385.49   6
  -1  -3  -1 57727.3 1876.04   6
  -1  -3  -1 56949.8 1499.50   1
  -1  -3  -1 57897.4 1899.44   3
   1   3   1 59443.4 1869.55   6
   1   3   1 57198.1 1881.90   3
   1   3   1 53364.6 1582.46   2
  -1  -3  -1 58341.0 1584.72   5
  -1  -3  -3 3763.40 425.926   6
   1   3   3 4335.08 460.291   3
  -1  -3  -3 5313.53 255.616   1
   1   3   5 30126.5 1331.58   7
   1   3   5 31247.8 941.057   5
   1   3   5 31966.2 1505.21   3
  -1  -3  -5 31579.8 886.712   2
  -1  -3  -5 32113.4 1140.14   1
   1   3   7 117203. 3157.53   5
   1   3   7 117832. 3373.35   1
   1   3   7 118536. 3736.03   3
  -1  -3  -9 30960.2 1548.96   1
   1   3   9 28174.5 1338.53   5
   1   3   9 28246.0 1483.07   1
   1   3   9 27965.8 1460.96   7
   1   3   9 28457.4 1629.95   3
   1   3  11 2628.78 524.589   3
   1   3  11 2780.99 465.493   5
   1   3  11 2478.83 440.146   7
  -1  -3 -11 2539.23 484.283   1
   1   3  11 2258.23 444.969   1
   1   3  13 1381.65 361.803   5
   1   3  13 1070.67 373.239   3
  -1  -3 -13 1070.38 394.058   1
   1   3  15 709.050 316.165   5
  -1  -3 -15 1205.49 423.617   1
   1   3  15 805.773 352.066   3
  -1  -4  11 1943.15 550.882   5
   1   4 -11 2025.12 405.356   7
   1   4  -9 2149.78 408.983   6
  -1  -4   9 2609.12 586.963   5
   1   4  -9 2421.98 417.436   7
  -1  -4   9 1739.79 415.218   3
  -1  -4   7 8783.95 976.648   5
   1   4  -7 9648.26 797.686   7
  -1  -4   7 8688.51 844.547   3
   1   4  -5 21964.3 1156.70   7
   1   4  -5 18397.0 1301.01   2
  -1  -4   5 22625.3 1347.80   1
   1   4  -5 19318.1 1104.38   6
  -1  -4   5 22529.4 1425.81   5
   1   4  -3 50817.6 2118.01   2
  -1  -4   3 57933.2 2206.60   5
   1   4  -3 53099.1 1648.92   4
   1   4  -3 54337.9 1951.95   6
   1   4  -3 52983.2 1976.39   7
  -1  -4   3 51180.8 1999.03   3
  -1  -4   3 55978.3 2075.48   1
  -1  -4   1 36121.3 1377.60   1
  -1  -4   1 34050.9 1446.50   3
   1   4  -1 34166.8 1466.58   3
  -1  -4   1 34545.3 1442.04   6
  -1  -4   1 35904.7 1455.14   5
   1   4  -1 34587.4 1406.82   6
   1   4  -1 30482.6 1361.85   2
  -1  -4  -1 41245.2 1323.41   5
  -1  -4  -1 38703.0 1239.28   1
   1   4   1 40860.2 1516.23   6
   1   4   1 39254.4 1585.30   3
  -1  -4  -1 39775.7 1580.17   6
   1   4   1 37071.7 1295.27   2
   1   4   3 209121. 4728.27   2
  -1  -4  -3 199646. 5579.06   6
  -1  -4  -5 40079.8 1339.08   1
   1   4   5 41303.0 1833.10   3
  -1  -4  -7 7627.94 582.361   1
   1   4   7 7831.89 769.189   3
   1   4   7 7141.59 414.535   5
  -1  -4  -7 5885.55 363.181   2
  -1  -4  -9 3738.72 384.614   2
   1   4   9 4190.20 544.532   7
   1   4   9 5318.91 718.048   3
   1   4   9 4830.92 440.557   5
   1   4  11 3758.34 646.200   3
  -1  -4 -11 4121.30 591.123   1
  -1  -4 -11 4008.64 483.256   2
   1   4  11 3836.95 487.002   5
   1   4  11 3230.57 498.925   7
   1   4  13 3118.78 646.408   3
   1   4  13 3885.72 552.185   5
  -1  -4 -13 4004.88 664.087   1
  -1  -4 -15 861.636 348.153   1
   1   4  15 86.5464 207.672   3
  -1  -5  11 326.652 303.474   5
   1   5 -11 721.298 271.102   7
   1   5  -9 9420.98 899.242   7
  -1  -5   9 6911.97 1017.71   5
   1   5  -7 8097.56 800.263   7
  -1  -5   7 9114.17 1057.31   5
  -1  -5   7 8478.10 889.233   3
   1   5  -5 3194.85 212.197   4
  -1  -5   5 2993.11 499.619   1
   1   5  -5 2616.34 414.268   7
  -1  -5   5 3144.57 547.027   5
  -1  -5   5 2946.11 471.988   3
  -1  -5   3 3434.79 440.670   6
   1   5  -3 3627.33 359.556   4
   1   5  -3 3507.77 433.150   6
   1   5  -3 4431.12 528.035   7
  -1  -5   3 3692.48 486.555   1
   1   5  -3 3697.49 519.114   2
  -1  -5   3 4015.56 520.836   3
  -1  -5   3 3292.83 487.545   5
   1   5  -1 96107.9 3166.19   3
   1   5  -1 95292.1 2974.23   6
  -1  -5   1 100867. 3087.66   5
  -1  -5   1 97906.3 2939.70   1
  -1  -5   1 95306.3 3047.31   6
   1   5   1 174720. 4588.67   2
  -1  -5  -1 182213. 4677.01   5
   1   5   1 192768. 4874.24   6
   1   5   1 178803. 5082.39   3
  -1  -5  -1 182267. 4547.28   1
  -1  -5  -1 179413. 4993.43   6
   1   5   3 67885.7 1876.40   2
   1   5   3 74274.9 2621.42   3
  -1  -5  -3 72898.0 1843.65   5
  -1  -5  -3 64936.8 2577.69   6
  -1  -5  -5 2356.32 260.355   1
  -1  -5  -5 2897.75 517.439   6
  -1  -5  -7 7258.14 556.867   1
   1   5   7 9212.21 796.609   7
   1   5   7 8007.30 825.012   3
  -1  -5  -9 14973.8 644.127   2
   1   5   9 13830.5 1160.84   3
   1   5   9 12233.7 632.704   5
   1   5   9 12047.0 965.738   7
  -1  -5 -11 6838.58 742.005   1
   1   5  11 6401.19 868.808   3
   1   5  11 6451.71 538.369   5
  -1  -5 -13 1069.64 332.708   1
   1   5  13 1144.32 389.165   3
  -1  -5 -15 20.5753 137.850   1
   1   5  15 333.944 256.015   3
   1   6 -11 657.255 281.484   7
  -1  -6   9 1776.88 551.301   5
   1   6  -9 1562.06 394.878   7
  -1  -6   7 8256.22 1049.54   5
   1   6  -7 7328.64 807.436   7
   1   6  -7 7103.33 706.329   6
  -1  -6   5 6676.80 778.461   3
  -1  -6   5 6242.99 850.606   5
   1   6  -5 6501.72 723.670   7
   1   6  -5 6787.54 388.456   4
  -1  -6   3 24148.0 1513.09   5
   1   6  -3 20583.1 1357.61   2
  -1  -6   3 20391.1 1345.88   3
  -1  -6   3 22192.5 1345.67   1
  -1  -6   3 20805.5 1228.62   6
   1   6  -3 21276.7 1335.56   7
  -1  -6   1 6261.62 605.262   1
   1   6  -1 6812.21 664.288   2
  -1  -6   1 7828.70 738.213   5
   1   6  -1 6683.65 733.356   3
  -1  -6   1 7545.92 722.913   6
  -1  -6   1 7030.63 734.678   3
  -1  -6  -1 51406.8 1927.37   5
  -1  -6  -1 55458.6 2222.84   6
   1   6   1 54156.5 1879.96   2
  -1  -6  -1 51098.1 2272.07   3
   1   6   1 55259.7 2342.16   3
  -1  -6  -1 53912.3 1861.20   1
  -1  -6  -3 21350.1 870.784   5
  -1  -6  -3 21848.8 1403.55   6
   1   6   3 21850.9 893.135   2
   1   6   3 22700.1 1391.82   3
  -1  -6  -5 25435.6 1040.88   1
  -1  -6  -5 26356.6 1653.67   3
   1   6   5 27030.4 1576.11   3
  -1  -6  -5 27575.8 1746.66   6
  -1  -6  -7 27547.6 1778.27   3
   1   6   7 28894.5 1588.85   7
   1   6   7 28764.9 1702.36   3
  -1  -6  -7 27973.9 1201.88   1
  -1  -6  -7 24193.6 1830.19   6
   1   6   9 10924.7 1073.28   3
  -1  -6  -9 9447.18 1138.63   6
   1   6  11 914.582 328.061   3
   1   6  11 828.353 164.488   5
  -1  -6 -11 911.038 134.541   2
  -1  -6 -11 1269.43 313.269   1
   1   6  13 559.480 312.308   3
  -1  -6 -13 842.053 288.007   1
   1   6  15-13.1747 146.562   3
   1   7  -9 900.739 338.549   7
  -1  -7   9 728.250 420.575   5
   1   7  -7 3316.00 591.049   7
  -1  -7   7 3797.33 769.481   5
   1   7  -5 17666.0 1159.87   6
   1   7  -5 17810.3 1326.89   7
  -1  -7   5 18349.8 1543.65   5
  -1  -7   3 656.459 290.915   5
   1   7  -3 401.941 207.326   7
  -1  -7   3 654.645 226.547   6
   1   7  -3 465.849 189.698   6
  -1  -7   3 1031.79 290.949   1
  -1  -7   1 10372.6 932.731   6
  -1  -7   1 11846.9 929.628   1
   1   7  -1 10867.5 901.173   2
   1   7  -1 11125.4 1039.11   3
  -1  -7   1 9846.92 927.941   5
  -1  -7   1 10602.8 997.784   3
   1   7  -1 11464.0 848.714   6
  -1  -7  -1 5790.27 604.261   5
   1   7   1 7564.56 837.199   3
   1   7   1 6967.10 601.365   2
  -1  -7  -1 7477.04 779.507   6
  -1  -7  -1 7348.51 815.967   3
  -1  -7  -1 6101.77 578.425   1
  -1  -7  -3 20521.6 1466.34   6
   1   7   3 21038.2 968.946   2
  -1  -7  -3 20542.1 984.094   5
   1   7   3 21899.1 1454.05   3
  -1  -7  -3 24692.7 1591.59   3
   1   7   5 28866.0 1744.65   3
  -1  -7  -5 28091.4 1927.65   6
  -1  -7  -7 7670.98 581.239   1
   1   7   7 9362.95 963.591   3
  -1  -7  -7 7402.17 1039.50   6
  -1  -7  -9 3322.50 730.697   6
   1   7   9 3467.20 612.906   3
   1   7  11 1644.18 459.591   3
  -1  -7 -11 2332.77 411.277   1
  -1  -7 -11 3125.23 726.690   6
   1   7  13 1798.61 501.192   3
  -1  -7 -13 845.379 402.653   6
   1   8  -9 771.721 345.094   7
  -1  -8   7 1145.53 481.226   5
   1   8  -7 1639.60 427.222   7
  -1  -8   5 2751.80 641.578   5
   1   8  -5 2931.14 556.401   7
  -1  -8   3 11452.2 1196.68   5
   1   8  -3 12257.2 1132.81   7
  -1  -8   3 12160.7 1034.38   6
  -1  -8   1 2090.53 458.349   5
   1   8  -1 2476.51 449.703   2
  -1  -8   1 2531.90 484.415   6
  -1  -8   1 2911.26 493.699   1
   1   8  -1 2886.84 556.085   3
  -1  -8  -1 6131.36 785.324   6
  -1  -8  -1 6636.38 665.241   1
   1   8   1 6464.40 623.757   2
  -1  -8  -1 6010.20 681.207   5
   1   8   1 6002.23 802.418   3
  -1  -8  -3 27439.9 1257.42   5
   1   8   3 25686.8 1727.07   3
   1   8   3 25917.1 1195.51   2
  -1  -8  -3 23881.6 1672.65   6
  -1  -8  -5 94.4308 51.5236   5
  -1  -8  -5 297.424 246.982   6
  -1  -8  -5 124.288 64.0354   5
   1   8   5-59.2643 85.3954   2
   1   8   5 489.350 283.094   3
   1   8   7 2760.50 569.619   3
  -1  -8  -7 2640.08 358.984   1
  -1  -8  -7 2307.72 631.947   6
  -1  -8  -9 3849.45 448.193   1
  -1  -8  -9 3992.00 862.289   6
   1   8   9 4726.28 754.527   3
   1   8  11 1858.78 497.253   3
  -1  -8 -11 1704.89 621.581   6
   1   8  13 768.912 336.570   3
  -1  -9   7 613.842 386.354   5
   1   9  -7 242.935 212.614   7
  -1  -9   5 2197.99 642.663   5
   1   9  -5 2576.15 558.416   7
  -1  -9   3 5047.55 678.450   6
   1   9  -3 5393.55 797.932   7
  -1  -9   3 4176.57 798.917   5
  -1  -9   1 3258.65 628.154   5
  -1  -9   1 3154.12 569.123   6
   1   9  -1 3546.38 638.240   7
  -1  -9   1 3691.80 605.315   1
  -1  -9  -1 15570.0 1340.51   6
  -1  -9  -1 17435.0 1221.58   1
   1   9   1 15525.1 1084.70   2
   1   9   1 18613.0 1537.04   3
  -1  -9  -1 15225.3 1193.64   5
   1   9   3 1044.66 235.775   2
  -1  -9  -3 919.245 263.797   5
  -1  -9  -3 486.763 259.482   6
  -1  -9  -3 759.215 229.290   1
   1   9   3 833.710 320.088   3
  -1  -9  -5 3636.76 290.473   5
  -1  -9  -5 3067.65 680.568   6
  -1  -9  -5 3393.11 264.475   5
  -1  -9  -7 1467.39 262.335   1
  -1  -9  -7 1416.39 512.827   6
   1   9   7 1723.66 454.578   3
   1   9   9 1831.31 514.771   3
  -1  -9  -9 1217.84 523.574   6
   1   9  11 288.711 232.449   3
  -1  -9 -11 683.783 424.822   6
  -1 -10   5 554.695 342.521   5
   1  10  -5 664.484 335.311   7
  -1 -10   3 772.921 401.745   5
   1  10  -3 1442.93 435.552   7
  -1 -10   1 3534.14 704.032   5
   1  10  -1 5225.80 831.220   7
  -1 -10   1 4706.42 738.621   6
  -1 -10  -1 116.830 135.187   6
  -1 -10  -1 491.610 248.617   5
   1  10   1 650.256 361.530   3
  -1 -10  -3 10369.3 840.429   5
  -1 -10  -3 9615.73 1176.00   6
  -1 -10  -5 3429.17 755.874   6
   1  10   5 3356.20 717.353   3
   1  10   7 1680.44 489.895   3
  -1 -10  -7 790.397 412.543   6
  -1 -10  -9 1612.32 657.120   6
   1  10   9 1148.38 428.711   3
  -1 -11   3 126.831 189.704   5
   1  11  -1 345.221 248.531   7
  -1 -11   1-220.605 163.509   5
  -1 -11   1 848.599 338.618   6
  -1 -11  -1 1036.68 333.192   5
   1  11   1 2141.16 571.421   7
  -1 -11  -1 1991.47 505.136   6
   1  11   1 2161.09 610.712   3
  -1 -11  -3 2403.36 608.090   6
   1  11   3 2212.91 606.135   3
  -1 -11  -5 1393.54 524.418   6
   1  11   5 1548.17 566.879   3
   1  11   7 503.007 292.699   3
  -1 -11  -7 826.650 451.189   6
  -1 -12  -1 282.220 260.344   6
  -1 -12  -3 349.516 330.503   6
  -1 -12  -5 662.335 372.575   6
   2 -12  -4 170.194 206.241   6
   2 -12   0 455.468 301.242   2
  -2  11   8 307.948 216.645   7
   2 -11  -6 67.9373 212.029   6
  -2  11   6 1269.72 431.660   7
   2 -11  -4 1193.92 434.167   6
  -2  11   4 825.637 356.061   7
   2 -11  -2 1148.00 422.355   2
   2 -11  -2 1082.13 408.569   6
  -2  11   2 1849.92 553.782   7
   2 -11   0 391.420 282.871   2
  -2  11   0 884.467 387.652   7
   2 -11   2 230.357 252.973   2
  -2  10  10-212.113 213.164   3
  -2  10   8 671.071 279.544   7
   2 -10  -8 847.712 347.483   1
  -2  10   8 361.719 289.103   3
  -2  10   6 1518.61 511.156   3
  -2  10   6 1032.89 373.579   7
   2 -10  -6 1668.79 533.716   6
   2 -10  -6 646.363 246.582   2
   2 -10  -4 3454.60 716.443   6
   2 -10  -4 3320.66 619.825   2
  -2  10   4 3649.94 678.327   7
  -2  10   4 4206.89 806.673   3
  -2  10   2 1629.34 452.993   7
   2 -10  -2 1203.72 421.075   6
   2 -10  -2 1353.10 419.399   2
  -2  10   0 1875.01 494.754   7
   2 -10   0 1591.00 387.941   6
   2 -10   0 1990.98 546.472   2
  -2  10  -2 1597.65 376.425   4
  -2  10  -2 2213.31 559.415   7
   2 -10   2 1533.20 469.604   2
  -2  10  -4 1169.81 400.470   7
   2 -10   4 1472.25 497.766   2
  -2   9  12 39.6525 126.292   3
   2  -9 -10 965.796 389.276   1
  -2   9  10 463.455 301.301   3
   2  -9  -8 802.772 356.171   1
  -2   9   8 891.755 387.271   3
   2  -9  -6 2819.52 518.973   2
  -2   9   6 2902.24 551.952   7
  -2   9   6 2613.57 599.513   3
  -2   9   4 1513.63 462.686   3
  -2   9   4 887.325 335.597   7
   2  -9  -4 1127.93 344.926   2
   2  -9  -4 593.339 319.559   6
   2  -9  -2 3021.40 612.144   2
  -2   9   2 3835.68 657.157   7
   2  -9  -2 3225.26 610.699   6
   2  -9   0 9747.36 932.353   6
   2  -9   0 9592.77 1106.40   2
  -2   9   0 10179.6 1097.50   7
   2  -9   2 8716.02 1123.09   2
  -2   9  -2 9539.85 1106.44   7
  -2   9  -2 9148.79 861.518   4
   2  -9   2 9290.95 792.762   6
   2  -9   4 1172.83 453.423   2
  -2   9  -4 1233.58 400.276   7
   2  -9   6 1857.48 549.113   5
  -2   9  -6 1712.81 522.610   7
  -2   8  12 588.234 277.247   3
   2  -8 -12 235.054 238.059   1
   2  -8 -10 706.890 326.925   1
  -2   8  10 704.250 295.309   3
   2  -8  -8 1360.53 335.552   2
   2  -8  -8 1097.03 358.009   1
  -2   8   8 1871.36 485.455   3
   2  -8  -6 352.251 209.858   2
   2  -8  -6 901.823 274.885   5
  -2   8   6 1423.79 418.864   3
   2  -8  -4 6331.05 762.825   2
  -2   8   4 6192.97 769.806   7
  -2   8   4 6061.84 841.907   3
   2  -8  -4 5823.77 673.317   5
  -2   8   2 10020.9 1014.77   7
   2  -8  -2 9892.25 1017.53   2
  -2   8   2 9367.87 1083.52   3
  -2   8   2 9557.82 900.261   2
   2  -8  -2 10033.0 977.994   6
   2  -8   0 11688.8 1136.00   2
   2  -8   0 11181.8 949.465   6
  -2   8   0 11430.2 1090.88   7
   2  -8   2 4847.83 531.471   6
  -2   8  -2 6098.26 811.256   7
   2  -8   2 5067.28 803.543   2
   2  -8   4 9615.41 1175.37   2
  -2   8  -4 11745.9 861.370   4
  -2   8  -4 12355.8 1221.24   7
  -2   8  -6 3100.75 631.383   7
   2  -8   6 5617.48 953.895   2
  -2   8  -8 2219.54 582.560   7
   2  -8   8 3083.44 712.682   5
   2  -7 -12 35.5037 142.615   1
  -2   7  12 414.342 241.852   3
   2  -7 -10 984.574 288.105   2
   2  -7 -10 775.987 353.895   1
  -2   7  10 681.807 285.147   3
   2  -7  -8 2190.68 459.110   2
   2  -7  -8 1631.94 429.195   1
   2  -7  -8 1462.27 332.553   5
  -2   7   8 1693.66 404.354   3
   2  -7  -6 7042.13 717.276   5
  -2   7   6 8206.20 935.203   3
   2  -7  -6 8580.04 835.911   2
  -2   7   4 16690.7 1325.00   3
   2  -7  -4 15220.6 1126.29   2
  -2   7   4 14723.3 1124.90   7
   2  -7  -4 15300.0 1073.30   5
   2  -7  -2 3141.32 479.296   5
  -2   7   2 2387.93 445.981   7
  -2   7   2 2219.50 485.771   3
  -2   7   2 2358.95 418.945   2
   2  -7  -2 3015.80 510.143   2
  -2   7   0 453.339 199.402   2
   2  -7   0 136.561 99.6241   6
  -2   7   0 654.396 225.429   7
   2  -7   0 261.321 211.275   2
   2  -7   2 27129.3 1267.00   6
   2  -7   2 26341.0 1718.57   2
  -2   7  -2 28770.2 1718.33   7
   2  -7   4 3924.51 680.307   2
  -2   7  -4 3839.49 457.779   4
  -2   7  -4 3938.06 632.964   7
   2  -7   6 9720.83 1168.50   2
  -2   7  -6 4984.95 785.397   7
   2  -7   8 10764.5 1230.82   5
  -2   7  -8 8335.01 1037.53   7
  -2   7 -10 649.607 316.738   7
   2  -6 -14 123.662 257.595   1
  -2   6  12 133.402 149.157   3
   2  -6 -12 167.263 182.743   1
  -2   6  12 516.926 222.135   5
   2  -6 -10 2633.32 499.252   2
  -2   6  10 2277.82 418.391   5
   2  -6 -10 2574.55 551.492   1
  -2   6  10 3147.98 550.362   3
   2  -6  -8 7477.65 794.147   2
  -2   6   8 6589.60 620.955   7
  -2   6   8 8348.83 850.665   3
   2  -6  -8 6543.25 836.166   1
   2  -6  -8 6217.43 785.126   3
   2  -6  -8 6357.61 716.969   5
   2  -6  -6 9316.98 849.543   2
  -2   6   6 8417.57 867.374   3
   2  -6  -6 9364.91 941.174   3
   2  -6  -6 8586.52 764.775   5
   2  -6  -4 10001.6 931.163   3
   2  -6  -4 11279.4 899.617   2
  -2   6   4 10450.4 950.888   3
  -2   6   2 4745.62 589.127   7
  -2   6   2 4361.26 542.008   2
   2  -6  -2 4042.40 565.990   3
   2  -6  -2 3331.04 469.145   5
  -2   6   2 4382.93 611.713   3
   2  -6  -2 4826.74 569.649   2
   2  -6   0 27385.8 1541.02   2
   2  -6   0 28035.7 1621.24   3
  -2   6   0 28212.5 1488.46   2
  -2   6   0 27883.0 1530.70   7
  -2   6  -2 7447.27 648.409   4
  -2   6  -2 7673.17 790.130   7
  -2   6  -2 7938.79 778.715   2
   2  -6   2 7736.67 574.425   6
   2  -6   2 8803.50 881.012   2
  -2   6  -4 11480.2 758.891   4
  -2   6  -4 10908.4 1003.14   7
  -2   6  -6 2919.17 269.402   4
  -2   6  -6 3047.26 549.653   7
  -2   6  -8 1058.87 362.548   7
   2  -6   8 1430.60 411.822   5
  -2   6 -10 6005.51 864.815   7
   2  -6  10 5654.01 897.544   5
   2  -5 -14 266.377 284.317   1
  -2   5  12 837.129 287.095   3
   2  -5 -12 587.113 302.905   1
  -2   5  12 695.221 233.065   5
   2  -5 -10 4350.29 613.231   5
  -2   5  10 4536.95 613.136   5
   2  -5 -10 4821.50 738.653   1
  -2   5  10 4780.08 632.341   3
   2  -5 -10 5488.94 722.752   2
   2  -5  -8 10753.0 1038.97   1
   2  -5  -8 11850.2 1005.09   2
  -2   5   8 10996.0 936.253   3
   2  -5  -8 10724.4 957.599   3
  -2   5   8 9054.70 656.234   7
  -2   5   8 10864.7 855.220   5
   2  -5  -8 8997.27 855.060   5
   2  -5  -6 3227.04 506.564   3
  -2   5   6 4085.96 535.141   3
   2  -5  -6 4693.90 595.271   2
   2  -5  -4 30147.5 1499.45   2
  -2   5   4 26495.9 1474.60   3
   2  -5  -4 26058.1 1450.43   3
  -2   5   2 113543. 3403.97   7
   2  -5  -2 103679. 3453.18   3
  -2   5   2 106756. 3575.87   3
  -2   5   2 101016. 3315.91   2
   2  -5  -2 110585. 3443.62   2
  -2   5   0 23246.0 1271.61   7
   2  -5   0 22258.5 1252.66   2
   2  -5   0 22145.7 1339.09   3
  -2   5   0 21291.1 1214.58   2
   2  -5   2 75036.7 2801.60   2
  -2   5  -2 72977.3 2434.95   4
  -2   5  -2 71173.5 2669.94   2
   2  -5   2 71031.1 2854.92   3
   2  -5   2 77822.9 2190.43   6
  -2   5  -2 75327.4 2747.28   7
  -2   5  -4 21935.1 1039.33   4
   2  -5   4 20646.4 1449.62   3
  -2   5  -4 21109.9 1323.82   7
   2  -5   4 19384.2 1344.51   2
  -2   5  -4 23445.0 1430.72   2
  -2   5  -6 6398.80 391.973   4
   2  -5   6 8317.20 933.992   2
  -2   5  -6 7768.53 825.975   7
  -2   5  -8 18640.5 1369.73   7
   2  -5   8 15578.2 1431.02   2
   2  -5   8 16670.3 1380.23   5
   2  -5  10 2839.48 604.864   5
  -2   5 -10 2832.76 559.070   7
  -2   5 -12 494.068 262.215   7
  -2   4  14 36.5408 181.807   5
  -2   4  14 722.417 352.821   4
   2  -4 -14 889.947 393.908   1
  -2   4  12 1148.15 304.459   3
  -2   4  12 897.459 329.240   5
   2  -4 -12 856.387 336.224   1
  -2   4  10 3211.99 481.081   3
  -2   4  10 2898.81 486.569   5
  -2   4  10 3704.51 354.465   7
   2  -4 -10 3678.82 666.165   1
  -2   4   8 4658.98 413.167   7
  -2   4   8 5954.28 614.316   3
   2  -4  -8 6115.73 778.345   1
   2  -4  -8 5267.64 647.156   5
  -2   4   8 5457.75 596.445   5
   2  -4  -6 24443.5 1555.42   1
   2  -4  -6 24770.2 1351.44   3
   2  -4  -6 29448.8 1523.44   2
  -2   4   6 27337.1 1357.24   5
  -2   4   6 28360.5 1374.74   3
  -2   4   4 95005.5 3005.21   3
   2  -4  -4 89814.8 2959.03   3
   2  -4  -4 93323.5 3077.63   2
   2  -4  -4 89703.7 2938.89   5
  -2   4   2 124141. 3642.71   3
   2  -4  -2 111532. 3467.56   3
  -2   4   2 115183. 3453.42   2
   2  -4  -2 118753. 3555.84   2
  -2   4   2 123402. 3424.28   7
   2  -4  -2 111932. 3427.48   5
   2  -4   0 25683.7 1279.81   2
   2  -4   0 24144.8 1309.13   3
  -2   4   0 26064.8 1244.45   7
  -2   4   0 25254.1 1245.43   2
  -2   4  -2 79296.1 2493.09   4
   2  -4   2 80139.4 2763.09   2
  -2   4  -2 81530.2 2724.13   7
  -2   4  -4 99501.6 2830.30   4
   2  -4   4 93957.2 3295.96   2
  -2   4  -4 104562. 3341.87   7
   2  -4   6 120711. 3996.98   2
  -2   4  -6 104320. 3661.89   7
  -2   4  -8 672.796 272.582   7
   2  -4   8 566.046 282.178   2
   2  -4  10 5668.23 805.011   5
  -2   4 -10 6659.60 817.036   7
   2  -4  12 1508.32 466.739   5
  -2   4 -12 1776.03 461.978   7
  -2   4 -14 294.609 242.755   7
  -2   3  14 238.769 182.967   5
  -2   3  14 118.301 227.379   4
  -2   3  12 763.387 256.643   3
  -2   3  12 500.369 256.513   5
  -2   3  12 354.827 220.974   4
   2  -3 -12 399.437 191.284   1
  -2   3  10 38.1068 97.3527   3
  -2   3  10 140.507 197.197   5
   2  -3 -10 405.064 285.986   1
  -2   3  10 146.758 71.3915   7
   2  -3  -8 37733.8 1920.54   5
  -2   3   8 37228.5 1268.47   7
   2  -3  -8 40083.0 2106.99   1
  -2   3   8 39729.2 1653.43   3
  -2   3   8 40093.9 1863.20   5
  -2   3   6 27453.0 999.931   7
  -2   3   6 30262.9 1311.32   3
   2  -3  -6 29029.7 1628.07   1
  -2   3   6 29733.5 1417.76   5
   2  -3  -6 27771.0 1322.51   3
   2  -3  -4 13243.3 890.401   2
   2  -3  -4 12316.6 766.846   3
  -2   3   4 12982.5 821.108   5
   2  -3  -4 10976.8 786.164   5
  -2   3   4 12768.1 766.922   3
  -2   3   2 10596.3 702.714   3
   2  -3  -2 10390.2 664.203   3
   2  -3  -2 11285.2 776.004   2
  -2   3   2 9893.82 605.947   7
   2  -3  -2 10539.0 712.458   5
   2  -3   0 109727. 3304.15   3
  -2   3   0 115163. 3258.42   4
   2  -3   0 117656. 3317.37   2
  -2   3   0 116279. 3210.10   7
  -2   3   0 109444. 3261.69   2
  -2   3  -2 139637. 3794.57   4
  -2   3  -2 145184. 3971.80   7
   2  -3   2 140981. 4024.88   2
  -2   3  -4 560137. 13137.8   7
  -2   3  -4 552875. 12628.0   4
   2  -3   4 555166. 13228.5   2
   2  -3   6 3532.79 509.510   1
  -2   3  -6 4239.49 524.683   7
   2  -3   6 3773.80 518.551   7
  -2   3  -6 4311.79 581.471   2
   2  -3   6 4329.02 570.513   2
   2  -3   8 13590.6 1195.97   2
  -2   3  -8 17288.4 1187.34   7
   2  -3  10 12939.9 1173.58   5
  -2   3 -10 12742.5 1099.28   7
   2  -3  12 2047.36 524.935   5
  -2   3 -12 1843.63 450.945   7
  -2   3 -14 771.179 324.747   7
  -2   2  14 146.332 176.559   5
   2  -2 -14 198.159 252.280   1
  -2   2  12 730.305 246.846   3
  -2   2  12 1196.38 385.806   4
   2  -2 -12 439.836 283.913   1
  -2   2  12 1217.30 391.942   5
  -2   2  10 5241.37 364.390   7
  -2   2  10 7195.29 665.090   3
  -2   2  10 6441.01 847.841   4
   2  -2 -10 5801.62 831.686   1
  -2   2  10 6418.58 790.474   5
  -2   2   8 1541.99 365.582   5
   2  -2  -8 1209.78 329.248   5
   2  -2  -8 2114.85 466.805   1
  -2   2   8 1456.89 159.427   7
  -2   2   8 1779.89 290.578   3
  -2   2   6 5483.70 280.668   7
  -2   2   6 5655.88 457.764   3
  -2   2   6 4785.90 554.818   5
   2  -2  -6 6047.22 703.002   1
   2  -2  -6 5458.66 623.860   5
   2  -2  -4 5723.12 428.116   3
  -2   2   4 3835.25 253.558   7
  -2   2   4 4777.80 383.332   3
  -2   2   4 5152.49 504.049   5
   2  -2  -4 4628.91 499.541   5
   2  -2  -2 243510. 5810.85   3
  -2   2   2 247026. 5676.49   7
  -2   2   2 241439. 5877.14   3
   2  -2  -2 248079. 6187.93   2
  -2   2   2 244594. 6060.16   5
   2  -2  -2 232775. 6043.41   5
  -2   2   0 106108. 2948.68   4
  -2   2   0 100200. 2918.95   2
  -2   2   0 105999. 2795.57   7
   2  -2   0 100172. 2866.65   3
   2  -2   0 104037. 2964.32   2
   2  -2   0 100880. 2743.79   7
   2  -2   2 21.3184 133.406   2
  -2   2  -2 146.136 86.3178   4
   2  -2   4 27612.1 1291.95   2
  -2   2  -4 27937.8 1064.25   4
   2  -2   4 26681.6 1017.62   4
  -2   2  -4 28067.1 1265.98   7
   2  -2   6 218961. 5381.72   4
   2  -2   6 215667. 6111.31   1
   2  -2   6 251737. 6232.70   2
  -2   2  -6 228992. 6069.45   7
   2  -2   6 223411. 6144.49   7
  -2   2  -6 241748. 6343.18   2
  -2   2  -8 24866.3 1381.90   7
   2  -2   8 23180.3 837.189   4
   2  -2   8 20309.9 1403.70   2
  -2   2  -8 24575.9 1546.03   2
   2  -2   8 21450.0 1408.28   7
  -2   2  -8 24136.2 825.822   6
   2  -2  10 8349.77 903.898   5
  -2   2 -10 8913.33 871.360   7
  -2   2 -10 10248.0 594.956   6
   2  -2  12 8023.96 950.846   5
  -2   2 -12 7052.94 858.581   7
   2  -2  14 260.082 239.306   5
  -2   2 -14 283.257 188.800   7
  -2   1  14 478.082 323.851   5
  -2   1  12 3937.45 735.358   5
   2  -1 -12 5442.28 898.033   1
  -2   1  12 3367.33 608.294   4
  -2   1  12 3844.24 542.616   3
  -2   1  10 304.226 140.920   3
  -2   1  10 667.406 336.760   5
   2  -1 -10 504.315 252.545   1
  -2   1  10 95.2440 93.2565   4
   2  -1  -8 10329.2 937.768   5
  -2   1   8 9384.46 899.107   5
   2  -1  -8 8941.22 922.184   1
  -2   1   8 8402.68 834.320   4
  -2   1   8 9028.29 660.234   3
  -2   1   6 65305.7 2401.16   4
  -2   1   6 62618.1 2434.79   5
  -2   1   6 61344.8 1912.95   3
   2  -1  -6 65268.7 2526.51   5
   2  -1  -4 32762.0 1491.61   5
  -2   1   4 34317.0 1437.60   4
  -2   1   4 30227.1 995.466   3
  -2   1   4 33375.5 1468.12   5
   2  -1  -2 51983.8 1396.29   3
   2  -1  -2 48609.9 1755.38   5
  -2   1   2 53109.9 1809.48   4
  -2   1   2 51001.9 1775.05   5
  -2   1   2 51875.3 1313.79   7
   2  -1   0 999.735 139.173   7
   2  -1   0 1007.88 203.482   2
  -2   1   0 1165.88 158.396   7
  -2   1   0 1358.23 218.584   4
   2  -1   2 128.745 97.8747   2
  -2   1  -2 172.307 70.7549   2
   2  -1   2 309.111 76.9212   6
  -2   1  -2 361.342 115.425   4
  -2   1  -2 168.870 85.0363   7
   2  -1   2 434.238 122.644   7
   2  -1   2 351.089 117.046   4
   2  -1   4 49058.8 1737.60   2
  -2   1  -4 48710.1 1584.99   4
  -2   1  -4 49587.6 1346.42   6
   2  -1   4 45769.2 1559.88   4
  -2   1  -4 49871.8 1758.93   7
  -2   1  -4 52819.4 1823.48   2
  -2   1  -6 126729. 3522.75   7
   2  -1   6 123836. 3505.16   2
   2  -1   6 107432. 3055.76   4
   2  -1   6 109831. 3451.98   1
  -2   1  -6 111873. 2886.79   6
   2  -1   8 7213.64 749.772   7
  -2   1  -8 7612.60 702.224   7
  -2   1  -8 7494.91 778.800   2
   2  -1   8 7945.99 772.910   1
   2  -1   8 7616.69 775.315   2
  -2   1  -8 8593.39 553.154   6
   2  -1   8 7780.97 539.752   4
   2  -1  10 14455.0 1148.53   5
   2  -1  10 15008.7 799.197   4
  -2   1 -10 17493.1 947.458   6
  -2   1 -10 16303.1 1164.72   7
   2  -1  12 2732.41 530.507   5
  -2   1 -12 4016.16 479.081   6
  -2   1 -12 3455.27 576.057   7
   2  -1  14 1152.16 406.156   5
  -2   1 -14 1577.74 424.758   7
  -2   0  12 646.359 260.918   4
   2   0 -12 278.340 196.229   1
   2   0 -10 10254.7 1131.91   1
   2   0 -10 9793.23 577.748   7
  -2   0  10 9688.50 891.384   4
  -2   0  10 10213.6 1113.98   5
  -2   0  10 9824.67 789.055   3
   2   0  -8 12148.2 1088.91   1
   2   0  -8 12474.9 1058.73   5
   2   0  -8 11928.5 565.379   7
  -2   0   8 12724.7 942.865   4
  -2   0   8 12747.6 1115.44   5
  -2   0   8 12219.3 752.337   3
   2   0  -6 19135.6 1238.12   5
   2   0  -6 19626.4 621.171   7
  -2   0   6 20253.6 1335.04   1
  -2   0   6 18875.7 1072.96   4
  -2   0   6 18952.4 822.024   3
  -2   0   6 20005.2 1266.97   5
  -2   0   4 82446.7 2574.93   4
  -2   0   4 82876.6 1998.55   3
  -2   0   4 81962.2 2761.65   5
  -2   0   2 143.212 133.632   5
  -2   0   2 110.513 80.5154   4
   2   0  -2 196.329 84.0537   4
   2   0  -2 219.686 128.984   1
   2   0   0 296503. 6892.23   7
  -2   0   0 320390. 7262.39   4
  -2   0   0 297697. 6955.75   7
  -2   0   0 313017. 7170.39   5
   2   0   2 847.946 152.169   2
  -2   0  -2 1082.62 170.472   2
  -2   0  -2 782.293 163.732   4
   2   0   2 671.774 153.340   4
   2   0   2 783.158 144.779   7
  -2   0  -2 820.783 140.452   6
   2   0   2 1078.18 164.266   6
  -2   0  -2 1093.58 186.414   7
   2   0   4 101236. 2909.11   4
   2   0   4 100108. 2832.80   2
  -2   0  -4 107881. 3002.74   7
  -2   0  -4 104599. 2917.03   2
  -2   0  -4 102966. 2716.22   6
  -2   0  -6 60797.7 2164.10   2
   2   0   6 57411.0 2009.75   4
   2   0   6 55826.9 2058.06   1
   2   0   6 62034.2 2060.96   2
  -2   0  -6 59285.6 1908.08   6
   2   0   8 7569.30 681.534   5
   2   0   8 7851.85 736.326   1
   2   0   8 8046.25 643.110   4
   2   0   8 8323.13 790.278   7
  -2   0  -8 7259.33 689.802   7
  -2   0  -8 8179.92 769.796   2
  -2   0  -8 10003.9 691.299   6
  -2   0 -10 732.764 265.265   2
   2   0  10 493.938 216.452   5
  -2   0 -10 526.378 174.272   7
   2   0  10 556.757 173.650   4
  -2   0 -10 663.527 203.691   6
   2   0  12 9323.62 942.831   5
  -2   0 -12 10365.1 874.595   6
   2   0  14 1348.75 417.935   5
  -2   0 -14 1900.89 474.614   7
  -2  -1  12 4139.58 793.066   5
   2   1 -12 2993.44 679.331   1
   2   1 -10 2825.33 613.019   1
  -2  -1  10 2458.59 554.256   5
   2   1 -10 2515.77 313.153   7
  -2  -1  10 2531.14 404.954   4
   2   1  -8 5758.43 766.932   1
  -2  -1   8 5368.24 550.359   4
  -2  -1   8 5319.24 749.643   5
   2   1  -8 5455.76 402.360   7
   2   1  -6 102334. 3518.38   1
   2   1  -6 100038. 3465.95   5
  -2  -1   6 102909. 3628.55   1
   2   1  -6 101837. 2598.79   7
  -2  -1   6 104037. 3088.93   4
  -2  -1   6 98055.3 3541.82   5
  -2  -1   4 17411.7 911.441   4
  -2  -1   4 19149.0 1146.54   1
   2   1  -4 18661.3 645.892   7
  -2  -1   4 17749.5 641.003   3
  -2  -1   4 18629.5 1132.69   5
  -2  -1   2 80290.2 2423.69   4
   2   1  -2 82479.5 2391.55   4
   2   1  -2 83059.1 2546.09   1
  -2  -1   2 81785.0 2577.38   5
   2   1   0 111224. 2811.59   3
  -2  -1   0 116119. 3095.45   4
   2   1   0 110947. 3082.70   4
   2   1   0 109697. 2870.16   7
  -2  -1   0 116534. 3130.03   6
   2   1   0 113940. 3046.13   5
  -2  -1   0 118036. 3043.25   5
  -2  -1  -2 293981. 7129.51   7
   2   1   2 304543. 6921.52   2
   2   1   2 288372. 7084.75   7
  -2  -1  -2 309700. 7156.68   6
   2   1   2 300162. 7115.02   6
   2   1   2 303023. 6962.84   5
  -2  -1  -4 39424.9 1509.34   7
  -2  -1  -4 39707.0 1419.14   6
  -2  -1  -4 40676.7 1331.81   2
   2   1   4 39549.6 1327.85   6
   2   1   4 39047.4 1266.09   2
  -2  -1  -6 34463.0 1400.20   2
   2   1   6 35814.9 1450.92   1
   2   1   6 36801.8 1370.20   2
  -2  -1  -6 34865.0 1452.29   6
   2   1   8 28437.2 1404.40   1
   2   1   8 25886.6 1260.67   5
   2   1   8 25892.4 1446.70   7
  -2  -1  -8 28048.1 1420.75   7
  -2  -1  -8 29760.9 1420.36   6
   2   1  10 11834.8 906.441   5
  -2  -1 -10 12793.6 998.106   7
  -2  -1 -10 10720.8 961.617   2
   2   1  10 12806.7 1059.25   7
  -2  -1 -10 13269.9 990.174   6
   2   1  10 11351.3 980.563   1
   2   1  12 3622.39 590.011   5
  -2  -1 -12 3160.24 527.264   6
  -2  -1 -12 3241.52 549.221   7
  -2  -1 -14 471.330 224.771   7
   2   1  14 835.208 300.567   5
  -2  -1 -14 846.769 298.572   6
   2   1  16 629.814 428.041   3
   2   1  16 460.772 300.070   5
  -2  -2  12 895.294 409.539   5
   2   2 -12 492.611 256.814   1
   2   2 -10 5724.44 852.488   1
  -2  -2  10 4802.33 786.767   5
  -2  -2  10 4287.74 433.195   4
   2   2 -10 4368.78 444.778   7
   2   2  -8 8706.73 594.884   7
   2   2  -8 9719.48 1033.07   1
  -2  -2   8 8763.39 644.554   4
  -2  -2   8 8301.80 686.581   3
  -2  -2   8 7648.75 933.573   5
   2   2  -6 5661.92 653.607   5
   2   2  -6 5288.16 660.066   1
  -2  -2   6 4697.39 655.866   5
  -2  -2   6 4203.80 423.769   4
   2   2  -6 4893.36 411.630   7
  -2  -2   6 5208.79 456.240   3
  -2  -2   6 5601.01 695.757   1
   2   2  -4 145877. 4251.25   1
  -2  -2   4 141668. 3863.84   4
  -2  -2   4 150178. 4499.71   5
   2   2  -4 146328. 3690.09   7
   2   2  -4 147367. 3794.55   4
  -2  -2   4 147439. 4340.84   1
  -2  -2   4 145085. 3680.89   3
  -2  -2   2 196695. 4989.29   4
   2   2  -2 196382. 4963.99   4
   2   2  -2 206720. 4712.30   3
  -2  -2   2 193717. 4693.45   3
  -2  -2   2 195382. 5161.85   1
   2   2  -2 192685. 5051.41   1
   2   2  -2 203892. 5307.18   6
  -2  -2   2 201330. 5294.52   5
  -2  -2   0 45571.8 1507.53   3
   2   2   0 48069.3 1672.19   4
   2   2   0 45337.5 1448.30   1
  -2  -2   0 49423.5 1750.51   6
   2   2   0 50805.5 1498.68   3
  -2  -2   0 49821.2 1617.91   5
   2   2   0 45988.7 1587.54   5
   2   2   2 1795.53 276.836   3
   2   2   2 1846.09 253.990   7
   2   2   2 1711.00 257.696   6
  -2  -2  -2 2126.81 297.161   6
  -2  -2  -2 2014.19 194.590   5
   2   2   2 1821.62 197.151   5
   2   2   4 40728.5 1197.49   1
   2   2   4 41472.4 1454.55   6
  -2  -2  -4 38048.0 1188.10   2
  -2  -2  -4 39669.0 1566.02   7
  -2  -2  -4 41163.2 1570.71   6
   2   2   4 37801.1 1599.44   3
   2   2   4 38650.0 1132.70   2
   2   2   6 269458. 6770.86   1
  -2  -2  -6 259407. 6711.22   2
  -2  -2  -6 269329. 7162.01   6
   2   2   8 60188.4 2021.88   5
  -2  -2  -8 57710.4 2278.39   7
  -2  -2  -8 52996.6 2041.89   2
   2   2   8 58444.2 2346.72   7
   2   2   8 59816.3 2159.72   1
   2   2  10 3287.80 451.953   5
  -2  -2 -10 3098.26 494.342   7
   2   2  10 3441.35 533.355   7
   2   2  10 3979.14 539.875   1
  -2  -2 -10 3480.77 548.837   6
  -2  -2 -12 1187.12 332.183   2
   2   2  12 1358.81 348.264   5
   2   2  12 1525.75 450.232   3
  -2  -2 -12 1790.17 409.867   7
  -2  -2 -12 1652.61 409.381   6
   2   2  14 1056.15 375.186   5
   2   2  14 1519.80 488.641   3
  -2  -2 -14 1684.00 444.832   7
  -2  -2 -14 1144.27 360.218   6
   2   2  16 338.151 285.639   3
   2   3 -12 344.493 280.430   1
  -2  -3  12 415.623 315.735   5
  -2  -3  10 2277.04 586.559   5
   2   3 -10 1532.66 287.356   7
   2   3 -10 2038.35 538.355   1
  -2  -3   8 1667.72 455.848   5
   2   3  -8 1483.30 412.477   1
   2   3  -8 1800.57 289.124   7
   2   3  -8 1404.83 355.345   6
   2   3  -6 29008.2 1670.82   5
   2   3  -6 32624.8 1773.28   1
   2   3  -6 33459.9 1341.47   7
   2   3  -6 29367.5 1622.60   6
  -2  -3   6 32111.3 1817.23   1
  -2  -3   6 27188.3 1344.16   3
  -2  -3   6 28964.8 1798.51   5
   2   3  -4 72653.8 2712.00   5
   2   3  -4 75848.9 2250.14   4
   2   3  -4 77863.3 2355.31   7
  -2  -3   4 78553.5 2799.79   1
   2   3  -4 77313.6 2761.39   1
  -2  -3   4 70134.0 2309.80   3
  -2  -3   4 77939.8 2909.86   5
   2   3  -2 19884.5 1052.59   5
   2   3  -2 20249.6 1019.84   1
   2   3  -2 20055.7 954.551   4
   2   3  -2 19216.4 1102.40   6
   2   3  -2 20853.1 929.343   3
  -2  -3   2 19132.0 901.966   3
  -2  -3   2 20279.4 1061.72   1
  -2  -3   2 20975.5 1164.41   5
   2   3   0 38100.8 1389.01   5
   2   3   0 40013.2 1285.27   1
   2   3   0 39374.1 1410.18   3
   2   3   0 38802.2 1517.43   4
  -2  -3   0 40277.8 1493.71   3
  -2  -3   0 36670.6 1309.38   1
  -2  -3   0 39547.6 1619.00   6
  -2  -3   0 38579.6 1451.42   5
  -2  -3  -2 67235.8 2321.68   3
   2   3   2 71544.6 2353.69   3
  -2  -3  -2 71344.8 1899.41   5
   2   3   2 68434.2 1907.27   5
   2   3   4 95700.8 2177.71   2
  -2  -3  -4 101101. 3078.98   6
   2   3   4 96438.1 3063.66   3
   2   3   4 96018.2 2274.41   5
   2   3   4 89273.0 2209.11   1
   2   3   6 64884.6 1817.23   5
  -2  -3  -6 63494.2 1776.60   2
  -2  -3  -6 64419.9 2521.68   6
   2   3   6 70190.5 2011.17   1
   2   3   8 16049.8 815.734   5
  -2  -3  -8 15631.4 1078.94   7
   2   3   8 15555.4 911.144   1
   2   3   8 13698.6 1017.76   7
  -2  -3  -8 13257.5 760.231   2
  -2  -3  -8 16841.5 1246.24   6
   2   3   8 14389.7 1124.04   3
   2   3  10 7168.48 641.174   5
   2   3  10 7227.24 856.779   3
   2   3  10 6887.87 756.613   7
  -2  -3 -10 8525.79 840.789   7
   2   3  10 7293.79 725.725   1
  -2  -3 -10 6004.36 615.448   2
  -2  -3 -10 7374.01 869.812   6
   2   3  12 5910.97 679.572   5
  -2  -3 -12 6894.61 901.247   6
   2   3  12 5304.25 818.677   3
  -2  -3 -12 3645.93 533.247   2
  -2  -3 -12 5424.10 720.117   7
  -2  -3 -14 2170.11 554.630   6
   2   3  14 1987.71 546.724   3
   2   3  14 2009.84 473.143   5
   2   3  16 28.3145 191.135   3
  -2  -4  10 2220.61 601.495   5
   2   4 -10 2048.92 550.337   1
   2   4 -10 2298.78 395.336   7
   2   4  -8 5899.35 755.418   6
  -2  -4   8 6815.81 956.550   5
   2   4  -8 6520.63 638.976   7
  -2  -4   8 5528.34 676.788   3
   2   4  -8 5502.51 816.402   1
  -2  -4   6 2094.15 506.179   5
   2   4  -6 1333.65 264.884   7
   2   4  -6 1364.53 376.474   1
   2   4  -6 1265.92 320.408   6
  -2  -4   4 8047.00 830.645   5
   2   4  -4 8123.06 772.197   5
   2   4  -4 8020.17 832.013   2
   2   4  -4 8953.54 802.304   1
  -2  -4   4 7190.33 741.714   1
   2   4  -4 8278.16 652.928   7
  -2  -4   4 7737.53 656.855   3
   2   4  -4 7696.56 542.296   4
   2   4  -2 88427.9 2879.00   5
   2   4  -2 84609.1 2672.31   4
   2   4  -2 92728.5 2854.02   1
  -2  -4   2 89181.0 2767.50   3
  -2  -4   2 88815.2 3059.89   5
   2   4  -2 88058.3 2767.60   3
  -2  -4   2 85750.6 2953.92   6
  -2  -4   2 92351.9 2886.69   1
   2   4   0 229142. 5734.39   5
   2   4   0 242034. 5616.72   1
   2   4   0 228086. 5886.32   3
  -2  -4   0 228355. 6163.53   6
   2   4   0 226998. 6054.89   6
  -2  -4   0 221780. 5942.87   3
  -2  -4   0 232532. 5646.17   1
  -2  -4   0 229448. 5893.23   5
   2   4   2 6129.08 372.610   5
  -2  -4  -2 6632.04 410.853   5
  -2  -4  -2 6644.47 618.484   6
   2   4   2 7553.66 649.656   3
  -2  -4  -4 22216.8 1277.46   6
   2   4   4 19902.9 1217.49   3
   2   4   6 9262.51 811.146   7
   2   4   6 9830.26 879.349   3
  -2  -4  -6 9596.30 919.232   6
  -2  -4  -8 24924.8 1636.58   6
   2   4   8 23531.9 1390.42   7
  -2  -4  -8 22087.5 1082.43   1
  -2  -4  -8 21485.1 750.341   2
   2   4   8 19804.3 1018.25   1
   2   4   8 21456.2 1432.41   3
   2   4   8 20359.7 845.862   5
   2   4  10 12606.3 1166.80   3
  -2  -4 -10 11653.1 742.155   2
   2   4  10 13278.9 946.312   1
   2   4  10 12809.4 800.951   5
  -2  -4 -10 12664.6 1257.21   6
   2   4  12 4100.38 713.105   3
   2   4  12 3677.38 486.920   5
   2   4  12 3246.49 535.431   1
  -2  -4 -12 3894.53 730.739   6
   2   4  14 489.796 316.365   3
  -2  -4 -14 502.901 331.817   6
   2   4  16 152.184 279.178   3
  -2  -4 -16 72.2541 122.464   6
  -2  -5  10 1366.41 531.707   5
   2   5 -10 1286.95 316.492   7
  -2  -5   8 2807.65 642.673   5
   2   5  -8 2330.74 424.019   7
   2   5  -8 2431.82 478.228   6
  -2  -5   8 2643.61 496.190   3
  -2  -5   6 7421.35 952.898   5
   2   5  -6 6320.18 788.056   1
   2   5  -6 7517.58 709.984   7
   2   5  -6 6899.10 762.496   6
  -2  -5   6 4952.72 624.041   3
  -2  -5   4 9601.48 969.115   5
   2   5  -4 7895.45 850.193   2
   2   5  -4 7678.03 575.139   4
   2   5  -4 8106.56 722.746   7
  -2  -5   4 8500.73 838.159   1
   2   5  -4 8638.27 807.775   6
   2   5  -4 8454.61 815.584   1
  -2  -5   2 65575.4 2548.40   5
  -2  -5   2 61924.9 2418.81   6
   2   5  -2 61217.1 2165.81   4
   2   5  -2 63818.4 2333.12   3
  -2  -5   2 60055.0 2272.74   1
  -2  -5   0 18179.7 1040.06   5
   2   5   0 15894.7 983.859   2
  -2  -5   0 18290.6 1184.95   6
   2   5   0 17874.7 1081.81   3
  -2  -5   0 18251.0 906.233   1
  -2  -5  -2 116147. 3713.45   6
   2   5   2 121288. 3640.86   3
  -2  -5  -2 116488. 2818.88   1
  -2  -5  -2 114469. 3067.19   5
   2   5   4 3012.89 467.172   3
   2   5   4 2823.85 155.564   2
  -2  -5  -4 3016.10 489.354   6
   2   5   6 47227.6 2085.84   7
   2   5   6 46980.0 2158.61   3
   2   5   8 27367.3 1615.27   7
  -2  -5  -8 31613.6 2038.68   6
  -2  -5  -8 31875.1 1281.53   1
   2   5   8 31425.6 1901.19   3
   2   5  10 1274.20 376.430   3
   2   5  10 1511.13 198.415   5
  -2  -5 -10 1125.51 377.961   6
  -2  -5 -12 451.481 271.718   6
   2   5  12 908.319 212.226   5
   2   5  14 964.782 411.876   3
  -2  -5 -14 886.532 412.281   6
  -2  -5 -16 621.623 379.192   6
  -2  -6   8 2165.67 620.019   5
   2   6  -8 2393.58 471.267   7
   2   6  -6 4980.85 626.814   7
  -2  -6   6 5497.61 892.514   5
   2   6  -6 4558.86 631.276   6
  -2  -6   6 3573.11 580.870   3
  -2  -6   4 10607.6 1103.98   5
   2   6  -4 10280.5 896.637   7
   2   6  -4 11018.3 739.313   4
  -2  -6   4 10899.1 972.546   3
   2   6  -4 10276.0 920.891   6
  -2  -6   4 11984.4 1049.73   1
  -2  -6   2 524.314 204.751   3
   2   6  -2 593.698 205.667   6
   2   6  -2 446.339 197.967   2
  -2  -6   2 40.1245 179.135   5
   2   6  -2 430.789 158.757   4
  -2  -6   2 464.308 197.686   1
  -2  -6   2 347.131 171.428   6
   2   6  -2 260.275 172.765   3
  -2  -6   0 72952.5 2612.88   5
   2   6   0 70968.2 2739.80   3
   2   6   0 65308.2 2436.61   2
  -2  -6   0 70661.4 2784.28   6
  -2  -6   0 68874.4 2762.32   3
  -2  -6   0 71005.3 2364.09   1
  -2  -6  -2 19862.4 957.540   5
  -2  -6  -2 17255.4 1282.82   3
   2   6   2 18051.4 905.850   2
   2   6   2 19471.8 1258.88   3
  -2  -6  -2 18928.9 1292.49   6
   2   6   2 18952.3 1183.05   6
  -2  -6  -2 19060.0 804.811   1
  -2  -6  -4 28292.2 1731.06   3
   2   6   4 28708.3 901.271   2
  -2  -6  -4 30877.0 1763.15   6
   2   6   4 30805.8 1672.44   3
   2   6   6 79679.1 3028.86   7
   2   6   6 73907.4 3032.07   3
  -2  -6  -8 4022.58 771.633   6
   2   6   8 3809.78 645.347   3
  -2  -6  -8 3545.97 344.357   1
   2   6  10 3773.31 664.471   3
  -2  -6 -10 2396.48 601.017   6
  -2  -6 -10 3596.07 446.835   1
   2   6  12 2371.80 567.882   3
  -2  -6 -12 1618.37 363.820   1
  -2  -6 -12 1571.27 518.367   6
   2   6  14 659.604 350.636   3
  -2  -6 -14 518.600 338.173   6
  -2  -7   8 1476.08 541.628   5
   2   7  -8 1021.39 329.847   7
  -2  -7   6 3313.78 712.417   5
   2   7  -6 3581.42 580.890   7
  -2  -7   4 4634.10 789.524   5
   2   7  -4 4370.39 489.502   4
   2   7  -4 3989.62 592.159   7
   2   7  -4 4761.84 650.037   6
  -2  -7   2 5746.20 777.186   5
  -2  -7   2 6509.40 778.538   6
   2   7  -2 6595.70 666.822   4
   2   7  -2 5889.18 718.560   2
   2   7  -2 6209.86 748.008   3
   2   7  -2 6966.84 765.539   6
  -2  -7   2 6916.24 803.752   3
  -2  -7   2 6944.16 750.332   1
  -2  -7   0 7103.67 764.172   5
   2   7   0 7037.46 691.460   2
  -2  -7   0 6303.26 767.742   6
   2   7   0 6329.05 754.672   3
   2   7   0 7979.91 788.379   6
  -2  -7   0 6920.74 809.610   3
  -2  -7   0 7405.72 664.546   1
  -2  -7  -2 17464.5 882.229   1
  -2  -7  -2 17875.9 1376.80   3
   2   7   2 16639.2 927.061   2
   2   7   2 18080.5 1303.77   3
  -2  -7  -2 17232.9 1319.93   6
  -2  -7  -2 17829.2 1001.02   5
   2   7   4 27643.4 980.327   2
  -2  -7  -4 30073.1 1844.70   6
  -2  -7  -4 26637.6 823.948   5
   2   7   4 29784.1 1743.08   3
  -2  -7  -4 27283.2 826.758   1
   2   7   6 80.5991 207.977   3
  -2  -7  -6 655.344 382.089   6
  -2  -7  -8 17425.8 746.167   1
  -2  -7  -8 17770.8 1747.86   6
   2   7  10 4382.75 729.351   3
  -2  -7 -10 4727.18 483.858   1
  -2  -7 -10 4180.88 873.535   6
   2   7  12 1478.25 463.991   3
  -2  -7 -12 406.528 242.121   6
   2   7  14 942.171 452.237   3
  -2  -7 -14 715.572 391.177   6
   2   8  -8 55.2998 129.156   7
  -2  -8   6 1435.46 549.411   5
   2   8  -6 1071.98 328.282   7
   2   8  -4 3522.56 612.144   7
  -2  -8   4 4900.51 863.524   5
  -2  -8   2 4881.04 786.346   5
   2   8  -2 4709.25 603.915   4
   2   8  -2 5186.96 675.970   6
  -2  -8   2 4868.71 676.292   1
  -2  -8   2 5613.29 745.964   6
  -2  -8   0 2670.75 490.242   5
  -2  -8   0 3401.23 599.401   6
   2   8   0 3867.66 636.492   3
   2   8   0 2863.68 467.392   2
  -2  -8   0 3495.49 499.515   1
  -2  -8  -2 18454.3 1088.81   5
  -2  -8  -2 16473.2 948.365   1
  -2  -8  -2 16426.8 1368.89   6
   2   8   2 16976.9 1378.13   3
   2   8   2 15522.3 954.890   2
   2   8   4 730.634 162.193   2
  -2  -8  -4 1027.96 150.537   5
  -2  -8  -4 1221.72 410.431   6
  -2  -8  -4 874.581 143.570   1
   2   8   4 1157.33 399.228   3
   2   8   6 12769.8 1219.30   3
  -2  -8  -6 12068.1 1346.66   6
   2   8   8 5776.48 836.478   3
  -2  -8  -8 5499.07 1014.87   6
   2   8  10 2119.54 538.363   3
  -2  -8 -10 2200.97 662.818   6
   2   8  12 798.741 362.023   3
  -2  -8 -12 1125.74 509.607   6
   2   9  -8 526.388 300.748   7
  -2  -9   6 325.222 335.682   5
   2   9  -6 630.739 307.542   7
  -2  -9   4 2015.84 595.588   5
   2   9  -4 2555.31 550.986   7
  -2  -9   2 1402.36 462.977   5
   2   9  -2 2418.63 526.932   7
  -2  -9   2 1933.71 475.076   6
  -2  -9   0 5837.78 785.816   5
   2   9   0 5670.92 835.882   3
  -2  -9   0 4705.22 758.808   6
  -2  -9   0 4716.57 634.005   1
   2   9   2 1618.46 310.062   2
  -2  -9  -2 1485.73 338.666   5
  -2  -9  -2 1201.83 381.271   6
  -2  -9  -2 1078.64 249.223   1
   2   9   2 1827.20 489.702   3
  -2  -9  -4 7549.69 520.058   1
   2   9   4 7624.77 976.962   3
  -2  -9  -4 8136.76 509.810   5
  -2  -9  -4 8823.27 1107.29   6
   2   9   6 502.992 292.430   3
  -2  -9  -6 834.604 380.522   6
   2   9   8 1922.30 502.358   3
  -2  -9  -8 1027.21 461.261   6
   2   9  10 1001.04 414.848   3
  -2  -9 -10 522.068 385.629   6
   2   9  12 215.793 250.215   3
  -2 -10   4 717.697 379.205   5
   2  10  -4 688.624 304.732   7
  -2 -10   2 1722.97 518.157   5
   2  10  -2 1302.93 423.646   7
  -2 -10   2 1258.44 398.476   6
  -2 -10   0 546.571 234.903   5
   2  10   0 1153.40 436.556   3
  -2 -10   0 1682.92 482.220   6
   2  10   2 6372.24 948.817   3
  -2 -10  -2 7001.86 980.741   6
  -2 -10  -2 6744.72 740.872   5
  -2 -10  -4 2731.00 632.735   6
   2  10   4 2322.43 586.458   3
  -2 -10  -6 561.484 298.744   6
   2  10   6 1159.48 402.904   3
   2  10   8 1175.51 440.951   3
  -2 -10  -8 1894.10 656.961   6
   2  10  10 785.128 377.659   3
  -2 -10 -10-86.6342 218.799   6
  -2 -11   4 55.1381 174.392   5
  -2 -11   2 181.588 277.509   5
   2  11  -2 534.505 276.545   7
   2  11   0 1180.10 439.401   3
  -2 -11   0 651.168 337.696   6
  -2 -11  -2 893.494 351.838   6
   2  11   2 710.136 358.232   3
  -2 -11  -4 1760.10 558.875   6
   2  11   4 1327.38 493.298   3
  -2 -11  -6 1629.64 571.318   6
   2  11   6 1844.70 534.592   3
  -2 -11  -8 626.375 436.401   6
  -2 -12  -2 404.208 270.444   6
  -2 -12  -4 466.272 244.012   6
  -3  11   7 66.2382 125.267   7
  -3  11   5 185.973 200.561   7
   3 -11  -5 451.990 300.460   6
  -3  11   3 534.329 250.412   7
   3 -11  -3 309.151 219.668   6
   3 -11  -3 783.242 385.810   2
  -3  11   1 155.463 128.148   4
  -3  11   1 298.682 279.630   7
   3 -11  -1 315.647 289.723   2
   3 -11   1 504.902 336.747   2
   3 -10  -9 696.222 391.542   1
  -3  10   9 181.256 166.242   3
  -3  10   7 163.694 157.425   7
  -3  10   7 503.894 320.738   3
  -3  10   5 849.806 301.674   7
   3 -10  -5 1294.90 405.906   2
  -3  10   3 205.478 148.247   7
   3 -10  -3 208.926 163.588   2
  -3  10   1 1898.82 481.857   4
  -3  10   1 1357.94 442.056   7
   3 -10  -1 1786.64 442.539   6
   3 -10  -1 2449.45 602.867   2
  -3  10  -1 1977.94 476.796   4
  -3  10  -1 1928.26 526.646   7
   3 -10   1 1921.30 553.025   2
  -3  10  -3 368.142 248.310   7
   3 -10   3 695.984 379.887   2
   3  -9 -11 313.791 372.536   1
   3  -9  -9 127.414 273.051   1
  -3   9   9 221.157 223.940   3
   3  -9  -7 889.407 328.184   2
  -3   9   7 544.551 231.114   7
  -3   9   7 978.321 397.512   3
   3  -9  -5 1794.15 476.760   2
  -3   9   5 2002.87 464.712   7
  -3   9   5 1241.13 489.488   3
  -3   9   3 3834.31 657.777   7
   3  -9  -3 3384.93 659.046   2
  -3   9   1 4602.96 741.069   7
   3  -9  -1 5078.66 716.481   6
   3  -9  -1 5486.75 855.103   2
   3  -9   1 5997.52 914.503   2
  -3   9  -1 4147.10 652.795   4
  -3   9  -1 4727.75 780.219   7
  -3   9  -3 1598.76 463.110   7
  -3   9  -3 988.105 328.547   4
   3  -9   3 1311.08 463.170   2
  -3   9  -5 3132.62 667.632   7
   3  -9   5 1698.88 559.566   2
   3  -8 -11 375.731 295.559   1
   3  -8  -9 882.329 328.817   2
  -3   8   9 882.266 328.847   3
   3  -8  -9 1314.49 447.017   1
   3  -8  -7 1514.09 407.677   2
  -3   8   7 1132.80 322.459   7
  -3   8   7 1607.98 454.585   3
  -3   8   5 5608.34 730.513   7
   3  -8  -5 5358.93 784.142   2
  -3   8   5 5659.74 835.375   3
   3  -8  -3 5599.92 765.173   2
  -3   8   3 5557.91 742.099   7
  -3   8   1 3351.65 601.925   7
   3  -8  -1 3328.20 631.016   2
   3  -8   1 9726.08 1101.00   2
  -3   8  -1 8016.75 889.255   4
   3  -8   1 9706.13 825.979   6
  -3   8  -1 8648.18 995.148   7
   3  -8   3 11734.5 1287.78   2
  -3   8  -3 13895.5 1308.45   7
  -3   8  -3 12856.9 1056.51   4
  -3   8  -5 2512.62 567.521   7
   3  -8   5 2648.93 628.948   2
  -3   8  -7 6609.46 967.086   7
   3  -8   7 5170.99 956.949   2
   3  -7 -11 767.648 366.358   1
   3  -7  -9 831.865 370.109   1
   3  -7  -9 1989.27 476.044   2
  -3   7   9 1511.80 399.945   3
   3  -7  -7 2323.25 493.620   2
  -3   7   7 1645.63 354.072   7
  -3   7   7 1549.57 406.406   3
   3  -7  -5 4358.76 659.490   2
  -3   7   5 4181.77 665.828   3
  -3   7   5 4192.44 584.276   7
   3  -7  -5 3854.16 593.456   5
   3  -7  -3 1867.22 415.242   2
   3  -7  -3 2431.15 466.630   5
  -3   7   3 2182.55 438.866   7
   3  -7  -1 4866.08 725.316   2
  -3   7   1 5021.40 672.821   7
   3  -7   1 22458.2 1589.45   2
  -3   7  -1 19994.9 1379.93   4
  -3   7  -1 22254.6 1518.38   7
   3  -7   1 22482.2 1204.98   6
  -3   7  -3 7195.19 878.020   7
  -3   7  -3 7973.53 790.407   4
   3  -7   3 8468.79 546.159   6
   3  -7   3 7211.58 928.860   2
   3  -7   5 5994.71 868.953   2
  -3   7  -5 7604.40 688.992   4
  -3   7  -5 6763.00 888.716   7
   3  -7   7 8395.42 1171.12   2
  -3   7  -7 10082.9 1124.37   7
  -3   7  -9 3168.57 669.350   7
  -3   6  11-8.11295 117.335   5
   3  -6 -11 200.425 190.152   2
   3  -6 -11-120.479 190.547   1
   3  -6  -9 1574.45 463.056   1
   3  -6  -9 2410.37 510.206   2
  -3   6   9 1571.25 302.329   7
  -3   6   9 1412.98 358.538   3
   3  -6  -7 1105.53 311.709   3
   3  -6  -7 736.071 263.741   5
  -3   6   7 737.600 273.368   3
   3  -6  -7 1067.30 329.800   2
   3  -6  -7 994.089 359.430   1
  -3   6   7 1024.03 253.873   7
   3  -6  -5 86.9194 94.4491   3
   3  -6  -5 76.5322 136.526   5
   3  -6  -5 465.069 243.668   2
  -3   6   5 366.166 196.635   7
  -3   6   5 134.757 165.302   3
   3  -6  -3 21255.3 1396.19   2
   3  -6  -3 17844.7 1279.66   3
  -3   6   3 20539.3 1270.63   7
   3  -6  -3 18799.9 1298.70   5
   3  -6  -1 15751.3 1188.11   2
   3  -6  -1 13986.6 1137.59   3
  -3   6   1 15236.4 1108.17   7
  -3   6   1 13606.5 1080.08   2
   3  -6  -1 15165.6 1140.44   5
  -3   6  -1 6194.31 708.201   4
  -3   6  -1 7728.53 812.818   7
   3  -6   1 7022.01 802.785   2
   3  -6   3 8896.17 965.143   2
  -3   6  -3 9456.60 817.497   4
  -3   6  -3 10717.8 1000.67   7
   3  -6   3 8596.13 517.924   6
  -3   6  -5 500.294 178.925   4
  -3   6  -5 960.799 318.296   7
   3  -6   5 1361.46 396.492   2
   3  -6   7 2633.29 603.745   2
  -3   6  -7 3204.90 600.065   7
   3  -6   9 31074.4 2235.44   2
  -3   6  -9 20919.6 1699.48   7
  -3   5  13 208.156 209.653   5
   3  -5 -13 347.213 262.958   2
  -3   5  13 468.121 292.306   4
   3  -5 -13 98.8202 169.268   1
  -3   5  11 671.468 238.874   5
   3  -5 -11 1493.92 483.605   1
   3  -5 -11 691.266 321.861   2
  -3   5  11 834.632 399.414   4
  -3   5   9 2605.31 471.163   5
   3  -5  -9 3009.00 567.085   2
  -3   5   9 1561.91 243.361   7
  -3   5   9 2481.26 425.706   3
   3  -5  -9 2712.59 598.679   1
   3  -5  -7 1398.22 425.671   2
  -3   5   7 739.368 292.014   5
   3  -5  -7 1142.36 297.736   5
   3  -5  -7 1181.35 299.190   3
   3  -5  -7 1229.35 409.281   1
  -3   5   7 957.128 235.607   7
  -3   5   7 1114.25 306.131   3
   3  -5  -5 25550.0 1494.40   5
  -3   5   5 27304.8 1508.86   3
   3  -5  -5 26381.1 1592.47   2
   3  -5  -5 24818.9 1438.33   3
   3  -5  -3 19921.0 1227.69   3
  -3   5   3 20771.3 1290.93   3
   3  -5  -3 21560.5 1367.58   2
   3  -5  -3 23131.4 1360.84   5
  -3   5   1 4384.25 587.139   4
  -3   5   1 4138.81 524.742   7
   3  -5  -1 5454.51 649.328   5
   3  -5  -1 4966.42 617.092   2
   3  -5  -1 4187.48 557.030   3
  -3   5   1 4734.59 596.638   2
   3  -5   1 2346.65 413.417   2
  -3   5  -1 2587.82 452.022   2
  -3   5  -1 3056.44 473.452   4
  -3   5  -1 2713.63 436.809   7
   3  -5   1 3038.69 501.087   3
  -3   5  -3 25187.2 1364.11   4
  -3   5  -3 28737.2 1598.99   7
   3  -5   3 27097.4 955.942   6
   3  -5   3 29039.6 1656.65   2
  -3   5  -5 2011.49 323.457   4
  -3   5  -5 1610.61 388.857   7
   3  -5   5 2311.10 478.872   2
  -3   5  -7 4237.48 675.593   7
   3  -5   7 4411.53 698.030   2
  -3   5  -9 1036.26 358.851   7
   3  -5   9 1000.52 401.092   2
   3  -5  11 3793.83 753.531   5
  -3   5 -11 5367.04 827.770   7
  -3   4  13 586.452 265.833   5
  -3   4  13 563.462 364.970   4
   3  -4 -13 395.337 312.022   1
   3  -4 -11 933.906 376.936   1
  -3   4  11 549.814 268.420   5
  -3   4  11 336.584 226.790   4
   3  -4  -9 4067.55 742.752   1
  -3   4   9 5707.84 892.397   4
  -3   4   9 5284.81 586.493   3
  -3   4   9 5929.15 728.750   5
  -3   4   7 35533.6 1805.91   5
  -3   4   7 33201.7 1142.77   7
  -3   4   7 31215.8 1208.77   7
   3  -4  -7 36076.9 2101.89   1
  -3   4   7 37578.3 1673.85   3
   3  -4  -7 32543.6 1595.32   3
   3  -4  -7 36750.7 1935.93   5
  -3   4   5 214.784 125.673   5
   3  -4  -5 440.831 178.392   3
   3  -4  -5 453.254 217.428   5
   3  -4  -5 593.596 292.994   2
  -3   4   5 228.273 97.8305   7
  -3   4   5 449.568 211.672   3
   3  -4  -3 18758.6 1217.11   2
   3  -4  -3 17148.5 1010.00   3
   3  -4  -3 17519.9 1146.54   5
  -3   4   1 39383.7 1866.04   4
   3  -4  -1 41533.9 1874.48   2
   3  -4  -1 40156.5 1752.04   3
  -3   4   1 39647.4 1792.45   2
   3  -4  -1 43375.7 1897.78   5
  -3   4  -1 71281.2 2528.09   7
  -3   4  -1 68808.7 2523.91   4
   3  -4   1 65001.2 2418.53   7
   3  -4   1 71771.2 2620.65   2
   3  -4   1 66102.4 2623.55   3
  -3   4  -1 68514.5 2582.13   2
  -3   4  -3 71431.4 2520.11   4
  -3   4  -3 76246.0 2711.58   7
   3  -4   3 71339.5 2740.27   2
   3  -4   3 71320.5 2669.44   7
   3  -4   3 70718.0 2835.23   3
  -3   4  -3 69957.6 2713.46   2
  -3   4  -5 13738.8 864.569   4
   3  -4   5 14226.6 1119.96   2
  -3   4  -5 13818.7 1061.14   7
  -3   4  -7 4612.43 638.469   7
   3  -4   7 4094.65 634.903   2
  -3   4  -9 11061.5 1079.86   7
   3  -4   9 13834.4 1303.00   2
   3  -4  11 2537.30 594.774   5
  -3   4 -11 2898.59 587.308   7
  -3   4 -13 322.712 250.035   7
  -3   3  13 11.5296 206.766   5
  -3   3  13-335.905 253.619   4
  -3   3  11 690.708 288.600   5
   3  -3 -11 1169.00 431.754   1
  -3   3  11 886.868 351.669   4
  -3   3   9 8352.66 1054.05   4
  -3   3   9 8176.53 660.355   3
   3  -3  -9 7856.81 983.684   1
  -3   3   9 9157.41 925.227   5
  -3   3   7 654.454 263.434   5
   3  -3  -7 1173.60 346.649   5
  -3   3   7 722.458 323.829   4
   3  -3  -7 617.455 314.837   1
  -3   3   7 540.653 180.749   3
  -3   3   5 22896.2 1538.01   4
  -3   3   5 27575.4 969.903   7
  -3   3   5 28597.8 1266.91   3
   3  -3  -5 30205.5 1660.15   2
   3  -3  -5 23942.6 1187.81   3
  -3   3   5 27292.7 1464.91   5
   3  -3  -5 24194.8 1469.33   5
   3  -3  -3 96365.7 3274.95   2
   3  -3  -3 92106.6 3145.73   5
  -3   3   3 95749.4 2639.80   7
   3  -3  -3 89525.0 2746.27   3
  -3   3   3 99305.1 3109.30   5
  -3   3   1 100891. 3301.48   4
   3  -3  -1 95172.4 3009.85   3
   3  -3  -1 104341. 3318.68   2
  -3   3   1 94343.9 3189.13   2
  -3   3   1 101178. 2926.61   7
  -3   3  -1 56940.1 2032.10   7
   3  -3   1 54170.1 1984.02   7
  -3   3  -1 55681.3 2117.77   4
   3  -3   1 59169.7 2188.71   2
   3  -3   1 53977.3 2133.13   3
  -3   3  -3 54249.5 2069.75   7
   3  -3   3 54413.3 2136.40   2
   3  -3   3 50704.7 2041.36   7
   3  -3   3 51534.9 1545.83   6
  -3   3  -3 51541.0 1976.69   4
  -3   3  -5 72302.6 2409.84   4
   3  -3   5 76007.2 2803.48   2
  -3   3  -5 73348.4 2723.47   7
   3  -3   5 71876.7 2738.43   7
  -3   3  -5 75595.3 2875.27   2
   3  -3   7 14037.8 1117.73   2
  -3   3  -7 13494.8 1060.96   7
   3  -3   9 9661.78 1008.45   2
  -3   3  -9 6685.85 820.397   7
  -3   3 -11 4309.95 695.112   7
   3  -3  11 4164.89 693.730   5
   3  -3  13 726.340 372.289   5
  -3   3 -13 811.383 350.919   7
   3  -2 -13 935.856 417.780   1
  -3   2  13 931.897 398.141   5
  -3   2  13 401.802 270.296   4
  -3   2  11 577.553 277.149   5
  -3   2  11 323.222 201.140   4
   3  -2 -11 112.296 211.220   1
  -3   2   9-79.8112 201.146   5
   3  -2  -9 9.92911 221.509   1
  -3   2   9-159.699 196.091   4
  -3   2   9 126.317 111.545   3
   3  -2  -7 40283.3 2107.39   5
  -3   2   7 41827.0 2222.30   4
  -3   2   7 41145.1 1454.14   3
   3  -2  -7 43769.0 2288.44   1
  -3   2   7 41219.8 2035.53   5
  -3   2   5 25740.2 1520.33   4
   3  -2  -5 21701.4 1444.27   1
  -3   2   5 24270.5 979.678   3
   3  -2  -5 20688.8 925.785   3
  -3   2   5 22425.6 1332.13   5
   3  -2  -5 23036.0 1412.30   5
  -3   2   3 4954.51 589.620   4
  -3   2   3 5029.67 328.440   7
   3  -2  -3 4355.01 367.304   3
   3  -2  -3 5250.18 595.300   2
  -3   2   3 5360.50 574.188   5
  -3   2   1 188760. 4616.53   7
   3  -2  -1 176682. 4553.93   7
   3  -2  -1 180820. 4705.36   3
   3  -2  -1 191851. 5149.51   2
  -3   2   1 190299. 5167.88   4
  -3   2  -1 22180.0 1175.49   4
   3  -2   1 21053.7 1058.54   4
  -3   2  -1 23373.6 1057.38   7
   3  -2   1 21387.7 1007.70   7
   3  -2   1 23437.4 1184.21   2
   3  -2   3 137394. 3880.80   2
  -3   2  -3 127078. 3788.60   4
  -3   2  -3 133120. 3796.69   7
   3  -2   3 132511. 3379.04   6
   3  -2   3 130433. 3679.71   4
  -3   2  -5 88781.0 2821.08   4
   3  -2   5 93237.5 3124.93   2
  -3   2  -5 94022.5 3071.69   7
   3  -2   5 92850.4 2801.87   4
  -3   2  -5 98931.4 3260.63   2
   3  -2   7 32965.8 1788.21   7
  -3   2  -7 35571.9 1758.69   7
  -3   2  -7 36984.6 1920.67   2
   3  -2   7 34308.0 1389.19   4
   3  -2   7 31882.6 1702.60   2
   3  -2   7 35933.3 1794.34   1
   3  -2   9 11309.5 1070.72   2
  -3   2  -9 11233.2 1004.69   7
   3  -2   9 10371.1 655.407   4
   3  -2  11 9246.30 992.715   5
  -3   2 -11 10708.8 1056.11   7
   3  -2  13 360.193 238.148   5
  -3   2 -13 731.931 311.226   7
  -3   2 -15 121.832 245.559   7
  -3   1  13 399.952 277.342   5
  -3   1  11 993.300 396.471   5
  -3   1  11 805.199 290.163   4
   3  -1 -11 182.562 191.892   1
  -3   1   9 4678.44 707.630   4
   3  -1  -9 4614.55 746.486   1
  -3   1   9 4749.49 375.588   3
  -3   1   9 5356.35 778.311   5
  -3   1   7 3206.66 548.057   5
   3  -1  -7 2693.79 507.729   5
   3  -1  -7 2599.82 526.792   1
  -3   1   7 3080.17 533.144   4
  -3   1   7 3055.53 246.717   3
  -3   1   5 5315.48 636.251   4
  -3   1   5 6104.38 673.906   5
   3  -1  -5 5294.72 662.481   5
  -3   1   3 71281.9 1729.13   7
  -3   1   3 80360.8 2686.69   4
   3  -1  -3 71929.4 1862.31   3
  -3   1   3 77674.3 2621.79   5
  -3   1   1 4260.71 476.627   4
  -3   1   1 4330.62 334.261   7
   3  -1  -1 4652.80 330.906   7
   3  -1  -1 4781.53 358.200   3
   3  -1  -1 4526.86 528.220   2
  -3   1   1 4704.82 481.199   5
  -3   1  -1 149637. 4161.31   4
   3  -1   1 145198. 3834.54   7
   3  -1   1 149904. 4122.50   2
  -3   1  -1 147090. 3891.07   7
   3  -1   3 66786.1 2254.59   4
  -3   1  -3 68520.8 2302.43   4
   3  -1   3 67614.2 2274.14   2
  -3   1  -3 69236.0 2271.44   7
  -3   1  -3 69248.1 2343.77   2
   3  -1   3 67691.7 2040.43   6
  -3   1  -5 110352. 2908.28   6
   3  -1   5 111963. 3302.09   4
  -3   1  -5 116639. 3476.43   7
   3  -1   5 114321. 3424.17   2
  -3   1  -7 11111.8 886.201   7
   3  -1   7 10235.8 835.973   2
   3  -1   7 9755.80 718.421   4
   3  -1   7 12896.8 1017.23   7
   3  -1   7 12380.1 929.129   1
  -3   1  -7 10928.4 592.804   6
  -3   1  -7 12087.9 988.378   2
   3  -1   9 10738.3 953.354   2
   3  -1   9 8445.71 665.254   4
  -3   1  -9 8926.91 590.895   6
  -3   1  -9 8690.86 913.402   2
  -3   1  -9 9602.47 886.101   7
   3  -1  11 9630.90 990.613   5
  -3   1 -11 10358.6 1014.89   7
  -3   1 -11 10539.0 700.183   6
   3  -1  13 3782.90 649.559   5
  -3   1 -13 4246.90 707.625   7
   3  -1  15 68.8890 160.006   5
  -3   1 -15 192.461 208.290   7
  -3   0  13 328.073 298.796   5
  -3   0  11 2814.70 627.599   5
   3   0 -11 2146.62 557.519   1
  -3   0  11 1859.27 444.736   4
  -3   0   9 905.102 147.942   3
  -3   0   9 917.729 386.309   5
  -3   0   9 1215.13 360.245   4
   3   0  -9 409.951 236.130   1
  -3   0   7 15295.2 1133.41   4
   3   0  -7 16139.7 1280.69   1
  -3   0   7 15132.4 1242.99   5
   3   0  -5 28450.3 1646.59   5
  -3   0   5 28576.5 1491.77   4
   3   0  -5 27434.4 1610.11   1
  -3   0   5 31601.6 1658.12   5
  -3   0   3 16907.9 1046.55   4
  -3   0   3 17475.1 1090.76   5
  -3   0   1 99283.1 3026.89   4
  -3   0   1 91899.4 2529.81   7
   3   0  -1 95916.4 2443.39   7
  -3   0   1 99210.2 2986.77   5
  -3   0  -1 221347. 5709.78   4
  -3   0  -1 219980. 5437.31   7
   3   0   1 214162. 5316.13   7
   3   0   1 223014. 5658.86   6
   3   0   1 216074. 5598.00   2
  -3   0  -3 55042.1 1963.47   4
   3   0   3 52850.6 1946.36   4
  -3   0  -3 55467.3 1924.79   7
   3   0   3 54129.8 1838.96   2
  -3   0  -3 53236.5 1790.23   6
   3   0   3 52602.1 1789.01   6
  -3   0  -3 52941.3 1884.56   2
  -3   0  -5 16802.6 864.341   6
   3   0   5 16486.5 980.429   4
  -3   0  -5 17809.1 1024.04   7
   3   0   5 17740.3 939.056   2
  -3   0  -5 14286.0 927.127   2
   3   0   5 17519.3 801.077   6
   3   0   7 16449.8 1028.04   4
   3   0   7 17706.0 1013.99   2
  -3   0  -7 17127.6 1127.31   7
   3   0   7 16702.8 1045.87   1
   3   0   7 19271.0 1228.07   7
  -3   0  -7 17905.0 939.255   6
  -3   0  -9 12602.3 1085.14   2
   3   0   9 15191.7 1104.06   1
   3   0   9 16798.4 1141.76   2
   3   0   9 13130.1 944.730   4
  -3   0  -9 16825.2 1183.19   7
  -3   0  -9 13632.9 869.569   6
   3   0  11 9650.57 924.914   5
  -3   0 -11 10995.4 840.129   6
  -3   0 -11 10289.4 1002.59   7
   3   0  13 1665.59 426.840   5
  -3   0 -13 2586.63 532.740   7
   3   0  15 468.678 279.558   5
  -3   0 -15 1319.23 432.386   7
   3   1 -11 1843.28 542.117   1
  -3  -1  11 2106.93 587.415   5
   3   1  -9 4094.59 707.838   1
  -3  -1   9 4828.90 791.010   5
  -3  -1   9 4314.69 592.556   4
  -3  -1   9 2458.15 287.340   3
  -3  -1   9 4430.47 345.327   3
  -3  -1   7 4243.16 662.761   5
  -3  -1   7 4310.92 550.160   4
  -3  -1   7 4748.68 262.433   3
   3   1  -7 4254.03 647.315   1
  -3  -1   7 3784.83 237.085   3
   3   1  -5 19468.2 1324.52   5
  -3  -1   5 18317.8 1113.62   4
   3   1  -5 17840.2 587.124   7
   3   1  -5 18408.1 553.604   7
   3   1  -5 17710.7 1239.17   1
  -3  -1   5 19023.6 1297.99   5
   3   1  -3 91869.8 2330.42   7
  -3  -1   3 87985.0 2952.76   4
   3   1  -3 95897.2 2899.03   4
   3   1  -3 90841.6 3109.66   1
  -3  -1   3 96848.4 3181.86   5
  -3  -1   1 31122.3 1405.47   4
   3   1  -1 28900.9 1056.46   7
   3   1  -1 29125.9 1357.60   1
   3   1  -1 30441.5 1356.80   4
   3   1  -1 29831.8 940.078   3
  -3  -1   1 30343.6 1374.37   5
  -3  -1  -1 2005.13 284.235   5
   3   1   1 2283.45 311.879   2
   3   1   1 2122.75 296.251   5
  -3  -1  -1 1940.41 317.235   4
  -3  -1  -1 1965.02 276.899   7
   3   1   1 1616.60 231.376   7
  -3  -1  -1 2200.37 324.449   6
   3   1   1 1785.40 292.916   6
  -3  -1  -3 95622.1 2826.98   2
  -3  -1  -3 98208.0 2943.28   7
   3   1   3 96976.0 2736.60   2
  -3  -1  -3 99519.8 2943.90   6
   3   1   3 95548.0 2858.53   6
   3   1   3 89691.4 2757.67   5
  -3  -1  -5 166955. 4549.00   2
   3   1   5 173680. 4874.39   4
  -3  -1  -5 171122. 4791.40   7
   3   1   5 171807. 4409.71   2
  -3  -1  -5 169248. 4613.66   6
   3   1   5 175201. 4482.16   6
   3   1   7 36760.0 1554.08   1
   3   1   7 32366.7 1433.62   2
  -3  -1  -7 40276.7 1811.71   7
   3   1   7 39765.8 1830.41   7
  -3  -1  -7 35307.5 1625.00   2
  -3  -1  -7 38816.7 1620.98   6
   3   1   9 5710.52 625.314   1
   3   1   9 7034.36 673.545   2
  -3  -1  -9 6823.72 737.792   7
  -3  -1  -9 5814.89 690.636   2
  -3  -1  -9 6037.96 635.054   6
  -3  -1 -11 1956.56 432.763   2
   3   1  11 2195.54 432.495   4
   3   1  11 2572.68 439.792   5
  -3  -1 -11 2503.10 503.190   7
  -3  -1 -11 3336.14 519.782   6
   3   1  13 2563.71 488.477   5
  -3  -1 -13 2123.10 483.591   7
  -3  -1 -13 1806.25 419.289   6
   3   1  15 1062.70 361.389   5
  -3  -1 -15 564.098 256.446   7
  -3  -2  11 1369.13 500.295   5
   3   2 -11 521.644 308.330   1
  -3  -2   9 2831.05 615.479   5
   3   2  -9 2218.26 245.687   7
   3   2  -9 2656.75 607.647   1
  -3  -2   9 1710.89 350.123   4
   3   2  -7 11945.3 1159.80   1
  -3  -2   7 14674.5 682.044   3
  -3  -2   7 12961.6 945.774   4
   3   2  -7 13511.9 642.048   7
  -3  -2   7 14094.3 1274.14   5
   3   2  -5 47688.7 2197.63   5
  -3  -2   5 47715.2 2268.65   1
  -3  -2   5 45903.9 1894.28   4
   3   2  -5 46602.5 1451.58   7
   3   2  -5 48519.4 2251.54   6
  -3  -2   5 44557.2 1292.05   3
  -3  -2   5 48635.2 2276.06   5
   3   2  -5 46824.2 2129.34   1
  -3  -2   3 13094.5 867.871   4
   3   2  -3 13615.9 1023.79   6
  -3  -2   3 11888.4 493.768   3
   3   2  -3 13042.5 919.129   1
   3   2  -3 12750.2 828.235   4
  -3  -2   3 13567.2 1003.67   5
   3   2  -1 1239.38 163.154   3
  -3  -2   1 1242.99 265.812   5
   3   2  -1 1233.07 211.041   7
   3   2  -1 1511.14 294.326   5
   3   2  -1 957.068 225.257   4
  -3  -2   1 1016.70 241.322   4
   3   2  -1 948.675 223.846   1
   3   2   1 52079.7 1871.63   7
   3   2   1 54644.3 1856.07   3
  -3  -2  -1 56376.7 1875.77   5
   3   2   1 56571.6 1913.58   5
  -3  -2  -1 59751.2 2134.94   6
  -3  -2  -3 182193. 4850.19   6
   3   2   3 175747. 4392.70   2
   3   2   3 180791. 4777.37   6
  -3  -2  -3 170568. 4777.22   7
   3   2   3 170741. 4471.68   5
  -3  -2  -5 46550.2 1923.30   7
  -3  -2  -5 44955.7 1878.90   6
  -3  -2  -5 45856.7 1619.14   2
   3   2   5 51074.5 1818.29   6
   3   2   5 46965.1 1517.06   2
   3   2   7 43617.5 1976.30   7
   3   2   7 43693.2 1649.81   1
   3   2   7 39013.7 1488.15   2
  -3  -2  -7 48219.2 2073.28   7
  -3  -2  -7 44058.0 1688.96   2
  -3  -2  -7 45240.7 1927.91   6
   3   2   9 4681.41 525.637   1
  -3  -2  -9 4674.14 556.402   2
  -3  -2  -9 5587.55 675.019   6
   3   2  11 4677.62 562.359   5
  -3  -2 -11 4921.35 686.885   7
  -3  -2 -11 5557.29 748.474   6
  -3  -2 -11 3977.73 594.310   2
   3   2  11 5776.39 674.187   1
   3   2  13 3628.11 559.698   5
  -3  -2 -13 3807.31 664.496   7
  -3  -2 -13 4145.85 683.202   6
   3   2  15 167.855 174.064   5
   3   2  15 589.719 347.323   3
  -3  -2 -15 596.151 312.708   7
  -3  -3  11 490.217 254.800   5
   3   3 -11 1273.49 467.037   1
   3   3  -9 3105.37 634.136   1
  -3  -3   9 2310.95 567.111   5
   3   3  -9 2490.82 322.899   7
  -3  -3   7 3785.97 696.260   5
  -3  -3   7 2494.88 383.513   4
   3   3  -7 3387.31 604.577   1
   3   3  -7 2599.22 323.858   7
  -3  -3   7 3203.61 374.827   3
   3   3  -5 7077.88 775.461   5
   3   3  -5 7898.60 808.962   1
  -3  -3   5 6980.14 635.684   4
  -3  -3   5 6828.80 496.415   3
   3   3  -5 6947.02 812.033   6
   3   3  -5 6380.38 514.270   7
   3   3  -5 8261.48 629.185   4
  -3  -3   5 8352.32 906.297   5
  -3  -3   5 7333.51 837.734   1
   3   3  -3 60816.8 2321.22   1
   3   3  -3 58201.9 2385.21   5
   3   3  -3 61666.6 2202.66   4
  -3  -3   3 61970.5 2222.81   4
  -3  -3   3 62880.3 2463.82   1
   3   3  -3 64499.6 2629.44   6
  -3  -3   3 60680.5 1907.29   3
  -3  -3   3 61314.1 2528.33   5
   3   3  -1 54054.3 2071.94   5
   3   3  -1 55175.1 2063.75   4
   3   3  -1 53188.5 1709.56   3
  -3  -3   1 52085.3 1785.25   3
   3   3  -1 54474.0 1884.54   1
  -3  -3   1 54926.6 2100.19   5
  -3  -3  -1 52650.6 2127.08   6
   3   3   1 55576.9 2115.58   4
   3   3   1 47777.5 1902.07   7
   3   3   1 50678.9 1613.53   1
   3   3   1 54753.1 1889.99   3
  -3  -3  -1 53580.8 1917.34   3
  -3  -3  -1 54253.5 1847.60   5
   3   3   1 52650.1 1856.25   5
  -3  -3  -3 10710.2 838.559   6
   3   3   3 8838.37 535.344   2
   3   3   3 9497.39 765.699   3
   3   3   3 9353.52 574.483   5
   3   3   5 125808. 3075.78   1
  -3  -3  -5 118985. 3868.46   7
   3   3   5 116250. 3232.93   5
   3   3   5 128277. 3120.66   2
  -3  -3  -5 123728. 3861.43   6
   3   3   5 132732. 3738.51   6
   3   3   5 121787. 3927.88   3
  -3  -3  -7 14823.6 774.219   2
   3   3   7 14177.3 685.735   2
  -3  -3  -7 16886.5 1208.35   6
  -3  -3  -7 15666.6 1145.66   7
   3   3   7 15636.2 1194.22   3
   3   3   7 16622.3 1141.54   7
   3   3   7 16146.4 797.574   1
   3   3   9 16230.7 889.318   5
  -3  -3  -9 21243.7 1364.42   7
  -3  -3  -9 14030.1 911.680   2
  -3  -3  -9 14307.0 1214.55   6
   3   3   9 16645.5 980.169   1
   3   3   9 23858.7 1565.70   3
   3   3  11 11382.7 852.475   5
  -3  -3 -11 12488.8 1129.29   7
   3   3  11 12876.5 998.771   1
   3   3  11 13234.2 1313.48   3
  -3  -3 -13 1685.68 487.528   6
   3   3  13 2203.63 558.889   3
   3   3  13 1378.23 340.829   5
  -3  -3 -13 1905.98 479.882   7
  -3  -3 -15 412.475 242.605   7
   3   3  15 503.721 338.499   3
  -3  -3 -15 727.755 329.219   6
  -3  -4   9 1261.53 462.130   5
   3   4  -9 1016.70 383.071   1
  -3  -4   7 5919.20 891.907   5
   3   4  -7 5690.07 789.761   1
   3   4  -7 5554.96 554.140   7
  -3  -4   7 5317.25 567.901   3
   3   4  -5 12912.6 1086.33   1
   3   4  -5 11763.4 786.392   4
   3   4  -5 11479.8 790.049   7
  -3  -4   5 11308.2 1070.46   1
   3   4  -5 12072.3 1096.18   6
  -3  -4   5 11640.8 798.330   3
  -3  -4   5 13202.0 1209.40   5
  -3  -4   3 12415.8 979.827   1
   3   4  -3 10903.8 908.572   5
   3   4  -3 10684.5 884.258   1
   3   4  -3 11539.0 818.548   4
   3   4  -3 11790.2 1017.10   6
  -3  -4   3 10302.4 740.733   3
  -3  -4   3 11998.3 1041.53   5
   3   4  -1 75814.1 2684.51   5
   3   4  -1 83973.5 2592.68   1
   3   4  -1 84813.9 2827.83   4
  -3  -4   1 80382.4 2701.54   1
  -3  -4   1 84999.2 3017.24   6
   3   4  -1 81890.5 2568.87   3
   3   4  -1 83265.3 3009.08   6
  -3  -4   1 78728.7 2669.61   3
  -3  -4   1 83775.4 2897.11   5
   3   4   1 185.983 152.167   3
   3   4   1 129.412 98.6882   4
  -3  -4  -1 246.660 142.143   5
   3   4   1 424.594 100.343   1
  -3  -4  -1 271.071 140.325   3
   3   4   1 243.631 78.6261   5
  -3  -4  -1 177.862 141.050   6
   3   4   3 52004.7 2106.47   3
  -3  -4  -3 52485.6 2195.71   6
  -3  -4  -3 50845.3 1552.88   5
   3   4   3 48699.5 1587.77   5
   3   4   5 4212.49 575.674   3
   3   4   5 4905.88 278.061   2
  -3  -4  -5 4020.36 569.129   6
   3   4   5 5384.22 566.373   6
   3   4   5 4337.88 299.723   5
   3   4   7 28387.9 1606.40   7
   3   4   7 25891.6 977.928   1
  -3  -4  -7 29462.9 1714.47   6
   3   4   7 26223.4 1622.66   3
   3   4   7 26538.4 958.218   5
   3   4   9 21155.2 932.537   5
  -3  -4  -9 18407.9 831.463   2
  -3  -4  -9 18531.5 1513.44   6
   3   4   9 27330.1 1723.25   3
   3   4   9 24317.6 1137.29   1
   3   4  11 1010.02 391.255   3
  -3  -4 -11 838.676 212.955   2
   3   4  11 950.081 234.740   5
  -3  -4 -11 854.390 356.946   6
   3   4  11 774.427 219.767   1
   3   4  13 3164.17 681.075   3
   3   4  13 2282.43 411.436   5
  -3  -4 -13 2270.97 585.652   6
   3   4  15 1019.35 446.861   3
  -3  -4 -15 369.001 282.196   6
  -3  -5   9 1968.38 620.498   5
   3   5  -9 785.119 378.848   1
   3   5  -7 2382.79 544.477   1
  -3  -5   7 3062.24 711.253   5
   3   5  -7 2168.79 379.957   7
   3   5  -5 6749.72 785.747   1
   3   5  -5 6236.13 573.339   4
   3   5  -5 6818.67 670.958   7
   3   5  -5 5699.91 762.822   6
  -3  -5   5 6665.69 927.145   5
   3   5  -3 14917.9 1100.46   5
   3   5  -3 15703.5 1080.01   1
   3   5  -3 12978.1 924.621   4
   3   5  -3 14984.1 1192.75   6
  -3  -5   3 14042.1 1085.48   1
  -3  -5   3 13828.4 1210.15   5
   3   5  -1 13466.2 928.243   5
   3   5  -1 13556.3 983.823   4
   3   5  -1 13586.1 858.769   1
  -3  -5   1 13479.1 919.749   1
   3   5  -1 13409.1 910.493   3
   3   5  -1 13177.8 1055.11   6
  -3  -5   1 13096.6 1082.79   6
  -3  -5   1 14083.3 1036.50   5
   3   5   1 56885.3 1981.16   5
   3   5   1 59815.2 2410.48   4
   3   5   1 60312.4 1801.99   1
  -3  -5  -1 58044.6 2508.72   6
   3   5   1 60304.7 2257.28   3
   3   5   1 60333.3 2447.82   6
  -3  -5  -1 59019.1 2108.05   5
   3   5   3 6737.73 442.696   5
   3   5   3 6747.95 725.711   7
  -3  -5  -3 7748.59 804.574   6
   3   5   3 9036.56 809.310   3
  -3  -5  -3 7335.66 795.110   3
  -3  -5  -3 7178.29 463.290   5
   3   5   5 18238.4 575.131   2
   3   5   5 21186.0 585.892   2
  -3  -5  -5 19416.0 1385.69   6
   3   5   5 23048.3 1281.79   6
   3   5   5 21837.5 1426.49   3
  -3  -5  -7 37167.1 2161.73   6
   3   5   7 36776.3 2070.42   3
   3   5   9 940.798 113.587   5
   3   5   9 1791.14 495.109   3
   3   5   9 1021.85 118.304   5
  -3  -5  -9 1404.81 464.073   6
   3   5  11 4757.94 766.478   3
  -3  -5 -11 3639.46 752.582   6
   3   5  11 3211.90 319.791   5
   3   5  13 2199.05 541.253   3
  -3  -5 -13 1067.12 460.714   6
   3   5  15 425.436 329.838   3
  -3  -5 -15 576.490 349.455   6
  -3  -6   9 406.185 346.689   5
  -3  -6   7 5468.14 970.774   5
   3   6  -7 4460.96 607.017   7
  -3  -6   5 4514.49 828.314   5
   3   6  -5 3609.82 452.971   4
   3   6  -5 4394.85 582.822   7
  -3  -6   5 5011.51 660.664   3
   3   6  -5 4646.20 677.266   1
   3   6  -3 6282.61 658.999   4
   3   6  -3 6369.43 691.261   1
   3   6  -3 6480.24 777.098   6
  -3  -6   3 5960.81 751.538   1
  -3  -6   3 5443.60 688.287   3
  -3  -6   3 6187.60 839.163   5
   3   6  -1 8877.21 859.214   2
   3   6  -1 10326.7 887.966   4
   3   6  -1 9800.43 852.968   3
  -3  -6   1 10002.3 984.706   6
  -3  -6   1 9670.13 823.870   1
   3   6  -1 10699.5 984.254   6
  -3  -6   1 10534.7 950.933   3
  -3  -6   1 9225.48 908.302   5
   3   6   1 35970.2 1660.37   2
  -3  -6  -1 36458.5 1453.33   1
  -3  -6  -1 40272.8 2089.82   6
   3   6   1 38488.1 1850.94   3
   3   6   1 42826.0 2051.60   6
  -3  -6  -1 37478.2 1985.77   3
  -3  -6  -1 40120.8 1689.74   5
   3   6   3 9221.04 621.283   2
  -3  -6  -3 10067.2 982.190   3
  -3  -6  -3 10186.0 1001.88   6
   3   6   3 11360.0 970.186   3
   3   6   3 11188.1 953.419   6
  -3  -6  -3 10130.2 602.595   5
  -3  -6  -5 34734.9 2000.36   6
   3   6   5 35762.1 1908.58   3
  -3  -6  -5 29817.2 1888.39   3
   3   6   7 2504.46 553.298   3
  -3  -6  -7 2518.52 578.191   6
  -3  -6  -9 14310.9 1494.89   6
   3   6   9 18392.8 1516.92   3
   3   6  11 265.280 218.685   3
  -3  -6 -11 1292.91 512.357   6
   3   6  13 1334.88 466.587   3
  -3  -6 -13 1060.75 504.264   6
  -3  -6 -15 191.443 213.436   6
   3   7  -7-218.754 167.273   7
  -3  -7   7-238.697 321.550   5
  -3  -7   5 6645.88 1026.64   5
   3   7  -5 7126.51 804.171   7
  -3  -7   3 3608.30 679.812   5
   3   7  -3 4603.00 590.416   4
  -3  -7   3 5096.17 723.331   1
  -3  -7   3 4711.54 697.180   3
   3   7  -1 9678.30 905.234   4
   3   7  -1 9337.33 905.277   2
   3   7  -1 9413.34 922.516   3
  -3  -7   1 9163.51 996.440   6
  -3  -7   1 9788.44 867.682   1
  -3  -7   1 10225.2 1016.45   3
  -3  -7   1 10033.0 1007.61   5
  -3  -7  -1 4206.45 673.999   3
   3   7   1 3856.20 489.981   2
   3   7   1 5136.21 668.924   3
  -3  -7  -1 3497.23 616.888   6
  -3  -7  -1 4375.21 447.400   1
  -3  -7  -1 4976.90 578.486   5
   3   7   3 15385.2 844.626   2
  -3  -7  -3 15016.6 1327.89   6
   3   7   3 17892.1 1300.17   3
  -3  -7  -3 17205.2 845.509   5
   3   7   5 788.490 293.027   3
   3   7   5 936.587 95.6001   2
   3   7   5 787.946 97.0563   2
  -3  -7  -5 1183.65 410.904   6
   3   7   7 32826.5 2026.25   3
  -3  -7  -7 34557.2 2312.24   6
   3   7   9 7409.60 983.471   3
  -3  -7  -9 5886.17 1020.23   6
   3   7  11 685.039 336.022   3
  -3  -7 -11 1654.41 585.393   6
   3   7  13 1725.13 541.546   3
  -3  -7 -13 1333.33 572.276   6
  -3  -8   7 1410.54 577.006   5
   3   8  -7 769.158 297.174   7
  -3  -8   5 249.751 303.372   5
   3   8  -5 886.409 313.891   7
  -3  -8   3 3572.43 753.557   5
   3   8  -3 4164.95 660.075   7
  -3  -8   1 2478.83 468.647   1
  -3  -8   1 2898.79 568.571   5
   3   8  -1 2495.97 473.125   4
  -3  -8   1 1840.43 472.400   6
   3   8  -1 2085.80 473.030   3
   3   8   1 5636.33 628.482   2
   3   8   1 7566.92 879.160   3
  -3  -8  -1 6170.79 875.881   6
  -3  -8  -1 5971.87 584.160   1
  -3  -8  -1 6602.72 714.588   5
  -3  -8  -3 2217.57 304.571   5
  -3  -8  -3 1769.66 476.183   6
   3   8   3 1863.99 291.499   2
   3   8   3 2850.13 553.925   3
   3   8   5 5954.81 323.527   2
  -3  -8  -5 6406.80 942.580   6
   3   8   5 6561.11 865.257   3
   3   8   7 4749.20 773.268   3
  -3  -8  -7 4020.17 817.521   6
   3   8   9 4470.75 755.652   3
  -3  -8  -9 3060.59 760.679   6
   3   8  11 1602.98 538.694   3
  -3  -8 -11 408.277 411.408   6
   3   8  13 738.906 374.296   3
  -3  -8 -13 703.668 503.280   6
   3   9  -7 97.2524 147.374   7
  -3  -9   5 476.700 348.255   5
   3   9  -5 215.626 207.948   7
   3   9  -3 1625.68 457.354   7
  -3  -9   3 1458.59 485.422   5
  -3  -9   1 2106.40 522.530   5
  -3  -9   1 1887.67 484.005   6
   3   9  -1 1759.71 463.940   3
  -3  -9  -1 3532.24 577.705   5
  -3  -9  -1 3241.62 679.884   6
   3   9   1 4107.68 690.386   3
  -3  -9  -3 3004.04 631.710   6
  -3  -9  -3 3474.09 413.936   5
   3   9   3 3226.72 623.072   3
   3   9   5 234.911 194.320   3
  -3  -9  -5 908.425 404.291   6
   3   9   7 776.483 306.964   3
  -3  -9  -7 463.266 268.874   6
   3   9   9 1535.13 501.745   3
  -3  -9  -9 1762.64 629.183   6
   3   9  11-118.468 191.619   3
  -3  -9 -11-226.472 266.313   6
  -3 -10   5 54.7747 179.086   5
   3  10  -5 132.297 196.118   7
  -3 -10   3 211.623 171.277   5
   3  10  -3 268.874 205.927   7
  -3 -10   1 1929.54 533.747   5
  -3 -10   1 1320.93 415.920   6
   3  10  -1 1836.24 508.739   3
  -3 -10  -1 1837.36 413.379   5
  -3 -10  -1 1489.87 494.329   6
   3  10   1 563.236 271.063   3
  -3 -10  -3 2397.52 622.132   6
   3  10   3 2787.63 637.727   3
  -3 -10  -5 883.654 427.491   6
   3  10   5 1194.96 427.155   3
   3  10   7 2032.40 570.762   3
  -3 -10  -7 2134.96 659.124   6
   3  10   9 593.865 318.552   3
  -3 -10  -9 619.762 379.222   6
  -3 -11   3 303.407 273.398   5
   3  11  -1-192.938 248.521   7
  -3 -11   1-15.1554 136.320   6
  -3 -11  -1 182.070 205.696   6
   3  11   1 884.448 410.847   3
  -3 -11  -3 979.282 439.603   6
   3  11   3 1034.36 402.836   3
  -3 -11  -5 1511.49 538.103   6
   3  11   5 1193.99 472.424   3
  -3 -11  -7 1096.15 488.012   6
   3  11   7 685.930 314.632   3
  -3 -12  -1 715.218 387.314   6
  -3 -12  -3 651.561 387.577   6
  -4  11   4 325.716 247.405   7
   4 -11  -2 417.168 340.232   2
   4 -10  -4 312.072 277.145   2
  -4  10   4 445.773 312.683   4
  -4  10   4 298.371 225.568   7
  -4  10   2 996.293 374.464   4
  -4  10   2 653.857 313.663   7
   4 -10  -2 531.233 310.656   2
  -4  10   0 605.838 277.568   4
  -4  10   0 1136.39 423.529   7
   4 -10   0 503.688 356.802   2
   4  -9  -8 138.524 277.543   1
   4  -9  -6 661.303 357.648   2
  -4   9   6 811.364 379.462   4
  -4   9   6 526.962 238.888   7
   4  -9  -4 1465.92 457.297   2
  -4   9   4 993.578 418.979   4
  -4   9   4 1412.43 396.196   7
   4  -9  -2 1637.77 487.655   2
  -4   9   2 1427.36 464.785   4
  -4   9   2 1674.74 494.573   7
  -4   9   0 945.826 356.532   4
  -4   9   0 1336.15 424.285   7
   4  -9   0 1000.62 415.908   2
  -4   9  -2 1805.17 457.222   4
  -4   9  -2 1769.47 517.516   7
   4  -9   2 2302.94 633.658   2
  -4   9  -4 1096.04 404.056   7
   4  -9   4 1540.43 509.552   2
   4  -8 -10 207.723 225.190   1
   4  -8  -8 728.680 315.510   2
   4  -8  -8 365.664 290.887   1
  -4   8   8 1358.59 542.792   4
   4  -8  -6 2060.84 523.821   2
  -4   8   6 2333.21 676.559   4
  -4   8   6 1456.23 379.949   7
   4  -8  -4 3229.09 655.736   2
  -4   8   4 4800.90 838.311   4
  -4   8   4 3332.34 595.418   7
   4  -8  -2 1352.53 454.743   2
  -4   8   2 1164.61 404.680   4
  -4   8   2 1230.48 403.702   7
  -4   8   0 7797.30 986.165   4
   4  -8   0 9901.44 1163.68   2
  -4   8   0 10274.9 1103.37   7
  -4   8  -2 5717.44 786.858   4
   4  -8   2 6972.42 999.377   2
  -4   8  -2 6745.53 929.217   7
  -4   8  -4 1330.84 355.979   4
  -4   8  -4 1497.37 458.878   7
   4  -8   4 1983.70 539.990   2
   4  -8   6 2547.94 638.692   2
  -4   8  -6 3237.84 684.597   7
   4  -7 -10 44.6126 173.731   2
   4  -7 -10 308.695 250.775   1
   4  -7  -8 1108.67 396.843   2
  -4   7   8 937.115 454.427   4
   4  -7  -8 664.178 349.617   1
  -4   7   8 752.335 297.598   3
   4  -7  -6 1038.65 384.343   2
  -4   7   6 1269.19 454.073   4
  -4   7   6 1003.35 290.277   7
   4  -7  -4 3530.01 638.238   2
  -4   7   4 4201.96 777.144   4
  -4   7   4 3440.74 573.101   7
   4  -7  -2 18920.1 1506.58   2
  -4   7   2 20954.3 1649.41   4
  -4   7   2 16080.1 1301.94   7
   4  -7   0 5795.78 811.329   2
  -4   7   0 4270.65 700.204   4
  -4   7   0 3806.29 641.034   7
  -4   7  -2 6576.64 832.020   4
   4  -7   2 8943.28 1061.01   2
  -4   7  -2 8123.65 973.347   7
   4  -7   2 8335.03 653.689   6
   4  -7   4 6689.81 939.410   2
  -4   7  -4 7315.01 935.566   7
  -4   7  -4 6502.50 759.010   4
  -4   7  -6 6761.77 932.300   7
   4  -7   6 4716.69 839.540   2
  -4   7  -8 7149.45 1000.40   7
   4  -7   8 6116.79 1024.54   2
   4  -6 -10 758.113 339.145   1
   4  -6 -10 426.314 287.760   2
  -4   6  10 441.627 276.555   4
   4  -6  -8 512.721 283.161   2
   4  -6  -8 662.827 340.670   1
  -4   6   8 283.505 324.110   4
  -4   6   8 412.622 204.003   3
   4  -6  -6 1158.16 338.620   3
   4  -6  -6 1236.09 388.004   2
  -4   6   6 1269.27 477.262   4
  -4   6   6 797.493 251.876   7
  -4   6   4 14506.1 1425.28   4
   4  -6  -4 18066.0 1418.89   2
   4  -6  -4 16482.4 1253.01   3
   4  -6  -2 566.279 296.297   2
  -4   6   2 675.367 321.184   4
  -4   6   2 298.209 154.456   7
  -4   6   0 5134.39 744.645   4
   4  -6   0 5723.82 767.404   2
  -4   6   0 3216.14 539.373   7
  -4   6  -2 16113.2 1281.91   7
  -4   6  -2 14602.1 1191.45   4
  -4   6  -4 9059.92 874.137   4
   4  -6   4 9407.84 1055.82   2
  -4   6  -4 10650.2 1069.84   7
  -4   6  -6 5412.11 795.267   7
  -4   6  -6 4988.12 594.385   4
   4  -6   6 4621.28 798.384   2
   4  -6   8 10314.2 1251.47   2
  -4   6  -8 10860.9 1195.59   7
  -4   5  12 35.9006 150.740   5
   4  -5 -12-191.589 212.381   2
  -4   5  10 513.734 252.563   5
   4  -5 -10 195.345 165.752   1
   4  -5 -10 174.210 197.068   2
  -4   5  10 602.590 330.161   4
  -4   5   8 3482.02 588.829   5
   4  -5  -8 3426.97 652.029   2
  -4   5   8 2734.64 687.671   4
   4  -5  -8 2514.23 602.395   1
  -4   5   8 2126.75 412.386   3
   4  -5  -6 2078.23 391.042   3
   4  -5  -6 2672.89 543.641   2
  -4   5   6 1569.44 478.594   4
  -4   5   6 2021.18 326.657   7
   4  -5  -4 1579.28 361.984   3
   4  -5  -4 1219.74 381.132   2
  -4   5   4 1035.04 368.124   4
  -4   5   4 895.013 235.718   7
  -4   5   2 14393.5 1067.98   7
  -4   5   2 16449.5 1391.03   4
   4  -5  -2 19941.2 1278.54   3
   4  -5  -2 23782.3 1549.87   2
   4  -5  -2 22550.2 1498.45   5
  -4   5   0 8979.29 854.897   7
  -4   5   0 10394.4 1029.89   4
   4  -5   0 11735.3 1025.12   3
  -4   5  -2 7933.76 822.427   4
  -4   5  -2 7849.04 819.867   7
   4  -5   2 7255.09 833.764   2
   4  -5   4 10866.0 480.140   6
  -4   5  -4 10463.8 919.467   4
   4  -5   4 11224.4 1076.27   2
  -4   5  -4 11926.3 1057.02   7
   4  -5   4 10450.3 438.588   6
  -4   5  -6 546.317 220.775   4
  -4   5  -6 874.975 310.017   7
   4  -5   6 561.679 219.467   2
   4  -5   8 5504.12 840.573   2
  -4   5  -8 5501.17 796.822   7
   4  -5  10 7164.19 1088.97   2
  -4   5 -10 9088.57 1101.14   7
  -4   4  12 248.500 186.855   5
  -4   4  12 113.979 184.875   4
  -4   4  10 1238.16 368.022   5
   4  -4 -10 1574.27 523.696   1
   4  -4 -10 1363.42 493.938   2
  -4   4  10 147.828 200.594   4
  -4   4   8 2022.35 446.924   5
   4  -4  -8 2105.10 513.120   2
  -4   4   8 1827.96 551.308   4
   4  -4  -8 2422.05 586.583   1
  -4   4   8 1559.04 323.981   3
  -4   4   6 90.3169 165.827   5
   4  -4  -6 19.9647 99.4026   3
  -4   4   6 147.845 57.6572   7
   4  -4  -6 547.059 288.449   2
   4  -4  -6-122.901 234.318   1
  -4   4   6-38.1284 207.246   4
  -4   4   4 24305.9 1158.54   7
   4  -4  -4 26733.1 1667.50   2
   4  -4  -4 24000.2 1271.89   3
   4  -4  -4 25565.9 1598.84   5
   4  -4  -2 14476.4 991.580   3
  -4   4   2 12769.6 1177.39   4
  -4   4   2 15984.5 1001.51   7
   4  -4  -2 16672.5 1292.43   2
   4  -4  -2 16887.7 1241.46   5
   4  -4   0 1977.63 416.702   5
   4  -4   0 1661.45 360.145   2
  -4   4   0 1421.60 343.865   2
  -4   4   0 1037.39 309.087   4
  -4   4   0 1226.11 289.309   7
   4  -4   0 1213.69 298.273   3
  -4   4  -2 19844.5 1314.29   4
  -4   4  -2 21163.4 1294.51   7
   4  -4   2 19417.2 1234.16   7
   4  -4   2 20461.3 1356.17   2
   4  -4   2 19013.3 1319.77   3
  -4   4  -2 21324.1 1403.83   2
  -4   4  -4 5096.50 611.680   4
   4  -4   4 5547.47 695.211   2
  -4   4  -4 5460.03 669.487   7
   4  -4   4 5014.51 357.146   6
  -4   4  -6 4694.32 551.041   4
  -4   4  -6 3811.53 593.105   7
   4  -4   6 3449.82 609.981   2
  -4   4  -8 3662.10 618.780   7
   4  -4   8 3178.82 605.488   2
  -4   4 -10 4788.14 776.555   7
   4  -4  10 3754.79 736.898   2
  -4   4 -12 1387.49 440.512   7
  -4   3  12 674.587 333.504   5
  -4   3  12 548.857 368.475   4
  -4   3  10 302.583 199.113   5
   4  -3 -10 399.829 232.200   1
  -4   3  10 410.698 334.425   4
  -4   3   8 4634.24 692.321   5
  -4   3   8 5014.36 882.342   4
   4  -3  -8 4982.81 818.618   1
  -4   3   6 22846.9 1748.58   4
   4  -3  -6 20670.7 1594.24   1
   4  -3  -6 21659.4 1581.39   2
   4  -3  -6 17501.8 933.780   3
  -4   3   6 19350.3 1352.04   5
  -4   3   4 2145.92 420.125   5
   4  -3  -4 1856.36 429.026   5
  -4   3   4 1866.73 236.519   7
   4  -3  -4 2866.64 525.798   2
  -4   3   4 2912.10 567.730   4
   4  -3  -4 2267.78 323.646   3
  -4   3   2 26098.2 1599.63   4
  -4   3   2 24264.1 1136.41   7
   4  -3  -2 22696.3 1166.13   3
   4  -3  -2 24094.7 1529.38   2
   4  -3  -2 26401.2 1540.41   5
  -4   3   0 68186.3 2726.94   4
  -4   3   0 67930.5 2383.21   7
   4  -3   0 64175.8 2291.91   7
   4  -3   0 66975.4 2490.82   3
   4  -3   0 74438.9 2781.24   2
  -4   3   0 71519.5 2747.98   2
   4  -3   0 71465.6 2759.00   5
   4  -3   2-52.1531 130.632   2
  -4   3  -2 174.955 144.625   4
  -4   3  -2 171.945 158.222   7
   4  -3   2 127.164 118.367   7
  -4   3  -4 33878.5 1684.91   4
  -4   3  -4 34657.1 1714.60   7
   4  -3   4 33503.3 1749.03   2
   4  -3   4 34606.1 1710.43   7
  -4   3  -4 32544.4 1798.99   2
   4  -3   4 32552.2 1211.23   6
  -4   3  -6 10691.9 848.976   4
   4  -3   6 9983.65 963.551   2
  -4   3  -6 11262.1 986.523   7
   4  -3   8 6799.09 824.073   2
  -4   3  -8 5285.31 716.005   7
  -4   3 -10 3277.19 609.669   7
   4  -3  10 3933.34 688.214   2
   4  -3  12 1338.57 426.069   5
  -4   3 -12 1728.72 463.622   7
  -4   2  12 156.281 229.856   5
  -4   2  12 140.052 175.132   4
  -4   2  10 1243.40 393.794   5
   4  -2 -10 1077.18 476.278   1
  -4   2  10 969.860 393.664   4
  -4   2   8 3758.56 639.568   5
   4  -2  -8 3171.07 652.834   1
  -4   2   8 4529.76 774.359   4
  -4   2   6 5977.53 837.607   4
   4  -2  -6 4937.66 782.659   1
  -4   2   6 5533.04 719.269   5
  -4   2   4 25770.1 1650.43   4
  -4   2   4 25160.0 768.764   7
   4  -2  -4 23749.6 984.451   3
   4  -2  -4 29690.9 1748.83   2
  -4   2   4 27942.9 1562.25   5
   4  -2  -4 25747.2 1576.89   5
  -4   2   2 58304.1 2441.87   4
  -4   2   2 53309.5 1755.14   7
   4  -2  -2 53370.2 1697.33   7
   4  -2  -2 52268.7 1799.66   3
   4  -2  -2 57001.2 2464.06   2
  -4   2   2 55625.9 2283.42   5
   4  -2  -2 53791.2 2334.75   5
  -4   2   0 10344.1 892.534   4
   4  -2   0 9568.05 710.302   3
  -4   2   0 10946.0 726.652   7
   4  -2   0 10068.7 660.692   7
   4  -2   0 12086.4 963.347   2
   4  -2   2 75187.8 2637.43   4
  -4   2  -2 74265.6 2749.13   4
  -4   2  -2 77269.8 2589.15   7
   4  -2   2 72577.2 2523.05   7
   4  -2   2 77025.3 2755.23   2
   4  -2   2 73372.1 2485.96   6
  -4   2  -4 34379.2 1682.57   4
  -4   2  -4 35416.4 1675.27   7
   4  -2   4 35888.5 1707.51   7
   4  -2   4 37479.0 1729.49   2
  -4   2  -4 36941.3 1851.21   2
   4  -2   4 35049.3 1353.86   6
  -4   2  -6 12794.8 1011.59   7
  -4   2  -6 12107.3 900.712   4
   4  -2   6 12737.0 1022.96   2
  -4   2  -6 12900.7 1095.62   2
   4  -2   8 4665.71 644.733   2
  -4   2  -8 4811.95 649.921   7
   4  -2  10 11119.2 1123.33   2
  -4   2 -10 12522.3 1161.60   7
   4  -2  12 2767.39 581.566   5
  -4   2 -12 2499.14 564.883   7
  -4   2 -14-46.7840 178.477   7
  -4   1  12 854.745 419.515   5
  -4   1  12 1086.57 431.272   4
  -4   1  10 545.825 301.164   5
  -4   1  10 960.531 390.635   4
   4  -1 -10 243.419 212.068   1
  -4   1   8 2888.53 593.239   5
   4  -1  -8 3890.47 698.498   1
  -4   1   8 3542.51 652.517   4
  -4   1   6 11036.6 1067.95   4
   4  -1  -6 10737.3 1109.07   1
  -4   1   6 11511.0 1073.75   5
  -4   1   4 2003.78 433.714   5
   4  -1  -4 1861.75 426.619   5
  -4   1   4 1750.61 414.583   4
   4  -1  -4 1587.93 404.052   1
  -4   1   2 24913.3 1465.68   4
  -4   1   2 24646.8 983.264   7
   4  -1  -2 23991.6 898.468   7
   4  -1  -2 25988.9 949.638   3
   4  -1  -2 27371.8 1570.37   2
  -4   1   2 25258.4 1396.71   5
  -4   1   0 194499. 5513.75   4
   4  -1   0 191916. 4866.15   7
  -4   1   0 190517. 4966.93   7
   4  -1   0 193366. 5502.94   2
  -4   1  -2 58559.6 2315.03   4
  -4   1  -2 55610.7 2076.24   7
   4  -1   2 55062.3 2013.90   7
   4  -1   2 58911.4 2238.53   2
   4  -1   2 58761.3 2166.79   6
   4  -1   4 3289.64 453.372   2
  -4   1  -4 2921.64 464.471   2
   4  -1   4 3142.53 438.875   7
  -4   1  -4 3233.79 458.625   4
  -4   1  -4 3002.64 421.793   7
   4  -1   4 3117.84 365.908   6
  -4   1  -6 9071.28 835.575   7
   4  -1   6 9959.20 840.132   2
   4  -1   6 10983.6 933.731   7
  -4   1  -6 10536.1 958.925   2
   4  -1   6 10934.2 599.206   6
   4  -1   8 22527.2 1371.52   2
  -4   1  -8 23812.2 1471.57   7
  -4   1  -8 22612.3 1579.48   2
  -4   1  -8 21569.4 964.953   6
   4  -1  10 9621.44 966.031   2
  -4   1 -10 9905.07 1020.42   7
  -4   1 -10 10190.6 616.000   6
   4  -1  12 5160.73 751.569   5
  -4   1 -12 5910.64 846.506   7
   4  -1  14 626.811 320.977   5
  -4   1 -14 563.202 313.472   7
  -4   0  10 498.077 320.414   5
  -4   0  10 1290.91 393.728   4
  -4   0   8 796.466 341.743   5
   4   0  -8 666.706 305.727   1
  -4   0   8 683.237 290.466   4
  -4   0   6 4275.55 654.780   5
   4   0  -6 3870.69 683.215   1
  -4   0   6 3082.47 538.850   4
  -4   0   4 27533.5 1610.62   4
   4   0  -4 27388.7 1683.06   1
  -4   0   4 30639.1 1701.22   5
   4   0  -4 28985.4 1719.76   5
  -4   0   2 24503.1 1427.78   4
   4   0  -2 24588.0 893.081   7
   4   0  -2 25895.7 781.285   3
  -4   0   2 25668.8 1441.72   5
  -4   0   0 15077.2 1062.82   4
  -4   0   0 14509.4 824.881   7
   4   0   0 14530.9 752.394   7
   4   0   0 15492.3 1072.93   6
   4   0   0 16120.9 1057.42   2
  -4   0   0 14769.5 976.205   5
   4   0   2 44483.6 1708.67   7
  -4   0  -2 46416.9 2002.19   4
  -4   0  -2 47410.4 1836.07   7
   4   0   2 47111.6 1923.87   6
   4   0   2 44743.4 1845.56   2
   4   0   2 44908.7 1909.53   5
  -4   0  -4 77042.1 2746.18   4
  -4   0  -4 77846.2 2705.96   7
   4   0   4 76835.1 2669.70   7
   4   0   4 77063.8 2586.31   2
  -4   0  -4 73318.9 2484.29   6
   4   0   4 76836.2 2519.08   6
  -4   0  -6 32015.9 1668.65   7
   4   0   6 34349.6 1722.65   7
   4   0   6 35353.7 1591.83   2
  -4   0  -6 32995.6 1463.41   6
  -4   0  -6 33291.2 1712.21   2
   4   0   6 34277.2 1368.55   6
  -4   0  -8 1282.43 333.713   2
   4   0   8 753.330 236.916   4
  -4   0  -8 1278.46 349.629   7
  -4   0  -8 992.537 243.182   6
   4   0   8 921.690 259.956   1
   4   0   8 1486.07 336.130   2
   4   0  10 8717.12 877.444   2
   4   0  10 10486.3 937.629   4
  -4   0 -10 11373.4 1076.56   7
  -4   0 -10 10208.5 802.326   6
  -4   0 -12 4964.18 759.676   7
   4   0  12 4368.20 655.077   5
  -4   0 -12 3926.41 509.098   6
  -4   0 -14 849.076 336.483   7
   4   0  14 226.444 186.431   5
   4   1 -10 660.103 325.634   1
  -4  -1  10 505.461 280.401   5
  -4  -1  10 301.990 160.002   4
  -4  -1   8 4625.20 761.497   5
  -4  -1   8 3658.77 614.375   4
   4   1  -8 4390.42 737.454   1
  -4  -1   6 10530.4 963.657   4
   4   1  -6 9524.29 1025.26   1
  -4  -1   6 12423.9 1153.55   5
   4   1  -4 2704.48 511.600   1
   4   1  -4 1836.68 141.832   7
  -4  -1   4 2151.17 445.069   5
   4   1  -4 2143.88 154.222   7
   4   1  -4 2250.21 484.184   5
   4   1  -4 2539.06 407.590   4
  -4  -1   4 1859.70 394.010   4
  -4  -1   2 1819.87 357.839   5
   4   1  -2 1966.19 224.402   7
  -4  -1   2 2298.88 413.728   4
   4   1  -2 2391.96 392.767   4
   4   1  -2 1760.05 370.583   1
  -4  -1   0 56885.8 1965.94   7
  -4  -1   0 59485.9 2330.88   4
   4   1   0 56748.0 1866.35   7
  -4  -1   0 57460.2 2193.99   5
   4   1   0 55960.8 2265.58   5
  -4  -1  -2 71429.6 2694.89   4
  -4  -1  -2 74477.3 2556.14   7
   4   1   2 70970.2 2397.83   7
   4   1   2 77331.9 2700.08   6
   4   1   2 75550.2 2529.63   2
   4   1   2 75735.3 2591.35   5
   4   1   4 127987. 3979.12   4
  -4  -1  -4 122858. 3799.74   7
   4   1   4 124537. 3742.98   7
   4   1   4 126142. 3544.78   2
  -4  -1  -4 118606. 3715.65   6
   4   1   4 120612. 3649.17   6
  -4  -1  -4 121630. 3709.08   2
   4   1   4 111605. 3596.66   5
   4   1   6 1408.44 260.520   2
   4   1   6 1579.98 352.629   4
  -4  -1  -6 1188.09 271.894   7
   4   1   6 1273.98 308.921   7
  -4  -1  -6 1099.51 259.237   6
   4   1   6 1472.74 263.300   6
   4   1   8 14122.4 934.335   2
   4   1   8 13548.6 1102.45   4
  -4  -1  -8 14763.6 1144.16   7
   4   1   8 14264.0 969.963   1
  -4  -1  -8 14268.2 1095.85   2
  -4  -1  -8 13646.5 978.263   6
   4   1  10 5530.14 649.820   1
  -4  -1 -10 3518.62 599.121   2
   4   1  10 4204.59 614.817   4
  -4  -1 -10 4555.50 676.555   7
  -4  -1 -10 5689.83 641.285   6
   4   1  10 3868.05 538.146   2
   4   1  12 3481.41 558.109   5
  -4  -1 -12 3455.78 528.825   6
  -4  -1 -12 4149.24 681.553   7
   4   1  14 1521.57 403.823   5
  -4  -1 -14 1422.67 461.651   7
  -4  -2  10 1533.67 524.688   5
   4   2 -10 1617.23 502.004   1
   4   2  -8 1025.04 376.113   1
  -4  -2   8 1511.89 482.771   5
  -4  -2   8 1243.36 337.030   4
  -4  -2   6 3120.15 597.640   5
   4   2  -6 2437.21 216.343   7
   4   2  -6 2332.48 188.864   7
  -4  -2   6 2146.66 422.193   4
   4   2  -6 2447.35 510.407   1
   4   2  -4 19188.2 1393.99   5
  -4  -2   4 17083.2 1197.31   4
   4   2  -4 18095.3 821.665   7
   4   2  -4 19837.5 1178.38   4
   4   2  -4 18228.7 1404.79   6
   4   2  -4 18111.0 1312.42   1
  -4  -2   4 22258.1 1477.35   5
   4   2  -2 33462.3 1320.55   7
  -4  -2   2 34614.7 1735.89   4
   4   2  -2 35796.4 1684.25   4
   4   2  -2 35854.5 1034.85   3
   4   2  -2 34726.4 1717.81   1
  -4  -2   2 34754.5 1767.40   5
   4   2  -2 33477.6 1811.39   5
  -4  -2   0 2049.44 350.755   5
   4   2   0 2055.50 282.471   3
   4   2   0 2070.61 363.323   5
  -4  -2   0 2002.28 374.627   4
   4   2   0 2377.16 400.755   4
   4   2   0 2028.05 299.813   7
   4   2   0 1649.69 296.226   1
  -4  -2  -2 69552.1 2562.66   7
   4   2   2 72711.9 2523.00   7
  -4  -2  -2 71857.6 2688.39   6
   4   2   2 78367.8 2780.30   6
   4   2   2 75683.5 2517.45   2
   4   2   2 73930.6 2537.14   3
  -4  -2  -2 75036.6 2428.43   5
   4   2   2 74203.4 2561.18   5
  -4  -2  -4 18329.0 1169.33   7
   4   2   4 17095.3 1097.83   7
   4   2   4 21148.9 1025.73   2
  -4  -2  -4 18474.2 1189.04   6
   4   2   4 19409.6 1155.12   6
   4   2   4 18001.8 1029.42   5
   4   2   6 84909.5 3182.57   4
  -4  -2  -6 77897.2 2980.38   7
   4   2   6 75855.8 2889.01   7
   4   2   6 81060.4 2483.59   2
  -4  -2  -6 80434.1 2940.06   6
   4   2   6 84056.0 2776.49   6
  -4  -2  -6 73829.9 2609.55   2
   4   2   8 3707.21 420.801   2
   4   2   8 4014.82 621.385   4
   4   2   8 4264.16 467.329   1
  -4  -2  -8 4106.51 600.858   7
  -4  -2  -8 3801.48 538.085   6
   4   2  10 7545.87 715.416   1
   4   2  10 6853.34 675.481   2
   4   2  10 7890.64 906.984   4
  -4  -2 -10 7906.41 898.093   7
  -4  -2 -10 7194.55 788.017   2
  -4  -2 -10 8084.55 840.549   6
   4   2  12 9084.72 846.354   5
  -4  -2 -12 6742.82 831.714   6
   4   2  14 187.428 154.422   5
  -4  -2 -14 255.760 206.373   7
  -4  -3  10 599.450 330.764   5
   4   3 -10 252.432 219.596   1
   4   3  -8 2451.20 571.350   1
  -4  -3   8 2909.15 507.314   4
   4   3  -6 5526.55 768.856   1
  -4  -3   6 5828.10 676.272   4
   4   3  -6 6171.08 469.882   7
  -4  -3   6 6463.47 919.393   5
  -4  -3   4 3794.24 617.974   5
  -4  -3   4 3584.07 516.990   4
   4   3  -4 3806.12 503.117   4
   4   3  -4 4004.99 577.305   1
   4   3  -2 12796.3 1037.14   5
   4   3  -2 12615.3 954.797   4
  -4  -3   2 12421.8 969.331   4
   4   3  -2 11116.5 770.033   7
   4   3  -2 12484.6 637.133   3
   4   3  -2 13973.8 1173.03   6
   4   3  -2 12242.8 935.807   1
  -4  -3   2 12655.8 1029.86   5
   4   3   0 45588.1 2011.53   4
   4   3   0 40446.6 1720.97   7
   4   3   0 41087.9 1706.47   1
   4   3   0 44767.7 1600.91   3
  -4  -3   0 42030.6 1856.42   5
   4   3   0 43076.1 1923.16   5
  -4  -3  -2 971.311 230.838   5
   4   3   2 618.157 209.322   3
   4   3   2 533.920 173.898   5
   4   3   2 790.010 243.051   7
   4   3   2 482.759 149.997   1
  -4  -3  -2 262.811 169.738   6
   4   3   4 58054.8 2381.16   7
  -4  -3  -4 62286.5 2521.20   6
   4   3   4 59406.1 1986.61   2
   4   3   4 63245.4 2432.74   6
   4   3   4 60486.5 2442.95   3
   4   3   4 59456.9 2096.50   5
   4   3   6 30719.6 1777.54   4
  -4  -3  -6 28756.9 1640.22   7
   4   3   6 28494.0 1593.57   7
   4   3   6 27332.7 1086.91   1
  -4  -3  -6 29129.4 1640.16   6
   4   3   6 31906.0 1550.14   6
   4   3   6 30522.4 1731.33   3
   4   3   6 27357.9 1264.31   5
   4   3   6 29561.7 1182.11   2
   4   3   8 9643.64 667.340   1
   4   3   8 10815.0 1052.98   4
   4   3   8 8926.23 603.088   2
  -4  -3  -8 10183.0 978.123   7
  -4  -3  -8 8993.32 911.225   6
  -4  -3  -8 9366.56 714.646   2
   4   3   8 10360.9 1047.78   3
  -4  -3 -10 12559.0 963.248   2
  -4  -3 -10 14031.9 1225.91   6
   4   3  10 13240.1 1303.67   3
   4   3  10 13966.3 939.531   1
  -4  -3 -12 2584.35 565.476   7
   4   3  12 2579.41 659.423   3
   4   3  12 1457.98 321.663   5
  -4  -3 -12 2555.60 547.147   6
  -4  -3 -14 1492.61 452.098   7
  -4  -3 -14 1045.92 404.503   6
   4   4 -10 905.095 406.609   1
  -4  -4   8 2084.79 626.555   5
   4   4  -8 1473.11 450.611   1
  -4  -4   6 1234.55 209.819   3
  -4  -4   6 1614.35 456.230   5
   4   4  -6 1519.10 457.705   1
   4   4  -6 1022.87 220.555   7
   4   4  -4 9829.60 917.031   1
   4   4  -4 10038.6 852.666   4
  -4  -4   4 9123.12 633.953   3
  -4  -4   4 10054.9 1056.20   5
   4   4  -2 7046.36 667.659   1
   4   4  -2 6084.09 694.847   5
   4   4  -2 6719.66 706.985   4
   4   4  -2 6551.27 531.332   3
   4   4  -2 7975.15 886.441   6
  -4  -4   2 6596.51 570.213   3
  -4  -4   2 7687.68 823.937   5
   4   4   0 13693.9 1000.98   5
   4   4   0 14209.5 1084.75   4
   4   4   0 13031.6 963.802   7
  -4  -4   0 14468.0 1142.60   6
   4   4   0 15703.0 1209.44   6
   4   4   0 14475.7 862.748   3
   4   4   0 13676.5 832.107   1
  -4  -4   0 14998.8 1028.26   5
   4   4   2 9635.43 916.798   4
   4   4   2 7324.58 739.600   7
  -4  -4  -2 9203.01 915.543   6
   4   4   2 8826.05 761.590   3
   4   4   2 8730.33 533.679   1
  -4  -4  -2 8979.50 668.918   5
   4   4   2 7769.79 664.239   5
   4   4   4 29907.6 1632.05   7
   4   4   4 32563.0 1814.31   4
   4   4   4 27943.2 942.889   1
  -4  -4  -4 29647.6 1702.46   6
   4   4   4 30370.4 1223.05   2
   4   4   4 32878.6 1711.11   6
   4   4   4 31476.8 1696.13   3
   4   4   4 28679.5 1247.47   5
   4   4   6 11662.3 510.206   1
   4   4   6 12026.9 624.629   2
   4   4   6 13456.4 1171.14   4
   4   4   6 11828.9 1037.61   7
  -4  -4  -6 12242.7 1087.50   6
   4   4   6 13545.6 1005.36   6
   4   4   6 11648.6 1071.95   3
   4   4   6 11065.7 686.250   5
   4   4   8 9938.53 548.310   2
  -4  -4  -8 12459.1 1154.20   6
   4   4   8 11252.0 1128.20   3
   4   4   8 11235.3 629.761   1
   4   4   8 11408.7 715.840   5
   4   4  10 84.1560 226.990   3
   4   4  10 144.600 110.366   1
   4   4  10 241.421 113.736   5
  -4  -4 -10 98.2121 98.5012   2
  -4  -4 -10 247.804 241.597   7
  -4  -4 -10 351.919 248.226   6
   4   4  12 10878.8 810.735   5
  -4  -4 -12 9571.20 1166.23   6
   4   4  14 1372.75 538.617   3
  -4  -4 -14 1185.00 423.830   6
  -4  -5   8 1129.49 485.655   5
   4   5  -8 835.747 348.108   1
   4   5  -6 8217.75 965.814   1
   4   5  -6 8400.22 745.888   7
  -4  -5   6 8958.60 1156.23   5
  -4  -5   4 51.8452 115.592   3
  -4  -5   4-8.63741 156.438   5
   4   5  -4-23.6476 118.356   4
   4   5  -4-12.7687 128.368   1
   4   5  -2 8550.14 830.347   5
   4   5  -2 10643.8 865.689   1
   4   5  -2 9236.92 865.325   4
   4   5  -2 10791.6 786.980   3
  -4  -5   2 9636.83 800.506   3
  -4  -5   2 8968.31 914.291   5
   4   5   0 7437.48 699.739   5
   4   5   0 8348.38 640.237   1
   4   5   0 7505.66 809.747   4
  -4  -5   0 7583.99 856.853   6
   4   5   0 8042.25 690.386   3
   4   5   0 7989.39 874.792   6
  -4  -5   0 8832.70 802.325   5
   4   5   2 30610.5 1394.65   5
   4   5   2 32753.2 1140.16   1
   4   5   2 31972.6 1820.52   4
   4   5   2 30229.4 1689.84   7
  -4  -5  -2 30952.3 1862.73   6
   4   5   2 32703.9 1808.03   6
   4   5   2 32136.5 1612.07   3
  -4  -5  -2 31191.8 1691.55   3
  -4  -5  -2 31103.0 1404.94   5
   4   5   4 1105.47 335.022   3
   4   5   4 643.758 157.031   5
   4   5   4 678.270 254.539   4
   4   5   4 959.751 197.659   2
   4   5   4 840.367 283.263   7
  -4  -5  -4 607.091 255.939   6
   4   5   4 640.635 242.204   6
   4   5   6 25223.2 853.359   2
  -4  -5  -6 21789.6 1602.58   6
   4   5   6 25937.0 1710.26   3
   4   5   6 21785.6 883.051   5
   4   5   8 144.730 71.5051   5
   4   5   8 331.076 293.979   3
  -4  -5  -8 232.526 291.954   6
   4   5  10 4613.08 354.741   5
   4   5  10 4908.87 799.490   3
   4   5  10 4514.74 425.823   1
  -4  -5 -10 4637.14 849.581   6
   4   5  12 2346.59 598.723   3
  -4  -5 -12 1677.30 525.945   6
   4   5  14 746.743 379.815   3
  -4  -5 -14 238.649 223.190   6
  -4  -6   8 1719.08 629.776   5
   4   6  -8 710.798 329.471   1
  -4  -6   6 641.697 385.227   5
   4   6  -6 849.307 320.971   1
   4   6  -6 521.329 212.588   7
   4   6  -4 10890.7 952.489   4
   4   6  -4 10834.7 1030.66   1
  -4  -6   4 11489.7 999.659   3
  -4  -6   4 13842.1 1354.81   5
  -4  -6   2 514.739 209.752   3
  -4  -6   2 166.956 141.093   5
   4   6  -2 302.239 167.073   4
  -4  -6   2 543.442 234.693   1
   4   6  -2 801.587 236.443   1
   4   6  -2 383.323 199.232   3
   4   6   0 10124.4 833.561   5
   4   6   0 10340.2 989.812   4
   4   6   0 10989.6 755.657   1
  -4  -6   0 10055.2 1076.80   6
   4   6   0 11740.6 926.941   3
  -4  -6   0 9576.37 929.450   3
  -4  -6   0 11112.8 934.656   5
   4   6   2 3080.68 490.942   3
   4   6   2 3251.37 394.692   5
  -4  -6  -2 3017.46 528.473   3
   4   6   2 3230.64 566.416   4
  -4  -6  -2 2459.89 551.611   6
  -4  -6  -2 4021.88 476.623   5
   4   6   4 12293.6 669.782   5
  -4  -6  -4 13575.6 1235.83   6
   4   6   4 15597.5 1208.48   3
  -4  -6  -4 13827.2 713.241   5
   4   6   6 6558.88 296.319   2
   4   6   6 7314.96 300.811   2
  -4  -6  -6 6864.31 932.698   6
   4   6   6 7643.56 943.200   3
  -4  -6  -8 9325.73 1154.41   6
   4   6   8 10041.9 1141.24   3
   4   6  10-20.2994 227.069   3
  -4  -6 -10 443.281 300.435   6
   4   6  12 912.289 372.949   3
  -4  -6 -12 869.749 380.241   6
  -4  -6 -14 706.822 413.704   6
  -4  -7   6 2873.12 746.374   5
   4   7  -6 2173.99 452.185   7
  -4  -7   4 1809.16 513.017   5
   4   7  -4 1953.06 440.288   7
  -4  -7   2 3235.73 585.093   3
  -4  -7   2 4442.26 720.140   5
   4   7  -2 3859.97 606.642   4
  -4  -7   2 2872.54 531.238   1
   4   7  -2 3680.44 566.676   3
  -4  -7   0 3016.26 567.712   3
  -4  -7   0 3414.79 531.944   5
   4   7   0 4088.73 594.831   3
  -4  -7   0 3362.67 654.425   6
   4   7   0 2972.97 504.774   2
  -4  -7  -2 3960.53 646.950   3
   4   7   2 4323.06 526.742   2
   4   7   2 4395.31 630.891   3
  -4  -7  -2 3915.07 691.052   6
  -4  -7  -2 4855.40 537.227   5
   4   7   4 6492.97 525.999   2
  -4  -7  -4 5930.32 852.765   6
   4   7   4 7596.39 873.187   3
  -4  -7  -4 6777.73 476.699   5
  -4  -7  -6 7712.68 1039.38   6
   4   7   6 9709.55 1032.26   3
   4   7   8 4851.69 797.267   3
  -4  -7  -8 5780.30 958.215   6
   4   7  10 804.157 352.068   3
  -4  -7 -10 847.676 381.263   6
   4   7  12 1717.08 508.628   3
  -4  -7 -12 1610.65 585.933   6
  -4  -7 -14 176.054 245.821   6
  -4  -8   6 142.877 263.699   5
   4   8  -6 105.344 151.895   7
  -4  -8   4 2637.62 689.142   5
   4   8  -4 1415.16 400.380   7
  -4  -8   2 4347.32 756.839   5
   4   8  -2 3848.21 626.972   3
  -4  -8   0 914.456 320.718   5
  -4  -8   0 1246.06 297.433   1
  -4  -8   0 957.872 363.288   6
   4   8   0 944.687 329.698   3
   4   8   2 5486.86 603.433   2
  -4  -8  -2 6444.83 936.513   6
   4   8   2 6199.91 808.405   3
  -4  -8  -2 6511.31 655.162   5
   4   8   4 1446.97 393.604   3
  -4  -8  -4 1399.72 218.581   5
  -4  -8  -4 913.140 393.786   6
   4   8   4 1121.25 213.637   2
   4   8   6 2926.05 623.177   3
  -4  -8  -6 3932.88 768.431   6
   4   8   8 2525.82 595.858   3
  -4  -8  -8 1637.72 522.753   6
   4   8  10 1557.14 495.905   3
  -4  -8 -10 1410.18 557.153   6
   4   8  12 831.126 415.797   3
  -4  -8 -12 711.100 446.826   6
  -4  -9   4 470.017 310.552   5
   4   9  -4 567.817 277.009   7
  -4  -9   2 319.157 225.633   5
  -4  -9   0 3381.15 596.584   5
  -4  -9   0 2759.57 643.784   6
   4   9   0 3097.57 604.115   3
  -4  -9  -2 1219.13 306.694   5
  -4  -9  -2 488.166 290.307   6
   4   9   2 718.116 269.609   3
  -4  -9  -4 1865.62 544.436   6
   4   9   4 2465.62 571.403   3
   4   9   6 860.095 399.965   3
  -4  -9  -6 989.613 408.563   6
   4   9   8 2094.33 561.443   3
  -4  -9  -8 1934.02 668.584   6
   4   9  10 577.311 354.041   3
  -4  -9 -10 91.3666 170.054   6
  -4 -10   4-80.2149 200.754   5
   4  10  -4 464.294 258.308   7
  -4 -10   2 985.287 431.831   5
  -4 -10   0 116.451 123.650   5
  -4 -10   0 337.857 204.483   6
   4  10   0-132.395 159.272   3
  -4 -10  -2 1582.70 534.244   6
   4  10   2 1019.87 396.596   3
  -4 -10  -4 1341.80 493.805   6
   4  10   4 1409.16 446.233   3
   4  10   6 1038.41 424.274   3
  -4 -10  -6 752.976 380.698   6
   4  10   8 461.773 304.942   3
  -4 -10  -8 496.893 348.180   6
  -4 -11   0 38.4203 144.210   6
   4  11   0 277.864 288.003   3
  -4 -11  -2 244.117 243.184   6
   4  11   2 394.493 273.180   3
  -4 -11  -4 517.708 348.306   6
   4  11   4 1086.58 414.634   3
  -4 -11  -6 751.773 439.667   6
   4  11   6 704.192 378.441   3
  -5  10   3 145.809 164.884   7
  -5  10   1 390.008 283.408   7
  -5  10  -1-173.080 190.288   4
   5  -9  -7 359.221 324.642   2
   5  -9  -5 593.542 315.890   2
   5  -9  -3 59.5502 217.037   2
  -5   9   3 570.094 345.167   4
  -5   9   3 247.857 242.278   7
   5  -9  -1 113.013 214.786   2
  -5   9   1 244.793 218.051   4
  -5   9   1 721.353 343.054   7
  -5   9  -1 2392.13 589.557   4
  -5   9  -1 2390.88 634.989   7
   5  -9   1 2952.69 719.958   2
   5  -8  -7 490.749 348.145   2
   5  -8  -5 94.3086 180.895   2
  -5   8   5 629.940 347.464   4
   5  -8  -3 1994.35 550.591   2
  -5   8   3 1724.04 556.956   4
  -5   8   3 1378.68 418.002   7
   5  -8  -1 2967.48 670.539   2
  -5   8   1 2819.22 668.382   4
  -5   8   1 3101.92 625.995   7
  -5   8  -1 207.864 212.991   7
  -5   8  -1-20.2041 152.665   4
   5  -8   1-247.049 194.247   2
  -5   8  -3 1646.62 465.819   4
  -5   8  -3 2260.18 581.658   7
   5  -8   3 2382.72 662.808   2
  -5   8  -5 1003.72 415.813   7
   5  -7  -9 1803.51 544.248   2
   5  -7  -7 473.820 335.982   2
  -5   7   7 385.293 251.971   4
   5  -7  -5 3745.95 743.398   2
  -5   7   5 3269.99 777.840   4
  -5   7   5 1935.07 441.467   7
   5  -7  -3 5560.71 872.395   2
  -5   7   3 5222.85 922.673   4
  -5   7   3 3645.08 618.901   7
   5  -7  -1 349.266 275.294   2
  -5   7   1-96.1811 177.948   4
  -5   7   1-99.7587 118.057   7
  -5   7  -1 8861.56 1071.27   4
  -5   7  -1 5856.35 846.349   7
   5  -7   1 9637.92 1170.57   2
  -5   7  -3 4528.59 714.689   4
  -5   7  -3 4712.96 769.075   7
   5  -7   3 4782.20 827.713   2
  -5   7  -5 1818.46 431.096   4
  -5   7  -5 2116.10 536.538   7
   5  -7   5 1637.86 504.860   2
  -5   7  -7 3958.64 755.408   7
   5  -6  -9 633.701 339.724   2
   5  -6  -9 417.677 406.655   1
   5  -6  -7 807.616 358.032   2
  -5   6   7 967.050 494.929   4
   5  -6  -7 1085.60 478.529   1
   5  -6  -5 1283.44 432.806   2
  -5   6   5 883.231 415.390   4
  -5   6   5 840.440 262.477   7
   5  -6  -3 2871.47 604.202   2
  -5   6   3 1276.43 435.645   4
  -5   6   3 2756.19 507.351   7
  -5   6   1 15579.7 1468.45   4
   5  -6  -1 19200.3 1551.84   2
  -5   6  -1 3836.85 671.534   4
  -5   6  -1 2632.59 527.506   7
  -5   6  -3 6188.81 832.926   4
  -5   6  -3 5800.71 800.836   7
   5  -6   3 7111.58 946.556   2
  -5   6  -5 6651.47 831.507   4
   5  -6   5 7916.14 1040.95   2
  -5   6  -5 7135.51 942.616   7
  -5   6  -7 2235.64 560.386   7
   5  -6   7 1445.93 390.756   2
  -5   5  11 34.5422 121.217   5
   5  -5 -11 73.4578 163.920   2
  -5   5   9 770.215 319.479   5
   5  -5  -9 494.578 337.228   2
  -5   5   9 635.481 397.950   4
   5  -5  -9 115.358 279.942   1
   5  -5  -7 321.047 261.424   2
  -5   5   7 278.799 260.076   4
   5  -5  -7 287.724 250.603   1
   5  -5  -5 813.016 331.722   2
  -5   5   5 1004.04 423.729   4
  -5   5   5 1144.04 250.220   7
  -5   5   3 8435.66 1104.46   4
  -5   5   3 10270.5 888.506   7
   5  -5  -3 9246.75 866.073   3
   5  -5  -1 2141.94 514.686   2
  -5   5   1 1597.28 439.391   4
  -5   5   1 2025.61 423.050   7
   5  -5  -1 1210.50 334.012   3
  -5   5  -1 5707.64 808.095   4
  -5   5  -1 5489.39 708.686   7
   5  -5   1 6922.79 865.501   2
  -5   5  -3 15637.7 1299.06   4
  -5   5  -3 19055.5 1395.49   7
   5  -5   3 20189.8 1514.50   2
   5  -5   3 16055.7 973.952   6
  -5   5  -5 2778.64 531.969   4
  -5   5  -5 2153.72 506.178   7
   5  -5   5 2620.00 566.223   2
   5  -5   7 7841.14 1029.01   2
  -5   5  -7 7698.30 807.342   4
  -5   5  -7 8072.52 992.304   7
  -5   5  -9 4548.42 780.266   7
   5  -5   9 3203.43 686.999   2
  -5   4  11 106.728 192.548   5
   5  -4 -11 608.195 391.457   2
  -5   4  11 198.627 190.997   4
   5  -4  -9-85.7416 219.944   1
  -5   4   9-231.007 217.833   5
   5  -4  -9 492.955 273.845   2
  -5   4   9-111.278 133.374   4
  -5   4   7 1557.32 399.692   5
   5  -4  -7 1816.89 546.503   2
  -5   4   7 1835.69 557.407   4
   5  -4  -7 3014.69 675.695   1
   5  -4  -5 928.964 237.762   3
   5  -4  -5 970.082 379.684   2
  -5   4   5 499.106 274.028   4
  -5   4   5 796.856 172.041   7
   5  -4  -3 1905.22 362.062   3
   5  -4  -3 2028.90 476.595   2
  -5   4   3 1311.40 438.834   4
  -5   4   3 1782.23 318.612   7
  -5   4   1 11983.0 1190.57   4
  -5   4   1 10357.0 880.690   7
   5  -4  -1 12285.7 1181.93   2
   5  -4  -1 9572.77 866.270   3
   5  -4   1 4360.45 651.329   2
  -5   4  -1 4082.37 579.562   7
   5  -4   1 3935.46 533.025   7
  -5   4  -1 4019.99 654.217   4
   5  -4   1 3384.97 542.314   3
   5  -4   3 2630.19 517.155   2
  -5   4  -3 2629.86 504.999   4
  -5   4  -3 3239.43 527.781   7
   5  -4   3 2541.57 373.881   6
  -5   4  -5 20314.4 1409.79   4
  -5   4  -5 20554.3 1473.57   7
   5  -4   5 22456.1 1582.49   2
   5  -4   5 19816.8 798.827   6
  -5   4  -7 5634.82 796.249   7
  -5   4  -7 4779.00 634.710   4
   5  -4   7 4773.73 751.025   2
  -5   4  -9 4696.81 758.854   7
   5  -4   9 3583.43 710.330   2
  -5   4 -11 1231.94 425.796   7
   5  -4  11 507.604 393.837   2
  -5   3  11 251.691 270.261   5
  -5   3  11-23.8889 146.243   4
  -5   3   9 399.188 300.299   5
   5  -3  -9 354.666 335.913   1
   5  -3  -9 850.852 414.905   2
  -5   3   9 441.366 356.254   4
  -5   3   7 1872.79 466.736   5
   5  -3  -7 2572.85 609.678   2
  -5   3   7 1075.34 424.577   4
   5  -3  -7 2316.40 603.158   1
  -5   3   5 3410.97 592.285   5
   5  -3  -5 5305.51 848.075   2
  -5   3   5 4105.52 774.883   4
   5  -3  -5 3625.95 384.301   3
  -5   3   3 6447.17 890.117   4
  -5   3   3 6315.31 540.571   7
   5  -3  -3 7082.25 911.059   2
   5  -3  -3 6546.42 574.988   3
   5  -3  -1 3107.45 574.962   2
   5  -3  -1 2758.54 380.034   7
  -5   3   1 3192.71 600.353   4
  -5   3   1 3006.28 426.240   7
   5  -3  -1 2680.45 411.626   3
   5  -3   1 4458.48 653.254   2
  -5   3  -1 4136.32 533.614   7
   5  -3   1 3831.71 484.058   7
  -5   3  -1 3656.59 597.875   4
   5  -3   1 3635.44 527.111   3
  -5   3  -3 17709.9 1325.53   4
  -5   3  -3 18765.9 1263.00   7
   5  -3   3 17342.4 1300.63   2
   5  -3   3 17962.1 1091.77   6
  -5   3  -5 6098.27 742.117   4
  -5   3  -5 6988.93 782.204   7
   5  -3   5 6218.02 665.148   4
   5  -3   5 8050.39 878.944   2
   5  -3   5 6795.74 510.991   6
  -5   3  -7 7963.07 812.815   4
   5  -3   7 6372.69 850.992   2
  -5   3  -7 7904.72 888.281   7
   5  -3   7 6859.84 705.788   4
  -5   3  -9 4457.65 732.246   7
   5  -3   9 3700.48 682.707   2
  -5   3 -11 3036.49 642.906   7
   5  -3  11 2538.55 588.067   2
  -5   2  11 780.804 368.307   5
  -5   2  11 50.0035 151.286   4
  -5   2   9 727.280 306.908   5
   5  -2  -9 1101.35 423.297   1
  -5   2   9 737.989 384.481   4
  -5   2   7 2655.98 579.155   5
  -5   2   7 3459.93 739.974   4
   5  -2  -7 3289.50 677.342   1
  -5   2   5 2288.27 483.009   5
   5  -2  -5 2604.84 607.460   2
  -5   2   5 1488.08 454.436   4
   5  -2  -5 2855.72 625.647   1
  -5   2   3 6186.73 837.200   4
  -5   2   3 7389.20 502.286   7
   5  -2  -3 6980.11 505.914   3
   5  -2  -3 8199.59 981.913   2
  -5   2   3 7500.09 826.140   5
  -5   2   1 39112.2 2130.60   4
  -5   2   1 37695.1 1594.59   7
   5  -2  -1 37458.9 1489.31   7
   5  -2  -1 37164.6 1582.31   3
   5  -2  -1 40527.2 2144.06   2
  -5   2  -1 13221.4 1125.28   4
  -5   2  -1 14251.9 960.545   7
   5  -2   1 13532.3 1037.82   4
   5  -2   1 12714.1 878.019   7
   5  -2   1 12595.1 994.800   6
   5  -2   1 14853.0 1150.04   2
   5  -2   1 12016.9 1075.13   5
   5  -2   3 302.968 217.079   5
   5  -2   3 362.509 238.049   2
  -5   2  -3 254.906 159.018   2
  -5   2  -3 262.766 164.501   4
  -5   2  -3 131.267 102.042   7
   5  -2   3 300.156 161.766   4
   5  -2   3 148.696 85.9782   7
   5  -2   3 156.998 123.234   6
  -5   2  -5 8113.98 829.530   4
  -5   2  -5 7344.57 777.160   7
   5  -2   5 7453.26 766.560   4
   5  -2   5 6488.99 740.074   2
   5  -2   5 6814.76 568.234   6
   5  -2   7 10915.8 939.812   4
  -5   2  -7 11726.9 1076.43   7
   5  -2   7 13388.9 1145.34   2
   5  -2   9 11798.8 1121.69   2
   5  -2   9 13729.8 1047.95   4
  -5   2  -9 12620.4 1198.92   7
  -5   2 -11 1390.37 418.558   7
   5  -2  11 809.643 317.978   2
   5  -2  13 197.946 166.535   5
  -5   1  11 609.293 362.679   4
  -5   1   9-50.3831 153.412   5
   5  -1  -9 282.061 214.543   1
  -5   1   9 586.355 330.205   4
   5  -1  -7 1394.41 470.698   1
  -5   1   7 825.228 355.267   5
  -5   1   7 794.270 349.702   4
  -5   1   5 11899.1 1204.40   4
   5  -1  -5 11311.8 1194.39   1
  -5   1   5 13032.1 1176.37   5
  -5   1   3 14936.4 1287.90   4
   5  -1  -3 15433.1 648.124   7
   5  -1  -3 15412.3 589.675   3
   5  -1  -3 18405.0 1448.20   2
  -5   1   3 16195.2 1255.07   5
  -5   1   1 6412.83 779.871   4
  -5   1   1 5722.80 532.217   7
   5  -1  -1 6883.60 729.923   4
   5  -1  -1 6343.65 497.357   7
   5  -1  -1 6068.17 505.205   3
   5  -1  -1 7000.47 823.433   2
   5  -1  -1 7207.99 831.411   5
  -5   1  -1 15007.0 1210.47   4
  -5   1  -1 15771.2 1021.95   7
   5  -1   1 15753.3 1151.57   4
   5  -1   1 15593.4 948.466   7
   5  -1   1 15399.7 1132.58   6
   5  -1   1 16821.9 1215.95   2
   5  -1   1 15433.0 1192.05   5
  -5   1  -3 22315.3 1462.01   4
   5  -1   3 25505.0 1490.21   4
  -5   1  -3 24326.3 1366.99   7
   5  -1   3 23445.3 1310.14   7
   5  -1   3 24268.9 1418.58   2
   5  -1   3 23493.6 1340.45   6
  -5   1  -3 24361.6 1528.90   2
   5  -1   3 23425.7 1462.38   5
  -5   1  -5 5082.19 659.893   4
   5  -1   5 5616.03 669.382   4
  -5   1  -5 5340.96 660.630   7
   5  -1   5 5557.62 662.242   2
   5  -1   5 5994.97 565.889   6
  -5   1  -5 5636.13 722.674   2
   5  -1   7 11122.8 982.123   4
  -5   1  -7 13349.1 1113.45   7
   5  -1   7 12728.9 1043.95   2
   5  -1   7 12692.8 731.106   6
   5  -1   9 5312.42 728.180   2
   5  -1   9 4213.99 601.335   4
  -5   1  -9 4767.86 717.910   7
   5  -1  11 6745.18 872.358   2
  -5   1 -11 4938.11 799.117   7
   5  -1  13 1073.18 379.622   5
  -5   1 -13 1228.93 438.837   7
  -5   0   9 675.206 309.546   5
  -5   0   9 427.203 262.021   4
   5   0  -9 712.183 331.538   1
  -5   0   7 3033.27 607.690   5
   5   0  -7 4382.46 751.934   1
  -5   0   7 3410.87 645.069   4
  -5   0   5 1827.12 459.595   5
  -5   0   5 739.283 303.605   4
   5   0  -5 1454.62 440.652   1
  -5   0   3 4337.95 646.947   5
   5   0  -3 3754.94 541.482   4
   5   0  -3 4106.03 279.834   7
  -5   0   3 4229.44 652.531   4
   5   0  -3 4664.51 722.250   1
  -5   0   1 31202.8 1794.35   4
  -5   0   1 28253.7 1293.05   7
   5   0  -1 31616.7 1697.79   4
   5   0  -1 30231.0 1215.05   7
   5   0  -1 34006.2 1875.74   6
   5   0  -1 36058.6 1937.66   2
  -5   0   1 30212.4 1681.06   5
   5   0  -1 30568.7 1760.65   5
  -5   0  -1 41665.1 2089.30   4
  -5   0  -1 40702.9 1792.72   7
   5   0   1 44579.8 2075.41   4
   5   0   1 40447.3 1652.86   7
   5   0   1 42910.4 2091.19   6
   5   0   1 43987.9 2034.68   2
   5   0   1 40016.1 2026.40   5
  -5   0  -3 10121.0 947.201   4
   5   0   3 11303.1 983.341   4
  -5   0  -3 10863.5 901.058   7
   5   0   3 10015.5 810.668   7
   5   0   3 9887.44 853.340   2
   5   0   3 11777.5 930.442   6
   5   0   3 10296.1 919.418   5
  -5   0  -5 13108.8 1078.59   4
   5   0   5 16066.8 1200.33   4
  -5   0  -5 13123.2 1060.70   7
   5   0   5 14891.2 1085.44   7
   5   0   5 14928.4 1042.20   2
   5   0   5 14930.4 987.671   6
  -5   0  -5 14622.7 1142.12   2
   5   0   5 13526.1 1074.29   5
   5   0   7 236.378 147.603   2
  -5   0  -7 469.394 247.018   2
   5   0   7 83.3555 96.2787   4
  -5   0  -7 1.10233 184.271   7
  -5   0  -7 267.051 155.417   6
   5   0   7 482.664 177.673   6
   5   0   9 11634.4 1074.55   4
   5   0   9 12747.9 1058.07   2
  -5   0  -9 13985.6 1216.97   7
  -5   0  -9 13465.9 938.311   6
  -5   0 -11 2538.10 563.049   7
   5   0  11 2192.87 467.623   2
   5   0  13 1074.52 373.572   5
  -5   0 -13 392.599 228.032   7
   5   0  15 511.777 334.524   5
  -5  -1   9 772.107 299.223   5
  -5  -1   9 320.925 240.186   4
   5   1  -9 822.364 360.335   1
  -5  -1   7 148.271 154.519   5
   5   1  -7-104.681 231.322   1
  -5  -1   5 7402.34 887.014   4
   5   1  -5 7845.10 961.937   1
  -5  -1   5 9106.16 1023.53   5
  -5  -1   3 13946.9 1192.91   4
   5   1  -3 16142.1 1162.60   4
   5   1  -3 14183.2 635.969   7
   5   1  -3 15092.9 1275.05   1
  -5  -1   3 12996.5 1170.07   5
  -5  -1   1 6922.35 785.615   4
   5   1  -1 7565.55 792.605   4
   5   1  -1 7150.88 530.506   7
   5   1  -1 8241.20 905.485   6
   5   1  -1 6976.10 481.335   3
  -5  -1   1 8047.57 821.558   5
   5   1  -1 6569.05 772.213   5
  -5  -1  -1 13116.4 1107.39   4
  -5  -1  -1 13694.8 948.364   7
   5   1   1 15041.2 1148.08   4
   5   1   1 13206.0 869.986   7
   5   1   1 16204.1 1228.17   6
   5   1   1 14004.5 1088.46   2
   5   1   1 14001.8 1101.26   5
  -5  -1  -3 45478.3 2180.89   4
   5   1   3 45577.5 2205.98   4
  -5  -1  -3 46447.9 2079.48   7
   5   1   3 45335.7 1937.02   7
   5   1   3 47563.5 2007.22   2
   5   1   3 46833.9 2120.03   6
   5   1   3 45177.6 2079.48   5
   5   1   5 6544.07 781.232   4
  -5  -1  -5 5579.37 683.968   7
   5   1   5 5699.30 656.821   7
   5   1   5 6243.50 606.018   2
  -5  -1  -5 5315.00 633.763   6
   5   1   5 5663.52 625.063   6
  -5  -1  -5 5861.15 692.492   2
   5   1   5 5428.40 638.395   5
   5   1   7 6850.97 833.613   4
  -5  -1  -7 7774.47 848.996   7
   5   1   7 7658.42 712.783   2
  -5  -1  -7 6613.99 720.574   6
  -5  -1  -7 6797.55 778.581   2
   5   1   7 7082.13 663.862   6
   5   1   9 5335.55 750.393   4
  -5  -1  -9 4231.87 661.858   2
   5   1   9 5051.11 609.735   2
  -5  -1  -9 5398.72 749.260   7
   5   1   9 3756.86 548.311   1
  -5  -1  -9 4831.41 624.389   6
  -5  -1 -11 3740.72 684.992   7
  -5  -1 -11 4230.33 593.972   6
   5   1  11 3430.59 561.850   2
   5   1  13 1036.83 343.867   5
  -5  -1 -13 556.892 290.666   7
   5   2  -9 816.925 389.635   1
  -5  -2   9-216.905 272.062   5
  -5  -2   9 584.966 282.734   4
  -5  -2   7 3660.06 729.764   5
  -5  -2   7 2843.52 578.130   4
   5   2  -7 3940.60 710.419   1
  -5  -2   5 1103.18 369.211   5
   5   2  -5 681.096 267.264   1
   5   2  -5 1216.12 130.655   7
  -5  -2   5 1223.72 349.173   4
   5   2  -5 1063.86 118.682   7
   5   2  -3 3807.33 649.955   1
  -5  -2   3 4226.97 686.001   5
   5   2  -3 4029.36 371.992   7
   5   2  -3 3745.85 567.586   4
  -5  -2   3 3665.43 592.936   4
  -5  -2   1 32627.4 1856.51   4
   5   2  -1 38086.2 1916.51   4
   5   2  -1 34427.5 1444.06   7
   5   2  -1 33502.1 1815.55   1
   5   2  -1 34901.8 2059.64   6
   5   2  -1 32953.7 1192.79   3
  -5  -2   1 37794.8 1890.08   5
   5   2  -1 33298.7 1876.38   5
  -5  -2  -1 10799.3 989.210   4
   5   2   1 10160.6 960.918   4
   5   2   1 10194.1 785.646   7
   5   2   1 10775.6 1014.57   6
   5   2   1 10990.9 942.509   2
   5   2   1 9176.34 740.629   3
  -5  -2  -1 10116.1 845.134   5
   5   2   1 9777.70 898.943   5
   5   2   3 18080.4 1339.80   4
  -5  -2  -3 17247.4 1190.43   7
   5   2   3 16857.9 1106.99   7
  -5  -2  -3 15969.3 1199.93   6
   5   2   3 16932.5 1219.55   6
   5   2   3 17226.5 1079.58   2
   5   2   3 17390.2 1186.30   5
   5   2   5 23033.4 1583.35   4
  -5  -2  -5 20423.3 1396.53   7
   5   2   5 21689.0 1360.77   7
   5   2   5 21630.1 1174.07   2
  -5  -2  -5 22250.4 1431.89   6
   5   2   5 23659.8 1396.38   6
   5   2   5 19989.8 1273.81   5
   5   2   7 9802.18 1033.55   4
  -5  -2  -7 11587.8 1076.25   7
   5   2   7 11465.0 817.521   2
  -5  -2  -7 10298.9 964.861   6
   5   2   7 11169.4 895.614   6
  -5  -2  -7 9049.81 858.248   2
   5   2   7 9294.54 838.972   5
   5   2   9 3916.08 504.908   1
   5   2   9 3808.50 482.274   2
  -5  -2  -9 3232.66 536.021   2
  -5  -2  -9 3746.56 628.162   7
  -5  -2  -9 3415.34 552.210   6
   5   2  11 5424.89 660.600   2
  -5  -2 -11 7087.69 914.455   7
  -5  -2 -11 6493.43 811.620   6
  -5  -2 -11 7050.55 860.688   2
   5   2  13 309.653 178.421   5
  -5  -2 -13 325.885 225.229   7
  -5  -2 -13 305.699 205.155   6
  -5  -3   9-62.8390 231.833   5
   5   3  -9 1502.08 481.484   1
  -5  -3   7 599.254 339.956   5
  -5  -3   7 212.797 156.340   4
   5   3  -7 260.127 175.738   1
  -5  -3   5 1363.20 427.214   5
  -5  -3   5 934.398 306.927   4
   5   3  -5 1865.18 386.034   4
   5   3  -5 1587.02 231.044   7
   5   3  -5 1745.39 453.325   1
  -5  -3   3 12586.7 1124.47   4
   5   3  -3 13438.5 849.406   7
   5   3  -3 15018.5 1150.07   4
   5   3  -3 13159.0 1129.75   1
  -5  -3   3 14442.9 1260.41   5
   5   3  -1 1430.32 240.020   3
   5   3  -1 1511.81 354.190   1
  -5  -3   1 1458.49 400.223   5
   5   3  -1 1528.39 401.139   5
  -5  -3   1 1257.24 363.617   4
   5   3  -1 2035.91 429.636   4
   5   3  -1 1203.69 274.769   7
   5   3   1 34353.1 1887.38   4
   5   3   1 31583.4 1586.32   7
   5   3   1 30419.9 1550.07   1
   5   3   1 35068.5 1970.75   6
   5   3   1 33280.7 1543.84   3
  -5  -3  -1 32774.8 1632.84   5
   5   3   1 33038.9 1747.36   5
   5   3   3 8365.12 917.129   4
   5   3   3 8737.88 812.636   7
  -5  -3  -3 8139.49 879.232   6
   5   3   3 8912.06 900.052   6
   5   3   3 7863.03 710.964   2
   5   3   3 8702.88 832.581   3
   5   3   3 8017.30 765.918   5
   5   3   5 37204.9 2111.02   4
  -5  -3  -5 35366.6 1963.78   7
   5   3   5 36461.5 1888.25   7
   5   3   5 36267.3 1567.86   2
  -5  -3  -5 36822.0 2016.54   6
   5   3   5 36505.0 1908.73   6
   5   3   5 37853.6 2001.84   3
   5   3   5 36246.3 1712.71   5
   5   3   7 2229.93 382.437   5
   5   3   7 2776.23 564.750   3
   5   3   7 2744.84 367.220   2
  -5  -3  -7 2226.12 496.728   7
   5   3   7 3491.42 516.323   6
  -5  -3  -7 2436.78 490.127   6
   5   3   9 7366.37 646.847   1
   5   3   9 7502.64 640.421   2
  -5  -3  -9 9020.05 1011.65   7
  -5  -3  -9 6854.98 873.828   6
   5   3   9 7650.61 999.355   3
   5   3  11 3869.58 789.036   3
  -5  -3 -11 3325.62 642.628   7
   5   3  11 2627.91 418.495   2
  -5  -3 -11 3598.64 655.163   6
   5   3  13 3758.10 829.729   3
   5   3  13 2529.25 456.509   5
  -5  -3 -13 3101.48 665.345   7
  -5  -3 -13 3092.40 613.278   6
   5   4  -9 90.6373 187.560   1
  -5  -4   7 971.842 467.377   5
   5   4  -7 1464.37 471.755   1
   5   4  -5 2630.64 545.674   1
  -5  -4   5 2999.92 655.489   5
   5   4  -5 1828.31 294.365   7
  -5  -4   3 724.255 327.629   5
   5   4  -3 464.830 175.139   7
   5   4  -3 371.166 178.253   4
   5   4  -3 414.042 203.024   1
   5   4  -1 30531.1 1777.49   5
   5   4  -1 32470.5 1837.39   4
   5   4  -1 28373.3 1509.77   7
   5   4  -1 29550.9 1308.06   3
   5   4  -1 31940.8 1592.58   1
  -5  -4   1 33533.5 1832.45   5
   5   4   1 4812.59 690.351   4
   5   4   1 4449.50 576.748   7
   5   4   1 4427.67 512.847   3
  -5  -4  -1 3856.07 645.335   6
   5   4   1 5183.91 529.300   1
  -5  -4  -1 4311.55 547.834   5
   5   4   1 4437.53 596.396   5
   5   4   3 18046.5 1283.27   7
   5   4   3 19072.6 983.310   1
  -5  -4  -3 20151.4 1490.51   6
   5   4   3 21551.3 1224.24   2
   5   4   3 23473.1 1456.60   3
  -5  -4  -3 20450.5 1139.57   5
   5   4   3 18895.7 1184.31   5
   5   4   5 4617.21 677.992   3
   5   4   5 4239.71 449.734   2
  -5  -4  -5 4800.90 729.225   6
   5   4   5 4470.70 516.960   5
   5   4   7 8761.56 535.921   1
   5   4   7 9347.88 632.755   2
  -5  -4  -7 8588.91 975.010   6
   5   4   7 9232.97 1020.23   3
   5   4   7 8431.15 708.665   5
   5   4   9 1571.68 302.477   5
   5   4   9 2512.39 629.454   3
  -5  -4  -9 1882.99 499.600   7
  -5  -4  -9 2068.99 489.384   6
   5   4   9 1939.55 281.919   1
   5   4   9 1604.72 256.393   2
  -5  -4 -11 7475.29 1000.97   7
  -5  -4 -11 8807.57 1086.46   6
   5   4  11 8017.16 1125.55   3
   5   4  13 747.391 422.076   3
  -5  -4 -13 1464.41 484.591   7
  -5  -4 -13 1190.48 445.572   6
   5   5  -7 677.985 305.042   1
  -5  -5   7 652.103 383.247   5
  -5  -5   5 702.758 355.005   5
   5   5  -5 488.978 225.002   1
   5   5  -5 278.118 130.389   7
   5   5  -3 4701.42 631.583   1
  -5  -5   3 5167.75 802.505   5
   5   5  -3 4149.46 576.201   7
  -5  -5   1 125.511 178.276   5
   5   5  -1 16.2671 94.7863   7
   5   5  -1 138.244 119.466   3
   5   5  -1-163.747 160.611   1
   5   5   1 11280.9 944.985   5
   5   5   1 9640.03 925.946   7
   5   5   1 11810.6 898.482   3
  -5  -5  -1 11713.7 938.903   5
   5   5   1 12098.8 772.471   1
  -5  -5  -3 9221.74 1038.68   6
   5   5   3 8387.83 852.751   3
  -5  -5  -3 8094.29 682.288   5
   5   5   3 7405.00 477.015   1
   5   5   3 6574.38 655.390   5
  -5  -5  -5 7361.45 921.636   6
   5   5   5 5806.01 524.179   2
   5   5   5 6390.00 827.740   3
   5   5   5 5687.19 255.979   1
   5   5   5 5578.51 546.428   5
   5   5   7 6995.07 485.881   2
  -5  -5  -7 6743.06 913.352   6
   5   5   7 6543.88 915.359   3
   5   5   7 6359.51 536.339   5
   5   5   9 1576.97 484.454   3
  -5  -5  -9 1406.19 446.818   6
   5   5   9 811.021 142.735   2
   5   5  11 1976.62 588.486   3
  -5  -5 -11 1906.50 540.288   6
   5   5  13 1074.05 462.368   3
  -5  -5 -13 1354.34 489.118   6
  -5  -5 -15 656.735 369.161   6
  -5  -6   7 406.902 303.850   5
   5   6  -7 802.799 354.427   1
  -5  -6   5 2047.26 587.424   5
   5   6  -5 2168.11 496.305   1
   5   6  -5 2091.17 408.097   7
   5   6  -3 39.8746 118.148   1
  -5  -6   3 235.471 238.820   5
  -5  -6   1 1892.60 462.778   5
  -5  -6   1 1816.35 385.962   3
   5   6  -1 1825.08 356.746   1
   5   6  -1 1650.06 339.561   3
   5   6   1 5975.53 647.813   5
   5   6   1 5643.33 523.474   1
  -5  -6  -1 6574.39 912.400   6
   5   6   1 6017.91 688.220   3
  -5  -6  -1 6096.72 702.669   5
   5   6   3 2141.38 471.724   3
  -5  -6  -3 2098.42 342.485   5
   5   6   3 1491.07 291.084   5
   5   6   3 1491.35 169.714   1
  -5  -6  -3 1885.80 500.379   6
   5   6   5 10589.9 700.958   5
  -5  -6  -5 11641.3 1228.21   6
   5   6   5 11151.2 724.463   2
   5   6   5 12176.1 1191.01   3
   5   6   7 2147.90 550.883   3
   5   6   7 1705.26 191.111   2
  -5  -6  -7 2020.94 529.535   6
   5   6   7 1537.05 206.395   5
   5   6   9 1041.17 401.851   3
  -5  -6  -9 1994.38 560.287   6
   5   6  11 720.173 348.347   3
  -5  -6 -11 585.772 367.314   6
   5   6  13 1212.18 454.893   3
  -5  -6 -13 651.475 370.687   6
   5   7  -7-49.3700 117.286   1
   5   7  -5 293.473 229.501   1
  -5  -7   5 582.914 341.150   5
   5   7  -5 668.998 265.609   7
  -5  -7   3 2043.94 560.172   5
   5   7  -3 2642.27 491.913   1
  -5  -7   1 1620.90 416.970   5
  -5  -7   1 1490.25 393.890   3
   5   7  -1 1317.59 307.810   1
   5   7  -1 1067.69 320.578   3
  -5  -7  -1 228.410 143.059   5
  -5  -7  -1 388.977 208.798   3
   5   7   1 220.079 135.235   5
  -5  -7  -1 702.556 309.551   6
   5   7   1 387.051 190.177   3
   5   7   3 6060.36 577.040   5
  -5  -7  -3 7383.15 1021.51   6
   5   7   3 7426.72 847.004   3
  -5  -7  -3 6910.51 638.748   5
   5   7   5 1355.48 415.680   3
   5   7   5 1026.55 224.923   2
  -5  -7  -5 775.855 348.587   6
   5   7   7 4137.47 771.161   3
  -5  -7  -7 3633.85 779.130   6
   5   7   9 469.659 363.488   3
  -5  -7  -9 696.034 374.508   6
   5   7  11 1562.97 516.569   3
  -5  -7 -11 1355.26 555.654   6
  -5  -7 -13 1237.55 479.228   6
  -5  -8   5 311.417 290.812   5
  -5  -8   3 622.507 324.440   5
  -5  -8   1 771.208 348.430   5
   5   8  -1 823.801 291.674   3
  -5  -8  -1 2377.96 462.469   5
  -5  -8  -1 2768.92 651.064   6
   5   8   1 2527.80 516.274   3
   5   8   3 887.114 310.990   3
  -5  -8  -3 627.030 216.730   5
  -5  -8  -3 466.929 262.825   6
   5   8   5 2515.71 555.901   3
  -5  -8  -5 2165.67 588.274   6
   5   8   7 2528.75 597.181   3
  -5  -8  -7 1461.04 518.435   6
   5   8   9 1442.28 492.511   3
  -5  -8  -9 990.540 456.827   6
   5   8  11 471.931 348.212   3
  -5  -8 -11 1802.58 638.206   6
  -5  -9   3 326.864 278.727   5
  -5  -9   1 719.321 323.542   5
   5   9  -1 1086.04 381.505   3
  -5  -9  -1 503.175 235.430   5
  -5  -9  -1 501.317 300.686   6
   5   9   1 538.277 277.685   3
  -5  -9  -3 783.356 393.428   6
   5   9   3 846.131 333.636   3
   5   9   5 1238.18 428.144   3
  -5  -9  -5 2086.27 604.383   6
   5   9   7 1389.27 490.586   3
  -5  -9  -7 981.294 460.683   6
   5   9   9 198.695 169.544   3
  -5  -9  -9 440.371 325.987   6
   5  10  -3 166.882 175.256   7
  -5 -10  -1 175.255 211.335   6
   5  10   1 357.090 211.779   3
  -5 -10  -3 1106.31 492.407   6
   5  10   3 243.716 191.970   3
  -5 -10  -5 532.443 351.268   6
   5  10   5 422.614 271.962   3
   5  10   7 1053.59 438.761   3
  -5 -10  -7 1163.13 478.774   6
   5  11   1 132.195 185.023   3
   5  11   3 151.799 127.296   3
  -6   9   2 403.212 290.268   7
  -6   9   0 517.499 324.917   7
   6  -8  -4 211.807 254.718   2
  -6   8   2-454.608 315.114   4
  -6   8   2-16.7320 192.372   7
   6  -8   0-29.3768 170.709   2
  -6   8   0 116.049 242.752   4
  -6   8   0-266.783 213.575   7
  -6   8  -2 2110.93 570.221   4
  -6   8  -2 1105.50 394.727   7
   6  -7  -6 508.941 218.582   2
   6  -7  -4 449.297 280.414   2
  -6   7   4 335.835 316.444   4
   6  -7  -2 1051.19 426.861   2
  -6   7   2 634.577 360.176   4
  -6   7   2 789.733 323.433   7
   6  -7   0 1734.63 539.860   2
  -6   7   0 853.281 360.842   4
  -6   7   0 807.585 330.244   7
  -6   7  -2 488.054 288.317   4
  -6   7  -2 136.812 105.743   7
  -6   7  -4 1096.66 378.840   4
  -6   7  -4 574.624 271.583   7
   6  -7   4 1583.46 510.602   2
   6  -6  -8 498.370 175.832   2
   6  -6  -6 927.408 447.539   2
  -6   6   6 220.953 262.901   4
   6  -6  -4 2044.45 616.337   2
  -6   6   4 1577.31 586.143   4
   6  -6  -2 3131.04 700.395   2
  -6   6   2 2077.09 586.640   4
  -6   6   2 2011.24 460.608   7
   6  -6   0 1882.05 609.757   2
  -6   6   0 1440.01 465.315   4
  -6   6   0 1730.97 456.105   7
   6  -6   2 4437.68 793.179   2
  -6   6  -2 5507.30 859.911   4
  -6   6  -2 2891.16 608.152   7
   6  -6   4 2710.01 639.572   2
  -6   6  -4 1900.62 497.358   4
  -6   6  -4 838.471 302.842   7
  -6   6  -6 190.233 201.757   4
  -6   6  -6 605.652 303.371   7
   6  -6   6 634.592 307.989   2
   6  -5  -8 763.952 365.912   2
   6  -5  -6 1727.08 544.423   2
  -6   5   6 986.160 445.272   4
   6  -5  -4 1239.03 474.367   2
  -6   5   4 676.903 385.402   4
   6  -5  -2 5258.62 865.130   2
  -6   5   2 3982.04 592.398   7
  -6   5   2 4168.26 821.996   4
   6  -5   0 3916.92 715.525   2
  -6   5   0 3933.53 740.665   4
  -6   5   0 3784.80 646.537   7
   6  -5   2 3940.98 699.797   2
  -6   5  -2 3426.13 675.703   4
  -6   5  -2 3753.44 635.252   7
  -6   5  -4 4938.92 780.498   4
  -6   5  -4 5958.20 840.187   7
   6  -5   4 6479.30 930.470   2
  -6   5  -6 5064.39 746.286   4
  -6   5  -6 5171.67 842.199   7
   6  -5   6 4570.11 811.955   2
  -6   5  -8 859.603 365.607   7
   6  -5   8 286.459 229.792   2
  -6   4   8 783.879 363.571   5
   6  -4  -8 1232.41 485.336   2
  -6   4   8 1115.44 522.952   4
   6  -4  -8 181.741 257.078   1
   6  -4  -6 801.109 359.655   2
  -6   4   6 717.925 387.916   4
   6  -4  -6 1167.02 506.312   1
  -6   4   4 1056.24 416.566   4
  -6   4   4 1559.44 283.335   7
   6  -4  -2 1290.96 438.084   2
  -6   4   2 1750.22 509.308   4
  -6   4   2 931.579 270.892   7
   6  -4  -2 853.438 252.882   3
   6  -4   0 5080.66 796.049   2
   6  -4   0 3444.28 507.147   7
  -6   4   0 2704.41 590.445   4
  -6   4   0 3725.44 581.824   7
   6  -4   0 3493.66 555.586   3
  -6   4  -2 8091.01 990.049   4
  -6   4  -2 7124.22 842.674   7
   6  -4   2 9428.90 1059.21   2
   6  -4   2 7378.24 795.592   6
  -6   4  -4 6854.30 903.273   4
  -6   4  -4 8496.10 953.718   7
   6  -4   4 7845.39 967.435   2
  -6   4  -6 3277.54 587.017   4
  -6   4  -6 2952.19 607.227   7
   6  -4   6 3547.89 657.949   2
  -6   4  -8 1952.45 539.801   7
   6  -4   8 2580.43 591.283   2
   6  -4  10 18.5050 149.546   2
  -6   3   8 232.016 257.190   5
   6  -3  -8 628.137 383.610   2
  -6   3   8 439.076 328.997   4
   6  -3  -8 107.671 213.425   1
  -6   3   6 834.336 339.101   5
   6  -3  -6 1013.58 408.712   2
  -6   3   6 659.724 355.150   4
   6  -3  -6 391.640 273.453   1
   6  -3  -4 1070.23 390.601   2
  -6   3   4 803.678 151.807   7
  -6   3   4 529.174 228.641   4
  -6   3   2 6764.00 981.637   4
  -6   3   2 5992.60 613.283   7
   6  -3  -2 8563.99 1056.50   2
   6  -3  -2 6594.84 632.348   3
   6  -3   0 4808.90 743.669   2
  -6   3   0 3904.07 553.214   7
   6  -3   0 3486.07 471.989   7
  -6   3   0 3223.96 628.920   4
   6  -3   0 2890.47 467.146   3
   6  -3   2 1332.23 400.251   2
  -6   3  -2 1388.33 421.977   4
  -6   3  -2 1066.83 306.009   7
   6  -3   2 1519.44 356.641   6
  -6   3  -4 6030.46 827.269   4
  -6   3  -4 6975.65 848.641   7
   6  -3   4 6446.04 825.825   2
   6  -3   4 6248.77 655.154   6
  -6   3  -6 9456.28 1016.74   4
  -6   3  -6 10495.1 1087.60   7
   6  -3   6 10577.1 1106.44   2
  -6   3  -8 4496.71 724.163   7
   6  -3   8 3927.88 728.448   2
  -6   3 -10 1895.86 524.523   7
   6  -3  10 1456.57 469.524   2
  -6   2  10 7.91980 130.135   4
   6  -2  -8 245.767 279.388   1
  -6   2   8 457.882 254.261   5
  -6   2   8-2.33264 184.201   4
   6  -2  -8 575.278 332.353   2
  -6   2   6 1752.26 484.961   5
   6  -2  -6 2487.17 664.606   2
  -6   2   6 1102.13 477.471   4
   6  -2  -6 1451.68 509.829   1
  -6   2   4 4782.71 759.719   5
   6  -2  -4 5053.57 841.661   2
  -6   2   4 4260.09 783.415   4
   6  -2  -2 667.220 372.405   2
  -6   2   2 806.791 318.300   4
  -6   2   2 440.780 148.167   7
   6  -2  -2 391.409 131.510   7
   6  -2  -2 480.136 152.123   3
   6  -2   0 2999.67 602.724   2
   6  -2   0 2710.80 395.187   7
  -6   2   0 3082.45 603.196   4
  -6   2   0 2910.04 455.704   7
   6  -2   0 2976.90 432.406   3
  -6   2  -2 7820.95 945.024   4
  -6   2  -2 8220.20 834.720   7
   6  -2   2 8202.88 775.663   7
   6  -2   2 8037.81 908.604   2
   6  -2   2 7410.22 828.395   6
  -6   2  -4 5616.47 791.609   4
  -6   2  -4 6382.83 762.091   7
   6  -2   4 6333.95 784.114   2
   6  -2   4 5426.53 641.573   6
  -6   2  -6 6816.79 851.588   4
  -6   2  -6 7540.80 880.875   7
   6  -2   6 6903.85 828.527   2
   6  -2   6 7542.93 654.024   6
  -6   2  -8 8216.45 981.978   7
   6  -2   8 8753.36 996.125   2
  -6   2 -10 1167.24 433.708   7
   6  -2  10 1959.43 486.323   2
   6  -2  12 277.531 238.369   2
  -6   1  10 59.4274 107.509   4
  -6   1   8 1391.71 489.750   5
   6  -1  -8 456.850 299.144   1
  -6   1   8 460.381 309.178   4
  -6   1   6 1061.39 381.170   5
  -6   1   6 1461.81 466.762   4
   6  -1  -6 1199.54 450.338   1
  -6   1   4 884.855 343.886   5
  -6   1   4 590.990 234.986   4
   6  -1  -4 685.023 474.448   2
   6  -1  -4 902.863 407.126   1
  -6   1   2 9621.74 1098.80   4
  -6   1   2 9075.82 663.382   7
   6  -1  -2 8589.90 579.887   7
   6  -1  -2 8838.88 569.459   3
   6  -1  -2 9601.30 1139.71   2
  -6   1   2 9407.94 1014.57   5
  -6   1   0 6559.49 875.728   4
  -6   1   0 6143.70 658.653   7
   6  -1   0 5755.47 556.656   7
   6  -1   0 7878.58 917.930   2
   6  -1   2 3307.45 581.365   2
  -6   1  -2 2624.02 507.958   4
  -6   1  -2 2099.02 401.983   7
   6  -1   2 2239.66 390.951   7
   6  -1   2 3147.53 545.069   6
  -6   1  -4 7509.90 907.903   4
  -6   1  -4 6804.84 776.505   7
   6  -1   4 7425.31 822.926   2
   6  -1   4 6015.50 702.000   6
  -6   1  -6 5730.95 779.364   4
  -6   1  -6 6613.56 813.967   7
   6  -1   6 5598.10 712.237   2
   6  -1   6 5420.32 599.383   6
  -6   1  -8 6280.26 842.151   7
   6  -1   8 6450.21 826.911   2
  -6   1 -10 6077.87 882.169   7
   6  -1  10 4112.01 687.241   2
  -6   1 -12 696.058 339.206   7
   6  -1  12 238.647 162.174   2
  -6   0  10 300.937 243.596   4
  -6   0   8 448.148 321.639   5
   6   0  -8 370.543 143.717   1
  -6   0   8 527.630 289.827   4
   6   0  -6 1544.51 482.472   1
  -6   0   6 1369.35 448.574   5
  -6   0   6 1294.63 438.514   4
  -6   0   4 7306.80 994.705   4
   6   0  -4 5772.88 918.114   1
  -6   0   4 6915.65 923.207   5
  -6   0   2 2009.22 476.231   5
   6   0  -2 1265.05 161.219   3
  -6   0   2 1195.69 408.309   4
   6   0  -2 1880.76 505.505   2
   6   0  -2 1376.50 218.840   7
   6   0  -2 1611.23 169.172   3
   6   0   0 2455.20 534.196   2
  -6   0   0 2072.46 382.564   7
   6   0   0 1950.33 317.321   7
  -6   0  -2 15999.7 1339.35   4
  -6   0  -2 16150.5 1156.33   7
   6   0   2 15209.2 1042.99   7
   6   0   2 17086.6 1336.36   6
   6   0   2 15447.7 1230.61   2
   6   0   4 3460.60 544.227   2
  -6   0  -4 2652.99 532.472   4
  -6   0  -4 3316.64 547.799   7
   6   0   4 3000.77 520.592   6
   6   0   6 4390.64 605.000   2
  -6   0  -6 5294.65 737.270   7
   6   0   6 4606.72 585.083   6
   6   0   8 6258.39 767.159   2
  -6   0  -8 5458.41 787.552   7
   6   0   8 6084.87 596.705   6
  -6   0 -10 4774.66 782.476   7
   6   0  10 3934.29 636.215   2
  -6   0 -12 694.289 330.945   7
   6   0  12 1146.55 383.743   2
   6   0  14 348.909 259.629   5
  -6  -1   8 815.465 354.854   5
  -6  -1   8 329.377 196.183   4
   6   1  -8 261.459 283.110   1
  -6  -1   6 1338.76 449.909   5
   6   1  -6 1047.43 415.210   1
  -6  -1   6 914.799 361.367   4
  -6  -1   4 833.633 334.424   4
   6   1  -4 558.054 288.970   1
  -6  -1   2 7332.58 946.540   4
   6   1  -2 7422.30 542.533   7
   6   1  -2 8263.52 991.310   1
  -6  -1   2 8457.08 948.858   5
  -6  -1   0 12721.6 1203.70   4
   6   1   0 11328.4 798.344   7
   6   1   0 12495.1 1165.79   2
   6   1   0 11812.3 839.208   3
  -6  -1   0 12417.3 1094.95   5
   6   1   2 127.656 220.378   2
  -6  -1  -2 293.377 157.415   7
   6   1   2 49.8505 134.471   7
   6   1   2 422.084 228.710   6
  -6  -1  -4 18260.4 1428.08   4
  -6  -1  -4 17558.7 1333.25   7
   6   1   4 18417.6 1240.17   2
   6   1   4 18145.2 1322.41   6
   6   1   4 16889.9 1300.97   5
   6   1   6 2655.12 453.769   2
  -6  -1  -6 1837.68 474.748   7
   6   1   6 2416.87 449.183   6
  -6  -1  -8 5436.39 778.768   7
   6   1   8 5604.33 691.874   2
  -6  -1  -8 4757.80 648.816   6
   6   1   8 5235.11 606.810   6
  -6  -1 -10 2981.51 613.894   7
  -6  -1 -10 2312.42 452.752   6
   6   1  10 2317.28 468.150   2
  -6  -1 -12 663.636 323.640   7
   6   1  12 801.795 320.096   2
   6   1  14-267.525 194.921   5
  -6  -2   8 115.978 143.595   5
  -6  -2   8 330.246 247.644   4
   6   2  -8-347.378 260.218   1
  -6  -2   6 822.180 417.220   5
  -6  -2   6 365.230 224.578   4
   6   2  -6 641.951 336.470   1
  -6  -2   4 3896.34 695.227   5
   6   2  -4 3437.48 674.264   1
  -6  -2   4 2606.97 565.550   4
  -6  -2   2 6646.31 883.884   4
   6   2  -2 7725.50 606.121   7
   6   2  -2 8300.99 956.832   1
  -6  -2   2 8047.59 953.578   5
  -6  -2   0 111.029 196.461   5
   6   2   0 321.448 169.076   3
  -6  -2   0 157.764 243.871   4
   6   2   0 374.195 354.479   2
   6   2   0 266.995 111.305   7
   6   2   0-163.195 182.528   1
  -6  -2  -2 21755.2 1605.04   4
   6   2   2 22852.6 1340.50   7
   6   2   2 22657.5 1480.36   2
   6   2   2 23617.5 1414.98   3
   6   2   2 19976.8 1470.10   5
   6   2   4 470.659 209.467   5
   6   2   4 735.544 299.669   2
  -6  -2  -4 1166.63 384.486   7
   6   2   4 1351.06 364.247   6
  -6  -2  -6 9358.91 989.860   7
   6   2   6 8464.55 770.400   2
  -6  -2  -6 8745.41 938.912   6
   6   2   6 8537.01 890.138   6
   6   2   6 6828.61 790.514   5
   6   2   8 1601.54 350.679   2
   6   2   8 1846.49 399.212   5
  -6  -2  -8 2253.03 517.099   7
  -6  -2  -8 2155.41 467.489   6
   6   2   8 2127.17 411.383   6
  -6  -2 -10 3620.78 688.415   7
  -6  -2 -10 4259.15 673.890   6
   6   2  10 2842.45 470.585   2
  -6  -2 -12 309.112 254.355   7
  -6  -2 -12 675.035 277.861   6
   6   2  12 707.819 278.491   2
   6   3  -8 229.594 231.979   1
  -6  -3   6 584.791 349.565   5
  -6  -3   6 745.995 295.599   4
   6   3  -6 284.276 219.570   1
  -6  -3   4 615.159 287.162   5
  -6  -3   4 995.027 343.629   4
   6   3  -4 787.175 311.411   1
  -6  -3   2 3130.11 611.454   5
   6   3  -2 3322.65 593.345   1
   6   3  -2 2883.72 398.301   7
  -6  -3   2 3331.50 614.890   4
   6   3  -2 2796.94 201.972   3
  -6  -3   0 24820.3 1726.49   4
   6   3   0 24162.5 1372.89   7
   6   3   0 23330.5 1519.76   1
   6   3   0 24576.3 1181.21   3
  -6  -3   0 23141.7 1548.21   5
  -6  -3  -2-58.0635 172.386   5
   6   3   2-294.990 222.895   3
   6   3   2 258.930 223.471   5
   6   3   2 301.194 204.342   2
   6   3   2-97.1913 173.589   7
   6   3   2 7.61878 200.840   1
  -6  -3  -4 6218.72 829.153   6
   6   3   4 6522.37 705.607   2
   6   3   4 8079.02 914.311   3
   6   3   4 7213.56 809.309   5
   6   3   6 4487.61 724.978   3
  -6  -3  -6 5968.23 830.578   7
   6   3   6 5010.01 569.710   2
  -6  -3  -6 5407.88 780.320   6
   6   3   6 3902.12 584.984   5
   6   3   8 2787.75 431.502   2
   6   3   8 2040.09 413.934   5
   6   3   8 1911.70 573.548   3
  -6  -3  -8 2847.60 587.302   7
  -6  -3  -8 2435.44 535.142   6
   6   3  10 6105.81 966.170   3
   6   3  10 3504.89 495.957   2
  -6  -3 -10 5144.51 818.494   7
  -6  -3 -10 3445.97 642.657   6
   6   3  12 1977.80 603.561   3
  -6  -3 -12 1461.93 468.580   7
  -6  -3 -12 1061.69 383.329   6
   6   4  -6 633.155 287.911   1
  -6  -4   6 366.267 304.823   5
  -6  -4   4 599.412 303.968   5
   6   4  -4 916.409 325.138   1
  -6  -4   2 2922.08 566.709   5
   6   4  -2 3127.93 545.905   1
   6   4  -2 2905.30 439.731   7
   6   4  -2 3105.10 311.451   3
  -6  -4   0 3541.04 589.669   5
   6   4   0 3811.06 546.434   1
   6   4   0 3475.52 520.929   7
   6   4   0 3432.14 418.666   3
   6   4   2 8201.06 751.357   1
   6   4   2 8332.98 822.416   3
   6   4   2 9378.41 960.819   2
  -6  -4  -2 9440.28 876.470   5
   6   4   2 8435.74 905.852   5
   6   4   4 6617.21 633.738   1
  -6  -4  -4 5864.93 843.772   6
   6   4   4 6204.77 672.362   2
   6   4   4 7214.98 861.514   3
   6   4   4 6245.46 738.103   5
   6   4   6 1266.06 325.455   5
   6   4   6 1479.53 306.380   2
   6   4   6 1415.92 436.713   3
  -6  -4  -6 1645.75 481.513   6
   6   4   8 5995.62 901.856   3
   6   4   8 5061.46 527.265   2
  -6  -4  -8 5227.63 816.927   6
   6   4   8 4353.22 573.742   5
   6   4  10 2736.85 664.287   3
  -6  -4 -10 2006.85 533.234   7
  -6  -4 -10 1327.39 426.371   6
   6   4  10 1450.81 290.315   2
   6   4  12 1595.38 579.347   3
  -6  -4 -12 1168.07 437.728   7
  -6  -4 -12 1834.26 515.073   6
  -6  -5   6 1113.23 486.400   5
   6   5  -6 432.348 280.640   1
  -6  -5   4 188.990 151.134   5
   6   5  -4 290.235 168.134   1
  -6  -5   2 699.324 314.752   5
   6   5  -2 816.491 275.718   1
   6   5  -2 1126.66 240.503   3
  -6  -5   0 3749.61 608.757   5
   6   5   0 3320.25 458.088   3
   6   5   0 3277.00 487.523   1
  -6  -5  -2 7585.95 985.858   6
   6   5   2 7805.89 803.259   3
   6   5   2 6334.26 593.995   1
  -6  -5  -2 7818.13 797.474   5
   6   5   2 6326.79 788.296   5
   6   5   4 1432.42 402.179   3
   6   5   4 738.114 183.554   1
   6   5   4 629.014 228.409   5
   6   5   4 982.513 279.625   2
  -6  -5  -4 943.798 335.989   6
   6   5   6 6576.84 432.912   1
   6   5   6 7020.42 633.782   2
  -6  -5  -6 7511.45 1032.27   6
   6   5   6 6555.70 929.885   3
   6   5   6 7430.99 721.265   5
   6   5   8 414.218 155.415   2
   6   5   8 144.913 179.123   3
   6   5  10 1815.26 580.546   3
  -6  -5 -10 2245.47 585.219   6
   6   5  12 1337.61 531.563   3
  -6  -5 -12 1126.95 435.770   6
  -6  -5 -14 853.639 413.057   6
   6   6  -6 621.299 329.952   1
  -6  -6   4 899.446 403.687   5
   6   6  -4 1146.32 366.710   1
  -6  -6   2 834.609 327.410   5
   6   6  -2 401.753 183.728   1
  -6  -6   0 1631.34 438.926   5
   6   6   0 1751.93 335.501   1
   6   6   0 1747.16 348.184   3
   6   6   2 1900.61 420.488   3
  -6  -6  -2 1237.13 328.040   5
   6   6   2 1349.47 244.124   1
   6   6   2 1612.50 360.902   5
  -6  -6  -2 1260.36 436.530   6
   6   6   4 3890.58 523.657   5
   6   6   4 4222.88 672.972   3
   6   6   4 4763.32 320.809   1
   6   6   4 5322.46 626.782   2
  -6  -6  -4 4735.44 823.697   6
   6   6   6 1083.11 387.449   3
   6   6   6 1228.23 258.682   2
  -6  -6  -6 1346.73 432.677   6
   6   6   8 1854.99 553.187   3
  -6  -6  -8 1430.47 478.009   6
   6   6  10 1396.11 528.915   3
  -6  -6 -10 1222.80 493.491   6
   6   6  12 740.804 462.872   3
  -6  -6 -12 1661.04 576.033   6
  -6  -6 -14-525.958 341.216   6
  -6  -7   4 663.706 327.193   5
   6   7  -4 668.564 292.113   1
  -6  -7   2 912.136 371.221   5
   6   7  -2 950.347 299.392   1
  -6  -7   0 413.474 194.322   5
   6   7   0 718.509 216.509   1
   6   7   0 749.204 275.826   3
   6   7   2 1934.72 439.021   3
  -6  -7  -2 1831.62 398.221   5
  -6  -7  -2 1576.42 485.799   6
   6   7   4 1177.98 319.815   2
  -6  -7  -4 609.479 340.361   6
   6   7   6 1964.54 546.429   3
  -6  -7  -6 1643.22 547.043   6
   6   7   8 1369.64 502.410   3
  -6  -7  -8 1420.38 522.563   6
   6   7  10 1692.29 580.338   3
  -6  -7 -10 1009.87 461.142   6
  -6  -7 -12 769.959 424.588   6
  -6  -8   4 307.435 266.527   5
  -6  -8   2 307.300 283.265   5
  -6  -8   0 508.201 244.620   5
   6   8   0 522.951 241.119   3
  -6  -8  -2 1256.42 330.177   5
  -6  -8  -2 1194.28 462.951   6
   6   8   2 959.305 333.911   3
   6   8   4 140.294 152.263   3
  -6  -8  -4 380.862 241.866   6
   6   8   6 1057.31 385.554   3
  -6  -8  -6 746.656 398.821   6
   6   8   8 532.793 324.254   3
  -6  -8  -8 1035.58 475.588   6
   6   8  10 723.918 401.515   3
  -6  -8 -10-206.830 265.483   6
  -6  -9   2 901.192 394.054   5
  -6  -9   0 373.752 255.287   5
  -6  -9  -2 820.407 401.563   6
   6   9   2 251.424 230.096   3
   6   9   4 1250.93 432.639   3
  -6  -9  -4 465.149 319.249   6
   6   9   6 328.434 218.967   3
  -6  -9  -6 498.883 313.609   6
   6   9   8-577.149 334.790   3
   6  10   2-694.121 322.013   3
   6  10   4 263.808 214.948   3
   6  10   6 262.787 270.290   3
  -7   8  -1-141.151 185.369   7
  -7   7   1 99.2823 171.000   7
  -7   7  -1-102.500 177.259   4
  -7   7  -1-348.269 242.544   7
  -7   7  -3 700.609 356.069   4
  -7   7  -3 330.096 253.519   7
   7  -6  -3-146.291 249.601   2
   7  -6  -1 818.546 403.429   2
  -7   6   1 763.015 349.151   4
  -7   6   1 456.317 293.854   7
   7  -6   1 494.653 330.944   2
  -7   6  -1 81.2733 120.244   7
  -7   6  -3 322.970 240.933   4
  -7   6  -3 608.173 289.313   7
  -7   6  -5 390.239 268.268   4
  -7   6  -5 328.443 193.806   7
   7  -5  -5 439.299 351.534   2
   7  -5  -3 854.915 423.958   2
  -7   5   3 246.972 206.694   4
   7  -5  -1 1193.96 480.555   2
  -7   5   1 1415.86 524.193   4
  -7   5   1 755.290 285.302   7
   7  -5   1 2252.21 591.777   2
  -7   5  -1 2092.77 572.220   4
  -7   5  -1 2188.27 522.717   7
   7  -5   3 1657.86 517.917   2
  -7   5  -3 1302.35 422.983   4
  -7   5  -3 1441.91 429.533   7
   7  -5   5 1154.87 430.176   2
  -7   5  -5 767.779 334.807   4
  -7   5  -5 885.001 363.572   7
  -7   5  -7 751.420 351.635   7
   7  -4  -5 687.095 395.091   2
  -7   4   5 644.269 376.564   4
   7  -4  -3 1677.48 587.449   2
  -7   4   3 1362.18 522.107   4
   7  -4  -1 2378.63 624.919   2
  -7   4   1 1676.46 546.803   4
  -7   4   1 1928.50 431.271   7
   7  -4   1 1247.85 440.083   2
  -7   4  -1 722.571 345.597   4
  -7   4  -1 720.165 281.505   7
   7  -4   3 3403.36 690.657   2
  -7   4  -3 2926.97 664.680   4
  -7   4  -3 2930.40 608.858   7
   7  -4   5 2924.35 658.272   2
  -7   4  -5 2376.82 551.858   4
  -7   4  -5 3380.18 680.245   7
  -7   4  -7 472.832 261.724   4
  -7   4  -7 849.687 357.870   7
   7  -4   7 1343.06 468.194   2
  -7   3   5 217.895 235.444   4
   7  -3  -5 206.716 239.186   1
   7  -3  -3 903.757 409.914   2
  -7   3   3 554.565 337.910   4
   7  -3  -1 759.637 401.736   2
  -7   3   1 872.675 392.161   4
  -7   3   1 363.835 188.688   7
  -7   3  -1 4126.85 655.984   7
  -7   3  -1 4938.52 877.426   4
   7  -3   1 6747.56 956.691   2
   7  -3   3 3459.23 696.327   2
  -7   3  -3 3285.55 672.705   4
  -7   3  -3 2739.60 566.803   7
   7  -3   5 2376.73 554.604   2
  -7   3  -5 1873.27 500.889   4
  -7   3  -5 1160.93 383.305   7
   7  -3   7 3228.35 661.202   2
  -7   3  -7 2707.90 581.812   4
  -7   3  -7 2870.57 628.738   7
  -7   3  -9 485.675 315.843   7
   7  -3   9 770.483 330.803   2
  -7   2   7-45.9305 140.952   4
  -7   2   5 667.770 404.652   5
   7  -2  -5 1124.33 464.230   2
  -7   2   5 64.5147 144.360   4
   7  -2  -5 1154.78 501.217   1
   7  -2  -3 1867.45 563.575   2
  -7   2   3 1291.25 477.960   4
   7  -2  -1 3866.82 778.952   2
  -7   2   1 3565.33 506.210   7
  -7   2   1 2412.33 614.528   4
   7  -2   1 1625.30 464.344   2
  -7   2  -1 1936.70 532.185   4
  -7   2  -1 607.311 264.728   7
   7  -2   1 1012.45 287.801   3
   7  -2   3 4712.01 743.910   2
  -7   2  -3 3188.76 653.725   4
  -7   2  -3 3331.74 602.238   7
  -7   2  -5 5844.06 856.787   7
  -7   2  -5 4516.13 783.296   4
   7  -2   5 6763.75 894.756   2
   7  -2   7 1090.22 398.642   2
  -7   2  -7 1723.07 487.484   7
  -7   2  -9 1044.77 383.585   7
   7  -2   9 2676.75 596.680   2
   7  -2  11-285.436 232.539   2
  -7   1   7 412.337 286.265   4
  -7   1   5 1276.23 436.268   5
   7  -1  -5 690.358 372.139   2
  -7   1   5 1117.22 448.144   4
   7  -1  -5 812.290 399.419   1
  -7   1   3 1016.07 384.630   5
   7  -1  -3 1496.52 498.500   2
  -7   1   3 1025.81 400.788   4
   7  -1  -3 1052.81 447.537   1
   7  -1  -1 547.400 382.185   2
  -7   1   1 211.132 236.053   4
  -7   1   1 365.708 197.357   7
   7  -1   1 4663.23 817.705   2
   7  -1   1 3764.05 508.863   7
  -7   1  -1 4324.95 781.668   4
  -7   1  -1 3660.21 563.314   7
  -7   1  -3 8428.90 1062.50   4
  -7   1  -3 8503.47 941.074   7
   7  -1   3 10452.6 1103.76   2
   7  -1   5 549.993 299.154   2
  -7   1  -5 338.331 227.121   4
  -7   1  -5 520.999 309.133   7
   7  -1   5 1039.72 314.675   6
   7  -1   7 6485.77 838.958   2
  -7   1  -7 4443.43 775.705   7
  -7   1  -9 1915.03 525.476   7
   7  -1   9 1139.43 388.318   2
   7  -1  11 687.116 322.510   2
  -7   0   7 287.136 315.165   4
  -7   0   5 579.495 339.183   5
  -7   0   5-15.8892 182.147   4
   7   0  -5 223.231 311.833   2
   7   0  -5 551.166 365.893   1
  -7   0   3 2124.63 556.852   5
  -7   0   3 1276.21 447.000   4
   7   0  -3 1335.43 468.211   2
   7   0  -3 1159.19 436.955   1
   7   0  -1 2062.21 312.841   3
   7   0  -1 2142.60 546.464   2
  -7   0   1 1599.24 482.947   4
   7   0   1 2217.33 549.243   2
  -7   0  -1 2219.58 538.768   4
  -7   0  -1 2199.50 427.391   7
   7   0   1 2112.89 375.824   7
   7   0   3 1648.72 432.542   2
  -7   0  -3 943.838 383.405   4
  -7   0  -3 1131.08 343.459   7
  -7   0  -5 14238.2 1378.10   4
  -7   0  -5 13343.9 1261.11   7
   7   0   5 15190.0 1251.54   2
   7   0   7 1323.88 382.360   2
  -7   0  -7 1084.97 384.636   7
  -7   0  -9 2543.97 599.488   7
   7   0   9 2479.11 520.161   2
  -7   0 -11 477.415 282.956   7
   7   0  11 817.859 325.397   2
   7   1  -7 288.355 280.092   1
  -7  -1   7 667.067 352.474   4
  -7  -1   5 873.174 386.765   5
   7   1  -5 834.989 404.210   1
  -7  -1   5 318.498 264.767   4
  -7  -1   3 1298.15 434.571   5
  -7  -1   3 1357.46 454.201   4
   7   1  -3 942.709 466.094   2
   7   1  -3 870.824 344.720   1
  -7  -1   1 1041.85 365.116   5
   7   1  -1 611.921 145.417   3
  -7  -1   1 391.225 255.047   4
   7   1  -1 821.751 386.615   2
   7   1  -1 596.004 302.172   1
   7   1   1 628.278 254.298   3
   7   1   1 1078.24 409.189   2
  -7  -1  -1 372.190 278.361   4
   7   1   1 306.748 138.147   7
  -7  -1  -3 7623.30 1016.08   4
  -7  -1  -3 9025.48 967.932   7
   7   1   3 10369.4 1065.79   2
   7   1   5 1696.25 432.873   2
  -7  -1  -5 648.910 324.339   7
   7   1   7 4002.76 604.197   2
  -7  -1  -7 4443.31 754.321   7
  -7  -1  -9 2300.04 574.777   7
   7   1   9 3052.07 571.413   2
  -7  -1 -11 870.193 423.190   7
   7   1  11 572.984 249.802   2
  -7  -2   7 142.868 198.830   4
  -7  -2   5 1144.97 465.042   5
   7   2  -5 791.282 367.238   1
  -7  -2   5 298.958 260.006   4
   7   2  -3 873.028 385.651   1
  -7  -2   3 997.995 397.366   5
  -7  -2   3 736.707 324.519   4
  -7  -2   1 2288.25 541.640   5
  -7  -2   1 2239.54 568.948   4
   7   2  -1 2197.79 611.808   2
   7   2  -1 2436.93 546.140   1
   7   2   1 1341.30 319.021   3
   7   2   1 1015.93 394.871   2
  -7  -2  -1 1155.40 417.561   4
   7   2   1 1380.95 313.469   7
   7   2   3 283.197 214.643   3
   7   2   3 266.242 218.752   2
  -7  -2  -3 260.804 175.348   7
  -7  -2  -5 4897.78 751.474   7
   7   2   5 4659.11 646.885   2
   7   2   7 3192.85 525.341   2
  -7  -2  -7 3751.22 694.368   7
   7   2   9 548.371 249.192   2
  -7  -2  -9 1288.20 408.213   7
  -7  -2  -9 1412.88 396.954   6
  -7  -2 -11 1705.77 522.056   7
  -7  -2 -11 1525.60 436.890   6
   7   2  11 1452.71 377.171   2
  -7  -3   7 348.149 259.018   4
  -7  -3   5 1058.43 456.968   5
  -7  -3   5 549.003 307.931   4
   7   3  -5 293.379 202.213   1
  -7  -3   3 1037.29 365.942   5
   7   3  -3 1241.50 415.359   1
  -7  -3   3 1456.87 449.391   4
   7   3  -1 1912.54 500.523   1
  -7  -3   1 1290.01 410.752   5
  -7  -3   1 1367.64 425.270   4
  -7  -3  -1 1950.49 464.509   5
   7   3   1 1542.26 320.450   3
   7   3   1 1546.54 437.720   2
   7   3   1 1868.16 458.731   1
   7   3   3 982.217 319.489   3
   7   3   3 1045.37 370.796   2
   7   3   5 2876.88 613.801   3
   7   3   5 2689.76 481.273   2
   7   3   7 908.443 293.662   2
   7   3   7 693.534 364.504   3
  -7  -3  -7 1007.45 388.436   7
  -7  -3  -7 1103.40 387.319   6
   7   3   9 2051.04 403.334   2
   7   3   9 2683.92 675.623   3
  -7  -3  -9 3320.82 690.609   7
  -7  -3  -9 1869.01 484.740   6
   7   3  11 551.057 429.313   3
  -7  -3 -11 287.134 266.666   7
  -7  -3 -11 422.226 253.571   6
  -7  -4   5 533.205 336.935   5
   7   4  -5 227.421 203.254   1
  -7  -4   3-1.75572 127.949   5
   7   4  -3 83.5759 157.981   1
  -7  -4   1 1271.79 397.696   5
   7   4  -1 2523.80 521.355   1
   7   4   1 1166.53 366.531   1
   7   4   1 1080.83 292.740   3
  -7  -4  -1 926.580 337.718   5
   7   4   1 1958.01 515.127   2
   7   4   3 1772.42 457.776   3
   7   4   3 1634.71 411.036   2
   7   4   3 1456.54 348.154   1
   7   4   5 698.131 326.460   3
   7   4   5 611.420 227.289   2
  -7  -4  -5 873.847 369.731   6
   7   4   7 2478.79 426.178   2
   7   4   7 2768.82 634.023   3
  -7  -4  -7 2331.09 587.592   6
   7   4   9 553.384 203.426   2
   7   4   9 408.296 266.180   3
  -7  -4  -9 844.389 385.957   6
   7   4  11 997.903 448.364   3
  -7  -4 -11 544.758 308.858   7
  -7  -4 -11 658.287 330.569   6
   7   5  -5 421.203 268.093   1
  -7  -5   3 958.823 378.193   5
   7   5  -3 706.083 335.845   1
  -7  -5   1 489.714 251.654   5
   7   5  -1 657.116 261.747   1
   7   5   1 1309.04 313.332   3
  -7  -5  -1 1901.08 470.797   5
   7   5   1 1524.34 346.350   1
   7   5   3 1458.36 382.682   3
   7   5   3 1065.23 281.513   1
   7   5   3 1317.54 381.375   2
   7   5   5 1826.33 512.671   3
   7   5   5 1220.12 319.984   2
  -7  -5  -5 1632.81 505.541   6
   7   5   7 886.643 253.815   2
   7   5   7 187.003 233.155   3
  -7  -5  -7 1213.24 449.172   6
   7   5   9 397.182 302.684   3
  -7  -5  -9 640.538 350.295   6
   7   5  11 843.789 475.550   3
  -7  -5 -11 489.567 273.864   6
  -7  -5 -13 102.701 171.130   6
   7   6  -5-53.5807 132.019   1
  -7  -6   3 465.838 353.241   5
   7   6  -3 257.817 190.716   1
  -7  -6   1 187.422 168.891   5
   7   6  -1 460.652 211.235   1
   7   6   1 666.210 241.642   3
  -7  -6  -1 336.725 229.076   5
   7   6   3 688.351 277.484   3
   7   6   3 166.126 106.521   2
  -7  -6  -3 412.422 246.321   6
   7   6   5 1255.87 429.432   3
   7   6   5 1008.31 287.594   2
  -7  -6  -5 1052.93 436.236   6
   7   6   7 128.135 185.308   3
  -7  -6  -7 769.325 404.462   6
   7   6   9 582.618 388.860   3
  -7  -6  -9 209.482 170.059   6
  -7  -6 -11 70.2833 129.642   6
  -7  -7   3 773.543 376.116   5
  -7  -7   1 249.131 290.975   5
  -7  -7  -1 404.304 224.218   5
   7   7   3 506.334 279.915   3
  -7  -7  -3 539.967 205.562   5
   7   7   3 683.496 279.563   2
  -7  -7  -3 741.077 345.004   6
   7   7   5 484.157 276.004   3
  -7  -7  -5 588.257 341.458   6
   7   7   7 1079.43 451.473   3
  -7  -7  -7-158.837 249.759   6
   7   7   9-64.1085 185.460   3
  -7  -7  -9 369.049 269.815   6
  -7  -8   1 45.3461 141.176   5
  -7  -8  -1 68.3408 118.623   5
   7   8   3 775.008 311.371   3
  -7  -8  -3 503.601 371.557   6
   7   8   5 233.811 175.271   3
  -7  -8  -5-103.092 187.599   6
   7   8   7 248.559 252.071   3
  -7  -8  -7 209.708 251.682   6
   7   8   9 2.26326 163.639   3
   7   9   3 53.1647 126.798   3
   7   9   5 630.554 365.980   3
   7   9   7 60.6691 168.764   3
   7  10   5 96.2253 172.875   3
  -8   6  -2 288.701 223.385   7
  -8   5  -2 252.460 240.269   4
  -8   5  -2 259.721 228.944   7
  -8   5  -4 209.122 234.879   4
  -8   5  -4 440.005 313.118   7
  -8   5  -6 166.986 180.680   4
  -8   4   0 267.273 258.113   4
   8  -4   2 478.372 333.598   2
  -8   4  -2 663.171 307.996   4
  -8   4  -2 1027.42 405.729   7
  -8   4  -4 335.819 246.414   4
  -8   4  -4 163.957 224.840   7
  -8   4  -6 387.695 284.253   4
  -8   4  -6 1016.44 449.549   7
   8  -3  -2 977.230 445.299   2
  -8   3   2 271.349 140.527   4
   8  -3   0 552.354 356.899   2
  -8   3   0 1010.40 479.456   4
  -8   3   0 632.704 275.368   7
   8  -3   2 636.705 330.581   2
  -8   3  -2 1145.24 449.879   4
  -8   3  -2 530.442 277.748   7
   8  -3   4 725.656 346.057   2
  -8   3  -4 1063.47 429.925   4
  -8   3  -4 1002.38 386.355   7
   8  -3   6 226.558 178.667   2
  -8   3  -6 1416.78 472.956   4
  -8   3  -6 934.385 413.162   7
   8  -2  -2 826.086 414.964   2
  -8   2   2 376.175 327.049   4
   8  -2   0 1094.42 437.460   2
  -8   2   0 900.608 391.756   4
  -8   2   0 1236.04 337.651   7
   8  -2   2 1957.50 552.277   2
  -8   2  -2 1456.99 464.843   4
  -8   2  -2 1490.42 433.402   7
   8  -2   4 1078.17 390.395   2
  -8   2  -4 1071.30 419.820   4
  -8   2  -4 540.906 277.461   7
   8  -2   6 36.0837 163.095   2
  -8   2  -6 114.253 177.319   4
  -8   2  -6 44.7527 144.605   7
   8  -2   8 1150.07 435.926   2
  -8   2  -8 988.642 412.664   7
  -8   1   4 460.337 302.625   4
   8  -1  -4 282.731 310.289   1
   8  -1  -2 1208.92 463.701   2
  -8   1   2 930.376 478.476   4
   8  -1   0 936.492 407.351   2
  -8   1   0 478.928 293.930   4
  -8   1   0 602.225 214.338   7
   8  -1   2 2049.32 554.944   2
  -8   1  -2 1800.44 541.923   4
  -8   1  -2 1755.34 448.412   7
   8  -1   4 1015.90 373.291   2
  -8   1  -4 914.844 378.091   4
  -8   1  -4 1035.29 345.961   7
   8  -1   6 1827.38 503.302   2
  -8   1  -6 1833.46 525.054   4
  -8   1  -6 1512.94 485.781   7
   8  -1   8-31.9873 151.989   2
  -8   1  -8 79.8052 220.771   7
   8  -1  10 586.881 302.408   2
  -8   0   4 538.883 350.988   4
   8   0  -4 169.927 326.123   1
   8   0  -2 428.240 366.929   2
  -8   0   2 255.701 193.386   4
   8   0  -2 735.565 342.352   1
   8   0   0 1086.54 478.242   2
  -8   0   0 540.300 330.821   4
   8   0   2 2876.55 649.802   2
  -8   0  -2 2339.48 619.335   4
  -8   0  -2 2604.62 545.611   7
   8   0   4 3142.39 628.213   2
  -8   0  -4 2181.98 581.551   4
  -8   0  -4 2881.84 615.375   7
   8   0   6 954.884 360.889   2
  -8   0  -6-67.9018 223.671   7
   8   0   8 964.392 351.873   2
  -8   0  -8 757.323 367.015   7
   8   0  10 490.570 269.099   2
   8   1  -4 913.589 454.914   1
  -8  -1   4 180.717 222.791   4
   8   1  -2-19.4622 207.998   2
  -8  -1   2 190.142 240.850   4
   8   1  -2 645.658 370.646   1
   8   1   0 917.585 395.876   2
  -8  -1   0 1008.15 443.363   4
   8   1   0 431.639 279.341   1
   8   1   2 698.585 299.112   3
   8   1   2 493.345 272.760   2
  -8  -1  -2 944.616 377.079   4
  -8  -1  -2 681.154 277.966   7
   8   1   4 2273.43 554.996   2
  -8  -1  -4 3318.12 655.268   7
   8   1   6 2537.51 554.580   2
  -8  -1  -6 2015.79 542.791   7
   8   1   8 746.103 310.369   2
  -8  -1  -8 1296.09 440.781   7
   8   1  10 393.715 239.232   2
   8   2  -4 352.268 261.406   1
  -8  -2   4 36.8617 189.801   4
  -8  -2   2 700.728 349.042   5
  -8  -2   2 665.757 303.479   4
   8   2  -2 379.210 319.929   2
   8   2  -2 163.442 167.569   1
  -8  -2   0 435.038 294.522   4
   8   2   0 217.722 166.874   1
   8   2   2 1031.57 337.945   3
   8   2   2 1496.69 492.132   2
  -8  -2  -2 2007.86 570.886   4
   8   2   4 1108.53 382.118   3
   8   2   4 897.613 330.157   2
  -8  -2  -4 864.438 345.719   7
   8   2   6 1920.99 483.044   2
   8   2   6 1984.67 545.844   3
  -8  -2  -6 2027.51 545.467   7
   8   2   8 724.682 281.058   2
  -8  -2  -8 1255.10 426.345   7
  -8  -2 -10 507.341 313.109   7
   8   2  10 575.090 270.945   2
   8   3  -4-98.0226 230.921   1
  -8  -3   4 703.071 368.836   4
  -8  -3   2 109.108 200.994   5
   8   3  -2 247.135 204.428   1
  -8  -3   2 197.906 194.962   4
   8   3  -2 508.004 317.511   2
  -8  -3   0 655.375 363.926   5
   8   3   0 823.461 378.926   2
   8   3   0 1171.43 422.034   1
   8   3   2 83.9234 125.983   3
   8   3   2 229.811 208.166   2
   8   3   2 452.939 295.553   1
   8   3   4 977.967 368.183   3
   8   3   4 1576.65 425.337   2
   8   3   6 1325.92 381.221   2
   8   3   6 1356.63 475.802   3
   8   3   8 887.005 304.382   2
   8   3   8 181.614 230.310   3
  -8  -3  -8 102.835 258.244   7
   8   3  10 573.085 353.061   3
  -8  -3 -10 86.3138 172.653   7
  -8  -3 -10 249.285 208.026   6
   8   4  -4-65.2596 148.370   1
  -8  -4   2 132.840 239.418   5
   8   4  -2 60.5697 126.187   1
  -8  -4   0 483.794 289.494   5
   8   4   0 295.876 228.786   1
   8   4   0 83.8579 235.531   2
   8   4   2 424.329 278.207   2
   8   4   2 859.373 318.549   1
   8   4   4 1031.26 364.338   3
   8   4   4 420.719 216.128   2
   8   4   6 216.325 221.777   3
   8   4   6 434.891 226.524   2
   8   4   8 505.627 344.090   3
  -8  -4  -8 946.624 414.308   6
   8   4  10 371.785 336.169   3
  -8  -4 -10-75.3484 212.585   6
  -8  -5   2 384.983 297.891   5
  -8  -5   0 394.593 281.735   5
   8   5   0 550.710 380.308   2
   8   5   2 43.9272 128.006   2
   8   5   4 406.240 228.851   3
   8   5   4 657.860 290.169   2
   8   5   6 953.944 403.334   3
   8   5   6 997.250 315.431   2
  -8  -5  -6 1081.06 440.973   6
   8   5   8 4.41654 221.067   3
  -8  -5  -8 428.947 280.817   6
   8   5  10 150.471 201.078   3
  -8  -5 -10-133.373 157.314   6
  -8  -6   0-19.9771 148.816   5
   8   6   2 143.756 136.891   2
   8   6   4 165.122 117.821   3
   8   6   4 49.9626 128.638   2
   8   6   6 710.924 374.968   3
  -8  -6  -6 73.9715 193.792   6
   8   6   8-235.015 274.409   3
  -8  -6  -8 501.441 332.580   6
  -8  -7   0-45.8190 243.641   5
  -8  -7  -2 205.267 194.485   5
   8   7   2 40.9520 186.221   2
   8   7   6 164.870 170.054   3
   8   7   8-376.293 237.364   3
   8   8   6 381.791 273.730   3
  -9   4  -3 252.912 246.771   7
  -9   3  -3 126.092 167.405   7
  -9   3  -5 514.515 356.288   7
  -9   2  -3-292.299 231.409   7
  -9   2  -5 94.5316 238.120   7
   9  -1   3 191.726 276.443   2
  -9   1  -3 272.638 362.152   7
   9  -1   5 802.656 367.808   2
  -9   1  -5 144.488 275.720   7
  -9   1  -7-81.1891 156.250   7
   9   0  -1 1040.80 466.136   1
   9   0   1 497.576 347.530   2
   9   0   3 846.033 426.867   2
  -9   0  -3 149.795 229.877   7
   9   0   5 316.245 255.173   2
  -9   0  -5 639.466 362.737   7
   9   0   7 132.741 200.533   2
  -9   0  -7 54.9377 163.811   7
   9   1  -1 715.271 396.293   1
   9   1   1 464.102 306.814   2
   9   1   3 858.392 396.830   2
  -9  -1  -3 713.702 376.787   4
   9   1   5-102.362 173.403   2
  -9  -1  -5 474.320 270.994   7
   9   1   7 313.303 206.416   2
  -9  -1  -7 407.312 311.642   7
   9   1   9-67.9294 130.647   2
   9   2  -1 111.054 200.999   1
   9   2   1 394.051 337.112   2
   9   2   1 475.044 315.115   1
   9   2   3 419.931 280.210   2
   9   2   5 298.041 214.543   2
   9   2   5 321.264 229.023   3
   9   2   7 350.997 259.449   2
   9   2   7 242.158 243.191   3
  -9  -2  -7 145.084 290.672   7
   9   3  -1 565.314 349.023   1
   9   3   1 494.094 308.495   2
   9   3   1-69.3438 242.187   1
   9   3   3 628.817 342.951   2
   9   3   5 364.229 257.617   2
   9   3   7 64.1258 150.744   2
   9   3   7 151.287 209.149   3
   9   4   1-160.650 216.223   2
   9   4   3 509.200 346.938   2
   9   4   5 188.650 212.632   2
   9   4   7-24.4665 151.952   3
   9   5   1 157.264 247.861   2
   9   5   3 579.045 328.688   2
   9   5   7 661.502 396.526   3
   0   0   0    0.00    0.00   0

TITL exp_1342 in P-1
REM P-1 (#2 in standard setting)
CELL 0.71073   7.168323   9.264304  11.915979  76.5883  77.7626  83.7493
ZERR    2.00   0.000504   0.000600   0.000821   0.0057   0.0059   0.0056
LATT  1
SFAC C H F Fe
UNIT 32.00 20.00 12.00 2.00
TREF
HKLF 4
END
;
_shelx_hkl_checksum              75107
_olex2_date_sample_data_collection 2018-12-13
_olex2_exptl_crystal_mounting_method 'Inside 1.0 mm X-ray capillary'
_olex2_submission_special_instructions 'No special instructions were received'
_oxdiff_exptl_absorpt_empirical_details
;
Empirical correction (ABSPACK) includes:
- Absorption correction using spherical harmonics
- Frame scaling
;
_oxdiff_exptl_absorpt_empirical_full_max 1.372
_oxdiff_exptl_absorpt_empirical_full_min 0.804
loop_
_space_group_symop_operation_xyz
'x, y, z'
'x+1/2, y, z+1/2'
'-x, -y, -z'
'-x+1/2, -y, -z+1/2'
loop_
_atom_site_label
_atom_site_type_symbol
_atom_site_fract_x
_atom_site_fract_y
_atom_site_fract_z
_atom_site_U_iso_or_equiv
_atom_site_adp_type
_atom_site_occupancy
_atom_site_site_symmetry_order
_atom_site_calc_flag
_atom_site_refinement_flags_posn
_atom_site_refinement_flags_adp
_atom_site_refinement_flags_occupancy
_atom_site_disorder_assembly
_atom_site_disorder_group
Fe1 Fe 0.2500 0.5000 0.2500 0.0641(3) Uani 1 2 d DS TU P . .
C7 C 0.3096(14) 0.6958(11) 0.1371(10) 0.090(3) Uani 0.5 1 d D U . A 1
H7 H 0.4239 0.7421 0.1220 0.108 Uiso 0.5 1 calc R . . A 1
C8 C 0.2682(16) 0.5929(13) 0.0769(7) 0.094(3) Uani 0.5 1 d D U . A 1
H8 H 0.3491 0.5589 0.0151 0.113 Uiso 0.5 1 calc R . . A 1
C9 C 0.0833(16) 0.5520(11) 0.1277(9) 0.082(3) Uani 0.5 1 d D U . A 1
H9 H 0.0186 0.4849 0.1052 0.099 Uiso 0.5 1 calc R . . A 1
C10 C 0.0103(11) 0.6275(10) 0.2177(8) 0.073(2) Uani 0.5 1 d D U . A 1
H10 H -0.1105 0.6196 0.2655 0.087 Uiso 0.5 1 calc R . . A 1
C11 C 0.1507(16) 0.7166(9) 0.2229(9) 0.075(2) Uani 0.5 1 d D U . A 1
H11 H 0.1402 0.7794 0.2748 0.090 Uiso 0.5 1 calc R . . A 1
F1 F 0.3608(4) 0.9822(4) -0.1200(3) 0.1521(12) Uani 1 1 d . . . . .
F2 F 0.1014(6) 0.8127(3) -0.1482(3) 0.1456(12) Uani 1 1 d . . . . .
F3 F -0.2593(5) 0.8292(4) -0.0273(4) 0.1585(13) Uani 1 1 d . . . . .
C1 C 0.1813(5) 0.9910(4) -0.0615(3) 0.0877(11) Uani 1 1 d . . . . .
C2 C 0.0498(6) 0.9063(4) -0.0746(3) 0.0847(10) Uani 1 1 d . . . . .
C3 C -0.1303(6) 0.9143(4) -0.0138(4) 0.0881(10) Uani 1 1 d . . . . .
C7A C 0.0226(12) 0.5758(13) 0.1710(9) 0.081(3) Uani 0.5 1 d D U . A 2
H7A H -0.0915 0.5297 0.1854 0.098 Uiso 0.5 1 calc R . . A 2
C8A C 0.0653(16) 0.6834(12) 0.2332(9) 0.085(3) Uani 0.5 1 d D U . A 2
H8A H -0.0158 0.7188 0.2943 0.102 Uiso 0.5 1 calc R . . A 2
C9A C 0.2561(16) 0.7232(8) 0.1813(8) 0.072(2) Uani 0.5 1 d D U . A 2
H9A H 0.3221 0.7902 0.2030 0.086 Uiso 0.5 1 calc R . . A 2
C10A C 0.3281(12) 0.6442(9) 0.0918(7) 0.0662(19) Uani 0.5 1 d D U . A 2
H10A H 0.4495 0.6503 0.0447 0.079 Uiso 0.5 1 calc R . . A 2
C11A C 0.1861(14) 0.5548(10) 0.0853(7) 0.068(2) Uani 0.5 1 d D U . A 2
H11A H 0.1980 0.4921 0.0332 0.081 Uiso 0.5 1 calc R . . A 2
loop_
_atom_site_aniso_label
_atom_site_aniso_U_11
_atom_site_aniso_U_22
_atom_site_aniso_U_33
_atom_site_aniso_U_23
_atom_site_aniso_U_13
_atom_site_aniso_U_12
Fe1 0.0763(5) 0.0538(4) 0.0606(4) -0.0046(3) -0.0224(3) 0.0043(3)
C7 0.100(5) 0.069(8) 0.083(10) 0.009(4) -0.008(4) -0.003(5)
C8 0.114(8) 0.091(11) 0.064(4) -0.002(5) -0.017(6) 0.020(6)
C9 0.104(8) 0.083(5) 0.066(8) -0.021(5) -0.037(5) 0.017(7)
C10 0.085(4) 0.065(7) 0.076(5) -0.020(3) -0.036(3) 0.010(3)
C11 0.082(7) 0.058(4) 0.083(6) -0.010(5) -0.020(5) 0.005(5)
F1 0.0956(17) 0.174(3) 0.139(2) 0.016(2) 0.0115(16) 0.0239(17)
F2 0.233(3) 0.1058(19) 0.1041(18) -0.0463(16) -0.048(2) 0.046(2)
F3 0.167(3) 0.130(2) 0.199(3) -0.009(2) -0.088(2) -0.052(2)
C1 0.077(2) 0.085(2) 0.079(2) 0.0109(19) -0.0085(17) 0.0133(18)
C2 0.120(3) 0.0619(19) 0.071(2) -0.0119(16) -0.029(2) 0.0168(19)
C3 0.100(3) 0.068(2) 0.098(3) 0.0042(19) -0.043(2) -0.0136(19)
C7A 0.069(4) 0.094(9) 0.076(8) -0.008(4) -0.020(4) 0.008(5)
C8A 0.090(7) 0.075(9) 0.079(5) -0.010(5) -0.018(5) 0.024(5)
C9A 0.098(7) 0.053(3) 0.063(7) -0.013(4) -0.015(4) 0.008(5)
C10A 0.091(4) 0.055(6) 0.056(5) -0.014(3) -0.018(3) -0.006(3)
C11A 0.073(6) 0.071(4) 0.060(5) -0.006(4) -0.021(4) -0.009(5)
loop_
_atom_type_symbol
_atom_type_description
_atom_type_scat_dispersion_real
_atom_type_scat_dispersion_imag
_atom_type_scat_source
C C 0.0033 0.0016 'International Tables Vol C Tables 4.2.6.8 and 6.1.1.4'
H H 0.0000 0.0000 'International Tables Vol C Tables 4.2.6.8 and 6.1.1.4'
F F 0.0171 0.0103 'International Tables Vol C Tables 4.2.6.8 and 6.1.1.4'
Fe Fe 0.3463 0.8444 'International Tables Vol C Tables 4.2.6.8 and 6.1.1.4'
loop_
_exptl_crystal_face_index_h
_exptl_crystal_face_index_k
_exptl_crystal_face_index_l
_exptl_crystal_face_perp_dist
0 2 16 0.1688
-8 5 -7 0.1646
6 -9 6 0.2201
3 -11 5 0.2285
3 -12 -3 0.2141
1 -9 -13 0.1120
0 -5 14 0.2332
8 0 12 0.2066
1 6 -12 0.1415
-5 2 -14 0.1401
2 -8 10 0.2361
8 -2 10 0.2091
-7 7 -8 0.1653
0 11 -6 0.1527
-5 10 1 0.1680
-2 -11 3 0.3527
2 13 4 0.1666
7 6 -6 0.2193
-2 10 12 0.1016
1 -7 -15 0.1000
-1 7 15 0.1000
loop_
_geom_angle_atom_site_label_1
_geom_angle_atom_site_label_2
_geom_angle_atom_site_label_3
_geom_angle
_geom_angle_site_symmetry_1
_geom_angle_site_symmetry_3
C7 Fe1 C7 180.0 4_565 .
C7 Fe1 C8 139.3(4) . 4_565
C7 Fe1 C8 139.3(4) 4_565 .
C7 Fe1 C8 40.7(4) 4_565 4_565
C7 Fe1 C8 40.7(4) . .
C7 Fe1 C10 67.5(4) 4_565 4_565
C7 Fe1 C10 112.5(4) . 4_565
C7 Fe1 C10 67.5(4) . .
C7 Fe1 C10 112.5(4) 4_565 .
C7 Fe1 C11 139.9(4) . 4_565
C7 Fe1 C11 40.1(3) 4_565 4_565
C7 Fe1 C11 40.1(3) . .
C7 Fe1 C11 139.9(4) 4_565 .
C8 Fe1 C8 180.0 . 4_565
C8 Fe1 C10 112.0(4) 4_565 .
C8 Fe1 C10 68.0(4) . .
C8 Fe1 C10 112.0(4) . 4_565
C8 Fe1 C10 68.0(4) 4_565 4_565
C8 Fe1 C11 68.0(4) 4_565 4_565
C8 Fe1 C11 112.0(4) . 4_565
C8 Fe1 C11 112.0(4) 4_565 .
C8 Fe1 C11 68.0(4) . .
C9 Fe1 C7 112.4(5) . 4_565
C9 Fe1 C7 67.6(5) . .
C9 Fe1 C7 112.4(5) 4_565 .
C9 Fe1 C7 67.6(5) 4_565 4_565
C9 Fe1 C8 139.8(4) 4_565 .
C9 Fe1 C8 40.2(4) . .
C9 Fe1 C8 139.8(4) . 4_565
C9 Fe1 C8 40.2(4) 4_565 4_565
C9 Fe1 C9 180.0 . 4_565
C9 Fe1 C10 40.3(3) 4_565 4_565
C9 Fe1 C10 139.7(3) 4_565 .
C9 Fe1 C10 40.3(3) . .
C9 Fe1 C10 139.7(3) . 4_565
C9 Fe1 C11 112.6(4) . 4_565
C9 Fe1 C11 112.6(4) 4_565 .
C9 Fe1 C11 67.4(4) 4_565 4_565
C9 Fe1 C11 67.4(4) . .
C10 Fe1 C10 180.0 . 4_565
C10 Fe1 C11 40.0(3) . .
C10 Fe1 C11 140.0(3) . 4_565
C10 Fe1 C11 40.0(3) 4_565 4_565
C10 Fe1 C11 140.0(3) 4_565 .
C11 Fe1 C11 180.0(6) . 4_565
C7A Fe1 C7A 180.0 . 4_565
C7A Fe1 C8A 137.8(4) . 4_565
C7A Fe1 C8A 42.2(4) . .
C7A Fe1 C8A 42.2(4) 4_565 4_565
C7A Fe1 C8A 137.8(4) 4_565 .
C7A Fe1 C9A 69.1(4) 4_565 4_565
C7A Fe1 C9A 69.1(4) . .
C7A Fe1 C9A 110.9(4) . 4_565
C7A Fe1 C9A 110.9(4) 4_565 .
C7A Fe1 C10A 111.8(4) . 4_565
C7A Fe1 C10A 68.2(4) . .
C7A Fe1 C10A 111.8(4) 4_565 .
C7A Fe1 C10A 68.2(4) 4_565 4_565
C7A Fe1 C11A 40.5(3) . .
C7A Fe1 C11A 139.5(3) . 4_565
C7A Fe1 C11A 139.5(3) 4_565 .
C7A Fe1 C11A 40.5(3) 4_565 4_565
C8A Fe1 C8A 180.0 4_565 .
C8A Fe1 C9A 139.0(4) . 4_565
C8A Fe1 C9A 139.0(4) 4_565 .
C8A Fe1 C9A 41.0(3) . .
C8A Fe1 C9A 41.0(3) 4_565 4_565
C8A Fe1 C10A 111.3(4) . 4_565
C8A Fe1 C10A 111.3(4) 4_565 .
C8A Fe1 C10A 68.7(4) 4_565 4_565
C8A Fe1 C10A 68.7(4) . .
C8A Fe1 C11A 69.2(4) 4_565 4_565
C8A Fe1 C11A 110.8(4) . 4_565
C8A Fe1 C11A 69.2(4) . .
C8A Fe1 C11A 110.8(4) 4_565 .
C9A Fe1 C9A 180.0 . 4_565
C9A Fe1 C10A 139.7(3) 4_565 .
C9A Fe1 C10A 139.7(3) . 4_565
C9A Fe1 C10A 40.3(3) 4_565 4_565
C9A Fe1 C10A 40.3(3) . .
C9A Fe1 C11A 68.1(3) . .
C9A Fe1 C11A 68.1(3) 4_565 4_565
C9A Fe1 C11A 111.9(3) 4_565 .
C9A Fe1 C11A 111.9(3) . 4_565
C10A Fe1 C10A 180.0 4_565 .
C11A Fe1 C10A 139.9(3) 4_565 .
C11A Fe1 C10A 40.1(3) . .
C11A Fe1 C10A 139.9(3) . 4_565
C11A Fe1 C10A 40.1(3) 4_565 4_565
C11A Fe1 C11A 180.0(5) . 4_565
Fe1 C7 H7 125.5 . .
C8 C7 Fe1 69.8(5) . .
C8 C7 H7 125.8 . .
C11 C7 Fe1 70.4(5) . .
C11 C7 H7 125.8 . .
C11 C7 C8 108.4(8) . .
Fe1 C8 H8 125.9 . .
C7 C8 Fe1 69.4(5) . .
C7 C8 H8 126.6 . .
C9 C8 Fe1 69.6(5) . .
C9 C8 C7 106.8(8) . .
C9 C8 H8 126.6 . .
Fe1 C9 H9 125.6 . .
C8 C9 Fe1 70.2(5) . .
C8 C9 H9 125.5 . .
C8 C9 C10 109.1(8) . .
C10 C9 Fe1 70.4(4) . .
C10 C9 H9 125.5 . .
Fe1 C10 H10 126.0 . .
C9 C10 Fe1 69.4(5) . .
C9 C10 H10 126.2 . .
C11 C10 Fe1 70.0(5) . .
C11 C10 C9 107.5(8) . .
C11 C10 H10 126.2 . .
Fe1 C11 H11 126.2 . .
C7 C11 Fe1 69.5(5) . .
C7 C11 C10 108.2(8) . .
C7 C11 H11 125.9 . .
C10 C11 Fe1 70.0(5) . .
C10 C11 H11 125.9 . .
F1 C1 C2 120.7(4) . .
F1 C1 C3 119.7(4) . 3_575
C2 C1 C3 119.5(3) . 3_575
F2 C2 C1 119.2(4) . .
F2 C2 C3 120.5(4) . .
C3 C2 C1 120.3(3) . .
F3 C3 C1 120.2(4) . 3_575
F3 C3 C2 119.7(4) . .
C2 C3 C1 120.1(3) . 3_575
Fe1 C7A H7A 126.0 . .
C8A C7A Fe1 69.1(5) . .
C8A C7A H7A 126.2 . .
C11A C7A Fe1 70.3(4) . .
C11A C7A H7A 126.2 . .
C11A C7A C8A 107.6(7) . .
Fe1 C8A H8A 126.2 . .
C7A C8A Fe1 68.8(5) . .
C7A C8A H8A 126.9 . .
C9A C8A Fe1 69.7(4) . .
C9A C8A C7A 106.2(7) . .
C9A C8A H8A 126.9 . .
Fe1 C9A H9A 126.5 . .
C8A C9A Fe1 69.3(5) . .
C8A C9A H9A 125.7 . .
C10A C9A Fe1 70.2(4) . .
C10A C9A C8A 108.7(8) . .
C10A C9A H9A 125.7 . .
Fe1 C10A H10A 126.6 . .
C9A C10A Fe1 69.5(4) . .
C9A C10A H10A 125.6 . .
C11A C10A Fe1 69.8(5) . .
C11A C10A C9A 108.8(7) . .
C11A C10A H10A 125.6 . .
Fe1 C11A H11A 126.6 . .
C7A C11A Fe1 69.2(5) . .
C7A C11A H11A 125.7 . .
C10A C11A Fe1 70.1(4) . .
C10A C11A C7A 108.7(8) . .
C10A C11A H11A 125.7 . .
loop_
_geom_bond_atom_site_label_1
_geom_bond_atom_site_label_2
_geom_bond_distance
_geom_bond_site_symmetry_2
Fe1 C7 2.019(8) 4_565
Fe1 C7 2.019(8) .
Fe1 C8 2.024(8) 4_565
Fe1 C8 2.024(8) .
Fe1 C9 2.018(8) .
Fe1 C9 2.018(8) 4_565
Fe1 C10 2.031(7) .
Fe1 C10 2.031(7) 4_565
Fe1 C11 2.031(8) 4_565
Fe1 C11 2.031(8) .
Fe1 C7A 2.032(8) .
Fe1 C7A 2.032(8) 4_565
Fe1 C8A 2.036(8) 4_565
Fe1 C8A 2.036(8) .
Fe1 C9A 2.042(8) 4_565
Fe1 C9A 2.042(8) .
Fe1 C10A 2.050(7) .
Fe1 C10A 2.050(7) 4_565
Fe1 C11A 2.046(8) .
Fe1 C11A 2.046(8) 4_565
C7 H7 0.9300 .
C7 C8 1.407(13) .
C7 C11 1.389(12) .
C8 H8 0.9300 .
C8 C9 1.389(13) .
C9 H9 0.9300 .
C9 C10 1.394(11) .
C10 H10 0.9300 .
C10 C11 1.390(11) .
C11 H11 0.9300 .
F1 C1 1.331(4) .
F2 C2 1.343(4) .
F3 C3 1.336(5) .
C1 C2 1.345(6) .
C1 C3 1.366(6) 3_575
C2 C3 1.344(6) .
C3 C1 1.366(6) 3_575
C7A H7A 0.9300 .
C7A C8A 1.463(13) .
C7A C11A 1.410(11) .
C8A H8A 0.9300 .
C8A C9A 1.427(12) .
C9A H9A 0.9300 .
C9A C10A 1.409(10) .
C10A H10A 0.9300 .
C10A C11A 1.405(10) .
C11A H11A 0.9300 .
loop_
_geom_torsion_atom_site_label_1
_geom_torsion_atom_site_label_2
_geom_torsion_atom_site_label_3
_geom_torsion_atom_site_label_4
_geom_torsion
_geom_torsion_site_symmetry_1
_geom_torsion_site_symmetry_4
Fe1 C7 C8 C9 59.9(6) . .
Fe1 C7 C11 C10 -59.5(7) . .
Fe1 C8 C9 C10 59.8(6) . .
Fe1 C9 C10 C11 59.8(6) . .
Fe1 C10 C11 C7 59.2(6) . .
Fe1 C7A C8A C9A 60.0(6) . .
Fe1 C7A C11A C10A -59.1(6) . .
Fe1 C8A C9A C10A 59.3(6) . .
Fe1 C9A C10A C11A 58.9(6) . .
Fe1 C10A C11A C7A 58.6(6) . .
C7 C8 C9 Fe1 -59.8(6) . .
C7 C8 C9 C10 0.0(11) . .
C8 C7 C11 Fe1 59.7(7) . .
C8 C7 C11 C10 0.3(11) . .
C8 C9 C10 Fe1 -59.7(7) . .
C8 C9 C10 C11 0.2(10) . .
C9 C10 C11 Fe1 -59.4(6) . .
C9 C10 C11 C7 -0.3(10) . .
C11 C7 C8 Fe1 -60.1(6) . .
C11 C7 C8 C9 -0.2(11) . .
F1 C1 C2 F2 -0.3(5) . .
F1 C1 C2 C3 179.0(3) . .
F2 C2 C3 F3 -0.5(5) . .
F2 C2 C3 C1 179.5(3) . 3_575
C1 C2 C3 F3 -179.8(3) . .
C1 C2 C3 C1 0.2(6) . 3_575
C3 C1 C2 F2 -179.5(3) 3_575 .
C3 C1 C2 C3 -0.2(6) 3_575 .
C7A C8A C9A Fe1 -59.4(6) . .
C7A C8A C9A C10A -0.1(10) . .
C8A C7A C11A Fe1 59.2(6) . .
C8A C7A C11A C10A 0.1(10) . .
C8A C9A C10A Fe1 -58.8(6) . .
C8A C9A C10A C11A 0.2(10) . .
C9A C10A C11A Fe1 -58.8(6) . .
C9A C10A C11A C7A -0.2(10) . .
C11A C7A C8A Fe1 -60.0(6) . .
C11A C7A C8A C9A 0.0(10) . .
loop_
_exptl_oxdiff_crystal_face_indexfrac_h
_exptl_oxdiff_crystal_face_indexfrac_k
_exptl_oxdiff_crystal_face_indexfrac_l
_exptl_oxdiff_crystal_face_x
_exptl_oxdiff_crystal_face_y
_exptl_oxdiff_crystal_face_z
-0.2735 2.3297 16.3065 0.2326 0.9726 0.0006
-8.2515 4.8464 -6.8114 -0.7171 -0.0684 0.6936
5.5532 -8.7766 5.6935 0.9273 0.0244 -0.3735
2.8730 -10.7276 4.8651 0.9958 0.0268 -0.0881
3.2188 -11.8416 -2.9025 0.8899 -0.4430 -0.1087
0.5558 -9.3827 -13.3217 0.3820 -0.9195 0.0933
0.2332 -4.9552 13.5249 0.7230 0.6871 0.0723
7.9359 -0.0373 12.3075 0.4868 0.4647 -0.7396
1.4510 5.5358 -12.4765 -0.7039 -0.6684 -0.2404
-5.4908 2.1343 -14.1178 -0.6385 -0.6081 0.4717
1.7175 -8.0626 10.3678 0.9094 0.4154 -0.0188
8.3867 -2.2889 9.8660 0.6045 0.2777 -0.7466
-6.5259 6.7233 -8.0216 -0.8524 -0.1597 0.4979
0.3930 10.8342 -5.8477 -0.9583 -0.1780 -0.2234
-5.4205 10.1915 0.7118 -0.8685 0.3582 0.3427
-2.3179 -11.4929 3.4543 0.9057 0.0887 0.4145
2.0857 12.9914 3.7020 -0.8420 0.3487 -0.4116
6.7285 6.2350 -6.2155 -0.4837 -0.4578 -0.7460
-1.5755 10.0327 11.7445 -0.4931 0.8699 -0.0090
1.0633 -7.2881 -14.6811 0.2002 -0.9797 0.0091
-1.0633 7.2881 14.6811 -0.2002 0.9797 -0.0091
