#------------------------------------------------------------------------------
#$Date: 2019-12-24 02:11:00 +0200 (Tue, 24 Dec 2019) $
#$Revision: 245532 $
#$URL: file:///home/coder/svn-repositories/cod/cif/4/13/38/4133855.cif $
#------------------------------------------------------------------------------
#
# This file is available in the Crystallography Open Database (COD),
# http://www.crystallography.net/
#
# All data on this site have been placed in the public domain by the
# contributors.
#
data_4133855
loop_
_publ_author_name
'Shi, Chao'
'Ye, Le'
'Gong, Zhi-Xin'
'Ma, Jia-Jun'
'Wang, Qin-Wen'
'Jiang, Jia-Ying'
'Hua, Miao-Miao'
'Wang, Chang-Feng'
'Yu, Hui'
'Zhang, Yi'
'Ye, Heng-Yun'
_publ_section_title
;
 Two-Dimensional Organic-Inorganic Hybrid Rare-Earth Double Perovskite
 Ferroelectrics.
;
_journal_name_full               'Journal of the American Chemical Society'
_journal_paper_doi               10.1021/jacs.9b11697
_journal_year                    2019
_chemical_formula_sum            'C28 H52 Ce N12 O28 Rb'
_chemical_formula_weight         1230.40
_space_group_crystal_system      tetragonal
_space_group_IT_number           97
_space_group_name_Hall           'I 4 2'
_space_group_name_H-M_alt        'I 4 2 2'
_audit_creation_method           SHELXL-2014/7
_cell_angle_alpha                90
_cell_angle_beta                 90
_cell_angle_gamma                90
_cell_formula_units_Z            1
_cell_length_a                   7.0884(2)
_cell_length_b                   7.0884(2)
_cell_length_c                   24.3105(17)
_cell_measurement_reflns_used    3383
_cell_measurement_temperature    380(2)
_cell_measurement_theta_max      31.6740
_cell_measurement_theta_min      2.8450
_cell_volume                     1221.49(10)
_computing_structure_refinement  'SHELXL-2014/7 (Sheldrick, 2014)'
_diffrn_ambient_temperature      380(2)
_diffrn_measured_fraction_theta_full 0.987
_diffrn_measured_fraction_theta_max 0.906
_diffrn_measurement_device_type  'rigaku synergy'
_diffrn_radiation_type           MoK\a
_diffrn_radiation_wavelength     0.71073
_diffrn_reflns_av_R_equivalents  0.0670
_diffrn_reflns_av_unetI/netI     0.0349
_diffrn_reflns_Laue_measured_fraction_full 0.987
_diffrn_reflns_Laue_measured_fraction_max 0.906
_diffrn_reflns_limit_h_max       9
_diffrn_reflns_limit_h_min       -9
_diffrn_reflns_limit_k_max       9
_diffrn_reflns_limit_k_min       -7
_diffrn_reflns_limit_l_max       32
_diffrn_reflns_limit_l_min       -28
_diffrn_reflns_number            6296
_diffrn_reflns_point_group_measured_fraction_full 0.991
_diffrn_reflns_point_group_measured_fraction_max 0.916
_diffrn_reflns_theta_full        25.242
_diffrn_reflns_theta_max         31.314
_diffrn_reflns_theta_min         2.993
_exptl_absorpt_coefficient_mu    2.022
_exptl_absorpt_correction_T_max  1.00000
_exptl_absorpt_correction_T_min  0.47804
_exptl_absorpt_correction_type   multi-scan
_exptl_crystal_colour            colorless
_exptl_crystal_density_diffrn    1.673
_exptl_crystal_description       block
_exptl_crystal_F_000             623
_exptl_crystal_size_max          0.19
_exptl_crystal_size_mid          0.16
_exptl_crystal_size_min          0.11
_refine_diff_density_max         1.676
_refine_diff_density_min         -0.336
_refine_diff_density_rms         0.113
_refine_ls_abs_structure_details
;
 Refined as an inversion twin.
;
_refine_ls_abs_structure_Flack   0.47(19)
_refine_ls_extinction_method     none
_refine_ls_goodness_of_fit_ref   1.034
_refine_ls_hydrogen_treatment    undef
_refine_ls_matrix_type           full
_refine_ls_number_parameters     67
_refine_ls_number_reflns         913
_refine_ls_number_restraints     1
_refine_ls_restrained_S_all      1.033
_refine_ls_R_factor_all          0.0622
_refine_ls_R_factor_gt           0.0506
_refine_ls_shift/su_max          0.000
_refine_ls_shift/su_mean         0.000
_refine_ls_structure_factor_coef Fsqd
_refine_ls_weighting_details
'w=1/[\s^2^(Fo^2^)+(0.0810P)^2^] where P=(Fo^2^+2Fc^2^)/3'
_refine_ls_weighting_scheme      calc
_refine_ls_wR_factor_gt          0.1100
_refine_ls_wR_factor_ref         0.1139
_reflns_Friedel_coverage         0.598
_reflns_Friedel_fraction_full    1.000
_reflns_Friedel_fraction_max     0.934
_reflns_number_gt                749
_reflns_number_total             913
_reflns_threshold_expression     'I > 2\s(I)'
_cod_data_source_file            ja9b11697_si_003.cif
_cod_data_source_block           (R3HQ)4RbCe(NO3)8-T380K
_cod_original_cell_volume        1221.49(11)
_cod_database_code               4133855
_shelx_shelxl_version_number     2014/7
_shelx_space_group_comment
;
The symmetry employed for this shelxl refinement is uniquely defined
by the following loop, which should always be used as a source of
symmetry information in preference to the above space-group names.
They are only intended as comments.
;
_shelx_res_file
;

    1.res created by SHELXL-2014/7


TITL 1 in I422
CELL 0.71073   7.0884   7.0884  24.3105  90.000  90.000  90.000
ZERR   1   0.0002   0.0002   0.0017   0.000   0.000   0.000
LATT -2
SYMM -X, -Y, Z
SYMM -Y, X, Z
SYMM Y, -X, Z
SYMM -X, Y, -Z
SYMM X, -Y, -Z
SYMM Y, X, -Z
SYMM -Y, -X, -Z
SFAC C H N O RB CE
UNIT 28 52 12 28 1 1

L.S. 24
BOND
acta
temp 107
FMAP 2
PLAN 20
omit  0 0 14
omit 1 1 2
omit 0 0 4
omit 2 2 2
twin
sump 0.5 0 1 2
exyz ce1 rb1
eadp ce1 rb1

WGHT    0.081000
BASF   0.47014
FVAR       0.30045   0.50000
CE1   6   -0.500000    0.500000   -0.500000    20.12500    0.04796    0.04796 =
         0.09187    0.00000    0.00000    0.00000
RB1   5   -0.500000    0.500000   -0.500000    20.12500    0.04796    0.04796 =
         0.09187    0.00000    0.00000    0.00000
N2    3   -0.914842    0.500000   -0.500000    10.50000    0.06029    0.15187 =
         0.17883   -0.05900    0.00000    0.00000
O1    4   -0.527145    0.656100   -0.398833    10.50000    0.21919    0.12987 =
         0.13901   -0.00415   -0.06402   -0.03460
N1    3   -0.500000    0.500000   -0.373825    10.25000    0.17954    0.17954 =
         0.08186    0.00000    0.00000    0.00000
O4    4   -0.472246    0.159138   -0.543919    10.25000    0.04588    0.07256 =
         0.11252   -0.02768   -0.00705    0.00598
O5    4   -0.155479    0.355476   -0.498116    10.25000    0.08077    0.09673 =
         0.12918    0.05042   -0.01738    0.01691
O2    4   -0.500000    0.500000   -0.325283    10.25000    0.33354    0.33354 =
         0.15808    0.00000    0.00000    0.00000
C2    1   -0.411067    0.650419   -0.123630    11.00000    0.18350    0.67678 =
         0.60265   -0.17806    0.16559   -0.19461
C4    1   -0.500000    0.500000   -0.200338    10.25000    0.72932    0.72932 =
         0.11768    0.00000    0.00000    0.00000
C1    1   -0.500000    0.500000   -0.089987    10.25000    0.23150    0.23150 =
         0.10041    0.00000    0.00000    0.00000
C3    1   -0.316965    0.420224   -0.172387    11.00000    0.13200    0.28053 =
         0.28254   -0.11750    0.00430    0.06059
HKLF 4

REM  1 in I422
REM R1 =  0.0506 for     749 Fo > 4sig(Fo)  and  0.0622 for all     913 data
REM     67 parameters refined using      1 restraints

END

WGHT      0.0784      0.0000

REM Highest difference peak  1.676,  deepest hole -0.336,  1-sigma level  0.113
Q1    1  -0.5000  0.5000 -0.4577  10.25000  0.05    1.68
Q2    1  -0.5000  0.5000 -0.3941  10.25000  0.05    0.41
Q3    1  -0.4994  0.6334 -0.3596  11.00000  0.05    0.38
Q4    1  -0.5000  0.5000 -0.2597  10.25000  0.05    0.29
Q5    1  -0.2428  0.4938 -0.2330  11.00000  0.05    0.28
Q6    1  -0.4045  0.5899 -0.1504  11.00000  0.05    0.26
Q7    1  -0.5000  0.5000 -0.0623  10.25000  0.05    0.23
Q8    1   0.0000  0.2428 -0.5000  10.50000  0.05    0.20
Q9    1  -0.0025  0.2391 -0.4624  11.00000  0.05    0.18
Q10   1  -0.6187  0.6187 -0.5000  10.50000  0.05    0.17
Q11   1  -0.4987  0.1165 -0.5408  11.00000  0.05    0.15
Q12   1  -0.3873  0.6077 -0.1033  11.00000  0.05    0.14
Q13   1  -0.5260  0.1374 -0.5678  11.00000  0.05    0.14
Q14   1  -0.4955  0.1392 -0.5780  11.00000  0.05    0.13
Q15   1  -0.6052  0.1360 -0.5371  11.00000  0.05    0.12
Q16   1  -0.3947  0.1395 -0.5368  11.00000  0.05    0.12
Q17   1  -0.4746  0.7729 -0.0792  11.00000  0.05    0.12
Q18   1  -0.4325  0.1136 -0.5416  11.00000  0.05    0.12
Q19   1  -0.2644  0.4951 -0.1517  11.00000  0.05    0.11
Q20   1  -0.5633  0.1126 -0.5430  11.00000  0.05    0.11
;
_shelx_res_checksum              26795
_shelx_hkl_file
;
   0   0   3    0.17    0.11
   0   0  -3    0.25    0.13
   0   0  -3    0.38    0.14
   0   0   4   37.05    1.77
   0   0  -4   35.51    1.79
   0   0  -4   35.24    1.76
   0   0  -5    1.46    0.31
   0   0   5    1.22    0.25
   0   0  -6 2314.79  103.81
   0   0  -6 2345.24  103.59
   0   0   6 2344.19  103.79
   0   0  -7   40.55    1.84
   0   0  -7   45.33    2.16
   0   0  -8  809.14   35.62
   0   0  -8  786.19   35.91
   0   0   8  794.84   35.90
   0   0  -9    1.21    0.49
   0   0  -9    0.67    0.23
   0   0   9    0.55    0.45
   0   0 -10  930.69   40.25
   0   0 -10  890.26   39.85
   0   0  10  902.74   40.23
   0   0 -11    0.51    0.55
   0   0 -11    0.60    0.27
   0   0  11    1.32    0.59
   0   0  12  421.37   18.57
   0   0 -12  401.70   18.07
   0   0 -12  409.80   18.54
   0   0 -13    0.33    0.62
   0   0 -13    0.41    0.28
   0   0  13    0.89    0.65
   0   0  14   39.54    2.40
   0   0 -14   37.33    1.84
   0   0 -14   40.64    2.42
   0   0 -15    0.35    0.32
   0   0  15    1.19    0.78
   0   0 -15    0.15    0.73
   0   0 -16   98.61    5.17
   0   0  16   97.76    5.20
   0   0 -16  100.01    4.57
   0   0  17    7.15    1.23
   0   0 -17    5.17    0.55
   0   0 -17    4.88    1.18
   0   0  18   69.84    4.12
   0   0 -18   74.97    4.08
   0   0  19    1.22    1.11
   0   0 -19    0.45    0.98
   0   0  20   50.07    3.32
   0   0 -20   49.74    3.16
   0   0  21    1.69    1.28
   0   0 -21    1.48    1.23
   0   0 -22   33.40    2.54
   0   0  22   31.34    2.68
   0   0  23   -0.13    1.43
   0   0 -23    0.43    1.18
   0   0  24    8.39    1.81
   0   0  25    2.42    1.59
   0   0  26    6.02    1.91
   0   0  27    0.15    1.78
   0   0  28    3.34    2.00
   0   0  29    1.80    2.02
   0   0  30    4.80    2.18
   0   0  31    1.68    2.04
  -1   0   0   40.43    1.72
   1   0   0   36.84    1.71
   0   1   0   33.33    1.72
   0  -1   0   31.92    1.72
   0   1   0   39.82    1.78
   0  -1   1  502.97   25.19
   0  -1   1  463.07   25.16
  -1   0  -1  552.14   25.20
   1   0  -1  582.03   25.19
   1   0  -1  651.88   25.18
   1   0   1  550.91   25.20
   0   1  -1  504.05   25.20
   1   0   1  694.30   25.17
   0   1  -1  495.01   25.16
  -1   0   1  671.91   25.18
  -1   0   1  569.02   25.19
   1   0  -2    0.50    0.17
   0  -1   2    0.16    0.12
   0  -1  -2    0.24    0.13
   1   0   2    0.19    0.15
  -1   0   2   -0.12    0.16
  -1   0   2    0.20    0.14
  -1   0  -2    0.18    0.17
   0   1  -2   -0.13    0.18
   1   0  -3 1369.97   58.97
  -1   0  -3 1300.73   58.97
   0  -1  -3 1331.42   58.94
  -1   0   3 1378.60   58.92
   1   0  -3 1361.19   58.92
   1   0   3 1305.19   58.97
   0  -1   3 1311.09   58.91
   0   1  -3 1256.60   58.95
  -1   0   4    0.03    0.18
   0  -1   4    0.30    0.19
   0  -1  -4    0.31    0.24
   1   0  -4    0.28    0.23
  -1   0  -4    0.15    0.23
   1   0   4    0.02    0.19
  -1   0   4    0.20    0.19
   1   0   5  183.89    8.57
  -1   0   5  193.22    8.47
  -1   0   5  186.59    8.54
   0  -1   5  186.60    8.53
  -1   0  -5  184.09    8.57
   1   0  -5  190.26    8.55
   0  -1  -5  184.76    8.55
   0  -1   6   -0.06    0.27
  -1   0  -6    0.28    0.31
   1   0   6    0.21    0.29
   1   0  -6   -0.03    0.30
   0  -1  -6    0.63    0.34
  -1   0   6    0.10    0.27
  -1   0   6    0.04    0.23
   0  -1  -7  645.92   28.58
  -1   0  -7  631.95   28.59
   1   0   7  621.24   28.58
   1   0  -7  632.56   28.54
   0  -1   7  634.66   28.54
  -1   0   7  631.24   28.54
  -1   0   7  653.87   28.41
   1   0   8    1.06    0.45
  -1   0  -8    0.27    0.42
  -1   0   8    0.64    0.40
   1   0  -8    0.38    0.42
  -1   0   8    0.53    0.32
   1   0  -8    0.58    0.30
   0  -1   8    0.71    0.43
   0  -1  -8    0.61    0.42
   0  -1  -9  385.73   17.50
  -1   0  -9  387.49   17.50
  -1   0   9  393.76   17.27
   0  -1   9  379.96   17.14
   1   0   9  379.64   17.52
   0  -1   9  382.67   17.47
   1   0  -9  383.90   17.23
   1   0  -9  387.45   17.44
  -1   0   9  394.97   17.48
  -1   0  10    3.04    0.67
   1   0 -10    5.36    0.75
   1   0 -10    5.53    0.55
   0  -1  10    2.53    0.36
  -1   0  10    5.71    0.57
   0  -1  10    4.46    0.76
   1   0  10    5.93    0.84
   0  -1 -10    4.50    0.81
  -1   0 -10    4.26    0.75
   0  -1 -11  153.15    6.99
   1   0 -11  148.70    6.90
  -1   0  11  151.64    6.67
  -1   0 -11  144.71    6.96
  -1   0  11  146.57    6.95
   1   0 -11  140.94    6.62
   0  -1  11  144.65    6.95
   0  -1  11  139.88    6.52
   1   0  11  151.50    7.05
   0  -1  12   -0.51    0.60
   1   0  12   -0.21    0.62
  -1   0 -12   -0.06    0.61
   1   0 -12   -0.16    0.34
  -1   0  12    0.40    0.39
   0  -1 -12    0.32    0.66
  -1   0  12    0.06    0.60
   1   0 -12   -0.27    0.58
   0  -1  12    0.03    0.26
  -1   0 -13   59.31    3.40
  -1   0  13   68.41    3.49
   1   0 -13   61.87    3.02
   0  -1  13   65.07    2.93
   1   0 -13   66.85    3.37
   0  -1  13   63.75    3.45
   1   0  13   59.59    3.49
   1   0  13   64.82    3.43
   0  -1 -13   57.15    2.99
   0  -1 -13   69.84    3.50
   0  -1 -14   -0.07    0.38
   1   0  14   -0.08    0.76
   1   0  14    0.14    0.68
   0  -1  14    0.48    0.34
  -1   0  14    0.82    0.81
   1   0 -14    0.61    0.68
   1   0 -14    0.22    0.40
   0  -1  14   -0.07    0.75
  -1   0 -14    0.79    0.76
   0  -1 -14    0.22    0.69
   0  -1 -15   72.26    3.88
   1   0 -15   70.74    3.37
   1   0 -15   67.59    3.73
  -1   0  15   74.84    3.92
   0  -1 -15   69.78    3.35
   0  -1  15   69.89    3.87
   1   0  15   66.31    3.82
  -1   0 -15   71.94    3.86
  -1   0 -16    0.48    0.83
   0  -1 -16    0.08    0.81
   1   0 -16   -0.13    0.45
   1   0 -16    0.90    0.81
   1   0 -16    1.11    0.86
   1   0  16    0.33    0.84
   0  -1  16   -0.09    0.89
   0  -1 -16    0.39    0.44
  -1   0  16    0.09    0.81
  -1   0 -17   81.19    4.44
   1   0 -17   76.10    4.40
   0  -1 -17   88.19    4.51
   1   0 -17   80.55    3.89
   0  -1 -17   77.89    3.86
   0  -1  17   86.55    4.53
  -1   0  17   90.41    4.58
   1   0 -17   83.46    4.35
   1   0  17   83.51    4.49
   0  -1 -18    0.45    0.93
   0  -1  18    0.29    0.99
  -1   0  18   -0.69    0.99
   1   0  18    0.47    0.97
   1   0 -18    0.11    0.52
   0  -1 -18    0.22    0.49
  -1   0 -18    1.33    0.96
   1   0 -18   -0.09    0.95
   1   0  19   26.98    2.21
  -1   0 -19   24.95    2.09
  -1   0  19   29.67    2.31
   1   0 -19   25.86    1.51
   0  -1 -19   26.58    1.48
   0  -1  19   25.68    2.22
   1   0 -19   27.81    2.18
   0  -1 -19   28.66    2.17
   1   0 -20    0.10    1.09
  -1   0  20   -0.11    1.10
   0  -1 -20   -0.20    1.04
   0  -1  20    0.54    1.27
  -1   0 -20    1.25    1.01
   1   0  20   -0.11    1.15
   0  -1 -20    0.21    0.48
   0  -1  21   14.19    1.82
   1   0  21   13.05    1.79
   1   0 -21   15.60    1.76
   0  -1 -21   16.65    1.75
   0  -1 -21   11.92    0.97
  -1   0  21   15.96    1.84
  -1   0 -21   17.79    1.76
   1   0 -22    0.96    1.28
   0  -1 -22    0.71    0.51
   0  -1  22   -1.23    1.42
   1   0  22   -0.35    1.28
   0  -1 -22   -0.21    1.20
  -1   0 -22    0.73    1.18
  -1   0  22    1.33    1.38
  -1   0  23   17.53    2.04
   0  -1  23   14.26    1.98
   1   0  23   15.14    1.97
  -1   0 -23   14.62    1.76
   1   0 -23   13.55    1.79
   0  -1 -23   14.70    0.91
   0  -1 -23   17.31    1.88
   0  -1  24    0.13    1.52
   1   0  24    3.21    1.58
  -1   0  24    3.28    1.64
   0  -1 -24    0.54    0.55
  -1   0  24    0.31    0.47
   1   0  25    4.52    1.64
   0  -1  25    3.16    1.76
   0  -1 -25    2.90    0.64
  -1   0  25    3.66    1.58
   1   0  26    1.25    1.66
   0  -1  26    0.75    1.75
  -1   0  26   -0.42    1.60
  -1   0  27    3.20    1.80
   0  -1  27    4.21    1.94
   0  -1  27    2.57    1.21
   1   0  27   -0.14    1.70
   0  -1  28   -2.09    1.95
   0  -1  28    0.47    1.20
   1   0  28   -0.15    1.82
  -1   0  28    0.60    1.78
  -1   0  29    2.81    1.97
   0  -1  29    4.00    2.10
   1   0  29    0.15    1.87
   0  -1  30    1.51    2.07
   1   0  30   -1.13    1.90
  -1   0  30    0.64    2.00
   0  -1  31   -1.02    2.13
   1   0  31   -0.97    2.03
  -1   0  31   -2.26    2.14
   1  -1  31   -1.65    2.17
   1  -1  30   -0.98    2.11
   1  -1  29   -0.16    1.90
  -1   1  29    1.28    0.71
   1  -1  28    3.48    1.87
  -1   1  28    1.47    0.99
  -1   1  27    0.97    0.94
   1  -1  27   -0.88    1.71
  -1   1  26    1.39    0.90
   1  -1  26    1.41    1.67
  -1   1  25    0.53    0.85
   1  -1  25   -0.14    1.61
  -1  -1 -24    5.02    0.54
  -1   1  24    3.87    0.95
   1  -1  24    6.37    1.71
  -1  -1 -23   -0.28    0.39
  -1  -1 -23    1.34    1.23
  -1   1  23    1.47    0.81
   1  -1  23    2.38    1.51
  -1  -1 -22   11.45    0.75
  -1  -1 -22   12.19    1.69
  -1   1  22    9.88    1.06
  -1  -1 -21   -0.72    1.11
   1  -1  21    2.07    1.36
  -1   1  21   -0.04    0.71
  -1  -1 -21    0.24    0.38
  -1  -1 -20   15.13    1.64
   1  -1  20   16.38    1.83
  -1  -1 -20   13.51    0.86
  -1  -1 -19    0.29    1.03
   1  -1  19   -0.41    1.09
  -1  -1 -19    0.26    0.40
   1  -1  18   24.82    1.99
  -1  -1 -18   21.28    1.91
  -1  -1 -18   21.83    1.20
  -1  -1 -17    0.61    0.90
  -1  -1 -17    0.57    0.40
  -1  -1 -16   46.03    2.82
   1  -1  16   44.39    2.81
   1  -1  15    0.16    0.80
  -1  -1 -15   -0.39    0.73
  -1  -1 -14   26.37    1.90
   1  -1  14   27.41    1.90
   1  -1  13    0.16    0.64
   1  -1  13    0.27    0.70
  -1  -1 -13   -0.14    0.68
  -1  -1 -12  123.12    5.57
  -1   1  12  104.59    5.13
   1  -1  12  115.37    5.61
   1  -1  11   -0.47    0.59
  -1  -1 -11    0.12    0.59
  -1   1  11    0.64    0.40
  -1   1  10  233.91   11.01
   1  -1  10  263.64   11.40
  -1  -1 -10  249.77   11.32
   1  -1   9   -0.11    0.49
  -1   1   9   -0.39    0.37
  -1  -1  -9    0.35    0.53
   1  -1   8  165.87    7.59
  -1   1   8  158.80    7.36
  -1  -1  -8  161.94    7.57
  -1   1   7    0.79    0.36
  -1  -1  -7    0.37    0.45
   1  -1   7    0.41    0.36
  -1  -1  -6  105.73    4.85
   1   1  -6   96.96    4.62
   1  -1   6  106.84    4.86
  -1   1   6  106.27    4.76
   1  -1   5    0.78    0.28
   1   1  -5    0.35    0.20
  -1  -1  -5    0.38    0.30
  -1  -1  -4  165.85    7.61
   1  -1   4  167.46    7.61
   1  -1   3    0.06    0.22
  -1  -1  -3    0.16    0.23
  -1  -1  -2    3.21    0.33
   1  -1   2    3.44    0.32
  -1   1   1    0.29    0.22
  -1  -1  -1   -0.03    0.18
   1  -1   1    0.08    0.18
   1  -1   0 3126.26  133.11
   1  -1   0 2924.69  133.03
   1  -1  -1    0.04    0.18
   1  -1  -1    0.22    0.28
   1  -1  -2    3.46    0.41
   1  -1  -2    3.74    0.39
  -1  -1   2    3.60    0.33
   1  -1  -3    0.08    0.27
   1  -1  -3    0.09    0.29
   1  -1  -3    0.23    0.23
   1  -1  -4  183.32    7.93
  -1  -1   4  166.56    7.90
   1  -1  -4  173.29    7.90
   1  -1  -5    0.18    0.27
  -1  -1   5    0.32    0.26
   1  -1  -5    0.49    0.28
   1  -1  -6  112.82    5.22
  -1  -1   6  109.15    5.20
  -1  -1   7    0.90    0.39
  -1  -1   7    1.07    0.33
   1  -1  -7    0.46    0.40
   1  -1  -8  170.22    7.65
   1  -1  -8  159.08    7.49
  -1  -1   8  162.36    7.46
  -1  -1   8  169.73    7.65
  -1  -1   9    0.14    0.45
  -1  -1   9   -0.15    0.30
   1  -1  -9    0.13    0.36
   1  -1  -9   -0.04    0.47
   1  -1 -10  257.62   11.50
  -1  -1  10  265.85   11.75
   1  -1 -10  267.06   11.72
  -1  -1  10  241.23   11.44
   1  -1 -11    0.17    0.41
  -1  -1  11    0.70    0.59
  -1  -1  11    0.23    0.37
   1  -1 -11    0.68    0.59
   1  -1 -12  125.49    5.25
   1  -1 -12  127.18    5.53
  -1  -1  12  125.05    5.61
  -1  -1  12  112.59    5.16
  -1  -1  13    0.28    0.68
  -1  -1  13   -0.41    0.39
   1  -1 -13   -0.47    0.61
  -1  -1  13   -0.15    0.27
   1  -1 -13   -0.30    0.42
   1  -1 -14   27.09    1.78
  -1  -1  14   22.96    1.25
   1  -1 -14   26.88    1.46
  -1  -1  14   25.37    1.40
  -1  -1  14   26.09    1.85
   1  -1 -15   -0.12    0.49
  -1  -1  15    0.36    0.46
  -1  -1  15    0.26    0.35
   1  -1 -15   -0.27    0.75
  -1  -1  15    0.25    0.78
  -1  -1  16   49.45    2.86
   1  -1 -16   48.02    2.69
   1  -1 -16   47.88    2.28
   1  -1 -16   44.91    2.74
  -1  -1  16   46.72    2.25
  -1  -1  17    1.82    0.61
  -1  -1  17    1.39    0.44
  -1  -1  17    1.79    1.07
   1  -1 -17    2.45    0.60
   1  -1 -17    1.75    1.04
  -1  -1  18   20.79    1.86
  -1  -1  18   22.67    1.29
   1  -1 -18   23.38    1.88
   1  -1 -18   22.29    1.27
   1  -1 -19    0.10    1.02
   1  -1 -19    0.82    0.57
  -1  -1  19    0.34    0.35
  -1  -1  19    0.63    1.12
   1  -1 -20   15.82    1.71
  -1  -1  20   17.71    1.91
   1  -1 -20   14.29    1.10
   1  -1 -21   -0.42    1.17
  -1  -1  21    1.64    1.39
   1  -1 -21    0.13    0.60
  -1  -1  22   15.28    1.92
   1  -1 -22   15.01    1.82
   1  -1 -22   10.98    0.98
   1  -1 -23   -0.80    1.32
  -1  -1  23    1.53    1.53
   1  -1 -23   -0.16    0.62
  -1  -1  24    4.48    1.67
   1  -1 -24    4.96    0.81
   1  -1 -25   -0.17    0.70
  -1  -1  25    1.38    1.61
   1  -1 -26    0.44    0.72
  -1  -1  26    3.88    1.73
  -1  -1  27    2.07    1.80
  -1  -1  28    2.00    1.86
  -1  -1  29   -0.48    1.87
  -1  -1  30    0.17    2.16
  -1  -1  31   -2.12    2.29
   2   0   0 2650.10  121.46
   0   2   0 2767.39  121.58
   2   0   0 2874.17  121.57
   0   2   0 2724.91  121.53
  -2   0   1    4.85    0.45
   0   2   1    0.42    0.40
   2   0  -1    4.86    0.48
   2   0   1    0.07    0.37
   0   2   1    0.69    0.37
   0  -2   1    4.18    0.60
   0   2  -1    5.85    0.61
   2   0   1    0.57    0.35
   0   2  -1    2.93    0.45
   2   0  -1    2.71    0.50
   0  -2   2  832.55   41.38
  -2   0   2  919.16   41.59
   0   2  -2  888.64   41.39
   0   2  -2  842.54   41.54
   2   0  -2  972.82   41.60
   2   0   2  907.47   41.62
   0   2   2 1196.95   41.69
   2   0  -2  904.93   41.53
   0   2   2 1084.93   41.67
  -2   0   2  963.23   41.54
   0  -2  -2 1078.07   41.42
   0   2   2  975.22   41.39
  -2   0  -2  886.85   41.59
   0   2  -2  828.60   41.60
   0   2  -3    2.15    0.51
  -2   0   3    1.99    0.45
   2   0  -3    2.22    0.49
   2   0  -3    2.21    0.37
  -2   0  -3   -0.16    0.36
  -2   0   3    4.23    0.44
   0   2   3    0.39    0.21
   2   0  -3    6.68    0.59
   0   2  -3    0.34    0.22
   2   0   3   -0.44    0.39
   0  -2  -3    0.27    0.24
   0  -2   3    0.21    0.22
   0   2  -4  310.55   14.57
   0  -2  -4  335.98   14.61
   0  -2   4  312.19   14.56
   0   2   4  338.98   14.58
  -2   0   4  321.65   14.64
   2   0   4  342.37   14.76
  -2   0   4  342.27   14.70
  -2   0  -4  337.50   14.55
   2   0  -4  335.24   14.64
  -2   0  -4  330.36   14.72
   0   2  -4  306.26   14.71
   2   0  -4  309.71   14.51
  -2   0  -5    0.27    0.38
   0  -2   5    0.62    0.49
   0  -2   5    0.67    0.32
  -2   0   5    0.70    0.40
   2   0   5    0.24    0.36
   0  -2  -5    0.29    0.33
   0   2  -5    0.71    0.44
   0  -2   5    0.16    0.35
   0   2   5    0.55    0.31
  -2   0   5    0.60    0.34
  -2   0   5    0.18    0.25
  -2   0  -5    0.52    0.26
   2   0  -5    0.39    0.38
   0   2  -5    0.36    0.31
  -2   0  -6  427.47   19.09
  -2   0   6  426.48   19.22
   0   2  -6  414.11   19.22
   0  -2   6  446.06   19.31
  -2   0   6  433.86   19.11
  -2   0  -6  426.87   19.34
   2   0   6  432.58   19.34
   0   2   6  405.04   19.21
   0  -2  -6  424.93   19.27
   0  -2   6  432.89   19.23
   2   0  -6  447.07   19.32
   2   0  -7    3.61    0.79
  -2   0   7    7.30    0.58
  -2   0  -7    7.51    0.88
   0   2   7   11.32    0.87
   0  -2  -7    9.43    0.92
  -2   0  -7    9.13    0.58
   0  -2   7   15.99    1.05
  -2   0   7   10.43    0.77
   0  -2   7    8.64    0.80
   2   0   7    4.83    0.74
   0   2  -7    8.38    0.83
   0   2   8  380.98   17.10
  -2   0  -8  381.56   17.20
   2   0   8  384.12   17.20
   2   0  -8  358.04   16.83
   2   0  -8  390.70   17.16
   0  -2   8  390.56   17.12
  -2   0  -8  394.94   16.85
   0  -2   8  389.38   17.09
  -2   0   8  382.94   17.04
   0  -2  -8  383.43   17.16
  -2   0   8  369.20   16.90
   0   2  -8  361.28   17.09
   2   0  -9    0.10    0.55
   0  -2   9   -0.09    0.51
   0  -2  -9    0.85    0.59
   0  -2   9   -0.07    0.53
  -2   0   9   -0.10    0.44
   0   2   9    0.41    0.52
  -2   0  -9    0.52    0.25
  -2   0   9    0.61    0.47
   0   2  -9    0.09    0.50
   2   0  -9    0.06    0.42
   2   0   9    0.65    0.52
  -2   0  -9    0.16    0.56
   0  -2 -10  307.08   13.87
   2   0 -10  320.94   13.90
   0   2 -10  286.30   13.79
  -2   0  10  296.06   13.83
  -2   0 -10  300.79   13.43
   0   2  10  294.00   13.81
   0  -2  10  305.75   13.84
   2   0 -10  305.05   13.64
   2   0  10  309.97   13.93
  -2   0 -10  297.31   13.89
   0  -2  10  296.04   13.70
  -2   0  10  303.55   13.68
  -2   0  11    0.87    0.62
   0  -2 -11    0.30    0.62
   2   0 -11    0.55    0.49
   2   0  11   -0.13    0.61
  -2   0  11    1.03    0.55
  -2   0 -11    0.06    0.65
   0  -2  11    0.51    0.58
   0   2  11    0.84    0.64
   0   2 -11    0.49    0.62
   0  -2  11    0.70    0.62
  -2   0 -11    0.53    0.23
   2   0 -11    0.50    0.60
   0  -2 -12  127.42    6.08
   2   0 -12  132.05    5.77
  -2   0  12  126.54    5.81
  -2   0  12  127.58    6.05
   0  -2  12  128.06    6.07
  -2   0 -12  125.58    6.09
   0   2 -12  120.10    5.98
   2   0 -12  132.35    6.05
   0  -2  12  120.42    5.83
  -2   0 -12  117.68    5.49
   2   0  12  125.02    6.12
   0   2  12  122.96    6.02
   0  -2  13    0.07    0.71
   0   2  13   -0.07    0.68
  -2   0  13   -0.04    0.54
  -2   0 -13   -0.79    0.71
   0   2 -13    0.19    0.67
   0  -2 -13   -0.28    0.68
  -2   0  13    0.07    0.69
   2   0 -13    0.58    0.51
   2   0  13   -0.61    0.72
   2   0 -13    0.32    0.71
   0  -2  13    0.33    0.61
   0  -2  14   73.42    4.01
   2   0 -14   75.28    3.65
   0  -2 -14   78.10    4.04
  -2   0 -14   74.79    4.03
  -2   0  14   73.96    3.69
   0  -2  14   71.19    3.73
   0   2 -14   69.69    3.91
   2   0  14   74.75    4.07
  -2   0  14   77.55    4.01
   0  -2  14   73.20    3.47
   0   2  14   73.64    3.98
   2   0 -14   77.18    3.97
   0  -2  15    0.13    0.69
   2   0  15    0.27    0.87
  -2   0  15    0.45    0.59
   2   0 -15    0.60    0.56
  -2   0 -15   -0.49    0.83
   2   0 -15    1.15    0.87
   0   2 -15    0.14    0.72
   0  -2 -15    0.39    0.85
  -2   0  15    0.08    0.78
   0  -2  15   -0.57    0.86
   0  -2  15    0.32    0.38
   0   2  15    0.78    0.84
   0  -2  16   69.65    3.69
   0  -2  16   58.96    2.94
   2   0 -16   64.96    3.16
  -2   0  16   67.59    3.64
   2   0 -16   64.08    3.53
   0   2  16   63.47    3.58
  -2   0  16   59.34    3.18
   0  -2  16   61.86    3.28
  -2   0 -16   59.98    3.58
   2   0  16   66.74    3.73
   0   2 -16   61.28    3.49
   0  -2 -16   67.33    3.62
   0   2 -17    2.30    1.01
   0  -2  17    1.49    1.10
   0  -2 -17    2.09    1.01
   2   0 -17    1.34    0.69
  -2   0  17    4.49    1.13
  -2   0 -17    2.16    1.02
   0  -2 -17    1.37    0.63
   0  -2  17    3.19    0.92
   2   0  17    2.35    1.19
   0  -2  17    2.50    0.49
   2   0 -17    1.80    1.01
   0   2  17    3.14    1.11
   0   2  18   30.50    2.32
  -2   0  18   32.25    2.34
   0  -2  18   30.87    1.59
   0  -2 -18   28.77    1.73
   0   2 -18   30.33    2.21
   2   0  18   29.46    2.41
   2   0 -18   33.32    2.26
   2   0 -18   29.94    1.81
  -2   0 -18   29.62    2.29
   0  -2  18   32.54    2.41
   0  -2  18   29.41    1.95
   0  -2 -18   35.63    2.38
   2   0 -19    0.78    0.64
   2   0  19   -0.29    1.08
   0  -2 -19   -0.10    1.03
   0  -2 -19    0.48    0.63
   0   2  19    1.01    1.07
  -2   0 -19   -1.08    1.02
   0  -2  19   -0.46    0.88
   2   0  19    0.11    1.23
   0  -2  19    0.70    0.45
  -2   0  19   -0.83    1.09
   0   2 -19    0.87    0.99
   0  -2  19    0.94    1.16
   2   0 -19    0.67    0.94
   0   2 -20   22.84    1.89
   2   0 -20   19.79    1.82
  -2   0  20   20.09    2.01
   0  -2  20   17.69    1.57
   0  -2 -20   20.02    1.34
   0   2  20   20.57    1.99
   2   0  20   20.35    1.94
   0  -2  20   17.29    1.98
  -2   0 -20   16.06    1.84
   0  -2 -20   23.49    1.99
   2   0  21    1.19    1.23
   0  -2 -21    0.64    0.69
   0  -2  21    0.36    1.01
   2   0 -21   -0.46    1.10
  -2   0  21    0.12    1.26
   0  -2  21    0.60    1.38
  -2   0 -21   -1.06    1.15
   0   2  21    0.34    1.31
   0  -2 -21   -0.32    1.20
   0   2 -21    0.38    1.06
   0  -2 -22   15.80    1.24
  -2   0  22   16.84    2.04
   2   0  22   13.87    1.87
   0   2 -22   20.50    1.88
   0   2  22   17.78    2.04
   0  -2  22   14.28    1.54
   2   0 -22   18.93    1.88
   0  -2  22   18.01    2.10
   0  -2 -22   18.67    2.01
   2   0 -22   19.10    1.98
  -2   0 -22   15.61    1.90
  -2   0  23    1.27    1.51
   0   2 -23    0.42    1.27
   0  -2  23    1.75    1.10
   0  -2  23   -0.39    1.49
   0   2  23    2.10    1.54
   0  -2 -23    0.11    1.35
   0  -2 -23   -0.28    0.70
   2   0  23   -0.12    1.34
   0  -2  24    6.62    1.89
   2   0  24    8.48    1.84
   0   2  24    8.13    1.90
   0  -2 -24    8.77    0.97
  -2   0  24   10.12    1.92
   0  -2  24    6.66    1.33
   0  -2  25    1.48    1.77
  -2   0  25    0.84    1.58
   0   2  25    1.85    1.71
   0  -2  25   -0.05    1.13
   2   0  25    1.06    1.59
   0  -2 -25    0.44    0.72
   0  -2 -26    2.71    0.77
   0  -2  26    0.92    1.83
   0  -2  26    1.66    1.21
   0   2  26    1.78    1.85
   2   0  26    1.94    1.78
  -2   0  26    2.76    1.79
   0   2  27   -1.23    1.82
   0  -2  27   -0.39    1.22
   2   0  27   -1.29    1.75
  -2   0  27    1.63    1.71
   0  -2 -27    0.63    0.74
   0  -2  27    0.64    1.95
   0   2  28    1.71    2.01
  -2   0  28    1.70    1.86
   2   0  28    1.49    1.89
   0  -2  28    1.18    1.20
   0  -2 -28    1.31    0.76
   0  -2  28    3.55    2.14
   0   2  29   -1.29    1.99
  -2   0  29    1.92    1.85
   2   0  29    0.46    1.87
   0  -2  29   -0.67    2.01
   0   2  30    0.16    2.05
   0   2  30    1.52    1.40
  -2   0  30    1.63    2.01
   0  -2  30    2.21    2.28
   2   0  30    2.04    2.03
   0   2  31    0.17    2.13
   0  -2  31    1.90    2.26
   1  -2  31    0.53    2.30
  -1   2  31   -0.69    2.26
   1  -2  30    0.66    1.99
  -1   2  30    1.17    2.21
   2  -1  30    0.96    2.06
   2  -1  29    2.48    2.01
  -1   2  29   -0.95    1.29
  -1   2  29   -1.30    1.99
   1  -2  29    2.79    2.13
   2  -1  28    0.76    1.90
  -1   2  28    1.62    1.29
   1  -2  28   -0.55    1.60
  -1   2  28   -1.05    1.85
  -1  -2 -28    0.97    0.62
   1  -2  28    2.49    1.94
   1  -2  27    4.06    1.91
   1  -2  27    2.41    1.50
  -1   2  27    4.04    1.90
  -1  -2 -27    1.34    0.67
  -1   2  27    2.74    1.29
   2  -1  27    0.87    1.82
  -1   2  26    0.56    1.67
  -1  -2 -26   -0.34    0.62
   2  -1  26   -0.14    1.66
   1  -2  26   -1.17    1.73
  -1   2  26   -1.06    1.13
  -1  -2 -25    3.21    0.73
  -1   2  25    4.52    1.71
   1  -2  25    1.82    1.68
   2  -1  25    4.18    1.75
  -1   2  25    3.35    1.18
  -1   2  24    1.02    1.49
   1  -2  24   -0.94    1.55
  -1  -2 -24   -0.42    0.64
   2  -1  24    0.77    1.46
  -1   2  24    0.17    1.08
   1  -2  23    9.26    1.85
  -1  -2 -23    8.84    0.89
   1   2 -23    9.27    1.57
  -1   2  23    4.67    1.20
  -1   2  23    8.32    1.73
   2  -1  23    8.99    1.71
  -1  -2 -22    0.88    1.23
   1   2 -22   -0.21    1.25
  -1  -2 -22    0.03    0.62
   2  -1  22   -0.12    1.30
  -1   2  22    0.17    1.01
  -2  -1 -22    0.34    1.24
   1  -2  22   -0.62    1.40
  -1   2  22    0.23    1.31
  -1   2  21   10.83    1.63
   1   2 -21    7.05    1.39
  -2  -1 -21    5.83    0.45
   2  -1  21    9.12    1.53
  -1  -2 -21    8.52    0.83
   1  -2  21    7.84    1.60
  -2  -1 -21    8.56    1.52
  -1  -2 -21    7.43    1.46
  -1   2  21    6.36    1.12
   1   2 -20    0.86    1.10
  -1  -2 -20    0.31    1.12
   2  -1  20    0.52    1.14
   1  -2  20    1.13    1.29
  -2  -1 -20    0.52    1.06
  -1   2  20   -0.63    1.19
  -2  -1 -20    0.39    0.34
  -1   2  20    0.54    0.87
   2  -1  19   16.90    1.90
   1   2 -19   15.15    1.62
  -2  -1 -19   13.66    0.86
  -2  -1 -19   17.14    1.72
  -1   2  19   16.33    1.75
   1  -2  19   17.94    1.88
   2  -1  19   18.96    1.77
  -1  -2 -19   17.00    1.75
  -1   2  19   15.77    1.37
  -1  -2 -18   -0.74    1.01
  -1   2  18    0.09    1.02
  -1   2  18   -1.13    0.81
   1   2 -18   -0.35    0.94
   2  -1  18    0.11    1.16
  -2  -1 -18    0.10    0.97
   1  -2  18   -0.50    1.10
   2  -1  17   66.27    3.93
   1   2 -17   66.77    3.73
  -1   2  17   57.37    3.38
  -2  -1 -17   66.68    3.80
  -1  -2 -17   71.93    3.83
   1  -2  17   71.36    3.88
  -1   2  17   64.22    3.74
  -1   2  16    0.98    0.86
   1  -2  16    1.40    0.99
  -1  -2 -16    0.42    0.91
  -1   2  16    1.28    0.75
   1   2 -16   -0.70    0.83
   2  -1  16    0.98    0.99
  -2  -1 -16   -0.44    0.90
  -1   2  15   61.70    3.27
  -1  -2 -15   66.48    3.61
  -1   2  15   60.57    3.50
   1  -2  15   64.49    3.58
  -2  -1 -15   64.44    3.63
   2  -1  15   65.38    3.68
   1   2 -15   60.59    3.47
   1   2 -15   62.37    3.42
  -1   2  14    0.55    0.64
   1  -2  14   -0.15    0.77
   1  -2  14   -0.04    0.23
  -1  -2 -14    0.08    0.81
  -2  -1 -14   -0.39    0.78
   1   2 -14    0.06    0.67
  -1   2  14    1.27    0.79
   2  -1  14    1.78    0.89
   1  -2  13   91.16    4.65
  -2  -1 -13   91.54    4.69
  -1   2  13   90.70    4.59
   2  -1  13   88.81    4.68
   1   2 -13   87.86    4.49
  -1   2  13   83.99    4.38
  -1  -2 -13   96.16    4.68
   1  -2  12    0.13    0.68
  -2  -1 -12    0.68    0.70
   2  -1  12    0.36    0.72
  -1   2  12    0.06    0.62
  -1  -2 -12   -0.07    0.67
   1   2 -12    0.57    0.61
   1  -2  12    0.30    0.73
  -1   2  12    0.62    0.58
   2  -1  11  133.33    6.02
  -2  -1 -11  122.00    5.97
   1   2 -11  113.12    5.78
  -1   2  11  120.38    5.84
   1  -2  11  116.66    5.97
  -1  -2 -11  125.14    5.95
  -1   2  11  118.13    5.75
   1   2 -10    1.60    0.64
  -1  -2 -10    1.13    0.72
   1  -2  10    1.70    0.81
  -1   2  10    1.54    0.60
  -2  -1 -10    1.19    0.71
   2  -1  10    0.37    0.64
   1  -2   9  199.68    9.22
  -1  -2  -9  194.24    9.15
  -2   1   9  197.60    8.99
  -1   2   9  193.78    9.06
  -2  -1  -9  196.13    9.21
   2  -1   9  203.96    9.20
   1   2  -9  193.02    9.05
  -1   2   9  191.04    9.05
  -1   2   8    0.57    0.53
   1  -2   8    0.05    0.51
  -1  -2  -8   -0.23    0.51
   1   2  -8    0.34    0.46
  -2  -1  -8    0.40    0.51
   1   2  -8   -0.20    0.43
   2  -1   8    0.36    0.51
   2  -1   8    0.34    0.24
  -2   1   8    0.26    0.45
  -1   2   8    0.56    0.44
  -1  -2  -7  457.95   20.42
   2  -1   7  468.25   20.48
  -1   2   7  479.26   20.44
  -2   1   7  456.73   20.30
  -1   2   7  459.09   20.35
   1  -2   7  460.43   20.44
   1   2  -7  421.76   20.32
   1   2  -7  423.10   20.29
  -2  -1  -7  455.14   20.45
   2  -1   7  458.07   20.15
  -2  -1  -6    1.10    0.53
   1   2  -6    0.03    0.39
  -2   1   6    0.65    0.42
   2  -1   6   -0.02    0.26
  -1   2   6    0.32    0.34
   1  -2   6   -0.04    0.41
  -1  -2  -6    0.49    0.42
  -2   1   6    0.03    0.40
   2  -1   6   -0.04    0.39
   1   2  -6    0.26    0.38
  -1   2   6    0.38    0.52
  -2   1   5  415.48   17.54
   2  -1   5  391.53   17.61
   1  -2   5  403.48   17.55
  -2   1   5  412.95   17.56
  -1   2   5  381.38   17.47
  -1  -2  -5  386.45   17.52
  -2  -1  -5  387.69   17.60
   1   2  -5  344.05   17.48
   2  -1   5  397.87   17.40
   1   2  -5  385.75   17.49
   1  -2   4    0.05    0.31
  -2   1   4    1.25    0.40
   1   2  -4    1.76    0.40
  -2  -1  -4   -0.11    0.33
  -1   2   4    0.43    0.41
   1   2  -4    0.82    0.36
   2  -1   4    0.14    0.28
  -2   1   4    0.69    0.37
   2  -1   4    0.29    0.31
  -1  -2  -4    0.05    0.29
   1  -2   3   56.81    2.87
   2  -1   3   65.40    2.89
  -1   2   3   78.49    3.10
  -1   2   3   68.35    2.90
   1   2  -3   48.68    2.83
  -2   1   3   72.73    3.01
   2  -1   3   65.88    3.05
  -2  -1  -3   55.81    2.96
  -1  -2  -3   56.72    2.86
   1   2  -3   55.68    2.85
   1  -2   2    0.72    0.50
  -2  -1  -2    0.26    0.35
  -1   2   2    0.15    0.38
   1   2  -2    0.25    0.28
  -1   2   2    0.23    0.24
   1  -2   2    0.31    0.25
   1  -2   2    0.24    0.40
   2  -1   2    0.52    0.32
   2  -1   2    0.10    0.33
  -2   1   2    0.56    0.32
  -1  -2  -2    0.63    0.25
   1  -2   1  623.83   25.36
   1  -2   1  544.11   25.17
   1   2  -1  471.04   25.21
   2  -1   1  529.65   25.23
   1   2  -1  514.93   25.16
   2  -1   1  531.38   25.32
  -1   2   1  857.66   25.64
   1  -2   1  687.23   25.48
  -1   2   1  701.32   25.40
  -1   2   0   68.26    2.20
   2  -1   0   29.42    1.72
   2  -1   0   37.65    1.71
  -1   2   0   58.55    1.94
   1   2   0   18.05    1.52
   2  -1   0   21.78    1.69
   1   2   0   21.47    1.55
   1  -2   0   28.55    1.56
   1  -2   0   54.20    1.97
   1  -2   0   39.93    1.59
   1  -2   0   73.44    2.19
   1   2   1  524.20   26.04
   2  -1  -1  514.66   26.16
   1  -2  -1  575.52   26.03
   1  -2  -1  674.02   26.23
  -1   2  -1  650.02   26.24
   2  -1  -1  534.53   26.15
   2  -1  -1  585.28   26.15
  -1  -2   2   -0.03    0.21
   1  -2  -2    1.19    0.48
   1   2   2    0.38    0.25
   1  -2  -2    0.64    0.24
   1  -2  -2    0.03    0.40
  -1   2  -2    0.20    0.24
   2  -1  -2   -0.11    0.35
  -2  -1   2    0.06    0.28
   2  -1  -2    0.84    0.38
   2  -1  -2    0.18    0.35
  -1   2  -3   65.44    3.02
   2  -1  -3   63.91    3.11
  -1  -2   3   55.07    2.97
   2  -1  -3   66.20    3.12
   2  -1  -3   61.70    3.07
   1  -2  -3   74.24    3.04
   1  -2  -3   86.28    3.32
  -2   1  -3   56.97    2.98
  -2  -1   3   57.49    3.07
   1   2   3   57.45    3.00
   1  -2  -3   79.52    3.19
  -2  -1   4    0.53    0.34
  -1  -2   4    0.58    0.32
   1  -2  -4    0.14    0.30
  -2  -1   4    0.37    0.39
  -1   2  -4   -0.05    0.27
   2  -1  -4    1.29    0.47
   1   2   4   -0.11    0.29
   2  -1  -4   -0.13    0.38
   2  -1  -4   -0.09    0.38
   1  -2  -4   -0.04    0.44
   2  -1  -5  399.06   17.68
  -2  -1   5  400.16   17.73
   2  -1  -5  402.35   17.65
  -2  -1   5  412.31   17.69
   1   2   5  406.63   17.69
  -1  -2   5  378.97   17.61
   1  -2  -5  424.13   17.67
   2  -1  -5  374.32   17.65
   2  -1  -5  388.19   17.71
  -1   2  -5  401.85   17.65
  -1  -2   5  363.19   17.54
   1   2   6    0.67    0.45
  -1  -2   6    0.38    0.34
   1  -2  -6    0.32    0.37
  -1  -2   6   -0.12    0.34
   2  -1  -6    0.46    0.43
  -2  -1   6    0.15    0.41
  -2  -1   6    0.54    0.42
   2  -1  -6    0.19    0.45
  -1   2  -6    0.33    0.43
   1  -2  -7  479.18   20.54
   2  -1  -7  486.12   20.62
   1   2   7  480.52   20.60
  -1  -2   7  476.64   20.54
   2  -1  -7  472.14   20.46
  -2  -1   7  459.83   20.48
  -1  -2   7  402.60   20.35
  -1   2  -7  456.68   20.54
   2  -1  -8    1.16    0.44
  -1   2  -8    0.39    0.52
  -1  -2   8    0.56    0.48
   1   2   8    0.40    0.53
   2  -1  -8    0.27    0.51
  -2  -1   8    0.60    0.42
   1  -2  -8   -0.25    0.47
  -2  -1   9  191.47    9.19
   2  -1  -9  203.73    9.24
  -1   2  -9  191.67    9.34
   1   2   9  197.30    9.40
  -1  -2   9  214.77    9.38
   2  -1  -9  203.13    9.38
   1  -2  -9  210.68    9.35
  -1  -2  10    1.33    0.68
   1   2  10    3.06    0.74
  -2  -1  10    3.15    0.58
  -2  -1  10    3.44    0.78
   2  -1 -10    2.78    0.63
  -1   2 -10    1.11    0.71
   1  -2 -10    1.82    0.72
   2  -1 -10    2.67    0.81
  -1   2 -11  119.89    6.13
  -2  -1  11  121.33    5.92
   1   2  11  128.39    6.23
  -2  -1  11  129.03    6.17
   2  -1 -11  128.96    6.17
  -1  -2  11  121.40    6.13
   1  -2 -11  130.82    6.12
   2  -1 -11  133.23    5.98
   2  -1 -12    1.39    0.72
  -1  -2  12    0.22    0.49
   1   2  12    1.07    0.70
   2  -1 -12    0.53    0.55
  -1   2 -12    0.37    0.67
  -2  -1  12    0.32    0.62
  -1  -2  12    0.13    0.68
   1  -2 -12    1.14    0.70
   1   2  12    0.36    0.74
  -2  -1  12    0.57    0.52
   2  -1 -13   97.20    4.54
  -2  -1  13   96.55    4.82
   1  -2 -13   86.81    4.47
  -2  -1  13   87.80    4.49
  -1  -2  13   99.90    4.47
   1  -2 -13   97.15    4.76
  -1  -2  13  100.21    4.85
  -1   2 -13   88.38    4.76
   1   2  13   90.31    4.78
   2  -1 -13   97.25    4.80
  -1  -2  14    1.12    0.82
   2  -1 -14    0.41    0.79
   1  -2 -14   -0.32    0.74
   1   2  14    0.36    0.79
  -1  -2  14    0.15    0.49
  -2  -1  14   -0.38    0.55
  -1   2 -14    0.56    0.76
   2  -1 -14    1.25    0.60
  -2  -1  14    0.15    0.77
   1  -2 -14    0.72    0.58
   2  -1 -15   63.58    3.28
   1  -2 -15   71.95    3.65
   1  -2 -15   65.89    3.67
   2  -1 -15   70.12    3.66
  -2  -1  15   61.82    3.28
  -1   2 -15   64.85    3.61
   1   2  15   63.96    3.63
   1  -2 -15   63.59    3.28
  -1  -2  15   62.84    3.19
  -1  -2  15   70.76    3.72
  -2  -1  15   70.87    3.72
   2  -1 -16   -0.38    0.86
  -1   2 -16   -0.24    0.87
  -1  -2  16    0.21    0.54
   1   2  16    0.34    0.94
   2  -1 -16    0.04    0.63
   1  -2 -16   -0.26    0.92
  -1  -2  16    0.26    0.92
  -2  -1  16    0.28    0.62
   1  -2 -16    0.28    0.64
  -2  -1  16    0.52    0.90
   1   2  17   69.72    3.88
  -1  -2  17   65.40    3.85
   2  -1 -17   68.05    3.76
  -2  -1  17   68.62    3.41
  -2  -1  17   70.06    3.88
  -1   2 -17   63.75    3.73
   1  -2 -17   68.26    3.86
  -1  -2  17   61.23    3.25
   1  -2 -17   69.90    3.38
   2  -1 -17   64.76    3.36
   2  -1 -18   -0.16    0.97
   1   2  18    0.10    1.07
  -1  -2  18    0.20    1.03
  -1   2 -18    0.52    0.94
  -1  -2  18    0.50    0.56
   1  -2 -18   -0.10    1.01
   2  -1 -18   -0.08    0.65
   1  -2 -18    0.65    0.68
  -2  -1  18   -0.09    0.72
  -2  -1  18   -1.00    1.05
  -1  -2  19   18.01    1.21
   2  -1 -19   18.35    1.29
  -1  -2  19   18.31    1.86
  -1   2 -19   15.49    1.69
   1  -2 -19   17.91    1.30
   2  -1 -19   14.62    1.64
   1   2  19   17.73    1.89
  -2  -1  19   14.65    1.82
  -2  -1  19   17.78    1.34
   1  -2 -19   16.05    1.81
  -1  -2  20    0.22    1.21
   2  -1 -20    0.81    1.07
  -1  -2  20    0.36    0.64
  -1   2 -20    1.22    1.09
   1  -2 -20    0.52    1.19
   2  -1 -20    1.04    0.69
  -2  -1  20    0.11    1.15
   1   2  20    0.33    1.25
   1  -2 -20    0.82    0.75
  -2  -1  20   -0.40    0.76
   2  -1 -21    7.68    0.93
  -2  -1  21    9.51    1.63
   1  -2 -21    6.53    1.50
   2  -1 -21    8.10    1.42
   1   2  21    8.95    1.64
  -1  -2  21    7.78    0.92
  -2  -1  21    6.88    1.00
  -1  -2  21    9.03    1.62
   1  -2 -21    9.37    1.01
  -1   2 -21    7.80    1.37
  -1  -2  22    0.73    1.38
   1  -2 -22    0.04    0.78
   2  -1 -22   -0.10    1.15
   1   2  22    0.60    1.42
   2  -1 -22   -0.45    1.25
   2  -1 -22   -0.12    0.71
  -1  -2  22    0.36    0.70
  -2  -1  22   -1.48    1.33
   1  -2 -22    1.59    1.36
  -1   2 -22    0.20    1.15
   1   2  23    6.70    1.72
  -1  -2  23   11.13    1.91
  -1   2 -23    7.89    1.53
  -2  -1  23    7.90    1.77
   2  -1 -23    6.07    0.95
   1  -2 -23    8.63    1.03
  -1  -2  24    0.93    1.57
   2  -1 -24   -0.71    0.80
   1  -2 -24   -0.69    0.79
  -2  -1  24   -0.41    1.50
   1   2  24   -0.26    1.56
  -1  -2  25    5.56    1.76
  -2  -1  25    5.16    1.76
   1  -2 -25    4.64    0.93
   2  -1 -25    2.74    0.92
   1   2  25    4.74    1.79
  -2  -1  26   -0.15    1.62
   2  -1 -26   -0.04    0.87
   1   2  26    0.14    1.68
   1  -2 -26    1.05    0.84
  -1  -2  26    0.58    1.75
   1   2  27    2.76    1.84
   1  -2 -27    0.99    0.85
  -1  -2  27   -0.90    1.85
  -2  -1  27    3.93    1.84
  -2  -1  28    0.16    1.81
  -1  -2  28   -0.16    1.89
   1  -2 -28    0.47    0.84
   1   2  28   -0.75    1.87
  -2  -1  29    0.96    1.88
  -1  -2  29    6.09    2.28
   1   2  29    2.85    2.08
   1   2  30   -0.64    1.95
  -2  -1  30   -0.33    1.94
  -1  -2  30   -2.27    2.28
  -1  -2  31   -0.18    2.24
   1   2  31    2.41    2.21
   2  -2  30    0.66    2.06
  -2   2  30   -1.44    1.88
  -2   2  29    1.09    1.93
   2  -2  29   -0.80    1.98
  -2   2  28    1.50    1.80
   2  -2  28    2.17    2.05
  -2  -2 -27    0.47    0.46
   2  -2  27   -0.30    1.86
  -2   2  27   -0.87    1.69
  -2   2  26    5.55    1.85
  -2  -2 -26    2.47    0.60
   2  -2  26    3.93    1.93
   2  -2  25    1.26    1.75
  -2   2  25   -0.13    1.62
  -2  -2 -25    0.85    0.60
  -2   2  24    6.66    1.22
  -2  -2 -24    7.95    0.81
  -2   2  24   10.39    1.86
   2  -2  24    5.91    1.82
  -2   2  23   -0.37    1.44
   2  -2  23   -1.02    1.50
  -2  -2 -23    0.36    0.61
  -2   2  23   -0.49    1.02
  -2   2  22    9.28    1.28
   2  -2  22   10.75    1.80
  -2   2  22   10.47    1.74
   2   2 -22    8.35    1.64
  -2  -2 -22    9.60    1.64
  -2   2  21   -0.11    1.16
   2   2 -21   -0.36    1.13
  -2   2  21    0.98    0.96
   2  -2  21    0.92    1.35
   2   2 -21    1.14    1.27
  -2  -2 -21    0.33    1.21
   2   2 -20   11.00    1.48
  -2   2  20   11.07    1.32
  -2  -2 -20   12.00    1.64
  -2   2  20   11.70    1.62
   2  -2  20   13.17    1.74
   2  -2  19    0.83    1.16
  -2   2  19    0.05    0.90
  -2  -2 -19   -1.12    1.18
  -2   2  19    0.59    1.06
   2   2 -19   -0.49    1.02
   2  -2  18   27.61    2.40
  -2   2  18   29.35    2.19
  -2   2  18   25.41    1.85
  -2  -2 -18   26.16    2.16
   2   2 -18   24.77    2.01
   2  -2  18   31.34    2.31
  -2  -2 -17    0.75    1.03
  -2   2  17    3.82    1.01
   2  -2  17    2.27    1.25
   2   2 -17    1.14    0.93
  -2   2  17    1.73    1.01
   2   2 -16   60.64    3.36
  -2   2  16   56.06    3.36
  -2  -2 -16   57.56    3.47
  -2   2  16   56.35    3.16
   2  -2  16   63.43    3.66
   2   2 -15    1.06    0.89
  -2   2  15    0.78    0.81
   2  -2  15   -0.10    1.01
  -2  -2 -15   -0.08    0.89
  -2   2  15    1.05    0.82
  -2   2  14  107.22    5.35
  -2   2  14  109.13    5.50
  -2  -2 -14  110.42    5.61
   2  -2  14  111.62    5.71
   2   2 -14  107.48    5.47
   2  -2  13   -0.17    0.82
  -2  -2 -13   -0.07    0.88
   2  -2  13    0.34    0.23
   2   2 -13    0.69    0.79
  -2   2  13   -0.47    0.74
  -2   2  13    1.10    0.75
  -2   2  12  123.80    5.74
  -2   2  12  112.39    5.73
   2   2 -12  117.28    5.76
  -2   2  12  119.89    5.72
   2  -2  12  114.33    5.30
  -2  -2 -12  118.65    5.87
   2  -2  12  123.76    5.94
  -2   2  11    0.28    0.57
   2   2 -11   -0.11    0.67
   2  -2  11    0.12    0.35
   2   2 -11   -0.26    0.45
  -2   2  11    0.62    0.72
  -2  -2 -11   -0.07    0.67
   2  -2  11   -0.76    0.76
  -2   2  11    0.79    0.68
   2  -2  10  248.14   10.52
   2   2 -10  209.17   10.54
   2  -2  10  234.93   10.95
  -2   2  10  245.96   10.86
  -2   2  10  244.68   10.83
   2   2 -10  229.15   10.83
  -2  -2 -10  231.42   10.91
   2   2  -9    0.46    0.65
  -2   2   9    0.47    0.65
   2  -2   9    0.02    0.39
   2  -2   9    0.30    0.66
  -2   2   9    0.16    0.70
  -2  -2  -9    0.06    0.64
   2   2  -9    0.90    0.46
   2  -2   8  392.43   16.02
   2   2  -8  315.30   16.02
   2   2  -8  345.10   16.24
  -2   2   8  382.07   16.32
  -2   2   8  351.16   16.22
   2  -2   8  360.72   16.30
  -2  -2  -8  365.60   16.30
   2   2  -7    4.04    0.79
  -2   2   7    5.77    0.82
  -2  -2  -7    4.50    0.85
   2  -2   7    5.60    0.63
  -2   2   6  362.56   15.98
   2   2  -6  352.15   15.99
  -2  -2  -6  345.04   16.00
   2  -2   6  360.34   15.82
   2  -2   6  335.89   15.99
   2   2  -5    0.30    0.48
   2  -2   5    0.12    0.45
  -2  -2  -5    0.27    0.45
  -2   2   5   -0.04    0.42
  -2  -2  -4  383.02   16.87
   2  -2   4  394.59   16.90
   2   2  -4  348.31   16.64
  -2   2   4  417.95   16.88
  -2   2   3   -0.38    0.51
   2  -2   3   -0.11    0.48
   2   2  -2  842.39   38.27
  -2   2   2  894.38   38.27
   2  -2   2  921.70   38.42
   2  -2   2  797.87   38.24
   2  -2   1   -0.20    0.42
   2  -2   1   -0.64    0.65
   2   2  -1   -0.03    0.56
   2   2   0  372.89   17.94
   2  -2   0  384.49   17.95
   2  -2   0  440.33   18.07
   2   2   0  372.03   17.95
   2  -2   0  389.26   17.91
   2  -2  -1    4.54    0.78
   2  -2  -1    3.78    0.68
   2  -2  -1    0.31    0.44
   2   2   1   -0.04    0.45
   2  -2  -2  905.88   37.82
   2  -2  -2  871.75   37.67
   2  -2  -2  852.79   37.74
   2   2   2  795.72   37.68
   2  -2  -2  819.04   37.65
   2   2   3    0.18    0.51
  -2   2  -3   -0.28    0.52
   2  -2  -3    2.84    0.56
   2  -2  -3    2.22    0.62
   2  -2  -3    2.56    0.70
  -2   2  -4  409.08   18.31
   2  -2  -4  426.05   18.35
   2   2   4  416.02   18.34
   2  -2  -4  412.74   18.28
   2  -2  -4  427.90   18.42
  -2  -2   4  364.07   18.23
   2  -2  -5    0.60    0.46
  -2   2  -5    0.39    0.46
  -2  -2   5    0.27    0.39
   2  -2  -5    1.02    0.48
   2   2   5    0.49    0.45
   2  -2  -5    0.67    0.55
   2  -2  -5    0.91    0.65
  -2   2  -6  345.85   15.93
   2  -2  -6  351.71   15.90
  -2  -2   6  347.16   15.90
   2   2   6  357.31   15.96
   2  -2  -6  353.57   15.93
   2   2   7    4.86    0.80
  -2   2  -7    3.89    0.74
   2  -2  -7    2.98    0.78
   2  -2  -7    2.38    0.70
  -2  -2   7    4.23    0.71
   2   2   8  369.70   15.54
  -2   2  -8  355.80   15.50
   2  -2  -8  358.04   15.40
   2  -2  -8  372.39   15.49
  -2  -2   8  324.02   15.07
   2  -2  -9    0.95    0.67
   2   2   9    1.18    0.65
  -2   2  -9    0.32    0.60
  -2  -2   9    0.40    0.30
   2   2  10  235.13   10.41
   2  -2 -10  233.45   10.32
  -2  -2  10  254.81   10.23
   2  -2 -10  227.65   10.18
  -2   2 -10  235.74   10.38
   2  -2 -11    0.06    0.68
  -2  -2  11    0.06    0.61
   2   2  11    0.48    0.70
  -2  -2  11    0.85    0.63
   2  -2 -11   -0.04    0.58
  -2   2 -11    0.06    0.71
   2  -2 -12  124.10    5.80
  -2  -2  12  126.48    5.80
   2   2  12  123.52    6.08
  -2  -2  12  116.89    5.97
   2  -2 -12  114.20    5.95
  -2   2 -12  119.72    6.01
   2   2  13    0.81    0.85
   2  -2 -13    0.73    0.85
  -2   2 -13    0.07    0.75
   2  -2 -13    0.44    0.67
  -2  -2  13    0.74    0.60
  -2  -2  13    0.21    0.78
   2  -2 -14  112.26    5.35
  -2  -2  14  111.80    5.30
  -2   2 -14  107.49    5.59
   2  -2 -14  111.44    5.58
   2   2  14  108.94    5.72
  -2  -2  14  107.01    5.59
  -2  -2  15    0.24    0.85
   2  -2 -15    0.37    0.86
  -2  -2  15    1.19    0.68
   2   2  15    0.28    0.96
   2  -2 -15    0.68    0.72
  -2   2 -15    1.35    0.89
  -2   2 -16   61.25    3.55
   2  -2 -16   59.00    3.19
   2  -2 -16   61.29    3.50
  -2  -2  16   64.76    3.60
   2   2  16   63.80    3.72
  -2  -2  16   60.38    3.16
  -2   2 -17    0.70    1.01
  -2  -2  17    1.15    0.74
  -2  -2  17    0.74    1.05
   2  -2 -17    2.87    1.12
   2  -2 -17    1.30    0.78
   2   2  17    2.95    1.26
   2   2  18   25.83    2.21
   2   2  18   27.24    2.33
   2  -2 -18   28.69    2.19
  -2  -2  18   29.06    1.76
  -2   2 -18   29.83    2.23
  -2  -2  18   24.95    2.20
   2  -2 -18   27.52    1.78
   2  -2 -19   -0.44    1.08
   2   2  19    0.40    1.15
  -2  -2  19   -0.04    0.78
  -2   2 -19   -0.67    1.10
   2  -2 -19   -0.05    0.77
  -2  -2  19   -0.32    1.14
   2  -2 -20   12.66    1.57
  -2  -2  20   11.66    1.69
  -2  -2  20   12.83    1.21
   2  -2 -20   12.66    1.21
  -2   2 -20   11.63    1.55
   2   2  20   11.98    1.68
   2   2  21    0.67    1.35
   2  -2 -21    0.11    1.28
   2  -2 -21    1.05    1.19
  -2  -2  21    0.94    1.30
   2  -2 -21   -0.58    0.81
  -2   2 -21    0.62    1.18
  -2  -2  21    0.37    0.83
  -2   2 -22    9.26    1.51
  -2  -2  22   10.09    1.80
   2  -2 -22   10.39    1.16
   2   2  22   10.39    1.78
  -2  -2  22   10.50    1.19
   2  -2 -22    7.01    1.66
   2  -2 -23    0.14    0.87
  -2  -2  23    0.05    0.91
   2   2  23   -0.37    1.43
  -2  -2  23   -0.52    1.47
   2   2  24    8.24    1.92
  -2  -2  24    8.15    1.18
  -2  -2  24    7.03    1.92
   2  -2 -24    7.58    1.14
   2  -2 -25   -0.05    0.90
   2   2  25   -0.96    1.76
  -2  -2  25    1.12    1.60
  -2  -2  25    0.09    0.96
   2  -2 -26    1.58    0.95
  -2  -2  26    0.87    1.76
   2   2  26    5.39    1.93
   2  -2 -27   -1.09    0.96
   2   2  27    0.74    1.87
  -2  -2  27    0.61    1.80
   2  -2 -28    0.39    0.98
   2   2  28    0.61    1.86
  -2  -2  28    2.05    1.95
   2   2  29    2.64    1.98
  -2  -2  29   -0.32    1.97
  -2  -2  30    2.34    2.21
   2   2  30    1.93    2.05
   0   3   0   77.75    3.15
   3   0   0   56.50    2.88
   3   0   0   43.64    3.09
   3   0   0   33.16    3.06
   0   3   0   83.16    3.23
   3   0  -1 1096.16   45.51
   0   3   1 1134.84   45.49
   3   0  -1  975.86   45.34
   0   3  -1  950.80   45.40
   0   3  -1  894.70   45.47
   0   3   1 1067.28   45.54
   3   0   1 1063.06   45.57
   0   3   2    1.88    0.63
   0   3  -2    1.13    0.66
   0  -3   2   -0.11    0.54
   3   0   2    0.27    0.58
   0   3  -2    1.14    0.57
   0   3   2    1.39    0.62
  -3   0   2    0.11    0.46
   3   0  -2    0.93    0.52
   3   0  -2   -0.05    0.56
   0   3   3  443.38   16.53
   3   0  -3  372.61   16.21
   0  -3   3  308.30   16.24
   0  -3   3  322.11   16.04
   0   3  -3  335.35   16.31
   3   0  -3  380.05   16.31
   0   3   3  476.79   16.56
   0   3  -3  326.32   16.41
   0   3   3  362.61   16.05
  -3   0   3  359.25   16.29
   0  -3  -3  389.48   16.09
  -3   0  -3  345.25   16.22
  -3   0   3  378.78   16.40
   3   0   3  359.70   16.45
   3   0  -3  408.24   16.47
  -3   0  -3  347.05   16.38
   0   3  -3  362.98   16.06
   0   3   4    0.69    0.31
  -3   0  -4   -0.34    0.57
   3   0   4    0.23    0.62
   3   0  -4    3.32    0.66
  -3   0   4    2.27    0.66
   0   3   4    0.77    0.58
   0  -3   4    0.43    0.61
   0   3  -4    0.87    0.35
   0  -3  -4    0.75    0.36
   3   0  -4    3.42    0.76
   0  -3   4    0.05    0.31
  -3   0  -4    1.44    0.46
   3   0  -4    4.66    0.53
   0   3  -4    1.05    0.66
   0   3   4    0.62    0.62
  -3   0   4    3.52    0.58
  -3   0   5  439.55   18.95
  -3   0  -5  418.77   18.96
   0   3  -5  387.90   18.97
  -3   0   5  419.60   18.87
   0  -3   5  415.97   18.96
   3   0   5  435.68   19.03
   0  -3   5  383.78   18.82
   0   3  -5  403.73   18.72
  -3   0  -5  430.37   18.76
   0  -3  -5  416.66   18.76
   0  -3   5  402.45   18.72
   3   0  -5  398.54   18.68
   0   3   5  472.03   18.75
   3   0  -5  440.91   18.88
  -3   0   6    0.24    0.55
   3   0   6    1.09    0.63
   0  -3  -6    0.50    0.48
  -3   0  -6    0.52    0.60
   0   3  -6    0.90    0.48
   0  -3   6    0.34    0.43
  -3   0   6    1.37    0.56
   0  -3   6    0.92    0.75
  -3   0  -6    1.02    0.46
   0  -3   6    0.72    0.58
   0   3  -6    0.49    0.71
   0   3   6    0.85    0.45
   3   0  -6   -0.54    0.47
   0   3  -7  396.48   18.24
   0  -3   7  373.54   18.26
  -3   0  -7  413.04   18.44
   0  -3  -7  419.18   18.29
  -3   0   7  401.37   18.31
   0  -3   7  384.82   18.22
   3   0  -7  423.39   18.44
   0   3  -7  390.30   18.41
   0  -3   7  420.07   18.42
   3   0   7  430.19   18.50
  -3   0   7  406.59   18.39
  -3   0  -7  414.89   18.15
   0   3   7  406.64   18.22
  -3   0  -8    0.35    0.61
  -3   0   8   -0.28    0.56
   0  -3  -8    0.09    0.53
   0  -3   8    0.28    0.50
   3   0   8   -0.06    0.63
  -3   0   8    0.40    0.54
   0   3   8    0.19    0.47
  -3   0   8    0.14    0.42
   0  -3   8    0.51    0.61
   3   0  -8    0.95    0.65
   0  -3   8    0.51    0.68
  -3   0  -8    0.28    0.39
   0   3  -8    0.60    0.49
   0   3  -9   87.75    4.45
   3   0  -9  100.07    4.65
  -3   0  -9   94.34    4.25
  -3   0   9   86.63    4.26
   0   3   9   88.94    4.45
   0  -3   9   87.97    4.46
   0  -3  -9   95.51    4.52
  -3   0  -9   91.89    4.64
  -3   0   9   89.56    4.59
   3   0   9   93.20    4.65
  -3   0   9   89.58    4.46
   0  -3   9   89.00    4.54
   0   3 -10    1.49    0.68
  -3   0  10    2.53    0.74
  -3   0 -10    1.22    0.41
  -3   0  10    2.84    0.57
   0  -3  10    0.26    0.67
   3   0 -10    1.99    0.86
   3   0  10    0.07    0.71
   0  -3  10    2.40    0.82
  -3   0  10    1.86    0.69
   0  -3 -10    1.79    0.69
   0   3  10    0.10    0.64
  -3   0 -10    1.75    0.79
   3   0 -10    2.31    0.53
   3   0 -10    2.71    0.72
   3   0 -11   72.86    3.67
  -3   0 -11   80.06    3.69
   0   3 -11   78.53    4.03
   0   3  11   81.26    4.06
  -3   0 -11   84.92    4.23
   3   0 -11   79.85    4.15
   3   0  11   83.66    4.23
  -3   0  11   78.96    3.79
   0  -3  11   75.85    4.06
   0  -3 -11   80.90    4.10
  -3   0  11   79.24    3.98
   0  -3  11   83.24    4.10
   3   0 -11   85.32    3.98
   0   3 -12   -0.65    0.68
   3   0 -12    0.83    0.79
   0  -3  12    0.91    0.81
  -3   0 -12    0.42    0.33
  -3   0  12    0.25    0.65
   0   3  12    0.43    0.69
   3   0  12    0.08    0.72
  -3   0  12    0.22    0.47
   0  -3 -12    0.45    0.71
  -3   0 -12   -0.29    0.74
   0  -3  12    1.01    0.73
   3   0 -12    0.67    0.65
   3   0 -13   59.71    3.21
  -3   0 -13   51.93    2.54
  -3   0 -13   59.80    3.21
   0  -3  13   53.82    3.08
   0  -3 -13   57.79    3.12
   0  -3  13   58.44    3.05
   3   0 -13   55.03    2.88
   0   3  13   57.17    3.07
   3   0  13   50.63    3.15
  -3   0  13   55.85    2.92
  -3   0  13   49.02    2.68
   0   3 -13   52.96    3.03
   3   0  14    1.32    0.90
  -3   0  14    1.24    0.75
   3   0 -14    0.45    0.91
   3   0 -14    0.61    0.71
   0  -3 -14   -0.67    0.82
   0   3  14    0.14    0.82
   0  -3  14    1.43    0.91
   0   3 -14    0.27    0.77
  -3   0  14    0.39    0.59
  -3   0 -14    0.42    0.87
  -3   0 -14    0.15    0.31
   0  -3  14    0.59    0.90
   0   3 -15   46.39    2.75
  -3   0 -15   47.47    2.89
  -3   0  15   47.51    2.59
  -3   0 -15   41.64    2.09
   0  -3 -15   51.40    2.87
   3   0  15   43.14    2.88
   3   0 -15   47.86    2.53
  -3   0  15   42.62    2.37
   3   0 -15   47.08    2.82
   0  -3  15   52.15    2.75
   0   3  15   51.39    2.85
   0  -3  15   49.90    2.87
   0  -3  16    0.67    0.97
  -3   0  16    0.45    0.65
   3   0  16   -0.29    0.99
  -3   0 -16    0.19    0.96
   3   0 -16    0.33    1.00
   0   3 -16    0.15    0.91
   3   0 -16    0.56    0.79
   0  -3  16    0.53    1.03
   0  -3 -16   -0.34    0.97
  -3   0  16   -0.32    0.76
   0   3  16   -0.25    1.01
   0   3  17   58.18    3.47
   0  -3  17   57.47    3.26
   0  -3  17   57.57    3.52
   0  -3 -17   57.05    3.44
  -3   0  17   52.89    3.07
   3   0  17   53.09    3.47
  -3   0 -17   60.65    3.53
   0   3 -17   53.63    3.33
   3   0 -17   56.19    3.03
   0  -3  17   60.02    2.86
   3   0 -17   56.02    3.40
  -3   0  18    0.78    1.06
   0  -3  18    0.42    0.55
  -3   0 -18    1.01    1.07
   3   0 -18    1.17    0.78
   0  -3  18   -0.75    1.06
   0  -3 -18   -0.09    1.07
   0   3 -18   -0.25    1.02
  -3   0  18    0.33    0.85
   3   0 -18   -0.54    1.08
   0   3  18    0.20    1.12
   0  -3  18    1.29    1.24
   3   0  18    0.67    1.18
  -3   0  19   21.46    1.98
   3   0  19   27.36    2.28
   0   3 -19   19.36    1.88
  -3   0 -19   19.43    1.98
   0  -3  19   22.91    1.83
   0  -3  19   24.37    2.15
   3   0 -19   22.77    1.99
   0  -3  19   20.99    1.27
   0   3  19   18.08    2.00
   0  -3 -19   20.80    2.00
  -3   0  19   20.16    1.61
   3   0 -20    0.78    1.20
   0  -3 -20    1.13    1.20
  -3   0  20    0.97    1.14
   3   0  20   -0.25    1.21
  -3   0 -20    1.19    1.19
   0  -3  20    1.01    1.14
   0   3  20   -1.50    1.30
   0   3 -20    0.09    1.12
   0  -3  20   -0.59    1.39
   0  -3  20    0.40    0.54
   0   3  21   13.09    1.84
   0  -3 -21    8.99    1.13
  -3   0 -21    8.99    1.62
   0  -3  21   10.79    0.88
  -3   0  21    9.65    1.66
   0   3 -21   11.33    1.61
   0  -3 -21    9.98    1.64
   3   0 -21   13.31    1.73
   0  -3  21   15.47    2.00
   3   0  21   11.70    1.84
   0  -3  21   12.22    1.53
   0  -3 -22    0.05    0.86
   0  -3  22    2.46    1.30
   0  -3  22   -1.18    1.58
   0  -3 -22    0.45    1.43
  -3   0  22    0.24    1.29
   3   0  22    0.27    1.48
   0  -3  22    0.69    0.59
   0   3  22    0.88    1.52
   0   3 -22    1.33    1.33
   0  -3  23    9.91    2.06
   3   0  23   11.44    1.89
   0  -3  23    8.92    1.45
   0   3 -23    8.57    1.63
   0  -3 -23    8.57    1.16
   3   0  23    7.77    1.85
   0   3  23   12.82    2.09
  -3   0  23    7.86    1.77
   0  -3  24    2.01    1.85
   3   0  24    3.13    1.63
   0  -3  24    1.88    1.26
  -3   0  24   -0.13    1.47
   0   3  24    0.28    1.73
   0  -3 -24    1.32    0.97
   0  -3 -25    4.68    1.07
   0  -3  25    4.80    1.99
   3   0  25    4.28    1.65
   0   3  25    4.46    1.90
   0  -3  25    4.02    1.33
  -3   0  25    4.62    1.75
   0  -3  26    1.34    1.29
  -3   0  26    0.71    1.63
   3   0  26    1.22    1.66
   0  -3 -26    0.93    0.95
   0   3  26    0.88    1.95
   0  -3  26   -1.07    1.99
   0   3  27    3.65    2.03
   0  -3  27    0.94    1.98
   0   3  27    2.25    1.63
   3   0  27    3.35    1.78
   0  -3  27    0.55    1.23
  -3   0  27    1.91    1.83
   0  -3 -27    2.19    1.01
   0   3  28   -1.64    1.57
   0  -3 -28    0.23    1.00
  -3   0  28   -0.15    1.69
   0  -3  28    0.49    2.03
   3   0  28    0.44    1.80
   0   3  28   -2.18    2.06
   0  -3  29    1.83    2.09
   0   3  29    0.17    1.57
   3   0  29    1.23    1.88
   0   3  29    1.27    2.11
  -3   0  29   -0.63    1.81
   3   0  30    1.43    2.02
  -3   0  30    0.65    1.92
   0   3  30    1.31    2.15
   0   3  30    1.29    1.64
   0  -3  30    0.85    2.19
   0  -3  31    0.35    2.34
  -3   1  32    1.83    1.82
  -1   3  30    2.34    2.20
   1  -3  30   -0.90    2.41
  -1   3  29   -1.48    2.06
   3  -1  29    0.47    1.89
   1  -3  29   -0.17    2.27
  -1   3  29   -0.69    1.56
  -1   3  28    0.08    1.56
   1  -3  28    1.60    2.13
  -1   3  28    1.11    2.06
   3  -1  28    1.05    1.92
   3  -1  27    1.14    1.83
   1  -3  27    2.02    1.68
  -1   3  27   -0.91    1.93
  -1   3  27   -0.96    1.54
   1  -3  27   -1.58    2.03
  -1  -3 -27    0.32    0.95
  -1   3  26    3.95    1.94
  -1  -3 -26    2.08    0.95
   3  -1  26    2.19    1.67
  -1   3  26   -0.32    1.44
   1  -3  26    1.68    1.58
   1  -3  26    3.14    1.97
   1  -3  25    0.14    1.77
  -1   3  25    0.23    1.38
   1  -3  25    1.08    1.52
  -1  -3 -25   -0.76    0.93
   3  -1  25   -1.31    1.64
  -1   3  25   -1.12    1.73
   3  -1  24    8.24    1.80
   1  -3  24    6.52    1.63
  -1  -3 -24    6.38    1.05
   1  -3  24    7.50    1.97
  -1   3  24    4.08    1.44
  -1   3  24   10.37    1.94
   3  -1  23   -0.42    1.58
  -1   3  23   -0.45    1.24
  -1   3  23    0.24    1.47
   1  -3  23    1.46    1.63
   3  -1  23    1.46    1.49
   1  -3  23    0.08    1.40
  -1  -3 -23    0.08    0.82
   3  -1  22   11.13    1.88
   1  -3  22    9.00    1.67
   1  -3  22   12.59    2.02
   1   3 -22    8.70    1.56
  -1   3  22   10.10    1.73
  -1  -3 -22   12.68    1.77
  -1   3  22    7.38    1.55
  -1   3  21    0.38    1.16
   3  -1  21    1.18    1.40
  -1  -3 -21    0.22    1.29
   1   3 -21   -0.20    1.22
   1  -3  21    1.21    1.50
   1  -3  21   -0.79    1.31
  -1   3  21    0.22    1.33
  -1   3  20   10.41    1.58
  -1  -3 -20   10.60    1.61
  -1   3  20    8.96    1.44
   1   3 -20    9.42    1.54
   1  -3  20   11.16    1.59
   1  -3  20   12.58    1.79
   3  -1  20   15.17    1.88
  -3  -1 -20    9.13    0.63
  -3  -1 -20   11.05    1.64
   1  -3  19   -0.88    1.28
  -3   1  19    0.24    0.92
   1  -3  19    0.31    1.18
  -1   3  19    0.49    1.12
   1   3 -19   -0.82    1.11
  -3  -1 -19    0.46    0.44
   3  -1  19    0.48    1.27
  -1  -3 -19    0.60    1.11
  -3  -1 -19    0.96    1.13
  -1   3  19   -0.07    1.08
   1  -3  19    0.22    0.26
   1  -3  18   19.41    1.86
   1  -3  18   21.53    1.13
  -1   3  18   19.07    1.89
  -1  -3 -18   23.41    1.99
   3  -1  18   23.84    2.15
   1   3 -18   22.65    1.93
  -3   1  18   18.87    1.61
  -1   3  18   20.57    1.84
   1  -3  18   21.19    2.09
  -3  -1 -18   22.68    2.03
  -3  -1 -18   24.31    1.26
  -1   3  17    2.41    1.13
  -1   3  17    1.58    1.09
   1  -3  17    0.78    1.21
   1   3 -17    0.83    1.01
  -3   1  17    0.97    0.87
  -1  -3 -17    1.18    1.08
   1  -3  17    2.92    1.18
   3  -1  17    0.42    1.07
  -3  -1 -17    0.69    1.10
  -3   1  16   42.26    2.52
   1   3 -16   43.70    2.77
   3  -1  16   43.46    2.92
  -3  -1 -16   42.07    2.89
  -1  -3 -16   48.23    2.89
   1  -3  16   45.81    2.78
  -1   3  16   39.59    2.67
   1  -3  16   50.07    2.99
  -1   3  16   46.77    2.82
  -1  -3 -15    0.08    0.93
  -1   3  15    1.38    0.95
  -1   3  15    0.60    0.89
   1   3 -15    0.15    0.85
  -3  -1 -15    0.09    0.95
   1  -3  15    1.28    1.04
   3  -1  15    0.66    0.96
   1  -3  15    0.21    0.97
  -3   1  15    0.24    0.72
  -3  -1 -14   75.29    3.96
   1   3 -14   64.09    3.75
  -1   3  14   68.23    3.78
   1  -3  14   73.78    3.91
   3  -1  14   74.86    4.00
  -1  -3 -14   76.83    3.92
   1  -3  14   65.99    3.80
  -3   1  14   64.10    3.53
  -1   3  14   72.74    3.78
  -3   1  13    0.13    0.67
  -3  -1 -13    0.08    0.85
   1  -3  13   -0.58    0.85
   1   3 -13    0.28    0.71
   1  -3  13    0.33    0.89
  -1  -3 -13    0.29    0.82
  -1   3  13    1.32    0.85
   3  -1  13    0.34    0.85
  -1   3  13   -0.06    0.70
   1   3 -13    0.19    0.75
  -1  -3 -12   66.09    3.65
  -1   3  12   68.21    3.62
  -1   3  12   73.89    3.62
   1   3 -12   70.02    3.51
  -3   1  12   61.90    3.36
   3  -1  12   72.69    3.75
   1   3 -12   62.35    3.54
  -3  -1 -12   68.00    3.71
   1  -3  12   67.35    3.65
   1  -3  12   67.17    3.65
  -3   1  11   -0.45    0.59
  -3   1  11    1.56    0.68
  -1   3  11    0.68    0.77
  -3  -1 -11    1.03    0.80
   3  -1  11    0.52    0.70
  -1  -3 -11   -0.06    0.67
   1  -3  11    0.91    0.72
  -1   3  11    0.66    0.64
   1   3 -11    0.43    0.61
   1  -3  11    0.19    0.84
   1  -3  10  108.30    5.62
  -1   3  10  117.95    5.50
   1   3 -10  105.83    5.43
  -1   3  10  110.89    5.58
  -3   1  10  116.05    5.44
  -3  -1 -10  119.70    5.73
   1   3 -10  109.52    5.47
  -3   1  10  109.93    5.49
   1  -3  10  116.21    5.56
  -1  -3 -10  118.89    5.60
   3  -1  10  118.27    5.70
  -3  -1  -9    0.13    0.63
   1  -3   9   -0.12    0.76
   3  -1   9    0.93    0.69
  -3   1   9    0.10    0.60
   1   3  -9    0.56    0.51
   1   3  -9    0.32    0.65
  -1  -3  -9    0.62    0.62
  -3   1   9   -0.20    0.58
   1  -3   9    0.29    0.66
  -1   3   9   -0.54    0.69
  -1   3   9   -0.04    0.51
  -3   1   8  172.90    8.17
   3  -1   8  181.29    8.41
  -3  -1  -8  181.42    8.41
  -1   3   8  177.70    8.19
  -3   1   8  176.20    8.28
   1   3  -8  169.63    8.17
   1  -3   8  170.42    8.31
  -1   3   8  184.35    8.41
   1   3  -8  167.88    8.25
  -1  -3  -8  181.31    8.27
   1  -3   8  172.56    8.38
   3  -1   8  184.12    8.04
   1  -3   7    1.85    0.69
   3  -1   7    2.47    0.53
  -1  -3  -7    2.84    0.69
   1   3  -7    2.73    0.75
   1  -3   7    3.07    0.87
  -3  -1  -7    2.28    0.78
   1   3  -7    2.69    0.58
   1  -3   7    4.46    1.01
  -1   3   7    4.61    0.63
  -1   3   7    7.12    1.03
  -3   1   7    4.59    0.80
  -3   1   7    3.73    0.68
   3  -1   7    2.36    0.74
   3  -1   6  205.48    9.50
  -1  -3  -6  221.01    9.63
   3  -1   6  216.00    9.83
   1  -3   6  208.80    9.78
  -3   1   6  214.65    9.72
   1   3  -6  200.14    9.71
   1  -3   6  200.99    9.64
   1  -3   6  195.03    9.79
   1   3  -6  200.36    9.54
  -3   1   6  212.61    9.64
  -3  -1  -6  202.09    9.76
   3  -1   5    0.27    0.54
  -1  -3  -5    0.35    0.40
   3  -1   5    0.94    0.44
   1   3  -5    0.46    0.58
  -3  -1  -5    0.05    0.53
   3   1  -5    0.42    0.25
  -1   3   5    0.74    0.61
   1  -3   5   -0.17    0.44
   1   3  -5    0.30    0.37
  -3   1   5    0.66    0.57
  -1  -3  -4  342.51   15.08
   3  -1   4  321.15   15.10
   1   3  -4  288.13   15.03
   1  -3   4  321.73   15.10
  -1   3   4  421.29   15.13
   3  -1   4  350.81   15.40
   1   3  -4  286.50   15.23
  -3  -1  -4  328.16   15.30
  -3   1   4  341.70   15.27
  -1   3   4  454.72   15.49
   1   3  -4  320.66   15.17
   3  -1   3    0.60    0.45
  -1   3   3   -0.29    0.35
   1   3  -3    5.03    0.85
   1   3  -3    1.43    0.44
   1  -3   3    0.33    0.38
  -1   3   3    0.79    0.66
   3  -1   3    0.38    0.54
  -1  -3  -3    0.49    0.35
  -3   1   3    7.38    0.74
   1   3  -3    6.87    0.74
   1   3  -2  357.91   19.71
   3  -1   2  444.49   19.84
   3  -1   2  421.85   19.62
   1   3  -2  393.51   19.47
   1  -3   2  425.35   19.51
   1   3  -2  414.39   19.68
  -1   3   2  649.86   20.14
   1  -3   2  521.92   19.98
  -1   3   2  653.87   20.06
  -1   3   1    1.08    0.57
   1   3  -1    1.36    0.35
  -1   3   1    2.23    0.73
   1  -3   1    0.14    0.28
   3  -1   1    0.70    0.61
   1   3  -1    0.61    0.33
   1  -3   1   -0.49    0.32
   3  -1   1    1.00    0.50
   1   3  -1    3.34    0.61
   1  -3   1    2.10    0.73
   3  -1   0  390.26   17.51
   1  -3   0  453.48   17.22
   3  -1   0  367.37   17.55
  -1   3   0  492.33   17.62
   1   3   0  346.87   17.19
   1   3   0  318.05   17.19
   1  -3   0  390.57   17.17
   1  -3   0  532.49   17.75
   3  -1   0  347.51   17.35
  -1   3   0  540.29   17.85
   1   3   0  336.16   17.40
  -3  -1   1    3.52    0.66
   3  -1  -1    3.32    0.62
  -1   3  -1    1.21    0.66
   1  -3  -1    1.31    0.64
   3  -1  -1    0.96    0.65
   1   3   1    1.31    0.63
   1  -3  -1    0.31    0.28
  -1   3  -1    2.50    0.77
   1   3   1   -0.14    0.30
   1  -3  -1    2.44    0.76
   1  -3  -1    0.46    0.29
   3  -1  -1    3.73    0.74
   1   3   1   -0.08    0.36
   3  -1  -2  430.26   21.79
   1  -3  -2  662.05   22.13
   1   3   2  444.27   21.62
   1  -3  -2  557.20   21.64
  -3   1  -2  419.73   21.73
   3  -1  -2  437.19   21.78
  -1   3  -2  535.00   22.11
   3  -1  -2  460.00   21.87
  -3  -1   2  440.55   21.83
   1  -3  -2  612.14   21.99
   3  -1  -3    8.06    0.80
   1  -3  -3    1.43    0.69
  -1   3  -3   -0.44    0.39
  -1  -3   3    1.56    0.36
  -3  -1   3    8.62    0.83
   1  -3  -3    0.25    0.37
   3  -1  -3    5.09    0.81
   1   3   3    0.76    0.41
   3  -1  -3    9.85    0.76
  -3   1  -3    0.35    0.44
  -3  -1   3    7.09    0.81
   3  -1  -4  362.60   15.46
  -3   1  -4  335.78   15.25
  -3  -1   4  323.92   15.35
   1  -3  -4  405.43   15.25
   3  -1  -4  333.24   15.31
   3  -1  -4  348.55   15.36
  -3  -1   4  321.66   15.38
  -1  -3   4  305.45   15.23
   1   3   4  344.27   15.24
  -1   3  -4  367.71   15.22
  -1  -3   4  299.53   15.14
  -3   1  -5    1.17    0.45
   3  -1  -5    1.18    0.59
   1   3   5    0.50    0.46
   1  -3  -5    0.48    0.42
  -1  -3   5    0.18    0.46
  -3  -1   5    0.51    0.49
   3  -1  -5    0.47    0.49
  -3  -1   5    0.54    0.53
  -1   3  -5   -0.14    0.39
   3  -1  -6  217.49    9.82
  -1  -3   6  188.09    9.65
  -3   1  -6  210.54    9.65
   3  -1  -6  234.98    9.79
  -1   3  -6  217.65    9.73
  -3  -1   6  204.12    9.84
   1  -3  -6  236.08    9.75
   1   3   6  206.97    9.77
  -3  -1   6  208.33    9.80
   3  -1  -7    1.94    0.73
  -3  -1   7    3.85    0.73
   1  -3  -7    3.36    0.67
  -3   1  -7    3.49    0.50
   1   3   7    4.12    0.75
  -1  -3   7    2.06    0.56
  -3  -1   7    3.81    0.70
   3  -1  -7    2.58    0.72
  -1  -3   7    3.72    0.68
  -1   3  -7    2.26    0.62
   1  -3  -8  181.64    8.23
  -1  -3   8  163.03    8.11
   3  -1  -8  178.52    8.38
   3  -1  -8  174.25    8.19
  -1   3  -8  179.35    8.25
  -3   1  -8  178.09    8.04
  -3  -1   8  187.11    8.39
  -1  -3   8  179.44    8.22
  -3  -1   8  175.04    8.25
   1   3   8  184.54    8.34
  -1  -3   9    0.72    0.57
  -3  -1   9    0.40    0.59
   1   3   9    0.28    0.63
  -1   3  -9    0.43    0.60
  -3  -1   9    0.18    0.61
   1  -3  -9    0.04    0.58
   3  -1  -9    0.74    0.58
   1   3   9    0.34    0.60
   3  -1  -9    0.12    0.67
  -1  -3   9    0.40    0.50
  -1  -3  10  101.85    5.40
  -1   3 -10  111.07    5.60
  -1  -3  10  117.06    5.59
   1   3  10  114.41    5.61
  -3  -1  10  114.11    5.53
   3  -1 -10  120.27    5.43
  -3  -1  10  118.65    5.71
   1  -3 -10  118.07    5.58
   3  -1 -10  116.85    5.68
   3  -1 -10  121.94    5.56
   3  -1 -11    0.47    0.54
   3  -1 -11    0.92    0.68
  -3  -1  11    0.09    0.26
  -1  -3  11    0.66    0.58
  -3  -1  11    0.70    0.61
   1   3  11    0.53    0.72
  -1  -3  11   -0.41    0.66
  -1   3 -11    0.35    0.66
   1  -3 -11   -0.53    0.63
   3  -1 -11    0.26    0.73
   1   3  12   68.41    3.51
   1  -3 -12   69.42    3.46
   3  -1 -12   74.20    3.62
   1  -3 -12   69.52    3.54
  -1   3 -12   71.24    3.53
  -3  -1  12   64.66    3.31
   3  -1 -12   71.47    3.36
  -1  -3  12   77.19    3.58
   1  -3 -13   -0.07    0.79
  -3  -1  13    0.51    0.39
   1   3  13    0.28    0.82
   1  -3 -13    0.93    0.79
  -3  -1  13    0.74    0.69
   3  -1 -13    0.24    0.68
  -1   3 -13    0.54    0.73
  -1  -3  13    0.49    0.80
   3  -1 -13    0.53    0.89
   1   3  14   78.79    3.76
   3  -1 -14   67.99    3.67
  -1  -3  14   76.21    3.71
   1  -3 -14   77.31    3.78
  -1   3 -14   68.23    3.65
   3  -1 -14   72.75    3.47
  -3  -1  14   66.05    3.44
   1   3  15    0.49    0.94
   3  -1 -15   -0.14    0.71
  -3  -1  15    0.41    0.73
  -1  -3  15    0.55    0.89
   3  -1 -15    0.16    0.89
  -3  -1  15    0.37    0.47
   1  -3 -15    0.08    0.93
  -1   3 -15   -0.15    0.85
  -1   3 -16   43.85    2.86
   1   3  16   49.15    3.02
  -1  -3  16   49.71    2.94
   3  -1 -16   45.23    2.57
  -3  -1  16   44.49    2.62
   1  -3 -16   46.80    2.95
   3  -1 -16   43.98    2.90
  -1  -3  16   50.64    2.56
  -3  -1  17    0.92    0.87
  -1  -3  17    1.79    0.76
  -1  -3  17    2.62    1.13
   1  -3 -17    1.69    0.79
  -1   3 -17    1.18    1.02
   1  -3 -17    0.46    1.11
   3  -1 -17   -0.34    1.04
   3  -1 -17    1.97    0.82
   1   3  17    1.22    1.19
   1   3  18   23.34    2.08
  -1  -3  18   22.06    1.45
   1  -3 -18   20.05    1.54
  -1   3 -18   22.36    1.92
   3  -1 -18   22.25    1.97
   1  -3 -18   20.79    1.99
  -1  -3  18   22.83    1.99
  -3  -1  18   20.09    1.61
   3  -1 -18   22.49    1.56
  -3  -1  19   -0.56    0.90
   3  -1 -19    0.75    1.16
   3  -1 -19    0.92    0.81
   1  -3 -19   -0.71    1.17
   1   3  19   -0.11    1.30
  -1  -3  19   -0.29    0.68
  -1   3 -19   -0.28    1.04
  -1  -3  19    0.10    1.12
  -3  -1  19   -1.26    1.22
   1  -3 -19    0.43    0.78
  -3  -1  20    9.95    1.64
  -1  -3  20   12.26    1.67
   1  -3 -20   10.96    1.70
   3  -1 -20   10.86    1.57
  -1   3 -20    9.42    1.48
  -1  -3  20   10.50    1.04
   1  -3 -20   12.18    1.22
   3  -1 -20    9.65    1.14
   1   3  20   12.29    1.82
  -3  -1  20   12.82    1.35
   1  -3 -21   -0.25    0.89
   3  -1 -21    0.30    0.86
  -1  -3  21    0.57    1.34
   1  -3 -21   -0.11    1.25
  -3  -1  21    0.35    1.29
   1   3  21   -0.12    1.34
  -1   3 -21    0.60    1.16
   3  -1 -21    0.10    1.21
  -1  -3  21    0.72    0.74
  -3  -1  21    2.72    1.01
  -3  -1  22   11.92    1.83
   1   3  22   11.70    1.87
   1  -3 -22   11.58    1.26
  -1  -3  22   10.20    1.07
   1  -3 -22   10.63    1.74
  -3  -1  22   10.86    1.32
  -1   3 -22    8.79    1.56
   3  -1 -22    8.00    1.16
  -1  -3  22    7.98    1.76
  -1  -3  23   -0.51    1.54
   3  -1 -23    0.56    0.91
  -3  -1  23    0.64    1.38
   1   3  23    0.38    1.61
  -1  -3  23    0.29    0.80
   1  -3 -23   -0.10    0.95
  -3  -1  23    1.90    1.06
   1  -3 -24    6.98    1.18
   3  -1 -24    6.72    1.16
  -3  -1  24    6.25    1.82
  -1  -3  24    8.14    1.87
  -1  -3  24    7.23    1.03
   1   3  24    7.57    1.93
   1  -3 -25   -0.47    1.01
   3  -1 -25    0.05    0.99
  -1  -3  25    1.14    0.85
   1   3  25    2.21    1.78
  -3  -1  25    1.25    1.67
  -1  -3  25   -1.46    1.86
   1  -3 -26    4.21    1.13
   3  -1 -26    3.28    1.12
  -3  -1  26    1.73    1.75
  -1  -3  26    2.29    2.00
   1   3  26    2.58    1.94
   1  -3 -27    0.05    1.04
   1   3  27   -0.30    1.92
  -3  -1  27    1.80    1.74
  -1  -3  27    4.15    2.18
   1  -3 -28    1.36    1.05
  -3  -1  28   -0.62    1.86
  -1  -3  28    0.17    2.10
   1   3  28    0.61    1.96
   1   3  29    0.17    2.13
  -3  -1  29    1.12    1.88
  -1  -3  29   -0.51    2.12
  -1  -3  30    1.40    2.23
   1   3  30    1.54    2.18
  -3   2  32    1.05    2.05
  -3   2  31   -0.34    1.95
   2  -3  30   -0.17    2.28
  -2   3  30   -1.75    2.08
  -3   2  30    1.76    1.83
   2  -3  29    0.67    2.21
  -3   2  29   -1.71    1.82
  -2   3  29   -0.77    2.01
   3  -2  29   -0.81    2.07
  -2   3  28   -1.48    1.93
  -3   2  28    0.30    1.79
   2  -3  28   -2.10    2.14
  -3   2  28   -0.21    1.63
   3  -2  28    1.09    2.03
  -2   3  27    5.18    2.01
   2  -3  27    1.25    2.03
   3  -2  27    0.15    1.83
  -2   3  27    2.20    1.46
  -3   2  27    2.60    1.61
  -3   2  27    0.72    1.67
   2  -3  27    1.35    1.77
  -2   3  26   -0.63    1.44
  -3   2  26   -0.69    1.62
   2  -3  26    0.30    1.87
  -2   3  26    1.79    1.77
   2  -3  26   -0.10    1.66
   3  -2  26   -0.71    1.70
  -3   2  26    0.10    1.48
  -2  -3 -26    0.55    0.86
  -2   3  25    2.64    1.76
  -3   2  25    4.50    1.70
  -3  -2 -25    3.48    0.62
   2  -3  25    3.14    1.62
  -2   3  25    2.40    1.46
  -3   2  25    5.33    1.60
   2  -3  25    3.68    1.97
  -2  -3 -25    4.16    0.95
   3  -2  25    3.83    1.82
   2  -3  24    1.27    1.51
   2  -3  24   -0.14    1.83
   3  -2  24    0.79    1.63
  -3   2  24    0.36    1.38
  -2   3  24    3.28    1.64
  -3   2  24    1.52    1.54
  -2   3  24    1.51    1.40
  -2   3  23    8.66    1.76
   3  -2  23    5.42    1.70
   2  -3  23    7.31    1.91
  -2   3  23    3.43    1.49
  -3   2  23    6.49    1.54
   2  -3  23    5.87    1.61
  -3   2  23    3.99    1.54
  -3   2  22   -0.51    1.25
  -3   2  22    0.23    1.29
   3  -2  22    0.85    1.42
   2  -3  22   -0.64    1.50
   3  -2  22   -0.70    1.63
  -2   3  22    0.80    1.33
  -2   3  22   -1.03    1.27
  -2   3  21    8.35    1.56
  -3   2  21    7.85    1.41
   2  -3  21   10.25    1.83
  -2  -3 -21    7.20    1.59
  -2   3  21    7.01    1.45
   2   3 -21    7.18    1.56
   3  -2  21    6.49    1.70
  -2   3  20    0.67    1.18
   2   3 -20   -0.40    1.22
  -3   2  20    0.87    1.13
   2  -3  20   -0.34    1.39
  -2  -3 -20    0.11    1.22
  -3  -2 -20    1.47    1.32
   3  -2  20    1.17    1.47
  -2   3  20   -0.21    1.18
   3   2 -20   -0.48    1.20
   2   3 -19   13.77    1.55
  -2   3  19    9.05    1.47
   3   2 -19   14.31    1.71
  -2  -3 -19   13.14    1.70
   3  -2  19   12.98    1.85
   2  -3  19   11.69    1.69
  -3  -2 -19   11.35    1.67
  -2   3  19    9.58    1.56
   2   3 -19   11.70    1.61
  -3   2  19   12.63    1.53
  -2  -3 -18    1.47    1.18
   2  -3  18    1.03    1.27
  -2   3  18    0.73    1.10
   3   2 -18   -0.55    1.19
  -3  -2 -18    1.36    1.18
  -3   2  18    0.07    1.02
  -2   3  18    1.54    1.09
   3  -2  18   -0.47    1.26
   2   3 -18   -0.96    1.07
  -2   3  17   42.16    2.70
   2   3 -17   39.63    2.65
   2  -3  17   44.75    2.94
  -3   2  17   42.07    2.61
  -2   3  17   42.30    2.77
  -2  -3 -17   42.02    2.85
  -3  -2 -17   43.75    2.89
   3   2 -17   43.81    2.84
   3  -2  17   39.43    2.96
  -2   3  16    0.42    1.07
   2  -3  16    1.30    1.19
  -3   2  16    0.51    0.89
  -2   3  16   -0.08    0.88
  -3  -2 -16    0.96    1.10
   3   2 -16   -0.17    1.06
   2   3 -16   -0.29    0.94
   2  -3  16    0.25    0.44
   3  -2  16    0.83    1.17
   2  -3  16    1.39    1.18
  -2  -3 -16    0.27    1.05
  -2   3  16    1.59    1.10
   3  -2  15   56.64    3.40
  -2  -3 -15   50.97    3.22
   2   3 -15   53.90    3.12
   3   2 -15   56.01    3.25
  -3   2  15   48.70    3.00
  -2   3  15   54.17    3.14
   2  -3  15   56.23    3.45
  -2   3  15   54.57    3.24
  -2   3  15   51.25    3.14
  -3  -2 -15   56.35    3.31
   2  -3  15   55.96    2.64
  -2   3  14    0.57    1.00
   3   2 -14    0.31    0.99
   3  -2  14    0.64    1.03
  -2   3  14    0.34    0.83
   2  -3  14   -0.09    0.50
  -3  -2 -14    1.63    1.02
   2  -3  14    0.29    1.06
  -2   3  14    0.31    0.96
  -2  -3 -14    0.57    0.93
   2   3 -14    0.47    0.86
  -3   2  14    0.53    0.81
   2  -3  13   46.81    2.84
   2   3 -13   46.99    2.58
   3   2 -13   49.65    2.76
  -2   3  13   49.79    2.76
   3  -2  13   48.00    2.81
  -3   2  13   42.11    2.47
  -2   3  13   45.25    2.55
  -3  -2 -13   46.29    2.75
  -2  -3 -13   45.97    2.71
  -2   3  13   44.78    2.67
   3  -2  13   45.12    2.07
   3   2 -13   34.81    2.02
   3   2 -12   -0.60    0.86
   3  -2  12    0.09    0.38
   3  -2  12    1.71    0.86
   2   3 -12    0.78    0.78
  -2   3  12   -0.50    0.82
   2   3 -12    0.04    0.68
   3   2 -12    1.37    0.50
  -2   3  12    0.14    0.89
  -3  -2 -12    0.48    0.88
   2  -3  12   -0.25    0.89
  -2  -3 -12    0.79    0.86
  -3   2  12    0.22    0.73
   2  -3  11   74.00    3.83
  -2   3  11   70.67    3.73
   3   2 -11   73.38    3.78
   2   3 -11   62.71    3.45
   3  -2  11   70.72    3.27
  -3  -2 -11   74.32    3.85
  -2  -3 -11   69.48    3.73
   2   3 -11   69.53    3.63
  -3   2  11   71.01    3.69
  -2   3  11   78.77    3.84
   3  -2  11   73.60    3.81
  -3   2  11   71.60    3.63
   3   2 -11   59.96    3.28
   2   3 -10    1.72    0.75
   2  -3  10    1.16    0.86
   3   2 -10    0.19    0.82
  -3   2  10    0.75    0.76
  -2   3  10    0.96    0.84
  -3  -2 -10    0.35    0.76
  -2   3  10    1.82    0.98
   3  -2  10    0.43    0.78
  -2  -3 -10    1.66    0.78
   2   3 -10   -0.11    0.72
   3  -2  10    0.56    0.47
  -3   2  10    1.57    0.80
  -2  -3  -9  101.12    4.95
   2  -3   9  102.24    5.03
  -2   3   9   97.70    4.98
  -3  -2  -9   99.56    5.03
  -3   2   9  109.35    4.99
   2   3  -9   95.20    4.89
   3  -2   9  102.37    5.08
  -2   3   9  103.70    5.10
   2  -3   9   79.90    4.99
   3   2  -9  112.99    5.11
  -3   2   9   99.49    4.98
   2   3  -9   89.67    4.81
   3  -2   9  102.30    4.66
   2   3  -8   -0.22    0.64
  -2   3   8    0.32    0.57
   2  -3   8   -0.12    0.65
  -3   2   8    1.39    0.69
  -2  -3  -8    0.49    0.70
  -2   3   8    0.49    0.85
  -3  -2  -8    0.85    0.71
  -3   2   8    0.33    0.60
   2  -3   8    0.91    0.91
   3  -2   8    0.63    0.50
   3  -2   8    0.45    0.68
   3   2  -8    0.24    0.77
   2   3  -8    0.34    0.62
  -3   2   7  244.05   11.47
   2   3  -7  210.62   11.36
  -3  -2  -7  238.42   11.52
   3   2  -7  263.60   11.58
   2  -3   7  251.87   11.49
   3  -2   7  246.67   11.56
   2   3  -7  235.39   11.40
  -2   3   7  275.98   11.74
  -2   3   7  268.57   11.46
   3  -2   7  264.87   11.31
  -3   2   7  242.76   11.47
  -2  -3  -7  253.61   11.47
  -3   2   6    0.98    0.61
   3  -2   6    0.91    0.58
   2  -3   6   -0.56    0.64
   2   3  -6    0.80    0.64
  -2   3   6    0.52    0.58
  -3  -2  -6    0.64    0.69
  -2  -3  -6    1.25    0.64
   3   2  -6    1.40    0.79
  -2   3   6    0.14    0.87
   3  -2   6    0.35    0.69
  -3   2   6    0.41    0.73
  -3   2   5  411.88   17.85
   2   3  -5  349.88   17.59
  -3   2   5  410.75   17.88
  -2   3   5  422.59   17.74
  -2  -3  -5  372.54   17.71
   2   3  -5  391.09   17.73
   3  -2   5  389.77   17.88
   3  -2   5  406.61   17.69
  -3  -2  -5  372.82   17.83
   2  -3   5  385.11   17.75
   3  -2   4    0.28    0.64
   3  -2   4    0.54    0.59
  -3   2   4    0.66    0.65
   2  -3   4    0.30    0.82
  -2  -3  -4    0.99    0.57
   2   3  -4    0.47    0.59
   2  -3   4    0.08    0.51
  -3   2   4    1.85    0.72
   2   3  -4    2.30    0.60
  -3  -2  -4    0.20    0.65
  -2   3   4    0.45    0.55
   2  -3   3  209.83   10.64
   2  -3   3  242.84   10.66
   2  -3   3  211.46   10.40
   3  -2   3  220.04   10.58
   3   2  -3  250.27   10.68
   3  -2   3  219.96   10.42
   2   3  -3  210.54   10.36
   2  -3   2    0.65    0.73
   2  -3   2    2.18    0.84
   3  -2   2    0.05    0.62
   2   3  -2    0.89    0.60
   3  -2   2    0.96    0.57
   3   2  -2   -0.76    0.75
   2  -3   2    0.27    0.46
  -2   3   2    0.41    0.73
   2  -3   1  417.92   19.00
   3   2  -1  421.55   19.21
  -2   3   1  515.25   19.40
   3  -2   1  432.49   19.29
   2  -3   1  498.55   19.35
   3  -2   1  417.34   19.17
   3   2  -1  418.77   19.27
   2  -3   1  485.38   19.38
   2   3  -1  403.76   19.05
   3  -2   1  390.12   19.07
   2  -3   1  401.94   19.02
   2   3  -1  404.79   19.06
   3  -2   1  399.26   19.20
   3   2   0    8.76    1.40
   2  -3   0   21.13    1.15
   2  -3   0   12.78    1.10
   3  -2   0   29.58    1.60
   2   3   0    6.50    1.17
   2  -3   0   36.48    1.74
   3  -2   0    7.59    1.25
   3  -2   0   16.03    1.35
   2   3   0    4.90    1.08
   2  -3   0   41.36    1.86
   3  -2   0   24.30    1.32
   3   2   0    5.83    1.31
   3   2   1  421.65   19.33
   3   2   1  412.38   19.28
   2   3   1  408.40   19.14
   2   3   1  417.93   19.15
   3  -2  -1  384.30   19.25
   2  -3  -1  432.46   19.15
   3  -2  -1  389.44   19.18
   3  -2  -1  410.17   19.23
   2  -3  -1  423.39   19.10
   2  -3  -2    1.06    0.82
   3   2   2   -1.17    0.79
   3  -2  -2    1.28    0.73
   3  -2  -2    1.50    0.61
   2  -3  -2    1.20    0.68
   2   3   2   -0.64    0.52
   3  -2  -2   -0.49    0.67
   3   2   3  241.16   11.34
   3  -2  -3  239.31   11.28
   3  -2  -3  236.01   11.25
   3  -2  -3  236.53   11.22
   2   3   3  223.14   11.14
   3  -2  -3  224.38   11.30
  -2  -3   4    0.88    0.51
   2  -3  -4    2.03    0.78
   3   2   4   -0.06    0.68
   3  -2  -4    2.01    0.71
   2  -3  -4    0.91    0.48
  -3  -2   4    0.68    0.63
  -2   3  -4   -0.50    0.58
   2  -3  -4    0.68    0.70
   3  -2  -4    2.64    0.71
   3  -2  -4    2.57    0.85
   2   3   4    0.52    0.54
  -3   2  -4   -0.41    0.64
  -2   3  -5  417.66   17.85
  -3  -2   5  365.29   17.85
   2   3   5  398.05   17.86
   3  -2  -5  401.38   17.89
   3  -2  -5  403.35   17.90
   2  -3  -5  447.54   18.08
   2  -3  -5  416.75   17.81
   3  -2  -5  383.95   17.94
   3   2   5  405.36   18.00
  -2  -3   5  345.44   17.72
  -3   2  -5  395.88   17.96
   3  -2  -6    0.59    0.64
   2  -3  -6    1.45    0.80
   3   2   6    0.79    0.75
   3  -2  -6    0.42    0.65
  -2   3  -6    0.38    0.57
   2  -3  -6    0.47    0.54
  -3   2  -6    0.11    0.67
  -2  -3   6    0.21    0.50
  -3  -2   6    0.78    0.58
   2   3   6    1.13    0.65
   3  -2  -6    1.76    0.77
   3  -2  -6    1.76    0.77
  -2   3  -7  258.43   11.38
  -3   2  -7  245.42   11.45
   2   3   7  251.48   11.40
   2  -3  -7  255.64   11.35
   3  -2  -7  232.64   11.37
   2  -3  -7  257.92   11.45
  -3  -2   7  229.42   11.35
  -3  -2   7  252.75   11.42
   3  -2  -7  229.90   11.34
   3  -2  -7  252.00   11.41
  -2  -3   7  238.73   11.29
   3   2   7  261.81   11.53
  -3   2  -8    0.24    0.65
  -3  -2   8    0.64    0.65
   3   2   8    0.39    0.74
  -3  -2   8    0.48    0.69
  -2  -3   8    0.23    0.55
   3  -2  -8    0.20    0.71
   2   3   8    1.50    0.72
   3  -2  -8    0.22    0.67
  -2   3  -8   -0.26    0.61
   2  -3  -8    0.59    0.66
   2  -3  -9  101.81    4.96
  -2  -3   9   90.86    4.64
  -2   3  -9   99.89    4.98
   3   2   9  105.97    5.14
  -3  -2   9  105.68    5.00
   2   3   9  102.83    5.05
  -3   2  -9  108.48    5.10
   3  -2  -9  111.62    5.10
  -3  -2   9   98.81    5.01
   3  -2  -9   98.64    4.90
   2  -3 -10    0.77    0.72
  -3  -2  10    1.68    0.80
  -2   3 -10    0.06    0.67
   3  -2 -10    0.85    0.78
   3   2  10    1.46    0.83
   3  -2 -10    1.10    0.75
  -2  -3  10    0.39    0.47
   2   3  10    0.27    0.79
  -3  -2  10    0.72    0.74
  -3   2 -10    0.40    0.77
  -3   2 -11   75.54    3.91
  -2   3 -11   78.01    3.84
   3  -2 -11   68.21    3.59
   2   3  11   78.94    3.92
   2  -3 -11   70.81    3.75
  -3  -2  11   75.06    3.87
   3  -2 -11   76.19    3.70
  -3  -2  11   69.94    3.66
   3   2  11   73.73    3.91
   2  -3 -11   65.33    3.59
   3  -2 -11   72.72    3.83
  -2  -3  11   66.68    3.38
   3  -2 -12    0.36    0.72
  -3  -2  12    0.72    0.84
  -3   2 -12    0.31    0.85
   3   2  12   -0.42    0.86
  -2   3 -12   -0.14    0.76
   2   3  12    0.72    0.89
   2  -3 -12    0.76    0.78
   3  -2 -12   -0.07    0.83
   2  -3 -12    0.71    0.67
  -3  -2  12    0.21    0.69
  -2  -3  12    0.74    0.52
   3   2  13   44.39    2.83
   2   3  13   46.40    2.84
  -2   3 -13   44.21    2.70
   3  -2 -13   48.14    2.77
  -3   2 -13   46.64    2.79
  -2  -3  13   36.63    2.21
   2  -3 -13   49.39    2.71
   2  -3 -13   45.09    2.50
   3  -2 -13   49.48    2.56
  -3  -2  13   46.22    2.53
  -2  -3  13   48.83    2.69
  -2   3 -14    0.53    0.94
   3   2  14    0.28    1.00
   2  -3 -14    1.00    0.77
  -2  -3  14    0.52    0.81
  -3   2 -14    0.90    0.97
  -3  -2  14    0.85    0.81
   2  -3 -14   -0.07    0.88
  -2  -3  14    0.49    0.55
   3  -2 -14    1.10    0.80
  -2  -3  14    0.95    0.86
   3  -2 -14    0.23    0.93
   2   3  14    1.94    1.09
  -3   2 -15   54.10    3.24
  -2  -3  15   58.68    3.00
   3   2  15   57.84    3.41
   2  -3 -15   54.90    3.15
  -2  -3  15   44.71    2.67
  -2   3 -15   53.12    3.19
   2   3  15   58.73    3.40
  -2  -3  15   53.62    3.16
   3  -2 -15   57.52    3.24
   2  -3 -15   55.04    2.95
   3  -2 -15   56.96    2.97
  -3  -2  15   55.64    2.98
   3  -2 -16    1.46    0.86
  -2  -3  16    0.92    0.88
   2  -3 -16    0.85    1.01
  -2  -3  16    1.84    1.04
  -3  -2  16    1.32    0.86
   3   2  16    0.62    1.17
  -3   2 -16    0.09    1.05
   2   3  16    0.27    1.13
   2  -3 -16    1.27    0.85
  -2   3 -16   -0.08    0.97
   3  -2 -16   -0.58    1.09
   2   3  16    0.62    1.16
   3  -2 -17   42.58    2.84
  -2  -3  17   41.50    2.83
  -3   2 -17   43.92    2.89
   2  -3 -17   43.73    2.80
   3   2  17   51.44    3.18
   3  -2 -17   44.21    2.54
  -2  -3  17   44.94    2.52
   2  -3 -17   44.81    2.56
  -3  -2  17   43.32    2.56
   2   3  17   40.34    2.90
  -2   3 -17   39.65    2.81
   2  -3 -18    0.38    0.87
   2   3  18   -0.10    1.16
  -3   2 -18    0.60    1.19
   2  -3 -18   -0.25    1.09
   3  -2 -18    0.16    0.85
  -2   3 -18    0.56    1.08
  -3  -2  18    0.46    0.93
   3  -2 -18    0.45    1.14
  -2  -3  18    0.48    1.09
   3   2  18    0.93    1.24
  -2  -3  18    0.40    0.84
  -3   2 -19   13.67    1.65
   2  -3 -19   16.34    1.70
   2  -3 -19   13.00    1.34
   3  -2 -19   13.63    1.70
  -2   3 -19   12.82    1.64
   2  -3 -19   13.82    1.71
  -2  -3  19   14.52    1.72
   3  -2 -19   12.57    1.32
   2   3  19   15.44    1.79
   3   2  19   14.59    1.92
  -2  -3  19   12.37    1.27
  -3  -2  19   12.82    1.36
   2  -3 -20    0.45    0.93
  -3  -2  20   -0.18    0.93
   3  -2 -20    1.04    0.89
   2   3  20   -0.44    1.36
  -2  -3  20    0.54    1.19
   3   2  20   -0.51    1.40
   3  -2 -20   -0.10    1.21
  -2  -3  20    1.00    0.90
   2  -3 -20   -0.11    1.25
  -3   2 -20   -0.43    1.22
  -2   3 -20   -0.40    1.19
  -3  -2  21    7.47    1.25
   2  -3 -21    9.50    1.20
   2   3  21    6.95    1.63
  -2  -3  21    7.09    1.10
   2  -3 -21    7.25    1.59
  -2   3 -21    7.80    1.47
   3   2  21    7.09    1.68
   3  -2 -21    7.73    1.16
  -2  -3  21    6.85    1.55
  -3  -2  22   -0.06    1.02
   3  -2 -22   -0.06    0.95
  -2  -3  22    1.42    0.96
   3   2  22    1.56    1.50
  -2  -3  22   -0.12    1.35
   3   2  22   -1.39    1.62
   2   3  22   -0.37    1.48
   2  -3 -22   -0.17    0.98
  -3  -2  23    5.96    1.28
  -2  -3  23    5.26    1.14
   2  -3 -23    4.75    1.14
   3  -2 -23    6.86    1.17
  -2  -3  23    8.70    1.81
   2   3  23    7.50    1.86
   3   2  23    6.01    1.69
   2   3  24    1.08    1.69
  -2  -3  24    0.93    1.59
   2  -3 -24    0.87    1.10
  -2  -3  24    0.81    1.03
   3  -2 -24    1.33    1.03
   3   2  24    0.78    1.61
  -3  -2  24    2.29    1.58
  -3  -2  24    0.94    1.17
   2  -3 -25    3.56    1.18
   3  -2 -25    3.05    1.12
  -3  -2  25    7.85    1.96
  -2  -3  25    3.04    1.82
   2   3  25    6.23    2.05
  -2  -3  25    3.08    1.15
   3   2  25    4.33    1.80
  -3  -2  25    4.34    1.24
  -3  -2  26    1.99    1.20
  -2  -3  26    3.03    1.88
   3  -2 -26   -0.89    1.03
   3   2  26    0.42    1.70
   2   3  26    2.19    1.90
  -3  -2  26   -0.44    1.72
   2  -3 -26   -0.11    1.07
  -2  -3  26    1.50    1.10
  -3  -2  27    3.18    1.81
   2  -3 -27    2.06    1.15
   2   3  27    3.30    1.99
   3  -2 -27    1.41    1.10
  -2  -3  27    1.79    1.91
   3   2  27    2.37    1.90
  -2  -3  28    0.62    1.92
   2   3  28    0.31    2.04
   3   2  28    0.46    1.90
   2  -3 -28    0.23    1.14
  -2  -3  29    1.29    2.09
   2   3  29   -0.96    2.10
   3   2  29    1.43    2.00
  -2  -3  30    0.33    2.06
   2   3  30    1.65    2.22
  -3   3  32   -0.52    2.15
  -3   3  31   -0.13    2.19
  -3   3  30    0.25    2.03
  -3   3  29    0.76    1.99
   3  -3  29   -1.35    2.31
  -3   3  28    0.25    1.89
   3  -3  28   -1.79    2.23
  -3   3  27    0.72    1.81
   3  -3  27    0.16    2.01
  -3   3  26    1.05    1.77
   3  -3  26    1.97    1.99
  -3   3  25   -0.11    1.65
   3  -3  25   -1.15    1.85
  -3   3  24    4.05    1.79
   3  -3  24    3.17    1.84
  -3   3  23    0.72    1.45
   3  -3  23    0.79    1.72
   3  -3  22    4.72    1.70
  -3   3  22    2.19    1.49
   3  -3  21    0.56    1.68
  -3   3  21    1.25    1.40
   3  -3  21    1.35    1.54
  -3  -3 -20    3.99    1.57
   3  -3  20    5.57    1.71
  -3   3  20    6.63    1.46
   3   3 -20    6.86    1.48
  -3   3  19    1.49    1.25
   3   3 -19    0.86    1.24
   3  -3  19    2.09    1.53
  -3  -3 -19   -0.33    1.33
  -3  -3 -18   16.77    1.86
   3  -3  18   20.10    2.11
  -3   3  18   14.10    1.69
   3   3 -18   15.19    1.76
  -3  -3 -17    0.91    1.16
   3   3 -17    1.25    1.22
   3  -3  17    0.83    1.29
  -3   3  17   -0.24    1.12
  -3  -3 -16   24.13    2.02
   3  -3  16   20.97    2.12
   3   3 -16   25.26    1.98
   3  -3  16   20.52    1.12
  -3   3  16   18.39    1.75
   3  -3  15    0.82    0.48
  -3  -3 -15   -0.09    1.04
   3   3 -15   -0.08    1.04
   3  -3  15   -0.52    1.15
  -3   3  15    0.07    0.95
   3   3 -14   27.06    2.13
  -3   3  14   27.76    2.05
   3  -3  14   30.21    2.30
   3   3 -14   23.64    1.67
   3  -3  14   33.10    1.61
  -3  -3 -14   33.23    2.33
   3  -3  13    0.09    0.96
   3  -3  13    0.80    0.60
  -3   3  13    0.72    0.85
  -3   3  13   -0.57    0.90
  -3  -3 -13   -0.80    0.99
   3   3 -13   -0.23    0.96
   3   3 -13    0.24    0.70
   3   3 -12   25.47    1.95
  -3   3  12   24.44    1.89
   3  -3  12   29.97    2.12
   3  -3  12   29.96    1.61
  -3  -3 -12   30.15    2.11
   3   3 -12   24.47    1.67
  -3   3  12   24.08    1.86
   3   3 -11    0.29    0.74
  -3   3  11    0.94    0.79
  -3  -3 -11    0.53    0.87
  -3   3  11    1.30    0.91
   3  -3  11    0.48    0.60
   3  -3  11    0.33    0.89
   3   3 -11    1.31    0.90
  -3   3  10   22.36    1.73
   3   3 -10   21.87    1.72
   3  -3  10   22.70    1.75
   3  -3  10   23.26    1.41
  -3  -3 -10   19.75    1.64
   3   3 -10   18.51    1.45
  -3   3  10   21.07    1.60
   3  -3   9   -0.35    0.80
   3   3  -9   -0.63    0.79
  -3  -3  -9   -0.13    0.77
   3  -3   9    0.19    0.66
  -3   3   9   -0.17    0.66
  -3   3   9    0.68    0.84
  -3   3   8   63.72    3.67
  -3   3   8   67.87    3.62
   3  -3   8   74.52    3.52
  -3  -3  -8   69.32    3.71
   3  -3   8   68.44    3.73
   3   3  -8   72.67    3.77
   3  -3   7    1.32    0.70
  -3  -3  -7    1.45    0.77
   3   3  -7    0.30    0.84
   3  -3   7    1.56    0.79
  -3   3   7    2.50    0.82
  -3   3   7    1.93    0.88
  -3  -3  -6  109.10    5.69
  -3   3   6  110.97    5.76
   3   3  -6  123.56    5.78
   3  -3   6  114.26    5.74
   3  -3   6  118.11    5.58
  -3   3   6  124.47    5.73
   3  -3   5   -0.11    0.67
   3  -3   5   -0.21    0.90
  -3   3   5   -0.16    0.70
  -3   3   5    1.28    0.86
   3   3  -5    0.49    0.45
  -3  -3  -5    0.16    0.65
   3   3  -5    0.34    0.75
   3  -3   5    0.62    0.62
   3  -3   4  127.49    6.15
   3  -3   4  144.04    6.43
   3   3  -4  122.33    5.86
   3  -3   4  126.00    6.03
   3  -3   3    0.84    0.95
   3  -3   3   -0.27    0.73
   3  -3   3    0.36    0.96
   3  -3   3    0.98    0.66
   3  -3   2  201.99    9.24
   3   3  -2  202.09    9.16
   3  -3   2  183.40    9.28
   3  -3   2  176.40    8.95
   3   3  -2  216.84    9.19
   3  -3   2  197.59    9.04
   3  -3   2  186.56    9.05
   3  -3   1    1.47    0.88
   3  -3   1    0.74    0.92
   3  -3   1   -1.07    0.73
   3  -3   1   -0.65    0.79
   3   3  -1   -0.46    0.85
   3  -3   1    1.37    0.66
   3   3  -1   -0.69    0.83
   3  -3   0  229.40    9.57
   3   3   0  197.09    9.38
   3  -3   0  186.35    9.32
   3  -3   0  209.27    9.57
   3  -3   0  199.17    9.29
   3  -3   0  188.39    9.26
   3   3   0  205.26    9.38
   3   3   1   -0.67    0.86
   3   3   1   -0.17    0.78
   3  -3  -1   -0.57    0.73
   3  -3  -1    0.77    0.64
   3  -3  -1    2.39    0.93
   3  -3  -1   -0.95    0.73
   3  -3  -1    2.52    0.91
   3  -3  -2  195.89    9.14
   3  -3  -2  207.22    9.32
   3  -3  -2  213.88    9.40
   3  -3  -2  186.93    9.13
   3   3   2  198.19    9.26
   3   3   2  186.55    9.17
   3  -3  -3    2.88    0.87
   3   3   3    0.63    0.83
   3  -3  -3    2.25    0.73
   3  -3  -3    4.12    1.00
   3  -3  -4  140.02    6.73
   3  -3  -4  131.25    6.62
   3  -3  -4  151.01    6.88
   3   3   4  139.10    6.72
   3  -3  -5    0.56    0.64
  -3   3  -5   -0.16    0.68
   3  -3  -5    1.28    0.68
  -3  -3   5    0.32    0.57
   3  -3  -5    0.72    0.79
   3   3   5    0.18    0.70
   3  -3  -5    1.58    0.95
  -3  -3   6  107.44    5.57
   3  -3  -6  111.61    5.60
  -3   3  -6  119.04    5.70
   3  -3  -6  120.26    5.73
   3  -3  -6  111.34    5.61
   3  -3  -6  129.62    5.85
   3   3   6  119.29    5.74
   3   3   7    2.94    0.86
   3  -3  -7    0.95    0.72
  -3  -3   7    1.30    0.71
   3  -3  -7    0.50    0.89
  -3   3  -7    1.17    0.78
   3  -3  -7    2.68    0.82
   3   3   8   73.17    3.66
  -3   3  -8   69.06    3.55
   3  -3  -8   64.53    3.48
   3  -3  -8   66.07    3.55
  -3  -3   8   59.46    3.39
   3  -3  -9    0.30    0.82
   3   3   9    0.44    0.80
  -3  -3   9    0.72    0.64
  -3   3  -9    0.89    0.77
   3  -3  -9   -0.29    0.71
  -3   3 -10   20.99    1.61
   3  -3 -10   20.51    1.58
   3   3  10   21.49    1.70
   3  -3 -10   16.85    1.51
  -3  -3  10   18.96    1.50
   3   3  11    0.66    0.91
  -3  -3  11    0.62    0.82
   3  -3 -11    0.22    0.76
  -3   3 -11    0.14    0.82
   3  -3 -11   -0.07    0.82
  -3   3 -12   28.03    2.03
  -3  -3  12   28.86    1.96
   3  -3 -12   28.37    2.00
   3  -3 -12   27.60    1.87
   3   3  12   30.48    2.17
  -3  -3  12   27.40    2.00
  -3  -3  13   -0.75    0.87
  -3  -3  13    0.58    0.92
   3  -3 -13   -0.35    0.82
   3   3  13    0.83    1.00
   3  -3 -13    0.86    0.96
  -3   3 -13    0.50    1.02
   3  -3 -14   30.12    2.02
   3  -3 -14   30.23    2.18
  -3   3 -14   32.14    2.28
  -3  -3  14   29.57    2.16
  -3  -3  14   29.96    2.05
   3   3  14   30.53    2.31
   3  -3 -15    0.77    0.93
  -3  -3  15    0.31    0.90
   3  -3 -15    0.79    1.05
  -3   3 -15   -0.26    1.00
   3   3  15   -0.10    1.13
   3  -3 -16   20.77    1.90
  -3   3 -16   22.67    1.96
   3  -3 -16   19.88    1.66
  -3  -3  16   24.15    1.75
   3   3  16   22.81    2.11
   3  -3 -17    0.60    0.94
  -3   3 -17    1.14    1.16
   3  -3 -17    1.05    1.14
   3   3  17   -0.70    1.27
  -3  -3  17    0.43    0.99
   3  -3 -18   15.69    1.67
  -3   3 -18   15.25    1.74
   3  -3 -18   19.89    1.45
   3   3  18   18.43    2.01
  -3  -3  18   15.20    1.38
   3  -3 -19    0.18    0.97
  -3   3 -19    0.93    1.30
  -3  -3  19    0.48    0.50
   3   3  19    2.44    1.46
  -3  -3  19    0.32    1.06
   3  -3 -19    0.28    1.23
   3  -3 -20    5.27    1.15
  -3  -3  20    6.49    1.22
  -3   3 -20    7.01    1.50
  -3  -3  20    3.04    0.62
   3  -3 -20    5.06    1.35
   3   3  20    7.73    1.77
  -3  -3  21   -0.58    1.07
  -3  -3  21    0.06    0.59
   3   3  21   -1.32    1.45
   3  -3 -21    0.19    1.02
   3   3  21    0.28    1.57
   3  -3 -22    2.61    1.15
   3   3  22    3.87    1.68
  -3  -3  22    3.57    0.79
  -3  -3  23    0.78    1.17
   3  -3 -23    1.18    1.09
   3   3  23    0.26    1.60
  -3  -3  23   -0.22    0.77
  -3  -3  24    4.39    1.30
   3   3  24    5.00    1.87
  -3  -3  24    2.72    0.85
  -3  -3  25    0.07    1.23
  -3  -3  25    0.09    0.85
   3   3  25   -1.69    1.86
  -3  -3  26    1.11    1.33
   3   3  26    2.96    1.96
   3   3  27    0.77    1.98
   3   3  28    2.88    2.23
   3   3  29   -1.32    2.27
   4   0   0  182.48    8.51
   0   4   0  174.22    8.56
   0   4   0  185.39    8.51
   4   0   0  169.00    8.58
   0   4   1    0.98    0.81
   4   0   1   -0.37    0.82
   0   4   1    0.33    0.81
  -4   0  -1    0.53    0.56
   0   4  -1    0.58    0.74
   4   0  -1    0.68    0.84
   4   0   1   -0.44    0.82
   0   4  -1    0.87    0.81
   4   0  -1   -0.19    0.80
   0   4  -2  131.57    6.73
   0  -4   2  132.87    6.69
   0   4   2  147.69    6.89
   4   0   2  141.88    6.92
   0   4   2  170.86    6.94
  -4   0  -2  125.97    6.58
   4   0  -2  160.98    6.88
   4   0  -2  141.70    6.65
   0   4  -2  127.62    6.83
  -4   0   3    4.68    0.82
   0   4  -3    1.96    0.88
  -4   0  -3    1.35    0.65
   0   4   3    1.28    0.83
   0   4  -3    1.85    0.87
   4   0   3    0.07    0.84
   4   0  -3    4.08    0.82
   0   4   3    2.46    0.82
   0  -4   3    1.53    0.79
   4   0  -3    1.46    0.93
   4   0  -3    5.07    0.81
  -4   0  -4  152.57    7.60
   0  -4  -4  174.15    7.40
   0   4   4  204.86    8.01
   4   0   4  173.50    7.99
   0   4  -4  160.01    7.35
   0   4  -4  140.73    7.82
   0  -4   4  143.89    7.65
   4   0  -4  155.50    7.56
   4   0  -4  190.06    8.00
   4   0  -4  162.65    7.71
   0   4   4  186.31    8.01
  -4   0   4  151.52    7.70
   4   0  -5    0.41    0.72
  -4   0   5    0.42    0.67
  -4   0  -5    1.30    0.59
  -4   0  -5    0.57    0.73
   4   0  -5    1.06    0.82
   0   4   5    0.48    0.37
   0  -4   5    0.76    0.67
   4   0  -5    1.10    0.59
   0   4  -5    0.92    0.85
   0  -4  -5    0.41    0.40
   0  -4   5   -0.12    0.32
   0   4   5    0.71    0.86
   0   4  -5    0.32    0.36
   4   0   5   -1.03    0.90
  -4   0   5   -0.43    0.66
   0  -4   6  101.18    4.92
   4   0   6  104.67    5.39
  -4   0   6  111.66    5.34
   0  -4   6   98.81    5.17
  -4   0  -6  108.99    5.34
   0   4   6  112.97    4.95
   4   0  -6  114.94    5.25
   0  -4   6   96.84    5.30
   4   0  -6  106.87    4.98
   0   4  -6   95.98    5.33
  -4   0   6  106.56    5.22
   0  -4  -6  105.73    5.00
  -4   0  -6  103.88    5.06
   0   4  -6  100.87    4.95
   4   0  -7    2.54    0.67
  -4   0   7    3.09    0.82
   0   4   7    2.06    0.58
   0  -4   7    1.10    0.53
   0   4  -7    2.56    0.63
   0  -4   7    3.89    1.04
   4   0   7    3.17    0.92
   0  -4  -7    1.98    0.65
   0  -4   7    2.98    0.89
   0   4   7    5.01    1.10
   0   4  -7    1.98    0.96
  -4   0  -7    2.06    0.60
  -4   0   7    1.08    0.77
  -4   0  -7    1.48    0.79
   4   0   8   83.78    4.20
   0   4  -8   77.39    3.79
  -4   0  -8   74.45    3.74
  -4   0  -8   80.36    4.10
   0  -4   8   73.87    3.91
   0  -4   8   73.69    4.07
  -4   0   8   75.41    3.95
   0   4   8   81.15    3.80
   0  -4   8   72.49    3.75
   4   0  -8   85.56    4.15
   0   4  -8   72.40    4.08
  -4   0   8   75.53    4.02
   0  -4  -8   78.48    3.84
   0   4  -9    0.67    0.60
  -4   0  -9    0.32    0.50
  -4   0   9    0.98    0.75
   4   0   9    0.16    0.77
  -4   0   9    0.20    0.66
   0  -4   9    0.10    0.71
   0   4   9    0.24    0.86
   0  -4   9   -0.20    0.92
   0  -4   9    0.26    0.59
   0  -4  -9    0.29    0.62
  -4   0  -9    0.14    0.72
   4   0  -9    1.22    0.83
   0   4   9   -0.04    0.60
   0  -4  10   59.63    3.31
   0  -4  10   58.59    3.27
   4   0 -10   71.71    3.60
   4   0  10   66.22    3.62
   0   4  10   62.46    3.61
  -4   0 -10   62.37    3.52
   0  -4  10   63.70    3.51
  -4   0  10   59.49    3.42
   0   4  10   66.94    3.32
   0   4 -10   62.45    3.29
  -4   0  10   59.82    3.35
  -4   0 -10   62.32    3.09
   0  -4 -10   63.71    3.34
   0  -4  11    0.84    0.75
  -4   0 -11    0.97    0.52
   4   0 -11    1.01    0.83
   4   0  11    0.18    0.86
   4   0 -11    0.16    0.91
  -4   0  11   -0.36    0.78
  -4   0 -11    1.27    0.84
   0  -4 -11    0.12    0.71
   0   4 -11   -0.22    0.72
   0  -4  11    1.00    0.96
   0   4  11    0.57    0.73
   0  -4  11    0.48    0.79
  -4   0  11    0.15    0.76
   0  -4  12   51.92    3.04
   0  -4 -12   51.20    2.97
   0   4 -12   55.15    2.95
  -4   0  12   52.55    3.06
   4   0  12   51.19    3.17
  -4   0 -12   52.29    2.58
   0  -4  12   46.42    2.88
   0   4  12   55.99    2.98
   0  -4  12   53.92    2.96
   4   0 -12   45.51    2.58
  -4   0  12   51.56    2.93
   4   0 -12   55.78    3.20
   4   0 -12   57.75    2.95
  -4   0 -12   51.96    3.11
   0  -4  13    0.62    0.84
  -4   0  13    1.07    0.85
  -4   0 -13    0.17    0.45
   0  -4  13    0.55    1.01
   4   0 -13   -0.66    0.96
  -4   0 -13    0.09    0.97
  -4   0  13    0.42    0.91
   0  -4  13   -0.42    0.89
   4   0  13    1.04    0.98
   4   0 -13   -0.06    0.81
   0   4 -13    0.20    0.83
   0  -4 -13    0.42    0.87
  -4   0  13    1.01    0.65
   4   0 -13    0.80    0.55
   0   4  13    0.42    0.92
  -4   0  14   32.94    1.97
   0  -4 -14   33.16    2.35
   0   4  14   42.19    2.49
   0  -4  14   38.70    2.42
   4   0 -14   38.94    2.54
   0   4 -14   40.74    2.41
   4   0  14   41.58    2.62
  -4   0  14   34.67    2.46
   0  -4  14   39.36    2.48
  -4   0 -14   35.16    2.55
   0  -4  14   35.06    2.26
  -4   0  14   34.42    2.26
  -4   0 -14   33.47    1.83
   4   0 -14   34.77    2.22
   0  -4  15    0.33    1.00
  -4   0  15    0.91    0.92
   4   0 -15    0.47    1.12
   0   4  15   -0.08    1.00
  -4   0 -15   -0.40    1.04
  -4   0  15    0.10    0.68
  -4   0  15    1.10    1.00
   4   0 -15    0.17    0.89
  -4   0 -15    0.52    0.44
   0  -4  15   -0.21    1.09
   0   4 -15    1.13    0.94
   0  -4 -15    0.24    0.97
   4   0  15    0.31    1.08
   0  -4 -16   30.83    2.15
   0  -4  16   29.48    2.16
  -4   0 -16   24.49    1.42
  -4   0  16   26.06    1.67
  -4   0  16   23.95    2.11
   4   0 -16   31.42    2.31
   0   4  16   32.24    2.22
   0  -4  16   28.06    2.20
   4   0  16   27.83    2.30
  -4   0 -16   27.70    2.33
  -4   0  16   31.29    2.02
   4   0 -16   28.84    1.90
   0   4 -16   31.51    2.13
   0   4  17    2.68    1.23
  -4   0 -17    0.11    1.21
   0  -4  17    1.08    1.18
   0  -4  17   -0.10    1.17
  -4   0  17   -0.20    1.11
  -4   0  17    1.15    0.79
   4   0  17    3.14    1.32
   4   0 -17   -0.10    1.17
   0   4 -17   -0.42    1.08
   0  -4 -17    0.09    1.08
  -4   0 -17    0.68    0.37
  -4   0  17    2.33    1.03
   0  -4  18   12.05    1.65
  -4   0  18   12.25    1.26
   0  -4 -18   13.25    1.61
  -4   0 -18   10.69    1.67
   0   4  18   16.09    1.84
   4   0 -18   14.17    1.70
   0   4 -18   14.44    1.61
   4   0  18   15.13    1.82
  -4   0  18   13.16    1.68
   0  -4  18   14.76    1.75
  -4   0  18   12.30    1.44
   4   0 -19    0.51    1.20
   0  -4 -19   -0.19    1.21
   0  -4  19   -0.43    1.19
   0  -4  19   -0.54    1.34
  -4   0 -19   -1.35    1.24
  -4   0  19    0.07    0.98
  -4   0  19    0.31    0.84
   0   4 -19    0.37    1.19
   4   0  19    0.24    1.30
   0   4  19    0.33    1.35
   0   4  20    7.57    1.68
   0  -4  20    7.45    1.69
   0  -4  20    7.38    1.49
   4   0  20    8.68    1.72
  -4   0  20    6.29    1.04
   0  -4  20    6.55    0.96
   0   4 -20    8.09    1.54
   0  -4 -20    7.12    1.53
  -4   0  20    6.98    1.28
   0  -4  21    1.20    1.49
   0  -4  21   -1.07    1.29
   0  -4  21    0.25    0.73
   0   4 -21   -0.60    1.28
   0   4  21    0.36    1.48
  -4   0  21    0.79    0.93
   0  -4 -21   -0.52    1.32
   4   0  21   -0.95    1.53
   0  -4  22    5.05    1.70
   0  -4  22    8.36    0.92
   0  -4  22    8.08    1.53
   0   4  22    6.95    1.81
  -4   0  22    5.57    1.06
   0  -4 -22    6.68    1.65
   0   4 -22    7.24    1.59
   4   0  22    7.77    1.88
   0   4  22    7.49    1.84
   0  -4 -23    0.55    1.02
  -4   0  23    1.24    0.99
   0  -4  23    0.94    0.71
   0  -4  23   -1.02    1.32
   0   4  23    0.21    1.58
   0  -4  23    0.52    1.55
   4   0  23    2.05    1.74
   0   4  23    1.68    1.76
   0  -4  24    2.86    1.40
   0  -4  24    6.18    2.02
   4   0  24    4.88    1.93
  -4   0  24    2.84    1.10
   0   4  24    4.47    1.88
   0   4  24    4.59    1.94
   0  -4 -24    3.78    1.18
   0   4  25   -0.70    1.76
   0  -4  25   -0.14    1.78
   0   4  25   -0.88    1.72
   0  -4  25    0.31    1.31
  -4   0  25    0.22    1.07
   4   0  25    0.31    1.79
   0  -4 -25    0.06    1.13
   0  -4 -26    1.12    1.20
   0  -4  26    1.78    1.98
   0   4  26   -0.11    1.79
  -4   0  26    1.64    1.16
   0   4  26    1.59    1.96
   4   0  26    3.91    1.75
   4   0  26    1.29    1.94
   0  -4 -27   -0.18    1.22
   0   4  27    0.98    1.84
   0   4  27    1.34    1.96
  -4   0  27   -0.41    1.19
   4   0  27   -0.43    1.74
   0  -4  27    1.07    2.04
   0  -4  28    0.16    2.06
  -4   0  28    2.06    1.28
   0   4  28    2.87    1.97
   4   0  28    1.63    1.91
   0   4  28    0.15    2.04
   0   4  29   -2.55    2.03
   0   4  29   -0.16    2.15
   0  -4  29   -0.33    2.20
   0   4  30   -1.14    2.22
   0  -4  30    0.85    2.29
   0   4  30    0.64    1.94
   1  -4  30    2.68    2.42
  -1   4  30    1.15    2.22
  -4   1  29    0.63    1.52
  -1   4  29    2.42    2.21
   1  -4  29    0.18    2.35
  -1   4  29    2.07    1.93
   1  -4  28   -0.17    2.25
  -1   4  28    1.63    1.88
  -1   4  28   -0.16    2.03
  -4   1  28   -0.08    1.41
   4  -1  28    1.64    1.90
  -1   4  27    3.80    1.89
  -1   4  27    1.05    1.97
   4  -1  27    1.16    1.79
  -4   1  27   -0.59    1.33
   1  -4  27   -0.16    2.23
  -1   4  26   -1.13    1.75
   1  -4  26    1.14    1.83
  -1  -4 -26    0.26    1.08
  -1   4  26   -0.73    1.85
   4  -1  26   -2.11    1.80
  -4   1  26    0.07    1.25
   1  -4  26    2.38    2.19
   4  -1  26   -0.16    1.86
  -1   4  25    2.47    1.78
  -1   4  25    1.12    1.82
   4  -1  25    2.84    1.90
  -4   1  25    0.77    1.28
   1  -4  25    2.77    1.79
   1  -4  25   -0.15    1.94
  -1   4  24    0.31    1.67
  -4   1  24    1.00    1.18
  -1   4  24    1.21    1.67
   4  -1  24    0.15    1.78
   1  -4  24   -0.29    1.69
   1  -4  24   -1.14    1.95
  -1   4  23    2.99    1.79
  -4   1  23    2.76    1.18
   4  -1  23    3.54    1.81
  -1   4  23    3.98    1.63
   1  -4  23    3.47    1.85
   1  -4  23    2.59    1.65
   1  -4  22   -0.26    0.35
  -1   4  22   -0.12    1.54
  -1   4  22    1.19    1.54
  -4   1  22    0.75    1.04
   1   4 -22    0.42    1.40
   4  -1  22    0.86    1.63
   1  -4  22    1.79    1.68
  -1  -4 -22    0.11    1.40
   1  -4  22    0.28    1.58
  -1   4  21    4.55    1.56
  -4   1  21    3.97    1.13
  -1   4  21    5.85    1.66
  -1  -4 -21    6.33    1.50
  -4  -1 -21    3.56    0.49
   1   4 -21    5.72    1.49
   4  -1  21    8.48    1.79
   1  -4  21    4.92    0.61
   1  -4  21    6.09    1.75
   1  -4  21    5.92    1.69
  -1   4  20    2.01    1.42
  -4  -1 -20    0.79    0.44
   1   4 -20    0.58    1.29
  -1  -4 -20    1.24    1.33
   1  -4  20    0.70    0.63
  -1   4  20    1.99    1.46
  -4   1  20    0.12    1.01
   1  -4  20   -1.00    1.47
   4  -1  20   -1.04    1.43
   1  -4  20    0.23    1.46
  -1   4  19   16.12    1.77
   1   4 -19   13.27    1.63
   1  -4  19    8.00    1.75
  -1  -4 -19   11.39    1.63
  -1   4  19   10.93    1.71
   4  -1  19   12.28    1.84
  -4   1  19   11.52    1.31
  -4  -1 -19   11.22    0.84
   1  -4  19    9.15    1.74
  -1   4  18    1.17    1.25
   1  -4  18   -0.62    1.28
  -1   4  18   -0.64    1.23
  -1  -4 -18   -0.85    1.13
  -4   1  18    0.40    0.96
   1  -4  18    0.35    1.35
  -4  -1 -18    0.23    1.24
   4  -1  18    2.34    1.32
  -4  -1 -18    0.83    0.53
   1   4 -18    0.35    1.11
   4  -1  17   24.78    2.25
  -1   4  17   27.52    2.17
   1  -4  17   21.90    2.10
  -4   1  17   25.54    1.84
   1   4 -17   25.22    2.07
  -4  -1 -17   27.55    2.28
  -1  -4 -17   24.74    2.10
   1  -4  17   26.86    2.22
  -1   4  17   23.64    2.16
  -4  -1 -17   23.85    1.44
  -1   4  16    0.53    1.21
   1  -4  16   -0.09    1.10
  -4  -1 -16    0.15    0.58
   4  -1  16    0.22    1.22
  -1   4  16    0.58    1.01
  -4   1  16    0.45    0.91
  -4  -1 -16    0.95    1.13
   1   4 -16    0.33    1.06
  -1  -4 -16    1.63    1.13
   1  -4  16    0.51    1.27
   1  -4  15   40.68    2.61
  -4   1  15   35.12    2.22
   4  -1  15   37.81    2.68
   1   4 -15   33.60    2.42
  -4  -1 -15   41.18    2.72
  -1  -4 -15   35.29    2.47
   1  -4  15   39.81    2.66
  -4  -1 -15   36.80    2.02
  -1   4  15   34.20    2.55
  -1   4  15   39.31    2.50
  -4   1  14    0.45    0.86
  -1   4  14    0.69    1.08
   1   4 -14    0.22    0.93
  -1   4  14    0.49    0.90
   1  -4  14    0.87    1.03
  -1  -4 -14    0.61    0.94
  -4  -1 -14    0.73    0.64
   4  -1  14    1.85    1.07
  -4   1  14    1.20    0.81
  -4  -1 -14   -0.57    1.01
   1  -4  14    0.49    1.17
   1  -4  13   41.94    2.77
   1   4 -13   40.32    2.56
   4  -1  13   44.27    2.81
   1  -4  13   43.26    2.67
  -4   1  13   37.76    2.39
  -1  -4 -13   41.36    2.62
  -1   4  13   42.57    2.57
  -4  -1 -13   42.31    2.77
  -4  -1 -13   47.78    2.34
  -1   4  13   42.94    2.76
  -4   1  13   39.94    2.51
  -1   4  12   -0.25    0.96
  -4   1  12    0.57    0.75
  -4  -1 -12    0.51    0.92
  -1   4  12    0.46    0.77
  -4   1  12    0.74    0.83
  -4  -1 -12    0.79    0.67
   1  -4  12    0.40    0.93
   4  -1  12    0.54    1.00
  -1  -4 -12    0.26    0.81
   1  -4  12   -0.13    0.82
   1   4 -12   -0.69    0.82
   1  -4  12   -0.24    1.07
  -4  -1 -11   57.87    3.48
  -1   4  11   61.86    3.54
   1  -4  11   61.27    3.45
   1  -4  11   57.43    3.34
  -4   1  11   63.93    3.29
   1   4 -11   52.94    3.33
   1  -4  11   60.91    3.57
   4  -1  11   69.12    3.66
  -4   1  11   60.17    3.35
   1   4 -11   57.01    3.30
  -1  -4 -11   62.38    3.39
  -1   4  11   64.13    3.28
  -4  -1 -11   73.65    3.25
   1  -4  10    1.78    1.09
  -1  -4 -10    0.77    0.77
  -1   4  10    2.12    1.04
  -1   4  10    0.56    0.66
  -4  -1 -10    2.21    0.76
   1  -4  10    0.99    0.78
  -4  -1 -10    0.84    0.91
   4  -1  10    0.75    0.89
   1  -4  10    0.67    0.99
   1   4 -10    2.09    0.99
   1   4 -10    1.42    0.75
  -4   1  10    2.05    0.81
  -4   1  10    1.95    0.90
  -4  -1  -9   79.18    4.42
  -1   4   9   97.75    4.62
   1  -4   9   83.82    4.22
  -1  -4  -9   83.69    4.24
  -4   1   9   83.68    4.33
   1   4  -9   72.70    4.31
   4  -1   9   84.79    4.51
  -4  -1  -9   99.86    4.26
   1  -4   9   83.70    4.39
  -1   4   9   85.40    4.56
   1   4  -9   79.29    4.19
   1  -4   9   83.26    4.51
  -1   4   9   82.91    4.14
  -4   1   8    0.30    0.72
   1  -4   8    1.81    1.04
  -4  -1  -8    0.42    0.69
  -1  -4  -8    0.22    0.61
  -1   4   8    1.30    0.93
   1   4  -8    1.03    0.88
  -4  -1  -8   -0.14    0.72
   1  -4   8    0.54    0.86
   1  -4   8    0.78    0.61
   4  -1   8    0.47    0.79
  -1   4   8   -0.25    0.91
   1   4  -8   -0.34    0.56
   1   4  -7  121.17    6.23
   1  -4   7  123.29    6.47
  -1   4   7  172.48    6.80
   4  -1   7  142.93    6.70
   4  -1   7  127.49    6.25
   1  -4   7  128.83    6.29
  -1  -4  -7  138.14    6.32
  -4  -1  -7  127.42    6.56
   1   4  -7  123.97    6.55
  -1   4   7  157.20    6.84
   1  -4   7  130.41    6.65
  -4   1   7  134.33    6.50
  -4  -1  -7  153.27    6.46
  -4   1   6    0.11    0.73
  -1   4   6    0.70    0.84
  -4  -1  -6    0.62    0.69
  -1   4   6    0.98    0.52
   1  -4   6    1.01    0.79
   1  -4   6   -0.16    0.48
   1  -4   6    1.36    0.89
   4  -1   6    1.57    0.80
   4   1  -6    0.45    0.40
   1   4  -6    1.30    0.93
  -1  -4  -6    0.82    0.55
   1   4  -6    0.37    0.47
   4  -1   6    0.78    0.61
  -4  -1  -6   -0.07    0.73
   4  -1   5  115.29    5.55
   1   4  -5   96.84    5.37
   4  -1   5  103.00    5.12
   1  -4   5  105.14    5.03
   4   1  -5   98.59    4.96
   1  -4   5  108.98    5.39
  -1   4   5  146.86    5.65
  -4  -1  -5  102.07    5.36
  -1  -4  -5  108.72    5.03
   1   4  -5   97.59    4.99
   1  -4   5   93.86    5.38
  -1   4   5  136.17    5.08
  -4   1   5  105.96    5.31
  -4  -1  -5  117.62    5.28
   1   4  -4    0.71    0.38
   1   4  -4    0.85    0.82
   1   4  -4    0.83    0.78
   4  -1   4    0.76    0.60
   1  -4   4    0.78    0.84
  -4  -1  -4    1.29    0.72
   4  -1   4   -0.97    0.81
  -4   1   4    1.25    0.69
  -1   4   4   -0.07    0.80
  -1   4   4    0.25    0.42
   1  -4   4   -0.05    0.42
  -1  -4  -4    0.52    0.39
   1   4  -3   56.34    2.84
   4  -1   3   64.09    3.42
   1   4  -3   59.73    3.19
   1  -4   3   62.61    3.28
   1  -4   3   57.95    2.89
   1   4  -3   54.92    3.28
   4  -1   3   59.91    3.09
  -4  -1  -3   65.54    3.21
   4  -1   2    0.45    0.57
   4  -1   2   -1.38    0.89
  -4  -1  -2    1.22    0.69
   1   4  -2    0.72    0.69
   1   4  -2    0.18    0.29
   1  -4   2   -0.29    0.33
   1   4  -2    0.39    0.28
   1   4  -2    0.14    0.78
   1  -4   2   -0.10    0.25
  -1   4   2   -0.07    0.74
  -1   4   2    1.15    0.82
   1  -4   1  115.72    5.15
   4  -1   1  131.58    5.75
  -1   4   1  161.61    5.85
   1   4  -1  120.60    5.63
   1   4  -1  104.52    5.11
   4  -1   1  131.46    5.82
  -1   4   1  175.80    6.08
   1   4  -1  101.77    5.14
   1   4  -1   99.75    5.61
   1  -4   1  145.21    5.85
   4  -1   1  111.18    5.43
  -1   4   0   10.23    1.20
   1  -4   0    1.86    0.32
   1   4   0    7.71    1.07
   4  -1   0    3.22    0.97
   1  -4   0   10.46    1.22
  -1   4   0    8.30    1.07
   1   4   0   -0.36    0.40
   4  -1   0    4.96    0.81
   1   4   0    0.73    0.34
   1  -4   0    2.07    0.36
   4  -1   0    1.18    1.03
   1   4   0    6.75    0.99
   1  -4  -1  175.11    6.73
   4  -1  -1  124.78    6.61
   4  -1  -1  123.09    6.42
  -1   4  -1  166.16    6.73
   1  -4  -1  136.81    6.04
   1   4   1  118.78    6.45
  -1   4  -1  152.22    6.78
   1   4   1  125.78    6.04
   1  -4  -1  149.70    6.05
   1   4   1  103.94    6.48
   4  -1  -1  119.26    6.32
  -4   1  -1  116.26    6.31
   4  -1  -1  136.79    6.55
  -4   1  -2    0.18    0.54
   4  -1  -2   -0.91    0.82
   1  -4  -2   -0.21    0.27
   4  -1  -2    0.19    0.57
   4  -1  -2    1.13    0.76
   1   4   2    0.44    0.34
   1   4   2    0.20    0.33
   1   4   2    0.45    0.78
   1  -4  -2   -0.08    0.28
  -1   4  -2    0.94    0.78
  -1   4  -2    0.24    0.85
  -4  -1   3   60.79    3.51
   4  -1  -3   66.92    3.52
   1   4   3   65.91    3.68
   4  -1  -3   67.79    3.52
   1   4   3   61.99    3.24
  -1   4  -3   69.26    3.82
   4  -1  -3   70.97    3.68
  -4   1  -3   59.53    3.41
  -4   1  -4    0.28    0.51
  -1  -4   4    0.30    0.34
   4  -1  -4    0.44    0.64
  -4  -1   4    0.32    0.66
   4  -1  -4   -0.13    0.79
   4  -1  -4    0.79    0.72
  -1   4  -4    0.02    0.39
  -1   4  -4   -0.16    0.85
   1   4   4   -0.14    0.42
   1  -4  -4   -0.30    0.36
  -4  -1   5  106.95    5.38
   1   4   5  109.63    5.09
   1  -4  -5  127.66    5.11
   4  -1  -5  114.69    5.28
  -1  -4   5   97.23    5.19
   4  -1  -5  121.23    5.50
  -1   4  -5  120.73    5.10
  -1  -4   5   94.28    4.98
  -4   1  -5  105.41    5.17
   4  -1  -5  106.40    5.29
  -4  -1   5  104.41    5.32
  -4  -1   6    2.13    0.76
   4  -1  -6    0.46    0.70
   4  -1  -6    1.04    0.69
   1   4   6    0.66    0.52
   1  -4  -6    0.52    0.49
  -1   4  -6    0.69    0.49
  -1  -4   6    0.57    0.45
  -1  -4   6   -0.09    0.68
  -4  -1   6    0.19    0.71
  -4   1  -6    0.37    0.54
  -4  -1   7  121.01    6.42
  -1   4  -7  140.90    6.24
   1  -4  -7  142.23    6.24
   1   4   7  129.31    6.23
   4  -1  -7  146.31    6.36
  -4   1  -7  131.79    6.20
  -4  -1   7  126.51    6.40
   4  -1  -7  130.32    6.37
  -1  -4   7  120.97    6.25
  -4  -1   8    1.49    0.76
  -4   1  -8    0.13    0.50
   1   4   8    0.13    0.58
  -4  -1   8   -0.53    0.70
   4  -1  -8   -0.68    0.78
  -1   4  -8   -0.36    0.55
   1  -4  -8    0.05    0.58
  -1  -4   8    1.54    0.69
   1  -4  -8    0.90    0.59
   1   4   9   85.07    4.10
  -1  -4   9   77.21    4.00
   4  -1  -9   84.46    4.30
   4  -1  -9   86.51    4.13
  -1   4  -9   83.51    4.07
   1  -4  -9   78.63    4.08
  -1  -4   9   78.14    3.98
  -4   1  -9   78.90    3.87
  -4  -1   9   79.52    4.16
  -4  -1   9   83.54    4.27
  -4  -1  10    1.55    0.86
   4  -1 -10    1.10    0.96
  -1  -4  10    1.50    0.80
   1   4  10    1.88    0.84
  -1   4 -10    0.51    0.70
  -1  -4  10    1.53    0.68
  -4   1 -10    0.85    0.49
   1  -4 -10    1.57    0.82
   4  -1 -10    3.04    0.82
  -4  -1  10    1.52    0.81
  -1  -4  11   57.94    3.18
   1   4  11   63.61    3.34
  -1  -4  11   58.92    3.15
  -1   4 -11   60.30    3.26
   4  -1 -11   67.66    3.52
   1  -4 -11   62.30    3.32
   4  -1 -11   59.88    3.13
  -4   1 -11   57.64    2.92
  -4  -1  11   60.37    3.40
  -4  -1  11   59.61    3.27
   4  -1 -11   62.92    3.26
   4  -1 -12    0.31    0.95
   4  -1 -12    1.06    0.83
  -4  -1  12    0.18    0.81
  -1   4 -12    0.06    0.77
  -1  -4  12    1.04    0.74
   1   4  12   -0.07    0.84
  -4  -1  12   -0.16    0.82
   1  -4 -12   -0.26    0.82
  -1  -4  12    0.40    0.71
   4  -1 -12    0.90    0.74
   1   4  13   39.78    2.60
  -1  -4  13   39.15    2.31
  -4  -1  13   44.93    2.75
  -1  -4  13   45.25    2.54
  -1   4 -13   45.62    2.57
   4  -1 -13   44.59    2.73
   1  -4 -13   38.83    2.57
  -4  -1  13   42.60    2.51
   4  -1 -13   36.67    2.21
   4  -1 -13   44.41    2.47
   4  -1 -14    0.51    1.02
  -1  -4  14    0.27    0.77
   4  -1 -14    0.23    0.86
   1  -4 -14    0.61    0.95
  -1  -4  14   -0.07    0.86
   1   4  14    1.10    1.00
  -1   4 -14   -0.58    0.89
  -4  -1  14    0.55    1.04
  -4  -1  14    0.51    0.90
  -4  -1  15   35.75    2.32
   1   4  15   37.62    2.53
  -1   4 -15   39.43    2.47
  -1  -4  15   38.01    2.45
   1  -4 -15   37.85    2.50
  -4  -1  15   34.71    2.55
   4  -1 -15   40.75    2.65
  -1  -4  15   31.97    2.12
   4  -1 -15   36.93    2.25
  -4  -1  16    1.38    1.03
   4  -1 -16   -0.17    0.87
   1  -4 -16   -0.85    1.05
  -1  -4  16    0.83    1.07
  -4  -1  16    0.78    1.09
   1   4  16    0.27    1.16
  -1  -4  16    0.99    0.89
  -1   4 -16    0.33    1.00
   4  -1 -16   -0.66    1.18
  -1  -4  17   22.35    1.76
   1   4  17   28.12    2.27
   4  -1 -17   27.27    2.19
  -1  -4  17   25.00    2.10
   1  -4 -17   23.74    2.07
  -4  -1  17   24.50    1.90
  -4  -1  17   25.12    2.20
  -1   4 -17   26.35    2.07
   4  -1 -17   25.29    1.80
  -1  -4  18    0.37    0.93
   1   4  18   -0.91    1.28
   4  -1 -18    0.70    0.92
  -1   4 -18   -0.36    1.08
  -4  -1  18    0.11    1.22
  -1  -4  18    0.38    1.19
  -4  -1  18    0.21    1.03
   1  -4 -18    0.65    1.13
   4  -1 -18   -0.29    1.13
  -4  -1  18    0.28    0.53
  -4  -1  19   11.00    1.40
  -1  -4  19    8.50    1.22
   4  -1 -19   11.67    1.31
  -1  -4  19   10.60    1.68
   1  -4 -19   11.06    1.57
  -4  -1  19    7.96    0.83
  -1   4 -19   13.46    1.64
   1   4  19   10.94    1.72
  -1  -4  19   13.10    1.27
  -1  -4  20    0.61    0.89
  -1  -4  20    0.65    1.28
   4  -1 -20    0.60    1.00
   1  -4 -20   -0.20    1.32
  -1   4 -20   -0.10    1.24
  -4  -1  20    1.40    1.11
   1   4  20    0.11    1.40
  -4  -1  20    1.34    0.69
   1  -4 -20   -0.52    0.98
  -4  -1  21    6.21    1.27
   1  -4 -21    5.96    1.52
  -1  -4  21    5.13    1.02
   4  -1 -21    8.74    1.23
  -1  -4  21    6.55    1.64
  -4  -1  21    4.68    0.88
  -1   4 -21    5.70    1.47
   1   4  21    9.85    1.84
   1  -4 -21    4.83    1.15
  -4  -1  22   -0.32    0.80
   4  -1 -22   -0.25    1.06
  -1  -4  22    0.24    1.49
   1  -4 -22    0.76    1.34
  -1   4 -22    0.11    1.35
  -1  -4  22    0.48    0.94
   1   4  22   -0.74    1.57
   1  -4 -22    0.18    1.04
  -4  -1  22    1.51    1.20
   1  -4 -23    3.72    1.20
  -1  -4  23    3.81    1.01
   4  -1 -23    4.58    1.22
  -1  -4  23    4.10    1.75
  -4  -1  23    3.03    0.91
   1   4  23    4.67    1.85
  -4  -1  23    2.83    1.30
   1  -4 -24    0.25    1.12
  -1  -4  24   -0.21    0.93
   1   4  24    1.52    1.75
   4  -1 -24    1.29    1.10
  -1  -4  24    1.21    1.67
  -4  -1  24    0.18    0.87
  -4  -1  24    0.35    1.25
   1  -4 -25    1.83    1.21
  -1  -4  25    4.24    1.85
  -4  -1  25    0.70    0.93
   1   4  25    1.68    1.89
   1  -4 -26   -0.25    1.21
  -1  -4  26    0.88    1.84
  -4  -1  26   -0.97    0.98
   1   4  26    0.29    1.93
  -1  -4  27    2.29    2.08
  -4  -1  27    1.21    1.01
   1   4  27    0.95    2.11
  -1  -4  28    0.32    2.03
   1   4  28    1.16    2.18
  -1  -4  29   -0.32    2.14
   1   4  29    1.70    2.38
   1   4  30    1.05    2.43
  -1  -4  30   -2.52    2.39
   1   4  31    3.80    2.29
  -2   4  30    1.26    2.42
  -4   2  30   -0.09    1.67
  -4   2  29   -0.56    1.61
  -2   4  29    0.46    2.23
   2  -4  29    0.68    2.31
  -2   4  29    0.31    2.07
   4  -2  28    0.15    2.02
  -4   2  28    1.72    1.68
   2  -4  28   -1.16    2.33
  -2   4  28   -0.44    1.93
  -2   4  28   -0.60    2.13
  -2   4  28   -0.70    1.72
  -4   2  27   -0.53    1.52
   4  -2  27    0.60    1.94
  -2   4  27    1.91    2.13
  -2   4  27   -0.14    1.82
  -2   4  27   -1.26    1.69
   2  -4  27   -1.61    2.14
   2  -4  26    1.71    2.16
  -4   2  26    0.52    1.46
  -2   4  26    1.78    1.80
   4  -2  26    3.18    1.90
  -2   4  26    4.44    2.17
  -2   4  26    1.65    1.67
   2  -4  26    2.95    1.91
  -4  -2 -25    0.02    0.47
   4  -2  25    0.97    1.90
   4  -2  25   -0.28    1.69
  -4   2  25   -0.08    1.40
  -2   4  25   -0.42    1.94
   2  -4  25    1.94    2.01
  -2   4  25    1.12    1.60
   2  -4  25   -0.83    1.73
  -2   4  25    0.26    1.62
  -2   4  24    5.64    1.86
  -4  -2 -24    2.30    0.65
   2  -4  24    3.62    1.79
  -2   4  24    2.30    1.91
   2  -4  24    3.47    2.03
  -4   2  24    4.47    1.39
   4  -2  24    3.00    1.97
  -2   4  24    3.20    1.66
  -4  -2 -23   -0.10    0.70
  -2   4  23    0.96    1.54
  -4   2  23    0.08    1.28
   4  -2  23   -1.37    1.83
   2  -4  23    1.82    1.91
  -2   4  23    1.58    1.78
  -2   4  23   -0.10    1.53
   2  -4  23   -0.92    1.74
  -2   4  22    4.31    1.60
  -2   4  22    4.83    1.82
  -4  -2 -22    4.96    0.90
   2  -4  22    4.54    1.89
   4  -2  22    3.53    1.82
   2  -4  22    4.04    1.78
  -2   4  22    3.61    1.60
  -4   2  22    3.15    1.35
  -4  -2 -21   -0.10    0.78
  -4   2  21   -0.76    1.23
   4  -2  21   -0.42    1.55
  -2   4  21   -0.21    1.30
   2  -4  21   -0.26    1.66
  -2   4  21    2.11    1.74
   2   4 -21    0.97    1.40
   2  -4  21   -0.40    1.52
  -2   4  21   -0.19    1.43
  -2  -4 -21   -0.55    1.37
  -4   2  20    4.80    1.47
   2  -4  20    6.44    1.82
  -2   4  20    4.26    1.40
  -2   4  20    5.75    1.76
  -4   2  20    4.57    1.29
  -2  -4 -20    5.21    1.49
   4  -2  20    4.21    1.65
   2   4 -20    4.48    1.48
   2  -4  20    6.30    1.66
  -2   4  20    4.54    1.55
  -2  -4 -19   -0.31    1.28
   2  -4  19    2.07    1.49
  -4   2  19   -0.21    1.18
  -2   4  19    0.67    1.19
  -2   4  19    2.54    1.55
  -4   2  19    1.61    1.15
   4  -2  19   -0.77    1.43
   2   4 -19   -0.40    1.28
   2  -4  19    1.75    1.45
  -2   4  19   -0.09    1.38
   2  -4  19   -0.11    0.61
   4  -2  18   16.58    2.07
   4   2 -18   19.92    2.01
  -4   2  18   11.97    1.66
  -4  -2 -18   16.86    2.07
  -2   4  18   15.89    2.01
  -4   2  18   14.27    1.62
   2  -4  18   15.27    1.97
  -2   4  18   18.63    1.80
  -2  -4 -18   15.04    1.81
  -2   4  18   19.38    2.00
   2   4 -18   14.30    1.75
   2  -4  18   18.60    1.18
   2  -4  18   13.18    1.90
   2   4 -17    0.90    1.16
  -4  -2 -17    0.22    1.23
  -4   2  17   -0.10    1.13
   4  -2  17    1.16    1.38
  -2  -4 -17    0.10    1.18
   2  -4  17    1.01    1.33
  -2   4  17    1.37    1.09
  -4   2  17    1.29    1.12
   2   4 -17    0.47    1.07
   2  -4  17    1.79    1.41
   4   2 -17    0.40    1.35
  -2   4  17    2.88    1.41
  -2   4  17    1.72    1.48
  -2   4  16   29.51    2.19
  -2   4  16   27.73    2.33
   2   4 -16   26.10    2.07
   2  -4  16   31.44    2.36
  -4   2  16   29.81    2.16
  -4   2  16   28.67    2.30
   4   2 -16   32.55    2.41
  -2   4  16   32.18    2.51
  -4  -2 -16   30.32    2.43
   4  -2  16   26.91    2.41
   2  -4  16   28.92    2.40
  -2  -4 -16   29.19    2.29
  -4   2  15    1.53    1.07
  -2  -4 -15   -0.09    1.11
   2  -4  15    0.81    1.15
  -4  -2 -15   -0.40    1.14
  -4   2  15   -0.09    1.08
  -2   4  15   -0.59    1.26
   2   4 -15    0.84    0.94
   4  -2  15   -0.11    1.17
  -2   4  15    0.91    1.22
   2  -4  15    2.01    1.35
   4   2 -15    0.60    1.32
  -4   2  14   40.78    2.66
   2  -4  14   40.30    2.76
   2  -4  14   47.74    2.76
   2   4 -14   42.66    2.50
  -4   2  14   40.91    2.48
   4   2 -14   55.01    2.99
  -2   4  14   44.25    2.79
   4   2 -14   30.31    1.91
  -4  -2 -14   46.60    2.83
   2  -4  14   46.64    2.87
  -2   4  14   41.04    2.74
  -2  -4 -14   42.53    2.66
   4  -2  14   49.22    2.91
   4   2 -13    0.45    1.18
   4  -2  13    2.02    1.12
  -2  -4 -13    0.54    0.99
   2   4 -13    0.56    0.95
   2   4 -13    0.13    0.88
  -4  -2 -13    1.56    1.12
  -2   4  13    2.30    1.18
  -4   2  13   -0.40    0.91
  -4   2  13    0.68    0.90
   2  -4  13    0.28    1.12
   2  -4  13    0.89    1.22
  -2   4  13    0.09    1.12
  -2  -4 -12   64.06    3.52
  -4   2  12   59.55    3.43
  -2   4  12   64.05    3.67
   4  -2  12   71.27    3.80
   4   2 -12   73.16    3.78
   2  -4  12   56.17    3.65
   2   4 -12   55.99    3.39
  -4  -2 -12   63.27    3.67
  -2   4  12   62.35    3.71
  -4   2  12   62.12    3.53
   4  -2  12   66.08    3.11
   2   4 -12   62.32    3.42
   2  -4  12   61.88    3.67
  -4  -2 -11    0.08    1.00
  -2   4  11    0.41    1.03
   4  -2  11    0.65    0.57
   4   2 -11    1.32    1.12
  -2  -4 -11   -0.34    0.85
   2   4 -11   -0.23    0.81
  -4   2  11   -0.06    0.89
   4  -2  11    1.17    0.99
   2  -4  11    0.48    0.97
   2  -4  11    1.11    1.11
  -2   4  11    1.59    1.13
   2   4 -11    0.96    0.94
  -4   2  11   -0.36    0.80
  -2  -4 -10   71.41    3.91
   2  -4  10   74.45    4.01
  -4   2  10   75.48    3.93
   2   4 -10   71.73    3.78
   2  -4  10   68.16    4.06
   4  -2  10   74.32    4.08
   2  -4  10   76.01    4.02
   4   2 -10   85.69    4.19
  -2   4  10   76.30    3.81
   2   4 -10   66.86    3.87
  -2   4  10   75.91    4.16
  -4   2  10   69.53    3.89
   4  -2  10   71.52    3.56
  -4  -2 -10   70.81    3.99
   2   4  -9    0.07    0.90
   4  -2   9    0.66    0.60
  -4   2   9    0.70    0.91
  -2   4   9    0.93    0.75
  -4  -2  -9    1.13    0.93
  -4   2   9    0.70    0.82
  -2  -4  -9    0.81    0.78
   2  -4   9   -0.47    0.84
   2  -4   9    0.54    1.03
   2   4  -9    0.69    0.70
   4  -2   9    0.16    0.85
  -2   4   9    2.89    1.08
   2  -4   9    0.66    1.07
   4   2  -9    1.43    1.03
   4   2  -8  122.64    5.83
   2   4  -8  102.99    5.60
  -4   2   8  114.70    5.61
   2  -4   8  119.93    5.81
   2   4  -8  103.13    5.44
   2  -4   8  104.39    5.76
  -4   2   8  116.83    5.68
   4  -2   8  120.12    5.80
  -2  -4  -8  111.84    5.53
   2  -4   8  111.69    5.61
  -2   4   8  116.88    5.87
  -2   4   8  130.03    5.55
  -4  -2  -8  109.22    5.70
   4  -2   8  110.15    5.36
  -4  -2  -7    1.26    0.98
   2   4  -7    3.32    0.79
   2   4  -7    4.15    1.07
   4   2  -7    2.50    1.07
   4  -2   7    3.03    0.74
  -2  -4  -7    2.55    0.78
  -4   2   7    1.28    0.93
   2  -4   7    4.90    1.20
   4  -2   7    0.78    0.93
   2  -4   7    1.04    0.85
  -2   4   7    5.37    1.26
   2  -4   7    4.46    1.23
  -2   4   7    3.22    0.80
   2   4  -6  145.43    7.22
  -4   2   6  154.89    7.47
  -2  -4  -6  148.85    7.23
   2  -4   6  153.07    7.32
   4  -2   6  155.39    7.54
   4  -2   6  148.12    7.21
   2   4  -6  135.61    7.41
  -4  -2  -6  146.45    7.45
  -2   4   5    0.33    0.66
   2   4  -5    0.41    0.60
   4  -2   5   -0.04    0.64
   2   4  -5    1.62    0.99
   2   4  -5    1.17    0.80
  -2  -4  -5   -0.38    0.56
  -4   2   5    0.73    0.74
   4  -2   5    0.59    0.78
   2  -4   5    0.18    0.61
  -2   4   5    0.81    1.12
   2   4  -4  125.84    6.67
   4   2  -4  162.27    7.10
   2  -4   4  141.68    6.68
   2   4  -4  129.75    6.59
   4  -2   4  150.25    7.05
   4  -2   4  140.40    6.70
   2  -4   3   -0.34    0.55
   4  -2   3    0.63    0.70
   2   4  -3    3.42    0.97
  -2   4   3    1.22    0.91
   4  -2   3    0.36    0.82
   2   4  -3    1.06    0.64
   4   2  -3    1.16    1.12
   2  -4   3    1.98    1.07
   2  -4   3    0.11    0.56
   2  -4   2  149.25    7.06
   2   4  -2  152.89    7.14
   4  -2   2  143.61    7.22
   4  -2   2  157.11    7.45
   2   4  -2  140.66    7.26
   4   2  -2  165.33    7.62
   4  -2   2  149.93    7.47
   2  -4   2  165.73    7.60
   2  -4   2  151.37    7.11
   2   4  -2  143.61    7.08
   4   2  -2  158.96    7.47
   4  -2   1    2.01    0.98
   4  -2   1    0.53    0.67
   2  -4   1    2.32    1.03
   4   2  -1   -1.35    1.11
   4   2  -1   -0.67    0.95
  -2   4   1    0.37    0.88
   4  -2   1   -1.35    0.98
   2   4  -1    0.14    0.58
   2  -4   1    1.21    0.89
   2  -4   1    0.28    0.51
   2   4  -1    2.24    0.86
   2  -4   1   -0.67    0.53
   4  -2   1   -1.72    1.07
   4   2   0  154.54    7.75
   2  -4   0  167.35    7.44
  -2   4   0  196.76    7.92
   4  -2   0  163.06    7.82
   2  -4   0  199.17    7.85
   2   4   0  147.30    7.67
   2   4   0  160.04    7.48
   2   4   0  155.20    7.46
   2  -4   0  154.56    7.38
   4  -2   0  140.42    7.56
   4  -2   0  156.46    7.73
   2  -4   0  211.26    8.04
   4  -2   0  144.73    7.78
   4   2   0  152.13    7.85
   2   4   1   -0.39    0.69
   4  -2  -1   -1.16    0.94
   2  -4  -1    0.66    0.97
   4  -2  -1    1.03    0.70
   2   4   1    2.03    0.90
   4  -2  -1   -0.60    0.89
   2  -4  -1   -0.70    0.51
   4   2   1   -1.04    0.98
   4   2   1   -2.06    1.09
   2  -4  -1    0.50    0.81
   2   4   1   -0.17    0.55
   4  -2  -1    1.10    0.88
   2   4   2  145.29    7.39
   4   2   2  150.24    7.67
   4  -2  -2  145.96    7.61
   2  -4  -2  201.60    7.84
   4   2   2  150.75    7.78
   2  -4  -2  173.62    7.41
   2   4   2  160.56    7.43
   2  -4  -2  207.60    7.95
   2  -4  -2  160.15    7.34
   4  -2  -2  153.04    7.65
   4  -2  -2  142.34    7.54
   4  -2  -3    1.98    0.95
   2  -4  -3    1.60    1.01
  -4  -2   3    3.54    0.94
   2  -4  -3    0.15    0.52
   4  -2  -3    4.63    0.87
   2   4   3    0.94    0.64
   4   2   3    1.09    0.91
   2  -4  -3    1.72    0.94
   4  -2  -4  136.59    7.22
   4  -2  -4  144.40    7.29
   4  -2  -4  142.51    7.33
   2  -4  -4  166.65    7.09
   4   2   4  165.42    7.58
   2   4   4  146.84    7.13
  -4  -2   4  136.30    7.30
   2  -4  -5    1.44    0.59
  -2  -4   5    0.62    0.52
   4  -2  -5    1.05    0.72
   4  -2  -5    1.29    0.79
  -2   4  -5   -0.32    0.60
   2   4   5    0.31    0.63
  -4  -2   5    1.62    0.84
   2  -4  -5    0.56    0.91
   4   2   5    0.23    0.84
  -4  -2   5   -0.24    0.70
   4  -2  -5    0.40    0.91
   4  -2  -6  153.36    7.16
  -2  -4   6  126.11    6.89
  -2   4  -6  161.57    7.06
  -4  -2   6  139.14    7.16
   2  -4  -6  161.69    7.03
  -4   2  -6  152.00    7.28
   4   2   6  163.69    7.42
  -4  -2   6  150.24    7.23
   2   4   6  153.59    7.10
   4  -2  -6  150.94    7.15
   4  -2  -6  147.67    7.25
   2  -4  -7    1.86    0.74
  -2  -4   7    2.39    0.63
   4  -2  -7    4.83    1.13
  -4   2  -7    2.38    0.97
   4  -2  -7    3.17    0.91
  -4  -2   7    4.45    1.05
  -2   4  -7    1.60    0.76
  -4  -2   7    1.73    0.87
   4  -2  -7    1.18    0.96
   4   2   7    1.79    1.04
   4  -2  -7    3.43    0.96
   2   4   7    2.70    0.89
  -4  -2   8  107.86    5.64
   4  -2  -8  106.16    5.65
   2  -4  -8  112.82    5.50
  -2   4  -8  124.64    5.57
   4   2   8  126.18    5.91
   2   4   8  120.17    5.64
   4  -2  -8  114.40    5.65
  -2  -4   8   99.20    5.40
   4  -2  -8  119.18    5.63
  -4  -2   8  114.74    5.68
  -4   2  -8  120.58    5.77
   4  -2  -9   -0.41    0.84
  -4  -2   9    1.19    0.90
   4  -2  -9    1.91    0.96
  -2  -4   9    0.43    0.68
  -2   4  -9    0.65    0.75
  -4  -2   9    0.28    0.76
   4   2   9    0.17    0.91
   2  -4  -9    0.20    0.74
   2   4   9    0.59    0.80
  -4   2  -9    0.52    0.82
   2  -4 -10   74.95    3.89
  -4   2 -10   74.69    4.07
  -2   4 -10   81.37    3.97
   4  -2 -10   81.34    4.12
   4   2  10   80.91    4.27
  -4  -2  10   71.91    3.96
  -2  -4  10   69.01    3.82
   4  -2 -10   74.53    3.95
   2   4  10   76.06    4.05
  -4  -2  10   71.84    3.98
  -4  -2  11    0.60    0.85
   4  -2 -11    1.70    0.89
  -4   2 -11    0.72    0.89
  -4  -2  11    0.64    0.90
   4  -2 -11    0.62    0.97
   2   4  11    0.16    0.92
   2  -4 -11    0.99    0.83
  -2   4 -11    0.32    0.86
   4   2  11   -0.09    1.06
  -2  -4  11    0.56    0.66
   2   4  12   72.35    3.65
   4  -2 -12   58.13    3.25
  -2  -4  12   53.54    3.04
  -4   2 -12   64.00    3.59
  -4  -2  12   59.90    3.49
   4   2  12   69.63    3.76
   2  -4 -12   63.63    3.38
   4  -2 -12   64.09    3.53
   4  -2 -12   60.67    3.31
  -4  -2  12   60.07    3.37
  -2   4 -12   64.37    3.41
   4  -2 -13    0.42    0.92
   4  -2 -13    0.08    1.00
  -2   4 -13   -0.29    0.94
  -4  -2  13    1.05    0.92
   4  -2 -13    0.83    0.81
  -4  -2  13    0.67    1.01
  -2  -4  13    0.51    0.66
   2  -4 -13    0.64    0.88
  -4   2 -13    1.76    1.11
   4   2  13    0.20    1.11
   2   4  13    0.89    1.09
   4   2  14   51.96    3.12
   2   4  14   42.75    2.83
   2  -4 -14   48.57    2.73
  -2  -4  14   39.11    2.32
  -4  -2  14   41.73    2.67
   4  -2 -14   44.38    2.88
  -4  -2  14   47.51    2.93
  -2   4 -14   47.30    2.81
   2   4  14   46.74    2.94
   4  -2 -14   41.69    2.58
  -4   2 -14   41.51    2.84
   2  -4 -15    0.57    0.97
  -4  -2  15    0.34    0.97
   4  -2 -15   -0.42    0.91
  -2  -4  15   -0.07    0.76
   2   4  15    0.43    1.16
  -4   2 -15    0.10    1.09
   4   2  15    1.00    1.30
  -2   4 -15    0.41    1.00
  -4  -2  15    1.07    1.20
   2  -4 -15    1.76    0.92
   4  -2 -15   -0.46    1.14
  -4   2 -16   29.58    2.38
   2  -4 -16   29.11    2.15
   2   4  16   31.98    2.38
  -2  -4  16   25.91    1.78
   4  -2 -16   30.51    2.31
  -2   4 -16   30.72    2.29
   4   2  16   36.53    2.59
  -4  -2  16   31.18    2.41
   2  -4 -16   28.98    2.00
  -4  -2  16   29.17    2.10
   4  -2 -16   30.56    2.05
  -4  -2  17    0.28    1.03
   4  -2 -17    1.55    1.03
  -2  -4  17    2.82    1.09
   2   4  17    1.85    1.29
   2  -4 -17   -0.64    1.08
  -2  -4  17    0.93    0.81
  -4   2 -17    0.54    1.27
  -2   4 -17   -0.18    1.13
  -2  -4  17    1.64    1.10
   4  -2 -17    1.49    1.27
   4   2  17    0.95    1.35
   2  -4 -17    2.20    1.25
  -4  -2  17    3.33    1.39
   2  -4 -17    0.24    0.97
  -2  -4  18   14.19    1.70
  -4  -2  18   17.21    1.63
  -2  -4  18   13.26    1.19
  -4  -2  18   16.36    1.96
   2  -4 -18   19.01    1.56
   2   4  18   14.61    1.87
  -2   4 -18   13.55    1.72
  -4   2 -18   16.09    1.88
   4   2  18   16.37    2.05
   2  -4 -18   14.70    1.81
   4  -2 -18   13.79    1.75
   4  -2 -18   17.03    1.54
  -2  -4  18   17.37    1.58
   2  -4 -19    0.06    1.03
  -4  -2  19   -0.79    1.08
  -2  -4  19    0.66    0.81
  -2  -4  19    0.54    1.06
  -4  -2  19    0.79    1.34
   4   2  19   -1.68    1.50
  -2  -4  19    0.97    1.29
   2   4  19   -0.11    1.40
  -2   4 -19    0.20    1.19
   4  -2 -19   -0.31    0.97
   2  -4 -19    1.32    1.30
   2  -4 -20    6.73    1.30
  -2  -4  20    4.98    1.44
  -2  -4  20    3.88    0.92
   4  -2 -20    6.32    1.16
  -2  -4  20    5.92    1.17
  -4  -2  20    7.15    1.38
  -4  -2  20    4.24    1.55
   2  -4 -20    6.57    1.58
  -2   4 -20    6.83    1.55
   2   4  20    9.01    1.78
   4   2  20    4.82    1.76
  -2   4 -21   -0.43    1.35
   2  -4 -21   -0.07    1.09
  -4  -2  21    1.70    1.24
  -2  -4  21    0.67    0.89
   4  -2 -21    0.06    1.05
   2  -4 -21   -0.22    1.39
   2   4  21    0.49    1.56
  -2  -4  21   -1.07    1.28
   4   2  21   -0.71    1.59
  -2  -4  21   -0.46    1.04
   2  -4 -22    5.44    1.30
  -4  -2  22    4.24    1.41
  -2  -4  22    6.10    1.18
  -2  -4  22    3.77    0.99
  -2  -4  22    4.19    1.56
   2   4  22    3.60    1.75
   4   2  22    6.98    1.95
  -4  -2  23    0.76    1.31
  -2  -4  23   -0.73    1.13
  -2  -4  23   -0.77    1.01
  -2  -4  23   -1.67    1.56
   2   4  23   -0.13    1.79
   4   2  23    0.62    1.76
  -4  -2  24    5.11    1.50
  -2  -4  24    3.24    1.19
   2   4  24    2.36    1.94
  -2  -4  24    2.29    1.16
  -2  -4  24    4.88    1.82
   4   2  24    2.07    1.86
  -4  -2  25   -0.54    1.37
  -2  -4  25   -1.44    1.17
  -2  -4  25    0.26    1.17
  -2  -4  25    0.79    1.67
   2   4  25    0.72    1.95
   4   2  25    0.71    1.76
   4   2  25   -0.49    1.94
   4   2  26    1.60    1.86
  -4  -2  26    0.91    1.41
   2   4  26    0.30    1.97
  -2  -4  26   -0.14    1.80
  -2  -4  27   -1.43    1.92
   2   4  27    0.93    2.09
   4   2  27    1.50    1.89
  -4  -2  27    0.37    1.42
   4   2  28    0.31    2.00
  -2  -4  28   -0.30    1.89
   2   4  28    2.55    2.20
   2   4  29    0.49    2.32
  -2  -4  29   -1.55    2.07
  -4   3  30    0.56    1.87
  -3   4  30   -2.12    2.25
  -4   3  29    1.88    1.91
  -3   4  29    1.25    2.12
  -3   4  28   -2.99    2.15
  -4   3  28   -0.11    1.76
   3  -4  28    0.17    2.29
  -4   3  27    1.80    1.70
   4  -3  27    2.18    2.14
   3  -4  27    1.31    2.26
  -3   4  27    0.66    2.00
   4  -3  26    0.60    1.97
  -4   3  26   -0.93    1.68
   3  -4  26    0.16    2.10
  -3   4  26   -0.13    1.95
  -4   3  25    4.72    1.81
  -4   3  25    1.41    1.63
   4  -3  25    4.69    2.06
   3  -4  25    2.14    2.12
  -3   4  25    1.01    1.86
   3  -4  24    0.15    1.91
   4  -3  24   -0.57    1.90
  -4   3  24    0.91    1.64
  -4   3  24   -1.08    1.57
   4  -3  24    0.49    1.99
  -3   4  24    1.22    1.79
  -4   3  23    3.60    1.72
   3  -4  23    5.29    2.00
  -4   3  23    2.35    1.55
  -3   4  23    0.47    1.69
   4  -3  23    2.86    1.99
  -4   3  22   -1.33    1.43
  -4   3  22   -0.24    1.46
  -3   4  22    1.72    1.59
   3  -4  22    0.53    1.80
   4  -3  22   -0.15    1.83
  -4   3  21    1.67    1.44
  -4   3  21    5.25    1.56
  -3   4  21    4.77    1.69
   3  -4  21    5.10    1.79
   4  -3  21    4.58    1.85
   3  -4  21    2.38    1.67
  -4   3  20    1.43    1.35
   4  -3  20   -0.43    1.65
   3  -4  20   -0.12    1.55
   3   4 -20    0.20    1.38
  -3   4  20    0.21    1.39
  -4   3  20    0.74    1.35
   3  -4  20   -0.65    1.59
  -4   3  19    8.55    1.53
  -4   3  19    6.02    1.48
   3  -4  19   11.35    1.98
  -3   4  19    8.27    1.68
   3   4 -19    9.28    1.58
   3  -4  19    8.45    1.81
   3  -4  19    5.76    1.70
  -3  -4 -19    6.64    1.53
   4  -3  19    9.56    1.94
   3  -4  19    5.28    0.49
   3  -4  18    0.89    0.58
   3   4 -18    1.45    1.28
  -4   3  18    0.53    1.25
  -4  -3 -18    0.59    1.46
  -3  -4 -18   -0.11    1.34
  -3   4  18    0.20    1.35
  -4   3  18   -0.41    1.26
   4  -3  18   -0.13    1.53
   4   3 -18   -0.43    1.48
   3  -4  18   -0.11    1.51
   3  -4  18   -1.04    1.66
   4   3 -17   19.54    2.07
  -4   3  17   18.40    1.91
  -4  -3 -17   17.25    1.96
  -3   4  17   13.69    1.81
  -3  -4 -17   14.89    1.96
   3   4 -17   16.67    1.83
   3  -4  17   18.43    2.17
   4  -3  17   18.08    2.09
   3  -4  17   17.28    2.09
   3  -4  17   16.74    1.21
  -4   3  17   17.51    1.89
   3  -4  16    0.32    0.76
  -3   4  16    0.65    1.24
  -3  -4 -16    0.21    1.31
  -4   3  16    0.28    1.16
  -3   4  16    1.63    1.12
  -4  -3 -16   -0.22    1.27
   3  -4  16    1.99    1.52
   3   4 -16   -0.09    1.20
   4  -3  16   -0.81    1.31
  -4   3  16    0.52    1.25
   3  -4  16    0.24    1.48
   4   3 -16   -0.10    1.35
  -4  -3 -15   30.25    2.43
   3   4 -15   33.22    2.34
  -4   3  15   28.16    2.25
  -3   4  15   27.01    2.31
   4   3 -15   32.59    2.51
  -3  -4 -15   29.40    2.40
   4  -3  15   33.22    2.58
   3  -4  15   28.71    2.49
  -3   4  15   31.88    2.29
   3  -4  15   28.91    2.55
   4   3 -15   25.43    1.70
  -4   3  15   31.46    2.31
   3  -4  15   39.15    1.92
   4  -3  15   31.58    1.70
   3  -4  14    0.12    0.81
   4  -3  14    1.05    0.63
   3   4 -14    0.16    1.09
  -3   4  14    0.80    1.13
  -4   3  14    0.08    1.04
  -4  -3 -14    1.08    1.22
   4   3 -14    0.90    1.40
  -3   4  14    1.19    1.19
   4  -3  14   -0.11    1.27
  -4   3  14    1.83    1.07
   3  -4  14    1.59    1.33
   3  -4  14    0.21    1.33
   3   4 -14    0.57    0.97
  -3  -4 -14   -0.18    1.13
   4   3 -14    1.84    0.81
  -3   4  13   25.36    2.10
  -3  -4 -13   25.52    2.06
   4   3 -13   24.79    2.22
   4  -3  13   24.83    2.17
   3  -4  13   27.69    2.16
  -4   3  13   23.30    1.93
   4   3 -13   22.65    1.62
   3  -4  13   21.95    2.19
   3   4 -13   19.84    1.75
  -3   4  13   24.88    1.95
   3   4 -13   24.51    1.97
   3  -4  13   27.43    1.70
  -4   3  13   24.69    1.95
   4  -3  13   25.10    1.51
  -4  -3 -13   24.94    2.10
  -4   3  12   -0.15    0.90
  -4   3  12   -1.28    1.05
   4   3 -12    0.90    1.17
   4  -3  12    0.11    0.67
   4   3 -12    0.95    0.88
  -4  -3 -12    1.69    1.10
  -3  -4 -12   -0.08    1.00
  -3   4  12    0.27    1.17
   3  -4  12   -0.10    1.29
  -3   4  12   -0.42    0.90
   3  -4  12    0.65    0.81
   4  -3  12    0.86    1.06
   3  -4  12    1.37    1.13
   3   4 -12    1.96    1.01
   3   4 -12    1.55    1.03
  -4  -3 -11   33.55    2.38
  -3  -4 -11   34.17    2.31
   4  -3  11   34.63    2.44
  -4   3  11   30.54    2.30
  -3   4  11   32.06    2.43
   3   4 -11   33.24    2.28
   4   3 -11   37.47    2.51
   3  -4  11   31.69    2.40
   3  -4  11   30.07    2.57
   3   4 -11   31.71    2.25
   3  -4  11   38.16    2.08
   4  -3  11   35.50    1.99
  -3   4  11   33.02    2.20
  -4   3  11   35.92    2.29
  -3   4  10    0.75    0.83
   3  -4  10    0.65    1.00
   3   4 -10    1.49    1.03
   4   3 -10    2.76    1.21
   4  -3  10    0.83    0.75
  -4   3  10    0.52    1.02
  -4  -3 -10    0.16    0.99
   3  -4  10    1.08    1.22
  -3   4  10    0.93    1.07
  -4   3  10   -0.37    0.85
   4  -3  10    0.44    1.03
  -3  -4 -10   -0.14    0.89
   3   4 -10    0.49    1.02
   3  -4  10    0.99    0.77
  -4   3   9   55.11    3.22
  -3  -4  -9   56.25    3.20
  -3   4   9   60.91    3.18
  -4   3   9   55.55    3.33
  -3   4   9   54.81    3.33
   3   4  -9   55.07    3.20
   4  -3   9   57.26    3.34
  -4  -3  -9   53.82    3.25
   4   3  -9   62.46    3.47
   3  -4   9   52.25    3.48
   3   4  -9   49.33    3.16
   4  -3   9   60.10    3.02
   3  -4   9   58.18    3.29
   4   3  -8   -0.08    1.09
   4  -3   8    0.09    0.76
   3   4  -8    0.25    0.86
   3   4  -8    0.95    0.98
  -4   3   8    0.72    0.90
   4  -3   8    0.56    0.93
  -4   3   8    1.09    1.01
  -4  -3  -8    0.22    0.97
  -3   4   8   -0.54    0.81
  -3  -4  -8   -0.12    0.82
   3  -4   8    0.76    0.91
  -3   4   8    0.71    0.97
  -3  -4  -7   73.70    4.04
   3   4  -7   78.18    4.07
  -3   4   7   86.48    4.12
  -4  -3  -7   70.36    4.12
  -4   3   7   82.52    4.22
  -4   3   7   74.17    4.16
  -3   4   7   76.71    4.26
   4   3  -7   88.31    4.34
   3  -4   7   76.28    4.10
   4  -3   7   72.95    4.18
   4  -3   7   80.52    3.97
   4  -3   6    0.59    0.80
   3   4  -6    1.27    0.69
  -3  -4  -6    0.93    0.79
  -4   3   6    1.26    0.92
  -3   4   6    1.87    0.90
   3   4  -6    1.01    0.93
   4  -3   6    1.29    0.95
   3  -4   6    0.06    0.82
   3  -4   5  109.58    5.44
   4  -3   5  113.61    5.69
   3   4  -5  106.64    5.25
   3  -4   5  117.33    5.74
   4   3  -5  100.70    5.04
   4  -3   5  117.26    5.63
   3   4  -5  127.09    5.54
   4  -3   5  123.11    5.44
   4  -3   4    1.46    0.85
   3  -4   4    0.70    1.12
   4  -3   4    1.58    1.14
   3  -4   4    0.15    1.01
   3   4  -4    2.04    0.95
   4  -3   4   -0.72    0.97
   3   4  -4    0.59    0.84
   3  -4   4   -0.70    0.83
   3   4  -3  134.41    6.25
   3  -4   3  128.05    6.13
   3  -4   3  122.87    6.35
   4  -3   3  130.98    6.31
   4  -3   3  131.40    6.51
   3   4  -3  120.22    6.08
   4  -3   3  129.80    6.35
   3  -4   3  120.17    6.12
   4   3  -3  144.85    6.50
   3  -4   3  118.07    6.42
   4  -3   3  127.21    6.17
   4  -3   2    1.19    0.85
   3   4  -2    3.80    1.01
   4  -3   2   -0.08    1.04
   3   4  -2    0.06    0.83
   4  -3   2   -1.12    0.97
   4  -3   2   -1.73    1.17
   3  -4   2   -0.15    0.79
   4   3  -2   -0.36    1.12
   3  -4   2    1.15    1.13
   3  -4   2   -0.89    0.85
   3  -4   2   -0.34    1.04
   4   3  -2   -2.09    1.21
   4  -3   1   86.20    4.60
   3   4  -1   88.04    4.52
   4  -3   1   86.12    4.73
   3  -4   1  104.72    4.91
   3   4  -1   87.77    4.51
   4   3  -1   91.60    4.79
   4  -3   1   82.18    4.63
   3  -4   1   92.30    4.49
   3  -4   1   93.96    4.83
   3   4  -1   98.69    4.62
   4  -3   1   88.16    4.51
   4   3  -1   96.10    4.72
   3  -4   1   81.18    4.37
   3   4   0    0.61    0.83
   4  -3   0    4.23    0.94
   4  -3   0    0.80    0.93
   4   3   0    2.31    1.13
   4  -3   0    5.23    1.12
   3  -4   0    0.43    0.71
   3  -4   0    5.73    1.25
   3   4   0    0.67    0.95
   3  -4   0    0.39    0.81
   4   3   0   -0.69    1.17
   4  -3   0   -1.10    1.01
   4  -3   0    5.32    1.24
   3  -4   0    5.78    1.31
   4   3   1   92.58    4.79
   4  -3  -1   86.76    4.71
   4   3   1   86.18    4.86
   4  -3  -1   93.08    4.90
   3  -4  -1  108.23    4.93
   3   4   1   96.80    4.71
   4  -3  -1   89.32    4.95
   3  -4  -1   91.48    4.57
   3  -4  -1  106.98    5.03
   3  -4  -1   90.02    4.58
   4  -3  -1   89.61    4.66
   3   4   1   96.48    4.70
   4  -3  -1   88.18    4.79
   3  -4  -2    2.76    1.17
   3   4   2   -0.10    0.84
   4  -3  -2    0.91    0.82
   4  -3  -2   -0.56    0.90
   3  -4  -2   -1.12    0.72
   4   3   2   -0.70    1.00
   4  -3  -2   -0.82    0.97
   3   4   2   -1.04    0.86
   3  -4  -2    1.49    1.02
   4  -3  -2    1.77    1.09
   4  -3  -2    0.69    1.05
   4   3   2   -0.26    1.01
   3   4   3  130.05    6.42
   4   3   3  126.69    6.53
   4  -3  -3  136.89    6.62
   3  -4  -3  148.91    6.68
   3   4   3  124.39    6.44
   3  -4  -3  137.16    6.41
   3  -4  -3  156.56    6.84
   4  -3  -3  128.77    6.67
   4  -3  -3  130.83    6.53
   4   3   3  134.53    6.71
   4  -3  -3  127.98    6.46
   4  -3  -4    2.28    0.87
   3  -4  -4    2.13    1.06
   3  -4  -4    0.09    0.70
   4  -3  -4    2.65    1.02
   4   3   4    0.87    1.04
   3  -4  -4    1.09    1.03
   3   4   4    0.93    0.83
   4  -3  -4    1.81    1.13
   3  -4  -5  139.56    6.32
   3  -4  -5  120.28    6.00
   4   3   5  130.97    6.34
   4  -3  -5  124.46    6.21
   3   4   5  119.48    6.12
   4  -3  -5  126.38    6.30
   3  -4  -5  139.62    6.36
   4  -3  -5  113.52    6.08
  -3  -4   6    0.70    0.69
   3  -4  -6    1.56    1.07
   3  -4  -6    1.07    0.77
   3   4   6    0.52    0.87
   4   3   6   -0.66    1.00
   4  -3  -6    1.50    0.87
   4  -3  -6    1.44    0.85
   4  -3  -6    1.77    1.09
   3  -4  -6    0.74    0.80
   4  -3  -6    1.43    1.06
  -3  -4   7   62.48    3.75
  -4  -3   7   70.13    3.91
   4  -3  -7   78.96    4.05
  -3   4  -7   83.49    3.98
   4  -3  -7   74.41    3.96
   3  -4  -7   83.37    4.16
   3   4   7   76.86    4.02
   4  -3  -7   83.18    4.17
   4   3   7   79.20    4.18
   3  -4  -7   72.56    3.83
   3  -4  -7   71.87    3.90
   4  -3  -7   68.21    3.88
  -4   3  -7   82.53    4.11
   4  -3  -8    2.17    1.07
   4  -3  -8    0.31    0.83
   3  -4  -8    0.27    0.77
   3  -4  -8    1.10    1.06
  -4   3  -8    0.60    0.95
  -4  -3   8   -0.07    0.84
   4   3   8   -0.52    0.94
   4  -3  -8    0.27    0.86
   3   4   8    1.20    0.95
  -3  -4   8   -0.30    0.69
   3  -4  -8   -0.29    0.77
  -3   4  -8    0.81    0.87
   4   3   9   58.86    3.37
  -4  -3   9   48.92    3.08
   3  -4  -9   56.14    3.11
   4  -3  -9   56.45    3.19
   3   4   9   61.79    3.30
   3  -4  -9   52.85    3.22
   4  -3  -9   56.06    3.23
  -4   3  -9   56.59    3.25
  -4  -3   9   58.41    3.25
  -3   4  -9   58.82    3.15
  -3  -4   9   49.13    2.96
   4  -3 -10    1.98    1.04
  -3  -4  10    0.67    0.75
  -4  -3  10    1.72    1.12
   4  -3 -10   -0.07    0.93
   3   4  10   -0.24    1.00
  -4   3 -10    0.80    0.98
  -4  -3  10    0.92    0.88
  -3   4 -10   -0.34    0.89
   4   3  10    0.57    1.13
   3  -4 -10    0.77    0.94
   4  -3 -11   32.34    2.26
   3  -4 -11   30.37    2.18
   4   3  11   38.59    2.57
   3   4  11   40.37    2.51
   4  -3 -11   33.53    2.29
  -4   3 -11   36.11    2.39
  -3  -4  11   31.85    2.12
  -3   4 -11   37.37    2.34
  -4  -3  11   35.40    2.36
  -4  -3  11   31.36    2.24
   4  -3 -12    1.21    0.97
   3  -4 -12   -0.34    0.93
  -4  -3  12    1.08    0.95
   4  -3 -12    0.78    0.98
   4  -3 -12    0.74    0.97
  -4  -3  12    1.19    1.04
   4   3  12    1.09    1.17
  -3   4 -12    2.35    1.03
  -4   3 -12   -0.34    0.99
   3  -4 -12    0.38    0.88
  -3  -4  12    0.39    0.84
   3   4  12    0.90    1.12
   3  -4 -13   22.90    1.85
   4  -3 -13   26.44    2.09
  -3   4 -13   24.48    2.00
   3   4  13   26.56    2.16
  -4   3 -13   24.33    2.05
  -3  -4  13   23.71    1.91
   3  -4 -13   24.29    1.86
   4   3  13   28.32    2.27
  -4  -3  13   24.84    1.93
   4  -3 -13   22.86    1.81
  -4  -3  13   23.96    1.92
   3  -4 -14    1.32    1.01
   4  -3 -14    0.07    0.94
  -3  -4  14    0.31    1.02
  -4  -3  14    1.24    1.06
  -4   3 -14   -0.09    1.07
  -3   4 -14    1.19    1.10
   4   3  14    1.01    1.28
   3   4  14    0.31    1.21
  -4  -3  14    0.51    1.04
   4  -3 -14    1.14    1.21
   3  -4 -14   -0.15    1.05
  -3  -4  15   34.74    2.32
  -4   3 -15   33.88    2.47
   3  -4 -15   27.42    2.26
   4  -3 -15   28.63    2.36
   4   3  15   33.56    2.62
   3   4  15   35.74    2.65
  -3   4 -15   36.59    2.51
  -3  -4  15   32.71    2.35
  -4  -3  15   33.36    2.44
   4  -3 -15   32.87    2.21
   3  -4 -15   29.56    2.19
  -4  -3  15   31.28    2.25
  -4  -3  16   -0.10    1.19
   3  -4 -16    0.74    1.09
   4  -3 -16    1.33    1.09
  -4  -3  16   -0.22    1.08
  -3  -4  16   -0.07    1.17
   4   3  16    0.48    1.38
  -3  -4  16    0.34    1.12
   3  -4 -16   -0.41    1.12
  -4   3 -16   -0.51    1.25
  -3   4 -16   -0.20    1.25
   4  -3 -16   -0.36    1.18
   3   4  16    1.61    1.42
   4   3  17   19.71    2.22
   4  -3 -17   18.25    1.94
  -4   3 -17   18.25    1.96
  -3  -4  17   17.09    1.84
  -3   4 -17   17.80    1.95
   3  -4 -17   13.93    1.74
  -3  -4  17   21.07    1.78
  -4  -3  17   20.31    2.05
   3   4  17   17.14    2.14
   3  -4 -17   18.53    1.69
   4  -3 -17   15.88    1.62
  -4  -3  17   18.29    1.77
   3  -4 -18   -0.78    1.17
   3  -4 -18   -0.28    1.06
   4  -3 -18   -0.07    1.05
  -4  -3  18    1.08    1.21
  -4   3 -18   -0.99    1.28
  -3  -4  18    0.57    1.15
  -4  -3  18   -1.77    1.43
  -3   4 -18   -0.10    1.30
   4  -3 -18   -0.29    1.28
   4   3  18   -0.26    1.50
   3   4  18    1.27    1.55
  -4  -3  19    7.91    1.43
  -3  -4  19    7.13    1.36
  -4  -3  19    6.69    1.60
   3   4  19    8.34    1.74
   3  -4 -19    6.54    1.42
  -3   4 -19    6.92    1.60
   3   4  19    5.26    1.77
   4   3  19    4.99    1.78
  -4  -3  20    0.84    1.23
  -3  -4  20    0.07    1.18
  -4  -3  20   -0.12    1.40
  -3   4 -20   -0.97    1.37
   3   4  20   -0.36    1.53
   4   3  20    1.44    1.73
  -4  -3  21    5.58    1.46
  -3  -4  21    2.91    1.33
  -4  -3  21    4.43    1.63
   4   3  21    4.93    1.93
   3   4  21    5.58    1.75
  -4  -3  22    0.88    1.34
  -3  -4  22   -0.43    1.25
  -4  -3  22   -1.02    1.56
   3   4  22    0.52    1.70
  -3  -4  22    0.41    0.52
   4   3  22    0.78    1.87
  -4  -3  23    3.93    1.50
  -3  -4  23    2.89    1.40
  -4  -3  23    1.72    1.75
  -3  -4  23    1.01    0.60
   3   4  23    1.49    1.81
   4   3  23    4.49    2.09
  -4  -3  24   -0.08    1.45
  -3  -4  24    1.13    1.33
  -4  -3  24    0.55    1.76
   3   4  24   -0.43    1.99
   4   3  24    0.43    1.79
   4   3  24    1.32    1.97
  -4  -3  25    2.61    1.53
  -3  -4  25    1.48    1.41
  -4  -3  25    3.43    1.99
   4   3  25    0.88    1.94
   3   4  25    2.53    2.08
  -4  -3  26   -0.44    1.92
   4   3  26   -0.15    1.94
   3   4  26    2.16    2.32
  -4  -3  26    0.73    1.51
  -4  -3  27    0.77    2.01
   4   3  27    0.47    2.00
   3   4  27    0.32    2.25
   3   4  28    0.99    2.22
  -4   4  29    0.67    2.18
  -4   4  28    0.13    2.05
  -4   4  27   -2.67    2.09
  -4   4  27    0.39    2.02
   4  -4  27   -1.77    2.37
  -4   4  26    0.29    1.89
  -4   4  26    0.75    1.96
   4  -4  26    1.25    2.14
  -4   4  25   -1.38    1.98
   4  -4  25   -2.58    2.13
  -4   4  25   -0.12    1.86
  -4   4  24    2.52    1.83
   4  -4  24    3.36    2.02
  -4   4  24    0.48    1.76
  -4   4  23    1.43    1.75
   4  -4  23   -0.28    1.89
  -4   4  23    1.52    1.85
   4  -4  22    2.89    1.86
  -4   4  22    3.02    1.80
   4  -4  22    1.43    2.00
  -4   4  22    1.75    1.67
  -4   4  21    0.60    1.63
  -4   4  21   -0.68    1.65
   4  -4  21   -0.46    1.93
   4  -4  20    4.31    1.96
  -4   4  20    4.90    1.70
  -4   4  20    3.34    1.61
  -4   4  19    0.76    1.50
  -4   4  19    1.64    1.46
   4  -4  19   -1.00    1.80
   4   4 -18   11.60    1.95
   4  -4  18   12.02    2.05
  -4   4  18    8.40    1.79
  -4   4  18    9.28    1.66
   4  -4  17    0.82    0.74
  -4  -4 -17   -0.45    1.47
  -4   4  17    0.50    1.40
  -4   4  17   -0.48    1.30
   4   4 -17   -0.84    1.51
   4  -4  17    1.55    1.65
  -4  -4 -16   18.88    2.08
   4   4 -16   20.48    2.15
  -4   4  16   21.61    2.08
   4   4 -16   15.29    1.48
  -4   4  16   17.49    1.87
   4  -4  16   19.43    1.35
   4  -4  16   18.34    2.25
   4  -4  15    0.11    0.84
  -4  -4 -15   -0.93    1.38
  -4   4  15    0.19    1.31
   4   4 -15    0.30    1.37
   4  -4  15   -0.46    1.47
   4   4 -15   -0.44    0.97
  -4   4  15   -0.26    1.09
   4  -4  14   24.04    2.31
  -4  -4 -14   27.62    2.21
  -4   4  14   19.32    2.01
   4   4 -14   22.23    2.22
   4  -4  14   27.64    1.71
   4   4 -14   21.99    1.84
  -4   4  14   21.49    1.98
   4   4 -13    4.00    1.19
   4  -4  13    0.46    0.91
  -4   4  13    0.32    1.06
  -4  -4 -13   -0.66    1.19
  -4   4  13    0.09    1.17
   4   4 -13    2.14    1.52
   4  -4  13    0.32    1.35
   4   4 -12   34.51    2.48
  -4   4  12   34.05    2.70
   4   4 -12   45.01    2.90
   4  -4  12   42.41    2.89
   4  -4  12   42.11    2.40
  -4  -4 -12   40.49    2.72
  -4   4  12   39.32    2.59
  -4   4  11    1.24    1.19
   4  -4  11    0.62    0.97
   4   4 -11    1.52    1.30
   4   4 -11    0.41    1.16
   4  -4  11   -0.87    1.45
  -4  -4 -11    1.04    1.15
   4  -4  11    1.97    1.25
  -4   4  11    0.47    1.01
  -4   4  10   42.16    2.71
  -4   4  10   38.78    2.82
  -4  -4 -10   39.21    2.75
   4   4 -10   45.53    2.91
   4  -4  10   37.30    3.00
   4  -4  10   40.44    2.81
   4  -4   9   -0.34    0.92
  -4   4   9    1.20    1.26
  -4  -4  -9    2.05    1.14
   4   4  -9    2.26    1.27
   4  -4   9    1.31    1.28
   4  -4   9    1.03    1.15
  -4   4   9    0.08    1.02
   4   4  -8   67.27    3.72
  -4   4   8   65.54    3.56
   4  -4   8   55.62    3.65
  -4   4   8   58.15    3.68
   4  -4   8   68.35    3.39
   4  -4   8   58.64    3.53
  -4  -4  -8   55.17    3.43
   4  -4   7    1.79    1.02
   4   4  -7    1.84    1.27
   4  -4   7    3.38    1.47
   4  -4   7    2.24    1.10
  -4   4   7    4.65    1.35
   4   4  -6   77.86    4.10
   4  -4   6   96.28    4.92
   4  -4   6   95.46    4.53
   4  -4   6   89.19    4.63
   4  -4   6   82.28    4.91
   4   4  -6  107.80    4.84
   4  -4   5    1.07    0.97
   4  -4   5    0.64    1.22
   4   4  -5    4.74    0.90
   4  -4   5   -0.07    0.97
   4   4  -5    2.61    1.25
   4  -4   5    1.06    1.40
   4   4  -4   80.34    4.02
   4  -4   4   69.57    3.78
   4  -4   4   71.69    3.75
   4  -4   4   68.50    4.05
   4   4  -4   69.43    3.53
   4  -4   4   66.28    3.80
   4  -4   4   65.10    4.10
   4  -4   3    1.10    0.94
   4  -4   3   -1.33    1.08
   4  -4   3   -0.09    1.15
   4   4  -3   -0.08    1.09
   4  -4   3    0.80    0.93
   4  -4   3    2.45    1.35
   4  -4   2   59.52    3.43
   4  -4   2   63.92    3.74
   4  -4   2   63.45    3.54
   4   4  -2   63.54    3.66
   4  -4   2   59.68    3.79
   4   4  -2   69.60    3.72
   4  -4   2   63.70    3.46
   4  -4   1    1.36    0.95
   4  -4   1   -2.28    1.11
   4   4  -1   -1.89    1.27
   4   4  -1   -1.26    1.22
   4  -4   1    1.50    1.35
   4  -4   1   -1.20    1.06
   4  -4   1    1.45    1.25
   4  -4   0  113.08    5.74
   4  -4   0  119.47    5.77
   4   4   0  110.80    5.57
   4  -4   0   98.37    5.38
   4  -4   0  104.70    5.37
   4  -4   0   98.83    5.36
   4   4   0  116.12    5.53
   4  -4  -1    1.46    0.96
   4  -4  -1    1.98    1.22
   4   4   1    1.36    1.28
   4   4   1   -1.15    1.03
   4  -4  -1   -1.42    1.03
   4  -4  -1   -0.19    1.21
   4  -4  -1   -1.55    1.17
   4   4   2   67.90    3.70
   4  -4  -2   64.90    3.63
   4   4   2   68.91    3.84
   4  -4  -2   72.72    3.85
   4  -4  -2   62.76    3.59
   4  -4  -2   71.93    3.95
   4  -4  -2   64.12    3.62
   4  -4  -3    0.65    0.90
   4  -4  -3   -0.93    0.92
   4   4   3    0.69    1.10
   4   4   3    0.78    1.14
   4  -4  -3    2.01    1.25
   4  -4  -3    1.21    1.28
   4   4   4   72.81    4.01
   4   4   4   68.65    3.87
   4  -4  -4   78.27    4.08
   4  -4  -4   72.95    3.87
   4  -4  -4   77.00    4.18
   4  -4  -4   65.98    3.84
   4  -4  -5    1.83    1.30
   4  -4  -5    0.60    0.93
   4  -4  -5   -0.42    0.88
   4   4   5    0.32    1.09
   4  -4  -5    0.65    1.20
   4  -4  -6  104.83    5.19
   4   4   6  104.75    5.21
   4  -4  -6   90.15    4.92
   4  -4  -6  100.08    5.25
   4  -4  -6   93.63    4.98
   4  -4  -7    3.11    1.33
   4  -4  -7    0.13    0.94
   4  -4  -7    2.68    1.05
   4   4   7    3.68    1.29
  -4  -4   8   52.80    3.15
   4  -4  -8   55.00    3.22
   4  -4  -8   61.63    3.29
   4  -4  -8   55.32    3.41
   4   4   8   62.31    3.50
   4  -4  -9    1.30    1.03
   4  -4  -9    1.06    1.20
  -4  -4   9    0.07    0.93
   4  -4  -9   -0.20    0.94
  -4   4  -9   -0.79    1.05
   4   4   9    0.09    1.16
   4   4  10   46.97    2.89
  -4  -4  10   34.52    2.48
   4  -4 -10   42.73    2.72
   4  -4 -10   35.82    2.50
  -4   4 -10   44.63    2.73
   4  -4 -11    0.68    1.06
   4  -4 -11    0.67    1.17
  -4   4 -11    0.25    1.10
   4   4  11    1.50    1.33
  -4  -4  11    1.92    1.03
  -4  -4  12   33.57    2.41
   4  -4 -12   33.08    2.48
  -4   4 -12   43.34    2.66
   4   4  12   38.86    2.79
  -4  -4  12   37.05    2.54
   4  -4 -13   -0.79    1.06
  -4  -4  13    1.43    1.26
  -4  -4  13    1.58    1.11
  -4   4 -13   -0.99    1.16
   4   4  13    2.98    1.42
   4  -4 -13    1.19    1.16
   4  -4 -14   19.75    1.96
   4   4  14   26.17    2.35
   4  -4 -14   25.71    1.97
  -4  -4  14   19.28    1.91
  -4   4 -14   25.87    2.17
  -4  -4  14   26.11    2.15
  -4  -4  15    0.91    1.22
  -4   4 -15    0.10    1.26
  -4  -4  15   -0.25    1.13
   4   4  15    0.60    1.47
   4  -4 -15    0.95    1.23
   4   4  16   19.59    2.26
  -4   4 -16   16.82    2.00
   4  -4 -16   17.80    1.93
  -4  -4  16   19.87    1.94
  -4  -4  16   19.82    1.89
  -4  -4  17    0.98    1.32
  -4   4 -17    0.11    1.36
   4  -4 -17    0.09    1.29
  -4  -4  17    0.86    1.26
   4   4  17    2.90    1.72
  -4  -4  18    8.61    1.56
  -4   4 -18   11.64    1.81
   4   4  18    8.05    2.08
  -4  -4  18    9.80    1.67
  -4  -4  19    2.32    1.43
  -4  -4  19    0.77    1.45
   4   4  19   -0.14    1.79
  -4  -4  20    4.86    1.51
  -4  -4  20    5.17    1.68
   4   4  20    5.41    1.98
  -4  -4  21    1.02    1.40
  -4  -4  21   -1.82    1.59
   4   4  21    1.55    1.94
  -4  -4  22    4.65    1.57
   4   4  22    3.74    1.98
  -4  -4  22    2.53    1.74
   4   4  22    4.48    2.17
  -4  -4  23    1.09    1.55
  -4  -4  23    0.26    1.74
   4   4  23    2.00    1.99
  -4  -4  24    3.37    1.68
  -4  -4  24    1.91    1.85
   4   4  24    2.95    2.18
  -4  -4  25   -0.94    1.59
  -4  -4  25    0.71    1.91
   4   4  25    1.07    2.12
   4   4  26    2.83    2.32
  -4  -4  26    0.86    1.89
  -4  -4  27   -1.94    2.04
   4   4  27    1.30    2.24
   0   5   0   17.48    1.64
   5   0   0   10.63    1.67
   5   0   0    7.24    1.62
   0   5   0   22.71    1.96
  -5   0   0   16.01    1.46
   5   0   1  272.65   12.16
   0   5  -1  259.64   12.09
   0   5   1  291.26   12.22
   5   0  -1  268.59   12.31
   0   5  -1  229.64   12.12
   0   5   1  257.11   12.22
   5   0   1  251.42   12.22
  -5   0  -1  219.05   11.81
   5   0  -1  284.99   12.17
   5   0  -2   -1.56    1.22
   0   5   2    9.39    1.42
  -5   0  -2    4.52    0.97
   5   0  -2   -3.05    1.39
   0   5  -2    0.56    1.10
   5   0   2   -2.56    1.38
   0   5   2    1.68    1.27
   0   5  -2    2.82    1.14
   5   0   2   -1.27    1.28
   5   0   3  180.38    8.60
   5   0   3  169.49    8.43
   5   0  -3  170.96    8.16
   0   5  -3  173.04    8.42
   0   5   3  210.70    8.64
   0  -5   3  159.92    8.20
   0   5  -3  155.84    8.42
   5   0  -3  189.06    8.51
  -5   0  -3  156.38    8.13
   0   5   3  191.17    8.63
   0   5   4    6.77    1.28
  -5   0  -4    4.16    0.93
   5   0  -4    3.02    0.95
   5   0   4    0.39    1.08
   5   0  -4   -0.09    1.18
   0   5   4    3.23    1.25
   0  -5   4    1.38    1.01
   0   5  -4    2.84    1.19
   5   0   5  124.17    5.87
  -5   0  -5  102.60    5.29
   5   0  -5  114.89    5.25
   0   5   5  129.83    5.77
   0  -5   5  100.65    5.37
   0  -5  -5  101.56    4.90
   5   0  -5  123.97    5.74
   0   5   5  111.46    4.92
   0   5   5  118.90    5.79
  -5   0   5  104.96    5.43
   0   5  -5   94.67    5.59
  -5   0   6    2.98    1.02
  -5   0  -6    1.89    0.82
   0  -5   6   -0.12    0.92
   5   0  -6    4.07    0.86
   5   0   6   -0.48    1.07
   0  -5  -6    0.83    0.48
   0   5   6    3.86    1.23
   0   5  -6    0.56    0.44
   0   5  -6    1.16    1.18
   0  -5  -7  128.23    5.87
  -5   0   7  122.83    6.33
   0  -5   7  115.44    6.11
   5   0  -7  123.71    5.93
   0   5   7  147.14    6.61
   0   5  -7  125.84    5.83
   0   5   7  132.91    5.84
   0   5  -7  110.21    6.37
  -5   0   7  121.60    6.23
  -5   0  -7  121.54    6.04
   5   0   7  130.65    6.53
  -5   0   8    1.05    0.96
  -5   0  -8    1.27    0.79
  -5   0   8    0.56    0.95
   0   5  -8    0.89    1.18
   0   5   8    1.14    0.63
   0  -5   8    0.32    0.52
   0  -5   8    0.58    0.91
   5   0   8    0.30    1.03
   0   5   8    0.78    1.26
   0   5  -8    1.35    0.64
   0  -5  -8    0.56    0.66
  -5   0  -8    0.82    1.04
  -5   0   9   95.75    5.12
   0  -5   9   90.78    4.89
   0   5   9  122.64    5.57
   0   5   9  107.64    4.75
   0  -5   9   82.43    4.60
   5   0   9  103.71    5.34
   5   0  -9  106.21    5.25
   0   5  -9   96.98    4.70
   0  -5  -9   98.97    4.76
   0   5   9   95.69    5.34
  -5   0  -9   97.08    5.13
  -5   0   9   99.62    5.02
  -5   0  -9   94.46    4.74
  -5   0  10    4.95    1.19
  -5   0 -10    2.71    0.79
   5   0  10    2.14    1.24
   0   5  10    3.03    1.39
   0   5  10    1.66    0.82
   0  -5  10    0.45    0.69
   0  -5 -10    2.08    0.83
   0  -5  10    1.79    1.08
   5   0 -10    3.92    1.27
   0   5  10    4.00    1.48
   0   5 -10    0.75    0.79
  -5   0 -10    0.88    1.05
  -5   0  10    2.82    1.15
  -5   0  11   49.73    3.20
  -5   0 -11   56.43    3.31
   5   0 -11   56.24    3.36
   0  -5  11   51.61    3.07
   5   0  11   57.19    3.43
   0  -5  11   49.63    2.86
  -5   0 -11   50.93    2.78
   0   5  11   54.21    2.93
   0   5 -11   57.25    2.98
   0  -5 -11   51.43    2.96
   0   5  11   55.38    3.52
  -5   0  11   51.37    3.12
   0   5  11   66.77    3.66
  -5   0  12    0.75    1.05
  -5   0 -12    0.30    0.65
   0   5  12    0.67    1.34
   0   5  12    0.29    0.85
   0  -5  12    1.07    0.79
   5   0 -12    0.96    1.24
   0  -5  12    0.51    1.03
  -5   0 -12    0.56    1.10
   0   5  12    0.44    1.36
   5   0  12   -0.22    1.14
   0   5 -12    0.48    0.89
   0  -5 -12    0.37    0.84
  -5   0  12   -0.36    0.97
   0  -5  13   32.08    2.24
   0   5  13   40.85    2.37
   0  -5  13   31.11    2.18
  -5   0 -13   35.79    2.57
   5   0 -13   43.42    2.77
   5   0  13   38.68    2.75
   0   5 -13   37.03    2.36
   0  -5 -13   36.55    2.31
   0   5  13   35.69    2.78
   5   0 -13   32.61    2.09
  -5   0 -13   35.94    2.01
  -5   0  13   38.55    2.45
  -5   0  13   38.49    2.55
  -5   0  14    1.23    1.05
  -5   0  14    1.21    1.08
   0   5  14    0.70    1.39
   0   5  14    1.21    1.03
   0  -5 -14   -0.35    0.95
   0  -5  14    0.95    0.91
   5   0 -14    0.69    1.23
  -5   0 -14    0.13    0.61
   0  -5  14    0.38    0.99
  -5   0 -14    0.20    1.10
   5   0  14    1.49    1.26
   0   5 -14    0.64    1.06
   5   0 -14    1.50    0.76
   0  -5  15   18.26    1.72
   5   0 -15   23.07    2.11
   0   5  15   21.39    1.86
   0   5  15   22.62    2.25
   0   5 -15   21.61    1.82
   5   0  15   23.67    2.18
  -5   0 -15   22.23    2.01
   5   0 -15   17.56    1.25
   0  -5  15   25.29    2.07
   0  -5 -15   19.61    1.75
   0  -5  15   20.49    1.70
  -5   0  15   23.51    1.88
  -5   0  15   21.01    1.91
  -5   0 -15   19.23    1.31
  -5   0  16    0.71    1.11
  -5   0 -16    0.90    0.60
   5   0 -16   -0.43    1.27
   0   5  16    0.25    1.15
   0   5  16   -0.36    1.49
   0  -5  16    0.53    1.07
   0  -5  16    0.83    1.33
   0  -5  16    0.81    1.12
   0   5 -16    0.33    1.06
   0  -5 -16   -0.71    1.06
   5   0  16    0.60    1.30
  -5   0 -16   -0.22    1.18
  -5   0  16    0.81    1.15
  -5   0  17   17.48    1.70
   0   5  17   17.34    1.83
   0   5  17   18.29    2.22
   0  -5  17   15.71    1.66
   0  -5  17   15.22    1.67
  -5   0  17   16.41    1.85
   0  -5 -17   16.77    1.68
   0   5 -17   15.36    1.73
   5   0  17   17.21    2.08
  -5   0 -17   13.67    1.04
   0   5 -18   -0.46    1.24
   0   5  18    0.68    1.36
   0   5  18    1.50    1.70
   0  -5  18   -0.35    1.18
  -5   0  18    0.22    1.21
   0  -5  18    0.63    1.13
   0  -5 -18   -1.05    1.13
   5   0  18    1.86    1.54
  -5   0 -18    0.70    0.51
  -5   0  18   -0.16    1.15
   0   5  19    9.10    1.92
   0   5  19   10.93    1.76
   0  -5  19    8.48    1.61
   0  -5  19    9.44    1.59
  -5   0  19   13.49    1.82
   0   5 -19   10.33    1.69
   0  -5 -19    8.63    1.56
   5   0  19   11.05    1.95
  -5   0  19   10.15    1.54
   0   5  20    1.16    1.73
   0   5  20   -0.22    1.51
   0  -5  20    0.40    1.35
   0  -5  20   -0.56    1.38
   5   0  20   -0.14    1.50
  -5   0  20    0.75    1.45
   0   5 -20    0.70    1.34
   0  -5 -20   -0.19    1.23
  -5   0  20    1.27    1.29
   0   5  21    3.64    1.93
   0   5  21    5.55    1.85
   0  -5  21    6.00    1.66
   0  -5  21    5.23    1.51
  -5   0  21    5.03    1.70
   0   5 -21    5.99    1.58
   5   0  21    7.06    1.89
   0  -5 -21    7.67    1.58
  -5   0  21    4.65    1.41
  -5   0  22    0.08    0.96
   0   5  22    1.83    1.90
   0   5  22   -0.24    1.69
   0  -5  22    0.11    1.54
   0  -5  22    1.26    0.99
   0  -5  22    0.90    1.43
  -5   0  22   -1.08    1.64
   0   5 -22    0.22    1.47
   0  -5 -22   -0.72    1.37
   5   0  22    0.45    1.79
  -5   0  23    2.21    1.10
   0   5  23    5.88    2.17
   0   5  23    4.06    1.91
   0  -5  23    1.56    1.71
  -5   0  23    4.91    1.91
   5   0  23    6.31    2.07
   0  -5  23    1.22    1.43
   0   5  24   -1.34    2.06
  -5   0  24    0.49    1.12
   0   5  24    1.06    1.92
   0  -5  24    0.51    1.70
   0  -5  24    0.58    1.51
  -5   0  24    0.87    1.72
   5   0  24    1.62    1.84
   0  -5  25    1.84    1.52
   0   5  25    6.28    2.24
  -5   0  25    3.29    1.86
   0   5  25   -0.14    1.92
   0  -5  25    1.99    1.84
  -5   0  25    2.19    1.17
   5   0  25    2.68    1.99
   0   5  26    0.41    2.17
  -5   0  26   -2.01    1.95
   0   5  26   -0.14    2.04
   0  -5  26    0.15    1.99
   5   0  26   -2.07    2.07
   0   5  27   -0.66    2.24
   0   5  27    0.16    2.17
   0  -5  27   -0.15    2.10
   0   5  28    0.78    2.27
   0   5  28    0.16    2.33
   0  -5  28    0.48    2.26
   0   5  29   -0.26    2.27
   0   5  29    0.50    2.37
   0  -5  29    0.17    2.36
   1  -5  29   -0.16    2.41
  -1   5  29   -0.16    2.23
   1  -5  28   -1.61    2.30
  -1   5  28    2.90    2.22
  -1   5  28   -1.36    2.18
   1  -5  27    0.31    2.21
  -1   5  27   -0.44    2.04
  -1   5  27    1.38    2.13
   1  -5  26    0.45    2.13
  -1   5  26    0.57    2.04
  -5   1  26    1.32    1.37
   5  -1  26    4.50    2.16
  -1   5  26   -1.28    2.18
   1  -5  25    0.74    2.06
  -1   5  25    0.82    1.87
  -5   1  25    0.07    1.31
   5  -1  25   -1.18    1.97
  -1   5  25    0.13    1.98
  -1   5  24    3.07    2.03
   1  -5  24    1.14    1.94
   1  -5  24    2.24    1.88
  -1   5  24    3.01    1.90
   5  -1  24    5.40    2.08
  -5   1  24    1.29    1.28
  -1   5  23   -0.25    1.91
   1  -5  23    0.70    1.77
  -5   1  23    0.06    1.24
  -1   5  23   -0.25    1.67
   5  -1  23    3.48    1.93
   1  -5  23    0.41    1.96
  -1   5  22    2.91    1.94
  -5   1  22    2.87    1.27
   1  -5  22    4.17    1.81
   5  -1  22    7.35    1.95
  -1   5  22    0.46    2.01
  -1   5  22    3.55    1.66
  -5  -1 -22    2.79    0.55
   1  -5  22    3.33    1.92
   1   5 -22    4.24    1.67
  -1   5  21    0.25    1.80
  -5  -1 -21    0.82    0.57
   1  -5  21    1.36    1.63
   1  -5  21    0.18    1.38
  -5   1  21    0.91    1.12
   5  -1  21    0.58    1.63
  -1   5  21    1.91    1.50
  -1  -5 -21    0.51    1.31
  -1   5  21   -1.20    1.91
   1   5 -21   -0.32    1.43
   1  -5  21   -0.61    1.71
  -1   5  20    5.70    1.92
  -5  -1 -20    5.11    0.74
   1  -5  20    4.63    1.70
   1  -5  20    3.75    1.48
  -5   1  20    4.95    1.25
  -1   5  20    6.25    1.65
  -1  -5 -20    4.13    1.45
  -1   5  20    7.42    2.10
   1   5 -20    5.66    1.57
   5  -1  20    6.25    1.82
   1  -5  20    3.61    1.69
  -1   5  19    0.37    1.66
   1  -5  19   -0.67    1.53
  -5  -1 -19    0.17    0.65
  -5   1  19   -0.31    1.13
   1   5 -19    0.58    1.29
  -1  -5 -19   -0.57    1.22
  -1   5  19    0.14    1.80
   5  -1  19   -0.27    1.49
  -1   5  19    0.10    1.32
   1  -5  19   -1.37    1.52
   1  -5  19   -1.23    1.38
  -1   5  18   11.12    2.00
   1  -5  18   13.09    1.91
  -5  -1 -18    8.23    0.93
   1  -5  18    8.96    1.63
  -1   5  18   13.23    1.65
  -5   1  18   10.39    1.40
  -1   5  18   13.56    2.14
  -1  -5 -18   11.04    1.63
   1   5 -18    8.49    1.56
   5  -1  18   11.44    1.86
   1  -5  18   10.30    1.68
  -1   5  17    1.67    1.65
   1  -5  17    1.42    1.47
  -5  -1 -17    0.34    0.71
  -5   1  17    1.95    1.09
   1  -5  17    2.53    1.37
  -1  -5 -17    0.78    1.13
  -1   5  17    3.60    1.84
   5  -1  17    1.27    1.46
   1   5 -17   -0.35    1.15
   1  -5  17    1.45    1.25
  -1   5  17    0.60    1.20
  -1   5  16   18.90    2.23
   1  -5  16   18.63    2.06
   1  -5  16   19.10    1.87
  -1   5  16   21.20    1.87
  -1  -5 -16   20.83    1.88
   1  -5  16   18.37    1.95
   1   5 -16   22.40    1.95
   5  -1  16   20.43    2.14
  -5  -1 -16   21.02    1.43
   1  -5  15   -0.09    1.33
  -5  -1 -15    0.37    0.75
  -5  -1 -15    0.64    1.16
  -1   5  15    1.62    1.06
  -1   5  15    1.73    1.45
  -1  -5 -15    1.17    1.07
   5  -1  15    0.23    1.25
   1  -5  15    0.91    1.33
   1   5 -15    0.62    1.14
   1  -5  15    1.18    1.14
   5   1 -15    0.13    0.47
  -5   1  15    0.83    1.06
  -1   5  14   27.76    1.92
   1  -5  14   21.94    2.02
   1  -5  14   19.29    1.85
  -5  -1 -14   23.80    2.15
   5  -1  14   26.65    2.29
   1   5 -14   25.48    1.94
  -1  -5 -14   25.18    1.94
  -1   5  14   25.56    2.39
  -5   1  14   26.28    1.97
   1  -5  14   27.52    2.25
  -5  -1 -14   27.83    1.68
  -1   5  13   -0.11    1.38
   1  -5  13    0.97    1.34
  -5  -1 -13    0.32    0.79
   1  -5  13   -0.45    1.14
   5  -1  13    1.12    1.25
  -1  -5 -13    1.44    1.04
  -1   5  13    0.30    0.89
   1   5 -13    0.61    0.98
   1  -5  13    0.13    0.92
  -5  -1 -13    0.79    1.18
  -5   1  13    1.71    1.06
   5  -1  12   47.34    3.17
   1  -5  12   46.93    2.93
   1  -5  12   41.28    2.68
  -5  -1 -12   47.40    3.03
  -1  -5 -12   43.41    2.73
  -1   5  12   53.70    2.77
   1   5 -12   50.51    2.79
  -1   5  12   44.67    3.19
   1  -5  12   42.97    3.02
  -5   1  12   47.16    2.86
  -5  -1 -12   50.13    2.64
  -1   5  11    0.43    1.27
   1  -5  11    0.70    1.21
  -5  -1 -11    1.29    0.82
   5  -1  11   -0.31    1.12
   1  -5  11   -0.64    1.03
  -5  -1 -11    0.18    1.06
  -1   5  11   -0.10    1.29
   1   5 -11    0.40    0.86
   1   5 -11    0.58    1.17
   1  -5  11    0.92    0.84
  -1  -5 -11    0.17    0.88
  -5   1  11    0.96    1.03
   5  -1  10   78.81    4.27
   1  -5  10   70.96    4.15
   1  -5  10   70.74    3.92
   1  -5  10   62.04    3.67
  -1   5  10   84.67    4.36
  -5  -1 -10   74.83    4.13
  -1  -5 -10   73.61    3.77
   1   5 -10   77.35    3.80
   1   5 -10   62.41    4.04
  -1   5  10   77.90    4.37
  -5   1  10   69.80    3.93
  -5  -1 -10   80.24    3.80
  -1   5   9    2.84    1.40
   1  -5   9    0.53    1.25
  -1   5   9    2.02    1.25
  -5  -1  -9    1.28    0.86
   5  -1   9    0.10    1.14
  -5  -1  -9    0.52    1.01
   1  -5   9   -0.43    1.00
  -1  -5  -9   -0.05    0.75
   1   5  -9    0.28    0.73
   1  -5   9    0.55    0.70
   1   5  -9    2.85    1.20
  -5   1   9    1.16    0.94
  -5  -1  -8   72.24    4.26
   5  -1   8   78.66    4.45
  -5  -1  -8   83.83    4.08
   1  -5   8   67.09    3.82
   1  -5   8   77.12    4.25
  -1   5   8   90.43    4.54
  -1  -5  -8   78.75    3.91
   1   5  -8   79.64    3.91
   1   5  -8   70.52    4.29
  -1   5   8   98.10    4.72
  -1   5   8   92.35    3.94
   1  -5   8   72.76    4.37
  -5   1   8   77.37    4.23
  -5   1   7    4.60    1.10
   1  -5   7    2.89    1.20
  -5  -1  -7    3.72    0.95
  -1  -5  -7    1.54    0.65
   1  -5   7    1.01    1.07
  -1   5   7    5.72    1.42
   5   1  -7    3.84    0.69
  -1   5   7    4.47    0.78
   5  -1   7    1.82    1.18
   1   5  -7    2.38    0.68
   1  -5   7    1.14    0.60
   1   5  -7    3.58    1.24
  -1   5   7    3.97    1.38
   5  -1   6  106.70    5.59
   1  -5   6   85.33    4.85
   5   1  -6  107.58    4.94
  -1   5   6  144.87    5.84
   1  -5   6  101.54    5.34
  -1  -5  -6  106.00    4.91
   1   5  -6  103.35    4.93
   1   5  -6   95.51    5.47
   1  -5   6  101.63    5.48
  -5   1   6   96.79    5.30
  -5  -1  -6  104.79    5.23
  -1   5   6  137.28    5.00
   1  -5   5    1.16    1.15
  -5  -1  -5    2.06    0.87
   5   1  -5    5.45    0.80
  -1   5   5    1.32    1.20
   1  -5   5    0.13    0.93
   5  -1   5   -1.40    1.17
   1   5  -5    2.40    0.53
   1  -5   5    0.12    0.44
   1   5  -5    4.62    1.30
   1   5  -4  105.72    4.42
   5   1  -4  106.12    4.69
   1   5  -4  103.50    5.09
   1  -5   4   85.58    4.38
   1  -5   4  104.44    5.01
   5  -1   4  116.44    5.35
   1   5  -4   98.16    4.42
   1   5  -4   95.72    5.18
   1  -5   4   88.72    4.38
  -5  -1  -4  115.78    4.98
   5  -1   4  104.77    4.83
   1   5  -3    7.27    1.40
   1   5  -3    3.76    1.12
  -5  -1  -3    2.75    0.94
   5  -1   3   -0.97    1.20
   5  -1   3    1.24    0.82
  -1   5   3    2.26    1.21
   5  -1   3   -1.22    1.20
   1  -5   3    1.06    0.99
  -1   5   3    4.85    1.29
   5  -1   2  133.37    6.85
   5  -1   2  141.01    6.81
   1   5  -2  131.69    6.65
  -1   5   2  166.19    6.90
   1  -5   2  136.25    6.64
  -1   5   2  172.01    7.06
   1   5  -2  107.10    6.66
  -5  -1  -2  122.06    6.50
   5  -1   2  128.65    6.47
  -5   1   1    4.11    0.97
   1  -5   1    1.47    1.07
   1   5  -1    7.13    1.31
  -5  -1  -1    5.30    1.03
   5  -1   1    1.63    0.89
   5  -1   1   -1.60    1.25
  -1   5   1   -0.25    1.08
   5  -1   1   -1.30    1.25
   1   5  -1    3.93    1.24
  -1   5   1    3.22    1.24
   5  -1   0  177.32    8.49
  -1   5   0  216.08    8.66
   1   5   0  175.60    8.52
   1  -5   0  199.09    8.45
   5  -1   0  167.65    8.57
  -1   5   0  204.29    8.75
   1   5   0  144.75    8.46
  -5   1   0  153.34    8.20
   5  -1   0  159.52    8.19
  -5   1  -1    4.11    0.91
   5  -1  -1    1.25    0.86
   5  -1  -1   -1.26    1.20
   5  -1  -1    2.83    1.10
  -1   5  -1    0.77    1.12
   5  -1  -1   -1.52    1.29
   1   5   1    5.34    1.29
  -1   5  -1    3.93    1.23
  -1   5  -2  145.77    6.63
   5  -1  -2  137.51    6.45
   1   5   2  120.82    6.48
   5  -1  -2  143.28    6.75
  -1   5  -2  140.78    6.77
   1   5   2  113.52    6.58
  -5   1  -2  117.12    6.24
   5  -1  -2  135.41    6.55
   5  -1  -2  128.46    6.32
  -5   1  -3    2.15    0.82
   5  -1  -3    5.21    1.03
   5  -1  -3    4.66    1.12
   5  -1  -3    1.12    1.20
   1   5   3    5.72    1.26
  -1   5  -3    3.17    1.27
   1   5   4  115.63    5.28
   5  -1  -4  119.95    5.72
   1   5   4  103.43    5.25
   1   5   4  121.81    5.99
   1  -5  -4  119.03    5.26
   1  -5  -4  135.90    5.32
  -1   5  -4  102.71    5.98
   5  -1  -4  135.94    6.10
   1   5   4  104.95    6.01
  -5   1  -4  109.10    5.60
  -5  -1   4  101.20    5.73
   5  -1  -4  112.71    5.71
  -5   1  -5    0.84    0.73
  -5  -1   5    1.31    0.98
   5  -1  -5    1.53    0.98
   1   5   5    2.41    1.31
   5  -1  -5    0.48    1.06
   5  -1  -5    1.08    1.00
   1   5   5    3.44    1.32
   1  -5  -5    0.59    0.49
   1   5   5    0.68    0.51
   1  -5  -6  117.44    4.93
  -1  -5   6   90.80    4.77
  -1   5  -6  112.77    4.87
   1   5   6  104.06    4.88
   5  -1  -6  102.81    5.10
   1   5   6  108.37    5.53
  -5   1  -6  100.70    5.05
  -5  -1   6  101.09    5.26
   5  -1  -6  106.98    5.23
  -5   1  -7    1.55    0.79
  -5  -1   7    1.96    1.03
   5  -1  -7    3.71    1.06
  -1  -5   7    1.75    0.94
  -5  -1   7    2.79    1.04
  -1   5  -7    0.68    0.61
   1   5   7    1.99    0.73
   5  -1  -7    3.21    0.98
   1   5   7    4.83    1.40
   1  -5  -7    1.50    0.68
  -1  -5   7    1.08    0.52
  -5  -1   8   84.14    4.25
   1   5   8   82.18    3.86
  -1  -5   8   71.21    3.98
   5  -1  -8   85.91    4.01
  -1   5  -8   88.40    3.84
   1  -5  -8   74.03    3.83
  -1  -5   8   68.67    3.68
  -5   1  -8   72.20    3.83
  -5  -1   8   72.95    4.10
   5  -1  -8   78.37    4.08
  -5  -1   9    2.90    1.06
  -1  -5   9    0.98    0.61
   1   5   9   -0.05    0.74
  -1   5  -9    0.80    0.76
  -5  -1   9   -0.74    0.96
   5  -1  -9   -0.08    1.02
  -1  -5   9   -0.11    0.90
   1  -5  -9    0.23    0.68
  -5   1  -9    0.64    0.68
  -5  -1  10   71.03    3.97
   5  -1 -10   70.13    3.79
   1   5  10   76.36    3.74
  -1  -5  10   67.02    3.68
  -5   1 -10   68.80    3.51
  -1   5 -10   76.31    3.66
   5  -1 -10   75.91    4.06
  -5  -1  10   68.10    3.86
   1  -5 -10   64.99    3.62
  -5  -1  11    1.13    1.10
   1   5  11    2.09    0.92
   5  -1 -11    0.44    1.14
  -1  -5  11    0.77    0.89
  -1   5 -11    0.80    0.84
   1  -5 -11    0.67    0.80
  -5  -1  11    0.43    1.01
   5  -1 -11    0.40    0.98
  -5   1 -11    0.78    0.62
  -5  -1  12   49.47    3.02
   1   5  12   51.58    2.86
  -1  -5  12   42.76    2.62
   5  -1 -12   53.85    3.15
  -1   5 -12   52.66    2.79
   1  -5 -12   46.42    2.72
   5  -1 -12   45.83    2.67
  -5   1 -12   43.50    2.40
  -5  -1  12   46.36    2.90
   5  -1 -12   45.26    2.79
  -5  -1  13    2.68    1.10
   5  -1 -13    1.63    1.06
   5  -1 -13    0.20    1.18
  -5  -1  13   -0.75    1.02
  -1  -5  13    0.69    0.95
  -1  -5  13    0.16    0.76
   1  -5 -13    0.79    0.93
   1   5  13   -0.50    1.05
   5  -1 -13    1.48    0.95
  -1   5 -13   -0.13    0.91
   1   5  14   27.91    2.08
  -1  -5  14   24.17    1.84
   5  -1 -14   24.18    2.17
  -1   5 -14   28.77    2.00
   1  -5 -14   25.65    1.94
   5  -1 -14   24.48    1.69
  -1  -5  14   23.99    1.80
  -5  -1  14   22.86    1.98
  -5  -1  14   27.75    2.15
   5  -1 -14   27.75    1.97
  -5  -1  15    0.49    1.08
  -5  -1  15    2.84    1.17
   5  -1 -15    1.02    0.80
   5  -1 -15   -0.70    1.26
   5  -1 -15    1.79    1.09
  -1  -5  15    0.23    1.01
  -1  -5  15    0.98    0.90
  -1   5 -15    0.83    1.04
   1  -5 -15   -0.07    1.02
   1   5  15   -0.50    1.15
  -1  -5  16   18.08    1.69
  -1   5 -16   20.80    1.89
  -1  -5  16   16.88    1.64
   1   5  16   25.40    2.08
   1  -5 -16   18.24    1.76
  -5  -1  16   19.84    1.84
  -5  -1  16   21.20    1.99
   5  -1 -16   22.61    1.80
  -5  -1  17    0.49    1.20
  -1  -5  17    0.23    1.02
   5  -1 -17    0.56    1.15
  -1  -5  17    1.48    1.05
  -1   5 -17   -0.26    1.12
   1  -5 -17    0.33    1.10
  -5  -1  17    1.07    1.29
   1   5  17    1.25    1.33
  -5  -1  18   12.71    1.64
   5  -1 -18   12.69    1.47
  -1  -5  18    8.91    1.25
  -1  -5  18    9.87    1.50
  -1   5 -18   11.70    1.65
  -5  -1  18    9.47    1.64
   1  -5 -18    8.59    1.51
   1   5  18   10.40    1.76
  -5  -1  19   -1.33    1.25
  -1  -5  19    0.74    1.02
  -1   5 -19   -0.19    1.22
  -1  -5  19   -0.36    1.19
  -5  -1  19   -0.12    1.38
   1  -5 -19    0.82    1.24
   1   5  19    1.98    1.58
  -5  -1  20    6.49    1.50
   1  -5 -20    4.88    1.42
  -1   5 -20    5.55    1.62
  -1  -5  20    2.21    1.12
  -5  -1  20    8.06    1.68
   1   5  20    7.50    1.84
  -1  -5  20    6.12    1.47
  -5  -1  21    0.95    1.40
  -1  -5  21    0.40    1.14
  -1  -5  21   -0.36    1.07
  -5  -1  21   -0.79    1.56
  -1   5 -21    0.84    1.35
   1  -5 -21    0.60    1.37
  -1  -5  21   -0.31    1.36
   1   5  21   -1.91    1.70
  -5  -1  22    5.03    1.52
  -1  -5  22    2.47    1.26
  -1  -5  22    4.40    1.21
  -1   5 -22    2.75    1.59
  -1  -5  22    3.92    1.61
  -5  -1  22    5.08    1.81
   1   5  22    3.29    1.95
  -1  -5  23   -0.15    1.08
  -1  -5  23   -0.06    1.20
  -1  -5  23   -0.92    1.60
  -5  -1  23    0.86    1.71
   1   5  23   -0.14    1.96
  -5  -1  23    1.28    1.42
  -1  -5  24    3.14    1.33
  -1  -5  24    1.58    1.65
  -5  -1  24   -0.15    1.82
  -5  -1  24    4.80    1.56
   1   5  24    2.89    2.14
  -1  -5  25    2.28    1.72
   1   5  25    0.30    2.07
  -5  -1  25   -0.15    1.90
  -5  -1  25    1.52    1.45
   1   5  26    0.47    2.20
  -5  -1  26    0.63    1.91
  -1  -5  26    0.66    1.81
   1   5  27    1.89    2.21
   1   5  27    2.15    2.38
  -1  -5  27   -0.70    1.93
   1   5  28    1.77    2.33
   1   5  28   -1.00    2.33
  -1  -5  28    2.32    2.09
   1   5  29   -3.10    2.36
   1   5  29    1.88    2.47
  -1  -5  29   -0.60    2.09
   1   5  30    0.71    2.44
   2  -5  29    2.29    2.52
   2  -5  28    0.65    2.32
  -2   5  27    4.03    2.49
  -5   2  27    1.42    1.65
  -2   5  27    0.90    2.01
   2  -5  27    0.97    2.24
  -2   5  26   -1.81    2.33
  -5   2  26    0.74    1.49
  -5   2  26   -0.60    1.99
   5  -2  26    2.12    2.20
  -2   5  26   -0.80    1.95
   2  -5  26   -1.07    2.22
  -5   2  25    0.43    1.79
  -5   2  25    1.38    1.52
  -2   5  25    2.89    2.25
   5  -2  25    3.80    2.18
  -2   5  25    1.72    1.95
   2  -5  25    0.44    2.05
  -5   2  24   -0.64    1.41
  -2   5  24    1.88    2.17
  -5   2  24    0.83    1.67
   5  -2  24   -1.50    1.94
   2  -5  24    0.71    2.02
  -2   5  24    1.86    1.94
  -5  -2 -23    3.35    0.84
  -5   2  23    0.95    1.38
  -5   2  23    2.67    1.71
  -2   5  23    4.26    2.14
   5  -2  23    3.08    2.06
   2  -5  23    4.10    2.00
  -2   5  23    3.15    1.89
  -5   2  22    0.90    1.53
  -5  -2 -22   -0.36    0.78
  -5   2  22   -0.47    1.35
  -2   5  22    0.59    2.03
   5  -2  22    0.62    1.82
   2  -5  22    0.39    1.79
  -2   5  22   -0.94    1.79
   2  -5  22   -0.59    1.90
  -5  -2 -21    4.55    0.93
  -5   2  21    4.65    1.47
  -2   5  21    1.98    1.75
  -5   2  21    3.86    1.56
   2  -5  21    5.24    1.88
   5  -2  21    5.95    1.98
   2   5 -21    3.99    1.63
  -2   5  21    5.17    2.02
   2  -5  21    3.13    1.93
  -5  -2 -20    0.28    0.87
  -5   2  20    1.24    1.33
  -2  -5 -20    0.32    1.32
  -2   5  20   -0.82    1.69
  -5   2  20    0.81    1.35
   2  -5  20    0.96    1.70
   5  -2  20   -1.14    1.70
   2   5 -20   -0.43    1.44
  -2   5  20    0.35    1.68
   2  -5  20   -0.23    1.76
  -5  -2 -19    7.25    1.09
  -5   2  19    5.87    1.45
  -2  -5 -19    6.88    1.59
  -2   5  19   10.55    2.03
   2  -5  19    8.36    1.92
  -5   2  19    7.36    1.60
   5  -2  19    7.17    1.81
   2   5 -19    8.44    1.68
  -2   5  19    7.06    1.93
   2  -5  19    4.69    1.82
   2  -5  18   -0.29    1.44
  -5  -2 -18    0.87    0.92
  -5   2  18    0.67    1.19
  -2  -5 -18    0.68    1.25
  -2   5  18    1.26    1.63
   2  -5  18    0.22    1.51
   5  -2  18    1.60    1.60
   2   5 -18    0.10    1.35
  -5   2  18   -0.10    1.25
  -2   5  18   -0.34    1.59
   2  -5  18    0.44    1.65
  -2   5  17   14.83    2.05
   2  -5  17   13.78    1.89
  -5   2  17   10.56    1.64
  -2  -5 -17   11.31    1.69
  -2   5  17   14.93    2.06
   2  -5  17   13.07    1.85
   5  -2  17   15.70    2.08
   2   5 -17   14.89    1.86
  -5   2  17   13.09    1.73
  -5  -2 -17   17.59    1.44
   2  -5  17   14.69    2.09
   2  -5  16   -0.57    1.37
  -5   2  16    1.36    1.21
  -5  -2 -16    2.18    1.09
  -5   2  16    1.01    1.28
  -2  -5 -16   -0.97    1.19
  -2   5  16    1.41    1.52
   2  -5  16    0.58    1.36
   5  -2  16    1.24    1.41
   2   5 -16    0.54    1.19
  -2   5  16    1.47    1.51
   2  -5  16    1.72    1.61
  -5  -2 -15   20.43    2.06
  -2  -5 -15   21.75    1.96
   2  -5  15   21.02    2.01
  -5   2  15   24.60    1.99
   2  -5  15   25.28    2.25
  -2   5  15   27.10    2.33
   5   2 -15   26.79    2.39
  -2   5  15   23.38    2.30
   2  -5  15   23.40    2.36
   5  -2  15   27.79    2.38
   2   5 -15   25.87    2.05
   5   2 -15   15.18    1.28
  -5   2  15   22.55    1.98
  -5  -2 -15   26.36    1.81
   5   2 -14    0.87    1.43
  -5  -2 -14    1.19    1.03
  -5   2  14    0.93    1.11
  -5   2  14   -0.21    1.11
  -5  -2 -14    0.42    1.24
  -2  -5 -14    0.08    1.09
  -2   5  14    0.33    1.40
   2  -5  14    1.83    1.48
   2  -5  14    1.07    1.14
   5  -2  14   -0.46    1.25
   2   5 -14   -0.08    1.13
  -2   5  14    1.22    1.44
   2  -5  14    1.15    1.56
   2   5 -13   35.11    2.25
   2  -5  13   31.25    2.33
   2  -5  13   32.87    2.58
  -2   5  13   37.33    2.67
   5   2 -13   39.13    2.78
  -2  -5 -13   35.18    2.42
   5  -2  13   32.62    2.67
   2   5 -13   35.57    2.38
   2   5 -13   29.22    2.41
  -2   5  13   31.32    2.67
  -2   5  13   35.90    2.31
   2  -5  13   33.19    2.71
  -5  -2 -13   39.00    2.31
  -5  -2 -13   32.19    2.54
  -5   2  13   31.88    2.44
  -5  -2 -12    0.39    1.16
   2  -5  12   -1.06    1.04
  -5  -2 -12    3.01    1.12
   5   2 -12    1.76    1.47
  -2   5  12    0.81    0.96
   2   5 -12   -0.48    1.16
  -2  -5 -12    0.50    1.02
   2   5 -12    0.36    0.92
   2  -5  12   -0.69    1.19
  -5   2  12    0.09    1.03
   5  -2  12    0.98    1.23
  -2   5  12    0.22    1.34
   2  -5  12    0.92    1.44
  -5   2  11   42.07    2.90
  -5  -2 -11   40.52    2.95
   2  -5  11   42.83    2.76
   2   5 -11   43.13    2.66
   2  -5  11   47.06    2.99
   5   2 -11   55.57    3.30
   5  -2  11   49.60    3.15
  -2  -5 -11   47.94    2.79
  -2   5  11   44.91    3.20
   2   5 -11   42.14    2.93
   2  -5  11   48.32    3.22
  -2   5  11   54.63    2.80
  -5  -2 -11   51.64    2.82
   2  -5  10    1.59    1.40
  -5  -2 -10    3.20    1.27
   5  -2  10    1.00    0.81
  -5  -2 -10    2.16    1.10
  -5   2  10    1.03    1.17
   2  -5  10    0.51    1.24
   2  -5  10    0.97    0.95
  -2  -5 -10    0.93    0.89
   5   2 -10    1.09    1.39
  -2   5  10    2.56    1.40
   2   5 -10    1.61    0.93
   5  -2  10    1.32    1.23
  -2   5  10    1.86    0.89
   2  -5  10    1.47    1.04
   2   5 -10    1.32    1.23
  -2  -5  -9   77.50    4.13
  -5   2   9   81.35    4.45
   2   5  -9   81.49    4.12
   2  -5   9   76.09    4.40
  -5  -2  -9   76.56    4.43
   5   2  -9   89.63    4.69
   2  -5   9   70.25    4.21
  -2   5   9   85.06    4.74
   2   5  -9   77.20    4.48
   2  -5   9   78.47    4.60
  -2   5   9   95.02    4.19
   5  -2   9   84.11    4.10
   5  -2   9   84.02    4.64
  -5  -2  -9   84.57    4.32
   2   5  -8    2.24    1.34
  -2  -5  -8    0.47    0.77
   2  -5   8    0.77    1.35
  -5   2   8    0.92    1.04
  -2   5   8    2.73    0.86
   5  -2   8    0.82    0.83
  -5  -2  -8    4.01    1.12
  -5  -2  -8    2.54    1.17
   2  -5   8    2.58    1.14
   5  -2   8   -0.49    1.15
   2   5  -8    1.34    0.79
   5   2  -8    1.53    1.32
   2  -5   8    0.30    0.87
  -2   5   8    1.05    1.22
  -2   5   7  129.48    5.05
  -5   2   7  101.47    5.29
   2   5  -7   96.36    4.87
   2  -5   7   92.94    5.25
  -2   5   7  121.80    5.60
  -2  -5  -7   92.03    4.86
  -2   5   7  120.75    5.68
   2  -5   7   89.85    4.97
   5  -2   7   97.08    5.40
   2  -5   7   92.96    5.39
   5  -2   7   96.84    4.94
  -5  -2  -7  107.57    5.21
   2   5  -7   94.49    5.33
   2  -5   6    2.05    1.28
   2   5  -6    5.37    1.39
   5  -2   6    1.06    0.83
   5  -2   6    0.84    1.06
  -5  -2  -6    4.97    1.20
   5   2  -6    5.00    0.44
  -2   5   6    2.65    0.86
   2  -5   6   -0.75    1.16
  -2   5   6    3.60    1.30
   2   5  -6    2.46    0.78
   2  -5   6   -0.49    0.85
  -2   5   6    0.64    1.27
   2   5  -5   98.48    5.20
   2   5  -5   94.83    4.86
   2  -5   5  110.47    5.40
   5  -2   5  116.28    5.57
   2   5  -5   88.99    5.34
   2  -5   5   98.66    4.96
   5  -2   5   98.52    5.02
  -5  -2  -5  106.67    5.27
   2   5  -4    5.71    1.44
   5  -2   4    1.77    0.86
  -5  -2  -4    7.54    1.23
   2  -5   4    0.86    1.13
   2   5  -4   -0.03    0.64
   5  -2   4   -1.43    1.30
   2   5  -4    2.58    1.15
   5   2  -4    0.09    1.41
   2  -5   4   -0.31    0.77
  -2   5   4    2.80    1.26
   2  -5   4   -0.06    0.64
   2   5  -4    4.63    0.74
   5  -2   3  144.41    6.82
  -2   5   3  182.57    7.03
   2   5  -3  128.30    6.56
   2   5  -3  125.50    6.20
   5   2  -3  162.52    7.15
   2   5  -3  138.54    6.24
   2  -5   3  130.95    6.25
   5  -2   3  143.67    6.87
   2   5  -3  113.79    6.71
   5   2  -3  150.24    6.94
   2  -5   3  123.97    6.13
   5  -2   3  129.41    6.43
  -5  -2  -3  131.11    6.62
   2  -5   2    2.52    1.23
   5  -2   2    1.93    0.92
  -5  -2  -2    7.47    1.26
   2  -5   2   -1.58    0.63
   5  -2   2    2.35    1.19
   2   5  -2    5.49    1.35
   5   2  -2   -1.75    1.56
  -2   5   2    1.38    1.23
   2   5  -2    4.99    0.76
   5  -2   2   -2.10    1.32
   2   5  -2   -0.06    0.65
   5  -2   2   -2.84    1.43
   2  -5   2   -1.11    0.70
   2   5  -2   13.46    1.68
   5   2  -2    0.17    1.32
   5  -2   1  131.57    6.82
   5  -2   1  136.43    6.76
  -2   5   1  194.05    7.15
   5  -2   1  146.56    6.83
   2   5  -1  135.12    6.72
   5   2  -1  127.64    6.90
   2   5  -1  112.42    6.18
   2   5  -1  128.08    6.21
  -2   5   1  185.53    7.26
   2  -5   1  168.10    6.99
   2   5  -1  116.41    6.78
   5  -2   1  132.24    6.50
   5   2  -1  138.24    6.77
   2  -5   1  134.42    6.22
  -5  -2  -1  133.80    6.68
  -2   5   0    7.83    1.32
   2  -5   0    9.01    1.47
   5  -2   0    6.54    1.11
   2   5   0   17.17    1.55
   5  -2   0    9.07    1.52
   2  -5   0    1.01    0.57
   5  -2   0    2.68    1.29
   5  -2   0    1.91    1.27
   5   2   0    2.48    1.38
   2   5   0    0.44    0.81
   2  -5   0    0.10    0.65
   2   5   0   -1.66    0.77
   5   2   0    2.99    1.35
   5   2   1  131.28    6.96
   5  -2  -1  137.20    6.96
   2   5   1  129.62    6.94
   5  -2  -1  140.55    7.12
   2  -5  -1  149.47    6.49
   5   2   1  138.24    7.16
   2  -5  -1  140.99    6.44
   2   5   1  137.58    6.51
   5  -2  -1  134.25    6.98
   5  -2  -1  125.77    6.76
   2  -5  -2    0.83    0.58
   5  -2  -2    1.42    0.93
   2  -5  -2    1.44    1.13
   2  -5  -2   -0.29    0.56
   2   5   2   -1.08    0.66
   5  -2  -2   -0.55    1.25
   5   2   2   -1.87    1.39
   2  -5  -2    0.15    1.07
   5   2   2    0.32    1.25
   5  -2  -2   -1.92    1.32
   5  -2  -2    2.92    1.12
   5   2   3  130.13    7.29
   5  -2  -3  157.98    7.34
   2  -5  -3  173.95    6.89
   2   5   3  126.59    7.30
   5  -2  -3  144.64    7.46
   5   2   3  147.49    7.52
   2   5   3  137.30    6.90
   2  -5  -3  189.31    7.56
   5  -2  -3  145.32    7.38
   5  -2  -3  128.33    7.12
  -5  -2   3  125.61    7.20
   2   5   3  146.32    6.88
   2  -5  -3  160.54    6.86
   2   5   4    5.72    0.92
   5  -2  -4    1.02    0.91
  -5  -2   4    4.42    1.16
   5  -2  -4   -0.64    1.18
   2  -5  -4   -0.03    0.52
   5  -2  -4    4.18    1.22
   5   2   4    0.20    1.28
   2   5   4   -0.15    0.76
   2  -5  -4    1.63    0.63
   5   2   5  124.59    6.03
   2  -5  -5  123.67    5.30
   5  -2  -5  110.35    5.59
   2   5   5  105.39    5.36
   5  -2  -5  102.30    5.54
  -5  -2   5  100.92    5.61
   5  -2  -6    1.43    1.03
  -5  -2   6    3.62    1.15
   5  -2  -6    2.26    1.09
   5   2   6    1.30    1.21
   2   5   6    1.49    0.83
   2  -5  -6    1.49    0.69
   5  -2  -6    4.30    1.28
  -2  -5   7   87.05    4.78
   2  -5  -7  110.39    4.91
   5  -2  -7  102.52    5.16
   2   5   7   96.43    5.01
  -2   5  -7  111.66    4.96
   5   2   7  118.79    5.63
   5  -2  -7   99.64    5.30
   5  -2  -7   98.15    5.12
  -5  -2   7   99.62    5.20
   5  -2  -8    1.60    1.01
  -5  -2   8    1.88    1.06
  -5  -2   8    1.19    1.04
  -2   5  -8   -0.05    0.80
   2  -5  -8    0.77    0.74
   5   2   8   -0.62    1.26
   5  -2  -8    3.40    1.11
   5  -2  -8    0.41    1.02
  -2  -5   8    1.14    0.66
   2   5   8    1.64    0.96
   5  -2  -8    1.46    1.21
  -5   2  -9   83.36    4.42
  -5  -2   9   76.10    4.32
   2  -5  -9   83.38    4.02
  -2   5  -9   90.61    4.12
   5  -2  -9   80.14    4.35
   2   5   9   76.84    4.19
   5   2   9   89.08    4.68
   5  -2  -9   87.21    4.36
   5  -2  -9   82.00    4.22
  -5  -2   9   77.13    4.29
  -2  -5   9   65.52    3.87
   5  -2 -10    0.76    1.20
  -5  -2  10    1.68    1.14
  -5  -2  10    0.85    1.07
   2   5  10    2.29    1.02
  -2   5 -10    0.11    0.87
   2  -5 -10    1.24    0.82
   5   2  10    0.43    1.22
  -5   2 -10    0.09    1.07
   2   5  10    2.15    1.09
  -2  -5  10    1.68    0.74
   5  -2 -10    3.56    1.24
  -5  -2  11   39.63    2.80
   2   5  11   45.73    2.70
   2  -5 -11   41.80    2.52
  -5   2 -11   46.84    2.93
  -2   5 -11   47.77    2.67
   5  -2 -11   46.47    2.95
   5   2  11   52.65    3.19
   5  -2 -11   46.38    2.78
  -2  -5  11   37.95    2.44
  -5  -2  11   45.42    2.82
   5  -2 -12    0.46    1.07
   2   5  12   -0.07    1.03
  -5  -2  12    1.12    1.12
   5  -2 -12   -0.09    1.16
  -2  -5  12    0.45    0.84
   2  -5 -12    0.85    0.87
  -5   2 -12   -0.57    1.10
  -2   5 -12    0.20    0.99
   5   2  12    0.12    1.36
  -5  -2  12    1.53    1.08
   2  -5 -13   31.95    2.12
   2   5  13   35.89    2.36
  -2  -5  13   30.24    1.97
  -5   2 -13   33.43    2.49
   5   2  13   34.35    2.70
   2  -5 -13   28.18    2.15
  -2  -5  13   28.85    2.06
   5  -2 -13   29.87    2.17
   5  -2 -13   34.07    2.48
  -2   5 -13   35.01    2.30
  -5  -2  13   33.22    2.35
   5  -2 -13   33.99    2.25
  -5  -2  13   34.83    2.45
   5  -2 -14    0.76    1.01
  -5  -2  14    1.61    1.17
   5  -2 -14   -0.20    1.00
   5  -2 -14    1.23    1.30
  -2  -5  14    1.13    0.90
  -5  -2  14    0.78    1.16
  -2   5 -14   -0.46    1.06
   2   5  14    1.74    1.22
  -2  -5  14   -0.48    0.89
  -5   2 -14    1.22    1.20
   5   2  14    0.85    1.41
   2  -5 -14    1.05    1.00
   2   5  15   24.93    2.12
  -2  -5  15   19.76    1.58
   5  -2 -15   24.23    2.18
  -5   2 -15   23.50    2.15
  -2   5 -15   21.75    1.98
   5   2  15   29.84    2.45
   2  -5 -15   25.15    1.92
   5  -2 -15   18.85    1.63
  -5  -2  15   21.38    1.92
   5  -2 -15   24.32    1.85
  -5  -2  15   20.45    2.00
  -5  -2  16    0.52    1.21
  -5  -2  16    1.69    1.32
   5  -2 -16    2.28    1.14
  -2   5 -16    0.25    1.14
  -2  -5  16    0.13    0.87
   2   5  16    0.10    1.31
   5   2  16    2.07    1.53
   2  -5 -16    1.26    1.17
  -2  -5  17   12.54    1.31
  -2   5 -17   14.81    1.73
   2   5  17   15.60    1.96
   5   2  17   13.35    2.05
   2  -5 -17   12.98    1.71
  -5  -2  17   16.76    1.82
  -5  -2  17   14.91    1.83
   2  -5 -17   14.00    1.60
  -5  -2  18   -0.43    1.27
  -2   5 -18    0.10    1.26
  -2  -5  18   -0.26    0.90
   2   5  18   -0.65    1.58
   5   2  18   -1.11    1.55
   2  -5 -18   -0.74    1.32
  -5  -2  18   -0.79    1.45
  -5  -2  19    6.95    1.56
  -2  -5  19    9.29    1.44
  -2  -5  19    6.73    1.10
  -2   5 -19    7.72    1.68
   2   5  19    9.16    1.87
   5   2  19    8.41    1.95
  -5  -2  19    7.95    1.72
   2  -5 -19    8.60    1.61
  -5  -2  20    0.09    1.36
  -2  -5  20    1.47    1.28
  -2  -5  20    1.64    0.97
  -2   5 -20    0.74    1.43
  -5  -2  20    0.25    1.48
   2   5  20    0.83    1.60
   5   2  20    0.88    1.67
   2  -5 -20   -0.91    1.40
  -5  -2  21    5.90    1.61
  -2  -5  21    5.44    1.37
  -2  -5  21    2.95    1.11
  -2   5 -21    4.41    1.56
  -5  -2  21    3.39    1.63
   2   5  21    4.73    1.93
   5   2  21    2.76    1.85
  -5  -2  22    0.64    1.51
  -2  -5  22   -0.06    1.20
  -2  -5  22    0.29    1.05
  -5  -2  22    0.95    1.61
   5   2  22    2.24    1.88
   2   5  22   -1.29    1.85
  -5  -2  23    2.27    1.56
  -2  -5  23    5.13    1.37
  -5  -2  23    3.02    1.88
   5   2  23    3.33    2.07
   2   5  23    2.17    2.00
  -5  -2  24    1.28    1.58
  -5  -2  24   -0.45    1.81
   5   2  24    0.69    2.00
   2   5  24    0.14    2.00
  -5  -2  25    0.18    1.64
  -5  -2  25   -0.16    1.94
   5   2  25    1.95    2.12
   2   5  25   -0.87    2.12
  -5  -2  26   -0.32    2.01
   5   2  26    1.09    2.25
   2   5  26   -2.41    2.23
  -5  -2  26    1.62    1.62
   2   5  27    0.95    2.28
  -5  -2  27    1.43    1.71
   2   5  28    0.16    2.44
  -5   3  28    1.01    1.76
   3  -5  28    0.33    2.54
  -3   5  27    0.15    2.24
   3  -5  27   -1.78    2.37
  -5   3  27   -0.10    1.69
  -3   5  26   -0.88    2.15
   3  -5  26    3.79    2.36
  -5   3  26   -1.27    1.68
  -3   5  25   -0.86    2.07
  -5   3  25    0.28    1.85
   3  -5  25    4.93    2.41
   5  -3  25   -1.42    2.25
  -5   3  25   -1.05    1.65
  -5  -3 -24    1.10    1.07
  -3   5  24    2.37    1.99
  -5   3  24    1.75    1.77
   3  -5  24    4.01    2.31
   5  -3  24    2.77    2.27
  -5   3  24    0.76    1.57
  -5  -3 -23   -0.15    1.13
  -5   3  23    1.03    1.56
  -3   5  23    1.49    1.88
   3  -5  23   -1.86    2.03
  -5   3  23    1.04    1.64
   5  -3  23   -0.67    2.01
  -5   3  22    3.50    1.58
  -3   5  22    4.63    1.80
  -5  -3 -22    3.09    1.14
  -3   5  22    3.57    1.92
   3  -5  22    0.55    1.94
  -5   3  22    4.54    1.69
   5  -3  22    2.75    2.14
  -3   5  21   -0.34    1.55
  -5   3  21   -0.37    1.47
  -3   5  21    0.90    1.78
   3  -5  21   -0.92    1.81
  -5   3  21    0.83    1.52
   5  -3  21   -1.08    1.90
  -3   5  20    1.51    1.51
  -3   5  20    4.13    1.83
  -5   3  20    4.71    1.62
   3  -5  20    4.68    1.91
   5  -3  20    6.09    1.95
  -5   3  20    2.03    1.46
   3   5 -19    0.48    1.44
  -3   5  19   -0.10    1.37
  -5   3  19    0.36    1.42
  -3   5  19    1.97    1.72
  -3  -5 -19   -1.02    1.52
   3  -5  19    1.18    1.63
   5  -3  19   -0.85    1.70
   3   5 -19    0.22    1.55
  -5   3  19   -0.65    1.34
  -5   3  18    9.35    1.61
  -3   5  18    7.94    1.64
   3   5 -18    6.87    1.54
   3  -5  18   10.24    1.87
  -3   5  18    7.58    1.90
  -3  -5 -18    5.21    1.63
   5  -3  18    9.21    1.93
  -5   3  18    7.25    1.59
   3  -5  17    0.91    1.07
  -5   3  17    0.81    1.30
  -3   5  17    1.91    1.33
  -5   3  17    1.75    1.36
   3  -5  17   -0.11    1.50
   3   5 -17   -0.62    1.27
  -3   5  17    0.59    1.61
  -3  -5 -17   -0.51    1.37
   5  -3  17    2.65    1.64
  -5   3  16   14.75    1.75
  -5   3  16   15.34    1.86
  -3   5  16   14.50    1.74
   3   5 -16   14.63    1.75
   5   3 -16   10.01    1.04
   5  -3  16   18.96    2.21
  -3  -5 -16   13.28    1.81
   3  -5  16   16.30    2.03
   3  -5  16   14.58    1.47
  -3   5  16   15.68    2.04
   3  -5  16   16.30    1.97
   3  -5  16   15.24    2.11
   5   3 -15    0.96    0.90
   5   3 -15    0.49    1.61
  -5   3  15    1.36    1.17
  -5   3  15    1.01    1.35
  -5  -3 -15    0.78    1.41
  -3   5  15   -1.17    1.56
  -3  -5 -15    0.19    1.25
   3   5 -15    1.38    1.19
  -3   5  15    0.17    1.16
   5  -3  15    0.25    1.44
   3   5 -15   -1.46    1.20
   3  -5  15    1.47    1.56
   3  -5  15    0.67    1.60
   3  -5  15    1.17    1.01
  -5   3  14   19.23    1.87
   5   3 -14   19.79    2.27
  -3  -5 -14   18.18    1.89
   3   5 -14   20.98    1.90
  -5   3  14   18.81    1.97
  -3   5  14   21.67    2.22
   3  -5  14   18.27    2.15
  -5  -3 -14   17.33    2.06
   5  -3  14   22.67    2.21
   5   3 -14   16.71    1.54
   3  -5  14   17.29    2.08
  -3   5  14   22.28    1.85
   3  -5  14   21.18    1.64
   3   5 -14   16.59    1.81
   3  -5  14   17.65    2.18
   5  -3  14   20.82    1.44
   5   3 -13    0.11    1.58
   5  -3  13    0.08    0.85
  -5   3  13    0.78    1.29
   3  -5  13    0.11    1.47
  -3  -5 -13   -0.17    1.15
  -5   3  13    1.10    1.20
   3   5 -13    0.08    1.10
   5  -3  13    0.80    1.36
  -3   5  13   -0.34    1.44
   3  -5  13    0.51    1.37
   3   5 -13   -0.86    1.29
  -3   5  13    0.29    1.02
  -5  -3 -13    0.53    1.30
   3  -5  13    1.54    1.55
  -5   3  12   29.10    2.25
   3   5 -12   25.52    2.27
  -5   3  12   24.40    2.22
   3  -5  12   31.56    2.56
   3   5 -12   32.15    2.20
  -3   5  12   24.49    2.44
  -5  -3 -12   29.24    2.35
  -3  -5 -12   28.06    2.15
   5  -3  12   29.87    2.49
   5   3 -12   34.33    2.63
   3  -5  12   29.45    2.39
   3  -5  12   27.99    2.49
  -3   5  12   31.56    2.14
   5  -3  12   28.87    1.84
  -3  -5 -11    0.80    1.04
   5  -3  11    0.49    0.83
   5   3 -11    2.66    1.59
  -3   5  11    1.30    1.04
  -5   3  11    0.81    1.13
   3  -5  11    2.04    1.49
  -3   5  11   -1.93    1.34
   5  -3  11    0.54    1.26
   3   5 -11    1.64    1.12
   3  -5  11    1.87    1.26
   3  -5  11    3.23    1.51
  -5  -3 -11    1.07    1.22
   3   5 -11    0.44    1.35
  -3   5  10   42.99    2.53
  -5  -3 -10   39.31    2.73
  -5   3  10   40.12    2.70
   3  -5  10   39.43    2.81
  -3   5  10   40.98    2.82
   3   5 -10   37.63    2.48
  -3  -5 -10   39.24    2.49
   5   3 -10   45.29    3.04
   5  -3  10   41.72    2.84
   3  -5  10   34.37    2.59
   3  -5  10   37.20    2.92
   3   5 -10   36.56    2.80
   5  -3  10   41.08    2.33
   3   5  -9    1.43    1.35
   5  -3   9    0.81    0.90
  -5   3   9    0.70    1.10
  -5  -3  -9    1.53    1.29
  -3   5   9    0.38    1.00
   3  -5   9   -0.76    1.27
  -3  -5  -9    0.95    0.94
  -3   5   9    0.29    1.15
   5   3  -9    0.92    1.50
   5  -3   9    0.59    1.19
   3  -5   9   -0.38    1.10
   3   5  -9    1.23    1.02
   3  -5   9    1.47    1.40
  -3   5   8   66.91    3.24
   3  -5   8   51.85    3.41
   3   5  -8   55.29    3.13
  -3  -5  -8   50.80    3.07
   5  -3   8   52.13    3.42
   5   3  -8   64.54    3.68
   3  -5   8   53.80    3.24
   3  -5   8   54.00    3.58
   3   5  -8   50.80    3.47
   5  -3   8   58.64    3.09
   3   5  -7    2.89    1.13
   5  -3   7    2.55    1.01
   3   5  -7    4.08    1.50
   5  -3   7    0.77    1.16
   5   3  -7    2.66    1.50
   3  -5   7    1.01    1.03
   3   5  -6   70.62    4.03
   3   5  -6   82.34    4.14
   5  -3   6   81.40    4.47
   3  -5   6   83.92    4.20
   3   5  -6   79.68    4.53
   5  -3   6   83.17    4.15
   5  -3   5    1.92    1.01
   3   5  -5    3.79    1.01
   3   5  -5    8.16    1.64
   3  -5   5    0.46    0.83
   5   3  -5    6.46    0.74
   5  -3   5    0.09    1.26
   3   5  -5    3.28    1.12
   3   5  -5    0.22    0.86
   5  -3   5    0.63    1.15
   3  -5   5   -1.03    0.95
   3  -5   4   84.62    4.23
   5  -3   4   82.45    4.62
   5  -3   4   78.43    4.70
   3   5  -4   78.31    4.36
   5   3  -4   94.01    4.95
   3   5  -4   87.41    4.34
   5  -3   4   87.59    4.73
   3  -5   4   85.70    4.33
   5   3  -4   90.67    4.85
   3  -5   4   87.89    4.85
   3   5  -4   85.02    4.34
   5  -3   4   84.53    4.38
   3  -5   3    1.91    1.32
   5  -3   3    1.84    1.00
   3  -5   3   -0.75    0.82
   5   3  -3   -0.10    1.43
   5  -3   3    1.36    1.48
   5   3  -3    1.79    1.67
   3   5  -3    5.12    1.11
   3   5  -3   -0.10    0.90
   3  -5   3    0.73    1.27
   5  -3   3   -0.09    1.10
   5  -3   3   -1.63    1.45
   3  -5   3    0.64    0.86
   5   3  -2  101.64    5.33
   5  -3   2   95.10    5.06
   5  -3   2   95.95    5.14
   3   5  -2   97.38    4.96
   3  -5   2   97.41    5.10
   3   5  -2  100.99    4.78
   3   5  -2   98.21    4.74
   5  -3   2   89.39    5.08
   3  -5   2   87.54    4.68
   5   3  -2   99.01    5.23
   3  -5   2   86.81    4.62
   5  -3   2   97.89    4.87
   3  -5   2  106.02    5.29
   3  -5   1    4.39    1.44
   5  -3   1    3.53    1.43
   5  -3   1    2.05    1.07
   3  -5   1   -0.77    0.91
   5  -3   1   -2.85    1.49
   5  -3   1   -2.20    1.35
   5   3  -1   -1.90    1.49
   3   5  -1   -2.03    1.05
   3  -5   1    2.66    1.22
   3  -5   1   -1.07    0.87
   5   3  -1   -1.42    1.42
   5  -3   0  138.25    6.78
   3  -5   0  157.90    6.87
   3   5   0  124.03    6.60
   5   3   0  140.17    6.94
   3   5   0  128.94    6.41
   5  -3   0  114.63    6.68
   3  -5   0  131.60    6.37
   3  -5   0  161.36    6.99
   5  -3   0  130.62    6.54
   5  -3   0  126.26    6.69
   5   3   0  132.95    6.75
   3  -5  -1    1.66    1.27
   5  -3  -1    1.57    1.02
   5  -3  -1   -0.97    1.27
   5  -3  -1    1.77    1.36
   5   3   1   -0.49    1.41
   3  -5  -1   -0.61    0.79
   5   3   1    5.49    1.60
   3  -5  -1    1.57    1.20
   3   5   1    1.28    0.96
   5  -3  -1   -1.84    1.44
   5   3   2   91.41    5.13
   5  -3  -2  109.90    5.37
   3  -5  -2  123.54    5.38
   3   5   2   98.00    4.91
   3  -5  -2   94.92    4.75
   5  -3  -2   93.76    5.22
   5   3   2  109.18    5.43
   5  -3  -2   89.26    5.28
   3  -5  -2   96.09    4.79
   5  -3  -2  103.20    5.26
   3   5   2   83.38    5.03
   3   5   2   97.20    4.87
   5  -3  -2   93.53    5.01
   3  -5  -2  123.93    5.44
   5  -3  -3   -0.63    1.25
   5  -3  -3    3.01    1.02
   3  -5  -3    1.58    1.34
   3  -5  -3    1.09    0.78
   5  -3  -3   -0.18    1.12
   3  -5  -3    0.31    0.71
   5  -3  -3    3.18    1.30
   5   3   3   -0.10    1.35
   3  -5  -3    2.49    1.28
   3   5   3    1.08    0.97
   5  -3  -3    3.92    1.46
   5   3   3    2.75    1.45
   3   5   4   90.33    4.47
   5   3   4   81.99    4.71
   5  -3  -4   82.10    4.69
   5  -3  -4   90.98    4.85
   3  -5  -4  104.37    4.92
   3  -5  -4   88.08    4.40
   3  -5  -4   96.80    4.43
   3   5   4   84.52    4.53
   5   3   4   90.99    5.01
   5  -3  -4   85.41    4.89
   3  -5  -4  106.05    5.01
   5  -3  -4   79.96    4.57
  -5  -3   4   82.04    4.74
   5  -3  -5    1.98    1.07
   3  -5  -5    3.17    1.31
   3  -5  -5    1.75    0.80
  -5  -3   5    5.22    1.30
   3   5   5    5.78    1.05
   5  -3  -5    1.84    1.18
   5   3   5    1.20    1.31
   3   5   5    0.78    1.01
   5  -3  -5    0.18    1.26
   5  -3  -6   92.39    4.79
   3  -5  -6   90.35    4.45
   5   3   6   96.87    5.05
   3   5   6   86.05    4.59
   5  -3  -6   86.74    4.86
   3  -5  -6  101.34    4.96
   5  -3  -6   84.01    4.63
  -5  -3   6   82.30    4.79
   5  -3  -7    2.98    1.08
   3  -5  -7    3.69    1.39
  -5  -3   7    2.53    1.29
   5   3   7    3.46    1.48
   5  -3  -7    3.18    1.32
   5  -3  -7    1.35    1.13
   3   5   7    2.67    1.12
   5  -3  -7    3.32    1.38
   3  -5  -7    2.61    0.93
  -3  -5   8   47.49    2.80
   3  -5  -8   50.94    2.87
   5  -3  -8   55.59    3.21
   5   3   8   60.44    3.50
   5  -3  -8   48.36    3.12
   3   5   8   58.98    3.15
   5  -3  -8   51.14    3.27
   5  -3  -8   50.63    3.03
  -5  -3   8   53.45    3.22
  -3   5  -9    0.45    0.97
   5  -3  -9    0.49    1.00
  -5  -3   9    0.68    1.17
   5  -3  -9    0.49    1.10
   5   3   9    1.08    1.33
   3   5   9   -0.08    1.08
  -5  -3   9    1.69    1.09
  -3  -5   9   -0.36    0.80
   3  -5  -9   -0.22    0.83
   5  -3  -9    0.68    1.31
  -3  -5  10   33.72    2.27
  -5  -3  10   39.49    2.61
   3  -5 -10   35.50    2.36
  -5   3 -10   42.32    2.75
  -3   5 -10   45.04    2.58
   5   3  10   42.44    2.97
   5  -3 -10   40.67    2.70
   3   5  10   38.44    2.62
   5  -3 -10   41.95    2.75
  -5  -3  10   38.88    2.64
   5  -3 -11    1.00    1.22
  -5  -3  11    1.09    1.19
   5  -3 -11    1.18    1.22
  -5   3 -11    0.95    1.19
  -3   5 -11    0.86    1.06
  -3  -5  11    0.17    0.85
  -5  -3  11    1.05    1.12
   5   3  11    0.47    1.37
   3  -5 -11    1.24    0.96
   3   5  11    2.39    1.29
  -5  -3  12   26.88    2.18
   3  -5 -12   26.31    1.92
  -5   3 -12   25.82    2.23
   5  -3 -12   25.15    2.15
   5   3  12   30.93    2.53
   3   5  12   26.29    2.21
   5  -3 -12   22.60    2.07
   3  -5 -12   27.10    2.04
  -5  -3  12   26.32    2.12
  -3  -5  12   24.81    1.84
  -3   5 -12   30.71    2.11
  -3  -5  13    0.57    0.91
  -5   3 -13    1.62    1.32
   5  -3 -13    0.77    1.18
   5  -3 -13    1.65    1.28
  -5  -3  13    1.53    1.25
  -3   5 -13   -0.47    1.08
   3  -5 -13    1.32    1.04
   5   3  13    2.09    1.55
   3   5  13    2.01    1.38
  -5  -3  13   -0.37    1.14
   3  -5 -13    1.03    1.14
  -5  -3  14   18.62    1.92
   5  -3 -14   18.79    1.98
   3  -5 -14   18.07    1.70
  -5   3 -14   20.99    2.04
  -3   5 -14   20.62    1.89
   5   3  14   21.46    2.27
   3   5  14   20.52    2.15
   5  -3 -14   16.16    1.72
  -3  -5  14   17.47    1.59
  -5  -3  14   20.95    1.94
   5  -3 -15    1.22    1.42
  -5  -3  15    0.26    1.28
  -5  -3  15    0.10    1.27
  -5   3 -15   -0.86    1.27
  -3   5 -15    0.44    1.20
   3  -5 -15    1.11    1.12
  -3  -5  15    0.22    0.99
   5   3  15   -0.13    1.50
   3   5  15    0.11    1.48
  -5  -3  16   15.57    1.86
  -5  -3  16   15.66    1.89
   3   5  16   14.77    1.93
  -3   5 -16   14.98    1.85
   3  -5 -16   14.57    1.59
  -3  -5  16   14.81    1.64
   5   3  16   15.33    2.20
   3   5  16   12.38    2.01
  -5  -3  17    1.25    1.37
  -5  -3  17    0.11    1.25
  -3  -5  17    0.34    1.20
   3   5  17    1.17    1.50
   3  -5 -17    0.80    1.15
   5   3  17    0.70    1.68
  -3   5 -17    0.39    1.33
  -5  -3  18    9.47    1.71
  -3  -5  18    6.35    1.50
  -5  -3  18    7.13    1.63
  -3  -5  18    9.14    1.55
   3  -5 -18    6.09    1.45
   3   5  18    6.43    1.78
  -3   5 -18    7.74    1.65
   5   3  18   11.12    2.12
  -5  -3  19    1.89    1.52
  -3  -5  19    0.40    1.33
  -3  -5  19   -0.10    1.27
  -3   5 -19   -0.11    1.45
   3   5  19    0.93    1.64
   3  -5 -19   -0.17    1.29
   5   3  19    0.15    1.77
   3  -5 -19    0.50    1.39
  -5  -3  19    0.80    1.46
  -5  -3  20    6.01    1.69
  -3  -5  20    5.66    1.51
  -3  -5  20    6.72    1.56
   3   5  20    4.37    1.84
   5   3  20    5.30    2.12
  -5  -3  20    3.37    1.62
  -5  -3  21    0.75    1.54
  -3  -5  21   -1.30    1.34
  -3  -5  21   -0.21    1.44
   3   5  21   -0.13    1.86
   5   3  21   -0.82    2.00
  -5  -3  21   -0.50    1.58
  -5  -3  22    3.87    1.64
  -3  -5  22    1.99    1.46
  -3  -5  22    1.19    1.53
   3   5  22    3.39    2.03
  -5  -3  22    2.76    1.72
   5   3  22    4.40    2.12
  -5  -3  23   -0.48    1.65
  -3  -5  23    0.76    1.43
  -3  -5  23    2.50    1.62
   3   5  23   -0.85    2.02
  -5  -3  23    1.36    1.79
   5   3  23    1.40    2.23
  -5  -3  24    2.39    1.74
  -3  -5  24    1.70    1.47
  -3  -5  24    1.43    1.71
  -5  -3  24    2.29    1.87
   3   5  24    1.61    2.14
   5   3  24    1.98    2.33
  -5  -3  25   -1.16    1.77
  -5  -3  25    0.44    1.93
   3   5  25    2.44    2.24
   5   3  25   -1.11    2.30
  -5  -3  26   -0.10    1.77
   3   5  26    4.68    2.49
   3   5  27   -0.48    2.34
  -5   4  28   -0.47    2.04
  -5   4  27    0.46    1.97
  -4   5  26    0.45    2.22
  -5   4  26   -2.05    1.94
  -4   5  26    0.74    2.16
   4  -5  26    0.32    2.32
   5  -4  25    1.56    2.19
  -5   4  25   -0.34    1.81
  -4   5  25    0.58    2.18
   4  -5  25    1.24    2.26
  -5   4  25    1.50    1.87
   5  -4  25    0.72    2.31
  -4   5  25    1.00    1.94
  -5   4  24   -1.76    1.82
  -4   5  24   -1.14    2.21
  -4   5  24   -0.69    1.95
   4  -5  24   -1.04    2.10
   5  -4  24   -0.18    2.30
  -5   4  24   -0.92    1.81
  -5   4  23    0.33    1.77
  -4   5  23    0.56    2.02
   4  -5  23    0.28    1.99
  -4   5  23    0.90    1.83
   5  -4  23    3.95    2.32
  -5   4  23    2.67    1.77
  -5   4  22   -1.08    1.65
   4  -5  22    0.96    1.91
  -4   5  22   -1.23    2.01
  -4   5  22    0.37    1.76
   5  -4  22   -0.17    2.12
  -5   4  22    0.49    1.64
  -5   4  21    2.96    1.65
  -4   5  21    4.27    2.00
   4  -5  21    2.53    1.88
  -5   4  21    2.61    1.73
  -4   5  21    2.32    1.69
   5  -4  21    1.93    2.17
  -5   4  20   -1.49    1.60
  -5   4  20   -1.18    1.62
   4  -5  20    3.08    1.91
  -4   5  20   -1.00    1.80
  -4   5  20   -1.34    1.57
   5  -4  20   -0.16    1.88
   4  -5  20    0.59    1.96
  -5   4  19    3.06    1.55
  -5   4  19    2.71    1.62
  -4   5  19    3.18    1.81
   5  -4  19    6.84    2.06
   4  -5  19    5.02    2.01
  -4   5  19    3.27    1.58
  -5   4  18   -0.66    1.43
  -5   4  18    0.10    1.50
  -4   5  18    0.59    1.59
   5  -4  18    1.13    1.77
   4  -5  18    0.14    1.80
  -4   5  18    1.20    1.46
  -4   5  17    9.70    1.73
  -5   4  17    7.32    1.66
  -5   4  17    8.83    1.77
  -4   5  17    7.37    1.84
  -4  -5 -17    6.84    1.70
   5  -4  17    9.85    2.10
   4   5 -17    8.46    1.84
   4  -5  17    9.67    2.08
  -4   5  16    2.60    1.52
  -4  -5 -16    0.32    1.47
  -4   5  16    0.55    1.28
  -5   4  16    1.06    1.54
  -5   4  16   -0.10    1.37
   4   5 -16    1.01    1.52
   5  -4  16    0.13    1.69
   4  -5  16    1.65    1.75
   4   5 -16    1.85    1.35
   5   4 -16    1.91    1.08
   5   4 -15    8.85    1.49
   4  -5  15   16.18    1.54
  -4  -5 -15   11.82    1.77
   4   5 -15    8.91    1.62
  -4   5  15   13.80    1.74
  -5   4  15   12.61    1.96
   5  -4  15   13.92    2.08
   4   5 -15   16.25    1.94
   4  -5  15   13.21    2.03
  -5   4  15   12.85    1.74
  -4   5  15   11.50    1.84
   5  -4  15   14.27    1.30
  -5   4  14    0.49    1.28
   5   4 -14    2.19    1.84
   4  -5  14    0.34    1.17
   5   4 -14    0.25    1.29
  -5  -4 -14   -0.78    1.49
   5  -4  14    0.32    0.96
  -5   4  14    0.73    1.51
  -4  -5 -14    0.88    1.37
  -4   5  14   -0.97    1.43
  -4   5  14    1.06    1.23
   5  -4  14    2.19    1.58
   4  -5  14    1.92    1.57
   4   5 -14    1.22    1.51
   4   5 -14   -1.60    1.43
  -4   5  13   17.90    1.90
  -4  -5 -13   18.92    1.97
  -5   4  13   17.37    1.97
   5   4 -13   24.36    2.49
  -5   4  13   16.91    2.08
  -5  -4 -13   18.88    2.13
   5  -4  13   24.45    2.32
   4  -5  13   19.94    2.13
  -4   5  13   15.51    2.07
   5   4 -13   17.92    1.92
   4   5 -13   19.48    2.06
   4  -5  13   25.69    1.84
   5  -4  13   21.34    1.65
   4   5 -13   18.87    2.09
   4  -5  12    1.49    1.12
   4   5 -12    2.21    1.55
  -5   4  12    0.59    1.34
   5  -4  12    0.49    1.08
   5   4 -12    0.44    1.65
  -4   5  12    1.93    1.28
  -4   5  12    1.68    1.44
  -5  -4 -12    0.62    1.34
   5  -4  12   -0.99    1.38
   4  -5  12   -0.81    1.33
  -4  -5 -12    1.07    1.26
  -5   4  12    0.29    1.27
   4   5 -12    0.18    1.34
  -4   5  11   27.61    2.15
  -5   4  11   25.45    2.18
  -4   5  11   19.37    2.24
   4   5 -11   25.36    2.19
  -5  -4 -11   27.39    2.23
   5   4 -11   26.50    2.47
   5  -4  11   22.17    2.25
   4  -5  11   25.91    2.21
  -4  -5 -11   24.67    2.08
   4   5 -11   22.06    2.22
   4  -5  11   26.65    1.98
   5  -4  11   25.10    1.90
   4   5 -10    0.44    1.35
   4  -5  10    1.77    1.17
   5  -4  10    0.06    1.06
   4   5 -10    5.73    1.72
   5   4 -10    2.46    1.69
  -4   5  10    1.09    1.45
   5  -4  10    0.10    1.36
   4  -5  10    0.64    1.25
  -4   5  10    2.72    1.33
  -5   4  10    1.92    1.30
  -4   5   9   35.26    2.83
   4   5  -9   36.89    2.64
   5   4  -9   44.40    3.05
   5  -4   9   29.79    2.59
   4  -5   9   35.26    2.57
   4  -5   9   32.69    2.89
   4   5  -9   31.78    2.72
   4  -5   9   40.78    2.50
   5  -4   9   41.57    2.44
   5  -4   8    0.38    1.12
   4   5  -8    1.40    1.26
   4   5  -8    2.97    1.58
  -4   5   8    1.72    1.46
   5   4  -8    2.16    1.62
   5  -4   8    0.67    1.17
   5  -4   8    2.68    1.52
   4  -5   8    0.73    1.12
   4  -5   8    1.26    1.14
   4   5  -7   50.86    3.05
  -4   5   7   45.33    3.15
   5  -4   7   46.86    3.26
   4  -5   7   45.29    3.13
   5  -4   7   44.08    3.01
   5   4  -7   45.96    3.20
   4  -5   7   41.31    2.87
   5  -4   7   45.89    3.30
   4  -5   7   47.95    2.87
   5  -4   7   50.52    2.88
   5  -4   6    1.20    1.15
   5  -4   6    1.06    1.25
   4   5  -6    5.38    1.44
   5  -4   6    0.21    1.53
   4  -5   6    1.77    1.33
   4  -5   6    0.50    1.07
   4   5  -6    3.68    1.00
   5  -4   6    0.45    1.25
   4   5  -6    1.33    1.18
   5   4  -6    5.31    1.68
   4  -5   6    0.73    1.08
   5  -4   6    1.66    1.57
   4  -5   6   -0.07    1.08
   4  -5   5   52.42    2.95
   4   5  -5   58.48    3.17
   5  -4   5   50.75    3.12
   5  -4   5   48.04    3.26
   4   5  -5   46.39    2.81
   5   4  -5   45.03    2.56
   4  -5   5   55.14    3.40
   5   4  -5   55.40    3.39
   5  -4   5   47.40    3.14
   4  -5   5   46.85    2.93
   4   5  -5   56.24    3.14
   5  -4   5   43.18    3.40
   4  -5   5   48.54    3.40
   4  -5   5   53.34    3.01
   5  -4   5   55.63    3.02
   5   4  -4   -1.13    1.52
   5  -4   4    0.68    1.13
   5  -4   4   -1.44    1.29
   5  -4   4   -0.09    1.09
   5  -4   4    0.10    1.45
   4   5  -4   -1.26    1.16
   4   5  -4    7.59    1.31
   4  -5   4    1.28    1.53
   5   4  -4    7.93    1.04
   4  -5   4   -0.92    1.07
   4  -5   4   -1.19    1.01
   5  -4   4    2.11    1.55
   4   5  -4    3.86    1.33
   4  -5   4    1.56    1.51
   4  -5   4    1.21    1.06
   5  -4   3   59.13    3.57
   5  -4   3   64.66    3.79
   4  -5   3   64.15    3.89
   4   5  -3   62.52    3.44
   5   4  -3   56.15    3.16
   5   4  -3   68.86    3.89
   4   5  -3   63.92    3.52
   5  -4   3   62.34    3.62
   4  -5   3   53.28    3.34
   5  -4   3   58.53    3.92
   4  -5   3   63.48    3.88
   4  -5   3   60.17    3.45
   5  -4   3   64.86    3.49
   4  -5   3   61.51    3.34
   5  -4   2    1.88    1.11
   5  -4   2    1.72    1.48
   5  -4   2   -1.56    1.30
   5   4  -2    0.18    1.61
   5   4  -2   -0.49    1.47
   4   5  -2    1.36    1.14
   4  -5   2   -1.12    1.38
   5  -4   2   -1.74    1.34
   4  -5   2   -0.37    1.02
   4  -5   2   -2.25    1.18
   5  -4   2    2.90    1.60
   4  -5   2    2.56    1.52
   4  -5   2    0.48    1.03
   5  -4   1   54.06    3.33
   4  -5   1   51.51    3.18
   4   5  -1   46.81    2.89
   5   4  -1   49.22    3.18
   5  -4   1   49.42    3.04
   4   5  -1   45.50    2.92
   4  -5   1   36.64    2.71
   5  -4   1   45.74    3.26
   4  -5   1   52.87    3.35
   4  -5   1   42.41    2.75
   5   4  -1   52.28    3.23
   4  -5   1   49.21    2.88
   5  -4   1   49.66    2.89
   5  -4   1   44.32    2.93
   5  -4   0    1.63    1.08
   4  -5   0   -0.84    1.09
   5  -4   0   -2.48    1.27
   4   5   0    4.59    1.44
   5  -4   0    3.98    1.70
   5   4   0   -0.68    1.41
   4  -5   0   -1.72    1.14
   4  -5   0    1.96    1.33
   4   5   0    9.97    1.44
   5  -4   0   -1.68    1.37
   5   4   0    1.84    1.42
   4   5   0   -1.59    1.40
   5  -4   0    3.99    1.57
   4  -5   0    1.55    1.09
   4  -5   0    5.38    1.55
   5  -4  -1   54.72    3.39
   4  -5  -1   57.10    3.29
   5  -4  -1   41.73    3.01
   4  -5  -1   40.52    2.79
   5   4   1   52.84    3.29
   4   5   1   48.77    3.05
   5  -4  -1   54.35    3.43
   4  -5  -1   57.83    3.47
   5  -4  -1   47.29    3.11
   4   5   1   52.77    3.01
   4  -5  -1   50.22    2.98
   5  -4  -1   51.66    2.99
   5   4   1   47.70    3.13
   4  -5  -2    1.59    1.42
   5  -4  -2    0.79    1.07
   5  -4  -2   -1.86    1.33
   5  -4  -2   -0.33    1.11
   5   4   2   -0.24    1.42
   4  -5  -2   -1.65    0.96
   5  -4  -2    3.20    1.47
   5   4   2   -0.30    1.43
   4  -5  -2    1.48    1.32
   4   5   2    0.51    1.12
   5  -4  -2    2.89    1.54
   4   5   2    1.83    1.22
   4  -5  -2    0.64    1.00
   5   4   3   59.70    3.73
   5  -4  -3   70.25    3.91
   4  -5  -3   84.90    4.11
   5  -4  -3   60.93    3.76
   4  -5  -3   58.65    3.51
   4   5   3   66.94    3.74
   4  -5  -3   66.44    3.55
   5   4   3   66.53    3.98
   5  -4  -3   67.92    4.03
   4  -5  -3   75.14    4.08
   4  -5  -3   69.43    3.72
   5  -4  -3   61.89    3.65
   4   5   3   61.80    3.63
   5  -4  -4    1.46    1.07
   4  -5  -4    3.06    1.49
   5  -4  -4   -0.25    1.13
   4  -5  -4   -0.90    0.88
   5   4   4    5.83    1.59
   4  -5  -4    0.90    0.98
   5  -4  -4   -0.27    1.33
   5   4   4    0.40    1.50
   4  -5  -4   -0.57    1.36
   4   5   4    0.69    1.21
   4   5   4    6.46    1.34
   5  -4  -4    1.85    1.52
   4  -5  -4    1.31    1.08
   4   5   5   55.23    3.25
   4   5   5   48.92    3.05
   4  -5  -5   54.57    3.03
   5   4   5   49.55    3.22
   5  -4  -5   58.74    3.46
   5  -4  -5   51.34    3.26
   4  -5  -5   62.08    3.48
   5   4   5   57.65    3.53
   4  -5  -5   48.20    3.00
   5  -4  -5   62.27    3.62
   4  -5  -5   57.99    3.46
   4  -5  -5   53.73    3.19
   5  -4  -5   50.94    3.14
   5  -4  -6    1.33    1.11
   5   4   6    3.74    1.29
   4  -5  -6    0.99    1.49
   4  -5  -6   -0.18    0.97
   4   5   6    5.18    1.21
   5  -4  -6    1.39    1.10
   5   4   6   -0.21    1.32
   5  -4  -6   -0.46    1.38
   4   5   6    1.73    1.32
   5  -4  -6    2.77    1.53
   4  -5  -6    0.82    1.10
   4   5   7   46.98    3.04
   5  -4  -7   48.66    3.10
   4  -5  -7   43.94    2.70
   5  -4  -7   45.27    2.93
   5   4   7   54.01    3.30
   5  -4  -7   46.48    3.21
   4  -5  -7   48.14    3.19
   4  -5  -7   45.99    2.91
   5  -4  -7   42.61    2.82
   4  -5  -8    1.08    1.11
   5  -4  -8    0.98    1.46
   5  -4  -8   -0.15    1.14
   4  -5  -8   -0.38    0.98
   4  -5  -8    0.46    1.38
   5  -4  -8   -0.80    1.15
   5   4   8    3.14    1.50
   4   5   8    1.41    1.36
   4  -5  -9   34.36    2.37
   5  -4  -9   31.63    2.48
   4   5   9   37.16    2.61
   5   4   9   44.39    2.98
   5  -4  -9   40.66    2.72
   4  -5  -9   30.54    2.59
  -5  -4   9   34.42    2.59
   5  -4 -10   -0.54    1.39
  -5  -4  10    0.95    1.35
   5  -4 -10    1.66    1.30
  -4  -5  10    1.56    1.03
   5   4  10    0.82    1.52
   4   5  10    3.74    1.47
   4  -5 -10    1.31    1.08
  -4  -5  11   20.94    1.78
  -5  -4  11   18.69    1.91
   4  -5 -11   21.48    1.89
  -4   5 -11   27.28    2.06
   5  -4 -11   19.40    2.02
   4   5  11   24.43    2.24
   5   4  11   27.84    2.45
   5  -4 -11   24.91    2.21
  -5  -4  11   28.84    2.28
   5  -4 -12    0.09    1.24
   5  -4 -12    0.58    1.36
  -5  -4  12    1.23    1.37
  -5  -4  12    0.61    1.20
  -5   4 -12   -0.20    1.29
  -4   5 -12    0.18    1.22
  -4  -5  12    1.36    1.04
   5   4  12    0.49    1.58
   4   5  12    1.38    1.49
   4  -5 -12   -0.45    1.10
   5  -4 -13   18.18    1.99
  -4  -5  13   15.57    1.68
  -5  -4  13   20.16    1.87
   5  -4 -13   16.66    1.88
  -5  -4  13   17.80    1.98
  -4   5 -13   18.99    1.93
  -5   4 -13   18.99    2.05
   5   4  13   21.10    2.31
   4   5  13   22.83    2.23
   4  -5 -13   13.97    1.72
   5  -4 -14   -0.49    1.35
  -5  -4  14   -0.47    1.23
  -5  -4  14    1.02    1.42
  -5   4 -14    0.53    1.39
  -4   5 -14    0.28    1.28
   4  -5 -14    0.16    1.18
   5   4  14    2.00    1.73
  -4  -5  14    1.15    1.13
   4   5  14    1.75    1.63
  -5  -4  15   11.92    1.80
  -4  -5  15   12.52    1.80
  -4   5 -15   16.59    1.95
  -4  -5  15   11.49    1.55
   4  -5 -15   14.06    1.70
   5   4  15   15.11    2.22
   4   5  15   14.59    2.08
  -5  -4  15   11.47    1.68
  -5  -4  16    0.56    1.42
  -4  -5  16    0.92    1.43
  -4  -5  16    0.51    1.19
  -4   5 -16    0.30    1.39
  -5  -4  16    0.30    1.32
   4  -5 -16   -0.35    1.33
   5   4  16    1.13    1.70
   4   5  16    1.69    1.77
  -5  -4  17    7.93    1.73
  -4  -5  17    7.82    1.46
  -4  -5  17    7.36    1.70
  -4   5 -17    6.61    1.65
  -5  -4  17    5.67    1.53
   4  -5 -17    5.64    1.50
   5   4  17    8.70    2.21
   4   5  17    9.07    2.15
  -4  -5  18    0.09    1.26
  -5  -4  18    0.57    1.50
  -4  -5  18   -0.09    1.42
  -5  -4  18    1.31    1.45
   5   4  18   -0.15    1.88
   4   5  18   -0.42    1.88
  -5  -4  19    4.42    1.70
  -4  -5  19    3.55    1.60
  -5  -4  19    4.08    1.59
   5   4  19    5.86    2.11
   4   5  19    3.79    2.06
  -4  -5  19    3.59    1.46
  -5  -4  20   -0.20    1.60
  -5  -4  20    0.34    1.52
  -4  -5  20   -0.09    1.49
   4   5  20    0.13    1.80
   5   4  20    1.15    2.09
   4   5  20   -0.15    2.03
  -4  -5  20    0.70    1.40
  -5  -4  21   -0.60    1.65
  -5  -4  21    1.76    1.64
  -4  -5  21    0.98    1.49
   4   5  21    1.49    2.05
  -4  -5  21    0.94    1.48
   5   4  21    3.06    2.28
  -5  -4  22   -0.74    1.64
  -5  -4  22   -1.49    1.71
  -4  -5  22    1.15    1.57
   4   5  22   -0.28    2.00
  -4  -5  22   -1.22    1.59
   5   4  22    1.57    2.24
  -5  -4  23    0.60    1.73
  -4  -5  23    0.64    1.70
   4   5  23    3.62    2.24
  -4  -5  23    1.41    1.68
   5   4  23    1.08    2.36
  -5  -4  23    0.89    1.72
  -5  -4  24   -0.10    1.79
  -4  -5  24   -0.36    1.66
   4   5  24   -0.60    2.09
  -4  -5  24   -0.24    1.73
   5   4  24    3.14    2.44
  -5  -4  24    1.19    1.78
  -5  -4  25    2.70    1.84
   5   4  25    2.94    2.40
  -4  -5  25    2.67    1.94
   4   5  25    0.79    2.30
  -5  -4  25   -0.55    1.96
  -4  -5  26   -0.95    1.98
   4   5  26    2.12    2.48
  -5   5  25   -2.08    2.08
  -5   5  24    1.33    1.90
  -5   5  24    1.56    2.09
   5  -5  24    1.49    2.19
  -5   5  23   -0.51    1.77
  -5   5  23   -0.13    1.95
   5  -5  23    0.15    2.08
   5  -5  23   -2.34    2.35
  -5   5  22    2.05    1.88
  -5   5  22    0.50    1.90
   5  -5  22   -0.82    2.31
  -5   5  21   -1.49    1.83
  -5   5  21    1.23    1.81
   5  -5  21   -1.12    2.27
  -5   5  20    2.53    1.93
  -5   5  20    0.96    1.66
   5  -5  20    1.54    2.10
  -5   5  19   -1.55    1.83
  -5   5  19   -1.50    1.71
   5  -5  19    1.19    2.03
  -5   5  18    0.35    1.73
   5  -5  18    1.29    2.04
  -5   5  18    2.01    1.63
  -5   5  17    0.49    1.79
   5  -5  17    1.79    1.86
  -5   5  17   -0.43    1.55
  -5   5  16    4.39    1.65
  -5   5  16    5.06    1.95
   5  -5  16    7.54    2.01
  -5   5  15    1.82    1.76
  -5   5  15    0.42    1.45
   5  -5  15   -0.12    1.66
   5   5 -15    1.13    1.58
   5   5 -14   10.34    1.92
  -5   5  14   13.90    1.83
  -5   5  14    9.87    2.05
  -5  -5 -14   11.76    1.89
   5  -5  14    8.73    1.96
   5   5 -14    9.85    2.07
   5   5 -13    1.02    1.75
   5  -5  13    0.19    1.24
  -5   5  13    1.04    1.64
  -5  -5 -13    0.94    1.51
   5  -5  13    0.35    1.58
   5   5 -13    0.69    1.80
  -5   5  13   -0.20    1.39
   5   5 -12   11.40    2.10
   5  -5  12   16.06    1.68
   5   5 -12   12.38    2.09
  -5   5  12    9.21    1.85
   5  -5  12    9.44    1.89
  -5   5  12   15.79    1.90
   5  -5  11    2.07    1.35
   5   5 -11    0.21    1.57
   5   5 -11   -1.28    1.60
   5  -5  11   -0.21    1.38
   5   5 -10   24.29    2.30
   5  -5  10   17.40    2.06
   5   5 -10   20.28    2.24
   5  -5  10   21.95    1.99
   5  -5   9   -0.36    1.34
   5   5  -9   -1.10    1.57
   5  -5   9   -0.39    1.32
   5  -5   8   24.04    2.10
   5   5  -8   30.32    2.57
   5  -5   8   24.71    2.24
   5  -5   8   30.02    2.22
   5  -5   7    2.55    1.29
   5  -5   7    0.86    1.25
   5   5  -7    3.51    1.65
   5   5  -7    1.11    1.42
   5  -5   7    0.53    1.28
   5  -5   6   30.57    2.28
   5   5  -6   32.79    2.55
   5   5  -6   31.83    2.56
   5  -5   6   28.36    2.30
   5  -5   6   30.97    2.34
   5  -5   5    0.93    1.30
   5   5  -5    4.51    1.08
   5   5  -5    0.96    1.42
   5   5  -5    2.47    1.47
   5  -5   5   -1.15    1.23
   5  -5   5    0.23    1.18
   5   5  -4   28.92    2.12
   5   5  -4   33.16    2.53
   5  -5   4   28.35    2.30
   5   5  -4   36.42    2.57
   5  -5   4   33.02    2.39
   5  -5   4   33.01    2.36
   5  -5   3    2.12    1.33
   5  -5   3   -1.09    1.27
   5   5  -3   -0.09    1.35
   5  -5   3   -0.39    1.19
   5   5  -2   37.33    2.59
   5   5  -2   31.66    2.27
   5  -5   2   28.24    2.29
   5  -5   2   33.15    2.37
   5  -5   2   37.73    2.45
   5  -5   1    0.47    1.24
   5   5  -1    1.29    1.52
   5  -5   1   -0.54    1.32
   5   5  -1   -0.65    1.40
   5  -5   1   -2.17    1.36
   5  -5   0   37.06    2.70
   5   5   0   41.17    2.96
   5  -5   0   39.36    2.75
   5   5   0   44.76    2.97
   5  -5   0   44.68    2.77
   5  -5  -1    1.36    1.23
   5  -5  -1   -0.98    1.16
   5   5   1   -2.14    1.48
   5   5   1    3.38    1.51
   5  -5  -2   28.12    2.28
   5   5   2   34.45    2.64
   5  -5  -2   35.02    2.42
   5   5   2   31.64    2.44
   5  -5  -3    2.60    1.68
   5   5   3    1.13    1.39
   5  -5  -3   -0.82    1.15
   5   5   3    3.54    1.51
   5   5   4   33.21    2.35
   5  -5  -4   27.81    2.24
   5   5   4   31.88    2.56
   5  -5  -4   33.74    2.29
   5  -5  -4   38.81    2.91
   5  -5  -5   -0.11    1.56
   5  -5  -5   -0.54    1.06
   5   5   5    1.77    1.45
   5  -5  -5   -0.65    1.18
   5   5   5    1.93    1.32
   5   5   6   26.92    2.13
   5  -5  -6   24.32    2.09
   5  -5  -6   29.74    2.20
   5   5   6   30.28    2.43
   5  -5  -6   33.57    2.63
   5  -5  -7    0.63    1.50
   5  -5  -7    0.39    1.26
   5  -5  -7    1.21    1.12
   5   5   7    0.63    1.55
   5   5   7    3.61    1.35
   5  -5  -8   24.29    2.13
   5   5   8   28.48    2.52
   5  -5  -8   26.39    2.53
   5  -5  -9    1.44    1.57
   5  -5  -9    0.55    1.21
   5   5   9    0.45    1.62
   5  -5 -10   21.41    2.23
   5  -5 -10   19.00    1.92
   5   5  10   22.83    2.33
   5  -5 -11   -0.52    1.29
   5  -5 -11    1.43    1.54
   5   5  11    2.37    1.67
   5  -5 -12   11.63    1.77
  -5  -5  12   13.74    1.94
   5   5  12   13.64    2.16
  -5  -5  13    0.51    1.19
  -5  -5  13    1.12    1.54
   5   5  13    2.97    1.85
   5  -5 -13    0.37    1.37
  -5  -5  14    8.82    1.78
  -5   5 -14   10.02    1.87
  -5  -5  14    9.74    1.57
   5   5  14   13.03    2.19
   5  -5 -14    9.74    1.70
  -5  -5  15    0.50    1.53
   5   5  15    1.65    1.78
  -5  -5  15    0.83    1.36
  -5  -5  16    6.63    1.77
  -5  -5  16    7.72    1.59
   5   5  16    7.25    2.20
  -5  -5  17   -0.59    1.35
  -5  -5  17    0.60    1.55
   5   5  17    1.80    2.07
  -5  -5  18    3.95    1.68
   5   5  18    3.27    2.29
  -5  -5  18    2.22    1.56
  -5  -5  19    1.39    1.65
  -5  -5  19   -1.46    1.51
   5   5  19   -0.64    2.22
  -5  -5  20    2.69    1.74
  -5  -5  20    2.93    1.57
   5   5  20    3.48    2.31
  -5  -5  21    0.81    1.72
  -5  -5  21   -0.68    1.62
   5   5  21    1.03    2.30
  -5  -5  22    0.10    1.78
  -5  -5  22    2.59    1.77
   5   5  22    0.88    2.40
  -5  -5  23    1.02    1.82
  -5  -5  23    1.94    1.77
   5   5  23    1.09    2.27
   5   5  23   -1.79    2.53
  -5  -5  24    0.80    1.89
  -5  -5  24    0.88    1.76
   5   5  24   -0.80    2.30
   0   6   0  137.62    6.62
   6   0   0  126.28    6.67
   0   6   0  126.32    6.67
  -6   0   0  108.38    6.14
   6   0   0  130.70    6.50
  -6   0   1    7.84    1.37
   6   0  -1    1.12    1.48
   0   6   1    6.37    1.53
   6   0   1   -0.93    1.57
   0   6  -1    1.59    1.50
   6   0   1    5.35    1.61
  -6   0  -1   12.75    1.44
   6   0  -1   -1.19    1.50
   0   6  -1    5.34    1.60
   0   6   1    7.87    1.70
   6   0   2   90.87    4.95
   6   0  -2   81.56    4.56
   0   6  -2   99.60    5.09
   0   6   2  108.68    5.17
   6   0  -2   89.91    5.17
   6   0   2   93.23    5.15
   0   6  -2   71.22    4.87
   0   6   2   99.33    5.25
   6   0  -2   97.49    4.99
  -6   0   2   80.66    4.66
  -6   0  -2   82.44    4.62
   0   6   3    9.61    1.80
   6   0   3   -0.96    1.39
  -6   0  -3    7.06    1.28
   6   0  -3   13.75    1.43
   0   6  -3    1.04    1.34
   6   0  -3    0.37    1.59
   0   6   3    2.84    1.63
   6   0   3   -1.77    1.52
   6   0  -3   -0.39    1.49
   0   6  -3    3.19    1.47
   6   0   4   63.31    3.90
   6   0  -4   61.19    3.46
   0   6   4   75.15    4.18
   6   0  -4   62.03    4.10
   6   0   4   73.98    4.15
   0   6  -4   56.92    3.90
   0   6   4   74.60    4.23
   6   0  -4   67.99    4.02
  -6   0  -4   57.64    3.50
   0   6   5    6.62    1.79
  -6   0  -5    4.23    1.12
   6   0  -5    0.30    1.32
   6   0  -5    5.67    1.12
   0   6   5    4.02    1.64
   6   0   5   -1.12    1.45
   0  -6   5    1.28    1.10
   0   6  -5    3.19    1.44
   6   0  -6   45.67    2.53
   0   6   6   50.45    3.20
   0  -6   6   38.98    2.70
   6   0   6   51.49    3.21
   0   6  -6   37.55    3.01
  -6   0   6   41.57    2.77
  -6   0  -6   41.79    2.60
  -6   0   7    1.76    1.19
  -6   0  -7    1.60    0.97
   0  -6  -7    0.75    0.31
   0   6   7    3.43    1.54
   6   0  -7    3.07    0.99
   6   0   7    0.47    1.33
   0  -6   7    1.44    1.19
   0   6  -7    0.90    1.43
   0   6   7    2.03    0.41
   0   6   8   44.63    2.91
   0  -6   8   29.84    2.31
   6   0  -8   38.30    2.14
   0   6  -8   33.67    1.70
   0  -6  -8   35.39    1.78
   6   0   8   42.27    2.83
   0   6  -8   34.97    2.74
   0   6   8   40.25    1.80
   0  -6   8   26.51    1.62
  -6   0   8   35.83    2.45
  -6   0  -8   34.73    2.18
  -6   0   9    1.81    1.31
  -6   0  -9    1.59    0.92
   0   6  -9    0.51    0.59
   0  -6  -9    0.91    0.66
   0   6   9    0.94    1.49
   0  -6   9   -0.14    1.08
   6   0   9    1.72    1.39
   6   0  -9    0.52    1.25
  -6   0  10   36.00    2.63
   0  -6  10   33.72    2.41
   0   6  10   44.10    3.07
   0   6 -10   35.02    2.03
   6   0  10   40.48    2.93
   0  -6 -10   35.35    2.10
   6   0 -10   42.07    2.83
   0   6  10   37.15    3.04
  -6   0  10   37.35    2.61
  -6   0 -10   35.54    2.24
  -6   0  11    0.18    1.19
  -6   0 -11    0.88    0.88
   0   6  11    3.08    1.72
  -6   0  11    0.10    1.13
  -6   0 -11    0.51    1.17
   6   0 -11   -0.21    1.39
   0  -6  11    0.20    1.08
   0   6  11    2.38    1.63
   0   6 -11    0.04    0.78
   0  -6 -11    0.85    0.85
   6   0  11    2.24    1.39
   0   6  11    0.22    0.81
  -6   0  12   18.62    1.93
   0  -6  12   20.01    1.77
   0   6  12   23.12    2.48
   0   6 -12   23.11    1.59
   0   6  12   24.25    1.62
   0  -6 -12   17.57    1.54
   0  -6  12   17.45    1.37
   6   0  12   24.88    2.38
   0   6  12   22.96    2.45
  -6   0  12   22.89    1.98
  -6   0 -12   20.61    1.54
  -6   0  13    0.09    1.24
  -6   0 -13    0.61    0.84
   0   6  13    0.14    1.72
  -6   0  13   -0.53    1.20
   0   6  13    0.41    1.00
   0  -6  13    1.35    0.78
   0  -6  13    0.49    1.18
   0   6  13    0.83    1.78
   0   6 -13    0.46    0.96
   0  -6 -13    0.76    0.94
   6   0  13   -1.32    1.50
   6   0 -13    1.54    1.15
  -6   0  14   13.82    1.68
  -6   0  14   13.49    1.73
   0   6  14   13.09    2.23
   0   6  14    9.96    1.47
   0  -6  14   11.36    1.25
   0  -6  14   11.12    1.60
   0   6  14   15.08    2.32
   0   6 -14   12.80    1.44
   0  -6 -14   10.88    1.36
   6   0  14   15.32    2.01
   6   0 -14   10.26    1.32
  -6   0 -14   11.69    1.16
  -6   0  15    0.93    1.33
  -6   0 -15   -0.20    0.78
   0   6  15    0.15    1.15
   0   6  15    0.73    1.77
   0  -6  15   -0.11    0.93
   0  -6  15    0.23    1.23
   0   6  15    2.10    1.89
   0   6 -15   -0.07    1.12
   0  -6 -15    0.90    1.06
   6   0  15   -0.14    1.51
  -6   0  15   -0.22    1.17
   6   0 -15   -0.12    0.95
  -6   0  16   10.44    1.68
  -6   0 -16    9.78    1.06
   6   0 -16    9.55    1.07
   0   6  16    7.43    2.13
   0   6  16   11.20    1.59
   0  -6  16    9.35    1.30
   0  -6  16    7.79    1.53
   0   6  16   14.40    2.39
   0   6 -16   13.44    1.58
  -6   0  16   12.29    1.75
   0  -6 -16    8.03    1.39
   6   0  16   10.94    1.97
   0   6  17    0.45    1.96
   0   6  17    0.89    1.36
   0  -6  17    0.07    1.04
   0  -6  17    1.27    1.35
  -6   0  17    0.35    1.36
   0   6  17    1.10    1.95
   0   6 -17    0.76    1.25
   0  -6 -17    0.23    1.17
   6   0  17   -0.28    1.60
  -6   0 -17    0.14    0.74
  -6   0  17    1.21    1.34
   0   6  18   11.45    2.41
   0   6  18    9.92    1.73
   0  -6  18    7.11    1.38
  -6   0  18    8.93    1.74
   0  -6  18    7.74    1.62
   0   6  18    9.12    2.37
   0   6 -18    8.10    1.60
   0  -6 -18    6.35    1.42
   6   0  18   11.24    2.11
  -6   0 -18    7.31    0.88
  -6   0  18    7.05    1.63
   0   6  19    0.15    2.05
  -6   0  19   -1.61    1.52
   0   6  19    0.31    1.53
   0  -6  19   -0.08    1.22
   0  -6  19    0.39    1.34
   0   6 -19    1.15    1.42
   0  -6 -19    0.35    1.24
   6   0  19    1.24    1.83
  -6   0  19   -1.57    1.39
   0   6  20    3.59    2.26
  -6   0  20    5.08    1.66
   0   6  20    4.23    1.71
   0  -6  20    4.22    1.47
   0  -6  20    3.86    1.52
   0   6 -20    7.18    1.62
   6   0  20    4.71    1.90
  -6   0  20    6.12    1.58
   0   6  21   -0.31    2.18
  -6   0  21   -2.30    1.60
   0   6  21    2.24    1.78
   0  -6  21    1.35    1.53
   0  -6  21    1.04    1.45
   0   6 -21    0.42    1.52
   6   0  21    0.64    1.88
  -6   0  21   -0.37    1.52
  -6   0  22    3.47    1.74
   0   6  22    3.74    2.36
   0   6  22    4.73    2.01
   0  -6  22    2.46    1.57
   0  -6  22    2.18    1.37
   0   6 -22    3.00    1.70
   6   0  22    1.80    2.01
  -6   0  23   -0.28    1.70
   0   6  23   -0.16    2.29
   0   6  23    0.78    1.94
   0  -6  23    0.98    1.61
   6   0  23   -0.34    1.94
   0   6  24   -0.32    2.41
   0   6  24    6.76    2.23
   0  -6  24    1.61    1.68
   6   0  24    3.17    2.21
  -6   0  24    1.97    1.75
   0   6  25    0.32    2.48
   0   6  25    3.81    2.17
   0  -6  25   -0.48    1.70
   0   6  26    0.48    2.52
   0   6  26    0.15    2.14
   0  -6  26    1.25    1.92
   0   6  27    1.27    2.54
   0   6  27   -0.90    2.34
   0   6  28   -0.65    2.68
   0   6  28   -1.08    2.33
   0   6  29    1.93    2.65
  -1   6  28    0.15    2.31
  -1   6  28   -1.99    2.37
  -1   6  27    0.43    2.11
  -1   6  27   -1.47    2.41
   1  -6  26    1.97    2.07
  -1   6  26   -3.05    2.13
  -1   6  26   -0.60    2.48
   1  -6  25    0.13    1.92
  -1   6  25    1.59    1.96
  -1   6  25    0.30    2.38
   1  -6  24    0.36    1.77
  -1   6  24    0.13    1.90
  -1   6  24    3.06    2.59
   6  -1  24   -0.70    1.98
  -1   6  24   -1.07    2.39
   1  -6  23    4.51    1.82
  -1   6  23    2.18    1.83
  -1   6  23    5.61    2.73
   6  -1  23    0.68    2.07
  -1   6  23   -0.92    2.38
  -1   6  22    0.80    1.64
   1  -6  22   -1.97    1.66
  -1   6  22   -0.18    2.39
   6  -1  22   -1.31    2.05
  -1   6  22    0.30    2.22
  -6  -1 -21    2.66    0.81
   1  -6  21    6.60    1.77
   1  -6  21    1.61    1.81
  -1   6  21    5.17    1.72
  -1   6  21    6.39    2.54
   1   6 -21    4.50    1.65
   6  -1  21    2.40    1.96
  -1   6  21    5.06    2.29
  -6  -1 -20    0.57    0.80
   1  -6  20   -0.98    1.45
   1  -6  20   -0.11    1.77
  -1   6  20   -0.67    2.10
  -1   6  20    0.83    1.53
   1   6 -20    1.13    1.47
   6  -1  20    0.78    1.81
  -1   6  20    0.46    2.12
  -6  -1 -19    4.38    0.94
   1  -6  19    3.30    1.49
   1  -6  19    3.49    1.81
  -1   6  19    6.54    2.35
  -1  -6 -19    5.12    1.46
  -1   6  19    7.47    1.68
   1   6 -19    4.80    1.55
   6  -1  19    5.70    1.89
  -1   6  19    7.70    2.27
  -1   6  18   -1.79    1.98
  -6  -1 -18   -0.12    0.87
   1  -6  18    1.37    1.29
   1  -6  18    3.15    1.73
   1  -6  18    0.87    1.39
  -1  -6 -18   -1.38    1.28
   1   6 -18   -0.47    1.36
   6  -1  18    0.44    1.69
  -1   6  17    7.98    2.26
   1  -6  17    7.14    1.44
  -6  -1 -17    6.83    1.06
   1  -6  17    5.83    1.77
   1  -6  17    5.15    1.50
  -1  -6 -17    6.40    1.40
   6  -1  17    9.80    1.97
   1   6 -17    4.83    1.47
  -1   6  16    0.15    1.89
   1  -6  16    0.96    1.12
  -6  -1 -16    1.06    0.90
   1  -6  16   -1.65    1.61
   1  -6  16    2.25    1.38
  -1  -6 -16    1.62    1.19
   6  -1  16    0.97    1.67
   1   6 -16   -0.91    1.23
   6   1 -16   -0.39    0.74
  -1   6  15    7.75    2.03
   1  -6  15    8.02    1.29
  -6  -1 -15    9.75    1.17
   1  -6  15    9.70    1.78
   1  -6  15    5.98    1.51
  -1  -6 -15    8.49    1.33
   6  -1  15   12.68    1.95
   1   6 -15    8.90    1.41
   6   1 -15    6.52    1.08
  -6   1  15    6.52    1.44
   1  -6  14    0.55    1.02
  -6  -1 -14    1.10    0.95
   1  -6  14    0.30    1.50
   1  -6  14   -1.20    1.36
  -1  -6 -14    1.06    1.01
  -1   6  14    2.02    1.80
   6  -1  14    0.27    1.48
   1   6 -14    0.14    1.08
  -6   1  14    0.35    1.22
  -1   6  14    2.12    1.79
   1  -6  13   11.68    1.31
   1  -6  13   15.32    1.96
  -1  -6 -13   13.96    1.43
   1  -6  13   14.72    1.84
  -1   6  13   18.97    2.25
   6  -1  13   18.16    2.10
   1   6 -13   14.22    1.53
  -6  -1 -13   15.75    1.43
  -6   1  13   13.61    1.67
  -1   6  13   17.40    2.29
   1  -6  12    0.43    0.80
  -6  -1 -12    2.17    1.06
   1  -6  12   -0.80    1.45
  -1   6  12    1.78    0.92
  -1  -6 -12   -0.64    0.97
  -1   6  12    1.25    1.55
   1  -6  12   -0.60    1.31
   6  -1  12    1.65    1.42
   1   6 -12    0.35    1.00
  -6   1  12   -0.26    1.13
  -1   6  12    0.82    1.62
   1  -6  11   19.66    2.06
  -1   6  11   19.80    2.24
   1  -6  11   15.88    1.32
  -6  -1 -11   17.62    1.92
  -1  -6 -11   18.39    1.45
   6  -1  11   19.51    2.13
   1   6 -11   19.50    1.54
   1  -6  11   16.13    1.82
  -1   6  11   22.08    2.37
  -1   6  11   22.06    1.53
   1   6 -11   15.86    2.05
  -6   1  11   18.35    1.81
  -6  -1 -11   20.62    1.66
   1  -6  10    0.41    0.64
  -6  -1 -10    2.19    1.12
   1  -6  10    1.57    1.45
  -1  -6 -10   -0.49    0.71
   1  -6  10    0.16    1.21
  -1   6  10   -1.20    1.52
  -1   6  10    0.80    0.76
   6  -1  10    1.21    1.37
   1   6 -10    0.70    0.84
   1   6 -10    1.62    1.48
  -1   6  10    1.96    1.58
  -6   1  10    1.11    1.19
  -1   6   9   38.64    2.78
   1  -6   9   30.30    2.18
   1  -6   9   22.85    1.54
  -1  -6  -9   25.44    1.61
   6  -1   9   32.19    2.58
   1   6  -9   30.71    1.72
   1   6  -9   25.28    2.41
  -1   6   9   33.44    2.70
   1  -6   9   25.19    2.30
  -6   1   9   25.63    2.16
  -1   6   9   32.72    1.70
  -6  -1  -9   27.94    2.04
  -6   1   8    0.51    1.12
  -6  -1  -8    2.20    1.13
   1  -6   8    1.71    1.35
   1  -6   8    0.28    0.50
  -1  -6  -8    0.35    0.50
  -1   6   8    0.60    1.61
   1  -6   8    1.21    1.08
   6  -1   8    0.60    1.29
   1   6  -8    0.88    0.61
  -1   6   8    0.79    0.63
   1   6  -8    1.82    1.42
  -1   6   8    1.90    1.59
   6  -1   7   35.68    2.66
   1  -6   7   30.05    2.22
   6   1  -7   32.63    1.73
   1  -6   7   24.63    1.46
   1   6  -7   30.22    1.53
   1   6  -7   28.48    2.52
   1  -6   7   36.08    2.55
  -6   1   7   33.19    2.29
  -6  -1  -7   39.72    2.27
  -6  -1  -6    3.71    1.17
  -1   6   6    1.19    1.45
   6   1  -6    5.61    0.95
   6  -1   6    1.05    1.33
   1  -6   6    1.38    1.17
   1   6  -6    2.06    1.51
   6  -1   5   35.08    2.49
   6   1  -5   26.89    1.80
  -1   6   5   38.02    2.67
   1  -6   5   27.87    2.18
   6  -1   5   34.78    2.63
   1   6  -5   23.23    2.44
  -6  -1  -5   29.01    2.11
  -6  -1  -4    3.71    1.17
   1   6  -4    2.11    1.32
   6   1  -4    6.61    1.10
  -1   6   4    1.78    1.39
   6  -1   4    1.54    1.38
   1  -6   4   -0.08    1.15
   6  -1   4   -1.58    1.37
   1   6  -4    2.40    1.54
   6  -1   3   43.80    3.04
   1   6  -3   46.29    3.14
  -1   6   3   56.80    3.27
   1  -6   3   43.18    2.93
   6  -1   3   43.37    3.14
  -1   6   3   52.98    3.31
   1   6  -3   42.60    3.15
  -6  -1  -3   40.53    2.78
  -6   1   2    2.16    1.09
   1   6  -2    4.94    1.61
   6  -1   2   -0.10    1.35
  -6  -1  -2    6.91    1.31
  -1   6   2   -0.42    1.33
   1   6  -2    0.10    1.31
   6  -1   2   -1.83    1.51
   1  -6   2    0.08    1.11
  -1   6   2    2.77    1.44
   6  -1   1   68.22    3.99
  -1   6   1   90.00    4.31
   1   6  -1   70.52    4.02
  -1   6   1   79.85    4.27
   1   6  -1   61.99    4.11
  -6   1   1   57.68    3.64
   6  -1   1   63.68    4.10
  -6  -1  -1   59.57    3.70
   6  -1   1   65.49    3.64
  -6   1   0    6.54    1.28
   1   6   0   10.44    1.83
  -6  -1   0    9.64    1.42
  -1   6   0    4.72    1.67
   6  -1   0    5.82    1.23
   6  -1   0    2.00    1.49
   6  -1   0    9.80    1.57
   6  -1   0    1.02    1.49
   1   6   0    8.33    1.70
  -1   6   0    6.22    1.55
  -1   6  -1   81.47    4.19
   6  -1  -1   69.71    3.85
   1   6   1   74.77    4.19
   6  -1  -1   70.38    4.19
  -1   6  -1   73.55    4.20
   1   6   1   58.59    4.01
  -6   1  -1   58.99    3.59
   6  -1  -1   69.69    3.98
  -6  -1   1   57.90    3.68
   6  -1  -1   61.92    3.62
  -6   1  -2    3.15    1.09
   1   6   2    9.53    1.83
   6  -1  -2    4.18    1.19
   6  -1  -2   -0.70    1.46
   1   6   2    5.36    1.72
   6  -1  -2    4.71    1.34
   6  -1  -2   -1.31    1.42
  -1   6  -2    1.75    1.48
   6  -1  -3   46.38    2.78
   1   6   3   48.95    3.21
   6  -1  -3   48.78    3.23
  -1   6  -3   45.01    3.21
   1   6   3   44.70    3.26
   6  -1  -3   47.57    3.15
  -6   1  -3   37.16    2.61
   6  -1  -3   43.66    2.76
  -6   1  -4    3.03    1.05
   6  -1  -4   -0.81    1.34
   1   6   4    3.87    1.70
   6  -1  -4    2.38    1.14
   6  -1  -4    1.89    1.42
   6  -1  -4    2.50    1.22
   1   6   4    5.89    1.54
  -1   6  -4    2.18    1.49
   6  -1  -5   30.62    2.18
   1   6   5   30.03    2.48
   6  -1  -5   32.16    2.46
   1   6   5   31.89    2.75
  -6   1  -5   27.54    1.97
  -6  -1   5   25.86    2.17
   6  -1  -5   31.48    2.18
  -6   1  -6    1.24    0.92
  -6  -1   6    3.65    1.31
   1   6   6    3.16    1.63
   6  -1  -6    3.45    1.22
   1   6   6    0.80    0.31
   6  -1  -6    3.02    1.09
   1   6   6    1.82    1.41
   1  -6  -6    0.44    0.31
   1  -6  -6    0.27    0.24
   6  -1  -7   36.91    2.32
   1   6   7   41.37    2.91
   1  -6  -7   37.15    1.90
   1   6   7   35.34    1.88
   1   6   7   37.07    3.06
  -6   1  -7   32.63    2.20
  -6  -1   7   33.95    2.48
   6  -1  -7   40.61    2.54
  -6  -1   8    2.63    1.22
   1   6   8    1.14    0.68
   6  -1  -8    2.75    1.25
   6  -1  -8    1.18    1.09
   1  -6  -8    0.25    0.62
  -1  -6   8    0.74    0.51
  -6   1  -8    1.01    0.87
  -1   6  -9   30.04    1.67
   1   6   9   30.39    2.63
   1   6   9   30.06    1.76
   6  -1  -9   31.04    2.43
   1  -6  -9   29.86    1.74
  -6   1  -9   25.58    1.81
  -6  -1   9   28.42    2.25
   6  -1  -9   33.04    2.25
  -1  -6   9   24.95    1.54
   1   6  10    1.22    0.88
  -6  -1  10    0.53    1.19
  -6  -1  10    1.47    1.21
   6  -1 -10   -0.61    1.26
  -1   6 -10    0.47    0.74
   1   6  10    1.86    1.63
  -1  -6  10    0.69    1.08
   1  -6 -10   -0.22    0.72
  -1  -6  10    0.66    0.60
  -6   1 -10    0.75    0.82
  -6  -1  11   21.13    1.97
   1   6  11   19.66    2.48
   1   6  11   21.17    1.60
  -1  -6  11   18.77    1.71
   1   6  11   24.88    2.40
  -1   6 -11   20.72    1.46
   6  -1 -11   22.03    2.07
   1  -6 -11   19.16    1.48
   6  -1 -11   21.32    1.89
  -1  -6  11   16.67    1.29
  -6   1 -11   14.83    1.36
  -6  -1  11   17.11    1.85
  -6  -1  12    1.25    1.25
   1   6  12    0.68    1.03
  -6  -1  12    1.18    1.25
   1   6  12    2.81    1.83
  -1  -6  12   -0.04    0.68
  -1   6 -12    0.05    0.91
  -1  -6  12    0.19    1.07
   1   6  12    0.89    1.66
   1  -6 -12    0.82    0.84
   6  -1 -12    0.70    1.24
  -6   1 -12    0.25    0.70
   1   6  13   13.81    1.58
  -6  -1  13   14.48    1.75
   1   6  13   14.34    2.34
  -1   6 -13   14.35    1.43
  -6  -1  13   15.85    1.92
   1  -6 -13   13.61    1.38
  -1  -6  13   13.41    1.51
   6  -1 -13   12.60    1.53
   1   6  14    0.86    1.19
  -6  -1  14    0.19    1.29
  -6  -1  14   -0.11    1.28
   1   6  14    2.30    1.93
  -1   6 -14   -0.06    0.99
  -1  -6  14   -0.06    1.07
   1  -6 -14   -0.77    0.95
   6  -1 -14    0.35    1.16
   6  -1 -15    9.13    1.30
   1   6  15   13.13    1.68
  -6  -1  15    8.74    1.61
   1   6  15    8.90    2.12
  -1  -6  15    7.33    1.35
  -1   6 -15    8.79    1.34
   1  -6 -15    8.59    1.30
  -6  -1  15    9.15    1.70
   1   6  16    1.26    1.36
  -6  -1  16    0.48    1.36
   6  -1 -16    0.91    0.98
   1   6  16    2.38    1.95
  -1  -6  16   -0.55    1.14
  -1   6 -16   -0.23    1.11
   1  -6 -16   -0.51    1.07
  -6  -1  16    0.23    1.34
  -6  -1  17    5.44    1.59
   1   6  17    8.52    1.74
   1   6  17    7.54    2.31
  -1  -6  17    3.83    1.21
  -1   6 -17    6.80    1.43
  -6  -1  17    7.50    1.67
   1  -6 -17    7.24    1.35
  -6  -1  18    0.88    1.51
   1   6  18   -0.41    1.51
   1   6  18   -0.49    2.15
  -6  -1  18   -0.62    1.45
  -1  -6  18    1.73    1.16
  -1   6 -18   -0.54    1.28
   1  -6 -18   -0.81    1.17
  -6  -1  19    4.51    1.61
   1   6  19    4.84    1.77
   1   6  19    6.72    2.41
  -6  -1  19    4.20    1.66
  -1  -6  19    4.12    1.27
  -1   6 -19    4.10    1.49
   1  -6 -19    2.44    1.30
  -6  -1  20   -0.40    1.57
   1   6  20   -0.11    1.75
   1   6  20    0.50    2.20
  -6  -1  20   -0.89    1.57
  -1  -6  20   -0.52    1.24
  -1   6 -20    0.70    1.50
  -6  -1  21    3.31    1.68
   1   6  21    3.38    1.90
  -6  -1  21    3.93    1.74
   1   6  21    4.74    2.44
  -1  -6  21    1.83    1.34
  -1   6 -21    2.54    1.63
  -1  -6  21    3.45    1.38
   1   6  22   -0.13    2.00
  -6  -1  22   -1.78    1.71
   1   6  22    0.85    2.41
  -1  -6  22   -0.85    1.43
  -6  -1  22   -0.50    1.72
  -6  -1  23    3.39    1.76
   1   6  23    0.79    1.98
   1   6  23    2.73    2.51
  -1  -6  23    0.90    1.47
  -6  -1  23    0.40    1.67
  -6  -1  24    0.43    1.70
   1   6  24   -0.55    2.06
   1   6  24    1.36    2.55
  -1  -6  24   -1.70    1.60
  -6  -1  24   -2.55    1.72
   1   6  25    1.97    2.12
   1   6  25    2.21    2.61
  -1  -6  25   -0.45    1.70
  -6  -1  25    1.37    1.66
   1   6  26    1.19    2.57
   1   6  26   -3.35    2.23
   1   6  27    1.36    2.63
   1   6  27    1.64    2.35
   1   6  28    0.17    2.73
   1   6  28   -0.15    2.39
  -2   6  26   -0.96    2.23
  -2   6  25   -1.23    2.21
   2  -6  25   -2.13    2.19
  -2   6  24   -0.87    2.37
  -2   6  24   -1.25    2.23
   2  -6  24    3.95    2.18
  -6   2  23    0.78    1.63
  -2   6  23    2.38    2.27
   6  -2  23   -0.17    2.11
  -2   6  23    0.14    2.10
   2  -6  23    0.25    1.90
  -6  -2 -22    1.82    0.96
  -6   2  22    2.53    1.63
  -2   6  22   -0.49    2.18
   6  -2  22    2.16    2.04
  -2   6  22    2.51    2.20
   2  -6  22    0.61    1.80
  -6  -2 -21    1.16    1.00
  -6   2  21   -0.25    1.53
  -2   6  21    0.64    2.15
   2   6 -21    0.90    1.73
   6  -2  21    0.16    1.90
  -2   6  21    1.68    2.05
   2  -6  21    0.57    1.64
  -6  -2 -20    2.61    1.06
  -6   2  20    5.05    1.67
  -2   6  20    6.08    2.34
   6  -2  20    5.36    1.99
   2   6 -20    5.14    1.76
   2  -6  20    3.65    1.69
  -2   6  20    3.33    2.11
  -6  -2 -19    0.51    1.03
  -6   2  19    0.60    1.43
  -2   6  19   -0.90    1.97
   6  -2  19   -1.23    1.79
   2   6 -19    0.10    1.50
   2  -6  19    0.10    1.51
  -2   6  19    0.83    2.00
  -6  -2 -18    4.94    1.17
  -2   6  18    5.05    1.55
  -2  -6 -18    4.61    1.52
  -2   6  18    6.38    2.08
  -6   2  18    5.10    1.56
   6  -2  18    5.71    1.98
   2   6 -18    5.97    1.61
   2  -6  18    5.48    1.60
  -2   6  18    5.23    1.96
  -6  -2 -17    0.23    1.06
  -2   6  17    2.15    1.36
  -2  -6 -17    0.18    1.32
  -2   6  17   -0.56    1.79
  -6   2  17    0.45    1.35
   6  -2  17   -0.14    1.65
   2   6 -17   -0.84    1.40
   2  -6  17    0.63    1.39
  -2   6  17   -0.96    1.89
  -6  -2 -16    8.42    1.31
  -2   6  16    9.35    1.57
  -2  -6 -16    9.17    1.55
  -2   6  16   11.52    2.11
   6  -2  16    9.43    1.93
   2   6 -16   13.66    1.70
   2  -6  16    6.42    1.50
  -6   2  16   11.50    1.76
  -2   6  16    6.08    1.97
  -6   2  15    1.28    1.30
  -6  -2 -15    1.69    1.13
  -2   6  15    1.01    1.21
  -2   6  15   -0.14    1.73
  -2  -6 -15   -0.16    1.18
   6  -2  15    2.05    1.56
   2  -6  15    0.23    1.21
   2   6 -15    0.42    1.24
  -2   6  15    0.13    1.70
   2  -6  14    8.82    1.94
  -6  -2 -14   11.96    1.42
  -6   2  14    9.14    1.66
  -2  -6 -14    9.03    1.39
  -2   6  14   10.98    1.46
   6  -2  14   10.95    1.95
   2  -6  14    7.94    1.36
   2   6 -14    8.86    1.51
  -2   6  14    8.74    1.97
   2  -6  13   -0.65    1.53
  -6  -2 -13    1.15    1.16
   2  -6  13   -2.30    1.41
  -2  -6 -13    0.33    1.04
   6  -2  13   -1.05    1.49
   2  -6  13    0.74    1.08
  -2   6  13    1.49    1.06
   2   6 -13   -0.15    1.18
  -6   2  13    1.99    1.36
   2   6 -13   -0.30    1.44
  -2   6  13   -1.44    1.59
   2  -6  12   10.41    1.81
  -6   2  12   13.87    1.72
   2  -6  12   13.40    1.81
  -2  -6 -12   11.16    1.32
   6  -2  12   15.36    1.97
   2  -6  12   11.46    1.39
   2   6 -12   10.14    1.46
   2   6 -12   14.72    1.99
  -2   6  12   12.22    2.04
  -2   6  12   15.80    1.42
  -6  -2 -12   15.62    1.56
   2  -6  11   -0.84    1.52
  -6  -2 -11    3.27    1.19
  -2   6  11    0.32    0.95
  -6   2  11    0.50    1.22
  -2  -6 -11   -1.06    0.82
   2  -6  11    0.66    1.43
   6  -2  11    0.49    1.40
   2  -6  11    0.39    0.92
   2   6 -11   -0.45    1.02
   2   6 -11   -0.31    1.48
  -2   6  11   -0.90    1.56
  -2   6  10   27.90    1.76
   2  -6  10   21.34    2.26
   6   2 -10   24.46    2.43
  -6   2  10   26.05    2.16
   2  -6  10   21.45    1.66
   2  -6  10   25.73    2.25
  -2  -6 -10   21.97    1.61
   6  -2  10   21.63    2.28
   2   6 -10   23.35    1.80
  -2   6  10   24.62    2.42
   2   6 -10   22.63    2.30
  -6  -2 -10   25.41    1.99
   2  -6   9    0.31    1.40
  -6  -2  -9    3.12    1.24
  -2   6   9    2.87    1.58
   2  -6   9    0.67    1.36
   6   2  -9    2.38    1.59
   6  -2   9    1.67    1.41
   2  -6   9    0.67    0.76
  -2   6   9    0.36    0.83
  -2  -6  -9    0.48    0.72
   2   6  -9    1.06    0.92
  -2   6   9    0.38    1.50
   2   6  -9    1.19    1.56
   2  -6   8   21.53    1.56
  -2   6   8   32.02    2.53
   2  -6   8   26.95    2.24
   6  -2   8   24.63    2.33
   2   6  -8   23.22    1.72
  -2   6   8   28.74    2.53
   2   6  -8   23.15    2.41
   2  -6   8   21.82    2.30
  -6  -2  -8   28.65    2.07
   6  -2   8   26.82    1.85
   2  -6   7    0.63    0.62
   2  -6   7    0.31    1.43
  -6  -2  -7    1.42    1.21
   6  -2   7    1.06    1.02
  -2   6   7    1.31    1.37
   2  -6   7   -0.09    1.26
   6  -2   7   -0.46    1.35
   2  -6   7    0.44    0.68
   2   6  -7    0.25    0.77
  -2   6   7    2.78    1.59
   2   6  -7    1.87    1.60
   2  -6   6   22.19    1.47
  -2   6   6   39.06    2.57
   6   2  -6   21.65    1.41
   2  -6   6   24.23    2.08
   6  -2   6   26.43    2.33
   2   6  -6   24.27    1.60
  -2   6   6   34.85    2.68
   2   6  -6   29.23    2.52
   2  -6   6   27.73    2.37
   2   6  -6   27.14    1.53
  -6  -2  -6   32.56    2.16
   6  -2   6   29.78    1.95
   2  -6   6   25.71    1.45
   2   6  -5    3.80    1.60
   2  -6   5    1.52    1.38
  -6  -2  -5    5.12    1.31
   6  -2   5    0.93    1.02
   2   6  -5    3.78    1.31
   6   2  -5    5.06    0.80
   6   2  -5    1.87    1.60
   6  -2   5   -0.91    1.37
  -2   6   5    0.67    1.42
   2   6  -5    0.51    0.58
   2  -6   5   -0.11    0.49
   2  -6   5    0.14    0.54
   6  -2   5   -0.82    1.37
   2  -6   5    1.77    1.25
   2   6  -5    2.27    0.69
   6  -2   4   38.05    2.72
   2  -6   4   26.70    1.68
   2   6  -4   37.00    2.65
  -2   6   4   49.36    2.91
   2  -6   4   37.46    2.52
   6   2  -4   41.59    3.05
   6  -2   4   38.34    2.78
   2   6  -4   34.11    1.73
   2   6  -4   33.62    1.79
   6   2  -4   40.37    2.90
   2   6  -4   37.40    2.82
  -6  -2  -4   40.35    2.50
   6  -2   4   35.35    2.28
   2   6  -3    3.05    1.65
   6  -2   3   -1.70    1.31
  -6  -2  -3    4.91    1.32
   6  -2   3    1.29    1.09
   6  -2   3   -0.49    1.38
   2  -6   3   -0.71    0.36
   6  -2   3    1.94    1.41
  -2   6   3    1.59    1.50
   2   6  -3    3.80    1.57
   6   2  -3    0.90    1.63
   2  -6   3   -0.31    0.38
   6   2  -3   -0.64    1.63
   2  -6   3    0.77    1.23
   2   6  -3    1.18    0.43
   6  -2   2   42.61    3.03
   6  -2   2   47.92    3.10
   2   6  -2   40.69    3.01
   2  -6   2   50.86    3.08
   6   2  -2   45.58    3.37
   6  -2   2   46.06    3.23
   2   6  -2   40.80    3.25
   6   2  -2   44.35    3.14
  -6  -2  -2   44.40    2.88
   6  -2   2   42.45    2.73
   2   6  -1    7.35    1.84
   6  -2   1    5.08    1.64
  -6  -2  -1    6.85    1.35
   2  -6   1    0.86    1.31
   6  -2   1    1.87    1.12
  -2   6   1    1.80    1.44
   6   2  -1   -0.74    1.68
   6  -2   1   -2.98    1.53
   2   6  -1    5.83    1.66
   6  -2   1   -1.00    1.52
   2  -6   1    2.23    1.34
   6   2  -1   -0.76    1.45
   6  -2   0   57.33    3.50
   2   6   0   55.03    3.66
   6   2   0   59.50    3.80
   6  -2   0   57.42    3.67
   2   6   0   57.71    3.80
   6  -2   0   49.93    3.46
  -6  -2   0   55.02    3.34
   6  -2   0   50.45    3.17
   6   2   0   51.53    3.48
   2   6   1   11.78    1.93
   6  -2  -1    2.05    1.07
   6  -2  -1    4.43    1.47
   6  -2  -1   -1.01    1.52
   6   2   1   -1.58    1.60
   2   6   1    8.87    1.68
   6   2   1    1.03    1.46
   6  -2  -1   -1.76    1.46
   6   2   2   46.28    2.90
   2   6   2   41.38    1.97
   6  -2  -2   50.34    2.88
   2   6   2   44.33    2.97
   2   6   2   35.00    1.95
   6  -2  -2   49.15    3.13
   6   2   2   45.78    3.22
   2  -6  -2   44.45    1.99
   2   6   2   37.45    3.14
   6  -2  -2   50.16    3.06
   6  -2  -2   46.74    2.66
   6  -2  -3    3.10    1.21
   2   6   3    9.95    1.93
   6   2   3   -0.19    1.35
   6  -2  -3    0.79    1.37
   2   6   3    1.72    0.60
   6  -2  -3    2.82    1.49
   6  -2  -3   -0.50    1.39
   6   2   3    1.96    1.56
   2   6   3    7.46    1.58
   2  -6  -3    0.23    0.44
   6   2   4   40.02    2.75
   2   6   4   35.05    1.95
   6  -2  -4   44.60    2.74
   2   6   4   33.25    2.68
   6  -2  -4   39.15    2.88
   2  -6  -4   39.62    1.89
   6   2   4   40.06    3.00
   2  -6  -4   37.65    1.93
   2   6   4   34.17    1.91
   6  -2  -4   37.30    2.74
   2   6   4   40.11    3.10
   6  -2  -4   34.94    2.42
  -6  -2   5    2.28    1.21
   6  -2  -5    1.95    1.09
   2  -6  -5    0.45    0.45
   6  -2  -5    3.70    1.30
   2   6   5    0.95    0.71
   6   2   5   -0.50    1.52
   2   6   5    4.32    1.56
   2  -6  -5    1.07    0.55
   2   6   5    1.86    0.64
   6   2   5    0.27    1.23
   2   6   6   28.71    1.62
   2   6   6   28.83    1.70
   6  -2  -6   26.38    2.13
   2   6   6   27.71    2.41
   2  -6  -6   27.58    1.54
   6   2   6   26.74    2.51
   2  -6  -6   28.59    1.65
  -6  -2   6   23.88    2.15
   6  -2  -6   29.64    2.12
  -6  -2   7    2.60    1.26
   6  -2  -7    2.80    1.17
   6   2   7    2.48    1.53
   2   6   7    1.46    0.87
   6  -2  -7    1.48    1.16
   2   6   7    3.95    1.58
   6  -2  -7    0.28    1.44
   2  -6  -7    0.71    0.65
   2   6   8   24.26    1.70
   6  -2  -8   26.65    2.10
   2   6   8   21.31    2.22
   6   2   8   29.25    2.56
   2  -6  -8   22.08    1.58
   6  -2  -8   25.61    2.28
  -6  -2   8   25.59    2.13
   6  -2  -8   25.41    1.97
  -2  -6   9    0.38    0.67
  -6  -2   9    2.12    1.31
   6  -2  -9   -0.30    1.09
   6  -2  -9   -0.49    1.31
   6   2   9    1.02    1.46
   2   6   9    0.32    0.93
   2  -6  -9    0.09    0.78
  -2  -6  10   19.83    1.52
   2   6  10   26.04    1.88
  -2   6 -10   26.57    1.70
   6  -2 -10   24.44    2.20
   6   2  10   30.17    2.56
   2  -6 -10   22.20    1.68
   6  -2 -10   25.77    2.19
  -6  -2  10   22.01    2.08
  -6  -2  11    0.56    1.28
  -2   6 -11    1.19    0.93
  -2  -6  11   -0.08    0.71
   6   2  11    0.92    1.55
   2   6  11   -0.07    1.06
  -6  -2  11    0.10    1.21
   2  -6 -11   -1.01    0.91
   6  -2 -11   -0.57    1.33
  -6  -2  12   10.76    1.63
  -2   6 -12   14.71    1.44
  -6  -2  12   13.78    1.76
   6   2  12   16.36    2.14
   2   6  12   12.59    1.61
   2  -6 -12   11.10    1.30
  -2  -6  12   11.72    1.17
   6  -2 -12   12.61    1.75
   6  -2 -13    0.98    1.36
  -6  -2  13    0.10    1.35
  -2   6 -13   -0.06    1.01
   6   2  13    3.34    1.65
   2   6  13   -0.47    1.15
   2  -6 -13   -0.19    0.95
  -2  -6  13    0.34    0.81
  -6  -2  13    1.51    1.34
   6  -2 -14   10.58    1.48
  -6  -2  14   10.65    1.72
  -6  -2  14   11.23    1.73
  -2   6 -14   10.19    1.40
   6   2  14   13.46    2.09
  -2  -6  14    6.57    1.14
   2   6  14    8.77    1.56
   2  -6 -14    9.19    1.31
  -6  -2  15    0.10    1.42
   6  -2 -15    0.31    1.19
  -2   6 -15    0.23    1.12
  -6  -2  15    2.06    1.40
  -2  -6  15   -0.30    0.95
   6   2  15    0.14    1.64
   2   6  15   -0.27    1.36
   2  -6 -15   -0.15    1.07
  -2  -6  16    6.60    1.27
  -6  -2  16    8.11    1.72
   6  -2 -16    7.71    1.32
  -2   6 -16    9.99    1.54
   6   2  16    8.52    2.00
   2  -6 -16    6.82    1.36
   2   6  16    7.76    1.68
  -6  -2  16    6.05    1.64
  -6  -2  17   -0.50    1.45
  -2  -6  17    0.14    1.11
  -2   6 -17   -0.62    1.37
   6   2  17    1.83    1.76
   2  -6 -17    0.32    1.16
  -6  -2  17   -0.12    1.42
   2   6  17   -0.50    1.48
  -6  -2  18    6.06    1.65
  -2  -6  18    3.77    1.32
  -2   6 -18    4.18    1.54
  -6  -2  18    5.47    1.72
  -2  -6  18    5.05    1.19
   6   2  18    4.28    2.02
   2  -6 -18    3.99    1.33
   2   6  18    5.76    1.82
  -6  -2  19    1.63    1.58
  -2  -6  19   -0.23    1.20
  -6  -2  19   -0.26    1.55
  -2   6 -19   -1.13    1.57
  -2  -6  19    1.12    1.09
   6   2  19    0.16    1.86
   2   6  19   -1.12    1.72
  -6  -2  20    3.01    1.74
  -6  -2  20    2.39    1.70
  -2   6 -20    2.21    1.55
  -2  -6  20    2.60    1.23
   6   2  20    2.16    2.06
   2   6  20    5.40    1.85
  -6  -2  21    1.58    1.67
  -2  -6  21    1.71    1.41
  -6  -2  21   -0.69    1.77
  -2   6 -21   -0.65    1.55
   6   2  21   -1.01    2.08
   2   6  21    0.12    1.88
  -6  -2  22    2.43    1.80
  -2  -6  22    2.78    1.46
  -6  -2  22    3.69    1.86
   6   2  22    1.92    2.22
   2   6  22    1.83    1.94
  -6  -2  23    0.53    1.79
  -6  -2  23   -0.56    1.76
   6   2  23    0.18    2.13
   2   6  23    0.27    2.04
  -6  -2  24    2.04    1.90
   2   6  24   -1.24    2.09
  -6  -2  25    0.21    1.93
   2   6  25   -0.15    2.32
   2   6  26   -1.88    2.39
  -6  -2  26    1.67    1.90
   2   6  27   -1.29    2.47
  -6  -2  27    0.93    1.88
   2   6  28    2.15    2.56
  -3   6  26    1.17    2.20
  -3   6  25    2.68    2.24
  -6   3  24   -1.47    1.77
  -3   6  24   -1.48    2.09
   3  -6  24   -0.69    2.16
  -6   3  23    0.27    1.73
  -6   3  23    2.81    1.75
  -3   6  23    2.99    2.03
  -3   6  23   -0.98    2.25
   3  -6  23    1.59    1.99
   6  -3  23   -0.18    2.18
  -6  -3 -22    0.05    1.14
  -6   3  22    0.48    1.65
  -6   3  22   -0.92    1.74
  -3   6  22   -0.37    1.91
  -3   6  22    1.30    2.27
   3  -6  22    2.56    1.96
   6  -3  22   -2.04    2.19
  -6  -3 -21    2.59    1.26
  -6   3  21    1.27    1.63
  -3   6  21    2.22    2.14
  -3   6  21    1.75    1.78
   3  -6  21    1.49    1.91
   6  -3  21   -0.16    2.13
  -6  -3 -20    0.99    1.26
  -3   6  20    0.31    2.03
  -6   3  20   -0.98    1.70
  -3   6  20   -0.32    1.59
   3  -6  20   -0.83    1.76
   6  -3  20    0.95    2.01
  -6  -3 -19    2.74    1.32
  -3   6  19    5.21    2.18
  -3   6  19    2.35    1.63
   3  -6  19    1.58    1.73
  -6   3  19    1.67    1.53
   6  -3  19    3.88    2.02
   3   6 -19    6.93    1.79
  -6  -3 -18    0.34    1.25
  -3   6  18   -0.75    1.96
   3  -6  18   -0.22    1.66
   6  -3  18    2.28    1.94
  -3   6  18   -0.10    1.47
   3   6 -18    0.54    1.60
  -6   3  18   -1.05    1.47
  -6  -3 -17    8.34    1.50
  -3   6  17    5.71    2.14
   3  -6  17    3.86    1.66
   6  -3  17    4.58    2.00
   3   6 -17    5.26    1.64
  -3   6  17    6.06    1.51
  -6   3  17    4.65    1.61
  -3   6  16   -0.17    1.23
  -6   3  16    2.25    1.46
  -6  -3 -16    0.83    1.27
  -3  -6 -16    1.07    1.32
  -3   6  16    2.14    1.92
   3  -6  16    0.76    1.39
   6  -3  16    1.27    1.69
   3   6 -16    1.18    1.47
  -3   6  15    7.44    1.48
  -6  -3 -15    7.46    1.47
   3   6 -15    7.26    1.48
  -3  -6 -15    7.38    1.46
  -3   6  15    8.78    2.06
  -6   3  15    7.07    1.59
   3  -6  15    7.35    1.53
   6  -3  15    9.79    1.98
   3   6 -15    7.52    1.76
   3   6 -15    5.48    1.52
  -6  -3 -14    3.86    1.39
  -3   6  14    0.15    1.16
  -3  -6 -14    0.08    1.17
  -3   6  14    2.09    1.73
   3   6 -14    0.31    1.19
   3  -6  14    0.84    1.25
   6  -3  14    0.67    1.67
   3   6 -14    0.79    1.57
  -6   3  14    1.08    1.37
  -6  -3 -13   11.28    1.59
  -3  -6 -13    7.98    1.45
  -3   6  13    9.93    1.96
   3  -6  13   11.02    1.56
   3   6 -13    9.70    1.43
  -6   3  13   12.36    1.73
   6  -3  13    9.25    1.86
  -3   6  13   10.74    1.47
   3   6 -13   12.39    1.95
  -3   6  12    1.77    1.58
  -3   6  12    0.76    1.16
   6  -3  12   -0.05    1.03
  -6  -3 -12    1.22    1.30
   3  -6  12   -0.60    1.17
   3   6 -12    0.48    1.09
   6  -3  12   -0.77    1.46
  -6   3  12    1.56    1.36
  -3  -6 -12   -0.34    1.05
   3  -6  12   -0.52    1.28
   3   6 -12   -1.38    1.62
   6  -3  11   12.01    1.41
  -6  -3 -11   15.14    1.69
  -3  -6 -11   10.87    1.34
  -3   6  11    8.69    1.85
   3   6 -11   13.81    1.47
   6  -3  11   10.48    1.80
   3  -6  11   10.23    1.54
  -3   6  11   13.41    1.49
   3   6 -11   12.67    2.11
   6  -3  10   -0.52    1.07
  -6  -3 -10    3.39    1.38
   6   3 -10    0.99    1.75
  -3   6  10    0.49    1.02
   3   6 -10    0.81    1.07
   6  -3  10    0.12    1.46
   3  -6  10   -0.38    1.25
   3   6 -10    0.24    1.77
   3   6  -9   18.24    2.30
  -6  -3  -9   16.41    1.76
   3   6  -9   15.65    1.57
   6  -3   9   19.67    2.11
   6   3  -9   21.73    2.28
   3  -6   9   14.04    1.63
   6  -3   9   16.82    1.56
   3   6  -8    1.41    1.68
   6  -3   8    0.78    1.05
  -6  -3  -8    4.01    1.33
   6  -3   8    0.81    1.35
   6   3  -8    1.90    1.62
   3   6  -8    1.00    1.00
   3  -6   8    0.13    1.07
   3  -6   8    0.36    0.82
   3  -6   7   22.08    1.61
   3   6  -7   20.46    1.71
   3   6  -7   23.76    1.73
   6  -3   7   29.25    2.40
   3  -6   7   24.51    1.79
   3   6  -7   21.71    2.46
   6  -3   7   26.40    1.91
  -6  -3  -7   28.31    2.21
   3   6  -6    4.76    1.82
   6  -3   6    0.97    1.07
  -6  -3  -6    4.12    1.42
   6  -3   6   -0.30    1.36
   6  -3   6    0.79    1.45
   6   3  -6    0.68    1.71
   3   6  -6    1.07    0.89
   3  -6   6    1.51    1.46
   3  -6   6    0.40    0.78
   6  -3   6    1.23    1.34
   3  -6   6   -0.22    0.92
   3   6  -6    0.77    0.96
   6  -3   5   31.12    2.49
   6  -3   5   32.68    2.53
   3   6  -5   29.02    2.30
  -3   6   5   39.22    2.84
   3   6  -5   29.40    1.88
   3  -6   5   29.95    2.43
   6   3  -5   33.92    2.87
   3   6  -5   25.66    1.81
   6  -3   5   32.07    2.50
   3  -6   5   27.45    1.90
   3   6  -5   24.40    2.59
   3  -6   5   23.66    1.69
   6  -3   5   29.70    2.09
  -6  -3  -5   30.74    2.32
   3   6  -4    6.18    1.82
   6  -3   4    0.27    1.11
  -6  -3  -4    6.79    1.52
   6   3  -4    0.22    1.68
   6  -3   4   -0.99    1.47
  -3   6   4    2.75    1.61
   6  -3   4   -0.21    1.55
   3   6  -4    1.91    1.38
   6   3  -4   -0.52    1.65
   3   6  -4   -0.13    0.82
   3  -6   4   -0.79    0.76
   6  -3   4   -0.11    1.39
   3  -6   4   -0.99    0.92
   3   6  -4    3.10    0.96
   6  -3   3   37.10    2.67
   6  -3   3   42.87    2.88
   3   6  -3   37.35    2.60
   3   6  -3   29.01    2.02
   6   3  -3   36.87    2.98
   6  -3   3   34.80    2.73
   3   6  -3   34.64    2.10
   3  -6   3   32.01    2.03
   6   3  -3   37.72    2.90
   3  -6   3   38.47    2.75
   3   6  -3   34.02    2.88
   6  -3   3   31.54    2.28
  -6  -3  -3   33.26    2.54
   3  -6   2    1.16    1.42
   6  -3   2    2.26    1.15
   3   6  -2    2.90    0.86
   3   6  -2    8.43    1.88
  -6  -3  -2    7.93    1.54
   6  -3   2    2.90    1.59
   6   3  -2   -1.87    1.77
   6  -3   2   -2.80    1.63
   3   6  -2    4.59    1.64
   6  -3   2   -0.22    1.40
   6   3  -2   -0.85    1.73
   3   6  -2    0.17    0.85
   3  -6   2   -1.89    0.90
   6  -3   1   49.53    3.12
   3   6  -1   48.52    3.12
   6   3  -1   49.61    3.32
   6  -3   1   42.63    3.03
   3   6  -1   40.58    2.38
   3   6  -1   40.05    2.39
   3  -6   1   37.99    2.22
   3  -6   1   41.97    2.35
   3  -6   1   44.58    3.11
   6   3  -1   47.13    3.14
   6  -3   1   43.89    2.70
   6  -3   1   40.77    2.94
  -6  -3  -1   43.68    2.90
   3  -6   0    3.34    1.56
   6  -3   0    4.06    1.24
   3  -6   0   -0.80    0.73
  -6  -3   0    8.82    1.65
   6  -3   0    4.32    1.59
   3   6   0    2.29    0.97
   6  -3   0   -1.39    1.51
   6   3   0    0.12    1.73
   3   6   0    9.88    1.76
   3  -6   0    2.84    1.53
   3  -6   0   -1.81    0.90
   3   6   0   -0.25    0.89
   6  -3   0   -0.93    1.55
   6   3   0    0.28    1.52
   6  -3  -1   49.13    3.22
   3   6   1   43.35    3.03
   3  -6  -1   55.29    3.23
   6  -3  -1   43.42    3.14
   6   3   1   47.73    3.40
   3  -6  -1   45.47    2.40
   3  -6  -1   41.41    2.41
   3   6   1   46.49    2.54
   3  -6  -1   52.93    3.25
   6  -3  -1   42.73    3.10
   6  -3  -1   43.92    2.81
   6   3   1   40.61    3.01
   3  -6  -2   -0.39    0.71
   6  -3  -2    2.56    1.23
   3  -6  -2    2.73    1.45
   6  -3  -2   -0.86    1.48
   6  -3  -2    1.13    1.62
   6  -3  -2   -2.40    1.65
   6   3   2    1.11    1.68
   6   3   2    1.11    1.45
   3  -6  -2   -0.07    0.68
   3  -6  -2    2.54    1.37
   3   6   2    0.36    0.96
   6   3   3   35.11    2.69
   6  -3  -3   47.38    2.98
   3  -6  -3   41.06    2.16
   3   6   3   30.89    2.70
   6  -3  -3   37.67    2.80
   3  -6  -3   36.93    2.14
   6   3   3   40.71    3.11
   3   6   3   37.34    2.28
   6  -3  -3   38.12    2.95
   3   6   3   37.56    2.24
   6  -3  -3   39.49    2.88
   3  -6  -3   48.75    2.97
   6  -3  -3   36.94    2.55
   6  -3  -4    1.44    1.11
   3  -6  -4    2.24    1.51
  -6  -3   4    5.24    1.48
   6  -3  -4   -1.31    1.33
   6   3   4    1.74    1.39
   3  -6  -4    0.97    0.65
   6  -3  -4    3.38    1.46
   6   3   4    1.01    1.63
   3   6   4    7.41    1.70
   3   6   4    1.60    1.03
   3   6   4    3.70    0.98
   6  -3  -4    1.33    1.60
   3  -6  -4    2.17    0.77
   6   3   5   24.50    2.26
   3  -6  -5   31.11    1.82
   6  -3  -5   35.75    2.47
   3   6   5   28.43    2.45
   6  -3  -5   31.19    2.54
   3  -6  -5   30.07    1.76
   6   3   5   34.88    2.75
   3   6   5   29.18    2.00
   6  -3  -5   32.56    2.66
   6  -3  -5   29.61    2.21
  -6  -3   5   23.42    2.31
   3   6   5   30.80    1.90
   3   6   6    3.02    0.94
  -6  -3   6    1.62    1.30
   3  -6  -6    0.24    0.64
   6   3   6    0.37    1.58
   6  -3  -6    2.22    1.40
   3   6   6    0.66    1.01
   3  -6  -6    1.28    0.79
   6  -3  -6    2.11    1.51
   6   3   6    0.98    1.31
   3   6   7   25.60    1.73
   3  -6  -7   26.30    1.75
   6  -3  -7   30.54    2.35
   3  -6  -7   27.13    1.66
   6   3   7   28.65    2.61
   3   6   7   25.47    1.95
   6  -3  -7   25.53    2.38
  -6  -3   7   21.88    2.14
  -6  -3   8    1.71    1.31
   6  -3  -8   -0.19    1.33
   6   3   8    2.18    1.64
   6  -3  -8   -0.66    1.35
   3  -6  -8    1.04    0.82
   3   6   8    1.28    1.15
   6  -3  -8    0.70    1.51
  -6  -3   9   14.98    1.81
   3  -6  -9   16.05    1.41
   6  -3  -9   16.43    1.89
   3   6   9   17.00    1.72
   6   3   9   18.45    2.24
   6  -3  -9   19.33    2.12
  -6  -3  10   -0.29    1.31
   6  -3 -10    0.20    1.35
   3  -6 -10    0.48    0.88
   6   3  10    3.85    1.71
   3   6  10    1.31    1.27
   6  -3 -10    1.07    1.54
   6  -3 -11   12.46    1.85
  -6  -3  11   10.40    1.73
   3  -6 -11   11.13    1.23
   6   3  11   12.02    2.04
  -3  -6  11   10.04    1.22
   3   6  11   12.59    1.67
   6  -3 -12   -0.45    1.47
  -6  -3  12    0.40    1.40
  -3   6 -12    0.84    1.09
   3  -6 -12    0.18    0.93
  -3  -6  12    0.44    0.90
   6   3  12   -0.56    1.64
   3   6  12   -0.08    1.20
   3   6  12   -0.55    1.34
  -6  -3  12    0.31    1.27
   6  -3 -13   10.53    1.70
  -6  -3  13   11.59    1.76
  -3   6 -13   11.00    1.46
   3   6  13    9.11    1.54
   3  -6 -13    8.73    1.27
   6   3  13   10.62    2.10
  -6  -3  13    8.18    1.70
  -3  -6  13    8.00    1.19
   6  -3 -14    1.78    1.41
  -6  -3  14    0.71    1.43
  -6  -3  14   -0.11    1.40
  -3   6 -14   -1.49    1.19
   3  -6 -14   -0.32    1.03
   3   6  14    0.36    1.33
  -3  -6  14    0.06    0.95
   6   3  14    0.15    1.71
  -6  -3  15    7.74    1.75
   6  -3 -15    4.59    1.42
  -3  -6  15    4.67    1.19
   3  -6 -15    7.36    1.30
  -3   6 -15    7.18    1.42
   3   6  15    6.52    1.66
  -6  -3  15    5.67    1.63
   6   3  15    9.24    2.14
   3  -6 -15    4.96    1.32
  -6  -3  16    0.51    1.50
  -3  -6  16    1.79    1.09
  -6  -3  16    0.70    1.45
  -3   6 -16   -0.69    1.31
   3   6  16    0.20    1.50
   6   3  16    0.62    1.91
   3  -6 -16    1.41    1.24
  -6  -3  17    4.51    1.71
  -6  -3  17    6.66    1.77
  -3   6 -17    6.54    1.54
   3   6  17    5.24    1.79
   6   3  17    5.96    2.19
  -3  -6  17    4.20    1.20
  -6  -3  18    0.63    1.70
  -3   6 -18    0.58    1.46
   3   6  18    1.69    1.65
   6   3  18    0.49    2.08
  -3  -6  18    0.30    1.17
  -6  -3  18    0.12    1.63
  -6  -3  19    3.44    1.79
  -3  -6  19    4.56    1.59
  -3   6 -19    2.87    1.54
   3   6  19    2.49    1.86
   6   3  19    5.39    2.29
  -3  -6  19    2.47    1.24
  -6  -3  19    0.89    1.64
  -6  -3  20    0.97    1.75
  -3  -6  20   -0.43    1.52
  -6  -3  20   -0.79    1.77
  -3  -6  20    2.13    1.30
   3   6  20   -1.73    1.88
   6   3  20    0.17    2.10
  -6  -3  21    0.98    1.73
  -3  -6  21    3.47    1.57
  -6  -3  21    2.17    1.83
  -3  -6  21    0.27    1.42
   3   6  21    4.02    2.07
   6   3  21    1.06    2.28
  -6  -3  22   -0.88    1.81
  -3  -6  22    1.99    1.57
  -3  -6  22   -0.20    1.49
   3   6  22    0.27    2.06
   6   3  22    2.01    2.27
  -6  -3  22   -0.42    1.82
  -6  -3  23    1.98    1.88
  -6  -3  23    2.16    1.90
  -3  -6  23    0.73    1.53
   3   6  23    3.44    2.12
   6   3  23    2.29    2.43
  -6  -3  24    1.68    2.01
  -3  -6  24   -0.55    1.72
   3   6  24    0.14    2.22
  -6  -3  25   -0.78    2.01
   3   6  25    2.22    2.34
  -6  -3  26   -2.88    2.07
   3   6  26    1.22    2.35
  -4   6  25   -0.27    2.04
  -6   4  24   -0.23    1.93
  -4   6  24    2.70    2.06
  -6   4  23    0.69    1.98
  -4   6  23   -0.50    1.95
  -4   6  22    2.76    1.88
  -6  -4 -22   -0.74    1.42
  -6   4  22    1.23    1.86
  -4   6  22   -0.15    2.11
   4  -6  22    1.85    2.09
  -6   4  22    0.66    1.84
   6  -4  22   -1.56    2.25
  -4   6  21   -0.68    1.72
  -6  -4 -21    0.14    1.37
  -6   4  21    0.55    1.81
  -4   6  21    1.31    2.12
   4  -6  21   -0.50    1.91
   6  -4  21   -2.68    2.21
  -6   4  21   -0.13    1.71
  -4   6  20    0.45    1.71
  -6   4  20    0.76    1.80
  -4   6  20    1.91    1.91
   4  -6  20    2.30    1.87
   6  -4  20    3.52    2.19
  -6   4  20    3.87    1.82
  -6   4  19    0.37    1.64
  -4   6  19   -0.43    1.65
  -4   6  19   -0.27    1.89
   4  -6  19   -1.74    1.81
   6  -4  19   -0.93    1.99
  -6   4  18    1.69    1.64
  -4   6  18    1.85    1.87
   4  -6  18    2.13    1.66
  -4   6  18    2.26    1.61
   6  -4  18    2.72    1.97
  -4   6  17   -1.43    1.77
   4  -6  17    0.22    1.60
   4   6 -17   -0.29    1.54
  -6   4  17    0.83    1.62
  -4   6  17   -0.59    1.47
   6  -4  17    0.59    1.92
   4  -6  17    0.25    1.75
  -6   4  16    5.90    1.70
  -4   6  16    0.78    1.77
   4   6 -16    5.27    1.68
   6  -4  16    5.48    2.02
   4   6 -16    5.47    1.85
   4  -6  16    2.63    1.75
  -4   6  16    5.55    1.58
  -4   6  15    0.73    1.46
  -4   6  15    2.46    1.79
  -6   4  15    1.82    1.60
   4   6 -15   -0.09    1.51
   6  -4  15    1.78    1.80
   4  -6  15   -0.69    1.62
   4   6 -15    1.94    1.73
   6   4 -14    7.91    1.67
  -4   6  14    4.69    1.80
  -4  -6 -14    4.61    1.47
  -6   4  14    6.88    1.68
   4   6 -14    7.35    1.66
   6  -4  14    6.17    1.93
  -4   6  14    7.70    1.62
   4  -6  14    5.26    1.72
   4   6 -14    7.65    1.99
   4  -6  13    0.42    1.39
  -6   4  13    0.22    1.48
  -4  -6 -13    1.41    1.30
  -4   6  13    1.23    1.64
  -4   6  13    0.34    1.32
   4   6 -13    1.82    1.46
   6  -4  13   -0.39    1.66
   4  -6  13    0.42    1.49
   4   6 -13   -0.56    1.82
   6  -4  12    7.68    1.37
  -4   6  12    7.32    1.90
   6  -4  12    8.88    1.92
   4   6 -12    6.06    1.56
   4  -6  12    9.77    1.73
   4   6 -12    8.73    2.14
   4  -6  12    8.96    1.52
   4   6 -11    0.61    1.93
   6  -4  11   -0.37    1.15
  -4   6  11    0.38    1.68
   6  -4  11   -0.61    1.51
   4  -6  11   -0.09    1.39
   4   6 -11    0.48    1.25
   4  -6  11    1.01    1.30
   4   6 -10   12.07    2.22
   6  -4  10   12.35    1.55
  -4   6  10   12.44    2.13
   6  -4  10   13.56    1.91
   4  -6  10   10.87    1.67
   4   6 -10    9.96    1.63
   4  -6  10   15.15    1.69
   4   6  -9    4.06    1.90
   6  -4   9   -0.67    1.20
  -4   6   9    2.88    1.74
   6   4  -9   -0.75    1.77
   4  -6   9    0.24    1.00
   6  -4   9    0.23    1.39
   4  -6   9    1.49    1.29
   4   6  -9    0.29    1.20
   4  -6   9   -0.67    1.24
   4   6  -8   14.11    2.31
   4  -6   8   13.83    1.49
  -4   6   8   19.78    2.26
   4   6  -8   14.89    1.61
   6  -4   8   15.54    1.90
   6   4  -8   19.58    2.35
   6  -4   8   16.78    1.97
   4  -6   8   14.13    1.68
   6  -4   8   16.02    1.76
   4   6  -8   14.66    1.67
   4  -6   8   14.16    1.70
   4   6  -7    1.80    1.28
   6  -4   7    0.73    1.28
   4   6  -7    4.03    1.91
  -4   6   7   -0.70    1.50
   6   4  -7   -0.27    1.68
   4   6  -7    0.63    1.08
   6  -4   7    0.59    1.36
   6   4  -7    0.94    1.77
   6  -4   7   -0.44    1.36
   4  -6   7   -0.95    1.15
   4  -6   7    0.45    1.22
   4  -6   7   -0.11    0.95
   6   4  -6   17.20    2.30
   4   6  -6   14.45    2.26
   4   6  -6   17.75    1.71
   4   6  -6   15.82    1.61
   4  -6   6   16.38    1.62
   6  -4   6   13.93    1.91
   6  -4   6   15.69    1.93
   4  -6   6   20.10    1.81
   6  -4   6   18.06    1.76
   4  -6   6   15.36    1.49
   4   6  -5    0.07    1.34
   4  -6   5   -1.01    0.99
   6  -4   5    0.66    1.41
   6  -4   5    0.37    1.19
   4   6  -5    1.21    1.19
   4   6  -5    3.50    1.77
   6   4  -5   -0.51    1.69
   6   4  -5    3.03    0.63
   4   6  -5    0.07    1.04
   6  -4   5   -0.95    1.40
   4  -6   5   -0.07    1.05
   4  -6   5    1.07    1.22
   6  -4   4   22.94    2.13
   4   6  -4   20.42    2.04
   6   4  -4   17.59    1.38
   4   6  -4   21.26    1.77
   4   6  -4   23.77    1.84
   6  -4   4   18.92    2.04
   6   4  -4   15.77    2.27
   4  -6   4   16.76    1.67
   4  -6   4   20.48    1.60
   4  -6   4   26.70    1.97
   6  -4   4   23.37    1.95
   6  -4   3    1.22    1.21
   6  -4   3   -0.57    1.48
   4   6  -3    1.35    1.22
   4  -6   3   -0.11    1.03
   6   4  -3   -1.21    1.62
   4   6  -3   -1.42    1.13
   6  -4   3   -1.58    1.55
   4  -6   3   -0.47    1.01
   4  -6   3    1.26    1.26
   4   6  -2   27.44    2.33
   6   4  -2   28.02    2.54
   6  -4   2   23.41    2.30
   4   6  -2   25.23    1.95
   4   6  -2   21.88    1.85
   4  -6   2   20.51    1.72
   6   4  -2   22.95    2.46
   4  -6   2   27.73    2.14
   6  -4   2   25.91    2.07
   6  -4   2   23.68    2.22
   6  -4   1    0.61    1.22
   6   4  -1    2.99    1.77
   6   4  -1   -0.72    1.63
   6  -4   1   -2.65    1.56
   4   6  -1    0.50    1.09
   4   6  -1    1.59    1.15
   4  -6   1   -1.61    0.99
   6  -4   1   -0.09    1.44
   4  -6   1    1.21    1.23
   6  -4   0   28.22    2.62
   4   6   0   25.19    2.19
   6  -4   0   20.09    2.24
   6   4   0   29.51    2.58
   4  -6   0   21.29    1.73
   4   6   0   24.54    1.96
   6  -4   0   27.23    2.34
   6   4   0   29.17    2.44
   6  -4   0   26.93    2.10
   6  -4  -1   -1.48    1.59
   6  -4  -1   -2.50    1.53
   6  -4  -1    2.47    1.68
   6   4   1    0.60    1.68
   4  -6  -1   -0.29    0.90
   4  -6  -1   -0.67    0.90
   4   6   1    0.06    1.17
   6   4   1    0.19    1.48
   6   4   2   19.94    2.11
   4   6   2   20.38    2.11
   6  -4  -2   20.11    2.13
   4  -6  -2   21.80    1.67
   6   4   2   25.33    2.50
   4  -6  -2   22.56    1.66
   4   6   2   22.56    1.91
   6  -4  -2   24.90    2.50
   4   6   2   24.06    1.82
   6  -4  -2   21.38    2.20
  -6  -4   3    1.23    1.45
   4  -6  -3    2.61    0.98
   6   4   3   -0.09    1.56
   6  -4  -3   -1.71    1.48
   4  -6  -3   -0.46    0.83
   4   6   3    1.08    1.16
   6  -4  -3    4.77    1.61
   6   4   3   -0.72    1.66
   4   6   3    5.04    1.52
   4   6   3    0.14    1.15
   6  -4  -3    2.75    1.71
   6   4   4   17.96    1.95
   6  -4  -4   24.02    2.30
   4   6   4   19.59    1.94
   4  -6  -4   18.27    1.49
   4  -6  -4   22.05    1.64
   6  -4  -4   15.42    2.01
   4   6   4   21.33    1.85
   6   4   4   20.58    2.30
   4   6   4   22.27    1.69
   6  -4  -4   19.51    2.30
  -6  -4   4   19.47    2.07
   4  -6  -5    0.69    0.92
   6   4   5    0.71    1.33
   4   6   5    1.31    1.11
  -6  -4   5   -0.31    1.38
   6  -4  -5   -0.72    1.40
   4  -6  -5    0.61    0.82
   6   4   5    4.92    1.70
   6  -4  -5    2.09    1.60
   4   6   5    1.33    1.25
   6  -4  -5    1.85    1.65
   4   6   6   15.12    1.48
  -6  -4   6   16.49    2.00
   4  -6  -6   16.62    1.46
   4  -6  -6   14.42    1.35
   6  -4  -6   14.31    1.86
   6  -4  -6   19.54    1.95
   6   4   6   16.87    2.13
   6  -4  -6   17.39    2.15
   4   6   6   16.07    1.69
   6   4   6   16.04    1.83
   6  -4  -6   17.18    2.29
  -6  -4   7    0.52    1.36
   4   6   7    1.62    1.06
   6  -4  -7    0.95    1.33
   4  -6  -7    0.94    0.85
   6  -4  -7    0.75    1.34
   6   4   7    2.14    1.74
   6  -4  -7    1.66    1.59
   4   6   7    0.33    1.30
   6   4   7    0.44    1.34
   6  -4  -7    1.61    1.76
   4  -6  -7    0.36    1.00
  -6  -4   8   16.41    1.97
   4  -6  -8   13.65    1.45
   4  -6  -8   15.26    1.38
   6   4   8   15.54    1.78
   6  -4  -8   16.50    1.87
   6   4   8   14.78    2.11
   4   6   8   12.69    1.44
   4   6   8   15.89    1.78
   6  -4  -8   15.53    2.17
   6  -4  -9    0.11    1.65
  -6  -4   9    0.42    1.43
   6  -4  -9    0.10    1.38
   6   4   9    2.91    1.86
   4   6   9    2.49    1.37
   4  -6  -9   -0.67    0.99
   6  -4 -10   13.98    2.04
  -6  -4  10   10.99    1.81
   6   4  10   15.59    2.26
   4   6  10   13.80    1.83
   4  -6 -10    9.11    1.36
   6  -4 -11   -1.86    1.59
  -6  -4  11    1.04    1.48
   6   4  11    1.27    1.89
   4  -6 -11   -0.20    1.04
   4   6  11    0.20    1.44
   6  -4 -12    8.90    1.88
  -6  -4  12    8.54    1.70
   6   4  12    9.90    2.12
   4  -6 -12    6.80    1.38
   4   6  12    6.46    1.78
  -4  -6  13    0.95    1.04
   6  -4 -13   -0.91    1.48
  -6  -4  13   -0.21    1.51
   4  -6 -13    0.29    1.13
   6   4  13    0.29    1.86
   4   6  13    0.22    1.59
  -6  -4  14    7.46    1.78
   6  -4 -14    7.24    1.72
  -4  -6  14    5.34    1.28
  -4   6 -14    6.60    1.57
   4  -6 -14    6.46    1.36
  -6  -4  14    5.14    1.55
   6   4  14    8.51    2.18
   4   6  14    5.45    1.78
  -6  -4  15    0.32    1.58
  -4   6 -15    1.40    1.41
  -4  -6  15   -0.07    1.13
   6   4  15   -0.16    1.97
   4   6  15    0.24    1.77
  -6  -4  15   -0.33    1.43
  -6  -4  16    5.58    1.78
  -4  -6  16    3.79    1.30
  -6  -4  16    3.27    1.63
  -4   6 -16    6.75    1.68
   6   4  16    9.11    2.35
   4   6  16    3.41    1.89
  -6  -4  17   -1.21    1.71
  -4  -6  17    2.95    1.64
  -4   6 -17   -1.42    1.50
   4   6  17    0.34    1.71
   6   4  17    0.16    2.12
  -6  -4  17   -1.05    1.70
  -4  -6  17    0.95    1.24
  -6  -4  18    3.08    1.83
  -4  -6  18    3.87    1.69
  -6  -4  18    2.65    1.71
   4   6  18    1.65    1.76
  -4  -6  18    2.75    1.31
   6   4  18    7.10    2.38
  -6  -4  19    0.55    1.79
  -6  -4  19   -0.62    1.61
  -4  -6  19    0.86    1.72
   4   6  19    0.73    1.85
  -4  -6  19   -1.31    1.35
   6   4  19   -0.35    2.21
  -6  -4  20    1.88    1.70
  -6  -4  20    2.73    1.87
  -4  -6  20    2.44    1.67
  -4  -6  20    0.91    1.35
   4   6  20    3.95    2.00
   6   4  20    1.43    2.40
  -6  -4  21   -0.89    1.86
  -4  -6  21   -1.29    1.63
  -4  -6  21    0.38    1.42
   4   6  21    0.66    2.07
   6   4  21    1.48    2.42
  -6  -4  21   -0.13    1.77
  -6  -4  22    0.23    1.91
  -4  -6  22    1.18    1.72
  -4  -6  22    1.25    1.47
   4   6  22   -1.39    2.10
   6   4  22    1.92    2.52
  -6  -4  22    3.20    1.92
  -6  -4  23    0.91    1.97
   4   6  23    2.46    2.19
  -6  -4  24   -1.02    2.00
   4   6  24    0.30    2.33
   4   6  25    0.31    2.43
  -6   5  23    0.63    2.05
  -5   6  23    1.59    2.09
  -6   5  22    0.25    1.93
  -5   6  22    1.15    1.96
  -5   6  21    0.37    1.88
  -6   5  21    0.99    1.95
  -6   5  21    1.34    1.94
   6  -5  21    2.46    2.26
  -5   6  20   -0.12    1.80
  -6   5  20    1.59    1.88
  -5   6  20   -0.82    2.06
   5  -6  20   -0.37    1.86
  -6   5  20   -0.39    1.88
   6  -5  20   -0.48    2.16
  -6   5  19    3.82    1.96
  -5   6  19    4.28    2.21
  -5   6  19    2.01    1.88
   6  -5  19   -0.77    2.10
   5  -6  19    2.37    2.14
  -5   6  18    0.14    2.00
  -6   5  18    0.87    1.74
   6  -5  18   -0.88    1.99
   5  -6  18   -1.08    1.92
  -5   6  18    0.11    1.67
  -6   5  17    6.43    1.93
  -5   6  17    1.21    1.67
  -5   6  17    1.84    2.04
   6  -5  17    3.80    2.08
   5  -6  17    2.87    1.91
  -6   5  16   -0.35    1.74
  -5   6  16    2.45    1.71
  -5   6  16   -0.14    1.95
   6  -5  16   -0.96    1.92
   5  -6  16   -0.25    1.70
  -5   6  15    1.90    2.01
   6  -5  15    5.07    1.98
   5  -6  15    4.72    1.85
  -5   6  14    1.45    1.90
   6  -5  14    1.04    1.71
   5  -6  14   -0.91    1.69
   5   6 -14    0.52    1.70
   5   6 -13    5.76    2.30
  -5   6  13    5.44    1.85
   6  -5  13    5.44    1.81
   5  -6  13    6.59    1.70
   5   6 -13    4.45    1.76
   5   6 -12    2.94    2.15
   6   5 -12    0.41    1.85
  -5   6  12   -0.12    1.74
   6  -5  12    0.94    1.61
   5  -6  12   -0.62    1.59
   5   6 -12    1.76    1.63
   5   6 -11    8.40    2.21
   6  -5  11    8.76    1.85
   5  -6  11    5.76    1.68
   5   6 -11   10.00    1.85
   5  -6  10    0.24    1.47
   5   6 -10    0.51    2.05
   6  -5  10    0.46    1.42
   5   6 -10    1.35    1.40
   6  -5  10    1.45    1.58
   5  -6  10    1.64    1.43
   5   6 -10    0.78    1.64
   5  -6   9   11.56    1.80
   5   6  -9   12.72    1.97
   6  -5   9    6.80    1.62
   5   6  -9    9.54    2.19
   6   5  -9    8.89    2.06
   5   6  -9    9.25    1.68
   5  -6   9   10.75    1.54
   6  -5   9    9.15    1.75
   5  -6   9   10.23    1.69
   5  -6   8   -0.42    1.45
   5   6  -8   -1.78    1.49
   6  -5   8   -0.08    1.39
   5   6  -8    5.55    2.08
   6   5  -8    0.60    1.83
   6   5  -8    0.50    1.75
   5   6  -8    0.72    1.33
   6  -5   8   -0.09    1.46
   6  -5   8   -0.31    1.38
   5  -6   8   -0.43    1.29
   5  -6   8   -0.92    1.18
   6  -5   7   11.62    1.79
   6  -5   7   15.39    1.82
   5   6  -7   13.62    1.83
   5   6  -7   14.89    2.34
   6   5  -7   15.13    2.12
   6   5  -7   14.90    2.22
   5   6  -7    9.43    1.72
   5  -6   7   14.57    1.60
   6  -5   7   11.65    1.84
   5  -6   7   11.75    1.68
   6  -5   6    1.26    1.47
   5  -6   6    0.42    1.18
   5   6  -6    1.14    1.46
   6   5  -6   -0.72    1.61
   6   5  -6    1.33    1.71
   5   6  -6    0.60    1.30
   6  -5   6   -0.10    1.33
   6  -5   6    0.54    1.35
   5  -6   6   -0.64    1.24
   5   6  -5   14.03    1.96
   6  -5   5   13.36    1.82
   5   6  -5   14.01    1.64
   6   5  -5   17.09    2.15
   5   6  -5   15.58    1.78
   6  -5   5   15.03    1.88
   6   5  -5   13.94    2.14
   5  -6   5   12.70    1.60
   5  -6   5   15.11    1.60
   6  -5   4   -1.32    1.47
   5   6  -4    0.08    1.42
   5   6  -4    2.53    1.42
   6   5  -4    3.70    1.17
   6   5  -4   -0.91    1.64
   5   6  -4    2.50    1.31
   6  -5   4   -1.05    1.41
   5  -6   4   -0.22    1.11
   5  -6   4   -0.27    1.21
   6   5  -3   14.49    1.48
   5  -6   3   15.20    1.60
   5  -6   3   16.30    1.71
   5   6  -3   13.04    1.87
   6   5  -3   15.64    2.14
   5   6  -3   13.24    1.76
   5   6  -3   14.52    1.80
   6  -5   3   11.20    1.78
   6  -5   3   14.38    1.80
   5  -6   2   -0.68    1.27
   5   6  -2    3.40    1.61
   6   5  -2    1.13    1.64
   5   6  -2   -2.97    1.57
   6  -5   2   -3.00    1.45
   6   5  -2    4.24    1.29
   5  -6   2   -1.37    1.17
   5   6  -2    2.10    1.43
   6  -5   2   -1.55    1.49
   6   5  -1   21.43    2.24
   5   6  -1   18.15    1.92
   6   5  -1   16.28    1.68
   5   6  -1   18.45    1.96
   5  -6   1   15.49    1.65
   6  -5   1   20.11    2.15
   6   5  -1   19.91    2.30
   6  -5   1   17.60    1.97
   6  -5   0   -0.83    1.47
   6   5   0   -1.72    1.70
   6  -5   0   -2.25    1.47
   6   5   0   -0.82    1.73
   5  -6   0   -0.39    1.06
   5   6   0    4.13    1.51
   5   6   0   -0.17    1.35
   5   6   1   18.74    1.99
   5  -6  -1   16.11    1.65
   5   6   1   21.43    2.03
   6  -5  -1   15.83    1.93
   6   5   1   20.93    2.36
   6   5   1   23.75    2.31
   5   6   2    0.23    1.38
   6  -5  -2    1.00    1.28
   5  -6  -2   -1.00    1.05
   6   5   2   -1.02    1.78
   5  -6  -2    0.33    1.12
   5   6   2    1.21    1.44
   6   5   2    1.84    1.60
   5  -6  -3   16.07    1.55
   5  -6  -3   16.10    1.61
   5   6   3   19.09    2.03
   6  -5  -3   15.04    1.81
   5   6   3   15.52    1.74
   6   5   3   18.69    2.21
   5   6   3   13.20    1.78
   6   5   3   17.51    1.86
   6   5   4    0.34    1.34
   5  -6  -4   -0.96    1.19
   6  -5  -4    1.64    1.25
   5  -6  -4   -0.26    1.02
   6   5   4    1.30    1.74
   5   6   4    0.27    1.43
   5   6   4    1.60    1.37
   5   6   5   11.68    1.57
   5  -6  -5   17.68    1.71
   6  -5  -5   13.01    1.74
   5  -6  -5   13.50    1.44
   6   5   5   14.08    1.75
   6  -5  -5   13.34    1.81
   6   5   5   16.45    2.20
   5   6   5   16.73    1.94
   5  -6  -6    0.65    1.23
   5   6   6    1.53    1.24
   6  -5  -6    2.37    1.33
   5  -6  -6   -0.47    1.01
   6  -5  -6    1.28    1.41
   6   5   6    0.12    1.71
   5   6   6    0.29    1.48
   6   5   6    0.94    1.31
   5  -6  -7   12.25    1.58
  -6  -5   7   13.08    1.96
   6   5   7   11.47    1.70
   6  -5  -7   13.50    1.86
   6  -5  -7   15.27    1.80
   5  -6  -7   12.72    1.43
   6   5   7   13.37    2.15
   5   6   7   14.64    1.93
   5   6   7   10.72    1.50
   5  -6  -8   -0.07    1.18
  -6  -5   8    1.88    1.60
   5   6   8    2.10    1.23
   6  -5  -8   -0.29    1.45
   6  -5  -8    0.99    1.34
   6   5   8    1.92    1.94
   5   6   8    0.10    1.50
   5  -6  -8    0.14    1.05
   6   5   8    1.19    1.40
   5  -6  -9    8.10    1.51
   5   6   9    9.75    1.41
  -6  -5   9    7.74    1.83
   6  -5  -9   10.35    1.72
   5  -6  -9    7.75    1.34
   6   5   9   11.63    2.20
   5   6   9   12.34    1.93
  -6  -5  10    2.39    1.70
   5   6  10    1.47    1.21
   6   5  10    2.97    1.89
   5   6  10    1.35    1.65
  -6  -5  11   11.38    1.99
   6   5  11    7.74    2.14
   5   6  11   10.29    2.02
  -6  -5  12   -0.11    1.71
   6   5  12   -1.41    2.00
   5   6  12    1.65    1.81
  -6  -5  13    2.99    1.71
   6   5  13    7.19    2.29
   5   6  13    4.31    1.86
  -6  -5  14    0.44    1.69
  -5  -6  14   -0.84    1.64
   6   5  14    2.30    2.26
   5   6  14    0.26    1.84
  -6  -5  15    4.45    1.77
  -5  -6  15    2.56    1.76
   6   5  15    4.97    2.31
   5   6  15    2.58    2.06
  -6  -5  16   -0.11    1.70
  -5  -6  16   -0.32    1.71
  -5  -6  16    0.60    1.34
   6   5  16   -1.12    2.25
   5   6  16    1.83    2.00
  -5  -6  17    1.53    1.44
  -6  -5  17    3.09    1.84
  -5  -6  17    2.61    1.75
  -6  -5  17    4.31    1.63
   6   5  17    1.15    2.27
   5   6  17    4.35    2.19
  -6  -5  18    0.89    1.63
  -6  -5  18    0.33    1.84
  -5  -6  18    1.77    1.72
  -5  -6  18    2.14    1.48
   6   5  18    1.85    2.40
   5   6  18   -0.60    2.16
  -6  -5  19    1.68    1.88
  -5  -6  19    1.44    1.74
  -6  -5  19    2.31    1.75
   6   5  19    2.46    2.38
   5   6  19    2.62    2.24
  -5  -6  19    0.96    1.50
  -6  -5  20   -0.59    1.70
  -6  -5  20    0.46    1.88
  -5  -6  20   -0.71    1.74
   5   6  20   -0.96    2.10
   6   5  20    0.18    2.60
   5   6  20    0.32    2.22
  -5  -6  21    2.04    1.86
   5   6  21    0.99    2.22
  -6  -5  21    2.70    1.78
   6   5  21    0.75    2.68
  -5  -6  22    1.53    1.87
   5   6  22   -1.30    2.28
   5   6  23   -0.75    2.32
  -6   6  20    0.78    2.00
   6  -6  16   -0.13    1.89
   6  -6  15   -1.82    1.81
   6  -6  14    3.17    1.73
   6  -6  13   -1.14    1.72
   6   6 -12    3.78    1.79
   6  -6  12    4.46    1.79
   6   6 -11   -0.63    2.21
   6   6 -11   -2.01    1.74
   6  -6  11   -0.95    1.53
   6   6 -10    6.93    2.28
   6   6 -10    4.84    1.80
   6  -6  10    6.54    1.67
   6   6  -9    0.36    2.00
   6   6  -9    0.78    1.65
   6  -6   9    0.29    1.45
   6   6  -8    4.92    1.85
   6   6  -8    6.93    1.78
   6  -6   8    6.38    1.60
   6   6  -7    0.43    1.73
   6   6  -7    0.11    1.55
   6  -6   7   -0.19    1.38
   6   6  -6    9.00    1.93
   6   6  -6    6.96    1.71
   6  -6   6    4.45    1.44
   6   6  -5   -0.10    1.66
   6   6  -5    0.62    1.52
   6  -6   5   -0.43    1.27
   6   6  -4    8.07    1.80
   6  -6   4    6.11    1.43
   6   6  -3   -0.84    1.61
   6   6  -3   -0.84    1.59
   6  -6   3   -1.23    1.31
   6   6  -2   13.07    2.00
   6  -6   2    9.85    1.61
   6   6  -1    0.72    1.68
   6  -6   1   -0.16    1.27
   6  -6   0    9.40    1.54
   6   6   0   14.12    2.01
   6   6   0   12.59    1.73
   6  -6  -1   -1.37    1.31
   6   6   1   -1.04    1.59
   6   6   2   11.08    1.84
   6  -6  -2    9.51    1.57
   6   6   2   10.25    1.68
   6   6   3    1.07    1.57
   6  -6  -3   -1.03    1.23
   6   6   3    0.74    1.67
   6  -6  -4    7.99    1.41
   6   6   4    9.05    1.92
   6   6   4    8.84    1.74
   6  -6  -5   -0.24    1.19
   6   6   5    0.89    1.69
   6   6   5    0.24    1.42
   6   6   6    6.36    1.49
   6  -6  -6    6.29    1.35
   6   6   6    8.61    2.00
   6   6   7    0.48    1.34
   6  -6  -7   -0.17    1.17
   6   6   7    0.24    1.79
   6  -6  -8    6.68    1.47
   6   6   8    6.63    2.05
   6  -6  -9   -0.71    1.26
   6   6   9    0.74    1.84
  -6  -6  10    5.08    1.89
   6  -6 -10    3.29    1.43
   6   6  10    7.07    2.06
  -6  -6  11   -1.29    1.76
   6  -6 -11    1.13    1.33
   6   6  11    1.86    2.09
  -6  -6  12    4.03    1.89
   6   6  12    3.00    2.08
  -6  -6  13   -0.23    1.79
   6   6  13   -0.28    2.06
  -6  -6  14    0.34    1.81
   6   6  14    2.14    2.07
   6   6  15   -1.62    2.26
   6   6  16    2.44    2.34
   6   6  17    2.24    2.34
   6   6  18    4.76    2.47
   6   6  19    0.17    2.50
   6   6  20    0.69    2.57
   0   7   0    8.79    2.21
  -7   0   0   12.34    1.74
   0   7   0    7.24    2.04
   7   0  -1   57.81    3.44
   0   7  -1   62.94    4.12
   0   7   1   65.32    4.04
   7   0  -1   57.44    4.02
   7   0   1   52.85    3.98
   0   7  -1   53.03    3.88
   0   7   1   58.73    4.02
  -7   0   1   56.01    3.47
  -7   0  -1   52.17    3.43
  -7   0   2    7.59    1.58
  -7   0  -2    9.94    1.58
   0   7  -2    2.77    1.76
   0   7   2    5.70    1.95
   7   0  -2    2.01    2.01
   7   0   2    0.14    1.87
   0   7  -2    3.10    1.79
   0   7   2    8.34    2.07
   7   0  -3   33.77    2.47
   0   7   3   41.22    3.08
   7   0  -3   40.44    3.23
   7   0   3   37.97    3.11
   0   7  -3   35.34    2.97
   0   7   3   32.88    3.09
  -7   0   3   34.12    2.61
  -7   0  -3   32.37    2.46
  -7   0  -4    3.07    1.39
   7   0  -4    2.79    1.90
   0   7   4    2.36    1.83
   7   0   4   -1.29    1.77
   0   7  -4    1.46    1.72
   0   7   4    5.86    2.06
   0   7   5   40.67    3.21
   7   0  -5   34.51    2.35
   7   0  -5   34.06    3.07
   7   0   5   34.21    3.06
   0   7  -5   30.36    2.90
   0   7   5   41.49    3.30
  -7   0  -5   28.41    2.35
  -7   0  -6    4.22    1.36
   7   0  -6    5.23    1.96
   0   7   6    3.25    2.01
   7   0  -6    8.64    1.37
   7   0   6    0.28    1.64
   0   7  -6    0.81    1.75
   7   0  -7   33.55    2.22
   7   0   7   35.96    2.95
   0   7  -7   31.49    2.91
  -7   0  -7   29.33    2.31
  -7   0   8    1.32    1.50
  -7   0  -8    2.35    1.27
   0   7   8    1.11    1.89
   7   0   8    0.86    1.61
   7   0  -8    6.72    1.25
   0  -7   8   -0.40    1.27
   0   7   9   30.57    2.91
   0  -7   9   23.59    2.21
   7   0   9   28.67    2.77
  -7   0   9   27.48    2.38
  -7   0  -9   27.16    2.06
  -7   0  10    2.46    1.54
   0   7  10    5.58    2.27
  -7   0 -10    2.58    1.27
   0   7  10    0.90    0.50
   0  -7 -10    0.36    0.39
   0   7  10    2.22    1.82
   7   0  10    0.44    1.69
   0  -7  10    0.49    1.42
   0   7  11   23.32    2.88
   0   7 -11   14.09    1.04
   0   7  11   21.88    2.47
   0  -7  11   16.91    1.89
   7   0  11   22.33    2.47
   0   7  11   17.66    1.18
   0  -7  11   14.01    0.98
  -7   0  11   19.28    2.09
  -7   0 -11   19.14    1.67
  -7   0  12    1.15    1.47
  -7   0 -12    0.31    1.07
   0   7  12    3.67    2.30
   0   7  12   -0.75    0.83
   0  -7  12    0.92    0.64
   0   7 -12   -0.18    0.73
   0   7  12    1.03    1.92
   0  -7  12    1.43    1.36
   7   0  12    2.23    1.90
  -7   0  13   11.78    1.89
  -7   0 -13   13.05    1.37
   0   7  13    9.94    2.44
   0  -7  13    7.41    0.94
   0   7 -13    8.14    1.13
   0   7  13   15.74    2.38
   0  -7  13   11.61    1.63
   7   0  13   12.80    2.24
  -7   0  13   12.78    1.88
  -7   0  14    1.06    1.53
  -7   0 -14   -0.98    1.00
   0   7  14    1.62    2.31
   0   7 -14    0.76    0.99
   0   7  14    0.62    2.00
   0  -7  14    0.63    1.36
  -7   0  14   -0.24    1.38
   7   0  14    1.56    1.87
  -7   0 -15   10.13    1.26
  -7   0  15    7.41    1.80
   0   7  15    5.70    2.50
   0   7 -15    6.58    1.25
   0  -7  15    5.72    1.49
   0   7  15    9.48    2.40
   7   0  15   10.11    2.22
  -7   0  15    8.04    1.74
   0   7  16    1.08    2.26
  -7   0  16    1.90    1.65
   0  -7  16    1.10    1.37
   0   7 -16   -0.13    1.12
   0   7  16    2.83    2.21
   7   0  16    0.81    1.87
  -7   0 -16   -0.47    0.95
  -7   0  16    0.53    1.59
   0   7  17    7.48    2.61
   0  -7  17    4.37    1.50
   0   7 -17    5.92    1.38
   0   7  17    5.14    2.31
   7   0  17    5.88    2.14
  -7   0  17    5.84    1.82
  -7   0 -17    7.00    1.08
  -7   0  17    2.97    1.67
   0   7  18    4.06    2.50
  -7   0  18    0.53    1.61
   0   7  18    0.25    1.39
   0   7  18    0.18    2.32
   7   0  18    2.66    2.10
  -7   0  18    1.69    1.66
   0   7  19    2.29    2.58
  -7   0  19    3.40    1.80
   0   7  19    2.86    1.57
   0   7  19    2.59    2.50
   7   0  19    1.89    2.03
  -7   0  19    3.69    1.74
   0   7  20    1.15    2.78
  -7   0  20   -0.41    1.65
   0   7  20   -0.10    1.60
   0   7  20   -0.57    2.51
   7   0  20   -1.25    2.09
  -7   0  20    0.84    1.65
   0   7  21    2.13    2.89
   0   7  21    1.24    1.68
  -7   0  21    3.08    1.80
   0   7  22    1.16    2.79
   0   7  22   -1.54    1.86
   0   7  23    2.33    2.89
   0   7  23    0.12    1.90
   0   7  24    1.17    2.88
   0   7  24    0.24    2.00
   0   7  25    4.26    3.06
  -1   7  26    1.02    2.82
  -1   7  25   -0.17    2.72
  -1   7  24   -0.17    2.60
  -1   7  23   -0.35    2.59
  -1   7  22   -2.83    2.68
  -1   7  21   -1.24    2.55
  -7  -1 -20    2.29    1.05
   7  -1  20   -0.18    2.19
  -1   7  20   -0.35    2.51
  -7  -1 -19   -0.14    1.02
   7  -1  19   -0.51    2.07
  -1   7  19   -1.24    2.50
  -7  -1 -18    2.89    1.13
   7  -1  18    5.94    2.13
  -1   7  18    4.03    2.46
  -7  -1 -17    0.16    1.09
  -1   7  17   -0.07    1.32
   1   7 -17   -0.08    1.29
   7  -1  17    0.97    1.91
  -1   7  17    0.70    2.32
  -7  -1 -16    7.06    1.27
  -1   7  16    5.22    1.36
  -1   7  16    6.03    2.25
   1   7 -16    4.78    1.35
   7  -1  16    4.16    2.00
  -1   7  16    6.18    2.40
  -7  -1 -15    0.67    1.15
  -1   7  15   -0.43    1.19
  -1   7  15    1.59    2.09
   1   7 -15    0.13    1.17
   7  -1  15    0.94    1.86
  -1   7  15   -0.17    2.15
  -7   1  15    1.72    1.49
  -7  -1 -14    9.53    1.43
   1  -7  14    6.15    1.02
  -1   7  14    7.37    2.20
  -1   7  14   10.31    1.29
   1   7 -14    7.88    1.22
   7  -1  14    8.96    2.12
  -1   7  14   11.54    2.51
  -7   1  14    9.63    1.75
  -7  -1 -13    0.82    1.17
   1  -7  13   -0.21    0.72
  -1   7  13   -0.15    1.94
   1   7 -13    0.73    0.92
   7  -1  13    1.36    1.81
  -1   7  13    0.21    0.90
  -1   7  13   -1.31    2.07
  -7   1  13    0.50    1.45
  -7  -1 -12   15.20    1.63
   1  -7  12    8.21    0.92
  -1   7  12   17.71    2.51
   1   7 -12   10.91    1.15
   7  -1  12   18.70    2.32
  -1   7  12   14.18    1.16
  -1   7  12   11.43    2.41
  -7   1  12   11.71    1.77
  -7  -1 -11    1.87    1.31
  -1   7  11    1.52    2.07
   1   7 -11    0.81    0.69
   7  -1  11    1.60    1.69
  -1   7  11    0.44    0.72
  -1   7  11    2.37    1.95
  -7   1  11    2.29    1.41
  -1   7  10   29.36    2.89
   1  -7  10   21.32    2.04
   1   7 -10   14.88    1.02
   7  -1  10   22.45    2.46
  -1   7  10   26.91    2.80
   1   7 -10   22.47    2.52
  -7   1  10   19.35    2.02
  -7  -1 -10   24.46    1.93
  -7  -1  -9    4.28    1.41
  -1   7   9    1.20    1.97
   1  -7   9    1.13    1.37
   7  -1   9    1.28    1.68
   1   7  -9    1.32    1.92
  -1   7   9    3.76    1.98
  -7   1   9    2.76    1.49
   1  -7   8   23.25    2.29
   7  -1   8   28.02    2.70
   1   7  -8   24.22    2.65
  -7   1   8   26.28    2.29
  -7  -1  -8   24.47    2.17
  -1   7   8   25.42    2.79
  -7  -1  -7    2.19    1.35
  -1   7   7    1.78    1.85
   7   1  -7    5.59    1.05
   7  -1   7    2.21    1.57
   1  -7   7   -1.71    1.41
   1   7  -7    1.58    1.85
  -1   7   6   31.26    2.66
   7   1  -6   18.63    1.62
   1  -7   6   21.22    2.14
   7  -1   6   26.34    2.47
   1   7  -6   19.91    2.46
  -7  -1  -6   26.36    2.10
  -7  -1  -5    4.15    1.43
  -1   7   5    3.87    1.84
   7   1  -5    5.46    1.19
   7  -1   5    0.28    1.68
   1  -7   5    1.32    1.37
   1   7  -5    1.74    1.80
   7   1  -4   23.58    1.97
  -1   7   4   36.28    2.93
   7  -1   4   27.78    2.73
  -1   7   4   33.57    2.88
   1   7  -4   29.81    2.83
  -7   1   4   28.64    2.34
  -7  -1  -4   28.19    2.27
  -7   1   3    6.68    1.50
  -7  -1  -3    7.17    1.48
   1   7  -3    4.27    1.88
   7   1  -3    7.60    1.48
  -1   7   3    1.16    1.65
   7  -1   3    1.10    1.66
  -1   7   3    3.06    1.77
   1   7  -3    6.52    2.04
   1   7  -2   37.54    3.18
   7  -1   2   30.80    2.96
  -1   7   2   37.33    3.12
   1   7  -2   32.69    3.11
  -7   1   2   34.90    2.60
  -7  -1  -2   32.99    2.56
  -7   1   1    5.16    1.43
  -7  -1  -1    8.19    1.59
   7  -1   1    9.89    1.86
  -1   7   1    1.22    1.78
   1   7  -1    1.81    1.80
   7  -1   1   -1.36    1.81
  -1   7   1    2.60    1.74
   1   7  -1    8.29    2.19
  -1   7   0   43.53    3.21
   7  -1   0   37.90    2.84
   1   7   0   38.27    3.16
   7  -1   0   33.08    3.05
  -1   7   0   40.69    3.19
   1   7   0   36.36    3.28
  -7   1   0   33.60    2.56
  -7  -1   0   37.05    2.69
  -7   1  -1    9.56    1.53
   1   7   1    1.67    1.98
  -7  -1   1    5.68    1.53
  -1   7  -1    3.17    1.76
   7  -1  -1   11.90    1.80
   1   7   1    4.93    1.89
   7  -1  -1    0.68    1.74
  -1   7  -1    0.41    1.66
   7  -1  -2   37.71    2.66
   1   7   2   35.86    3.04
   7  -1  -2   36.71    3.10
  -1   7  -2   35.64    3.12
   1   7   2   38.59    3.31
  -7   1  -2   30.26    2.44
  -7  -1   2   39.07    2.72
  -7   1  -3    5.67    1.36
   1   7   3    3.35    2.02
  -7  -1   3    4.49    1.61
   7  -1  -3    1.39    1.77
   7  -1  -3    8.52    1.56
   1   7   3    8.22    2.11
  -1   7  -3    2.69    1.76
   7  -1  -4   33.05    2.43
   1   7   4   33.67    2.97
   7  -1  -4   30.89    2.80
   1   7   4   27.06    2.92
  -7   1  -4   25.73    2.17
  -7   1  -5    2.86    1.22
   1   7   5    5.33    2.05
   7  -1  -5    1.41    1.70
   7  -1  -5    7.06    1.51
   1   7   5    5.56    1.95
   1   7   6   24.08    2.88
   1   7   6   24.40    2.59
   7  -1  -6   26.56    2.07
   7  -1  -6   25.33    2.60
  -7   1  -6   25.50    1.97
  -7  -1   7    2.76    1.49
   1   7   7    5.66    2.16
   1   7   7    4.06    1.83
   7  -1  -7    5.98    1.44
  -7   1  -7    1.27    1.09
   1   7   8   26.15    2.56
   7  -1  -8   27.99    2.12
  -7   1  -8   24.65    1.91
  -7  -1   8   21.45    2.24
  -7  -1   9    1.04    1.52
   1   7   9    1.44    1.76
  -7   1  -9    1.51    1.06
   1  -7 -10   17.96    1.20
  -7   1 -10   20.70    1.65
  -7  -1  10   20.99    2.15
  -7  -1  11    2.12    1.51
   1   7  11    1.09    2.33
   1   7  11    1.25    0.78
   1   7  11    3.59    1.93
   7  -1 -11    0.63    1.59
  -7   1 -11    1.29    0.96
  -7  -1  12   11.34    1.85
   1   7  12   12.07    2.74
   1   7  12   13.65    1.25
  -1   7 -12   11.11    1.09
   1   7  12   12.67    2.26
  -1  -7  12    9.03    0.93
   7  -1 -12   13.65    1.93
  -7  -1  13    2.37    1.60
   1   7  13    2.98    2.38
  -1  -7  13    0.39    0.71
   1   7  13   -0.05    1.03
  -1   7 -13   -0.08    0.84
   1   7  13   -0.30    1.90
  -7  -1  14    7.32    1.83
   1   7  14    7.37    2.57
   1   7  14   10.03    1.43
  -7  -1  14    8.77    1.77
  -1   7 -14    6.36    1.11
   1   7  14   12.71    2.52
  -1  -7  14    7.41    1.49
  -1  -7  14    6.61    0.95
  -7  -1  15   -0.25    1.51
  -7  -1  15   -1.22    1.59
   1   7  15   -0.19    2.35
   1   7  15   -0.64    1.29
  -1   7 -15    1.11    1.00
   1   7  15    1.13    2.16
  -1  -7  15    1.50    1.32
  -7  -1  16    5.34    1.77
   1   7  16    4.66    2.62
   1   7  16    5.83    1.54
  -7  -1  16    9.05    1.82
  -1   7 -16    4.86    1.29
   1   7  16    9.93    2.50
  -1  -7  16    3.57    1.45
  -7  -1  17    3.44    1.68
  -7  -1  17    1.79    1.71
   1   7  17   -0.78    2.49
   1   7  17    0.62    1.51
  -1   7 -17   -0.07    1.21
  -1  -7  17   -0.95    1.43
   1   7  17    3.47    2.33
  -7  -1  18    3.60    1.83
   1   7  18    2.97    2.73
   1   7  18    3.63    1.75
  -1  -7  18    1.95    1.43
   1   7  18    4.72    2.40
  -7  -1  18    2.85    1.74
  -7  -1  19    0.57    1.76
   1   7  19   -1.59    2.63
   1   7  19    0.41    1.72
  -7  -1  19    0.28    1.68
   1   7  19    0.54    2.28
  -7  -1  20    4.92    1.91
   1   7  20    3.80    2.90
  -7  -1  20    3.14    1.84
   1   7  20    3.18    1.88
   1   7  20    3.66    2.58
   1   7  21    3.67    2.92
   1   7  21   -1.16    1.92
  -7  -1  21   -0.91    1.80
   1   7  22    4.08    3.10
   1   7  22    1.84    2.06
  -7  -1  22    1.25    1.85
   1   7  23   -2.04    2.95
   1   7  23    0.63    2.13
   1   7  24    0.13    2.08
  -2   7  25    0.32    2.61
  -2   7  24   -1.95    2.49
  -2   7  23    1.07    1.97
  -2   7  23    0.66    2.51
  -2   7  22   -0.56    1.95
  -2   7  22   -0.50    2.46
  -2   7  21    2.13    1.77
  -2   7  21    2.78    2.43
  -7  -2 -20   -0.22    1.19
  -7   2  20    0.40    1.73
  -2   7  20   -0.79    1.69
  -2   7  20    4.06    2.55
   7  -2  20   -2.63    2.24
  -2   7  20   -0.98    2.34
  -7  -2 -19    3.12    1.28
  -2   7  19    1.98    2.44
  -2   7  19    1.51    1.48
  -7   2  19    1.18    1.68
   7  -2  19    3.61    2.19
  -2   7  19    0.33    2.32
  -7  -2 -18    0.80    1.18
  -2   7  18    4.28    2.50
  -2   7  18   -0.57    1.48
   7  -2  18   -1.00    2.00
  -2   7  18    0.65    2.27
  -7   2  18    1.29    1.63
  -7  -2 -17    5.29    1.37
  -7   2  17    5.30    1.73
  -2   7  17    6.08    2.45
   7  -2  17    6.10    2.10
  -2   7  17    3.64    1.43
  -2   7  17    3.88    2.31
  -2   7  16    0.27    1.21
  -7  -2 -16   -0.35    1.26
   7  -2  16   -2.38    1.91
  -7   2  16   -0.12    1.51
  -2   7  16    2.08    2.16
  -7  -2 -15    6.83    1.49
  -2   7  15    7.87    1.37
   7  -2  15    4.68    2.01
   2   7 -15    7.19    1.56
  -7   2  15    8.55    1.75
  -2   7  15    5.56    2.29
  -7  -2 -14    1.23    1.40
  -7   2  14   -0.12    1.42
  -2   7  14    0.34    1.08
   7  -2  14    2.47    1.95
   2   7 -14    0.42    1.24
  -2   7  14   -1.41    2.04
  -2   7  13   10.60    1.32
  -7  -2 -13   12.26    1.65
   7  -2  13   10.24    2.17
   2   7 -13    7.36    1.41
   2   7 -13    9.36    2.20
  -2   7  13   10.25    2.40
   2  -7  13    6.05    1.17
  -7  -2 -12    0.41    1.31
  -2   7  12    2.26    2.13
   7  -2  12    0.44    1.72
   2   7 -12    1.05    1.08
   2   7 -12    2.73    2.04
  -2   7  12    1.23    1.99
  -2   7  12    0.36    0.93
   2  -7  12    0.73    0.86
   2  -7  11   12.37    1.18
  -2   7  11   17.56    2.46
   2   7 -11   15.69    1.46
   7  -2  11   19.33    2.40
   2   7 -11   12.21    2.36
  -2   7  11   14.93    2.46
  -7  -2 -11   19.15    1.90
   2  -7  10    0.60    0.70
  -7  -2 -10    4.09    1.45
  -2   7  10    3.82    1.90
   7  -2  10    2.82    1.80
   2   7 -10   -0.68    0.86
  -2   7  10    0.76    1.89
   2   7 -10    0.79    1.96
   2  -7   9   13.35    1.06
   2   7  -9   18.14    1.15
   7  -2   9   23.84    2.50
  -2   7   9   23.20    2.47
   2   7  -9   16.84    1.25
  -2   7   9   26.08    2.73
   2   7  -9   20.46    2.54
  -7  -2  -9   21.65    1.97
  -7  -2  -8    4.02    1.48
   2  -7   8    0.72    0.42
   2  -7   8    0.01    0.43
  -2   7   8    1.90    1.78
   2   7  -8    0.41    0.44
   7  -2   8    0.14    1.71
   2   7  -8    0.40    0.51
  -2   7   8    1.05    1.87
   2   7  -8    1.90    1.95
  -2   7   7   33.82    2.94
   7   2  -7   34.90    3.21
   7  -2   7   30.11    2.79
  -2   7   7   31.43    2.98
   2   7  -7   27.16    2.93
  -7  -2  -7   26.74    2.34
  -7  -2  -6    3.15    1.49
   7   2  -6    3.40    2.13
  -2   7   6    2.65    1.84
   7   2  -6    7.18    0.86
   7  -2   6    0.67    1.66
  -2   7   6    3.27    1.91
   2   7  -6    4.47    2.19
  -2   7   5   39.57    2.86
   7   2  -5   20.77    1.58
   7   2  -5   32.86    3.05
   7  -2   5   28.37    2.64
   2   7  -5   27.81    2.93
  -7  -2  -5   25.27    2.22
   2   7  -4    3.72    2.09
  -7  -2  -4    8.95    1.64
   7  -2   4    2.88    1.36
   7  -2   4    7.50    1.81
   2   7  -4    2.41    1.86
   7   2  -4    6.73    1.28
  -2   7   4   -0.98    1.82
   7   2  -4    3.27    2.06
   7  -2   4   -0.42    1.73
   2   7  -3   25.44    2.89
   7  -2   3   27.15    2.48
   2   7  -3   30.39    2.83
   7  -2   3   28.33    2.73
   7   2  -3   21.96    2.85
  -7  -2  -3   25.13    2.31
   7  -2   3   29.95    2.25
   2   7  -2    3.69    2.05
  -7  -2  -2    8.76    1.66
   7  -2   2    2.52    1.40
  -2   7   2    2.30    1.77
   7  -2   2    7.83    2.02
   2   7  -2    4.13    1.92
   7   2  -2   -2.09    2.01
   7  -2   2   -0.13    1.62
  -2   7   2    3.22    1.85
   7  -2   1   32.56    2.76
   2   7  -1   38.45    3.08
   7   2  -1   38.58    3.25
   7  -2   1   35.27    3.02
   2   7  -1   30.49    3.06
  -7  -2  -1   34.23    2.66
   7  -2   1   36.36    2.56
   2   7   0    8.91    2.19
  -7  -2   0    7.82    1.71
   7  -2   0   11.95    2.00
   2   7   0    8.07    2.07
   7  -2   0   -0.52    1.72
   7   2   0    0.59    1.93
   7  -2  -1   38.19    2.81
   2   7   1   41.66    3.24
   7  -2  -1   30.53    2.95
   7   2   1   39.12    3.28
   2   7   1   36.74    3.24
  -7  -2   1   32.63    2.62
  -7  -2   2    5.91    1.65
   7  -2  -2    0.26    1.81
   7  -2  -2    7.06    1.77
   2   7   2    6.36    2.12
   7   2   2    2.21    1.91
   2   7   3   26.02    3.00
   7  -2  -3   34.19    2.69
   2   7   3   29.87    2.82
   7  -2  -3   25.30    2.69
   7   2   3   36.22    3.07
   2   7   4    5.57    2.22
   7  -2  -4    3.21    1.78
   7  -2  -4   10.49    1.83
   2   7   4    6.66    1.95
   7   2   4    1.07    1.89
   7  -2  -5   30.03    2.45
   2   7   5   26.50    2.60
   7  -2  -5   29.67    2.82
   7   2   5   30.48    2.88
   2   7   5   31.54    3.14
  -7  -2   6    3.87    1.56
   2   7   6    5.20    2.20
   7  -2  -6    6.67    1.90
   2   7   6    2.13    1.70
   7  -2  -6    6.75    1.64
   7   2   6    0.14    1.76
   2   7   7   25.25    2.45
   7  -2  -7   32.99    2.28
   7  -2  -7   30.48    2.66
   2   7   7   18.66    1.08
   2  -7  -7   19.12    1.05
   7   2   7   33.36    2.80
   2  -7  -7   20.91    1.08
   2   7   7   30.68    3.06
  -7  -2   7   26.57    2.26
   2   7   8    1.34    0.76
  -7  -2   8    1.70    1.51
   2   7   8    4.05    2.22
   2  -7  -8   -0.08    0.45
   2   7   8    2.70    1.86
   7   2   8    2.24    1.83
   7  -2  -8    3.61    1.50
   2  -7  -8    0.28    0.62
   7  -2  -8    4.14    1.81
   2   7   8    1.48    0.61
   2   7   9   16.97    1.20
  -7  -2   9   17.72    2.05
   2   7   9   23.71    3.02
   2   7   9   20.09    1.43
   2  -7  -9   16.61    1.10
   2   7   9   20.69    2.42
   7   2   9   21.73    2.58
   7  -2  -9   23.46    2.39
  -7  -2  10    1.73    1.59
   2   7  10    4.23    1.95
   7   2  10    2.42    1.86
   7  -2 -10    3.16    1.81
   2   7  10    0.83    1.05
  -7  -2  11   14.96    2.06
   2   7  11   16.38    1.60
   2   7  11   14.23    2.32
   7   2  11   18.85    2.47
   7  -2 -11   16.93    2.16
  -7  -2  12    1.78    1.65
   2   7  12    0.42    1.88
   7   2  12    1.88    1.86
   7  -2 -12    2.32    1.73
   2   7  12    1.50    1.22
  -7  -2  13   10.97    2.03
   2   7  13   11.72    2.78
  -2   7 -13   10.87    1.29
   2   7  13   10.71    2.29
   7   2  13   12.90    2.37
  -2  -7  13    9.02    1.11
   2   7  13   11.45    1.68
  -7  -2  14   -0.22    1.63
   2   7  14   -0.19    2.42
  -2   7 -14   -0.39    1.01
  -7  -2  14   -0.12    1.44
   2   7  14   -0.43    1.89
   7   2  14    0.66    2.04
   2   7  14   -0.70    1.36
  -7  -2  15    8.60    1.91
   2   7  15    7.76    2.72
  -7  -2  15    8.06    1.83
  -2   7 -15    7.46    1.30
   2   7  15    6.95    2.17
   7   2  15    8.51    2.30
   2   7  15    7.96    1.70
  -7  -2  16    2.08    1.70
  -7  -2  16    0.34    1.69
   2   7  16    0.59    2.35
  -2   7 -16    0.20    1.11
   2   7  16    0.45    2.03
   7   2  16   -2.04    2.06
   2   7  16    0.37    1.61
  -7  -2  17    4.97    1.88
   2   7  17    1.78    2.55
  -7  -2  17    6.57    1.91
   7   2  17    3.60    2.27
   2   7  17    2.95    1.74
   2   7  18    1.56    1.77
  -7  -2  18   -0.96    1.71
  -7  -2  18    0.93    1.80
   2   7  18    2.79    2.65
   7   2  18    0.71    2.18
   2   7  19    3.87    1.96
  -7  -2  19    1.42    1.89
  -7  -2  19    1.27    1.76
   7   2  19    0.18    2.16
   2   7  20    1.37    1.96
  -7  -2  20   -0.96    1.92
   2   7  20   -1.01    2.73
  -7  -2  20   -0.58    1.85
   7   2  20   -3.55    2.37
  -7  -2  21    2.04    1.93
   2   7  21    3.47    2.10
   2   7  21    3.43    2.95
   2   7  22   -1.11    2.08
   2   7  23    1.54    2.08
  -3   7  22    2.27    1.88
  -3   7  21   -0.31    1.66
  -7  -3 -20    1.13    1.37
  -3   7  20    1.14    1.56
  -7  -3 -19    0.83    1.36
  -7   3  19    1.45    1.82
  -3   7  19   -1.66    1.56
   7  -3  19   -0.51    2.15
  -7  -3 -18    4.31    1.49
  -3   7  18    3.52    2.25
  -3   7  18    2.25    1.61
  -7   3  18    3.49    1.81
   7  -3  18    3.19    2.18
  -7  -3 -17   -0.76    1.41
  -7   3  17    1.27    1.71
  -3   7  17   -3.38    2.21
   7  -3  17    0.48    2.02
  -3   7  17    0.81    1.39
  -3   7  16    4.74    1.43
  -7  -3 -16    3.37    1.49
  -3   7  16    3.61    2.28
   7  -3  16    6.71    2.17
  -7   3  16    3.83    1.77
  -7  -3 -15    0.08    1.39
  -3   7  15   -0.59    1.91
  -3   7  15    1.21    1.30
   7  -3  15    1.70    1.97
  -7  -3 -14    7.51    1.57
  -3   7  14    7.92    1.43
  -3   7  14    4.96    2.07
   7  -3  14    7.57    2.12
   3   7 -14    3.29    2.23
  -7  -3 -13   -1.65    1.41
  -3   7  13    0.43    1.93
   7  -3  13    1.65    1.92
   3   7 -13   -1.18    1.41
   3   7 -13   -0.39    2.03
  -7  -3 -12   10.60    1.75
   7  -3  12   10.61    2.19
   3   7 -12    7.84    1.52
   3   7 -12    9.98    2.36
  -7  -3 -11    1.91    1.47
   3  -7  11    0.92    1.01
   7  -3  11    0.99    1.82
   3   7 -11    0.61    1.34
   3   7 -11    2.31    2.18
  -7  -3 -10   14.49    1.87
   3   7 -10   12.51    1.33
   3  -7  10   10.54    1.35
   7  -3  10   16.67    2.30
   3   7 -10   14.34    1.64
   3   7 -10   18.28    2.58
  -7  -3  -9    4.33    1.61
   7  -3   9    0.70    1.29
   3   7  -9    0.47    0.86
   3  -7   9    0.04    0.90
   7  -3   9   -0.68    1.67
   3   7  -9    0.91    1.16
   3   7  -9   -0.15    2.18
   3  -7   8   15.00    1.35
   3   7  -8   15.73    1.37
   7   3  -8   26.27    2.90
   7  -3   8   23.74    2.48
   3   7  -8   16.59    1.59
  -7  -3  -8   20.94    2.09
   7  -3   8   21.52    1.91
   3   7  -8   20.00    2.76
   3   7  -7    3.77    2.30
  -7  -3  -7    3.28    1.60
   7  -3   7   -0.38    1.36
  -3   7   7    1.15    1.92
   7   3  -7   -0.17    2.07
   3   7  -7    0.85    0.80
   3  -7   7   -0.41    0.79
   7  -3   7    0.67    1.71
   3   7  -7    0.95    1.06
   3   7  -6   25.69    2.85
   3  -7   6   16.20    1.29
  -3   7   6   27.40    2.75
   3   7  -6   19.13    1.37
   7   3  -6   25.17    2.89
   7  -3   6   22.55    2.36
  -7  -3  -6   20.25    2.12
   7  -3   6   19.62    2.00
   3   7  -5    4.10    2.18
  -7  -3  -5    4.61    1.57
   7  -3   5    0.62    1.33
  -3   7   5    2.51    1.79
   7   3  -5    0.95    2.05
   3   7  -5    0.69    0.85
   3  -7   5   -0.49    0.69
   7  -3   5    0.38    1.56
   3   7  -5    1.49    0.73
   3   7  -4   24.05    1.53
  -3   7   4   32.95    2.75
   3   7  -4   26.51    2.62
   7  -3   4   27.58    2.68
   3   7  -4   22.24    1.46
   7   3  -4   25.96    2.95
   3   7  -4   28.12    2.97
  -7  -3  -4   27.99    2.35
   7  -3   4   26.49    2.20
   3   7  -3    6.26    2.21
   3  -7   3   -0.03    0.56
  -7  -3  -3    7.18    1.67
   3   7  -3    3.35    1.97
   7   3  -3   -0.75    2.02
   3   7  -3    1.63    0.75
   7  -3   3   -1.32    1.70
   3   7  -3    1.01    0.70
   3   7  -2   26.24    1.35
   3   7  -2   34.09    2.71
   3  -7   2   19.08    1.20
   7   3  -2   33.52    2.96
   7  -3   2   27.11    2.57
   3   7  -2   22.48    1.32
   3  -7   2   19.13    1.26
   3   7  -2   33.75    3.05
  -7  -3  -2   28.16    2.31
   3   7  -1    9.52    2.44
  -7  -3  -1    6.79    1.69
   3   7  -1    5.73    2.07
   7   3  -1    0.30    1.93
   7  -3   1   -0.77    1.70
   3   7  -1    0.17    0.61
   3   7  -1   -0.02    0.64
   3  -7   1   -1.65    0.59
   3  -7   1   -1.04    0.49
   3  -7   0   18.51    1.18
   3   7   0   24.95    1.29
   7  -3   0   30.40    2.60
   3   7   0   35.78    2.87
   7  -3   0   30.71    2.63
   7   3   0   33.53    2.90
   3  -7   0   20.01    1.25
   3   7   0   24.56    1.33
   3   7   0   25.65    2.92
  -7  -3   0   25.42    2.23
   3   7   1    8.06    2.39
  -7  -3   1    3.76    1.58
   7  -3  -1    7.52    2.07
   7  -3  -1   -0.50    1.62
   3   7   1    7.25    2.17
   7   3   1    1.62    1.94
   3  -7  -1   -0.12    0.49
   3  -7  -1   -0.45    0.61
   3   7   1   -0.50    0.74
   3   7   1    1.30    0.68
   3  -7  -2   23.99    1.34
   7  -3  -2   39.21    2.83
   3   7   2   32.27    2.74
   3   7   2   24.00    1.41
   7  -3  -2   36.07    2.73
   7   3   2   37.02    3.05
   3  -7  -2   23.58    1.40
   3   7   2   20.02    1.52
   3   7   2   27.25    3.04
   3   7   3    8.85    2.35
   3   7   3    2.21    0.77
   7  -3  -3    1.01    1.68
   3  -7  -3    0.77    0.58
   7  -3  -3    8.79    1.98
   3   7   3    6.61    1.88
   7   3   3    3.22    2.16
   3  -7  -3    0.83    0.62
   3   7   4   22.07    2.95
   3   7   4   27.46    1.64
   7  -3  -4   28.45    2.51
   3   7   4   25.63    2.52
   7  -3  -4   26.70    2.56
   7   3   4   30.07    2.89
   3  -7  -4   24.62    1.47
  -7  -3   5    3.67    1.70
   7  -3  -5    2.44    1.74
   3   7   5    1.60    0.97
   3  -7  -5    0.41    0.58
   7  -3  -5    4.56    1.69
   7   3   5    2.75    1.98
   3   7   5    5.54    1.78
   7  -3  -5    3.05    1.95
   3   7   6   21.23    1.57
   7  -3  -6   23.59    2.31
   3  -7  -6   19.20    1.27
   7  -3  -6   23.08    2.38
   7   3   6   22.66    2.63
   3   7   6   21.84    2.27
   3   7   6   18.98    1.41
   7  -3  -6   20.20    2.49
  -7  -3   6   20.94    2.22
  -7  -3   7    5.00    1.69
   7  -3  -7    4.20    1.76
   3  -7  -7    0.65    0.62
   3   7   7    1.27    1.07
   7   3   7    1.65    1.98
   3   7   7    4.75    1.82
   7  -3  -7    2.57    1.71
   3   7   7    1.80    0.81
   7  -3  -7    3.38    1.89
  -7  -3   8   17.69    2.09
   3   7   8   18.06    1.60
   3   7   8   23.04    2.42
   7  -3  -8   22.10    2.23
   3  -7  -8   15.64    1.20
   7  -3  -8   19.92    2.32
   7   3   8   21.18    2.64
   7  -3  -8   20.62    2.41
   3   7   8   17.87    1.32
   3   7   9    0.34    0.89
  -7  -3   9    2.00    1.63
   3  -7  -9    0.41    0.67
   3   7   9    1.48    1.23
   7   3   9    1.06    1.97
   3   7   9    1.80    1.79
   7  -3  -9    2.24    1.93
  -7  -3  10   12.42    2.06
   3   7  10   11.98    1.22
   3   7  10   14.61    1.63
   7   3  10   13.88    2.44
   3   7  10   13.22    2.11
   7  -3 -10   15.63    2.34
  -7  -3  11    0.91    1.62
   3   7  11    0.27    1.33
   3   7  11    0.37    1.78
   7   3  11   -1.26    2.00
   7  -3 -11    1.64    1.87
   7  -3 -12   13.15    2.15
  -7  -3  12   10.34    2.01
   3   7  12   13.20    1.74
   7   3  12   11.21    2.41
  -7  -3  13    0.57    1.70
   7   3  13    2.00    2.19
   3   7  13    0.16    1.43
  -7  -3  14    5.70    1.89
   7   3  14    5.05    2.24
   3   7  14    7.11    1.78
  -7  -3  15   -1.05    1.75
   7   3  15   -0.17    2.18
   3   7  15    1.27    1.62
  -7  -3  16    5.27    1.98
   7   3  16    5.55    2.38
   3   7  16    4.76    1.77
  -7  -3  16    5.23    1.80
  -7  -3  17   -1.08    1.87
  -7  -3  17    3.28    1.90
   7   3  17   -0.90    2.27
   3   7  17    0.80    1.73
  -7  -3  18    3.01    2.00
   7   3  18    5.39    2.56
   3   7  18    2.33    1.80
  -7  -3  18    2.04    1.83
  -7  -3  19    1.82    1.96
  -7  -3  19   -0.56    1.87
   7   3  19    0.57    2.38
   3   7  19    0.44    1.86
  -7  -3  20    2.69    2.12
  -3  -7  20    2.82    1.67
   3   7  20    1.74    2.00
  -3  -7  21    0.80    1.68
   3   7  21    1.80    2.04
   3   7  22    1.88    2.12
  -4   7  20   -1.37    1.80
  -7  -4 -19    0.95    1.48
  -4   7  19    0.40    1.78
  -7  -4 -18   -0.90    1.54
  -7   4  18    2.22    1.91
   7  -4  18   -1.96    2.22
  -4   7  18    0.38    1.62
  -7  -4 -17    3.86    1.63
  -4   7  17    2.72    1.64
   7  -4  17    2.42    2.18
  -7  -4 -16    0.70    1.53
  -4   7  16    1.64    2.03
   7  -4  16   -0.62    2.00
  -4   7  16   -0.43    1.42
  -7  -4 -15    6.48    1.78
  -4   7  15    2.81    2.06
   7  -4  15    4.90    2.13
  -7  -4 -14   -0.66    1.58
  -4   7  14    1.74    1.98
   7  -4  14    0.15    1.91
   4   7 -14   -0.52    2.28
  -7  -4 -13    5.32    1.71
  -4   7  13    7.22    2.29
   7  -4  13    5.58    2.08
   4   7 -13    8.96    2.48
  -7  -4 -12    1.27    1.60
  -4   7  12    0.15    2.01
   7  -4  12   -0.99    1.99
   4   7 -12    0.85    2.21
  -7  -4 -11    9.28    1.80
  -4   7  11    7.24    2.24
   4   7 -11    7.18    1.38
   7  -4  11    9.06    2.13
   4   7 -11    9.25    2.58
   4   7 -10    2.46    2.39
  -7  -4 -10    0.71    1.58
  -4   7  10    1.14    1.91
   7   4 -10    2.36    2.16
   4   7 -10   -0.06    1.12
   4   7 -10    0.07    1.28
   7  -4  10    1.46    1.74
   4   7  -9   11.54    2.74
   7  -4   9   14.10    1.83
  -7  -4  -9   11.24    1.89
  -4   7   9   14.93    2.27
   7   4  -9   12.56    2.51
   4   7  -9   10.90    1.40
   7  -4   9   12.06    2.08
   4   7  -9    9.87    1.60
   4   7  -8    2.99    2.35
  -7  -4  -8    3.25    1.64
  -4   7   8    4.05    1.93
   7   4  -8    0.65    2.11
   4   7  -8    0.57    1.02
   7  -4   8    0.89    1.64
   4   7  -8    0.25    1.18
   4   7  -7   10.67    2.46
  -7  -4  -7   16.58    2.10
   7   4  -7   15.53    2.62
   4   7  -7   12.64    1.45
   7  -4   7   13.43    2.09
   4   7  -7   12.36    1.54
   4   7  -6    4.88    2.31
  -7  -4  -6    3.12    1.66
   7   4  -6    2.01    2.13
   4   7  -6    0.27    1.03
   7  -4   6   -2.00    1.74
   4  -7   6    0.17    1.04
   4   7  -6   -0.06    1.18
   4   7  -5   12.88    2.54
  -7  -4  -5   13.31    1.96
   7   4  -5   16.23    2.48
   4   7  -5   13.23    1.41
   7  -4   5   16.26    2.12
   4  -7   5   10.40    1.36
   4   7  -5   12.65    1.47
   4   7  -4    6.93    2.34
  -7  -4  -4    5.23    1.76
   4   7  -4    1.79    1.79
   7   4  -4   -2.06    2.08
   7  -4   4    0.72    1.54
   4   7  -4    0.70    1.00
   4  -7   4   -0.57    1.10
   4   7  -4    1.24    1.10
   4   7  -3   13.24    2.47
  -7  -4  -3   12.94    2.00
   4   7  -3   15.11    2.09
   7   4  -3   15.38    2.44
   7  -4   3   14.20    2.08
   4   7  -3   13.38    1.39
   4  -7   3   12.13    1.32
   4   7  -3   10.06    1.45
   4   7  -2    0.05    1.08
   4   7  -2    6.83    2.25
  -7  -4  -2    5.12    1.80
   4   7  -2    3.90    1.79
   7   4  -2   -0.72    1.92
   7  -4   2   -1.26    1.72
   4   7  -2   -0.49    1.05
   4  -7   2   -0.78    0.98
   4   7  -1   15.26    2.49
  -7  -4  -1   20.00    2.19
   4   7  -1   14.83    1.46
   4   7  -1   15.37    1.49
   4  -7   1   14.84    1.37
   4   7  -1   16.78    2.23
   7   4  -1   16.52    2.46
   7  -4   1   15.35    2.11
  -7  -4   0    5.41    1.76
   4   7   0    0.46    1.04
   4   7   0    7.31    2.11
   7  -4   0    0.48    1.58
   7   4   0   -0.72    1.92
   4  -7   0   -0.21    0.88
   4   7   0   -1.38    1.15
  -7  -4   1   18.88    2.15
   4   7   1   15.03    1.39
   4  -7  -1   11.86    1.23
   7  -4  -1   15.32    2.07
   4   7   1   16.52    2.18
   7   4   1   18.35    2.53
   4   7   1   12.88    1.49
   7  -4  -2    2.24    1.59
   4   7   2    4.58    1.83
   7   4   2   -0.15    2.04
   4   7   2    0.61    1.03
   4  -7  -2    0.39    0.84
   4   7   2   -1.39    1.14
   4  -7  -3   12.24    1.16
   7  -4  -3   14.68    2.08
   4   7   3   13.01    1.94
   7   4   3   15.09    2.34
   4   7   3   13.15    1.52
   7  -4  -4   -0.95    1.57
   4  -7  -4    0.90    0.76
   7   4   4   -0.85    1.89
   4   7   4    2.89    1.66
   4   7   4    1.97    1.24
  -7  -4   5   12.29    1.95
   4   7   5   13.90    1.38
   4  -7  -5   12.03    1.18
   7  -4  -5   13.92    2.07
   7   4   5   13.58    2.37
   4   7   5   13.01    2.00
   4   7   5   12.70    1.57
  -7  -4   6    1.25    1.64
   7  -4  -6    2.68    1.66
   4  -7  -6    0.33    0.77
   4   7   6    1.73    1.08
   7   4   6    0.59    1.95
   4   7   6    2.94    1.72
   4   7   6    0.88    1.35
  -7  -4   7   15.08    2.02
   4  -7  -7   10.50    1.13
   7  -4  -7   12.32    2.03
   7   4   7   15.71    2.50
   4   7   7   13.28    2.05
   4   7   7   12.95    1.65
   4   7   7   11.63    1.30
  -7  -4   8    0.34    1.65
   4   7   8    1.70    1.01
   7  -4  -8    1.39    1.70
   7   4   8    2.99    2.05
   4   7   8    2.98    1.72
   4   7   8    2.40    1.46
  -7  -4   9   14.41    2.06
   7  -4  -9   13.21    2.05
   7   4   9   14.93    2.43
   4   7   9    6.49    1.83
   4   7   9    8.71    1.24
   4   7   9   10.34    1.69
  -7  -4  10    0.92    1.64
   4   7  10    0.62    1.04
   7   4  10   -0.47    2.06
   4   7  10    0.78    1.51
  -7  -4  11    8.93    1.99
   4   7  11    5.18    1.20
   7   4  11   11.09    2.47
   4   7  11    9.06    1.81
  -7  -4  12   -1.62    1.76
   4   7  12    2.99    1.54
   7   4  12    0.50    2.20
  -7  -4  13    7.80    2.00
   4   7  13    3.49    1.71
   7   4  13    9.05    2.53
  -7  -4  14    1.09    1.90
   4   7  14   -0.82    1.62
   7   4  14    0.51    2.22
  -7  -4  15    4.95    2.01
   4   7  15    3.37    1.76
   7   4  15    2.95    2.30
  -7  -4  16    0.84    1.89
   4   7  16    1.42    1.72
   7   4  16   -2.15    2.43
  -7  -4  17    4.00    1.99
   4   7  17    3.11    1.87
   7   4  17    4.48    2.62
  -4  -7  18    0.20    1.67
   4   7  18    0.11    1.92
   7   4  18   -0.38    2.50
  -4  -7  19    0.20    1.78
   4   7  19   -0.12    1.98
  -4  -7  20   -0.10    1.80
   4   7  20    0.12    2.01
  -4  -7  21    0.48    1.75
  -7  -5 -19    0.87    1.62
  -7  -5 -18    2.47    1.68
  -7  -5 -17    0.72    1.59
   7  -5  17   -0.15    2.06
   7  -5  16    2.78    2.16
   7  -5  15    1.28    2.01
   7  -5  14    3.71    1.97
   5   7 -13   -2.47    1.47
   7  -5  13    0.13    1.80
   7   5 -12    5.31    2.39
   5   7 -12    3.58    1.54
   7  -5  12    4.41    2.01
   5   7 -12    4.47    2.67
   5   7 -11    3.11    2.69
   7   5 -11    2.52    2.17
   5   7 -11    1.14    1.36
   7  -5  11   -0.25    1.78
   5   7 -10    5.89    2.52
   7   5 -10    4.33    2.17
   5   7 -10    4.50    1.40
   7  -5  10    6.36    1.85
   5   7  -9   -0.59    2.32
   7   5  -9   -2.55    2.14
   5   7  -9   -0.53    1.31
   7  -5   9    2.30    1.76
   5   7  -8    7.53    2.50
   7   5  -8    9.70    2.27
   5   7  -8    5.39    1.44
   7  -5   8    9.39    1.95
   5   7  -7   -1.33    2.27
   7   5  -7    0.14    2.08
   5   7  -7   -0.15    1.21
   7  -5   7    0.57    1.60
   5   7  -6    7.67    2.50
   5   7  -6    8.41    1.49
   7  -5   6    5.29    1.71
   5   7  -5    0.43    2.11
   7   5  -5    1.24    1.99
   5   7  -5   -0.44    1.33
   7  -5   5   -1.01    1.60
   5   7  -4    5.75    2.21
   7   5  -4    8.29    2.10
   5   7  -4    6.62    1.37
   7  -5   4    6.74    1.72
   5   7  -3    2.89    2.16
   5   7  -3    0.41    1.32
   7   5  -3    1.22    2.08
   5   7  -3    0.07    1.26
   7  -5   3   -1.84    1.65
  -7  -5  -2   11.53    1.95
   5   7  -2    8.28    1.56
   7   5  -2   10.56    2.21
   7  -5   2   10.19    1.83
   5   7  -2    7.90    1.57
  -7  -5  -1    5.19    1.80
   5   7  -1    0.06    1.29
   5   7  -1    3.98    1.94
   7   5  -1   -3.29    2.12
   7  -5   1   -1.32    1.70
   5   7  -1    0.14    1.33
  -7  -5   0   12.65    2.04
   5   7   0   11.74    2.07
   5   7   0    8.05    1.45
   7  -5   0    8.20    1.91
   7   5   0   14.33    2.51
   5   7   0   10.18    1.63
   7  -5  -1   -1.76    1.60
   5   7   1    3.78    1.77
   7   5   1   -2.54    2.07
   5   7   1   -2.29    1.32
   5   7   1    0.07    1.32
   7  -5  -2    9.85    1.86
   5   7   2   10.31    1.83
   7   5   2   10.63    2.22
   5   7   2    9.99    1.65
   7  -5  -3    0.21    1.46
   5   7   3    3.38    1.70
   7   5   3   -1.62    1.92
   5   7   3   -0.53    1.40
  -7  -5   4   11.07    2.06
   7  -5  -4    7.77    1.78
   5   7   4    7.51    1.75
   7   5   4    9.10    2.13
   5   7   4    8.74    1.65
  -7  -5   5    1.93    1.72
   7  -5  -5    0.22    1.45
   5   7   5    1.63    1.63
   7   5   5   -0.14    1.97
   5   7   5    1.13    1.45
  -7  -5   6    9.95    2.05
   7  -5  -6    6.08    1.68
   5   7   6    7.42    1.76
   7   5   6   13.01    2.38
   5   7   6    8.60    1.71
  -7  -5   7    0.60    1.80
   7  -5  -7    1.25    1.64
   7   5   7   -1.28    1.99
   5   7   7    1.25    1.57
   5   7   7   -0.26    1.48
  -7  -5   8   10.21    2.07
   7  -5  -8    4.38    1.74
   7   5   8   12.27    2.36
   5   7   8    6.19    1.73
  -7  -5   9    1.57    1.81
   7  -5  -9    2.01    1.69
   7   5   9    1.06    2.10
   5   7   9    0.95    1.67
  -7  -5  10    3.46    1.90
   7  -5 -10    7.51    1.90
   7   5  10    7.45    2.46
   5   7  10    7.88    1.86
  -7  -5  11    0.59    1.80
   7  -5 -11    0.25    1.70
   7   5  11    3.14    2.27
   5   7  11    2.65    1.74
  -7  -5  12    4.76    1.92
   7   5  12    5.26    2.30
   5   7  12    2.75    1.85
   7   5  13   -0.65    2.31
   5   7  13   -0.69    1.87
   7   5  14    2.87    2.36
   5   7  14    4.42    2.03
   7   5  15   -0.53    2.40
   5   7  15    1.11    2.00
   5   7  16    0.22    1.86
   7   5  16   -0.53    2.51
   5   7  16    2.15    2.02
   5   7  17    0.34    1.90
   7   5  17   -0.54    2.52
   7   6 -15    1.80    2.28
   7   6 -14   -0.44    2.14
   7   6 -13    0.86    2.13
   7   6 -12   -1.96    2.14
   7   6 -11    4.23    2.11
   6   7 -11    2.91    1.64
   7  -6  11    2.56    1.67
   7   6 -10   -0.93    2.04
   6   7 -10   -0.28    1.50
   7  -6  10    1.31    1.67
   6   7  -9    6.86    2.68
   7   6  -9    4.51    1.99
   6   7  -9    3.69    1.57
   7  -6   9    4.06    1.70
   6   7  -8    0.43    2.37
   7   6  -8   -0.13    1.81
   6   7  -8   -0.82    1.46
   7  -6   8   -0.11    1.55
   6   7  -7    3.22    2.34
   7   6  -7    4.37    1.87
   6   7  -7    5.32    1.59
   7  -6   7    4.09    1.68
   6   7  -6    3.82    2.24
   7   6  -6    2.59    1.84
   6   7  -6   -0.81    1.50
   7  -6   6    0.89    1.46
   6   7  -5    6.96    2.29
   7   6  -5    6.24    1.98
   6   7  -5    3.96    1.66
   7  -6   5    2.90    1.53
   7   6  -4   -1.59    2.00
   6   7  -4   -0.78    1.47
   7  -6   4    0.86    1.45
   7   6  -3    5.72    2.13
   6   7  -3    4.73    1.57
   7  -6   3    3.22    1.52
   7   6  -2   -0.61    1.86
   6   7  -2   -0.61    1.60
   7  -6   2   -1.69    1.46
   7   6  -1    6.24    1.99
   7  -6   1    5.45    1.52
   6   7  -1    5.17    1.65
   7  -6   0   -0.09    1.40
   7   6   0   -0.48    1.86
   6   7   0   -1.49    1.60
   7  -6  -1    4.15    1.58
   7   6   1    6.56    1.98
   6   7   1    5.61    1.78
   7  -6  -2   -1.65    1.53
   7   6   2    0.37    1.85
   6   7   2   -0.46    1.57
   7  -6  -3    4.28    1.48
   7   6   3    2.98    1.84
   6   7   3    6.10    1.79
   7  -6  -4    0.09    1.37
   7   6   4    0.13    1.89
   6   7   4    3.92    1.72
   7  -6  -5    4.15    1.45
   7   6   5    4.46    2.04
   6   7   5    3.03    1.71
   7  -6  -6   -0.10    1.39
   6   7   6    1.43    1.56
   7   6   6    1.70    1.96
   6   7   6   -0.20    1.66
   7  -6  -7    3.79    1.56
   6   7   7    4.29    1.60
   7   6   7    3.77    2.07
   6   7   7    3.01    1.82
   7  -6  -8    0.79    1.42
   7   6   8   -1.64    2.05
   6   7   8    1.30    1.87
   7  -6  -9    3.06    1.58
   7   6   9    4.07    2.17
   6   7   9    3.67    2.00
   7  -6 -10   -0.53    1.49
   7   6  10    1.57    2.23
   6   7  10    0.80    1.86
   7  -6 -11    1.74    1.53
   7   6  11    3.64    2.28
   6   7  11    0.23    1.85
   7  -6 -12   -0.68    1.66
   7   6  12   -1.68    2.32
   6   7  12   -1.33    1.90
   7   6  13    1.57    2.33
   7   6  14   -0.32    2.39
   7   6  15    1.46    2.43
  -8   0   0   15.46    2.06
   8   0   0   16.01    2.14
   0   8   0   21.46    2.92
   8   0   0   17.67    2.64
   0   8   0   18.68    2.65
  -8   0   1    3.63    1.68
  -8   0  -1    4.68    1.76
   8   0   1    8.58    1.90
   0   8  -1    1.31    2.17
   0   8   1    4.32    2.31
   8   0  -1    6.68    1.88
   8   0  -1   -2.14    2.07
   8   0   1    1.15    2.14
   0   8  -1    2.43    2.13
   0   8   1    5.63    2.32
  -8   0   2   15.87    2.13
  -8   0  -2   19.26    2.12
   0   8   2   22.19    2.79
   8   0  -2   16.72    2.05
   8   0  -2   14.63    2.64
   8   0   2   19.59    2.71
   0   8  -2   16.92    2.66
   0   8   2   20.64    2.76
  -8   0   3    4.05    1.69
  -8   0  -3    1.63    1.55
   0   8   3    1.21    2.12
   8   0  -3    6.53    1.61
   8   0  -3   -0.67    2.06
   8   0   3    1.17    2.14
   0   8  -3    3.06    2.18
   0   8   3    0.34    2.07
  -8   0   4   14.89    2.07
  -8   0  -4   14.70    1.98
   0   8   4   17.04    2.66
   8   0  -4   14.25    2.57
   8   0   4   14.78    2.59
   0   8  -4   14.45    2.53
   0   8   4   18.62    2.83
  -8   0   5    3.33    1.79
  -8   0  -5    1.63    1.57
   8   0  -5    1.02    2.14
   0   8   5    3.29    2.13
   8   0   5   -0.33    2.03
   0   8  -5    1.12    2.09
   0   8   5   -0.36    2.23
  -8   0  -6   12.59    1.85
   8   0  -6   16.32    2.58
   0   8   6   10.72    2.33
   8   0   6   14.25    2.39
   0   8  -6   11.31    2.41
   0   8   6   14.20    2.67
  -8   0  -7    1.53    1.49
   8   0  -7    3.85    2.15
   0   8   7    1.91    2.23
   8   0   7    0.66    1.95
  -8   0  -8   13.09    1.81
   8   0  -8   16.79    2.66
   0   8   8   18.92    2.84
   8   0   8   13.13    2.42
  -8   0   9    2.24    1.78
  -8   0  -9    0.67    1.44
   8   0  -9    2.14    2.17
   0   8   9   -0.51    2.31
   8   0   9    0.67    1.99
  -8   0  10    9.22    1.98
  -8   0 -10    8.78    1.61
   0   8  10   11.95    2.69
   8   0  10   10.29    2.38
   0   8  10    7.63    2.80
  -8   0  11    2.05    1.69
  -8   0 -11   -0.31    1.29
   0   8  11    2.05    2.30
   8   0  11    2.20    1.98
   0   8  11    2.86    2.70
  -8   0  12    6.15    1.98
  -8   0 -12    8.08    1.48
   0   8  12    9.06    2.65
   8   0  12    5.99    2.26
   0   8  12    9.05    3.07
  -8   0 -13    0.69    1.28
  -8   0  13   -1.09    1.74
   0   8  13   -0.17    2.31
   8   0  13   -0.87    2.06
   0   8  13    1.28    2.73
   0   8  14    4.71    2.41
   8   0  14    4.65    2.28
  -8   0 -14    4.81    1.34
  -8   0  14    6.03    1.96
   0   8  14    1.52    2.74
   0   8  15    0.66    2.84
   0   8  15    2.82    2.40
   8   0  15   -1.46    2.32
  -8   0 -15    0.61    1.20
  -8   0  15    1.91    1.79
   0   8  16    3.11    2.95
  -8   0 -16    1.89    1.18
  -8   0  16    2.61    1.83
   0   8  17    0.67    2.85
   0   8  18    1.58    2.93
  -1   8  18   -0.99    2.73
  -8  -1 -17    4.96    1.43
  -1   8  17   -0.20    2.70
  -8  -1 -16    0.69    1.35
  -1   8  16   -0.20    2.67
  -8  -1 -15    1.67    1.40
  -1   8  15    1.75    2.54
   8  -1  15    1.62    2.10
  -1   8  15    2.90    2.59
  -8  -1 -14   -0.38    1.37
  -1   8  14    2.09    2.49
   8  -1  14   -0.35    2.15
  -1   8  14   -2.87    2.49
  -8  -1 -13    5.20    1.56
  -1   8  13    6.53    2.56
   8  -1  13    4.47    2.15
  -1   8  13    2.64    2.44
  -8   1  13    2.72    1.76
  -8  -1 -12    2.68    1.53
  -1   8  12    1.65    2.41
   8  -1  12    0.51    2.00
  -1   8  12   -1.67    2.41
  -8   1  12    1.13    1.67
  -8  -1 -11    5.48    1.56
  -1   8  11    9.12    2.57
   8  -1  11   10.00    2.29
  -1   8  11    3.68    2.42
  -8   1  11    6.14    1.77
  -8  -1 -10    0.09    1.46
  -1   8  10    2.99    2.24
   8  -1  10    1.97    2.01
   1   8 -10    0.46    2.11
  -1   8  10    0.72    2.33
  -8   1  10    0.34    1.53
  -8  -1  -9    9.31    1.78
  -1   8   9   10.03    2.39
   8  -1   9    9.51    2.23
   1   8  -9    9.16    2.45
  -1   8   9    6.40    2.47
  -8  -1  -8   -0.29    1.49
  -1   8   8   -1.88    2.05
   8  -1   8   -0.16    1.84
   1   8  -8    0.32    2.18
  -1   8   8    0.35    2.19
  -8  -1  -7    9.99    1.85
  -1   8   7   14.11    2.53
   8  -1   7   13.65    2.30
   1   8  -7   10.25    2.55
  -8  -1  -6    0.81    1.57
  -1   8   6    0.16    2.13
   8  -1   6    1.90    1.88
   1   8  -6    1.29    2.21
  -8   1   6    2.28    1.62
  -8  -1  -5   11.21    1.94
  -1   8   5   14.01    2.54
   8  -1   5   15.49    2.47
   1   8  -5   13.59    2.58
  -8   1   5   12.19    1.96
  -8  -1  -4    1.38    1.58
  -1   8   4   -1.62    2.17
   8  -1   4    0.50    2.01
  -1   8   4    1.17    1.99
   1   8  -4    1.79    2.18
  -8   1   4    3.21    1.62
  -8  -1  -3   13.90    1.99
   8  -1   3   11.47    1.97
  -1   8   3   18.76    2.80
   8  -1   3    9.01    2.25
  -1   8   3   17.01    2.61
   1   8  -3    9.71    2.38
  -8   1   3   10.43    1.86
  -8  -1  -2    4.16    1.72
   1   8  -2    2.26    2.25
   8  -1   2    2.63    1.82
  -1   8   2   -0.64    2.14
   8  -1   2   -0.16    1.87
  -1   8   2    0.33    1.97
   1   8  -2    1.67    2.13
  -8   1   2    2.28    1.55
  -8  -1  -1   15.76    2.10
  -1   8   1   19.73    2.65
   1   8  -1   14.57    2.66
   8  -1   1   13.78    2.22
   8  -1   1   14.45    2.43
  -1   8   1   12.63    2.52
   1   8  -1   19.74    2.77
  -8   1   1   12.67    1.88
  -8  -1   0    1.80    1.62
   1   8   0    4.28    2.36
   8  -1   0    4.35    1.91
   8  -1   0    1.58    1.89
  -1   8   0    5.41    2.31
   1   8   0    4.98    2.41
  -8   1   0    3.77    1.57
  -8  -1   1   13.53    2.06
   1   8   1   18.48    2.60
   8  -1  -1   15.44    2.07
   8  -1  -1   12.64    2.35
  -1   8  -1    9.69    2.33
   1   8   1   12.31    2.68
  -8   1  -1   12.10    1.83
  -8  -1   2    3.44    1.77
   1   8   2    0.87    2.14
   8  -1  -2    5.09    1.67
   8  -1  -2    1.26    1.97
  -1   8  -2    1.89    2.02
   1   8   2    1.48    2.36
  -8   1  -2    1.70    1.52
   1   8   3   11.99    2.69
  -8  -1   3    7.98    1.86
   1   8   3    9.91    2.36
   8  -1  -3    9.83    2.22
   8  -1  -3   12.76    2.01
  -8   1  -3   11.64    1.72
   1   8   4    1.35    2.39
  -8  -1   4    2.57    1.77
   8  -1  -4    1.78    2.02
   1   8   4    3.85    2.19
   8  -1  -4    7.09    1.81
  -8   1  -4    1.07    1.48
   1   8   5   17.64    3.00
   8  -1  -5   15.59    2.47
   1   8   5   15.66    2.56
  -8   1  -5    8.03    1.57
   1   8   6    2.40    2.57
   8  -1  -6    2.31    1.98
   1   8   6    4.09    2.30
  -8   1  -6    0.98    1.37
   1   8   7    8.93    2.80
   8  -1  -7   12.82    2.40
   1   8   7   12.38    2.62
  -8   1  -7    9.69    1.58
   1   8   8    5.59    2.77
  -8  -1   8    2.41    1.76
   8  -1  -8    1.67    2.04
   1   8   8    1.55    2.26
  -8   1  -8   -0.45    1.23
  -8  -1   9    7.75    1.92
   8  -1  -9    6.60    2.21
   1   8   9   11.99    2.47
  -8   1  -9    7.36    1.39
  -8  -1  10    0.98    1.70
   1   8  10    0.76    2.05
  -8   1 -10   -0.14    1.12
  -8  -1  11    4.56    1.86
   1   8  11    7.61    2.24
  -8  -1  12   -0.12    1.74
   1   8  12    1.07    2.65
   1   8  12    0.31    2.04
  -8  -1  13    2.87    1.85
   1   8  13    6.29    2.89
   1   8  13    3.78    2.15
  -8  -1  14   -0.63    1.84
   1   8  14   -2.42    2.91
   1   8  14    0.49    2.22
  -8  -1  15    2.77    1.89
   1   8  15    1.11    2.85
   1   8  15    6.24    2.43
  -8  -1  16   -0.25    1.86
   1   8  16    0.22    2.91
  -2   8  18    1.72    2.75
  -8  -2 -17    0.98    1.52
  -2   8  17    1.90    2.60
  -8  -2 -16    2.72    1.55
  -2   8  16    2.83    2.56
  -8  -2 -15    0.50    1.50
   8  -2  15   -1.40    2.17
  -2   8  15    0.56    2.43
  -8  -2 -14    7.00    1.71
  -2   8  14    3.39    2.59
   8  -2  14    2.08    2.28
  -2   8  14    2.60    2.32
  -8  -2 -13    0.72    1.57
  -2   8  13    0.50    2.18
   8  -2  13   -1.02    2.15
  -2   8  13   -0.18    2.41
  -8  -2 -12    4.02    1.68
  -2   8  12    7.14    2.36
   8  -2  12    3.49    2.17
   2   8 -12    2.91    2.40
  -2   8  12    4.17    2.44
  -8  -2 -11    1.70    1.57
  -2   8  11    0.66    2.15
   8  -2  11    1.47    2.04
   2   8 -11   -2.08    2.44
  -2   8  11    2.51    2.30
  -8  -2 -10    7.56    1.81
   8   2 -10    7.35    2.58
  -2   8  10   10.56    2.55
   8  -2  10    6.43    2.26
  -2   8  10    6.46    2.50
   2   8 -10    9.47    2.63
  -8  -2  -9   -0.20    1.56
   8   2  -9   -0.78    2.30
  -2   8   9    2.11    2.25
   8  -2   9    0.16    1.90
  -2   8   9    0.71    2.20
   2   8  -9   -0.65    2.28
  -8  -2  -8   12.81    1.97
  -2   8   8   11.22    2.47
   8   2  -8   11.42    2.68
   8  -2   8   11.82    2.31
  -2   8   8    8.90    2.53
   2   8  -8    9.31    2.61
  -8  -2  -7    2.75    1.74
  -2   8   7    1.10    2.07
   8   2  -7    0.38    2.37
   8  -2   7   -0.78    1.93
  -2   8   7   -0.17    2.12
   2   8  -7   -0.33    2.31
  -8  -2  -6   11.37    1.92
  -2   8   6   17.87    2.81
   8   2  -6   10.84    2.69
   8  -2   6    9.73    2.15
  -2   8   6   12.18    2.45
   2   8  -6    8.84    2.64
  -8  -2  -5    2.07    1.66
  -2   8   5    1.95    2.24
   8   2  -5   -0.18    2.24
   8  -2   5   -1.97    1.99
   2   8  -5    2.76    2.48
  -8  -2  -4   12.07    1.99
  -2   8   4   16.34    2.59
   8   2  -4   12.06    2.70
   8  -2   4   11.04    2.30
   2   8  -4   14.82    2.84
  -8  -2  -3    3.49    1.69
  -2   8   3    2.71    2.06
   2   8  -3    2.23    2.26
   8   2  -3   -1.24    2.31
   8  -2   3   -1.74    2.00
   2   8  -3    3.40    2.50
  -8  -2  -2   14.34    2.10
   2   8  -2   18.18    2.73
   8   2  -2   14.00    2.71
   8  -2   2   12.84    2.38
   2   8  -2   12.11    2.80
   2   8  -1    4.26    2.59
  -8  -2  -1    4.60    1.81
   2   8  -1    2.61    2.25
   8   2  -1    2.26    2.31
   8  -2   1   -1.08    1.89
   2   8   0   14.41    2.84
  -8  -2   0   18.33    2.21
   2   8   0   14.29    2.54
   8  -2   0   15.93    2.42
   8   2   0    8.66    2.46
   2   8   1    3.40    2.52
  -8  -2   1    1.29    1.76
   2   8   1    5.41    2.21
   8  -2  -1    4.34    2.00
   8  -2  -1   -0.30    1.94
   8   2   1    1.56    2.15
   2   8   2   13.27    2.80
  -8  -2   2   14.33    2.09
   2   8   2   11.57    2.33
   8  -2  -2   12.57    2.35
   8  -2  -2   14.44    2.32
   8   2   2   19.23    2.78
   2   8   3    1.13    2.43
  -8  -2   3    1.88    1.72
   8  -2  -3   -2.73    1.98
   2   8   3    4.97    2.15
   8  -2  -3    5.39    1.90
   8   2   3   -0.89    2.20
   2   8   4   15.70    2.93
  -8  -2   4   14.33    2.17
   8  -2  -4   11.16    2.23
   2   8   4   14.56    2.56
   8  -2  -4   12.04    2.02
   8   2   4    8.52    2.38
   2   8   5    3.86    2.53
   8  -2  -5    2.95    1.94
   2   8   5    1.16    2.12
   8  -2  -5    3.69    1.76
   8   2   5   -3.00    2.19
   2   8   6   12.77    2.85
   8  -2  -6    9.99    2.26
   2   8   6   13.81    2.49
   8   2   6   12.50    2.54
   2   8   7    2.23    2.50
   8  -2  -7    6.18    2.13
   2   8   7    1.54    2.00
   8   2   7    2.06    2.06
  -8  -2   8   11.69    2.02
   2   8   8    9.72    2.86
   8  -2  -8   13.08    2.37
   2   8   8    6.36    2.23
   8   2   8   12.32    2.50
  -8  -2   9    2.75    1.81
   2   8   9   -1.73    2.68
   8  -2  -9   -0.48    1.90
   2   8   9   -0.54    1.91
   8   2   9    0.17    2.11
  -8  -2  10    5.38    1.93
   8  -2 -10   11.74    2.38
   2   8  10    7.24    2.11
   8   2  10    9.92    2.44
  -8  -2  11    2.89    1.92
   2   8  11    1.57    2.07
   8   2  11    0.18    2.20
  -8  -2  12    3.54    1.91
   2   8  12    6.08    2.20
   8   2  12    5.20    2.34
  -8  -2  13    0.38    1.90
   2   8  13    1.81    2.90
   2   8  13   -1.34    2.17
   8   2  13   -1.65    2.40
  -8  -2  14    3.60    2.02
   2   8  14    2.52    3.03
   2   8  14    1.38    2.14
   8   2  14    7.89    2.59
   2   8  15    2.31    3.00
   2   8  15    1.26    2.15
   8   2  15    0.38    2.40
  -8  -3 -17    1.43    1.62
  -8  -3 -16    0.62    1.60
  -8  -3 -15    2.21    1.71
  -8  -3 -14    0.09    1.65
   8  -3  14   -0.17    2.14
   3   8 -14   -0.75    2.49
  -8  -3 -13    3.18    1.70
   8  -3  13    2.66    2.19
   3   8 -13    2.55    2.59
  -8  -3 -12   -1.09    1.64
   8  -3  12   -1.14    2.05
   3   8 -12    1.62    2.58
  -8  -3 -11    1.91    1.70
   8   3 -11   10.16    2.82
   8  -3  11    4.45    2.15
   3   8 -11    3.27    2.64
  -8  -3 -10    0.21    1.64
   8   3 -10    0.20    2.53
   8  -3  10    0.16    1.93
   3   8 -10    1.34    2.51
  -8  -3  -9    4.61    1.79
  -3   8   9    7.30    2.46
   8   3  -9   10.70    2.84
   8  -3   9    5.24    2.11
   3   8  -9    7.43    2.72
  -8  -3  -8    0.75    1.63
  -3   8   8    3.97    2.23
   8   3  -8    0.97    2.40
   8  -3   8   -2.29    1.99
   3   8  -8    2.62    2.75
  -8  -3  -7    5.65    1.76
  -3   8   7    8.14    2.37
   8   3  -7    9.69    2.62
   8  -3   7   11.42    2.25
   3   8  -7    5.69    2.76
  -8  -3  -6    0.11    1.64
  -3   8   6   -1.84    2.05
   8   3  -6    2.62    2.38
   8  -3   6   -2.09    1.95
   3   8  -6   -0.72    2.60
   3   8  -5    7.64    2.76
  -8  -3  -5    6.05    1.82
   8   3  -5    8.94    2.58
   8  -3   5   10.44    2.19
   3   8  -4    3.28    2.63
  -8  -3  -4    1.02    1.68
   8   3  -4    0.71    2.25
   8  -3   4   -2.31    1.96
   3   8  -3    9.51    2.84
  -8  -3  -3   14.56    2.12
   3   8  -3   14.84    2.56
   8   3  -3   10.58    2.59
   8  -3   3   10.95    2.34
   3   8  -2    3.94    2.46
  -8  -3  -2    3.01    1.80
   3   8  -2    1.72    2.21
   8   3  -2   -1.57    2.19
   8  -3   2   -0.45    1.99
   3   8  -1    7.33    2.66
  -8  -3  -1   12.40    2.05
   3   8  -1    9.10    2.40
   8   3  -1   15.83    2.65
   8  -3   1   10.86    2.29
   3   8   0    6.61    2.56
  -8  -3   0    1.55    1.72
   3   8   0    3.61    2.33
   8  -3   0   -0.29    1.90
   8   3   0   -0.52    2.19
   3   8   1   10.25    2.77
  -8  -3   1    9.38    1.97
   3   8   1    8.77    2.29
   8  -3  -1    9.69    2.16
   8   3   1   12.95    2.59
   3   8   2    4.38    2.70
  -8  -3   2    1.33    1.76
   3   8   2    3.96    2.17
   8  -3  -2   -1.30    1.83
   8   3   2    2.50    2.42
   3   8   3   11.00    2.89
  -8  -3   3    8.94    2.03
   8  -3  -3   10.98    2.17
   3   8   3   12.37    2.48
   8   3   3    9.56    2.58
   3   8   4    5.41    2.64
   8  -3  -4    1.30    1.88
   3   8   4    4.08    2.14
   8   3   4   -1.33    2.21
   3   8   5    9.70    2.74
   8  -3  -5    9.95    2.10
   3   8   5   10.22    2.24
   8   3   5    8.77    2.38
   3   8   6    0.59    2.51
   8  -3  -6    1.79    1.95
   3   8   6    4.35    2.04
   8   3   6   -0.17    2.23
  -8  -3   7    5.37    1.93
   3   8   7    4.40    2.66
   8  -3  -7    7.50    2.15
   3   8   7    8.18    2.05
   8   3   7   11.61    2.55
  -8  -3   8   -0.25    1.78
   3   8   8    4.07    2.75
   8  -3  -8    4.43    2.08
   3   8   8    3.10    1.97
   8   3   8    2.25    2.32
  -8  -3   9    6.56    1.97
   3   8   9    5.59    2.74
   8  -3  -9    6.01    2.01
   3   8   9    7.56    2.10
   8   3   9    5.39    2.41
  -8  -3  10    3.14    1.91
   3   8  10    1.27    2.65
   8  -3 -10    1.25    1.94
   3   8  10   -0.77    1.89
   8   3  10   -0.18    2.19
  -8  -3  11    0.13    1.87
   3   8  11    6.67    3.03
   8  -3 -11    5.87    2.15
   3   8  11    1.97    1.96
   8   3  11    6.64    2.45
  -8  -3  12   -0.65    1.88
   3   8  12    0.82    2.02
   8   3  12    1.29    2.32
   3   8  13    0.84    2.05
   8   3  13    0.56    2.40
   3   8  14    2.21    2.18
   8   3  14   -0.38    2.47
  -8  -4 -17   -0.09    1.61
  -8  -4 -16    0.36    1.65
  -8  -4 -15    1.97    1.70
  -8  -4 -14    2.79    1.74
  -8  -4 -13   -0.69    1.70
   8   4 -13    1.61    2.61
   8  -4  13   -0.94    2.13
  -8  -4 -12    5.14    1.76
   8   4 -12    6.76    2.73
   8  -4  12    2.50    2.23
   4   8 -12    2.18    2.83
  -8  -4 -11    1.23    1.72
   8   4 -11    2.16    2.62
   8  -4  11   -0.15    2.11
   4   8 -11    1.88    2.80
  -8  -4 -10    1.78    1.74
   8   4 -10    5.21    2.65
   8  -4  10    2.52    2.01
   4   8 -10    2.83    2.97
  -8  -4  -9   -1.41    1.70
   8   4  -9   -0.19    2.46
   8  -4   9    0.15    1.87
   4   8  -9    1.08    2.87
  -8  -4  -8    6.52    1.87
   8   4  -8    2.04    2.43
   8  -4   8    5.57    2.02
   4   8  -8    2.93    2.82
   4   8  -7   -0.18    2.62
  -8  -4  -7    1.35    1.75
   8   4  -7   -1.98    2.44
   8  -4   7    3.55    1.99
   4   8  -6    6.13    2.82
  -8  -4  -6    5.13    1.86
   8   4  -6    4.94    2.47
   8  -4   6    6.94    2.05
   4   8  -5    1.40    2.57
  -8  -4  -5    2.50    1.76
   8   4  -5   -0.52    2.36
   8  -4   5   -0.98    1.89
   4   8  -4    5.01    2.57
  -8  -4  -4    5.64    1.86
   8   4  -4    6.87    2.42
   8  -4   4    5.47    1.91
   4   8  -3    0.51    2.32
  -8  -4  -3    0.35    1.72
   8   4  -3    0.17    2.22
   8  -4   3   -2.15    1.78
   4   8  -2    6.06    2.54
  -8  -4  -2    6.48    1.88
   4   8  -2    8.22    2.23
   8   4  -2    7.26    2.45
   8  -4   2    3.77    1.92
   4   8  -1    2.14    2.54
  -8  -4  -1   -1.19    1.73
   4   8  -1   -1.88    2.03
   8   4  -1    1.01    2.29
   8  -4   1    0.86    1.94
   4   8   0    8.49    2.65
  -8  -4   0    5.89    1.90
   4   8   0    6.57    2.22
   8  -4   0    6.40    1.97
   8   4   0    2.23    2.36
   4   8   1    0.35    2.41
  -8  -4   1    0.73    1.77
   4   8   1    3.13    2.13
   8  -4  -1   -1.64    1.80
   8   4   1   -0.17    2.34
   4   8   2    4.79    2.46
  -8  -4   2    4.78    1.89
   4   8   2    4.74    2.19
   8  -4  -2    6.82    1.99
   8   4   2    4.12    2.27
   4   8   3    3.79    2.50
   8  -4  -3    0.27    1.76
   4   8   3    1.96    2.10
   8   4   3    0.49    2.23
   4   8   4    7.33    2.67
   8  -4  -4    5.60    1.94
   4   8   4    0.82    1.91
   8   4   4    6.90    2.34
   4   8   5    4.93    2.66
   8  -4  -5    0.27    1.73
   4   8   5   -0.11    1.78
   8   4   5    0.33    2.20
  -8  -4   6    5.39    1.95
   4   8   6    2.23    2.47
   8  -4  -6    5.39    1.89
   4   8   6    4.76    1.87
   8   4   6   10.23    2.51
  -8  -4   7    0.13    1.77
   4   8   7    6.82    2.69
   8  -4  -7    2.55    1.90
   4   8   7    2.36    1.86
   8   4   7    1.01    2.18
   8  -4  -8    7.62    2.10
   4   8   8    5.16    1.90
   8   4   8    2.73    2.34
   8  -4  -9    3.95    2.02
   4   8   9    0.70    1.82
   8   4   9   -0.17    2.24
   8  -4 -10    1.19    1.90
   4   8  10    1.09    1.85
   8   4  10    3.35    2.44
   8  -4 -11    1.21    1.92
   4   8  11    0.13    1.91
   8   4  11   -0.18    2.38
   8  -4 -12    2.63    2.05
   4   8  12    4.51    2.13
   8   4  12    5.38    2.64
   4   8  13    0.81    2.07
   8   5 -11    1.95    2.59
   8  -5  11    3.59    2.05
   8   5 -10   -1.05    2.52
   8  -5  10    0.55    1.96
   5   8  -9    1.09    2.98
   8   5  -9    2.04    2.40
   8  -5   9    3.46    1.93
   5   8  -8    3.03    2.85
   8   5  -8   -1.00    2.26
   8  -5   8    0.52    1.91
   5   8  -7    1.89    2.63
   8   5  -7    5.73    2.42
   8  -5   7    2.81    1.82
   5   8  -6    0.66    2.57
   8   5  -6   -1.94    2.34
   8  -5   6    0.38    1.79
   5   8  -5    2.33    2.58
   8   5  -5    5.74    2.31
   8  -5   5    2.50    1.80
   5   8  -4    1.86    2.53
   8   5  -4    0.32    2.26
   8  -5   4   -1.13    1.85
   5   8  -3    1.33    2.42
   8   5  -3    4.42    2.35
   8  -5   3    6.29    1.94
   5   8  -2    1.15    2.37
   8   5  -2    1.43    2.25
   8  -5   2   -0.97    1.76
   5   8  -1    4.90    2.45
   8   5  -1    2.92    2.42
   8  -5   1    4.57    1.88
   5   8   0    3.63    2.46
   8  -5   0   -1.50    1.82
   8   5   0   -1.39    2.13
   5   8   1    4.57    2.54
   8  -5  -1    4.18    1.87
   8   5   1    2.72    2.22
   5   8   2    2.15    2.34
   8  -5  -2   -1.26    1.82
   8   5   2   -2.14    2.26
   8  -5  -3    2.37    1.77
   8   5   3    4.81    2.38
   8  -5  -4    0.12    1.70
   8   5   4    0.16    2.29
   8  -5  -5    3.01    1.80
   5   8   5    3.24    1.79
   8   5   5    4.57    2.32
   8  -5  -6   -0.13    1.73
   5   8   6   -0.72    1.80
   8   5   6   -1.90    2.22
   8  -5  -7    4.98    1.86
   5   8   7   -0.73    1.76
   8   5   7    3.37    2.28
   8  -5  -8   -0.39    1.83
   5   8   8    1.91    1.76
   8   5   8    0.16    2.30
   8  -5  -9    4.30    1.96
   5   8   9    1.98    1.83
   8   5   9    2.02    2.39
   8  -5 -10   -0.82    1.85
   5   8  10   -0.92    1.88
   8   5  10    0.17    2.41
   8  -5 -11    1.96    1.89
   5   8  11    3.69    2.00
   8   5  11    1.74    2.48
   8   6  -9    0.88    2.21
   8   6  -8    2.61    2.26
   8   6  -7    1.44    2.12
   6   8  -6    4.41    2.68
   8   6  -6    1.72    2.21
   8   6  -5   -1.58    2.25
   8   6  -4    0.86    2.15
   8   6  -3    0.28    2.09
   8   6  -2    1.79    2.08
   8   6  -1   -0.54    2.06
   8   6   0    2.06    2.14
   8   6   1    0.14    2.14
   8   6   2    2.51    2.14
   8   6   3    1.39    2.15
   8   6   4    0.14    2.17
   8   6   5   -0.86    2.14
   8   6   6    1.90    2.20
   8   6   7    3.15    2.49
   8   6   8    2.15    2.31
   8   6   9   -0.15    2.44
  -9   0   0    2.47    1.93
   9   0   0    2.65    2.43
   0   9   0    3.91    2.68
  -9   0   1    6.90    2.09
  -9   0  -1   10.18    2.17
   0   9   1   11.70    2.90
   9   0  -1    8.44    2.64
   9   0   1    9.41    2.59
   0   9  -1   10.16    2.92
   0   9   1    8.83    2.92
  -9   0   2    1.65    1.86
  -9   0  -2    2.74    1.94
   0   9   2    0.72    2.71
   9   0  -2   -0.75    2.28
   9   0   2   -1.73    2.43
   0   9  -2   -1.34    2.61
   0   9   2    0.40    2.55
  -9   0   3    6.17    2.03
  -9   0  -3    5.47    1.97
   0   9   3   11.37    2.94
   9   0  -3    8.69    2.59
   9   0   3    7.84    2.60
   0   9  -3    6.84    2.77
   0   9   3    9.43    2.88
  -9   0   4    0.52    1.95
  -9   0  -4    2.27    1.88
   0   9   4    0.18    2.57
   9   0  -4    0.38    2.28
   9   0   4   -0.56    2.22
   0   9  -4    0.37    2.47
   0   9   4    0.82    2.61
  -9   0   5    5.02    2.03
  -9   0  -5    3.67    1.87
   0   9   5    8.38    2.70
   9   0  -5   11.29    2.66
   9   0   5    4.76    2.39
   0   9  -5    4.89    2.56
   0   9   5    5.60    2.91
  -9   0   6    2.94    2.02
  -9   0  -6    0.86    1.76
   0   9   6    1.22    2.50
   9   0  -6    2.35    2.46
   9   0   6   -0.19    2.24
   0   9   6    2.54    2.74
  -9   0   7    6.79    2.21
  -9   0  -7    5.24    1.86
   0   9   7    9.64    2.77
   9   0  -7    5.72    2.58
   9   0   7    2.81    2.36
  -9   0  -8   -0.30    1.76
   0   9   8   -0.51    2.42
  -9   0  -9    5.99    1.82
   0   9   9    2.22    2.48
  -9   0 -10    1.37    1.65
  -9   0 -11    7.20    1.76
  -9   0 -12    0.17    1.51
  -9   0 -13    3.73    1.63
  -9   0 -14    0.37    1.42
  -9  -1 -14    1.83    1.66
  -9  -1 -13   -1.46    1.70
  -9  -1 -12    2.10    1.73
  -9  -1 -11    5.01    1.87
  -9  -1 -10    4.03    1.87
  -9  -1  -9    2.14    1.79
  -9  -1  -8    4.09    1.98
   1   9  -8    2.56    2.61
  -9  -1  -7   -0.11    1.87
  -1   9   7   -2.32    2.50
   1   9  -7    1.89    2.69
  -9  -1  -6    3.60    2.01
  -1   9   6   10.23    2.91
   9  -1   6    3.06    2.24
   1   9  -6    4.00    2.77
  -9   1   6    5.18    1.98
  -9  -1  -5    1.07    1.95
  -1   9   5    0.38    2.65
   9  -1   5   -1.60    2.23
   1   9  -5    1.34    2.59
  -9   1   5    1.10    1.83
  -9  -1  -4    4.26    1.94
  -1   9   4   11.23    2.83
   9  -1   4    8.29    2.45
  -1   9   4    9.28    2.78
   1   9  -4    5.57    2.73
  -9   1   4    4.93    1.97
  -9  -1  -3    5.82    2.07
  -1   9   3    4.17    2.59
   9  -1   3    1.14    2.37
  -1   9   3   -0.39    2.49
   1   9  -3    0.77    2.65
  -9   1   3    1.42    1.80
  -9  -1  -2    8.31    2.11
   9  -1   2    8.73    2.54
  -1   9   2   10.08    2.67
   1   9  -2    8.03    2.90
  -9   1   2    6.16    1.92
  -9  -1  -1    2.04    1.89
   1   9  -1    3.86    2.56
   9  -1   1    1.27    2.19
  -1   9   1   -3.74    2.45
   1   9  -1    4.96    2.88
  -9   1   1    1.71    1.77
  -9  -1   0    8.41    2.11
   1   9   0    7.40    2.76
   9  -1   0    9.80    2.56
  -1   9   0    5.72    2.59
   1   9   0    8.84    2.91
  -9   1   0    5.26    1.89
  -9  -1   1    1.18    1.96
   1   9   1    2.63    2.68
   9  -1  -1   -0.72    2.11
   1   9   1    1.02    2.64
  -9   1  -1    1.75    1.73
  -9  -1   2    9.91    2.24
   1   9   2   12.27    2.86
   9  -1  -2    7.19    2.35
   1   9   2   11.47    3.19
  -9   1  -2    6.18    1.86
  -9  -1   3   -0.67    1.95
   1   9   3    5.38    2.55
   9  -1  -3   -1.08    2.08
   1   9   3    4.98    2.92
  -9   1  -3   -0.93    1.63
  -9  -1   4    5.67    2.13
   1   9   4    9.42    2.74
   9  -1  -4    8.11    2.34
   1   9   4    8.47    3.26
  -9   1  -4    6.96    1.81
  -9  -1   5   -0.14    1.96
   1   9   5   -1.62    2.42
   9  -1  -5    0.54    2.13
   1   9   5    3.18    2.88
  -9   1  -5    1.44    1.59
  -9  -1   6    7.10    2.20
   1   9   6    7.36    2.53
   9  -1  -6    7.53    2.45
  -9   1  -6    5.50    1.68
   1   9   6    7.89    3.15
   1   9   7    1.49    2.41
  -9   1  -7    2.24    1.56
   1   9   8    7.58    2.72
   1   9   9    1.94    2.55
  -9  -2 -15    2.31    1.72
  -9  -2 -14   -0.19    1.78
  -9  -2 -13    2.20    1.86
  -9  -2 -12    0.21    1.79
  -9  -2 -11    3.44    1.96
   2   9 -11    1.27    2.69
  -9  -2 -10    0.11    1.89
   2   9 -10   -1.86    2.75
  -9  -2  -9    5.04    2.04
   2   9  -9    3.83    2.87
  -9  -2  -8    2.94    1.94
   2   9  -8   -0.19    2.80
  -9  -2  -7    2.41    1.95
   2   9  -7    1.94    2.88
  -9  -2  -6   -1.35    1.89
   2   9  -6    0.59    2.64
  -9  -2  -5    4.88    2.03
   9   2  -5    3.31    2.71
   9  -2   5    4.83    2.24
   2   9  -5    0.98    2.77
  -9  -2  -4   -1.91    1.94
   9   2  -4    1.64    2.71
   9  -2   4   -1.70    2.12
   2   9  -4    0.99    2.78
  -9  -2  -3    5.81    2.11
   9   2  -3    5.89    2.65
   9  -2   3    4.78    2.30
   2   9  -3    5.42    2.95
  -9  -2  -2    1.18    1.91
   9   2  -2    0.80    2.56
   9  -2   2   -0.18    2.29
   2   9  -2    0.21    2.86
  -9  -2  -1    7.81    2.24
   2   9  -1   10.57    2.91
   9   2  -1    3.23    2.63
   9  -2   1    0.71    2.18
   2   9  -1    9.13    3.06
  -9  -2   0    1.60    1.96
   2   9   0    5.45    2.81
   9  -2   0   -0.17    2.22
   9   2   0   -0.40    2.53
   2   9   0    0.65    2.95
  -9  -2   1    7.81    2.13
   2   9   1    4.24    2.70
   9  -2  -1    6.56    2.39
   9   2   1    3.63    2.59
   2   9   1   10.30    3.28
  -9  -2   2    1.49    1.96
   2   9   2    1.84    2.53
   9  -2  -2    1.03    2.11
   9   2   2    2.47    2.70
   2   9   2    3.83    3.07
   2   9   3   10.72    3.38
  -9  -2   3    7.50    2.18
   2   9   3    5.17    2.46
   9  -2  -3    2.92    2.13
   9   2   3    7.60    2.77
  -9  -2   4    0.96    1.97
   2   9   4    1.19    2.30
   9  -2  -4   -1.72    2.15
   9   2   4   -1.14    2.43
   2   9   5    6.01    2.41
   9  -2  -5    7.24    2.35
   9   2   5    4.81    2.48
   2   9   6    2.63    2.40
   2   9   7    4.02    2.49
   2   9   8    0.32    2.38
   2   9   9    3.37    2.50
  -9  -3 -14    3.68    1.93
  -9  -3 -13   -0.41    1.79
  -9  -3 -12    2.78    1.92
  -9  -3 -11    0.22    1.85
   3   9 -11    0.58    3.01
  -9  -3 -10    3.08    1.92
   3   9 -10    2.16    2.98
  -9  -3  -9   -0.23    1.91
   3   9  -9    1.75    3.00
  -9  -3  -8    2.97    2.00
   3   9  -8    4.14    2.99
  -9  -3  -7    2.06    1.94
   3   9  -7    3.75    2.99
  -9  -3  -6    5.56    2.07
   3   9  -6    6.77    3.03
  -9  -3  -5    2.01    1.95
   3   9  -5   -0.41    2.93
  -9  -3  -4    3.82    2.06
   3   9  -4    7.07    3.10
  -9  -3  -3    3.23    1.96
   3   9  -3    3.77    2.95
   9  -3   2    3.19    2.27
   3   9  -2    5.14    3.13
   3   9  -1    4.08    3.02
   3   9  -1    0.89    2.62
   9   3  -1   -2.00    2.67
   9  -3   1   -0.17    2.26
   3   9   0    7.17    2.74
   9  -3   0    2.34    2.25
   9   3   0    3.26    2.74
   3   9   1   -0.85    2.34
   9  -3  -1    0.16    2.12
   9   3   1   -1.85    2.61
   3   9   2    4.07    2.43
   3   9   3    2.75    2.32
   3   9   4    2.24    2.30
   3   9   5    0.42    2.28
   3   9   6    2.78    2.23
   3   9   7   -0.29    2.31
   3   9   8    0.57    2.23
   3   9   9    0.98    2.18
   4   9   5   -0.13    2.24
   4   9   6    0.26    2.27
   4   9   7    2.84    2.14
   4   9   8   -0.63    2.02
   0   0   0    0.00    0.00
;
_shelx_hkl_checksum              53783
loop_
_space_group_symop_operation_xyz
'x, y, z'
'-x, -y, z'
'-y, x, z'
'y, -x, z'
'-x, y, -z'
'x, -y, -z'
'y, x, -z'
'-y, -x, -z'
'x+1/2, y+1/2, z+1/2'
'-x+1/2, -y+1/2, z+1/2'
'-y+1/2, x+1/2, z+1/2'
'y+1/2, -x+1/2, z+1/2'
'-x+1/2, y+1/2, -z+1/2'
'x+1/2, -y+1/2, -z+1/2'
'y+1/2, x+1/2, -z+1/2'
'-y+1/2, -x+1/2, -z+1/2'
loop_
_atom_site_label
_atom_site_type_symbol
_atom_site_fract_x
_atom_site_fract_y
_atom_site_fract_z
_atom_site_U_iso_or_equiv
_atom_site_adp_type
_atom_site_occupancy
_atom_site_site_symmetry_order
_atom_site_calc_flag
_atom_site_refinement_flags_posn
_atom_site_refinement_flags_adp
_atom_site_refinement_flags_occupancy
Ce1 Ce -0.5000 0.5000 -0.5000 0.0626(3) Uani 0.500(0) 8 d S T P
Rb1 Rb -0.5000 0.5000 -0.5000 0.0626(3) Uani 0.500(0) 8 d S T P
N2 N -0.9148(13) 0.5000 -0.5000 0.130(5) Uani 1 2 d S T P
O1 O -0.527(7) 0.656(3) -0.3988(7) 0.163(13) Uani 0.5 1 d . . P
N1 N -0.5000 0.5000 -0.3738(6) 0.147(7) Uani 1 4 d S T P
O4 O -0.472(5) 0.159(3) -0.5439(10) 0.077(8) Uani 0.25 1 d . . P
O5 O -0.155(3) 0.355(4) -0.498(3) 0.102(8) Uani 0.25 1 d . . P
O2 O -0.5000 0.5000 -0.3253(10) 0.275(17) Uani 1 4 d S T P
C2 C -0.411(7) 0.650(12) -0.124(3) 0.49(7) Uani 1 1 d . . .
C4 C -0.5000 0.5000 -0.2003(18) 0.53(10) Uani 1 4 d S T P
C1 C -0.5000 0.5000 -0.0900(8) 0.188(13) Uani 1 4 d S T P
C3 C -0.317(4) 0.420(5) -0.1724(12) 0.23(3) Uani 1 1 d . . .
loop_
_atom_site_aniso_label
_atom_site_aniso_U_11
_atom_site_aniso_U_22
_atom_site_aniso_U_33
_atom_site_aniso_U_23
_atom_site_aniso_U_13
_atom_site_aniso_U_12
Ce1 0.0480(3) 0.0480(3) 0.0919(6) 0.000 0.000 0.000
Rb1 0.0480(3) 0.0480(3) 0.0919(6) 0.000 0.000 0.000
N2 0.060(4) 0.152(13) 0.179(13) -0.06(2) 0.000 0.000
O1 0.22(3) 0.130(11) 0.139(10) -0.004(8) -0.06(2) -0.03(2)
N1 0.180(12) 0.180(12) 0.082(7) 0.000 0.000 0.000
O4 0.05(3) 0.073(9) 0.113(10) -0.028(9) -0.007(11) 0.006(8)
O5 0.081(11) 0.097(15) 0.129(17) 0.05(3) -0.02(3) 0.017(11)
O2 0.33(3) 0.33(3) 0.158(18) 0.000 0.000 0.000
C2 0.18(4) 0.68(17) 0.60(9) -0.18(9) 0.17(6) -0.19(6)
C4 0.73(15) 0.73(15) 0.12(3) 0.000 0.000 0.000
C1 0.23(2) 0.23(2) 0.100(11) 0.000 0.000 0.000
C3 0.132(15) 0.28(6) 0.28(3) -0.12(3) 0.004(16) 0.06(3)
loop_
_atom_type_symbol
_atom_type_description
_atom_type_scat_dispersion_real
_atom_type_scat_dispersion_imag
_atom_type_scat_source
C C 0.0033 0.0016 'International Tables Vol C Tables 4.2.6.8 and 6.1.1.4'
H H 0.0000 0.0000 'International Tables Vol C Tables 4.2.6.8 and 6.1.1.4'
N N 0.0061 0.0033 'International Tables Vol C Tables 4.2.6.8 and 6.1.1.4'
O O 0.0106 0.0060 'International Tables Vol C Tables 4.2.6.8 and 6.1.1.4'
Rb Rb -0.9393 2.9676 'International Tables Vol C Tables 4.2.6.8 and 6.1.1.4'
Ce Ce -0.2486 2.6331 'International Tables Vol C Tables 4.2.6.8 and 6.1.1.4'
loop_
_geom_angle_atom_site_label_1
_geom_angle_atom_site_label_2
_geom_angle_atom_site_label_3
_geom_angle
_geom_angle_site_symmetry_1
_geom_angle_site_symmetry_3
O4 Ce1 O4 107.3(15) 6_564 4_455
O4 Ce1 O4 80.7(4) 6_564 8_554
O4 Ce1 O4 171.5(16) 4_455 8_554
O4 Ce1 O4 132.5(12) 6_564 5_454
O4 Ce1 O4 91.5(16) 4_455 5_454
O4 Ce1 O4 80.7(4) 8_554 5_454
O4 Ce1 O4 91.5(16) 6_564 3_565
O4 Ce1 O4 132.5(12) 4_455 3_565
O4 Ce1 O4 48.4(11) 8_554 3_565
O4 Ce1 O4 107.3(15) 5_454 3_565
O4 Ce1 O4 48.4(11) 6_564 2_465
O4 Ce1 O4 80.7(4) 4_455 2_465
O4 Ce1 O4 107.3(15) 8_554 2_465
O4 Ce1 O4 171.5(16) 5_454 2_465
O4 Ce1 O4 80.7(4) 3_565 2_465
O4 Ce1 O4 80.7(4) 6_564 7_464
O4 Ce1 O4 48.4(11) 4_455 7_464
O4 Ce1 O4 132.5(12) 8_554 7_464
O4 Ce1 O4 80.7(4) 5_454 7_464
O4 Ce1 O4 171.5(16) 3_565 7_464
O4 Ce1 O4 91.5(16) 2_465 7_464
O4 Ce1 O4 171.5(16) 6_564 .
O4 Ce1 O4 80.7(4) 4_455 .
O4 Ce1 O4 91.5(16) 8_554 .
O4 Ce1 O4 48.4(11) 5_454 .
O4 Ce1 O4 80.6(4) 3_565 .
O4 Ce1 O4 132.5(12) 2_465 .
O4 Ce1 O4 107.3(15) 7_464 .
O4 Ce1 O5 106.1(13) 6_564 .
O4 Ce1 O5 145.0(13) 4_455 .
O4 Ce1 O5 28.8(15) 8_554 .
O4 Ce1 O5 73.1(9) 5_454 .
O4 Ce1 O5 36.4(12) 3_565 .
O4 Ce1 O5 115.4(10) 2_465 .
O4 Ce1 O5 149.6(13) 7_464 .
O4 Ce1 O5 65.5(13) . .
O4 Ce1 O5 115.4(10) 6_564 5_454
O4 Ce1 O5 28.8(15) 4_455 5_454
O4 Ce1 O5 145.0(13) 8_554 5_454
O4 Ce1 O5 65.5(13) 5_454 5_454
O4 Ce1 O5 149.6(13) 3_565 5_454
O4 Ce1 O5 106.1(13) 2_465 5_454
O4 Ce1 O5 36.4(12) 7_464 5_454
O4 Ce1 O5 73.1(9) . 5_454
O5 Ce1 O5 134.5(12) . 5_454
O4 Ce1 O5 28.8(15) 6_564 3_565
O4 Ce1 O5 115.4(10) 4_455 3_565
O4 Ce1 O5 73.1(9) 8_554 3_565
O4 Ce1 O5 149.6(13) 5_454 3_565
O4 Ce1 O5 65.5(13) 3_565 3_565
O4 Ce1 O5 36.4(12) 2_465 3_565
O4 Ce1 O5 106.1(13) 7_464 3_565
O4 Ce1 O5 145.0(13) . 3_565
O5 Ce1 O5 89.98(5) . 3_565
O5 Ce1 O5 135.5(12) 5_454 3_565
O4 Ce1 O5 65.5(13) 6_564 6_564
O4 Ce1 O5 149.6(13) 4_455 6_564
O4 Ce1 O5 36.4(12) 8_554 6_564
O4 Ce1 O5 115.4(10) 5_454 6_564
O4 Ce1 O5 28.8(15) 3_565 6_564
O4 Ce1 O5 73.1(9) 2_465 6_564
O4 Ce1 O5 145.0(13) 7_464 6_564
O4 Ce1 O5 106.1(13) . 6_564
O5 Ce1 O5 45.6(12) . 6_564
O5 Ce1 O5 178(3) 5_454 6_564
O5 Ce1 O5 44.5(13) 3_565 6_564
O5 N2 O5 128(2) 2_465 5_454
O5 N2 O4 68(4) 2_465 7_464
O5 N2 O4 90(3) 5_454 7_464
O5 N2 O4 90(3) 2_465 4_455
O5 N2 O4 68(4) 5_454 4_455
O4 N2 O4 128.4(19) 7_464 4_455
O5 N2 N2 115.9(11) 2_465 2_365
O5 N2 N2 115.9(11) 5_454 2_365
O4 N2 N2 115.8(9) 7_464 2_365
O4 N2 N2 115.8(9) 4_455 2_365
O5 N2 Ce1 64.1(11) 2_465 .
O5 N2 Ce1 64.1(11) 5_454 .
O4 N2 Ce1 64.2(9) 7_464 .
O4 N2 Ce1 64.2(9) 4_455 .
N2 N2 Ce1 180.0 2_365 .
N1 O1 O1 51.5(4) . 4_455
N1 O1 O1 51.5(4) . 3_565
O1 O1 O1 90.000(8) 4_455 3_565
N1 O1 Ce1 93.9(13) . .
O1 O1 Ce1 72.9(3) 4_455 .
O1 O1 Ce1 72.9(3) 3_565 .
O2 N1 O1 118.4(10) . 3_565
O2 N1 O1 118.4(10) . 2_465
O1 N1 O1 76.9(9) 3_565 2_465
O2 N1 O1 118.4(10) . 4_455
O1 N1 O1 123(2) 3_565 4_455
O1 N1 O1 76.9(9) 2_465 4_455
O2 N1 O1 118.4(10) . .
O1 N1 O1 76.9(9) 3_565 .
O1 N1 O1 123(2) 2_465 .
O1 N1 O1 76.9(9) 4_455 .
N2 O4 O5 53.6(18) 3_565 8_554
N2 O4 O5 44(2) 3_565 4_455
O5 O4 O5 87(2) 8_554 4_455
N2 O4 Ce1 91.6(11) 3_565 .
O5 O4 Ce1 75.6(12) 8_554 .
O5 O4 Ce1 71.8(13) 4_455 .
N2 O5 O4 58(3) 2_465 8_554
N2 O5 O4 46.8(17) 2_465 3_565
O4 O5 O4 93(2) 8_554 3_565
N2 O5 Ce1 93.1(13) 2_465 .
O4 O5 Ce1 75.6(17) 8_554 .
O4 O5 Ce1 71.8(9) 3_565 .
C3 C2 C1 131(5) 3_565 .
C3 C2 C2 90(3) 3_565 3_565
C1 C2 C2 53.8(12) . 3_565
C3 C2 C2 101(5) 3_565 4_455
C1 C2 C2 53.8(12) . 4_455
C2 C2 C2 90.000(11) 3_565 4_455
C3 C2 C3 67(4) 3_565 .
C1 C2 C3 84(4) . .
C2 C2 C3 96(3) 3_565 .
C2 C2 C3 35(3) 4_455 .
C3 C4 C3 129(3) 3_565 4_455
C3 C4 C3 79.2(13) 3_565 2_465
C3 C4 C3 79.2(13) 4_455 2_465
C3 C4 C3 79.2(13) 3_565 .
C3 C4 C3 79.2(13) 4_455 .
C3 C4 C3 129(3) 2_465 .
C2 C1 C2 113(5) . 2_465
C2 C1 C2 72(2) . 3_565
C2 C1 C2 72(2) 2_465 3_565
C2 C1 C2 72(2) . 4_455
C2 C1 C2 72(2) 2_465 4_455
C2 C1 C2 113(5) 3_565 4_455
C2 C3 C4 107(4) 4_455 .
C2 C3 C3 79(5) 4_455 4_455
C4 C3 C3 50.4(7) . 4_455
C2 C3 C3 89(2) 4_455 3_565
C4 C3 C3 50.4(7) . 3_565
C3 C3 C3 90.001(2) 4_455 3_565
C2 C3 C2 56(2) 4_455 .
C4 C3 C2 73(3) . .
C3 C3 C2 89.4(13) 4_455 .
C3 C3 C2 34(2) 3_565 .
loop_
_geom_bond_atom_site_label_1
_geom_bond_atom_site_label_2
_geom_bond_distance
_geom_bond_site_symmetry_2
Ce1 O4 2.649(18) 6_564
Ce1 O4 2.649(18) 4_455
Ce1 O4 2.649(18) 8_554
Ce1 O4 2.649(18) 5_454
Ce1 O4 2.649(18) 3_565
Ce1 O4 2.649(18) 2_465
Ce1 O4 2.649(18) 7_464
Ce1 O4 2.649(18) .
Ce1 O5 2.65(2) .
Ce1 O5 2.65(2) 5_454
Ce1 O5 2.65(2) 3_565
Ce1 O5 2.65(2) 6_564
N2 O5 1.14(3) 2_465
N2 O5 1.14(3) 5_454
N2 O4 1.21(3) 7_464
N2 O4 1.21(3) 4_455
N2 N2 1.207(18) 2_365
O1 N1 1.28(2) .
O1 O1 1.59(3) 4_455
O1 O1 1.59(3) 3_565
N1 O2 1.18(3) .
N1 O1 1.28(2) 3_565
N1 O1 1.28(2) 2_465
N1 O1 1.28(2) 4_455
O4 N2 1.21(3) 3_565
O4 O5 1.32(7) 8_554
O4 O5 1.65(5) 4_455
O5 N2 1.14(3) 2_465
O5 O4 1.32(7) 8_554
O5 O4 1.65(5) 3_565
C2 C3 1.21(8) 3_565
C2 C1 1.48(6) .
C2 C2 1.75(8) 3_565
C2 C2 1.75(8) 4_455
C2 C3 2.12(8) .
C4 C3 1.57(3) 3_565
C4 C3 1.57(3) 4_455
C4 C3 1.57(3) 2_465
C4 C3 1.57(3) .
C1 C2 1.48(6) 2_465
C1 C2 1.48(6) 3_565
C1 C2 1.48(6) 4_455
C3 C2 1.21(8) 4_455
C3 C3 2.00(4) 4_455
C3 C3 2.00(4) 3_565
