#------------------------------------------------------------------------------
#$Date: 2020-02-04 05:13:16 +0200 (Tue, 04 Feb 2020) $
#$Revision: 247531 $
#$URL: file:///home/coder/svn-repositories/cod/cif/4/13/39/4133978.cif $
#------------------------------------------------------------------------------
#
# This file is available in the Crystallography Open Database (COD),
# http://www.crystallography.net/
#
# All data on this site have been placed in the public domain by the
# contributors.
#
data_4133978
loop_
_publ_author_name
'Bear, Joseph C.'
'Cockcroft, Jeremy K.'
'Williams, Jeffrey H.'
_publ_section_title
;
 Influence of Solvent in Crystal Engineering: A Significant Change to the
 Order-Disorder Transition in Ferrocene.
;
_journal_issue                   4
_journal_name_full               'Journal of the American Chemical Society'
_journal_page_first              1731
_journal_page_last               1734
_journal_paper_doi               10.1021/jacs.9b11895
_journal_volume                  142
_journal_year                    2020
_chemical_formula_moiety         '0.5(C20 H20 Fe2), C6 F6'
_chemical_formula_sum            'C16 H10 F6 Fe'
_chemical_formula_weight         372.09
_chemical_name_systematic        Ferrocene:hexafluorobenzene
_space_group_crystal_system      triclinic
_space_group_IT_number           2
_space_group_name_Hall           '-B 1'
_space_group_name_H-M_alt        'B -1'
_atom_sites_solution_hydrogens   geom
_atom_sites_solution_primary     dual
_audit_creation_date             2019-08-29
_audit_creation_method
;
Olex2 1.2
(compiled 2018.05.29 svn.r3508 for OlexSys, GUI svn.r5506)
;
_cell_angle_alpha                76.583(6)
_cell_angle_beta                 77.727(6)
_cell_angle_gamma                83.757(5)
_cell_formula_units_Z            2
_cell_length_a                   7.1618(5)
_cell_length_b                   9.2536(6)
_cell_length_c                   11.8972(9)
_cell_measurement_reflns_used    2922
_cell_measurement_temperature    302.5
_cell_measurement_theta_max      26.4240
_cell_measurement_theta_min      5.1370
_cell_volume                     747.94(9)
_computing_cell_refinement       'CrysAlisPro 1.171.39.46 (Rigaku OD, 2018)'
_computing_data_collection       'CrysAlisPro 1.171.39.46 (Rigaku OD, 2018)'
_computing_data_reduction        'CrysAlisPro 1.171.39.46 (Rigaku OD, 2018)'
_computing_molecular_graphics    'Olex2 (Dolomanov et al., 2009)'
_computing_publication_material  'Olex2 (Dolomanov et al., 2009)'
_computing_structure_refinement  'ShelXL (Sheldrick, 2015)'
_computing_structure_solution    'ShelXT (Sheldrick, 2015)'
_diffrn_ambient_environment      C6F6
_diffrn_ambient_temperature      302.5
_diffrn_detector                 'CCD plate'
_diffrn_detector_area_resol_mean 5.2031
_diffrn_detector_type            Atlas
_diffrn_measured_fraction_theta_full 0.997
_diffrn_measured_fraction_theta_max 0.997
_diffrn_measurement_details
;
List of Runs (angles in degrees, time in seconds):

  # Type    Start    End  Width  t~exp~   \w     \q     \k     \f   Frames
--------------------------------------------------------------------------
  1  \w    -11.00  87.00   1.00    2.00    --   11.17  77.00  90.00   98
  2  \w     13.00  77.00   1.00    2.00    --   11.17  38.00-150.00   64
  3  \w    -53.00  39.00   1.00    2.00    --   11.17 -57.00-180.00   92
  4  \w     -2.00  58.00   1.00    2.00    --   11.17-110.00 120.00   60
  5  \w    -17.00  52.00   1.00    2.00    --   11.17 -99.00 -60.00   69
  6  \w     -7.00  67.00   1.00    2.00    --   11.17  38.00 -60.00   74
  7  \w      4.00  52.00   1.00    2.00    --   11.17 -99.00   0.00   48
  8  \w     27.00  84.00   1.00    2.00    --   11.17  57.00 -30.00   57
;
_diffrn_measurement_device       'four-circle diffractometer'
_diffrn_measurement_device_type  'SuperNova, Dual, Cu at home/near, Atlas'
_diffrn_measurement_method       '\w scans'
_diffrn_orient_matrix_type
'CrysAlisPro convention (1999,Acta A55,543-557)'
_diffrn_orient_matrix_UB_11      0.0215465000
_diffrn_orient_matrix_UB_12      -0.0756139000
_diffrn_orient_matrix_UB_13      0.0254445000
_diffrn_orient_matrix_UB_21      -0.0297711000
_diffrn_orient_matrix_UB_22      0.0153703000
_diffrn_orient_matrix_UB_23      0.0570534000
_diffrn_orient_matrix_UB_31      -0.0946715000
_diffrn_orient_matrix_UB_32      -0.0167470000
_diffrn_orient_matrix_UB_33      0.0008339000
_diffrn_radiation_monochromator  mirror
_diffrn_radiation_probe          x-ray
_diffrn_radiation_type           MoK\a
_diffrn_radiation_wavelength     0.71073
_diffrn_reflns_av_R_equivalents  0.0381
_diffrn_reflns_av_unetI/netI     0.0302
_diffrn_reflns_Laue_measured_fraction_full 0.997
_diffrn_reflns_Laue_measured_fraction_max 0.997
_diffrn_reflns_limit_h_max       8
_diffrn_reflns_limit_h_min       -8
_diffrn_reflns_limit_k_max       10
_diffrn_reflns_limit_k_min       -10
_diffrn_reflns_limit_l_max       13
_diffrn_reflns_limit_l_min       -13
_diffrn_reflns_number            4853
_diffrn_reflns_point_group_measured_fraction_full 0.997
_diffrn_reflns_point_group_measured_fraction_max 0.997
_diffrn_reflns_theta_full        24.709
_diffrn_reflns_theta_max         24.709
_diffrn_reflns_theta_min         3.502
_diffrn_source                   'micro-focus sealed X-ray tube'
_diffrn_source_type              'SuperNova (Mo) X-ray Source'
_exptl_absorpt_coefficient_mu    1.067
_exptl_absorpt_correction_T_max  1.000
_exptl_absorpt_correction_T_min  0.251
_exptl_absorpt_correction_type   gaussian
_exptl_absorpt_process_details
;
CrysAlisPro 1.171.39.46 (Rigaku Oxford Diffraction, 2018)
Numerical absorption correction based on gaussian integration over
			a multifaceted crystal model
Empirical absorption correction using spherical harmonics,
 implemented in SCALE3 ABSPACK scaling algorithm.
;
_exptl_crystal_colour            'clear dark orange'
_exptl_crystal_colour_lustre     clear
_exptl_crystal_colour_modifier   dark
_exptl_crystal_colour_primary    orange
_exptl_crystal_density_diffrn    1.652
_exptl_crystal_description       block
_exptl_crystal_F_000             372
_exptl_crystal_preparation       'Ferrocene dissolved in hot C6F6'
_exptl_crystal_recrystallization_method
'Crystals grown using C6F6 as solvent in an NMR tube stood in hot water'
_exptl_crystal_size_max          0.722
_exptl_crystal_size_mid          0.389
_exptl_crystal_size_min          0.2
_refine_diff_density_max         0.280
_refine_diff_density_min         -0.173
_refine_diff_density_rms         0.050
_refine_ls_extinction_coef       0.035(3)
_refine_ls_extinction_expression Fc^*^=kFc[1+0.001xFc^2^\l^3^/sin(2\q)]^-1/4^
_refine_ls_extinction_method     'SHELXL-2014/7 (Sheldrick 2014'
_refine_ls_goodness_of_fit_ref   1.079
_refine_ls_hydrogen_treatment    constr
_refine_ls_matrix_type           full
_refine_ls_number_parameters     152
_refine_ls_number_reflns         1271
_refine_ls_number_restraints     190
_refine_ls_restrained_S_all      1.374
_refine_ls_R_factor_all          0.0389
_refine_ls_R_factor_gt           0.0381
_refine_ls_shift/su_max          0.001
_refine_ls_shift/su_mean         0.000
_refine_ls_structure_factor_coef Fsqd
_refine_ls_weighting_details
'w=1/[\s^2^(Fo^2^)+(0.0522P)^2^+0.4173P] where P=(Fo^2^+2Fc^2^)/3'
_refine_ls_weighting_scheme      calc
_refine_ls_wR_factor_gt          0.0989
_refine_ls_wR_factor_ref         0.0996
_reflns_Friedel_coverage         0.000
_reflns_number_gt                1240
_reflns_number_total             1271
_reflns_threshold_expression     'I > 2\s(I)'
_cod_data_source_file            ja9b11895_si_002.cif
_cod_data_source_block           exp_1341
_cod_depositor_comments
'Adding full bibliography for 4133967--4133980.cif.'
_cod_original_sg_number          -1
_cod_original_sg_symbol_H-M      '-B 1'
_cod_database_code               4133978
_shelx_shelxl_version_number     2014/7
_chemical_oxdiff_formula         'Fe C16 H10 F6'
_chemical_oxdiff_usercomment     'In capillary'
_shelx_space_group_comment
;
The symmetry employed for this shelxl refinement is uniquely defined
by the following loop, which should always be used as a source of
symmetry information in preference to the above space-group names.
They are only intended as comments.
;
_shelx_estimated_absorpt_t_max   0.815
_shelx_estimated_absorpt_t_min   0.513
_reflns_odcompleteness_completeness 49.77
_reflns_odcompleteness_iscentric 1
_reflns_odcompleteness_theta     26.32
_olex2_refinement_description
;
1. Fixed Uiso
 At 1.2 times of:
  All C(H) groups
2. Restrained distances
 C7-C9A \\sim C7-C10A \\sim C8-C10A \\sim C8-C11A \\sim C9-C11A \\sim C9-C7A
\\sim C10-C7A \\sim C10-C8A ~
 C11-C8A \\sim C11-C9A
 with sigma of 0.02
 C7-C7A \\sim C8-C8A \\sim C9-C9A \\sim C10-C10A \\sim C11-C11A
 with sigma of 0.02
 Fe1-C7 \\sim Fe1-C7A \\sim Fe1-C8 \\sim Fe1-C8A \\sim Fe1-C9 \\sim Fe1-C9A
\\sim Fe1-C10 \\sim Fe1-C10A ~
 Fe1-C11 \\sim Fe1-C11A
 with sigma of 0.02
3. Rigid bond restraints
 Fe1, C7, Fe1, C8, Fe1, C9, Fe1, C10, Fe1, C11, Fe1, C7A, Fe1, C8A, Fe1, C9A,
 Fe1, C10A, Fe1, C11A
 with sigma for 1-2 distances of 0.01 and sigma for 1-3 distances of 0.01
4. Rigid body (RIGU) restrains
 C7, C9A, C7, C10A, C8, C10A, C8, C11A, C9, C11A, C9, C7A, C10, C7A, C10, C8A,
 C11, C8A, C11, C9A
 with sigma for 1-2 distances of 0.004 and sigma for 1-3 distances of 0.004
5. Others
 Fixed Sof: C7(0.5) H7(0.5) C8(0.5) H8(0.5) C9(0.5) H9(0.5) C10(0.5) H10(0.5)
 C11(0.5) H11(0.5) C7A(0.5) H7A(0.5) C8A(0.5) H8A(0.5) C9A(0.5) H9A(0.5)
 C10A(0.5) H10A(0.5) C11A(0.5) H11A(0.5)
6.a Aromatic/amide H refined with riding coordinates:
 C7(H7), C8(H8), C9(H9), C10(H10), C11(H11), C7A(H7A), C8A(H8A), C9A(H9A),
 C10A(H10A), C11A(H11A)
;
_shelx_res_file
;
    exp_1341.res created by SHELXL-2014/7

TITL exp_1341 in B-1
REM P-1 (#2 in standard setting)
CELL 0.71073 7.161821 9.253581 11.897231 76.5826 77.7267 83.7566
ZERR 2 0.000467 0.000591 0.000878 0.0059 0.0059 0.0053
LATT 6
SFAC C H F Fe
UNIT 32 20 12 2
SADI C7 C9A C7 C10A C8 C10A C8 C11A C9 C11A C9 C7A C10 C7A C10 C8A C11 C8A =
 C11 C9A
SADI C7 C7A C8 C8A C9 C9A C10 C10A C11 C11A
SADI Fe1 C7 Fe1 C7A Fe1 C8 Fe1 C8A Fe1 C9 Fe1 C9A Fe1 C10 Fe1 C10A Fe1 C11 =
 FE1 C11A
DELU Fe1 C7 Fe1 C8 Fe1 C9 Fe1 C10 Fe1 C11 Fe1 C7A Fe1 C8A Fe1 C9A Fe1 C10A =
 FE1 C11A
RIGU C7 C9A C7 C10A C8 C10A C8 C11A C9 C11A C9 C7A C10 C7A C10 C8A C11 C8A =
 C11 C9A

L.S. 20 0 0
PLAN  1
SIZE 0.2 0.389 0.722
CONN 20 1.24 Fe1
BOND $H
CONF
list 4
fmap 2 53
acta
SHEL 50 0.85
OMIT 1 2 3
OMIT 2 6 6
REM <olex2.extras>
REM <HklSrc "%.\\exp_1341.hkl">
REM </olex2.extras>

WGHT    0.052200    0.417300
EXTI    0.034778
FVAR       8.49323
FE1   4    0.250000    0.500000    0.250000    10.50000    0.07455    0.05290 =
         0.05857   -0.00535   -0.02135    0.00395
PART 1
C7    1    0.311215    0.695620    0.136537    10.50000    0.09877    0.06646 =
         0.08986    0.00630   -0.00790   -0.00323
AFIX  43
H7    2    0.426360    0.740846    0.121549    10.50000   -1.20000
AFIX   0
C8    1    0.267267    0.593004    0.076572    10.50000    0.11231    0.08407 =
         0.06535   -0.00012   -0.01470    0.01658
AFIX  43
H8    2    0.347160    0.558789    0.014351    10.50000   -1.20000
AFIX   0
C9    1    0.082374    0.552636    0.127835    10.50000    0.10282    0.07980 =
         0.05829   -0.01661   -0.03335    0.01381
AFIX  43
H9    2    0.017260    0.485569    0.105541    10.50000   -1.20000
AFIX   0
C10   1    0.009095    0.628466    0.218255    10.50000    0.08091    0.06778 =
         0.07555   -0.02308   -0.03607    0.01270
AFIX  43
H10   2   -0.111581    0.621087    0.266510    10.50000   -1.20000
AFIX   0
C11   1    0.151745    0.717161    0.222077    10.50000    0.08077    0.05473 =
         0.08732   -0.00820   -0.02479    0.00862
AFIX  43
H11   2    0.141864    0.780608    0.273595    10.50000   -1.20000
AFIX   0

PART 0
F1    3    0.360921    0.981817   -0.120076    11.00000    0.09334    0.17352 =
         0.13499    0.01231    0.01359    0.02175
F2    3    0.102110    0.812461   -0.148104    11.00000    0.23085    0.10413 =
         0.10322   -0.04711   -0.04858    0.04597
F3    3   -0.259505    0.829125   -0.027099    11.00000    0.16565    0.12838 =
         0.19576   -0.01035   -0.08545   -0.05353
C1    1    0.181101    0.991049   -0.061417    11.00000    0.07619    0.08284 =
         0.07627    0.00692   -0.00645    0.01574
C2    1    0.049176    0.906172   -0.074630    11.00000    0.11802    0.06062 =
         0.06732   -0.01242   -0.02773    0.01727
C3    1   -0.130965    0.914497   -0.013600    11.00000    0.09507    0.06626 =
         0.09586    0.00264   -0.03977   -0.01145

PART 2
C7A   1    0.022807    0.576353    0.171341    10.50000    0.06699    0.09642 =
         0.06893   -0.00715   -0.01825    0.00507
AFIX  43
H7A   2   -0.092043    0.530767    0.186150    10.50000   -1.20000
AFIX   0
C8A   1    0.067763    0.684454    0.233238    10.50000    0.08496    0.07798 =
         0.07566   -0.01094   -0.01735    0.02447
AFIX  43
H8A   2   -0.012202    0.720161    0.294707    10.50000   -1.20000
AFIX   0
C9A   1    0.257968    0.723475    0.180301    10.50000    0.08860    0.04829 =
         0.06761   -0.01307   -0.01679    0.01198
AFIX  43
H9A   2    0.324833    0.790675    0.201194    10.50000   -1.20000
AFIX   0
C10A  1    0.328183    0.644208    0.091573    10.50000    0.09029    0.04989 =
         0.05902   -0.01278   -0.01735   -0.00878
AFIX  43
H10A  2    0.449725    0.650087    0.044305    10.50000   -1.20000
AFIX   0
C11A  1    0.186535    0.554383    0.085013    10.50000    0.07072    0.06988 =
         0.05512   -0.00694   -0.01757   -0.00918
AFIX  43
H11A  2    0.198281    0.491391    0.032971    10.50000   -1.20000
AFIX   0
HKLF 4

REM  exp_1341 in B-1
REM R1 =  0.0381 for    1240 Fo > 4sig(Fo)  and  0.0389 for all    1271 data
REM    152 parameters refined using    190 restraints

END

WGHT      0.0521      0.4169

REM Highest difference peak  0.280,  deepest hole -0.173,  1-sigma level  0.050
Q1    1  -0.0629  0.8122 -0.1016  11.00000  0.05    0.28
;
_shelx_res_checksum              77261
_shelx_hkl_file
;
   0   0   2 7951.44 345.358   3
   0   0   2 8416.41 341.573   1
   0   0  -2 8219.35 390.674   6
   0   0   2 8173.55 394.966   6
   0   0   4 8560.54 470.188   1
   0   0   4 7972.64 465.795   3
   0   0  -4 7803.59 441.974   3
   0   0  -4 7369.43 495.792   6
   0   0   4 7255.95 520.925   6
   0   0  -4 8869.82 430.357   1
   0   0   6 65772.2 2147.16   1
   0   0   6 64191.4 2331.65   6
   0   0  -6 65660.1 1827.91   7
   0   0  -6 63011.4 2237.91   6
   0   0  -6 70666.5 1983.40   1
   0   0   6 66983.9 2157.70   3
   0   0  -6 66295.6 2079.63   3
   0   0  -8 23233.2 882.834   7
   0   0   8 22583.6 1236.54   1
   0   0  -8 23763.4 1156.56   3
   0   0  -8 24420.0 1348.62   6
   0   0  -8 24026.1 1031.10   1
   0   0   8 23349.9 1372.51   6
   0   0 -10 11432.9 575.556   7
   0   0  10 11188.2 958.811   1
   0   0  10 10212.1 881.651   3
   0   0  10 10759.7 1102.10   6
   0   0 -10 12059.0 731.414   1
   0   0 -12 6301.17 560.539   1
   0   0  12 5233.25 857.373   6
   0   0  14-45.7244 278.619   6
   0   0 -14 115.933 106.473   1
   0  -1  14 830.254 465.609   6
   0   1 -14 606.726 194.040   1
   0   1 -12 2978.12 478.148   3
   0  -1  12 2191.30 547.798   6
   0   1 -12 3086.87 389.462   1
   0   1 -10 4950.08 463.484   1
   0   1 -10 4150.31 511.139   3
   0  -1  10 4194.64 661.317   6
   0  -1  10 4846.38 603.189   3
   0  -1  10 5017.61 641.088   1
   0  -1   8 731.345 242.982   6
   0   1  -8 1303.92 218.463   1
   0   1  -8 1116.78 245.376   3
   0  -1   8 1099.11 262.707   1
   0  -1   6 47145.9 1838.68   6
   0   1  -6 47162.7 1499.85   1
   0  -1   6 46270.5 1700.93   3
   0   1  -6 44759.3 1600.74   3
   0  -1   6 45004.0 1690.83   1
   0   1  -6 45237.6 1353.45   7
   0   1  -4 28225.0 891.253   7
   0  -1   4 28084.7 1126.68   6
   0   1  -4 29298.0 987.762   1
   0   1  -4 28161.0 1039.05   3
   0  -1   4 29051.7 1090.89   3
   0  -1   4 29041.7 1078.61   1
   0  -1   2 521843. 12294.0   3
   0   1  -2 511803. 12231.5   1
   0   1  -2 537462. 12286.2   3
   0  -1  -2 510669. 10574.0   1
   0   1   2 455233. 10835.1   6
   0   1   4 214217. 5253.17   1
   0  -1  -4 216999. 5166.12   1
   0   1   4 215807. 5320.12   3
   0  -1  -4 205254. 5485.12   6
   0   1   4 212365. 5594.09   6
   0  -1  -6 96373.6 2591.00   1
   0   1   6 93976.3 2790.04   3
   0   1   6 90196.8 2740.35   1
   0  -1  -6 92057.5 2978.08   6
   0   1   6 88323.5 3085.70   6
   0   1   8 60578.9 2636.86   6
   0  -1  -8 62402.8 2443.49   6
   0   1   8 60035.6 2259.59   1
   0  -1  -8 63415.9 1992.10   1
   0   1  10 3284.81 516.019   1
   0   1  10 3355.77 499.652   3
   0  -1 -10 4647.95 405.192   7
   0   1  10 3109.72 635.234   6
   0  -1 -10 4579.43 439.720   1
   0  -1 -12 2880.44 385.201   1
   0   1  12 2560.35 652.047   6
   0  -1 -14 1694.25 329.312   1
   0   1  14 1100.85 526.906   6
   0  -2  14-219.189 278.508   6
   0  -2  12 1296.85 432.464   6
   0   2 -12 1301.34 334.770   3
   0   2 -12 1645.69 290.966   1
   0  -2  10 6025.78 691.454   3
   0   2 -10 5858.18 619.388   3
   0  -2  10 5772.76 755.691   6
   0   2 -10 6527.03 540.389   1
   0  -2   8 9324.89 839.036   6
   0  -2   8 9458.89 782.393   3
   0   2  -8 9604.83 619.686   1
   0   2  -8 9177.11 698.606   3
   0   2  -6 62359.4 2120.00   3
   0   2  -6 67660.8 2018.30   1
   0  -2   6 59936.3 2176.04   3
   0  -2   6 66162.1 2311.03   6
   0  -2   4 58409.5 1664.20   7
   0  -2   4 54873.3 1861.77   3
   0   2  -4 58312.4 1786.86   1
   0   2  -4 57047.2 1842.33   3
   0   2  -2 382270. 8794.39   3
   0  -2   2 364644. 8890.71   2
   0   2  -2 367243. 8919.32   2
   0  -2   2 366432. 8812.26   8
   0  -2   2 368581. 8773.46   3
   0   2   0 246905. 5781.99   2
   0   2   0 225506. 5808.13   8
   0  -2   0 256442. 5802.88   2
   0  -2   0 244880. 5642.08   5
   0   2   0 236029. 5628.15   5
   0  -2  -2 507466. 10729.8   1
   0   2   2 457271. 10845.7   8
   0   2   4 779.723 275.313   6
   0  -2  -4 880.338 170.969   1
   0   2   4 960.433 169.955   1
   0   2   6 158514. 4443.09   3
   0   2   6 157487. 4859.88   6
   0   2   6 156198. 4337.84   1
   0  -2  -6 167936. 4188.17   1
   0  -2  -8 15012.2 793.606   1
   0   2   8 15104.4 1231.37   6
   0   2   8 14245.7 954.166   1
   0  -2  -8 14185.6 1064.13   6
   0   2  10 4355.48 584.771   1
   0   2  10 3677.51 515.656   3
   0   2  10 4730.70 805.835   6
   0  -2 -10 3819.19 424.966   1
   0   2  12 6157.69 981.735   6
   0  -2 -12 5762.85 572.596   1
   0   2  14 1310.64 502.675   6
   0  -2 -14 1871.20 342.869   1
   0  -2 -16 198.449 143.646   1
   0  -3  14 389.875 321.273   6
   0   3 -12 1286.62 331.378   3
   0  -3  12 890.176 402.701   6
   0   3 -12 1754.11 296.435   1
   0   3 -10 6850.00 679.436   3
   0  -3  10 5627.41 759.883   6
   0  -3  10 5261.05 672.075   3
   0   3 -10 6222.43 544.163   1
   0   3  -8 12284.8 736.282   1
   0  -3   8 10448.5 897.992   6
   0   3  -8 13313.6 884.029   3
   0  -3   8 12176.2 931.865   3
   0  -3   6 9374.36 748.419   6
   0   3  -6 9834.50 642.582   1
   0   3  -6 8929.70 849.950   2
   0  -3   6 9744.02 571.117   7
   0   3  -6 9448.59 713.279   3
   0   3  -4 60818.8 2037.26   3
   0  -3   4 58539.4 1823.74   7
   0   3  -4 60647.4 1947.45   1
   0  -3   4 56306.3 1997.94   3
   0  -3   2 19420.4 936.631   8
   0  -3   2 18637.2 967.696   2
   0   3  -2 20271.3 928.857   3
   0   3   0 72513.8 2075.19   2
   0  -3   0 74564.5 2116.27   2
   0   3   0 68396.7 2138.97   8
   0   3   0 68131.3 1872.46   5
   0  -3   0 67966.5 1898.95   5
   0  -3  -2 33408.4 1129.69   5
   0  -3  -2 29442.5 1236.01   8
   0   3   2 31121.0 1233.11   8
   0  -3  -4 95284.0 2773.50   1
   0   3   4 100276. 3046.25   8
   0   3   4 96448.8 3204.79   6
   0   3   6 3945.14 565.602   6
   0   3   6 3889.76 409.043   1
   0  -3  -6 3542.41 379.625   1
   0   3   8 26455.8 1731.81   6
   0  -3  -8 25815.3 1556.21   6
   0  -3  -8 29095.7 1239.08   1
   0   3   8 29047.1 1472.08   3
   0   3   8 28216.9 1392.23   1
   0  -3 -10 14004.8 860.624   1
   0   3  10 12951.3 1032.41   3
   0   3  10 13251.2 1364.27   6
   0   3  12 3749.52 786.992   6
   0  -3 -12 4151.96 494.660   1
   0  -3 -14 840.845 258.411   1
   0   3  14 925.334 494.124   6
   0  -3 -16 284.228 189.874   1
   0   4 -12 570.853 251.820   3
   0  -4  12-237.916 261.613   6
   0  -4  10 8896.95 962.228   6
   0   4 -10 8863.20 677.073   1
   0   4 -10 8899.80 829.697   3
   0  -4   8 5589.68 669.145   3
   0   4  -8 6322.93 552.882   1
   0  -4   8 5065.28 438.579   7
   0   4  -8 5377.81 600.074   3
   0  -4   8 4473.46 621.611   8
   0  -4   8 5757.46 666.866   6
   0   4  -6 20806.5 1060.11   1
   0   4  -6 17973.5 1102.36   3
   0   4  -6 20362.2 1385.89   2
   0  -4   6 18492.8 1200.38   8
   0  -4   6 19186.1 949.620   7
   0   4  -4 49715.9 2074.69   2
   0  -4   4 46085.6 1675.38   7
   0   4  -4 46873.3 1853.73   3
   0  -4   2 105780. 3348.56   2
   0   4  -2 111189. 3333.43   2
   0   4  -2 108984. 3015.31   5
   0   4  -2 112570. 3279.38   3
   0  -4   2 110222. 3325.11   8
   0   4   0 74705.5 2319.59   2
   0   4   0 72618.8 2411.03   8
   0  -4   0 73127.5 2109.37   5
   0  -4   0 78766.5 2402.81   2
   0   4   0 73394.6 2062.67   5
   0   4   2 105701. 3184.70   8
   0  -4  -2 101985. 3026.85   2
   0  -4  -2 107664. 2949.55   5
   0  -4  -4 1866.36 307.138   5
   0  -4  -4 1598.45 257.112   1
   0   4   4 1577.69 309.817   8
   0   4   6 30055.2 1526.55   8
   0  -4  -6 24694.8 1204.27   1
   0   4   8 37216.9 1640.06   1
   0  -4  -8 36193.5 1559.82   1
   0   4   8 37442.4 1825.60   3
   0   4   8 37324.8 2116.67   6
   0   4  10 3612.85 740.160   6
   0   4  10 4856.71 648.744   3
   0  -4 -10 4986.68 549.267   1
   0   4  12 839.099 504.755   6
   0  -4 -12 453.982 200.629   1
   0   4  14 966.150 526.010   6
   0  -4 -14 1083.09 323.169   1
   0  -5  12 902.415 400.103   6
   0  -5  10 2383.52 505.154   6
   0   5 -10 1918.49 418.651   3
   0   5 -10 2006.84 328.758   1
   0  -5   8 12690.9 1056.05   6
   0   5  -8 11378.1 958.925   3
   0   5  -8 12222.5 857.977   1
   0  -5   8 12372.0 786.190   7
   0   5  -6 10964.4 798.118   1
   0  -5   6 11002.7 762.551   7
   0  -5   6 10041.0 929.560   8
   0   5  -6 10034.6 851.929   3
   0   5  -4 40864.5 1933.76   2
   0  -5   4 39887.6 1873.08   8
   0   5  -4 40261.6 1795.31   3
   0  -5   4 39304.9 1927.16   2
   0   5  -2 34439.5 1575.54   2
   0  -5   2 35871.6 1618.63   8
   0   5  -2 32656.9 1282.39   5
   0  -5   2 35309.5 1634.96   2
   0   5  -2 34130.1 1560.08   3
   0   5   0 16551.7 747.023   5
   0  -5   0 19803.9 1079.30   2
   0   5   0 16757.4 1022.84   8
   0   5   0 17635.4 963.381   2
   0  -5  -2 82992.5 2701.61   2
   0  -5  -2 84594.4 2552.35   5
   0   5   2 84111.6 2836.75   8
   0   5   4 138814. 4224.63   8
   0  -5  -4 137807. 4005.36   5
   0   5   6 25720.5 1182.84   1
   0  -5  -6 24183.3 1383.62   5
   0   5   6 26516.4 1474.45   8
   0  -5  -6 24495.7 1341.92   1
   0  -5  -8 2429.33 388.095   1
   0   5   8 2816.17 523.044   8
   0  -5 -10 1174.49 290.271   1
   0   5  10 1287.11 397.801   8
   0   5  10 843.051 405.193   6
   0  -5 -12 2576.52 452.133   1
   0   5  12 2688.41 673.900   6
   0   5  12 2654.61 597.215   8
   0  -5 -14 608.850 254.778   1
   0   5  14 1680.17 655.521   6
   0   5  14 609.636 427.278   8
   0  -6  12 173.811 251.521   6
   0  -6  10 1462.91 414.098   6
   0   6 -10 1440.93 373.668   3
   0  -6   8 5825.30 584.283   7
   0   6  -8 6656.08 780.249   3
   0  -6   8 7278.05 828.790   6
   0   6  -8 7363.93 687.677   1
   0  -6   6 14685.8 982.661   7
   0   6  -6 13934.6 1119.38   3
   0   6  -6 15389.5 1044.56   1
   0  -6   4 4222.48 590.925   8
   0  -6   4 3822.16 597.858   2
   0   6  -4 3701.31 433.617   5
   0   6  -4 4851.34 617.180   3
   0   6  -4 4669.83 623.218   2
   0  -6   2 4199.63 574.966   2
   0   6  -2 4727.80 590.889   3
   0  -6   2 4209.90 555.556   8
   0   6  -2 3908.87 381.905   5
   0   6  -2 4550.27 562.125   2
   0   6   0 47102.1 1609.56   5
   0   6   0 53705.9 2025.63   2
   0  -6   0 54039.0 2167.46   8
   0  -6   0 54599.6 2166.44   2
   0   6   0 47597.9 2114.78   8
   0  -6  -2 82691.7 2862.69   2
   0  -6  -2 81630.7 2582.39   5
   0   6   2 81263.7 2524.02   1
   0   6   2 87212.0 3031.32   8
   0  -6  -4 27475.4 1662.38   6
   0   6   4 31102.2 1651.03   8
   0  -6  -4 31089.5 1473.43   5
   0   6   4 31393.2 1270.23   1
   0   6   6 4511.65 468.164   1
   0   6   6 4511.98 622.305   8
   0  -6  -6 5158.44 758.501   6
   0  -6  -6 3872.97 542.480   5
   0   6   8 6660.90 784.059   8
   0  -6  -8 5837.11 730.779   5
   0   6  10 8932.96 976.269   8
   0  -6 -10 7434.80 812.025   1
   0  -6 -10 9232.20 953.745   5
   0   6  12 1854.41 500.224   8
   0  -6 -12 1062.34 324.896   1
   0   6  14 874.499 408.508   8
   0  -6 -14 39.4422 192.678   1
   0   7 -10 198.325 153.086   3
   0  -7  10 519.380 294.298   6
   0  -7   8 3397.87 591.087   6
   0   7  -8 2866.50 536.440   3
   0   7  -8 2699.67 453.310   1
   0  -7   8 2695.43 426.442   7
   0   7  -6 5776.49 672.592   1
   0  -7   6 4905.03 589.589   7
   0   7  -6 5112.49 600.311   5
   0   7  -6 5157.04 706.201   3
   0  -7   4 15624.3 692.933   4
   0  -7   4 15504.6 1294.32   2
   0   7  -4 18428.4 1311.65   3
   0   7  -2 10665.2 926.712   2
   0   7  -2 10485.8 672.499   5
   0  -7   2 10176.5 970.706   2
   0   7  -2 9992.51 941.428   3
   0  -7   0 11837.1 978.131   2
   0   7   0 10171.9 935.870   8
   0  -7   0 11027.9 945.699   8
   0   7   0 9578.09 595.777   5
   0  -7  -2 4686.24 484.333   5
   0   7   2 5052.01 472.731   1
   0  -7  -2 4793.51 626.648   8
   0  -7  -2 4286.60 567.415   2
   0   7   2 3887.82 605.481   8
   0  -7  -4 7760.92 885.912   6
   0  -7  -4 10311.0 891.693   2
   0   7   4 8820.92 896.828   8
   0   7   4 8941.68 647.320   1
   0  -7  -4 9418.41 791.700   5
   0  -7  -6 11520.3 999.267   5
   0   7   6 11989.8 1076.95   8
   0   7   8 14498.6 1215.72   8
   0  -7  -8 11791.7 1067.01   5
   0  -7 -10 1760.53 450.917   5
   0   7  10 1637.28 465.234   8
   0  -7 -12 1226.27 420.348   5
   0   7  12 523.588 298.049   8
   0   7  14-255.555 270.979   8
   0   8  -8 128.155 202.301   3
   0  -8   8-157.889 180.528   6
   0   8  -6 7069.34 903.532   3
   0   8  -6 7004.93 780.895   1
   0  -8   6 6838.21 776.196   7
   0  -8   4 6379.04 908.980   2
   0   8  -4 7828.11 923.223   3
   0   8  -2 9711.39 1002.83   3
   0   8  -2 9919.90 665.518   5
   0  -8   2 9806.65 1040.91   2
   0   8   0 3977.93 375.779   5
   0  -8   0 3940.86 620.609   2
   0   8   0 3900.25 626.154   8
   0   8   0 2832.84 389.381   1
   0  -8  -2 6709.27 773.235   2
   0  -8  -2 6853.34 625.794   5
   0   8   2 5931.86 767.642   8
   0   8   4 12661.2 1137.04   8
   0   8   4 10422.6 526.062   4
   0  -8  -4 12130.2 1047.09   2
   0  -8  -4 10324.0 887.367   5
   0  -8  -6 6343.91 772.167   2
   0  -8  -6 6497.06 762.220   5
   0   8   6 7334.64 898.542   8
   0   8   8 1892.05 485.748   8
   0  -8  -8 1116.13 350.951   5
   0   8  10 1199.32 404.145   8
   0  -8 -10 1404.42 408.071   5
   0  -8 -12 539.698 303.320   5
   0   8  12 430.128 286.077   8
   0   8  14 374.389 305.389   8
   0   9  -8 587.645 308.394   3
   0  -9   8 548.410 238.429   6
   0  -9   6 214.376 172.638   7
   0   9  -6 397.569 207.729   1
   0   9  -6 162.481 186.710   3
   0  -9   4 5086.38 740.331   7
   0   9  -4 6155.51 867.231   3
   0  -9   2 5710.60 860.463   2
   0   9  -2 7020.95 894.014   3
   0   9   0 5346.92 788.842   3
   0  -9   0 5504.15 795.801   2
   0   9   0 4522.28 422.266   5
   0   9   0 5130.57 770.370   8
   0   9   2 14493.0 1324.82   8
   0  -9  -2 16302.8 1316.98   2
   0  -9  -2 15065.0 1020.04   5
   0   9   4 5277.36 812.070   8
   0  -9  -4 5376.98 755.474   2
   0  -9  -4 4901.99 619.841   5
   0  -9  -6 423.266 267.135   2
   0  -9  -6 379.941 227.452   5
   0   9   6 744.669 293.822   8
   0  -9  -8 1133.69 368.358   5
   0   9   8 1706.14 493.772   8
   0   9  10 1595.37 512.544   8
   0  -9 -10 572.862 314.118   5
   0  -9 -12 160.016 163.605   5
   0   9  12 903.123 387.657   8
   0  10  -6 238.755 236.566   3
   0  10  -4 1261.00 419.081   3
   0 -10   4 1530.59 443.802   7
   0  10  -2 1300.91 426.884   3
   0 -10   2 948.402 375.143   2
   0  10   0 7706.02 1022.17   3
   0 -10   0 7231.80 970.359   2
   0 -10  -2 1682.11 476.583   2
   0  10   2 2448.92 563.238   8
   0 -10  -4 3958.31 699.054   2
   0 -10  -4 3093.42 509.305   5
   0  10   4 4622.03 797.721   8
   0 -10  -6 2008.31 507.896   2
   0  10   6 2621.49 620.691   8
   0 -10  -6 1565.98 408.239   5
   0  10   8 1073.89 394.686   8
   0 -10  -8 1558.75 463.964   2
   0 -10  -8 1091.93 362.115   5
   0 -10 -10 641.175 317.996   5
   0  10  10 1204.32 457.283   8
   0 -10 -12-54.9265 197.707   5
   0 -11   4 154.464 242.223   7
   0  11  -2 2049.91 575.368   3
   0 -11   2 2496.10 642.291   2
   0 -11   0 576.943 342.706   2
   0  11   0 125.616 222.596   3
   0  11   2 1261.36 527.862   8
   0 -11  -2 1878.24 528.740   2
   0  11   4 2485.48 623.689   8
   0 -11  -4 2215.66 549.558   2
   0 -11  -6 1131.36 429.994   2
   0  11   6 871.049 402.830   8
   0 -11  -8 559.180 283.403   2
   0 -11 -10 73.4266 146.285   5
   0 -12   0 472.018 353.756   2
   0 -12  -2 670.231 394.312   2
   0 -12  -4 135.483 193.873   2
   0 -12  -6 424.983 276.914   2
   1 -12  -7 640.854 414.972   2
   1 -12  -5-286.711 279.969   2
   1 -12  -3 63.8484 217.483   2
   1 -12  -1 111.008 256.548   2
   1 -11  -9 655.386 375.144   2
   1 -11  -7 330.270 239.983   2
  -1  11   7 608.306 351.680   8
  -1  11   5 1241.65 459.597   8
   1 -11  -5 514.919 327.776   2
  -1  11   3 452.048 293.638   8
   1 -11  -3 666.949 367.461   2
   1 -11  -1 410.077 247.440   2
  -1  11   1 792.710 427.471   3
   1 -11   1 2207.82 615.235   2
  -1  11  -1 1915.01 580.507   3
   1 -11   3 277.787 220.137   2
   1 -10 -11-50.4503 170.863   5
   1 -10  -9 184.334 226.958   2
  -1  10   9 754.815 379.233   8
   1 -10  -9 828.436 367.185   5
   1 -10  -7 862.287 309.985   5
  -1  10   7 924.666 399.318   8
   1 -10  -7 509.561 310.604   2
  -1  10   5 1673.19 514.843   8
   1 -10  -5 1056.99 308.195   5
   1 -10  -5 1001.69 383.864   2
  -1  10   3 5046.62 831.916   8
   1 -10  -3 4661.90 795.957   2
  -1  10   1 4293.07 778.513   3
   1 -10  -1 3678.23 723.152   2
   1 -10   1 1289.89 440.952   2
  -1  10  -1 1579.26 484.680   3
  -1  10  -3 1773.97 534.280   3
   1 -10   3 2230.26 592.893   2
  -1  10  -5 1069.71 428.995   3
   1 -10   5 464.426 297.064   2
   1 -10   5 433.589 244.989   7
   1  -9 -11 725.872 299.138   5
  -1   9  11 1106.60 459.831   8
   1  -9  -9 1048.52 334.951   5
  -1   9   9 1318.12 417.671   8
   1  -9  -7 1591.73 397.650   5
   1  -9  -7 1174.19 397.237   2
  -1   9   7 1149.35 282.324   4
  -1   9   7 1403.79 428.006   8
   1  -9  -5 7570.58 774.240   5
  -1   9   5 7171.54 963.224   8
   1  -9  -5 7005.79 931.441   2
  -1   9   5 7999.92 580.094   4
  -1   9   3 4767.10 765.735   8
   1  -9  -3 6261.93 872.718   2
   1  -9  -3 5227.90 543.476   5
  -1   9   1 3687.58 684.071   3
   1  -9  -1 4764.21 772.948   2
  -1   9   1 4129.09 719.486   8
  -1   9  -1 5551.00 815.296   3
   1  -9   1 5926.33 872.992   2
   1  -9   3 8087.49 1062.66   2
  -1   9  -3 8385.41 1028.70   3
   1  -9   5 1787.54 533.848   2
  -1   9  -5 1495.59 464.014   3
  -1   9  -7 883.769 375.605   3
  -1   8  13 641.133 352.998   8
  -1   8  11 697.477 359.411   8
   1  -8 -11 709.671 303.724   5
   1  -8  -9 1633.08 418.636   5
  -1   8   9 3250.20 618.486   8
  -1   8   7 8774.00 981.246   8
   1  -8  -7 6567.99 759.662   5
  -1   8   5 2500.78 534.368   8
   1  -8  -5 2531.14 519.073   2
   1  -8  -5 2268.50 411.161   5
  -1   8   5 2727.23 353.525   4
  -1   8   3 1330.80 401.748   8
   1  -8  -3 1713.33 300.798   5
  -1   8   3 1335.71 132.195   4
   1  -8  -3 1917.64 473.039   2
  -1   8   1 4945.44 714.945   8
   1  -8  -1 4185.06 645.196   2
  -1   8   1 4829.79 467.515   1
  -1   8  -1 16396.7 919.206   1
   1  -8   1 18753.9 1458.20   2
  -1   8  -1 18068.4 1394.45   3
  -1   8  -3 11153.4 529.565   5
  -1   8  -3 11230.5 763.032   1
  -1   8  -3 12067.8 1154.55   3
   1  -8   3 14095.6 1293.22   2
   1  -8   5 5665.87 876.084   2
  -1   8  -5 6167.93 850.337   3
  -1   8  -7 969.272 362.828   3
   1  -8   7 1105.23 310.885   7
   1  -8   9 664.101 328.067   6
  -1   8  -9 592.126 314.472   3
  -1   7  13 664.504 333.536   8
  -1   7  11 1854.27 484.338   8
   1  -7 -11 1046.47 312.742   1
   1  -7  -9 4464.25 632.940   5
  -1   7   9 5398.19 756.668   8
   1  -7  -9 4444.49 618.815   1
   1  -7  -7 1212.28 321.978   5
  -1   7   7 1313.24 428.793   8
  -1   7   5 4898.05 484.899   4
   1  -7  -5 5371.53 591.115   5
  -1   7   5 5301.21 707.729   8
  -1   7   3 21082.0 891.630   4
  -1   7   3 21776.2 1446.38   8
   1  -7  -3 22326.3 1122.33   5
   1  -7  -3 21940.3 1441.24   2
  -1   7   3 23736.0 1107.38   1
   1  -7  -1 16549.7 1240.88   2
  -1   7   1 19204.1 1305.04   8
  -1   7   1 17628.4 905.109   1
   1  -7  -1 18286.5 847.538   5
  -1   7  -1 2474.03 320.321   1
  -1   7  -1 3036.53 537.939   3
   1  -7   1 2996.18 538.797   2
   1  -7   3 10882.9 1061.81   2
  -1   7  -3 9238.60 505.635   5
  -1   7  -3 10087.3 991.795   3
   1  -7   5 7420.98 953.308   2
  -1   7  -5 7562.96 573.998   5
  -1   7  -5 8578.73 927.200   3
   1  -7   7 6336.89 641.851   7
  -1   7  -7 5514.01 763.103   3
  -1   7  -7 6181.06 608.923   1
   1  -7   9 1153.64 382.422   6
  -1   7  -9 1334.77 388.815   3
   1  -7  11 401.078 259.231   6
  -1   7 -11-28.2705 142.840   3
   1  -6 -13 694.873 274.163   1
  -1   6  13 520.602 308.809   8
   1  -6 -11 1605.83 366.720   1
  -1   6  11 1800.50 450.191   8
   1  -6  -9 1494.55 328.272   1
  -1   6   9 1839.19 449.970   8
  -1   6   7 10095.4 951.864   8
   1  -6  -7 9090.92 794.216   1
   1  -6  -5 51873.1 2561.33   6
   1  -6  -5 53609.2 2216.56   1
  -1   6   5 55836.3 2041.96   1
  -1   6   5 57690.0 2376.26   8
   1  -6  -5 53079.3 2104.24   5
  -1   6   3 62314.4 2008.45   1
   1  -6  -3 54532.0 2390.25   2
   1  -6  -3 56631.2 2346.79   8
  -1   6   3 61470.1 2452.97   8
   1  -6  -3 60759.3 2049.25   5
  -1   6   3 55743.9 1819.63   4
   1  -6  -1 33.0419 154.443   8
  -1   6   1 370.954 130.771   1
  -1   6   1 152.323 178.056   8
   1  -6  -1 379.887 207.427   2
   1  -6  -1 291.736 108.596   5
  -1   6  -1 20952.4 696.410   5
   1  -6   1 19950.1 1317.69   2
  -1   6  -1 21009.7 1260.14   2
   1  -6   1 19559.7 1247.11   8
  -1   6  -1 19965.9 1265.54   3
  -1   6  -3 17615.0 1232.89   3
  -1   6  -3 20006.9 1306.69   2
  -1   6  -3 17199.1 749.370   5
   1  -6   3 18332.1 721.835   4
   1  -6   3 17998.2 1254.08   8
  -1   6  -5 7084.25 561.682   5
  -1   6  -5 6847.15 775.700   3
   1  -6   5 6745.99 833.587   2
   1  -6   7 7869.08 659.348   7
  -1   6  -7 7807.12 858.823   3
  -1   6  -7 8128.47 654.846   1
  -1   6  -9 2979.57 548.566   3
   1  -6   9 3219.27 587.622   6
   1  -6  11 437.828 283.960   6
  -1   6 -11 478.536 252.826   3
  -1   5  13 613.827 309.005   8
   1  -5 -13 906.654 283.278   1
   1  -5 -11 1328.59 305.985   1
  -1   5  11 995.214 365.973   8
  -1   5   9 12575.9 1061.44   8
   1  -5  -9 13214.7 903.956   1
  -1   5   7 27963.4 1531.29   8
   1  -5  -7 24121.3 1682.79   6
   1  -5  -7 28338.0 1344.80   1
  -1   5   5 22838.7 1294.29   8
  -1   5   5 23807.5 1164.93   1
   1  -5  -5 20486.3 1436.24   6
   1  -5  -5 21025.7 1131.56   1
   1  -5  -3 20632.5 958.433   5
  -1   5   3 20216.5 937.035   1
  -1   5   3 18669.0 860.878   4
  -1   5   3 18460.4 1106.87   8
   1  -5  -3 19088.5 1124.02   8
   1  -5  -1 137276. 3606.38   5
  -1   5   1 143758. 3471.38   4
   1  -5  -1 145827. 4277.48   2
  -1   5   1 147833. 4273.71   8
  -1   5  -1 24693.5 978.044   1
  -1   5  -1 25123.9 740.240   5
   1  -5   1 23017.2 690.193   4
   1  -5   1 24364.0 1340.41   2
  -1   5  -1 24330.9 1304.92   3
  -1   5  -1 23831.4 1270.97   2
   1  -5   3 83414.6 3066.46   8
  -1   5  -3 89150.6 3075.43   3
  -1   5  -3 94927.9 3191.70   2
  -1   5  -3 84303.7 2408.49   5
   1  -5   3 97889.4 3295.89   2
   1  -5   5 27418.3 1568.90   8
  -1   5  -5 26488.4 1490.14   3
   1  -5   5 22252.6 1534.66   2
   1  -5   7 1730.38 279.986   7
  -1   5  -7 1902.70 283.292   1
  -1   5  -7 2006.93 430.812   3
   1  -5   9 6187.24 806.051   6
  -1   5  -9 5642.03 728.879   3
  -1   5  -9 5908.41 478.785   1
  -1   5 -11 2024.60 455.802   3
   1  -5  11 1768.02 484.931   6
  -1   4  13 1348.78 416.058   8
   1  -4 -13 1234.37 307.737   1
  -1   4  13 639.268 411.364   6
  -1   4  11 3693.80 618.694   8
   1  -4 -11 3350.01 449.861   1
  -1   4  11 2600.00 644.431   6
   1  -4  -9 12963.8 832.784   1
  -1   4   9 11837.4 978.461   3
  -1   4   9 11921.2 1000.65   8
  -1   4   7 5870.65 640.762   8
  -1   4   7 6369.31 631.090   1
   1  -4  -7 6080.90 523.861   1
   1  -4  -7 4856.82 737.038   6
  -1   4   5 282.796 149.177   8
   1  -4  -5 760.915 195.342   1
  -1   4   3 215872. 5696.37   8
   1  -4  -3 217563. 5492.54   1
   1  -4  -3 205099. 5663.77   8
  -1   4   1 36942.8 1216.74   1
  -1   4   1 36291.2 1502.40   8
   1  -4  -1 34388.9 1502.48   2
  -1   4   1 36473.2 1138.10   4
   1  -4  -1 37137.6 1137.09   5
  -1   4  -1 141598. 3314.31   5
   1  -4   1 140443. 3429.29   4
  -1   4  -1 137861. 4050.09   3
  -1   4  -1 140348. 3597.73   1
   1  -4   1 147776. 4143.46   2
   1  -4   3 270310. 7073.77   2
  -1   4  -3 251520. 6834.45   3
  -1   4  -5 14249.6 744.619   1
   1  -4   5 13064.7 945.519   3
  -1   4  -5 13087.5 967.236   3
   1  -4   5 11841.6 1016.69   2
  -1   4  -5 13684.8 1048.12   2
   1  -4   7 19562.1 887.955   7
   1  -4   7 20771.3 1314.38   3
  -1   4  -7 20016.5 919.152   1
  -1   4  -7 20742.2 1282.02   3
   1  -4   7 20200.2 1327.92   6
  -1   4  -9 13161.9 1050.93   3
   1  -4   9 11977.2 1090.98   6
  -1   4  -9 11955.3 678.906   1
  -1   4 -11 2465.73 475.083   3
  -1   4 -11 2541.16 316.767   1
   1  -4  11 3490.13 651.800   6
  -1   4 -13 584.813 288.951   3
   1  -4  13 344.859 272.050   6
   1  -3 -15 142.045 180.145   1
  -1   3  13 292.931 352.526   6
   1  -3 -13 1801.84 343.962   1
  -1   3  11 1893.57 555.101   6
  -1   3  11 2053.37 402.757   3
   1  -3 -11 2170.53 350.103   1
   1  -3  -9 2443.94 341.715   1
  -1   3   9 1930.12 577.859   6
  -1   3   9 1752.68 349.303   3
  -1   3   7 11343.0 853.294   8
  -1   3   7 10187.8 819.122   1
  -1   3   7 10989.6 1040.74   6
   1  -3  -7 8285.69 843.765   6
   1  -3  -7 10219.1 660.741   1
   1  -3  -5 51682.4 1675.36   1
  -1   3   5 52642.2 1877.77   8
  -1   3   3 44448.5 1604.20   8
   1  -3  -3 45277.5 1663.64   8
   1  -3  -3 45826.2 1475.69   1
  -1   3   1 170557. 4149.15   4
  -1   3   1 169513. 4170.17   1
   1  -3  -1 176209. 4263.41   1
   1  -3  -1 159642. 4379.46   8
  -1   3   1 164769. 4441.39   8
   1  -3   1 2602.26 325.735   2
   1  -3   1 2876.88 215.532   4
  -1   3  -1 3362.96 237.008   1
  -1   3  -1 2789.00 330.793   3
  -1   3  -3 6304.37 551.193   3
   1  -3   3 7997.78 653.460   2
  -1   3  -5 429004. 10191.2   1
   1  -3   5 420147. 10961.8   2
  -1   3  -5 451043. 10771.8   3
   1  -3   7 18572.7 1210.55   6
   1  -3   7 18971.7 716.235   7
  -1   3  -7 20395.6 1407.03   2
  -1   3  -7 18155.0 797.898   1
  -1   3  -7 19359.9 1168.07   3
   1  -3   7 19748.8 1227.01   3
  -1   3  -9 7571.88 760.681   3
   1  -3   9 7697.66 825.725   3
  -1   3  -9 8326.66 534.458   1
   1  -3   9 7757.50 869.885   6
  -1   3 -11 5173.48 664.028   3
  -1   3 -11 6180.15 490.914   1
   1  -3  11 7020.74 901.145   6
  -1   3 -13 207.807 187.833   3
   1  -3  13-46.0542 256.960   6
   1  -2 -15 439.825 189.777   1
  -1   2  15 93.0395 278.925   6
   1  -2 -13 2405.36 388.070   1
  -1   2  13 1647.41 554.606   6
  -1   2  11 38.5035 287.806   6
  -1   2  11 245.760 122.629   3
   1  -2 -11-38.8057 141.720   1
   1  -2  -9 9839.40 685.877   1
  -1   2   9 9517.35 886.253   1
   1  -2  -9 9414.08 937.798   6
  -1   2   9 10305.1 1102.13   6
  -1   2   7 63294.0 2741.18   6
   1  -2  -7 67015.9 2096.51   1
  -1   2   7 65321.5 2221.75   3
  -1   2   7 62921.7 2407.89   1
   1  -2  -7 62587.1 2502.24   6
  -1   2   5 42127.1 1844.78   6
   1  -2  -5 39111.5 1362.10   1
   1  -2  -5 36807.3 1708.71   6
  -1   2   3 6321.03 422.165   8
   1  -2  -3 5897.68 539.363   6
   1  -2  -3 6699.25 408.427   1
  -1   2   1 24144.3 846.437   4
  -1   2   1 25502.3 939.591   8
  -1   2   1 24046.0 843.271   1
   1  -2  -1 24646.9 906.263   8
   1  -2  -1 25311.3 817.564   1
   1  -2   1 323208. 8050.59   2
  -1   2  -1 335504. 8028.00   3
  -1   2  -1 336697. 7654.17   1
   1  -2   1 333170. 7781.04   4
   1  -2   3 500542. 12362.4   3
  -1   2  -3 516135. 12352.2   3
   1  -2   5 8203.68 368.251   7
  -1   2  -5 7707.82 398.027   1
   1  -2   5 9005.31 677.882   3
  -1   2  -5 7973.57 621.900   3
  -1   2  -7 17685.7 1250.51   2
  -1   2  -7 18161.6 747.610   1
   1  -2   7 16174.2 1065.68   3
   1  -2   7 16960.5 1113.63   6
  -1   2  -7 17486.3 1026.89   3
   1  -2   9 11032.9 950.455   3
  -1   2  -9 11563.4 642.620   1
  -1   2  -9 10334.2 856.559   3
   1  -2   9 12654.9 1059.12   6
   1  -2  11 5857.32 825.623   6
  -1   2 -11 6747.41 729.549   3
  -1   2 -11 6859.04 523.956   1
  -1   2 -13 1653.16 396.960   3
   1  -2  13 1210.97 491.644   6
  -1   1  15 634.914 427.941   6
   1  -1 -15 199.386 163.274   1
  -1   1  13 1197.94 495.875   6
   1  -1 -13 1187.57 285.497   1
   1  -1 -11 11009.4 777.862   1
  -1   1  11 10064.1 885.042   3
  -1   1  11 9859.41 1177.10   6
   1  -1  -9 9878.39 693.041   1
  -1   1   9 11182.8 1111.73   6
  -1   1   9 10004.4 929.398   1
   1  -1  -9 10574.7 743.665   7
   1  -1  -9 10229.9 908.316   6
  -1   1   7 34091.7 1802.14   6
  -1   1   7 32341.4 1581.05   1
  -1   1   7 33325.0 1360.66   3
   1  -1  -7 36388.9 1375.50   1
   1  -1  -7 35468.0 1640.03   6
   1  -1  -5 1252.90 254.354   6
  -1   1   5 1341.14 195.633   3
  -1   1   5 1458.49 371.094   6
   1  -1  -5 1372.42 213.537   1
   1  -1  -3 110299. 2842.63   1
  -1   1   3 116330. 3165.50   6
   1  -1  -1 362261. 8427.01   1
  -1   1   1 353920. 8462.47   1
  -1   1   1 439477. 8478.98   8
  -1   1   1 460615. 8616.95   4
   1  -1  -1 428813. 8459.73   8
   1  -1   1 474288. 11105.9   2
  -1   1  -1 482302. 11081.8   3
   1  -1   3 999999. 22438.1   2
  -1   1  -3 963672. 22448.7   2
   1  -1   3 805929. 22281.5   3
  -1   1  -3 836907. 22267.7   3
  -1   1  -5 63295.1 1700.99   1
   1  -1   5 63193.4 1814.24   1
   1  -1   5 64767.6 2149.14   3
  -1   1  -5 63425.5 2070.65   3
   1  -1   5 64309.7 2177.98   6
   1  -1   7 51884.0 1813.88   1
  -1   1  -7 53834.8 2293.80   2
   1  -1   7 54140.6 2182.55   6
  -1   1  -7 56578.0 1658.94   1
  -1   1  -7 53393.2 1986.01   3
   1  -1   9 3331.22 423.765   1
   1  -1   9 3094.57 520.366   6
   1  -1   9 3496.15 520.152   3
  -1   1  -9 3359.31 458.685   3
  -1   1  -9 3782.20 353.645   1
  -1   1 -11 10534.2 662.854   1
   1  -1  11 10474.4 1080.51   6
   1  -1  11 8864.84 815.251   1
  -1   1 -11 9937.43 875.211   3
   1  -1  13 1415.76 475.984   6
  -1   1 -13 662.335 267.085   3
  -1   1 -13 1390.94 255.266   1
   1   0 -15 77.9172 115.574   1
  -1   0  15 36.3825 263.924   6
   1   0 -13 4105.04 499.123   1
  -1   0  13 4861.43 881.871   6
   1   0 -11 3258.47 406.081   7
  -1   0  11 2717.62 644.341   6
  -1   0  11 3283.21 488.140   3
   1   0 -11 3496.02 439.173   1
   1   0  -9 3378.36 404.090   1
   1   0  -9 3296.82 492.780   6
  -1   0   9 2846.53 561.722   6
   1   0  -9 3405.39 395.487   7
  -1   0   9 3810.97 566.681   1
  -1   0   7 28307.3 1458.46   1
   1   0  -7 28144.1 1371.16   6
   1   0  -7 30066.1 1234.01   1
  -1   0   7 26928.3 1513.32   6
  -1   0   7 28341.5 1202.16   3
   1   0  -7 28627.1 1199.75   7
  -1   0   5 193699. 5440.99   6
   1   0  -5 198736. 5260.82   6
  -1   0   5 201140. 5355.43   1
  -1   0   5 203011. 4991.82   3
   1   0  -5 205461. 5127.46   1
   1   0  -5 205331. 5112.01   7
  -1   0   3 190023. 4915.62   6
   1   0  -3 189289. 4812.05   6
  -1   0   3 194223. 4554.68   3
   1   0  -3 197403. 4788.30   1
  -1   0   3 196628. 4897.40   1
   1   0  -1 520730. 11879.5   6
  -1   0  -3 71939.8 2020.60   3
   1   0   3 78223.2 2101.22   6
   1   0   3 65857.5 1736.16   1
  -1   0  -3 76914.4 2089.84   2
  -1   0  -3 71323.1 1741.74   1
  -1   0  -5 134529. 3256.98   1
  -1   0  -5 124735. 3751.70   2
  -1   0  -5 129416. 3588.65   3
   1   0   5 131931. 3654.87   3
   1   0   5 133112. 3750.73   6
   1   0   5 129330. 3303.88   1
   1   0   7 15784.2 806.882   1
  -1   0  -7 15682.0 908.148   3
  -1   0  -7 17472.4 744.870   1
  -1   0  -7 15093.0 1064.78   2
   1   0   7 15136.3 1029.99   6
  -1   0  -7 15747.1 1013.77   6
  -1   0  -9 14937.7 1194.59   2
  -1   0  -9 15945.6 784.769   1
   1   0   9 15131.9 942.899   1
   1   0   9 13801.1 1119.34   6
  -1   0  -9 14532.4 970.945   3
   1   0   9 15450.3 1086.55   3
   1   0  11 1415.26 326.723   1
  -1   0 -11 1885.35 396.671   3
  -1   0 -11 1852.78 285.669   1
   1   0  11 1410.92 422.141   6
  -1   0 -13 2560.16 361.652   1
   1   0  13 1498.08 536.448   6
   1   0  15 163.697 336.020   6
  -1  -1  15 255.754 321.308   6
   1   1 -13 248.509 166.771   1
  -1  -1  13 460.655 349.938   6
  -1  -1  11 7381.03 958.433   6
  -1  -1  11 6300.27 684.159   3
   1   1 -11 6918.35 632.349   1
  -1  -1   9 10836.0 981.802   1
   1   1  -9 10702.7 693.495   7
   1   1  -9 11496.8 762.075   3
  -1  -1   9 9752.15 963.498   6
   1   1  -9 11107.7 755.788   1
   1   1  -7 31775.9 1224.88   3
   1   1  -7 30272.6 1238.58   7
   1   1  -7 30978.2 1294.25   1
  -1  -1   7 30832.4 1281.22   3
  -1  -1   7 32269.6 1585.44   1
  -1  -1   7 28170.5 1452.65   6
  -1  -1   5 114096. 3330.44   6
   1   1  -5 119218. 3247.67   1
  -1  -1   5 114636. 3071.75   3
   1   1  -5 115463. 3149.91   7
  -1  -1   5 119009. 3460.98   1
   1   1  -5 114379. 3255.90   6
   1   1  -5 112142. 2999.19   3
  -1  -1   3 3300.69 335.680   1
  -1  -1   3 3592.10 234.681   3
   1   1  -3 3846.60 336.019   1
  -1  -1   3 3439.00 279.676   7
  -1  -1   3 3016.86 256.627   6
   1   1  -3 3603.34 302.698   7
   1   1  -3 3534.84 214.904   3
  -1  -1   1 303258. 7226.30   7
  -1  -1   1 304725. 7031.89   8
  -1  -1   1 319050. 7218.05   4
   1   1  -1 295710. 7234.41   7
   1   1  -1 319619. 7034.20   8
  -1  -1  -1 562104. 13145.1   6
   1   1   1 569216. 13208.8   3
  -1  -1  -1 606020. 13221.8   7
  -1  -1  -3 289298. 7407.93   5
  -1  -1  -3 302794. 7395.85   3
  -1  -1  -5 53966.8 1585.76   1
   1   1   5 52775.2 1585.54   1
   1   1   5 49972.7 1892.71   6
   1   1   5 53766.5 1834.83   3
  -1  -1  -5 54168.7 1792.30   3
  -1  -1  -7 143726. 3611.55   1
  -1  -1  -7 132482. 3908.39   3
   1   1   7 132238. 3685.44   1
   1   1   7 127929. 4128.67   6
  -1  -1  -9 950.843 204.104   1
  -1  -1  -9 519.821 209.973   6
   1   1   9 653.076 315.222   6
  -1  -1  -9 592.535 231.849   3
  -1  -1  -9 626.105 102.785   7
   1   1   9 556.774 190.881   3
   1   1   9 559.322 183.544   1
   1   1  11 5527.68 840.794   6
   1   1  11 5057.24 621.280   1
  -1  -1 -11 6313.84 542.239   1
  -1  -1 -13 3506.34 453.646   1
   1   1  13 3856.23 802.657   6
   1   1  15 1058.87 523.117   6
  -1  -1 -15 345.561 156.405   1
   1   2 -13 783.687 245.534   1
  -1  -2  13 1314.48 476.192   6
   1   2 -11 3647.01 457.103   1
  -1  -2  11 3049.42 611.174   6
   1   2 -11 3927.81 496.365   3
  -1  -2   9 1760.23 387.154   6
   1   2  -9 1701.41 302.732   1
   1   2  -9 2017.15 323.812   3
   1   2  -7 18299.1 907.793   7
  -1  -2   7 17780.7 961.198   3
   1   2  -7 18265.7 895.098   3
  -1  -2   7 16973.6 1073.55   6
   1   2  -7 18979.4 991.936   1
   1   2  -5 27124.3 1023.63   3
   1   2  -5 26786.8 1176.74   1
   1   2  -5 25950.8 1077.70   7
  -1  -2   5 26386.6 1060.23   7
  -1  -2   5 25638.8 1148.04   6
  -1  -2   5 24375.1 1041.37   3
   1   2  -3 139361. 3768.56   7
  -1  -2   3 146801. 3786.20   7
   1   2  -3 152183. 3945.36   1
  -1  -2   3 143042. 3673.22   6
  -1  -2   3 136672. 3707.99   8
   1   2  -3 148689. 3644.44   3
  -1  -2   1 19430.8 755.123   8
  -1  -2   1 19786.6 823.001   7
  -1  -2   1 19154.8 727.468   4
   1   2  -1 19741.5 753.287   8
   1   2   1 457710. 10047.9   5
  -1  -2  -1 472360. 10070.6   5
  -1  -2  -3 147492. 3595.34   6
   1   2   3 164679. 3789.63   6
   1   2   5 59210.1 1723.85   1
  -1  -2  -5 59847.6 1854.90   1
   1   2   7 30193.5 1220.09   1
  -1  -2  -7 29563.9 1210.32   1
   1   2   7 27335.5 1577.85   6
  -1  -2  -9 45925.4 1697.46   1
   1   2   9 40014.3 2229.04   6
   1   2   9 42330.7 1973.40   3
   1   2   9 44179.4 1788.66   1
  -1  -2  -9 42754.5 2064.36   6
   1   2  11 8130.66 777.269   1
   1   2  11 8004.48 1059.07   6
  -1  -2 -11 9404.52 710.485   1
   1   2  13 1748.35 641.130   6
  -1  -2 -13 1922.15 354.746   1
  -1  -2 -15 215.758 127.561   1
   1   2  15 249.792 355.917   6
  -1  -3  13 368.660 325.047   6
   1   3 -13-32.3491 109.873   1
   1   3 -11 1703.97 326.009   1
   1   3 -11 1406.98 296.160   3
  -1  -3  11 1093.77 364.657   6
   1   3  -9 9830.74 755.499   1
   1   3  -9 9951.63 731.614   3
  -1  -3   9 10215.8 953.016   6
  -1  -3   9 8715.97 781.053   3
  -1  -3   7 35.2843 135.392   6
   1   3  -7-191.505 171.942   1
   1   3  -7-5.89176 93.6956   3
  -1  -3   5 35913.0 1387.35   7
   1   3  -5 34600.3 1349.62   3
   1   3  -5 37235.5 1527.79   1
   1   3  -5 33550.6 1671.80   2
  -1  -3   5 35665.8 1423.37   6
  -1  -3   5 33836.4 1462.81   8
  -1  -3   3 62918.5 2028.78   7
   1   3  -3 57219.9 2130.00   2
  -1  -3   3 64752.0 2055.61   8
   1   3  -3 62536.5 1945.58   3
   1   3  -1 186109. 4882.36   2
  -1  -3   1 195809. 4674.30   4
  -1  -3   1 194708. 4952.74   7
  -1  -3   1 184721. 4899.85   8
   1   3  -1 194053. 4958.50   5
   1   3  -1 196453. 4918.08   8
  -1  -3  -1 51554.5 1741.30   8
   1   3   1 48879.1 1400.84   4
  -1  -3  -1 50736.9 1453.02   2
   1   3   1 48569.1 1412.06   2
  -1  -3  -1 49766.2 1630.49   5
   1   3   1 52663.3 1719.22   8
   1   3   1 50910.8 1609.53   5
  -1  -3  -3 5241.58 496.101   6
  -1  -3  -3 3345.39 357.471   5
   1   3   3 3983.05 358.634   5
   1   3   3 4948.95 494.580   6
   1   3   5 33310.9 1160.24   1
  -1  -3  -5 34243.3 1504.65   5
  -1  -3  -7 114141. 3471.21   1
   1   3   7 112237. 3999.94   6
   1   3   7 118729. 3319.78   1
   1   3   7 121580. 3781.69   3
   1   3   9 27965.0 1354.78   1
   1   3   9 27000.1 1549.69   3
  -1  -3  -9 29653.9 1372.88   1
  -1  -3  -9 27056.1 1626.86   6
   1   3   9 28830.5 1836.47   6
  -1  -3 -11 2531.94 393.966   1
   1   3  11 2954.19 698.690   6
  -1  -3 -13 1405.06 326.930   1
   1   3  13 1539.00 602.051   6
  -1  -3 -15 465.409 199.984   1
   1   3  15 428.622 381.747   6
   1   4 -11 2070.10 377.453   1
  -1  -4  11 1504.27 411.896   6
   1   4 -11 2079.02 377.569   3
  -1  -4   9 2282.89 443.660   6
   1   4  -9 2131.44 363.018   3
  -1  -4   9 1967.35 423.621   8
   1   4  -9 1786.16 321.774   1
   1   4  -7 9406.28 752.398   1
  -1  -4   7 7715.14 619.630   7
  -1  -4   7 7130.60 736.025   8
  -1  -4   7 7708.05 712.478   6
   1   4  -7 8754.54 691.995   3
   1   4  -5 17674.6 1207.96   2
  -1  -4   5 19236.3 1020.73   7
   1   4  -5 20443.9 1140.65   1
   1   4  -5 19834.6 1048.89   3
  -1  -4   5 18946.4 1038.03   6
  -1  -4   3 48043.3 1809.01   7
  -1  -4   3 48020.0 1845.09   8
   1   4  -3 50771.4 1805.54   3
   1   4  -3 48574.5 1955.78   2
  -1  -4   1 30862.2 999.625   4
  -1  -4   1 30530.5 1307.84   8
   1   4  -1 30216.4 1251.35   2
  -1  -4   1 29076.8 1244.48   2
   1   4  -1 31323.4 1313.89   8
   1   4  -1 30371.2 1260.24   5
   1   4   1 33659.0 1298.30   5
   1   4   1 35489.8 1058.98   4
   1   4   1 34733.9 1211.49   2
   1   4   1 37392.2 1490.51   8
  -1  -4  -1 35391.6 1258.90   2
  -1  -4  -1 36967.8 1385.45   5
  -1  -4  -3 207997. 5341.77   6
  -1  -4  -3 176018. 5014.77   5
   1   4   3 209083. 5299.65   8
   1   4   3 174668. 4810.92   5
  -1  -4  -5 40265.6 1731.49   5
   1   4   5 38845.8 1903.37   6
   1   4   7 8834.06 795.209   3
   1   4   7 7697.54 863.571   6
   1   4   7 8020.73 579.919   1
  -1  -4  -7 7931.18 797.000   5
   1   4   9 4734.47 517.518   1
  -1  -4  -9 3685.70 496.499   1
   1   4   9 3708.56 687.684   6
   1   4   9 5549.71 678.514   3
   1   4  11 4256.83 825.760   6
  -1  -4 -11 4214.65 560.006   1
  -1  -4 -13 3127.90 521.670   1
   1   4  13 4739.30 957.236   6
  -1  -4 -15 258.502 171.055   1
   1   5 -11 864.870 256.196   1
  -1  -5  11 14.4721 169.996   6
   1   5  -9 8469.60 771.931   1
  -1  -5   9 7946.70 848.086   6
   1   5  -9 8947.91 787.499   3
  -1  -5   7 8061.14 848.954   8
  -1  -5   7 7609.03 662.073   7
   1   5  -7 7426.85 706.651   3
   1   5  -7 8033.25 748.418   1
  -1  -5   7 6797.05 684.614   6
  -1  -5   5 2810.48 463.316   8
  -1  -5   5 2809.55 406.268   7
   1   5  -5 2883.48 493.207   2
   1   5  -5 2687.53 400.710   3
   1   5  -5 2574.73 413.546   1
   1   5  -3 3658.59 483.959   2
  -1  -5   3 3170.06 426.595   7
  -1  -5   3 3694.09 350.248   4
  -1  -5   3 3769.15 481.160   8
   1   5  -3 3542.73 442.924   3
   1   5  -1 83949.0 2678.17   2
  -1  -5   1 82677.4 2161.52   4
   1   5  -1 82885.1 2621.91   5
   1   5  -1 85812.5 2813.46   8
  -1  -5   1 79090.5 2667.35   2
   1   5   1 168577. 4002.17   4
  -1  -5  -1 173382. 4554.87   2
   1   5   1 168982. 4810.40   8
  -1  -5  -1 165411. 4593.32   5
   1   5   1 166376. 4486.05   5
  -1  -5  -3 62861.0 1986.50   2
  -1  -5  -3 58411.1 2176.06   5
   1   5   3 67220.8 2387.24   8
   1   5   3 54411.7 1925.65   5
  -1  -5  -5 1953.66 357.456   5
   1   5   5 2525.88 462.450   8
  -1  -5  -5 1800.44 386.643   6
   1   5   7 8077.87 606.977   1
  -1  -5  -7 8081.56 830.673   5
  -1  -5  -7 6846.31 809.562   6
   1   5   7 9506.43 932.632   8
   1   5   7 7369.82 899.330   6
   1   5   9 10250.2 1149.59   6
  -1  -5  -9 12122.0 1125.72   5
  -1  -5 -11 7495.58 936.286   5
   1   5  11 6686.42 1018.26   6
   1   5  13 689.759 419.135   6
  -1  -5 -13 1675.59 500.653   5
   1   6  -9 1176.12 308.876   1
   1   6  -9 1538.47 369.950   3
  -1  -6   9 1421.12 380.185   6
   1   6  -7 7212.45 758.523   1
  -1  -6   7 6970.18 733.589   6
  -1  -6   7 6475.11 660.867   7
   1   6  -7 6904.83 720.994   3
   1   6  -5 6386.25 699.263   1
  -1  -6   5 5199.02 529.458   4
  -1  -6   5 5505.36 618.892   7
  -1  -6   5 5397.90 683.396   8
   1   6  -5 5381.74 630.175   3
   1   6  -5 5945.83 658.373   5
   1   6  -3 18963.7 1233.01   2
  -1  -6   3 20970.8 1244.29   7
  -1  -6   3 19175.8 859.476   4
  -1  -6   3 20883.6 1331.37   8
   1   6  -3 20849.3 1236.28   3
   1   6  -1 5917.28 538.490   5
  -1  -6   1 5680.28 635.141   8
   1   6  -1 6014.98 592.752   2
  -1  -6   1 6134.32 623.487   2
   1   6  -1 6121.92 652.637   8
  -1  -6  -1 50112.8 1909.73   5
  -1  -6  -1 50161.1 1911.95   2
  -1  -6  -1 47560.2 2081.93   8
   1   6   1 44793.3 1715.52   5
   1   6   1 49126.3 2103.12   8
   1   6   3 19019.7 1008.95   1
  -1  -6  -3 19137.5 1129.69   5
  -1  -6  -3 19684.3 1053.19   2
   1   6   3 22560.7 1347.59   8
  -1  -6  -3 22431.0 1357.22   6
   1   6   5 24626.8 1128.18   1
   1   6   5 24792.4 1489.85   8
  -1  -6  -5 21771.3 1485.85   6
  -1  -6  -5 23459.1 1404.26   5
  -1  -6  -7 27646.4 1678.42   5
   1   6   7 29032.1 1732.30   8
  -1  -6  -9 9199.87 998.431   5
   1   6   9 11980.5 1188.51   8
  -1  -6 -11 935.208 383.102   5
   1   6  11 448.081 382.471   6
   1   6  11 1372.55 446.230   8
   1   6  13 943.220 424.162   8
  -1  -6 -13 1719.14 518.964   5
   1   6  13 357.565 346.638   6
   1   6  15 571.445 386.753   8
   1   7  -9 871.591 285.296   1
   1   7  -9 1048.85 311.127   3
  -1  -7   9 922.272 314.388   6
  -1  -7   7 2755.14 444.210   4
  -1  -7   7 3481.93 513.965   7
  -1  -7   7 2826.81 491.993   6
   1   7  -7 2261.87 441.047   3
   1   7  -7 3324.59 545.365   1
   1   7  -5 13514.2 1061.43   5
   1   7  -5 15439.3 1177.22   3
  -1  -7   5 15315.2 886.304   4
  -1  -7   5 15594.6 1142.87   7
   1   7  -3 959.973 254.800   5
   1   7  -3 678.030 278.162   3
   1   7  -3 849.760 274.491   2
  -1  -7   3 489.525 229.514   7
  -1  -7   3 500.942 110.031   4
  -1  -7   1 10072.7 932.908   8
  -1  -7   1 9266.05 857.126   2
   1   7  -1 9999.57 921.750   8
   1   7  -1 9558.86 813.259   2
  -1  -7  -1 5934.34 603.393   5
  -1  -7  -1 6129.06 648.711   2
  -1  -7  -1 5743.94 688.652   8
   1   7   1 6570.93 759.223   8
   1   7   3 19345.4 1315.52   8
   1   7   3 17250.1 684.673   4
  -1  -7  -3 21324.1 1392.84   6
  -1  -7  -3 18107.7 1105.22   2
   1   7   3 16315.6 980.343   1
  -1  -7  -3 17380.3 1123.82   5
   1   7   3 18180.7 974.450   5
  -1  -7  -5 22687.4 1442.09   5
  -1  -7  -5 23808.8 1304.35   2
   1   7   5 26683.7 1618.66   8
  -1  -7  -5 19918.3 1507.55   6
  -1  -7  -7 6284.65 790.058   5
   1   7   7 8272.28 922.672   8
   1   7   9 4036.91 709.615   8
  -1  -7  -9 2222.05 523.931   5
   1   7  11 1989.17 523.635   8
  -1  -7 -11 1397.22 437.691   5
  -1  -7 -13 1645.76 489.151   5
   1   7  13 1412.26 491.384   8
   1   8  -7 1697.54 424.697   1
   1   8  -7 1421.50 396.750   3
  -1  -8   7 1397.43 370.858   6
  -1  -8   7 1634.31 375.066   7
   1   8  -5 4031.45 627.906   3
  -1  -8   5 2417.19 486.022   7
   1   8  -3 9810.93 828.218   5
   1   8  -3 11997.1 1075.00   3
  -1  -8   3 11320.9 1045.71   7
  -1  -8   1 1579.26 384.087   2
   1   8  -1 2639.02 394.874   5
   1   8  -1 2040.74 399.886   2
   1   8  -1 2433.61 497.698   8
   1   8   1 5639.85 743.744   8
  -1  -8  -1 6931.67 753.404   2
   1   8   1 6002.64 554.507   5
  -1  -8  -3 21461.4 1342.88   5
   1   8   3 22862.4 1559.04   8
  -1  -8  -3 25564.2 1440.23   2
  -1  -8  -5 356.359 275.425   5
  -1  -8  -5 34.0071 140.259   2
  -1  -8  -7 1802.44 447.751   5
   1   8   7 2575.28 546.104   8
  -1  -8  -9 3640.94 679.099   5
   1   8   9 4911.50 795.027   8
  -1  -8 -11 1169.99 411.525   5
   1   8  11 1058.64 393.360   8
   1   8  13-85.3329 220.051   8
  -1  -8 -13 665.082 366.157   5
  -1  -9   7 101.217 124.260   6
   1   9  -7 387.581 239.934   1
   1   9  -7 17.8065 167.821   3
  -1  -9   5 1915.23 464.203   7
   1   9  -5 2082.72 500.826   3
  -1  -9   3 4192.21 690.890   7
   1   9  -3 4124.43 680.986   3
   1   9  -1 3554.22 643.103   3
   1   9  -1 2924.67 414.536   5
  -1  -9   1 3476.53 612.073   2
  -1  -9  -1 16157.4 1270.20   2
   1   9   1 16833.2 1393.93   8
   1   9   1 14286.6 910.939   5
   1   9   3 1248.37 418.529   8
  -1  -9  -3 867.596 310.645   2
  -1  -9  -3 459.845 236.502   5
  -1  -9  -5 3687.86 579.254   2
  -1  -9  -5 3689.57 595.354   5
   1   9   5 4514.79 734.271   8
   1   9   7 2192.35 571.576   8
  -1  -9  -7 1577.30 438.065   5
  -1  -9  -7 1475.59 378.378   2
  -1  -9  -9 1510.79 478.776   5
   1   9   9 2232.93 581.539   8
   1   9  11 814.468 402.625   8
  -1  -9 -11 405.684 298.670   5
  -1 -10   5 348.033 230.678   7
   1  10  -5 533.695 280.906   3
   1  10  -3 1477.34 452.101   3
  -1 -10   3 1054.03 380.862   7
   1  10  -1 4732.35 781.975   3
  -1 -10   1 4566.15 750.261   2
   1  10   1 461.339 307.604   8
  -1 -10  -1 286.195 282.071   2
  -1 -10  -3 11138.7 1021.20   5
   1  10   3 13169.2 1337.42   8
  -1 -10  -3 13430.5 1215.76   2
  -1 -10  -5 3082.49 583.192   5
   1  10   5 3572.73 694.409   8
  -1 -10  -5 1968.57 451.599   2
  -1 -10  -7 994.333 329.173   2
  -1 -10  -7 1028.57 371.188   5
   1  10   9 1561.85 516.889   8
  -1 -10  -9 891.093 340.428   2
  -1 -10  -9 734.696 393.992   5
  -1 -10 -11-220.343 234.605   5
   1  11  -3 1104.11 419.484   3
  -1 -11   3 1072.68 435.203   7
  -1 -11   1 183.483 226.111   2
   1  11  -1 72.1586 192.152   3
   1  11   1 1623.59 531.053   8
  -1 -11  -1 1682.48 485.131   2
   1  11   3 1883.21 566.262   8
  -1 -11  -3 2447.40 552.228   2
  -1 -11  -5 1340.30 401.563   2
   1  11   5 1486.12 492.490   8
  -1 -11  -5 1164.13 379.891   5
  -1 -11  -7 357.275 315.312   5
  -1 -11  -7 838.980 340.760   2
   1  11   7 1082.56 452.458   8
  -1 -11  -9 169.724 183.269   5
  -1 -11 -11 40.7524 205.782   5
   2 -11  -6 317.534 190.390   2
   2 -11  -4 345.367 195.377   2
   2 -11  -2 1153.41 478.207   2
   2 -11   0 385.381 312.646   2
  -2  10  10 539.136 397.160   8
  -2  10   8 359.174 300.511   8
   2 -10  -8-81.5541 218.930   2
  -2  10   6 1258.53 441.546   8
   2 -10  -6 914.222 394.742   2
  -2  10   4 4183.41 789.813   8
   2 -10  -4 4690.08 868.637   2
   2 -10  -2 1150.60 464.562   2
  -2  10   2 1334.01 459.362   3
  -2  10   0 2252.33 584.031   3
   2 -10   0 2086.33 580.432   2
  -2  10  -2 1981.63 554.889   3
   2 -10   2 1876.54 556.378   2
   2 -10   4 191.739 223.680   2
  -2  10  -4 647.298 379.079   3
  -2   9  12-134.259 225.065   8
   2  -9 -12-23.7299 200.708   5
  -2   9  10 583.858 349.769   8
   2  -9 -10 375.045 225.202   5
  -2   9  10 1015.24 363.425   4
  -2   9   8 1465.55 478.720   8
   2  -9  -8 1418.25 381.725   5
  -2   9   8 1069.78 330.224   4
  -2   9   6 2938.09 627.852   8
   2  -9  -6 2195.70 569.013   2
   2  -9  -6 3117.02 496.813   5
  -2   9   6 2638.50 423.626   4
  -2   9   4 740.441 314.103   8
   2  -9  -4 786.017 221.363   5
   2  -9  -4 808.687 353.018   2
  -2   9   2 4150.94 733.957   3
   2  -9  -2 3483.67 699.088   2
   2  -9   0 9664.14 1137.32   2
  -2   9   0 9039.95 1071.08   3
   2  -9   2 10836.3 1246.50   2
  -2   9  -2 8913.53 1090.34   3
  -2   9  -4 903.773 326.968   3
   2  -9   4 837.612 407.251   2
   2  -9   6 2090.34 604.244   2
  -2   9  -6 1026.56 397.373   3
  -2   8  12 402.101 262.618   8
  -2   8  12 460.164 344.286   4
   2  -8 -12 564.040 324.437   5
   2  -8 -10 1335.64 381.685   5
  -2   8  10 1363.80 441.037   8
   2  -8 -10 574.327 247.320   1
  -2   8  10 704.248 337.262   4
   2  -8  -8 1429.31 364.395   5
  -2   8   8 1348.12 370.285   4
  -2   8   8 1337.02 407.446   8
  -2   8   6 767.488 323.051   8
   2  -8  -6 290.898 173.696   5
  -2   8   6 445.169 179.589   4
   2  -8  -4 5995.64 586.584   5
  -2   8   4 5240.77 511.823   4
   2  -8  -4 5965.46 842.399   2
  -2   8   4 4992.91 729.903   8
   2  -8  -2 8553.17 1012.31   2
  -2   8   2 8448.16 966.111   8
   2  -8  -2 8232.49 509.436   5
  -2   8   0 10558.5 710.488   1
  -2   8   0 9071.36 1020.11   3
   2  -8   0 10667.4 1133.21   2
  -2   8  -2 4654.82 434.067   1
   2  -8   2 5612.99 836.066   2
  -2   8  -2 4640.11 731.109   3
   2  -8   4 9952.61 1171.01   2
  -2   8  -4 10141.0 1103.98   3
  -2   8  -6 4458.01 751.170   3
   2  -8   6 4225.42 817.166   2
  -2   8  -8 2515.34 587.834   3
  -2   7  12 164.191 190.936   8
   2  -7 -10 823.297 273.427   1
  -2   7  10 1001.94 340.739   8
  -2   7   8 2008.75 505.818   8
  -2   7   8 1408.71 384.974   4
   2  -7  -8 1243.51 315.374   1
   2  -7  -6 7536.57 711.371   5
  -2   7   6 7036.73 708.287   4
  -2   7   6 7238.08 862.028   8
   2  -7  -6 6358.02 703.061   1
  -2   7   4 14366.8 1165.83   8
  -2   7   4 13176.6 876.217   4
   2  -7  -4 12448.0 1168.65   2
   2  -7  -4 13565.6 869.819   5
   2  -7  -2 2038.65 250.037   5
  -2   7   2 2594.93 500.399   8
  -2   7   2 2685.91 362.122   1
  -2   7   2 2451.45 285.176   4
   2  -7  -2 2369.69 515.859   2
  -2   7   0 400.549 163.292   1
   2  -7   0 162.589 193.396   2
  -2   7   0 384.056 259.039   3
   2  -7   2 24858.9 1692.64   2
  -2   7  -2 22947.3 1016.13   1
  -2   7  -2 26005.2 1668.49   3
  -2   7  -4 3314.91 586.451   3
   2  -7   4 3854.21 347.140   4
   2  -7   4 3887.72 680.950   2
  -2   7  -6 4926.54 493.517   1
   2  -7   6 6217.79 898.910   2
  -2   7  -6 4240.29 695.960   3
  -2   7  -8 6894.12 912.435   3
  -2   7 -10 140.452 214.810   3
   2  -7  10 584.106 321.554   6
   2  -6 -12 339.592 184.655   1
  -2   6  12 284.035 207.892   8
   2  -6 -10 1630.36 353.902   1
  -2   6  10 2557.03 502.111   8
   2  -6  -8 7659.83 710.063   1
  -2   6   8 7840.52 839.094   8
   2  -6  -6 7537.72 677.001   1
  -2   6   6 7713.72 763.056   4
  -2   6   6 9075.17 862.063   8
   2  -6  -4 9311.67 765.802   1
  -2   6   4 10768.7 809.083   1
  -2   6   4 9136.93 717.702   4
   2  -6  -4 9358.60 865.465   8
  -2   6   4 9708.89 872.444   8
   2  -6  -2 4020.44 338.891   5
  -2   6   2 3894.93 431.987   1
   2  -6  -2 3470.37 503.537   8
  -2   6   2 3430.07 373.834   4
  -2   6   2 2780.78 472.212   8
   2  -6  -2 4015.65 597.794   2
   2  -6   0 23070.3 1370.78   8
   2  -6   0 23165.1 1492.70   2
  -2   6   0 25143.7 1470.79   3
  -2   6  -2 7811.16 798.225   2
   2  -6   2 7053.99 441.619   4
  -2   6  -2 7129.55 466.097   1
   2  -6   2 6583.63 787.203   2
  -2   6  -2 6380.05 741.428   3
   2  -6   4 9627.55 629.340   4
   2  -6   4 9084.76 974.060   2
  -2   6  -4 10206.1 969.728   3
  -2   6  -4 9473.80 531.823   1
  -2   6  -6 3002.53 539.323   3
   2  -6   6 3197.31 627.148   2
  -2   6  -6 2848.34 281.334   1
  -2   6  -6 2666.86 318.035   1
  -2   6  -8 579.884 300.699   3
   2  -6   8 1079.46 223.646   7
  -2   6 -10 3947.90 716.338   3
   2  -6  10 5321.55 829.312   6
  -2   6 -12 719.318 309.520   3
  -2   5  12 1189.03 354.837   8
   2  -5 -12 1442.16 335.507   1
   2  -5 -10 4042.12 510.492   1
  -2   5  10 4667.31 626.961   8
   2  -5  -8 10082.1 771.188   1
  -2   5   8 12417.4 991.866   8
   2  -5  -6 2728.62 546.866   6
  -2   5   6 4466.47 552.156   8
   2  -5  -6 3703.33 424.314   1
  -2   5   4 25788.8 1385.17   8
  -2   5   4 26173.5 1335.54   1
  -2   5   4 23441.7 1214.99   4
   2  -5  -4 24597.4 1154.24   1
   2  -5  -4 24832.1 1363.64   8
   2  -5  -2 101435. 2714.88   5
   2  -5  -2 95756.7 3416.65   2
  -2   5   2 97768.2 2930.87   4
  -2   5   2 97658.0 3265.77   8
   2  -5  -2 92847.3 3138.25   8
   2  -5  -2 100149. 3000.20   1
   2  -5   0 20705.0 1263.37   2
  -2   5   0 18392.0 845.668   1
   2  -5   0 17949.7 758.351   4
  -2   5   0 19521.4 1199.95   3
   2  -5   0 19708.3 1153.24   8
   2  -5   2 62148.0 1958.02   4
   2  -5   2 66149.7 2564.92   8
  -2   5  -2 67725.3 2572.83   2
   2  -5   2 65146.4 2641.14   2
  -2   5  -2 66203.3 2566.39   3
  -2   5  -2 66136.3 1893.72   1
  -2   5  -4 18470.7 741.582   1
   2  -5   4 20635.4 1335.52   8
  -2   5  -4 20179.8 1332.96   2
  -2   5  -4 18170.6 1236.62   3
   2  -5   4 18117.3 1336.08   2
  -2   5  -4 19849.4 672.360   5
  -2   5  -6 6384.77 758.782   3
  -2   5  -6 5629.85 411.201   1
  -2   5  -8 14594.7 1207.97   3
   2  -5   8 14196.8 741.621   7
  -2   5  -8 13960.8 614.727   1
  -2   5 -10 1761.07 441.935   3
   2  -5  10 2597.18 576.800   6
  -2   5 -12 226.239 250.220   3
   2  -5  12 464.435 323.540   6
  -2   4  12 1098.10 316.149   8
   2  -4 -12 1430.50 311.883   1
   2  -4 -10 4008.41 485.318   1
  -2   4  10 3863.63 539.932   8
  -2   4  10 3337.23 503.861   3
   2  -4  -8 5304.64 522.857   1
  -2   4   8 5331.97 594.533   8
   2  -4  -6 24486.7 1143.46   1
   2  -4  -6 22888.8 1586.98   6
  -2   4   6 28040.0 1346.73   8
  -2   4   6 25483.3 1450.98   1
   2  -4  -4 86127.1 2846.81   8
  -2   4   4 87620.9 2791.53   8
  -2   4   4 80447.4 2766.60   4
  -2   4   4 83044.2 2842.21   1
   2  -4  -4 86179.4 2544.62   1
   2  -4  -4 85042.5 3175.16   6
   2  -4  -2 100789. 3162.63   8
   2  -4  -2 107382. 2961.05   1
  -2   4   2 104600. 3082.42   4
  -2   4   2 109193. 3288.19   8
   2  -4   0 21864.9 1229.30   2
   2  -4   0 22221.1 1144.07   8
  -2   4   0 21127.2 899.912   1
  -2   4   0 21585.3 914.481   4
   2  -4   0 21532.0 886.176   4
  -2   4   0 22565.9 1183.37   3
  -2   4  -2 73213.2 1975.40   1
   2  -4   2 69588.3 2153.97   4
   2  -4   2 71001.9 2644.52   2
  -2   4  -2 74641.9 2593.83   3
   2  -4   4 88974.0 3097.76   3
   2  -4   4 92598.6 3259.11   2
  -2   4  -4 87669.6 2264.70   1
  -2   4  -4 89773.2 3102.12   3
  -2   4  -6 82954.3 2271.33   1
  -2   4  -6 89957.8 3206.77   3
   2  -4   6 92882.2 3304.66   3
  -2   4  -8 816.755 292.536   3
   2  -4   8 566.394 114.942   7
   2  -4   8 546.960 271.676   6
  -2   4  -8 720.801 126.431   1
   2  -4  10 5761.58 803.751   6
  -2   4 -10 4969.08 689.952   3
  -2   4 -12 1218.96 383.870   3
   2  -4  12 742.886 372.236   6
  -2   4 -14 337.383 252.164   3
   2  -3 -14 947.569 299.945   1
  -2   3  12 321.215 213.509   8
   2  -3 -12 261.998 161.313   1
  -2   3  10 14.6202 98.6651   3
  -2   3  10 334.094 245.199   8
   2  -3 -10-22.9371 149.055   1
   2  -3  -8 38124.4 1561.26   1
  -2   3   8 41200.6 1707.35   8
   2  -3  -6 27695.1 1205.64   1
  -2   3   6 30626.8 1313.51   8
   2  -3  -6 26134.7 1591.52   6
   2  -3  -4 11945.6 662.220   1
  -2   3   4 11326.0 802.009   4
   2  -3  -4 10738.5 877.282   6
  -2   3   4 11954.1 716.683   8
   2  -3  -2 9019.86 590.190   8
   2  -3  -2 9481.19 525.980   1
  -2   3   2 9922.28 642.578   1
  -2   3   2 9621.22 630.980   4
  -2   3   2 10086.2 643.226   8
   2  -3   0 100017. 3099.94   2
  -2   3   0 97351.1 2735.56   1
  -2   3   0 100211. 2804.62   4
   2  -3   0 99128.1 2782.22   4
   2  -3   0 99438.2 2957.26   8
   2  -3   0 105389. 2647.92   1
  -2   3   0 97620.6 2996.18   3
  -2   3  -2 116701. 2975.23   1
   2  -3   2 123209. 3305.15   4
  -2   3  -2 126946. 3611.47   3
   2  -3   2 122093. 3660.90   2
   2  -3   4 487935. 12403.5   2
  -2   3  -4 505139. 12253.0   3
  -2   3  -6 3247.52 482.111   3
   2  -3   6 3784.02 556.072   2
  -2   3  -6 3698.10 548.472   2
  -2   3  -6 3340.74 199.280   1
   2  -3   6 3819.16 530.608   3
  -2   3  -8 14687.7 1078.13   3
   2  -3   8 15309.2 1176.12   6
  -2   3 -10 12675.9 1053.89   3
   2  -3  10 11866.6 1137.51   6
  -2   3 -12 1488.24 405.166   3
   2  -3  12 2163.36 564.419   6
  -2   3 -14 323.365 230.615   3
   2  -2 -14 147.543 173.603   1
  -2   2  14 482.593 374.334   6
  -2   2  12 1013.43 324.768   8
  -2   2  12 510.795 349.831   6
   2  -2 -12 624.700 226.960   1
   2  -2 -10 6499.29 613.383   1
  -2   2  10 7356.44 994.429   6
  -2   2  10 7427.11 711.225   8
  -2   2   8 1366.10 297.136   8
   2  -2  -8 1292.08 276.299   1
  -2   2   8 1579.61 276.038   3
  -2   2   8 1699.76 437.124   6
   2  -2  -8 1346.42 340.584   6
   2  -2  -6 4924.07 467.647   1
   2  -2  -6 4631.29 581.195   6
  -2   2   6 5248.23 445.576   8
   2  -2  -4 5510.55 438.695   1
  -2   2   4 5170.06 388.889   8
   2  -2  -4 4824.83 561.888   6
   2  -2  -2 218162. 5401.11   8
   2  -2  -2 212947. 5385.34   1
  -2   2   2 224295. 5656.94   4
  -2   2   2 228389. 5448.83   8
  -2   2   2 215622. 5553.82   1
  -2   2   0 93603.3 2448.81   1
   2  -2   0 88483.4 2334.17   1
  -2   2   0 92113.3 2621.90   4
   2  -2   0 93740.0 2614.68   4
  -2   2   0 94608.5 2656.85   3
   2  -2   0 88700.9 2573.56   8
  -2   2  -2 94.8955 91.4886   3
  -2   2  -2 283.878 60.3784   1
  -2   2  -2 174.031 53.0327   5
   2  -2   2 250.228 109.908   4
  -2   2  -4 25227.0 1245.99   3
   2  -2   4 24731.9 1282.34   2
  -2   2  -6 218823. 5700.03   2
   2  -2   6 211602. 5542.96   3
   2  -2   6 209925. 5611.00   6
  -2   2  -6 209346. 5424.93   3
   2  -2   8 22450.4 1372.74   3
  -2   2  -8 20622.2 1435.19   2
   2  -2   8 22924.8 1394.06   6
  -2   2  -8 20905.2 1244.27   3
  -2   2 -10 6034.23 418.274   1
  -2   2 -10 6748.89 744.804   3
   2  -2  12 5917.87 913.191   6
  -2   2 -12 6612.43 808.469   3
  -2   2 -14 78.0689 164.879   3
   2  -2  14-88.7459 265.558   6
   2  -1 -14 637.572 242.910   1
  -2   1  14 26.6037 279.413   6
   2  -1 -12 3793.42 502.550   1
  -2   1  12 4139.32 812.182   6
   2  -1 -10 380.247 209.797   1
  -2   1  10 336.096 160.349   3
   2  -1 -10 428.100 184.377   7
  -2   1  10 168.714 287.754   6
   2  -1  -8 10014.1 728.385   1
  -2   1   8 9790.01 939.123   1
  -2   1   8 10161.4 1011.49   6
   2  -1  -8 9430.10 851.882   6
  -2   1   8 9628.40 643.281   3
   2  -1  -6 61962.9 2022.50   1
  -2   1   6 60133.6 2339.95   1
  -2   1   6 56695.9 1785.90   3
  -2   1   6 61430.1 2420.76   6
   2  -1  -4 30480.0 1179.99   1
  -2   1   4 28960.8 936.909   8
   2  -1  -4 27100.7 1312.76   6
  -2   1   2 45797.1 1557.03   1
   2  -1  -2 44497.6 1271.18   8
   2  -1  -2 47889.5 1475.98   1
  -2   1   2 46517.2 1642.40   4
  -2   1   0 1073.14 197.624   4
   2  -1   0 1210.68 147.324   1
  -2   1   0 1197.55 153.299   1
   2  -1   0 1165.50 196.404   4
   2  -1   0 849.164 140.281   3
   2  -1   2 135.185 79.3675   3
   2  -1   2 397.574 88.9225   5
   2  -1   2 381.370 129.319   4
   2  -1   2 300.405 47.6437   1
   2  -1   2 238.740 108.911   2
  -2   1  -2 328.983 114.213   2
  -2   1  -2 238.369 99.2823   3
   2  -1   4 42620.6 1688.10   2
  -2   1  -4 41889.8 1674.22   2
  -2   1  -4 46195.9 1705.50   3
   2  -1   6 96362.7 2445.32   1
  -2   1  -6 91807.3 2368.78   1
  -2   1  -6 109486. 3141.53   3
   2  -1   6 107878. 3268.66   6
   2  -1   8 6304.70 449.416   1
  -2   1  -8 7913.72 832.454   2
  -2   1  -8 6569.63 398.450   1
   2  -1   8 6620.55 701.463   3
   2  -1   8 8302.22 811.718   6
  -2   1  -8 7019.09 675.686   3
   2  -1  10 13036.6 791.525   1
  -2   1 -10 12996.5 1015.64   3
   2  -1  10 15312.6 1252.48   6
  -2   1 -12 1811.20 270.965   1
   2  -1  12 3172.55 676.522   6
  -2   1 -12 2694.39 516.877   3
   2  -1  14 716.980 384.815   6
  -2   1 -14 1174.80 377.793   3
  -2   0  14 187.913 258.409   6
   2   0 -14 422.061 224.563   1
   2   0 -12 1185.71 314.070   1
  -2   0  12 607.970 400.165   6
   2   0 -10 9907.03 835.690   7
   2   0 -10 10805.3 808.140   1
  -2   0  10 11358.5 1178.66   6
  -2   0  10 9211.68 703.218   3
   2   0 -10 9800.90 937.007   6
   2   0  -8 12749.5 833.326   1
  -2   0   8 10845.7 653.411   3
  -2   0   8 12082.1 1082.76   6
   2   0  -8 10714.5 848.976   6
  -2   0   8 11351.5 1018.55   1
   2   0  -6 18640.5 970.071   1
  -2   0   6 17802.7 726.544   3
  -2   0   6 17766.3 1138.08   6
   2   0  -6 17255.3 980.966   6
  -2   0   6 19497.0 1194.27   1
   2   0  -4 69222.0 2244.74   6
   2   0  -4 75783.4 2317.39   1
  -2   0   4 73988.1 1846.95   3
  -2   0   4 78917.1 2426.95   6
   2   0  -4 76103.5 2370.64   7
   2   0  -2 134.561 95.7743   1
   2   0  -2 198.729 98.4953   6
  -2   0   2 363.733 157.914   4
   2   0   0 289540. 6890.63   5
  -2   0   0 281609. 6648.49   3
  -2   0   0 280700. 6819.78   1
  -2   0   0 301727. 6982.51   4
   2   0   0 281429. 6661.32   3
   2   0   0 277225. 6774.90   1
  -2   0  -2 753.942 135.277   2
   2   0   2 1505.52 196.988   3
  -2   0  -2 1328.38 186.810   5
   2   0   2 894.669 143.395   5
  -2   0  -2 718.271 143.322   3
   2   0   2 1054.51 147.988   7
   2   0   2 681.131 128.303   2
  -2   0  -4 95657.1 2806.76   3
   2   0   4 92043.1 2747.95   2
  -2   0  -4 93096.0 2762.39   2
   2   0   4 97453.7 2858.44   6
   2   0   4 94159.4 2283.03   1
   2   0   4 95186.9 2403.82   7
  -2   0  -6 58729.8 2009.03   3
   2   0   6 60505.7 2138.01   6
  -2   0  -6 54142.1 2039.17   2
  -2   0  -8 7797.56 494.722   1
   2   0   8 7354.21 733.613   3
  -2   0  -8 8236.75 805.370   2
   2   0   8 7003.94 491.624   1
   2   0   8 8289.24 814.427   6
  -2   0  -8 7885.69 701.066   3
  -2   0 -10 266.190 119.799   1
   2   0  10 495.303 168.381   1
   2   0  10 90.2683 310.456   6
  -2   0 -10 244.937 154.496   3
  -2   0 -12 5813.44 539.062   1
   2   0  12 8228.56 1037.41   6
  -2   0 -12 8975.65 898.797   3
   2   0  14 1697.25 559.193   6
   2   1 -14 93.3642 131.180   1
  -2  -1  12 3383.86 730.901   6
   2   1 -12 2386.27 420.337   1
   2   1 -10 3143.28 446.253   1
  -2  -1  10 2354.00 347.054   3
   2   1 -10 2377.38 393.045   7
  -2  -1  10 2439.59 535.911   6
  -2  -1   8 4622.58 650.707   1
   2   1  -8 5425.64 547.274   1
  -2  -1   8 5393.97 445.713   3
  -2  -1   8 4677.77 632.411   6
  -2  -1   6 94976.9 3315.49   1
  -2  -1   6 91249.7 3096.74   6
   2   1  -6 97556.4 2967.11   1
   2   1  -6 94952.5 2876.48   6
  -2  -1   6 92482.1 2517.69   3
  -2  -1   4 17612.4 616.233   8
   2   1  -4 17117.6 922.566   1
   2   1  -4 16082.5 881.872   7
   2   1  -4 16291.9 727.438   6
  -2  -1   4 15919.8 840.533   6
   2   1  -2 71936.6 2249.27   7
   2   1  -2 73050.3 1842.25   6
  -2  -1   2 76270.5 2322.84   4
   2   1  -2 76812.1 2312.79   1
   2   1   0 105122. 2957.88   4
  -2  -1   0 109177. 2907.40   7
  -2  -1   0 111149. 2970.37   4
   2   1   0 104105. 2642.40   3
  -2  -1  -2 286746. 6878.81   7
  -2  -1  -2 298330. 7019.59   5
   2   1   2 285848. 6959.00   5
  -2  -1  -2 285692. 6657.90   2
   2   1   2 290617. 6662.82   2
   2   1   2 281829. 6911.01   3
  -2  -1  -2 280824. 6889.29   3
   2   1   2 284279. 6843.28   6
   2   1   2 287428. 6896.98   7
  -2  -1  -4 36253.2 1392.78   6
  -2  -1  -4 38953.3 1448.75   5
  -2  -1  -4 36493.4 1158.76   7
  -2  -1  -4 35255.7 1258.19   2
  -2  -1  -4 35870.3 1384.34   3
   2   1   4 35429.4 1417.84   6
   2   1   4 37457.4 1092.73   1
   2   1   6 38575.1 1603.92   6
  -2  -1  -6 31473.7 1484.58   5
  -2  -1  -6 33873.9 1406.01   2
   2   1   6 28121.1 1001.33   1
  -2  -1  -6 28736.3 929.351   7
  -2  -1  -6 34174.3 1414.82   3
   2   1   8 25701.3 1497.62   6
  -2  -1  -8 20608.5 1280.13   2
   2   1   8 23452.2 1335.83   3
  -2  -1  -8 23073.1 1364.14   6
  -2  -1  -8 24072.7 1286.45   3
   2   1   8 22771.0 998.215   1
  -2  -1  -8 21819.9 1024.43   1
   2   1  10 10089.4 736.590   1
  -2  -1 -10 10655.0 1006.26   2
  -2  -1 -10 10422.8 718.714   1
  -2  -1 -10 12305.5 966.649   3
   2   1  10 10228.4 1050.76   6
   2   1  12 3174.01 657.652   6
  -2  -1 -12 1851.68 327.695   1
   2   1  12 3204.26 473.485   1
  -2  -1 -14 224.638 135.471   1
   2   1  14 598.990 414.726   6
   2   2 -14 74.6825 151.628   1
  -2  -2  12 697.589 331.502   6
   2   2 -12 229.977 180.147   1
  -2  -2  10 4267.64 700.005   6
   2   2 -10 5164.34 594.802   1
   2   2 -10 4735.60 543.241   7
   2   2  -8 8164.64 534.905   3
  -2  -2   8 8550.79 686.517   8
  -2  -2   8 7238.29 758.965   6
   2   2  -8 7790.27 695.253   1
   2   2  -8 7471.09 670.297   7
  -2  -2   8 7597.81 584.362   3
  -2  -2   6 4605.33 430.061   8
   2   2  -6 4374.67 315.548   3
  -2  -2   6 3452.77 438.073   6
   2   2  -6 4171.52 479.655   1
   2   2  -4 140470. 3923.77   1
  -2  -2   4 137374. 3451.40   8
  -2  -2   4 135112. 3729.14   7
   2   2  -4 131602. 3222.54   3
  -2  -2   4 125946. 3487.41   6
   2   2  -4 119851. 3703.80   7
   2   2  -2 183278. 4386.88   8
   2   2  -2 187490. 4899.68   1
   2   2  -2 176760. 4758.88   7
  -2  -2   2 182385. 4777.40   4
  -2  -2   2 180694. 4766.73   7
  -2  -2   2 179954. 4257.00   6
  -2  -2   2 177918. 4421.09   8
   2   2   0 49488.1 1490.77   8
  -2  -2   0 43627.7 1522.45   4
   2   2   0 44502.3 1532.68   4
  -2  -2   0 46137.9 1597.88   7
   2   2   2 1628.96 227.354   3
  -2  -2  -2 1393.18 233.488   5
   2   2   2 1470.19 221.744   4
  -2  -2  -2 1508.42 192.249   6
   2   2   2 1741.67 237.966   6
  -2  -2  -2 1759.38 244.958   7
  -2  -2  -4 36157.6 1260.60   7
  -2  -2  -4 38501.3 1490.60   5
  -2  -2  -4 32793.9 1105.30   2
  -2  -2  -4 33989.6 1373.26   6
   2   2   4 30590.4 1361.49   6
   2   2   6 221885. 5775.26   1
  -2  -2  -6 231164. 5883.46   7
  -2  -2  -8 56929.0 2451.37   5
   2   2   8 55453.7 1838.93   1
   2   2   8 55673.5 2293.02   3
   2   2   8 48357.3 2328.37   6
  -2  -2  -8 56327.8 1699.00   7
  -2  -2  -8 53271.4 2269.65   6
  -2  -2 -10 3113.98 428.971   1
   2   2  10 3034.37 405.693   1
  -2  -2 -10 3326.86 258.165   7
  -2  -2 -10 3119.54 530.511   2
   2   2  10 2512.03 582.785   6
  -2  -2 -12 1439.80 316.707   1
   2   2  12 1406.00 318.758   1
   2   2  12 1899.18 578.962   6
  -2  -2 -14 236.553 112.188   1
   2   2  14 1537.95 585.624   6
   2   3 -12 685.464 249.788   1
  -2  -3  12 680.265 344.344   6
   2   3 -10 1802.28 367.577   1
  -2  -3  10 1905.47 468.108   6
   2   3 -10 1640.77 284.346   3
   2   3  -8 1816.57 339.225   1
  -2  -3   8 1262.91 322.844   6
   2   3  -8 1159.26 207.789   3
  -2  -3   6 26292.0 1309.09   8
   2   3  -6 29160.9 1464.86   1
   2   3  -6 26801.6 1048.02   3
  -2  -3   6 27988.9 1295.80   6
  -2  -3   4 69309.8 2350.63   7
  -2  -3   4 71098.2 2082.83   6
  -2  -3   4 68570.2 2485.43   4
  -2  -3   4 65099.6 2215.86   8
   2   3  -4 69839.8 2035.29   3
   2   3  -4 73635.6 2535.71   1
   2   3  -2 15912.8 874.337   2
  -2  -3   2 17549.4 894.831   4
  -2  -3   2 17656.5 833.712   8
  -2  -3   2 19267.3 998.012   7
   2   3  -2 17229.0 935.589   7
   2   3  -2 18212.3 810.878   8
  -2  -3   0 32372.7 1107.46   6
   2   3   0 32991.5 1117.25   2
   2   3   0 36474.5 1281.65   4
  -2  -3   0 33965.5 1251.41   4
   2   3   0 34837.1 1285.69   8
  -2  -3   0 36639.2 1427.41   7
   2   3   2 63782.4 2014.54   4
  -2  -3  -2 59697.5 2014.65   6
  -2  -3  -2 65731.1 2182.49   5
  -2  -3  -2 70068.1 2175.83   7
   2   3   2 68741.2 2134.78   6
   2   3   4 87723.7 2943.33   6
  -2  -3  -4 84207.7 2769.91   6
   2   3   6 49053.7 1657.44   1
  -2  -3  -6 53383.4 2207.73   5
   2   3   8 14375.3 776.549   1
  -2  -3  -8 13241.5 1125.07   5
   2   3   8 14914.7 1091.73   3
   2   3   8 15253.4 1259.61   6
  -2  -3  -8 13086.1 1038.91   6
  -2  -3 -10 6068.62 835.733   5
   2   3  10 7916.63 1026.48   6
   2   3  10 6895.20 610.905   1
  -2  -3 -12 4754.57 798.192   5
  -2  -3 -12 6034.89 436.032   7
   2   3  12 5807.71 952.631   6
  -2  -3 -14 1211.79 441.530   5
   2   3  14 1001.02 487.521   6
   2   4 -12 842.133 272.779   1
   2   4 -10 1652.29 361.613   1
  -2  -4  10 1722.71 397.465   6
  -2  -4   8 5357.50 665.564   8
  -2  -4   8 5425.69 622.059   6
   2   4  -8 6280.89 524.602   3
   2   4  -8 5385.21 649.196   1
   2   4  -6 1284.50 235.647   3
  -2  -4   6 1081.59 319.972   4
  -2  -4   6 1079.89 257.735   7
  -2  -4   6 1667.58 292.948   6
   2   4  -6 1424.26 344.631   1
   2   4  -4 5916.34 633.671   2
  -2  -4   4 6927.01 634.682   4
  -2  -4   4 6442.95 600.870   7
   2   4  -4 6765.56 684.394   1
   2   4  -4 6706.14 513.290   3
  -2  -4   4 6538.93 491.058   6
  -2  -4   4 8085.79 658.374   8
   2   4  -2 74817.9 2545.12   2
  -2  -4   2 79155.1 2466.14   4
   2   4  -2 83091.7 2516.62   8
  -2  -4   2 80153.3 2569.82   8
  -2  -4   2 82760.7 2713.18   7
  -2  -4   0 215096. 5362.73   4
   2   4   0 208109. 5310.62   2
   2   4   0 213054. 5354.04   4
  -2  -4   0 208609. 5682.53   8
   2   4   0 215415. 5718.30   5
   2   4   0 217229. 5605.13   8
  -2  -4   0 217648. 5747.09   7
  -2  -4  -2 5669.47 543.468   5
  -2  -4  -2 5341.34 291.883   2
   2   4   2 5620.47 432.460   4
   2   4   2 6956.44 634.281   8
   2   4   2 5473.41 497.292   5
  -2  -4  -2 4958.39 499.065   6
  -2  -4  -4 20739.0 1156.08   5
   2   4   4 17897.0 1126.65   6
  -2  -4  -6 7678.76 766.767   5
   2   4   6 6951.78 505.170   1
  -2  -4  -6 8793.73 773.635   6
  -2  -4  -8 18766.6 1390.32   5
   2   4   8 19781.0 973.131   1
   2   4   8 23281.1 1431.93   3
   2   4   8 18885.5 1490.59   6
  -2  -4  -8 19150.1 1329.83   6
  -2  -4 -10 10307.6 1145.82   5
   2   4  10 12538.9 845.684   1
   2   4  10 11922.8 1283.56   6
  -2  -4 -12 3758.97 742.839   5
   2   4  12 3023.57 732.649   6
  -2  -4 -14 1077.57 453.096   5
   2   4  14 803.585 469.370   6
   2   5 -12 665.673 259.227   1
  -2  -5  12 499.387 328.468   4
  -2  -5  10 1089.32 338.099   6
  -2  -5  10 843.957 361.510   4
   2   5 -10 1136.12 328.430   1
   2   5  -8 2340.59 446.584   1
  -2  -5   8 1525.72 433.160   4
  -2  -5   8 1617.53 405.058   8
   2   5  -8 2135.40 333.185   3
  -2  -5   8 2209.89 417.179   6
   2   5  -6 6652.27 583.266   3
  -2  -5   6 5697.91 685.769   8
  -2  -5   6 6334.55 728.069   4
  -2  -5   6 6664.52 673.466   7
  -2  -5   6 6213.76 580.619   6
   2   5  -6 6675.44 731.572   1
   2   5  -4 7027.48 600.833   3
  -2  -5   4 7887.64 719.267   7
   2   5  -4 7284.00 738.499   2
  -2  -5   4 6900.24 630.210   4
   2   5  -4 7242.24 735.856   1
   2   5  -2 55192.8 2188.90   5
  -2  -5   2 53449.7 1856.52   4
   2   5  -2 54084.1 2073.17   2
   2   5  -2 55581.3 2063.34   8
  -2  -5   2 53123.2 2165.96   7
   2   5   0 16749.8 1002.95   8
  -2  -5   0 16513.6 759.897   4
  -2  -5   0 15548.9 1022.57   7
   2   5   0 15837.8 819.707   2
  -2  -5  -2 104333. 3286.68   5
  -2  -5  -2 102359. 2737.74   2
   2   5   2 99477.5 2823.01   4
   2   5   2 109886. 3383.00   8
  -2  -5  -4 2394.30 419.860   5
   2   5   4 2699.55 355.406   5
   2   5   4 3194.51 505.339   8
  -2  -5  -4 2648.72 256.126   2
   2   5   6 30223.3 1318.98   1
  -2  -5  -6 31576.4 1766.29   5
   2   5   6 42073.2 2075.64   6
  -2  -5  -6 40858.9 1893.52   6
  -2  -5  -8 28560.6 1803.54   5
   2   5   8 29217.7 1255.20   1
  -2  -5  -8 25007.8 1619.79   6
   2   5   8 29588.0 1945.97   6
  -2  -5 -10 957.838 356.456   5
   2   5  10 1638.93 515.457   6
  -2  -5 -12 1439.55 462.467   5
   2   5  12 787.633 501.593   6
  -2  -5 -14 1910.53 592.936   5
   2   5  14 1185.13 608.782   6
  -2  -6  10 595.587 302.156   4
   2   6 -10 347.812 204.330   1
   2   6  -8 2666.89 411.916   3
   2   6  -8 2276.33 465.065   1
  -2  -6   8 1924.94 461.462   4
  -2  -6   8 1963.36 399.877   7
  -2  -6   8 2124.25 419.593   6
  -2  -6   6 5446.57 648.778   7
  -2  -6   6 5246.79 645.536   4
   2   6  -6 4852.00 561.038   3
  -2  -6   6 5103.53 547.206   6
   2   6  -6 5499.04 719.506   1
  -2  -6   6 4175.37 662.252   8
  -2  -6   4 9044.21 713.008   4
   2   6  -4 9285.97 886.929   2
  -2  -6   4 10736.7 960.954   8
  -2  -6   4 9369.91 873.422   7
   2   6  -4 9634.21 895.317   5
   2   6  -4 9395.24 782.766   3
   2   6  -2 746.012 247.894   5
   2   6  -2 420.275 210.186   8
  -2  -6   2 616.043 249.791   8
  -2  -6   2 419.819 230.021   7
   2   6  -2 459.770 181.678   2
  -2  -6   2 394.437 134.654   4
   2   6   0 65451.9 2424.45   5
   2   6   0 67755.6 2570.38   8
  -2  -6   0 66377.9 2604.22   7
   2   6   0 63424.6 2208.22   2
  -2  -6   0 66688.0 2647.65   8
  -2  -6  -2 16687.9 1098.70   5
   2   6   2 17580.0 1032.15   5
  -2  -6  -2 17521.9 868.289   2
   2   6   2 16791.3 797.804   4
   2   6   2 17127.2 1157.48   8
  -2  -6  -4 27478.7 1512.76   5
   2   6   4 26993.6 1297.31   5
  -2  -6  -4 26319.1 1099.16   2
   2   6   4 28657.1 1597.36   8
   2   6   6 70927.0 2866.85   8
  -2  -6  -6 79192.1 2940.05   6
  -2  -6  -6 57316.7 2615.55   5
  -2  -6  -8 3128.61 629.411   5
   2   6   8 2987.99 644.129   6
  -2  -6 -10 2474.91 597.171   5
   2   6  10 2220.59 555.744   6
  -2  -6 -12 2216.92 591.454   5
   2   6  12 1507.80 558.266   6
  -2  -6 -14 451.363 332.080   5
   2   6  14 40.4381 340.210   6
   2   7 -10 87.5369 149.307   1
   2   7  -8 1697.95 425.555   1
  -2  -7   8 1008.07 336.418   4
  -2  -7   8 1132.70 318.781   7
   2   7  -6 3518.83 611.730   1
  -2  -7   6 3448.70 501.167   4
  -2  -7   6 2665.65 485.718   7
   2   7  -6 3769.28 540.445   3
  -2  -7   6 3627.80 492.548   6
   2   7  -4 3481.55 562.861   5
  -2  -7   4 4028.62 449.943   4
  -2  -7   4 4085.65 618.737   7
   2   7  -4 3972.82 549.272   3
   2   7  -2 5550.13 642.107   5
  -2  -7   2 6308.91 458.310   4
   2   7  -2 5828.92 642.852   2
   2   7  -2 6592.67 730.741   8
  -2  -7   2 7299.67 824.149   8
  -2  -7   2 5715.88 717.457   7
   2   7  -2 6057.40 680.501   3
  -2  -7   0 7394.55 796.959   7
   2   7   0 7312.23 781.897   8
  -2  -7   0 7008.22 808.277   8
   2   7   0 6955.79 692.163   5
   2   7   0 6364.23 595.221   2
   2   7   2 15879.8 1019.84   5
  -2  -7  -2 17681.4 983.011   2
   2   7   2 17097.3 747.671   4
  -2  -7  -2 14511.0 1112.88   6
   2   7   2 18766.7 1286.75   8
  -2  -7  -2 16552.8 1145.32   5
  -2  -7  -4 24609.2 1492.48   5
   2   7   4 27827.1 1344.14   5
   2   7   4 23354.9 1107.88   4
  -2  -7  -4 28012.9 1233.12   2
  -2  -7  -4 21776.5 1501.88   6
   2   7   4 27546.3 1644.76   8
  -2  -7  -6 508.731 300.335   5
  -2  -7  -6 243.795 233.600   6
   2   7   6 333.981 308.701   8
  -2  -7  -6 169.667 160.023   2
  -2  -7  -8 18155.9 1529.16   5
   2   7   8 21193.0 1599.99   8
   2   7  10 4094.02 765.171   8
  -2  -7 -10 5569.04 895.776   5
  -2  -7 -12 1136.68 446.126   5
   2   7  12 1653.46 529.362   8
   2   7  14 227.341 303.519   8
   2   8  -8-442.518 243.360   1
   2   8  -6 1021.33 307.526   3
  -2  -8   6 1152.75 347.189   7
   2   8  -6 1443.96 427.770   1
  -2  -8   6 801.088 255.634   6
   2   8  -4 3776.13 572.993   3
  -2  -8   4 3453.03 385.800   4
  -2  -8   4 3905.64 637.368   7
   2   8  -2 4644.85 609.937   5
  -2  -8   2 4487.00 681.003   7
   2   8  -2 4300.61 595.176   2
   2   8  -2 4681.96 653.718   3
   2   8   0 3297.97 484.876   5
   2   8   0 3004.83 433.414   2
   2   8   0 3535.39 582.153   8
  -2  -8   0 2378.22 498.116   7
  -2  -8  -2 15419.6 1017.88   2
   2   8   2 15374.2 1017.47   5
   2   8   2 16670.5 1314.03   8
  -2  -8  -2 14379.6 1126.95   5
  -2  -8  -2 13522.6 1158.17   6
  -2  -8  -4 1097.05 319.860   5
   2   8   4 1157.32 285.447   5
   2   8   4 992.823 194.225   4
  -2  -8  -4 1290.82 277.330   2
  -2  -8  -4 487.829 263.028   6
   2   8   4 1576.44 477.342   8
   2   8   6 11521.5 1155.48   8
  -2  -8  -6 9521.30 1035.48   5
  -2  -8  -6 10178.3 807.935   2
   2   8   8 5247.94 812.235   8
  -2  -8  -8 5094.28 821.768   5
  -2  -8 -10 1706.25 513.660   5
   2   8  10 1691.87 505.575   8
  -2  -8 -12 621.411 359.933   5
   2   8  12 444.300 300.790   8
   2   9  -6 188.596 196.654   1
   2   9  -6 260.994 204.466   3
  -2  -9   6 160.698 135.048   7
   2   9  -4 2090.68 468.867   3
  -2  -9   4 2339.91 527.069   7
   2   9  -2 1660.61 436.505   3
  -2  -9   2 2560.86 553.613   7
   2   9   0 5181.01 623.641   5
  -2  -9   0 5314.84 812.701   7
   2   9   0 6425.60 869.726   8
   2   9   2 1721.48 480.911   8
   2   9   2 1071.92 271.214   5
  -2  -9  -2 1114.67 309.536   2
  -2  -9  -4 7878.97 893.974   5
   2   9   4 8691.10 1030.16   8
  -2  -9  -4 8935.91 811.968   2
  -2  -9  -6 779.046 306.721   5
   2   9   6 392.856 285.575   8
  -2  -9  -6 376.745 175.460   2
  -2  -9  -8 1263.29 410.712   5
   2   9   8 2121.80 554.803   8
  -2  -9  -8 1231.11 317.078   2
  -2  -9 -10 531.306 312.569   5
   2   9  10 845.802 371.829   8
  -2  -9 -12-515.173 344.157   5
   2   9  12 380.355 302.536   8
   2  10  -6-7.00397 144.055   1
   2  10  -4 568.840 244.589   3
  -2 -10   4 287.939 252.567   7
  -2 -10   2 889.195 360.960   7
   2  10  -2 682.511 302.781   3
  -2 -10   0 1423.94 458.914   7
   2  10   0 1005.53 388.935   8
   2  10   2 7272.38 978.146   8
  -2 -10  -2 5939.96 736.858   2
  -2 -10  -4 2709.12 551.039   5
  -2 -10  -4 2626.91 483.500   2
   2  10   4 2103.45 528.319   8
   2  10   6 1568.51 489.732   8
  -2 -10  -6 1028.24 412.340   5
  -2 -10  -6 646.684 244.603   2
   2  10   8 793.901 427.933   8
  -2 -10  -8 1105.84 412.699   5
  -2 -10 -10-204.424 248.907   5
   2  10  10 313.085 263.224   8
   2  11  -4 415.560 301.659   3
   2  11  -2-96.3484 206.055   3
  -2 -11   2 503.224 326.456   7
   2  11   0 707.043 372.451   3
   2  11   0 980.437 431.296   8
  -2 -11   0 1052.71 432.931   7
   2  11   2 1033.48 453.075   8
  -2 -11  -2 978.994 360.144   2
  -2 -11  -4 1526.98 432.826   5
   2  11   4 2694.79 677.456   8
  -2 -11  -6 1197.52 436.026   5
   2  11   6 859.982 374.193   8
  -2 -11  -8 1255.36 452.748   5
  -2 -11 -10 180.521 236.061   5
  -2 -12  -8 669.428 410.476   5
  -3  10   9 431.268 298.482   8
   3 -10  -7 888.183 448.137   2
  -3  10   7 449.937 285.466   8
  -3  10   5 841.628 363.503   3
   3 -10  -5 326.866 300.145   2
  -3  10   3 967.382 407.464   3
   3 -10  -3 661.269 397.204   2
  -3  10   1 2379.04 616.727   3
   3 -10  -1 1994.67 578.008   2
   3 -10   1 1071.26 461.342   2
  -3  10  -1 2303.62 601.708   3
  -3   9   9 252.345 230.897   8
  -3   9   7 476.935 316.260   8
   3  -9  -7 1611.17 535.231   2
  -3   9   5 1629.19 467.816   8
   3  -9  -5 2193.93 613.459   2
  -3   9   3 3924.77 741.894   3
   3  -9  -3 4637.23 870.951   2
  -3   9   1 4648.22 812.269   3
   3  -9  -1 5483.40 916.930   2
  -3   9  -1 5253.55 840.088   3
   3  -9   1 4430.26 817.173   2
  -3   9  -3 1023.85 377.699   3
   3  -9   3 1681.67 579.575   2
  -3   9  -5 1930.10 534.203   3
   3  -9   5 2651.69 683.936   2
  -3   8  11-122.122 287.204   4
  -3   8   9 945.820 367.103   8
   3  -8  -9 962.317 351.177   1
  -3   8   9 1356.49 426.237   4
   3  -8  -7 1244.25 356.529   1
   3  -8  -7 1570.74 346.293   5
  -3   8   7 1249.25 349.472   4
  -3   8   7 1514.31 453.411   8
   3  -8  -5 4478.26 517.209   5
  -3   8   5 5056.73 773.035   8
  -3   8   5 4644.37 609.442   4
   3  -8  -5 4312.04 810.006   2
   3  -8  -3 4984.62 431.979   5
  -3   8   3 3908.30 481.013   4
   3  -8  -3 5556.59 873.882   2
  -3   8   3 5707.80 826.900   3
  -3   8   1 2872.19 609.944   3
   3  -8  -1 2625.24 605.419   2
  -3   8  -1 7053.07 622.242   1
  -3   8  -1 6865.04 921.776   3
   3  -8   3 14099.8 1416.17   2
  -3   8  -3 12186.8 1237.64   3
  -3   8  -5 2356.40 570.189   3
   3  -8   5 3162.09 685.653   2
  -3   8  -7 3804.98 725.636   3
   3  -8   7 4605.72 881.430   2
  -3   7  11 774.601 358.831   4
   3  -7  -9 1021.82 302.192   1
  -3   7   9 1503.43 409.543   8
  -3   7   9 1042.53 369.658   4
   3  -7  -7 1263.12 308.242   1
  -3   7   7 1347.84 389.229   8
  -3   7   7 927.393 304.939   4
   3  -7  -5 4440.86 558.827   1
  -3   7   5 4173.05 658.758   8
  -3   7   5 4013.24 576.898   4
  -3   7   3 1628.04 444.784   3
   3  -7  -3 1737.34 266.287   5
  -3   7   3 1638.18 323.787   4
   3  -7  -3 2336.32 557.602   2
  -3   7   1 4756.06 551.450   1
   3  -7  -1 4776.28 752.301   2
  -3   7   1 4927.89 710.268   3
  -3   7  -1 17801.3 1011.26   1
  -3   7  -1 20164.9 1479.20   3
   3  -7   1 21249.4 1592.30   2
  -3   7  -3 7975.39 926.003   3
   3  -7   3 6301.92 511.155   4
   3  -7   3 8263.75 997.993   2
   3  -7   5 6129.90 920.545   2
  -3   7  -5 6431.15 859.742   3
   3  -7   7 7928.20 1096.16   2
  -3   7  -7 8577.89 1026.35   3
  -3   7  -9 2390.19 585.467   3
   3  -6 -11 318.629 184.480   1
  -3   6  11 324.721 309.749   4
  -3   6   9 1932.36 464.915   8
   3  -6  -9 1775.34 360.852   1
  -3   6   9 1626.37 474.497   4
   3  -6  -7 1286.66 301.658   1
  -3   6   7 1104.10 328.085   8
  -3   6   7 956.970 333.400   4
   3  -6  -5 336.689 197.168   1
  -3   6   5 69.6110 165.377   4
   3  -6  -5 433.390 233.733   8
  -3   6   5 277.657 189.286   8
   3  -6  -3 18304.9 1040.53   1
  -3   6   3 18544.2 1129.50   4
  -3   6   3 17287.6 1170.53   1
   3  -6  -3 16816.4 1162.24   8
   3  -6  -3 17341.2 1401.52   2
   3  -6  -1 13032.7 1148.62   2
   3  -6  -1 11701.3 423.457   5
  -3   6   1 12011.6 791.384   4
  -3   6   1 11038.4 836.952   1
   3  -6  -1 12994.2 1014.46   8
  -3   6   1 12529.8 1061.67   3
   3  -6   1 5702.51 472.305   4
   3  -6   1 7016.71 842.017   2
  -3   6  -1 5195.24 704.232   3
  -3   6  -3 7082.15 515.536   1
   3  -6   3 7891.02 602.736   4
   3  -6   3 7860.25 923.950   2
  -3   6  -3 9214.94 933.999   3
  -3   6  -5 646.137 304.046   3
   3  -6   5 1145.63 387.060   2
  -3   6  -5 593.693 121.224   1
  -3   6  -7 2527.40 548.662   3
   3  -6   7 2632.60 603.941   2
  -3   6  -9 21115.4 1649.94   3
   3  -6   9 20736.0 1718.73   6
  -3   6 -11 541.012 294.906   3
   3  -5 -11 1531.21 345.685   1
  -3   5  11 1319.87 516.274   4
   3  -5  -9 3725.01 481.634   1
  -3   5   9 2853.48 601.857   4
  -3   5   9 2162.78 425.944   8
   3  -5  -7 1513.32 324.380   1
  -3   5   7 891.843 274.851   8
  -3   5   7 1149.17 398.937   4
   3  -5  -5 24642.0 1196.61   1
  -3   5   5 22675.7 1424.35   4
  -3   5   5 26416.3 1446.57   8
  -3   5   3 19815.7 1224.27   8
   3  -5  -3 16780.5 1074.67   8
   3  -5  -3 18889.4 979.661   1
  -3   5   3 18859.7 1150.25   4
  -3   5   3 19040.3 1207.15   1
   3  -5  -1 4578.86 424.969   1
  -3   5   1 4368.30 479.607   4
   3  -5  -1 5506.73 703.177   2
  -3   5   1 4214.36 569.407   3
   3  -5  -1 4562.02 548.331   8
   3  -5   1 1934.43 375.263   8
  -3   5  -1 2422.90 454.289   3
   3  -5   1 2032.12 433.559   2
   3  -5   1 1784.00 276.464   4
  -3   5  -1 2194.86 292.097   1
   3  -5   3 20887.0 1071.81   4
  -3   5  -3 20790.3 895.734   1
   3  -5   3 24853.7 1570.75   2
  -3   5  -3 23435.5 1453.25   3
   3  -5   5 921.519 347.548   2
  -3   5  -5 976.060 111.031   1
  -3   5  -7 3738.95 611.050   3
  -3   5  -7 3395.49 331.985   5
   3  -5   7 3118.76 621.444   2
  -3   5  -9 730.906 312.329   3
  -3   5  -9 923.861 226.492   5
   3  -5   9 1298.66 433.431   6
  -3   5 -11 3966.58 691.299   3
   3  -5  11 2929.64 674.639   6
   3  -4 -11 859.245 262.056   1
   3  -4  -9 6342.86 617.274   1
  -3   4   9 6513.82 925.015   4
  -3   4   9 5471.08 610.184   3
  -3   4   9 5881.74 631.960   8
   3  -4  -7 36146.9 1542.90   1
  -3   4   7 37416.4 2088.67   4
  -3   4   7 37659.6 1705.52   8
  -3   4   5 278.171 192.438   1
  -3   4   5 27.2957 144.502   4
   3  -4  -5 217.925 149.198   1
   3  -4  -5 24.3344 161.228   6
  -3   4   5 274.649 155.229   8
   3  -4  -3 14055.7 883.145   8
   3  -4  -3 15380.6 798.216   1
  -3   4   3 14969.3 1015.74   4
  -3   4   3 14544.0 1016.65   1
   3  -4  -1 40223.3 1339.73   1
  -3   4   1 37652.5 1577.84   4
   3  -4  -1 38840.0 1865.68   2
  -3   4   1 36039.9 1672.96   3
   3  -4  -1 36272.6 1572.53   8
   3  -4   1 61923.7 2521.02   2
   3  -4   1 60412.3 2131.22   4
  -3   4  -1 62024.1 2416.82   3
   3  -4   1 60294.0 2356.38   8
  -3   4  -1 62505.1 2018.98   1
   3  -4   1 68381.7 1940.10   1
  -3   4  -3 56215.8 1716.25   1
   3  -4   3 57679.4 2136.42   4
   3  -4   3 65631.6 2586.22   2
   3  -4   3 68278.1 2577.93   8
  -3   4  -3 67873.1 2547.66   2
  -3   4  -3 67577.9 2549.46   3
   3  -4   3 64623.3 2489.47   3
  -3   4  -5 13308.1 585.066   5
   3  -4   5 12521.9 1094.16   2
  -3   4  -5 13385.9 1052.41   3
  -3   4  -7 3596.84 584.590   3
  -3   4  -7 3976.83 391.617   5
   3  -4   7 4085.55 680.661   2
  -3   4  -9 11475.2 843.666   5
   3  -4   9 10408.4 1115.70   6
  -3   4  -9 10522.5 1042.11   3
  -3   4 -11 2131.58 505.036   3
  -3   4 -11 2924.50 490.752   5
   3  -4  11 2722.10 626.747   6
  -3   4 -13 206.266 221.981   3
   3  -3 -11 1632.71 342.859   1
   3  -3  -9 8279.72 722.914   1
  -3   3   9 8737.90 690.606   8
   3  -3  -7 788.487 250.646   1
  -3   3   7 783.154 379.641   4
   3  -3  -7 1024.28 396.671   6
  -3   3   7 1079.32 255.713   8
   3  -3  -5 25139.9 1167.57   1
  -3   3   5 25295.7 1476.37   4
  -3   3   5 28070.9 1236.08   8
  -3   3   5 25019.0 1475.51   1
   3  -3  -3 84924.7 2505.44   1
  -3   3   3 81719.1 2854.29   1
  -3   3   3 84152.0 2887.72   4
   3  -3  -3 82303.1 2535.54   8
  -3   3   3 86413.3 2750.58   3
   3  -3  -1 87382.1 2676.58   8
   3  -3  -1 87779.6 2424.64   1
  -3   3   1 84551.0 2795.30   4
  -3   3   1 87487.6 2684.62   1
   3  -3  -1 79193.5 2640.50   4
  -3   3   1 87710.1 2805.15   3
   3  -3   1 48939.9 1378.63   5
   3  -3   1 53037.0 1470.00   1
  -3   3  -1 48259.5 1587.60   1
  -3   3  -1 48402.4 1803.87   4
   3  -3   1 50341.2 1841.04   4
   3  -3   1 49311.9 1910.83   8
   3  -3   1 48416.0 2014.42   2
  -3   3  -1 48553.4 1926.71   3
  -3   3  -3 45947.7 1300.17   5
   3  -3   3 42716.3 1745.77   4
   3  -3   3 45829.1 1984.03   2
  -3   3  -3 45287.8 1254.43   1
  -3   3  -3 48395.1 1953.07   3
  -3   3  -5 66563.2 2008.07   5
   3  -3   5 66239.0 2670.17   2
  -3   3  -5 71494.2 2653.55   3
  -3   3  -5 68219.0 2672.97   2
   3  -3   5 70457.4 2710.00   3
  -3   3  -7 14352.0 831.254   5
   3  -3   7 12813.5 1145.31   2
  -3   3  -7 13150.3 1057.02   3
  -3   3  -9 5965.48 637.656   5
  -3   3  -9 5875.83 741.124   3
  -3   3 -11 3603.26 629.155   3
  -3   3 -11 5088.27 684.150   5
   3  -3  11 4207.88 745.171   6
  -3   3 -13 1781.70 453.233   5
   3  -3  13 951.665 401.798   6
  -3   3 -13 562.217 329.090   3
   3  -2 -13 936.113 295.193   1
   3  -2 -11 690.306 239.948   1
  -3   2   9-81.0599 91.3310   3
  -3   2   9-68.7170 141.137   8
   3  -2  -9 45.7177 163.186   1
   3  -2  -9 17.9987 161.687   6
  -3   2   7 41316.5 1433.59   8
   3  -2  -7 40774.8 1682.44   1
  -3   2   7 41618.7 2252.48   4
  -3   2   7 36780.6 1433.59   3
   3  -2  -5 22563.6 1087.79   1
  -3   2   5 21018.4 1351.65   4
  -3   2   5 21594.3 1344.90   1
   3  -2  -5 20576.7 1300.48   6
  -3   2   5 22151.8 929.670   8
  -3   2   3 4414.65 510.365   4
   3  -2  -3 4912.86 428.195   1
   3  -2  -3 4136.30 341.332   8
  -3   2   3 4275.28 404.052   3
  -3   2   1 166011. 4490.79   1
  -3   2   1 174030. 4726.34   4
   3  -2  -1 174448. 4298.11   1
   3  -2  -1 163500. 4354.56   8
  -3   2   1 172617. 4515.41   3
   3  -2   1 19726.7 797.109   5
  -3   2  -1 20129.3 1028.05   4
   3  -2   1 21232.6 754.605   1
   3  -2   1 19822.3 1027.34   4
  -3   2  -1 20091.0 822.272   1
  -3   2  -1 20515.4 1031.35   3
   3  -2   1 21379.8 1035.20   3
   3  -2   1 19537.0 1070.99   2
   3  -2   3 110750. 3548.98   4
  -3   2  -3 115026. 3152.64   5
   3  -2   3 112402. 3651.59   2
  -3   2  -3 121310. 3638.65   3
   3  -2   3 126012. 2851.12   1
   3  -2   5 81225.2 2942.66   2
  -3   2  -5 83982.3 2946.01   2
  -3   2  -5 87974.8 2943.97   3
  -3   2  -5 83866.9 2482.56   5
  -3   2  -7 34261.0 1451.45   5
   3  -2   7 27427.8 1638.05   2
  -3   2  -7 32535.9 1741.71   2
   3  -2   7 31662.8 933.771   7
  -3   2  -7 31399.7 1648.91   3
   3  -2   7 34530.5 1791.03   6
   3  -2   7 30683.6 1705.67   3
  -3   2  -9 11348.1 912.709   5
  -3   2  -9 9008.70 899.511   3
   3  -2   9 10117.5 1028.96   6
  -3   2 -11 9535.03 984.407   5
  -3   2 -11 9118.64 967.884   3
   3  -2  11 10363.4 1134.48   6
  -3   2 -13 1154.00 395.610   5
   3  -2  13 660.660 396.771   6
  -3   2 -13 879.536 358.515   3
  -3   2 -15 873.217 371.279   5
   3  -1 -13 154.745 184.440   1
   3  -1 -11 1015.28 300.223   1
   3  -1  -9 4490.66 548.592   1
  -3   1   9 5268.16 411.163   8
   3  -1  -9 4483.98 629.646   7
  -3   1   9 5024.62 412.174   3
   3  -1  -9 4359.63 620.115   6
   3  -1  -7 2936.99 388.315   1
  -3   1   7 3166.71 615.926   4
  -3   1   7 2768.00 259.823   3
   3  -1  -7 2159.83 406.713   6
  -3   1   7 2585.62 235.268   8
   3  -1  -5 5151.07 507.739   1
  -3   1   5 5037.66 656.131   4
  -3   1   5 5227.60 335.129   3
   3  -1  -5 4886.41 562.902   6
   3  -1  -3 72767.9 2254.26   1
  -3   1   3 67681.0 2528.64   4
   3  -1  -3 66483.8 2340.01   6
  -3   1   3 70868.1 1977.64   3
   3  -1  -1 3965.53 307.650   8
  -3   1   1 3465.81 431.638   4
  -3   1   1 4555.56 357.121   3
  -3   1   1 4433.54 416.726   1
   3  -1  -1 4291.30 365.095   1
  -3   1  -1 132571. 3526.97   1
  -3   1  -1 138787. 3868.57   4
   3  -1   1 134783. 3846.25   4
   3  -1   1 137313. 3806.29   2
   3  -1   1 129954. 3583.21   5
  -3   1  -1 138129. 3692.75   3
   3  -1   1 135940. 3417.26   1
   3  -1   1 135579. 3696.13   3
  -3   1  -3 59865.2 1889.93   5
   3  -1   3 63754.3 1853.55   5
  -3   1  -3 65703.7 2161.09   3
   3  -1   3 54612.1 2122.93   4
   3  -1   3 60838.2 2113.10   2
   3  -1   3 63233.4 1572.45   1
  -3   1  -3 58931.2 2081.80   2
  -3   1  -5 106902. 3039.82   5
   3  -1   5 99723.7 3251.64   2
   3  -1   5 102953. 2737.55   7
  -3   1  -5 101748. 3262.25   3
  -3   1  -7 10626.4 859.802   3
  -3   1  -7 10992.6 799.559   5
  -3   1  -7 10330.2 880.497   2
   3  -1   7 10372.6 899.375   3
   3  -1   7 10604.3 908.617   6
  -3   1  -9 9189.57 869.135   5
  -3   1  -9 8890.92 858.812   3
   3  -1   9 9851.62 982.796   6
  -3   1 -11 10990.9 1086.76   5
   3  -1  11 10679.2 1147.04   6
  -3   1 -11 9264.41 950.247   3
  -3   1 -13 4426.61 757.642   5
   3  -1  13 3800.27 763.013   6
  -3   1 -13 3576.07 653.105   3
  -3   1 -15 189.325 238.792   5
  -3   1 -15 385.404 249.052   3
   3   0 -13 387.589 225.232   1
  -3   0  11 2212.10 561.495   6
   3   0 -11 2358.76 428.423   1
  -3   0   9 612.393 145.731   8
  -3   0   9 519.507 106.759   3
   3   0  -9 442.740 210.566   7
  -3   0   9 878.994 346.938   6
   3   0  -9 701.419 247.901   6
  -3   0   7 16746.4 1420.05   4
   3   0  -7 14678.7 957.786   1
   3   0  -7 15322.3 980.191   6
  -3   0   7 13048.5 462.756   3
   3   0  -7 15036.8 1071.10   7
  -3   0   5 29305.2 1670.71   4
   3   0  -5 27595.9 1277.09   6
   3   0  -5 29908.9 1456.81   7
   3   0  -5 29165.5 1352.98   1
  -3   0   3 15052.6 989.334   4
   3   0  -3 14269.3 821.057   1
   3   0  -3 13646.5 771.187   6
  -3   0   1 92608.9 2802.33   1
  -3   0   1 91712.2 2902.93   4
  -3   0   1 89976.8 2362.66   3
   3   0  -1 94073.2 2706.12   1
   3   0  -1 89849.8 2367.69   3
   3   0   1 202189. 5180.34   5
   3   0   1 197019. 5135.70   7
  -3   0  -1 208827. 5341.91   4
   3   0   1 195657. 4995.87   1
  -3   0  -1 199405. 5009.33   3
   3   0   1 195980. 5014.78   3
  -3   0  -3 47146.8 1668.35   5
   3   0   3 48246.6 1616.06   5
  -3   0  -3 46685.4 1634.08   2
   3   0   3 49829.7 1674.83   2
   3   0   3 49391.6 1453.12   1
   3   0   3 47788.8 1588.83   7
  -3   0  -3 50753.7 1743.42   3
   3   0   3 47924.2 1738.05   3
   3   0   5 15791.0 501.989   1
  -3   0  -5 15923.7 902.798   5
   3   0   5 13421.1 840.231   2
   3   0   5 15745.8 688.705   7
  -3   0  -5 14361.2 856.973   2
  -3   0  -5 15811.5 936.122   3
   3   0   5 14986.3 944.427   6
  -3   0  -7 17941.8 1099.97   5
  -3   0  -7 18070.7 1096.54   3
  -3   0  -7 16431.2 1061.76   2
   3   0   7 16040.3 613.653   1
   3   0   7 16103.1 1107.37   3
   3   0   7 16073.2 1105.52   6
  -3   0  -9 11923.8 1026.81   5
   3   0   9 11722.3 626.388   1
  -3   0  -9 13589.0 1038.84   3
  -3   0  -9 14205.2 1132.91   2
   3   0   9 15381.7 1224.98   6
  -3   0 -11 10639.6 1092.32   5
  -3   0 -11 10490.2 978.520   3
   3   0  11 9236.76 1099.17   6
   3   0  11 8834.09 635.130   1
  -3   0 -13 2898.66 634.782   5
   3   0  13 2123.51 606.101   6
  -3   0 -13 2148.70 502.431   3
  -3   0 -15 546.296 325.084   5
   3   1 -13 229.619 197.047   1
   3   1 -11 1189.94 327.936   1
  -3  -1  11 2283.58 560.602   6
   3   1  -9 3846.61 526.929   1
  -3  -1   9 2909.90 317.387   8
   3   1  -9 3222.71 516.761   7
  -3  -1   7 4763.07 272.284   8
   3   1  -7 4106.41 554.744   7
  -3  -1   7 2761.90 591.381   4
   3   1  -7 4373.02 531.038   1
   3   1  -7 4495.24 476.058   6
  -3  -1   7 3888.83 535.710   6
  -3  -1   5 16378.5 1171.40   1
  -3  -1   5 18403.1 1295.84   4
   3   1  -5 16195.5 1041.61   7
   3   1  -5 17250.1 1026.15   1
   3   1  -5 16061.8 786.333   6
  -3  -1   3 81390.8 2900.58   4
   3   1  -3 86297.1 2266.67   6
   3   1  -3 88240.6 2793.43   1
  -3  -1   1 27867.1 1293.73   4
   3   1  -1 27029.1 827.946   3
   3   1  -1 27230.0 1213.12   1
  -3  -1  -1 2070.05 293.777   5
   3   1   1 1828.39 280.245   5
  -3  -1  -1 1577.36 283.586   4
  -3  -1  -1 1849.39 267.764   7
   3   1   1 1781.60 211.633   3
   3   1   1 1894.50 193.753   6
  -3  -1  -1 1615.39 223.533   3
  -3  -1  -3 85987.7 2615.46   3
  -3  -1  -3 85761.8 2680.61   5
   3   1   3 83176.4 2587.76   5
   3   1   3 90304.3 2644.59   3
  -3  -1  -3 85994.2 2515.73   7
   3   1   3 86606.9 2395.81   2
   3   1   3 89181.5 2579.99   7
   3   1   3 87840.3 2563.81   6
  -3  -1  -5 168048. 4467.30   5
  -3  -1  -5 149803. 3946.09   7
   3   1   5 155131. 3959.04   7
  -3  -1  -5 156698. 4356.10   3
   3   1   5 157576. 4400.85   6
  -3  -1  -5 143897. 4090.90   2
  -3  -1  -7 39471.2 1779.05   5
   3   1   7 33543.5 1121.96   1
  -3  -1  -7 35397.2 1649.50   3
   3   1   7 37080.5 1777.16   6
  -3  -1  -9 5206.16 694.450   5
  -3  -1  -9 5717.62 659.137   3
  -3  -1  -9 5717.12 679.419   2
   3   1   9 4255.11 385.494   1
   3   1   9 6639.98 806.145   6
  -3  -1 -11 3329.80 642.803   5
   3   1  11 2717.27 356.762   1
   3   1  11 2452.53 567.339   6
  -3  -1 -11 3009.30 540.856   3
  -3  -1 -13 2099.54 593.116   5
  -3  -1 -13 2783.78 544.115   3
   3   1  13 1171.01 454.903   6
  -3  -1 -15 605.469 358.401   5
   3   2 -11 913.490 290.987   1
  -3  -2  11 1294.59 505.338   4
  -3  -2  11 676.390 287.768   6
   3   2  -9 1970.00 391.690   1
  -3  -2   9 911.264 424.130   4
   3   2  -9 1932.51 390.174   7
  -3  -2   9 1155.94 365.024   6
   3   2  -7 13860.4 1034.19   7
  -3  -2   7 14715.7 707.384   8
   3   2  -7 13765.5 988.462   1
  -3  -2   7 14157.3 1028.96   6
  -3  -2   5 39885.0 2097.89   4
  -3  -2   5 45252.6 1313.19   8
  -3  -2   5 45240.1 1662.26   6
   3   2  -5 45670.5 1947.09   1
   3   2  -5 46185.2 1961.96   7
  -3  -2   3 11235.1 854.219   4
   3   2  -3 12372.1 869.402   1
   3   2  -1 1210.82 168.795   8
   3   2  -1 1073.49 233.773   4
  -3  -2   1 1078.04 250.715   4
  -3  -2   1 967.470 237.991   7
   3   2  -1 825.703 202.458   1
   3   2  -1 1006.81 129.994   3
   3   2   1 54644.8 1679.64   3
  -3  -2  -1 52614.3 1930.41   5
  -3  -2  -1 51563.0 1884.88   4
   3   2   1 48780.2 1852.37   4
  -3  -2  -1 54717.2 1890.52   7
   3   2   1 49907.2 1490.43   6
  -3  -2  -3 165359. 4555.26   5
   3   2   3 172819. 4471.64   3
   3   2   3 159590. 3893.96   2
  -3  -2  -3 169047. 4428.88   7
   3   2   3 163619. 4372.79   7
   3   2   3 156225. 4310.87   6
  -3  -2  -3 164659. 4284.51   6
  -3  -2  -5 43557.5 1554.18   7
  -3  -2  -5 41344.1 1408.29   2
  -3  -2  -5 43835.8 1740.22   3
   3   2   5 40616.9 1741.90   6
  -3  -2  -7 46043.9 2025.91   5
   3   2   7 39180.1 1294.29   1
  -3  -2  -7 37813.5 1606.62   2
  -3  -2  -7 44412.8 1873.44   3
   3   2   7 38771.7 1895.76   6
  -3  -2  -7 40907.9 1866.43   6
  -3  -2  -7 41179.3 1429.28   7
  -3  -2  -9 4399.62 657.315   5
  -3  -2  -9 5676.93 638.066   2
   3   2   9 4933.30 426.064   1
  -3  -2  -9 5671.79 669.280   3
  -3  -2  -9 4235.23 323.644   7
  -3  -2 -11 4696.90 777.980   5
   3   2  11 5010.62 509.024   1
   3   2  11 5251.38 833.490   6
  -3  -2 -13 3702.51 748.920   5
   3   2  13 3774.30 838.852   6
  -3  -2 -15-94.5355 192.652   5
   3   3 -11 959.004 318.821   1
  -3  -3  11 1090.86 505.366   4
   3   3  -9 2070.85 415.595   1
  -3  -3   9 1933.48 610.232   4
  -3  -3   9 3025.89 516.786   6
  -3  -3   7 1786.14 461.044   4
  -3  -3   7 3155.56 397.133   8
   3   3  -7 2537.94 427.592   7
   3   3  -7 2409.85 443.900   1
  -3  -3   7 2973.72 464.940   6
  -3  -3   5 6884.06 542.278   6
  -3  -3   5 7349.81 794.327   4
  -3  -3   5 7223.92 518.533   8
   3   3  -5 6972.08 678.957   7
   3   3  -5 6521.44 311.270   3
   3   3  -5 7181.16 723.150   1
   3   3  -3 61286.8 2338.82   1
   3   3  -3 59767.6 2229.44   7
  -3  -3   3 53820.9 2220.87   4
  -3  -3   3 57126.8 2199.96   7
  -3  -3   3 56770.3 1522.26   6
   3   3  -3 58601.8 1610.28   3
   3   3  -1 52326.8 1662.84   8
  -3  -3   1 51081.6 1981.87   7
  -3  -3   1 49030.5 1886.98   4
   3   3  -1 50469.6 1876.21   4
  -3  -3  -1 47982.5 1924.53   5
  -3  -3  -1 50439.0 1830.53   4
   3   3   1 47603.6 1818.23   4
   3   3   1 49704.0 1688.67   3
  -3  -3  -1 50370.9 1905.25   7
  -3  -3  -1 49372.1 1421.20   6
  -3  -3  -3 11786.3 841.471   5
   3   3   3 10920.0 766.207   4
  -3  -3  -3 10945.7 772.701   7
   3   3   3 9793.47 699.742   3
   3   3   3 8344.70 668.310   6
  -3  -3  -3 9069.83 599.168   6
  -3  -3  -5 119643. 3720.87   5
  -3  -3  -5 106571. 2800.41   2
  -3  -3  -5 117745. 3383.89   7
   3   3   5 102496. 3513.05   6
   3   3   7 14957.9 730.774   1
  -3  -3  -7 14075.7 817.518   2
  -3  -3  -7 17496.4 1224.19   5
  -3  -3  -7 15644.8 889.449   7
   3   3   7 14210.4 1135.24   6
  -3  -3  -7 14769.9 1053.25   6
  -3  -3  -9 13698.2 1235.54   5
   3   3   9 12306.9 725.580   1
  -3  -3  -9 13626.3 790.669   7
  -3  -3 -11 11042.4 1226.20   5
  -3  -3 -11 10744.5 1004.68   2
   3   3  11 10729.9 782.505   1
  -3  -3 -11 12310.5 662.537   7
   3   3  11 13648.5 1407.42   6
  -3  -3 -13 1023.45 429.457   5
   3   3  13 1030.39 519.705   6
  -3  -3 -15 474.595 365.597   5
   3   4 -11 62.3865 145.857   1
  -3  -4  11 646.170 375.153   4
   3   4  -9 1041.97 324.559   1
  -3  -4   9 585.509 311.099   4
  -3  -4   9 1033.17 318.511   6
   3   4  -7 4118.11 335.531   3
  -3  -4   7 5267.77 604.632   8
   3   4  -7 5588.57 716.441   1
  -3  -4   7 3908.14 492.822   6
  -3  -4   7 3659.95 673.612   4
   3   4  -5 9511.49 895.833   2
  -3  -4   5 12239.9 1031.20   4
  -3  -4   5 11038.7 791.293   8
  -3  -4   5 11198.0 896.701   7
   3   4  -5 11413.8 584.204   3
  -3  -4   5 9884.01 629.266   6
   3   4  -5 12141.6 1000.33   1
   3   4  -3 11196.4 950.159   5
   3   4  -3 12205.9 972.551   1
   3   4  -3 9649.72 777.665   2
  -3  -4   3 10995.0 838.794   4
  -3  -4   3 11065.7 779.094   8
  -3  -4   3 10825.0 855.824   7
  -3  -4   3 10563.1 474.732   6
   3   4  -3 9896.18 578.903   3
   3   4  -1 79880.4 2804.14   5
  -3  -4   1 71328.1 2460.68   4
   3   4  -1 76899.0 2462.94   4
   3   4  -1 76864.9 2377.66   8
  -3  -4   1 77541.9 2702.01   7
  -3  -4   1 74428.6 1994.90   6
  -3  -4  -1 150.456 124.038   5
   3   4   1 164.832 107.263   4
  -3  -4  -1 62.1190 103.386   4
   3   4   1 186.231 150.304   8
   3   4   1 273.479 73.6327   2
  -3  -4  -1 40.1190 120.065   7
  -3  -4  -1 134.794 106.000   6
  -3  -4  -3 47719.1 2026.11   5
   3   4   3 47816.9 1843.68   4
  -3  -4  -3 50302.9 1977.58   7
   3   4   3 49129.8 1925.01   6
  -3  -4  -3 46872.8 1766.53   6
  -3  -4  -5 4851.34 605.255   5
  -3  -4  -5 4028.96 210.637   2
   3   4   5 4226.37 526.704   3
   3   4   5 4432.08 610.240   6
  -3  -4  -5 4232.21 502.075   7
   3   4   7 25364.8 1102.00   1
  -3  -4  -7 28139.6 1699.61   5
  -3  -4  -7 24334.3 1079.09   2
  -3  -4  -7 27655.0 1363.25   7
   3   4   7 24948.5 1610.03   6
  -3  -4  -7 26063.7 1492.06   6
   3   4   7 27391.2 1553.66   3
   3   4   9 14493.6 821.100   1
  -3  -4  -9 15610.8 1384.08   5
  -3  -4  -9 15552.2 976.909   7
  -3  -4 -11 483.798 317.676   5
  -3  -4 -11 406.742 212.544   2
  -3  -4 -11 509.505 186.517   7
   3   4  11 651.358 206.151   1
   3   4  11 1116.70 512.564   6
  -3  -4 -13 2632.59 688.210   5
   3   4  13 4091.23 866.095   6
   3   5 -11 334.463 232.520   1
  -3  -5  11 269.371 265.109   4
  -3  -5   9 988.137 389.312   4
   3   5  -9 893.151 313.534   1
   3   5  -7 1951.12 271.680   3
   3   5  -7 2191.07 457.193   1
  -3  -5   7 2506.77 390.822   6
  -3  -5   7 1924.77 475.556   4
  -3  -5   5 5127.10 626.482   7
  -3  -5   5 6171.52 714.946   4
   3   5  -5 5575.98 480.113   3
  -3  -5   5 6293.69 494.951   6
   3   5  -5 5907.40 735.903   1
   3   5  -3 13875.7 1100.61   5
   3   5  -3 11060.3 872.917   2
  -3  -5   3 12402.4 905.448   4
  -3  -5   3 11966.6 957.900   7
  -3  -5   3 13104.5 620.463   6
   3   5  -3 13664.2 792.226   3
   3   5  -1 13314.7 865.518   8
   3   5  -1 13877.7 1033.39   5
  -3  -5   1 11844.6 799.883   4
   3   5  -1 11974.8 770.635   2
  -3  -5   1 12689.7 972.945   7
  -3  -5   1 11021.2 655.990   6
  -3  -5  -1 51484.1 2192.87   5
   3   5   1 54178.8 2193.52   5
   3   5   1 52243.6 1914.80   4
   3   5   1 52525.4 1606.49   2
   3   5   1 57635.4 2150.72   8
  -3  -5  -1 58840.0 2280.49   7
  -3  -5  -1 48585.7 1859.58   6
  -3  -5  -3 7327.63 743.140   5
   3   5   3 7366.33 674.428   5
   3   5   3 7252.49 606.956   4
   3   5   3 8675.23 828.894   8
  -3  -5  -3 6045.60 581.958   6
  -3  -5  -3 6510.93 686.361   7
  -3  -5  -5 19197.0 1341.93   5
   3   5   5 19769.6 1136.94   5
   3   5   5 19225.9 1219.83   3
  -3  -5  -5 20869.5 1274.48   7
   3   5   5 21659.9 1395.29   6
   3   5   7 33311.1 1389.54   1
  -3  -5  -7 36429.5 2052.75   5
   3   5   7 34601.7 1839.73   3
  -3  -5  -7 35168.0 1710.16   7
  -3  -5  -7 33495.0 1797.52   6
   3   5   7 33391.1 1993.01   6
  -3  -5  -9 1016.43 437.082   5
   3   5   9 788.581 211.411   1
  -3  -5  -9 632.300 256.013   7
   3   5   9 1650.63 558.716   6
  -3  -5 -11 3258.42 723.637   5
  -3  -5 -11 3674.34 511.086   7
   3   5  11 4315.57 839.591   6
  -3  -5 -13 2952.61 727.854   5
   3   5  13 1907.98 646.550   6
  -3  -6   9-291.758 235.760   4
   3   6  -9 95.9032 173.768   1
  -3  -6   7 3811.46 637.638   4
   3   6  -7 4002.64 648.925   1
  -3  -6   7 4379.37 637.404   7
  -3  -6   5 3515.74 527.671   4
  -3  -6   5 5290.06 705.028   8
  -3  -6   5 3712.40 554.889   7
   3   6  -5 4789.02 683.885   1
   3   6  -5 3502.35 429.899   3
  -3  -6   5 4256.13 426.174   6
  -3  -6   3 6203.84 615.393   4
   3   6  -3 5590.07 639.494   2
  -3  -6   3 5463.13 672.583   7
  -3  -6   3 6410.18 755.401   8
   3   6  -3 5662.38 568.482   3
   3   6  -1 9800.35 886.152   5
  -3  -6   1 9985.08 920.091   7
  -3  -6   1 8304.61 651.151   4
   3   6  -1 8566.44 681.255   2
   3   6  -1 9873.53 803.025   8
   3   6   1 37188.2 1793.21   5
   3   6   1 36266.1 1473.86   4
   3   6   1 35196.2 1289.36   2
  -3  -6  -1 35381.6 1825.75   7
  -3  -6  -1 33100.1 1571.71   6
   3   6   1 37192.7 1783.77   8
  -3  -6  -3 9524.94 898.771   5
   3   6   3 10305.8 841.056   5
   3   6   3 8588.82 663.267   4
   3   6   3 10067.1 924.871   8
  -3  -6  -3 8581.89 856.439   7
  -3  -6  -5 32113.4 1816.54   5
   3   6   5 32616.4 1552.95   5
   3   6   5 29268.9 1474.44   4
  -3  -6  -5 30607.5 898.076   2
   3   6   5 36541.5 1977.34   8
  -3  -6  -5 33667.9 1774.63   7
  -3  -6  -5 28037.0 1590.25   6
  -3  -6  -7 1963.04 506.390   5
   3   6   7 2467.40 601.791   6
  -3  -6  -7 1677.88 413.695   6
  -3  -6  -9 13515.5 1378.11   5
   3   6   9 19439.3 1614.20   6
  -3  -6 -11 864.949 429.550   5
   3   6  11-15.8997 370.436   6
  -3  -6 -13 550.488 353.302   5
  -3  -6 -13 1076.75 306.235   7
   3   6  13 1197.63 493.288   6
   3   7  -9 29.9944 182.393   1
  -3  -7   7 111.545 142.713   4
  -3  -7   7-192.210 164.980   7
   3   7  -7-97.2860 207.725   1
   3   7  -5 7227.03 889.969   1
  -3  -7   5 5673.33 659.335   4
  -3  -7   5 5638.51 530.664   6
  -3  -7   5 5791.52 755.101   7
   3   7  -5 6146.83 633.469   3
   3   7  -3 3203.85 509.098   2
  -3  -7   3 3861.00 472.537   4
  -3  -7   3 4601.09 718.044   8
  -3  -7   3 3371.58 589.693   7
   3   7  -3 3792.83 513.076   3
  -3  -7   1 9358.35 672.248   4
   3   7  -1 8790.89 853.273   8
  -3  -7   1 10258.3 989.495   7
   3   7  -1 8774.76 734.950   2
   3   7   1 3776.79 394.908   2
   3   7   1 4945.89 620.213   5
   3   7   1 4053.55 411.798   4
  -3  -7  -1 3867.01 604.861   7
   3   7   1 4896.43 637.489   8
  -3  -7  -3 15062.8 1213.44   5
   3   7   3 17341.8 1274.35   8
   3   7   3 16877.8 1122.07   5
   3   7   3 15152.3 911.182   4
  -3  -7  -3 15542.6 1261.87   7
  -3  -7  -3 14292.5 1112.74   6
  -3  -7  -5 788.450 320.896   5
   3   7   5 624.363 221.519   4
   3   7   5 1133.73 405.113   8
  -3  -7  -5 795.563 141.737   2
  -3  -7  -5 725.637 306.576   6
  -3  -7  -7 31807.1 2060.37   5
   3   7   7 32548.2 2047.63   8
  -3  -7  -7 28507.8 1163.13   2
  -3  -7  -9 4185.03 789.262   5
   3   7   9 8406.03 1104.00   8
  -3  -7 -11 1081.94 454.442   5
   3   7  11 1139.11 496.285   6
  -3  -7 -13 541.304 382.246   5
  -3  -7 -13 888.879 316.314   7
   3   7  13 749.522 418.148   6
  -3  -8   7 544.916 288.632   7
   3   8  -7 972.165 369.888   1
   3   8  -5 145.285 118.015   3
   3   8  -5 783.251 344.680   1
  -3  -8   5 700.437 309.426   7
  -3  -8   3 4255.15 682.875   7
   3   8  -3 3837.09 566.281   3
  -3  -8   3 4340.51 480.313   4
   3   8  -1 2188.41 453.113   8
  -3  -8   1 1784.78 463.321   7
   3   8  -1 2147.24 388.040   2
  -3  -8  -1 5828.10 818.747   7
  -3  -8  -1 5883.71 725.373   6
   3   8   1 6456.44 797.681   8
  -3  -8  -3 1105.93 341.623   5
   3   8   3 1784.66 286.057   4
   3   8   3 2761.61 548.940   8
  -3  -8  -3 2506.96 555.880   7
  -3  -8  -3 1627.06 396.928   6
  -3  -8  -5 5168.87 779.265   5
  -3  -8  -5 5735.23 443.335   2
   3   8   5 4712.77 535.261   4
   3   8   5 6607.29 876.908   8
  -3  -8  -5 4406.80 720.428   6
  -3  -8  -7 4171.81 738.302   5
  -3  -8  -7 3815.86 396.077   2
   3   8   7 4295.22 756.237   8
  -3  -8  -9 2913.48 688.302   5
  -3  -8  -9 2750.77 393.285   2
   3   8   9 3305.24 701.377   8
  -3  -8 -11 2114.76 608.386   5
   3   8  11 1531.88 520.886   8
   3   8  13 547.599 467.305   8
   3   9  -5 350.500 227.564   1
  -3  -9   5 106.614 163.204   7
   3   9  -3 2622.27 494.422   3
  -3  -9   3 2164.87 534.347   7
  -3  -9   1 1918.67 496.948   7
   3   9  -1 2448.55 532.758   8
   3   9   1 3703.15 650.179   8
  -3  -9  -1 3069.88 627.592   7
  -3  -9  -1 3500.24 620.082   6
  -3  -9  -3 2776.18 552.711   5
   3   9   3 2853.55 603.097   8
  -3  -9  -3 4037.70 732.527   7
  -3  -9  -3 2793.49 571.813   6
  -3  -9  -5 873.093 363.096   5
   3   9   5 1222.72 439.326   8
  -3  -9  -5 949.279 220.680   2
  -3  -9  -7 612.365 326.012   5
   3   9   7 1021.56 416.552   8
  -3  -9  -9 1216.10 459.157   5
   3   9   9 2989.82 665.267   8
  -3  -9 -11 49.1276 262.728   5
   3   9  11 562.095 352.439   8
  -3 -10   5 418.663 267.338   7
   3  10  -3-69.7337 186.001   3
  -3 -10   3 396.125 271.655   7
   3  10  -1 1232.29 421.545   3
   3  10  -1 1433.74 446.593   8
  -3 -10   1 1373.20 480.927   7
   3  10   1 881.105 366.167   8
  -3 -10  -1 1397.82 468.059   7
   3  10   3 1737.60 532.729   8
  -3 -10  -3 2631.24 679.051   7
  -3 -10  -5 345.209 232.474   5
   3  10   5 993.525 388.041   8
   3  10   7 1472.50 497.579   8
  -3 -10  -7 1174.14 394.374   5
  -3 -10  -9 927.152 414.938   5
   3  10   9 562.146 369.391   8
  -3 -10 -11 189.686 314.531   5
   3  11  -1 522.420 312.541   3
   3  11   1 732.265 360.034   8
  -3 -11  -1 655.034 378.758   7
   3  11   3 615.893 356.325   8
  -3 -11  -3 1370.24 543.137   7
  -3 -11  -5 1374.16 444.632   5
  -3 -11  -5 958.326 429.568   7
   3  11   5 1231.18 476.375   8
  -3 -11  -7 368.715 316.233   5
   3  11   7 898.669 402.451   8
  -3 -11  -9 87.6249 224.009   5
  -3 -12  -5 399.230 316.796   5
  -3 -12  -7 558.645 322.075   5
  -4  10   4 414.541 324.099   3
  -4  10   2 914.839 431.116   3
  -4   9   8 1521.17 520.187   3
  -4   9   6 447.234 302.069   3
   4  -9  -6 941.357 455.132   2
  -4   9   4 633.918 323.590   3
   4  -9  -4 1636.72 550.662   2
  -4   9   2 1507.35 523.626   3
   4  -9  -2 1248.25 556.729   2
  -4   9   0 738.060 358.843   3
   4  -9   0 1627.55 562.550   2
  -4   9  -2 1768.01 510.724   3
   4  -9   2 2217.62 641.394   2
  -4   8  10 376.678 289.200   4
   4  -8  -8 475.489 215.601   1
  -4   8   8 224.096 221.029   4
   4  -8  -6 1691.32 387.459   1
  -4   8   6 1463.82 462.944   3
  -4   8   6 1961.19 484.046   4
  -4   8   4 2758.80 624.140   3
  -4   8   4 3034.77 509.486   4
   4  -8  -4 3019.93 695.495   2
  -4   8   2 1149.15 392.603   3
   4  -8  -2 948.892 386.719   2
   4  -8   0 10673.0 1268.07   2
  -4   8   0 7376.28 1004.35   3
   4  -8   2 7464.90 1075.02   2
  -4   8  -2 6495.87 938.195   3
  -4   8  -4 1850.22 487.959   3
   4  -8   4 714.939 380.416   2
  -4   8  -6 2400.81 607.513   3
   4  -8   6 3596.62 787.216   2
  -4   7  10 16.5723 203.743   4
  -4   7   8 1094.20 378.037   8
   4  -7  -8 1420.62 348.590   1
  -4   7   8 779.261 328.215   4
  -4   7   6 1028.69 362.627   3
   4  -7  -6 955.821 287.798   1
  -4   7   6 1157.52 367.652   4
   4  -7  -4 3184.18 462.336   1
  -4   7   4 3048.26 618.977   3
  -4   7   4 2833.36 498.095   4
   4  -7  -4 3039.87 662.595   2
   4  -7  -2 15957.8 665.895   5
  -4   7   2 17607.6 1169.24   4
   4  -7  -2 16819.2 1546.52   2
  -4   7   2 18682.0 1489.74   3
  -4   7   0 3907.99 667.627   3
  -4   7   0 4596.86 597.807   1
   4  -7   0 3876.32 731.633   2
   4  -7   2 6829.72 956.037   2
  -4   7  -2 6306.72 855.986   3
   4  -7   4 6384.35 959.840   2
  -4   7  -4 6478.41 881.839   3
  -4   7  -6 5033.54 801.030   3
   4  -7   6 4856.34 864.028   2
   4  -7   8 5659.89 979.998   2
  -4   7  -8 6549.40 960.718   3
   4  -6 -10 550.695 220.743   1
  -4   6  10 502.930 361.453   4
  -4   6   8 236.893 166.287   8
   4  -6  -8 1093.16 288.561   1
  -4   6   8 636.320 332.976   4
  -4   6   6 1191.37 380.254   3
   4  -6  -6 1072.63 271.581   1
  -4   6   6 886.351 303.917   4
   4  -6  -4 17407.7 1020.33   1
   4  -6  -4 14137.2 1107.09   8
  -4   6   4 15080.8 1185.69   4
  -4   6   4 17172.4 1358.86   3
  -4   6   2 209.028 215.660   3
   4  -6  -2 193.988 140.710   1
  -4   6   2 487.748 239.973   1
  -4   6   2 453.955 238.384   4
   4  -6  -2 217.572 240.568   2
  -4   6   0 3639.66 499.138   1
   4  -6   0 4635.27 758.192   2
  -4   6   0 5273.58 725.142   3
   4  -6   2 15122.1 1322.86   2
  -4   6  -2 14389.8 1209.23   3
   4  -6   4 8543.58 750.534   4
   4  -6   4 9053.03 1056.73   2
  -4   6  -4 7827.48 468.403   1
  -4   6  -4 9716.85 1020.13   3
  -4   6  -6 4615.27 730.268   3
   4  -6   6 5284.85 856.643   2
   4  -6   8 11241.4 1293.02   2
  -4   6  -8 11179.4 1200.17   3
   4  -5 -10 720.132 273.015   1
  -4   5  10 394.969 281.251   4
   4  -5  -8 2182.26 382.803   1
  -4   5   8 2881.19 494.087   8
  -4   5   8 3003.65 653.104   4
   4  -5  -6 2638.99 395.807   1
  -4   5   6 2403.29 474.033   3
  -4   5   6 1615.40 433.368   4
  -4   5   4 1578.52 436.639   3
   4  -5  -4 1899.67 337.112   1
  -4   5   4 1199.33 364.901   4
   4  -5  -4 1110.35 307.354   8
   4  -5  -2 20224.3 1003.70   1
  -4   5   2 18241.0 1230.44   4
   4  -5  -2 18255.3 1160.02   8
   4  -5  -2 20203.6 1525.03   2
  -4   5   2 17422.4 1229.90   1
  -4   5   2 18408.0 1322.14   3
   4  -5   0 10743.0 677.734   1
   4  -5   0 10227.7 423.907   5
  -4   5   0 10708.1 845.344   4
   4  -5   0 8627.42 724.695   4
   4  -5   0 11622.3 944.013   8
   4  -5   0 10518.3 1068.76   2
  -4   5   0 10303.0 960.987   3
   4  -5   2 6868.29 838.891   2
  -4   5  -2 5534.46 481.578   1
  -4   5  -2 6962.18 799.002   3
   4  -5   4 9784.80 814.788   4
   4  -5   4 10267.0 1061.03   2
  -4   5  -4 9309.01 441.985   1
  -4   5  -4 10191.1 989.493   3
  -4   5  -6 604.809 258.067   3
   4  -5   6 432.140 209.843   4
   4  -5   6 347.882 236.042   2
  -4   5  -8 4614.59 734.327   3
   4  -5   8 3783.56 714.767   2
  -4   5 -10 9204.35 1079.42   3
   4  -5  10 9326.96 1157.05   6
  -4   4  10 1191.22 486.426   4
   4  -4 -10 1146.64 319.697   1
   4  -4  -8 2055.53 367.749   1
  -4   4   8 2353.54 573.862   4
  -4   4   8 2370.33 409.274   8
  -4   4   6 476.596 232.594   3
  -4   4   6 53.3684 186.226   4
   4  -4  -6 138.837 159.573   1
   4  -4  -4 25455.5 1166.71   1
  -4   4   4 21314.3 1447.02   4
  -4   4   4 21019.2 1482.76   1
  -4   4   4 25004.7 1437.99   3
   4  -4  -4 21482.6 1166.05   8
   4  -4  -2 15322.4 804.717   1
  -4   4   2 11799.3 975.924   4
   4  -4  -2 13560.5 902.461   8
  -4   4   2 12857.1 996.701   1
  -4   4   2 13568.4 1031.19   3
  -4   4   0 1206.07 315.349   3
   4  -4   0 1333.48 198.565   5
   4  -4   0 1273.26 210.840   1
  -4   4   0 1002.22 279.999   4
   4  -4   0 1266.06 286.087   8
   4  -4   0 1374.57 290.082   4
   4  -4   0 790.541 295.725   2
   4  -4   2 17670.8 1096.59   4
  -4   4  -2 17706.1 869.525   1
  -4   4  -2 17749.9 1245.07   3
   4  -4   2 18836.4 1231.52   8
   4  -4   2 18256.9 1305.52   2
   4  -4   2 18997.1 799.816   1
  -4   4  -4 3817.82 565.283   3
   4  -4   4 3868.43 508.763   4
   4  -4   4 4388.35 666.620   2
  -4   4  -6 3695.16 320.715   5
  -4   4  -6 3276.14 565.855   3
   4  -4   6 3712.70 542.716   4
   4  -4   6 3540.79 634.019   2
  -4   4  -8 3168.29 590.379   3
  -4   4  -8 3599.40 405.327   5
   4  -4   8 4427.76 745.288   2
  -4   4 -10 3621.00 653.399   3
  -4   4 -10 4679.07 545.778   5
   4  -4  10 3696.32 718.890   6
  -4   4 -12 495.183 286.427   3
  -4   3  10 489.383 301.423   4
   4  -3 -10 159.045 150.274   1
   4  -3  -8 4365.29 548.225   1
  -4   3   8 5483.11 878.199   4
  -4   3   8 4901.02 480.518   3
   4  -3  -6 18768.0 1083.59   1
  -4   3   6 18016.5 1469.39   4
   4  -3  -6 15202.9 1250.51   6
  -4   3   6 13670.5 980.313   3
  -4   3   4 2048.54 410.902   1
  -4   3   4 2086.18 430.366   4
   4  -3  -4 2093.34 316.624   8
   4  -3  -4 1969.95 339.992   1
   4  -3  -4 1171.59 326.594   6
   4  -3  -2 23387.3 1047.17   1
  -4   3   2 21683.4 1327.78   4
   4  -3  -2 21692.9 1069.79   8
  -4   3   2 21887.9 1297.38   1
  -4   3   2 22329.5 1232.96   3
   4  -3   0 61201.7 2026.91   5
   4  -3   0 61566.0 1894.76   1
  -4   3   0 64422.8 2429.45   4
   4  -3   0 62512.4 2347.51   4
   4  -3   0 59093.5 2214.42   8
   4  -3   0 66093.2 2628.47   2
  -4   3   0 61125.8 2153.88   1
  -4   3   0 60469.3 2324.50   3
  -4   3  -2 202.008 90.5651   1
  -4   3  -2 127.444 167.272   3
   4  -3   2 270.187 165.652   3
   4  -3   2 131.871 78.1647   5
   4  -3   2 84.3284 75.1084   1
   4  -3   2-0.79477 111.562   4
   4  -3   2 18.0764 159.036   2
  -4   3  -4 30605.9 1130.51   5
  -4   3  -4 32808.1 1683.83   2
   4  -3   4 33476.6 1638.19   4
   4  -3   4 31343.3 1716.98   2
  -4   3  -4 30876.3 1655.17   3
   4  -3   4 32819.2 1714.00   3
  -4   3  -6 9506.40 620.813   5
  -4   3  -6 9519.37 928.378   3
   4  -3   6 8923.78 855.825   4
   4  -3   6 8448.03 906.051   2
  -4   3  -8 5334.90 530.284   5
   4  -3   8 4999.40 740.807   2
   4  -3   8 5260.34 363.240   7
  -4   3  -8 5563.19 732.292   3
   4  -3   8 5373.83 781.447   6
  -4   3 -10 3677.04 633.129   3
  -4   3 -10 3317.80 491.997   5
   4  -3  10 3237.40 655.255   6
  -4   3 -12 1542.89 467.313   3
  -4   3 -12 1574.82 393.420   5
   4  -3  12 1451.56 502.281   6
  -4   2  10 1424.29 555.179   4
   4  -2 -10 1085.31 319.679   1
  -4   2   8 2055.31 287.427   3
   4  -2  -8 4502.58 555.447   1
  -4   2   8 3736.50 746.729   4
  -4   2   8 3674.28 327.805   3
   4  -2  -8 2574.42 492.187   6
   4  -2  -6 5333.76 557.161   1
   4  -2  -6 4975.63 663.067   6
  -4   2   6 4527.26 434.132   3
  -4   2   4 24520.0 1526.95   4
   4  -2  -4 27009.7 1236.32   1
   4  -2  -4 21235.1 1337.87   6
  -4   2   4 24572.4 1123.44   3
  -4   2   4 24487.0 1495.44   1
  -4   2   2 49940.9 2163.70   4
   4  -2  -2 47794.6 1998.84   4
   4  -2  -2 54775.0 1801.77   1
   4  -2  -2 47723.3 1638.63   8
  -4   2   2 49020.0 1806.42   3
  -4   2   2 50354.5 2075.97   1
   4  -2   0 9257.58 655.802   5
  -4   2   0 11073.3 860.190   4
   4  -2   0 9745.36 778.391   4
   4  -2   0 10238.1 577.634   1
   4  -2   0 9355.20 656.889   8
  -4   2   0 8720.09 674.276   3
  -4   2   0 8636.15 646.399   1
  -4   2  -2 66965.4 2087.08   1
   4  -2   2 67718.6 2125.33   5
   4  -2   2 71221.8 2564.17   4
   4  -2   2 72352.8 1963.72   1
   4  -2   2 68733.5 2590.73   2
  -4   2  -2 68154.2 2466.74   3
   4  -2   2 71920.0 2499.70   3
  -4   2  -4 31465.5 1268.53   5
   4  -2   4 34396.3 1670.34   4
   4  -2   4 32215.4 1633.20   2
  -4   2  -4 34182.0 1627.98   3
  -4   2  -4 30985.6 1590.35   2
   4  -2   4 34441.0 1669.67   3
   4  -2   4 32955.4 842.463   1
  -4   2  -6 11464.3 749.289   5
  -4   2  -6 11211.8 940.247   3
   4  -2   6 11187.5 650.879   7
   4  -2   6 10354.0 955.122   2
  -4   2  -6 11672.8 962.744   2
  -4   2  -8 4547.02 637.093   3
  -4   2  -8 4734.76 531.028   5
   4  -2   8 3680.65 604.311   2
   4  -2   8 4767.45 303.241   7
   4  -2   8 3955.73 641.294   6
  -4   2 -10 13174.6 1042.01   5
  -4   2 -10 12391.1 1142.03   3
   4  -2  10 11859.5 1206.19   6
  -4   2 -12 2050.96 516.319   3
  -4   2 -12 2343.02 499.184   5
  -4   2 -14 628.987 310.405   5
  -4   1  10 809.865 446.487   4
   4  -1 -10 617.111 261.015   1
   4  -1  -8 2310.03 404.644   1
  -4   1   8 3143.58 691.673   4
   4  -1  -8 2393.07 436.903   6
   4  -1  -6 12971.8 901.363   1
  -4   1   6 10617.1 1133.36   4
   4  -1  -6 10081.8 861.263   6
  -4   1   4 1874.16 390.632   1
   4  -1  -4 1639.23 313.624   1
  -4   1   4 1366.39 384.836   4
  -4   1   4 1592.13 172.343   3
   4  -1  -4 826.720 256.343   6
  -4   1   2 21440.8 1333.62   4
   4  -1  -2 23231.4 1092.27   1
   4  -1  -2 22191.6 833.043   8
  -4   1   2 23209.7 946.799   3
  -4   1   2 22234.7 1264.72   1
   4  -1   0 176798. 4845.82   5
  -4   1   0 160032. 4727.68   1
  -4   1   0 179875. 5127.70   4
   4  -1   0 179709. 4587.67   1
  -4   1   0 177386. 4675.02   3
   4  -1   0 176992. 4652.91   3
   4  -1   2 51251.8 1822.76   5
   4  -1   2 51029.1 1980.41   2
  -4   1  -2 53029.7 1945.90   3
   4  -1   2 53755.2 1604.59   1
   4  -1   2 50875.1 1933.43   3
  -4   1  -4 2826.52 356.267   5
  -4   1  -4 2361.22 379.421   3
   4  -1   4 2417.04 295.671   5
   4  -1   4 2653.67 402.614   3
   4  -1   4 3599.83 490.423   4
   4  -1   4 2705.09 328.239   7
   4  -1   4 3199.73 209.811   1
   4  -1   4 2753.87 407.197   2
  -4   1  -6 9033.54 707.315   5
   4  -1   6 8740.67 793.323   2
  -4   1  -6 8490.43 764.986   2
   4  -1   6 9107.47 564.937   7
  -4   1  -6 9080.19 804.438   3
   4  -1   6 9371.73 859.622   3
   4  -1   6 9464.19 849.717   6
  -4   1  -8 21988.9 1277.74   5
  -4   1  -8 18624.4 1305.87   2
  -4   1  -8 21712.1 1406.05   3
   4  -1   8 22800.8 1485.68   6
  -4   1 -10 9998.50 971.751   5
  -4   1 -10 9871.88 996.359   3
   4  -1  10 10911.5 1135.25   6
  -4   1 -12 4312.34 699.285   5
   4  -1  12 6240.56 934.805   6
  -4   1 -12 4984.91 758.559   3
  -4   1 -14 436.109 321.843   5
  -4   1 -14 355.792 274.542   3
   4   0 -10 1237.08 348.983   1
  -4   0  10 1210.11 512.841   4
   4   0  -8 1165.11 316.228   1
  -4   0   8 1047.06 461.268   4
   4   0  -8 416.554 192.426   6
  -4   0   6 3190.78 615.724   4
   4   0  -6 3661.83 496.237   1
   4   0  -6 3787.56 459.968   6
  -4   0   4 26258.1 1545.88   1
  -4   0   4 26744.9 1604.29   4
   4   0  -4 26899.2 1329.83   1
   4   0  -4 26681.0 1470.47   7
   4   0  -4 25081.8 1224.47   6
  -4   0   2 23886.2 1340.99   1
  -4   0   2 23001.7 1353.43   4
   4   0  -2 24215.7 724.737   8
  -4   0   2 24027.5 828.199   3
   4   0  -2 23424.1 1176.72   1
   4   0   0 14100.7 914.899   5
  -4   0   0 15348.5 1016.32   4
  -4   0   0 13695.0 700.910   3
   4   0   0 14410.2 818.188   1
   4   0   0 13322.6 702.117   3
  -4   0  -2 39335.6 1636.27   5
  -4   0  -2 41220.5 1578.56   3
   4   0   2 40968.5 1594.43   2
   4   0   2 42214.2 1660.85   5
   4   0   2 41217.6 1636.83   7
   4   0   2 43094.2 1621.20   3
   4   0   2 42627.9 1486.78   1
  -4   0  -4 67430.8 2367.32   5
   4   0   4 69156.6 2269.07   5
   4   0   4 70811.6 2366.27   2
  -4   0  -4 70979.3 2459.69   3
   4   0   4 68911.8 2252.14   7
   4   0   4 71600.9 2488.24   3
   4   0   4 72752.7 2484.28   6
   4   0   4 68001.0 2033.22   1
   4   0   6 30847.7 878.749   1
  -4   0  -6 31118.2 1508.05   5
   4   0   6 28710.1 1449.34   2
  -4   0  -6 29100.6 1520.51   3
   4   0   6 31317.1 1212.81   7
   4   0   6 30827.0 1600.89   3
   4   0   6 30844.6 1561.60   6
  -4   0  -8 981.844 308.832   3
  -4   0  -8 1056.98 292.282   5
  -4   0  -8 750.950 241.189   2
   4   0   8 988.162 111.436   1
   4   0   8 1418.07 410.001   6
  -4   0 -10 10606.6 1014.24   5
  -4   0 -10 10146.3 985.743   3
   4   0  10 9819.26 1060.76   6
   4   0  10 8713.08 433.693   1
  -4   0 -12 3637.68 672.582   5
   4   0  12 5128.08 863.674   6
  -4   0 -12 4356.50 692.474   3
  -4   0 -14 745.262 360.516   5
  -4   0 -14 1409.33 447.897   3
   4   1 -10 833.875 284.753   1
  -4  -1  10 136.853 248.906   4
   4   1  -8 4198.15 573.112   1
  -4  -1   8 3972.08 818.769   4
  -4  -1   6 11302.0 1186.95   4
   4   1  -6 10876.2 878.473   1
   4   1  -6 9780.45 637.584   6
  -4  -1   4 1674.74 407.867   4
   4   1  -4 1595.99 343.156   7
   4   1  -4 2027.16 226.242   6
   4   1  -4 1289.04 303.559   1
   4   1  -2 2088.82 366.224   1
  -4  -1   2 2391.74 421.703   4
   4   1  -2 1745.97 199.158   6
   4   1   0 51209.6 2102.71   5
  -4  -1   0 54319.3 2154.52   4
  -4  -1   0 54312.4 1682.85   3
   4   1   0 51953.5 1638.93   3
   4   1   0 53471.2 1983.82   1
  -4  -1  -2 68917.1 2437.69   5
   4   1   2 70511.6 2451.93   5
   4   1   2 73377.2 2321.56   1
  -4  -1  -2 70981.5 2551.89   4
  -4  -1  -2 68956.6 2239.30   3
   4   1   2 69969.3 2382.65   7
   4   1   2 70179.9 2252.04   3
   4   1   2 68758.1 2136.50   6
   4   1   2 67311.1 2130.90   2
  -4  -1  -4 112231. 3508.89   5
   4   1   4 109459. 3374.11   5
   4   1   4 111952. 3200.24   2
  -4  -1  -4 113029. 3433.23   3
   4   1   4 113590. 3331.94   7
   4   1   4 115675. 3490.97   3
   4   1   4 113555. 3381.27   6
   4   1   6 967.487 270.636   3
  -4  -1  -6 1515.35 320.292   5
   4   1   6 1020.54 224.965   2
   4   1   6 1102.05 206.305   7
  -4  -1  -6 1204.97 240.185   2
   4   1   6 1077.37 296.511   6
  -4  -1  -6 1589.33 343.968   3
  -4  -1  -8 13729.5 1084.85   5
   4   1   8 12145.6 566.025   1
  -4  -1  -8 10844.4 867.100   2
  -4  -1  -8 13058.2 1020.04   3
   4   1   8 13442.9 1105.78   6
  -4  -1 -10 5089.40 740.446   5
  -4  -1 -10 4456.71 647.724   2
   4   1  10 4360.28 373.573   1
   4   1  10 3261.58 617.326   6
  -4  -1 -10 4229.57 630.734   3
  -4  -1 -12 3263.83 689.305   5
  -4  -1 -12 4043.57 677.482   3
   4   1  12 4331.48 771.886   6
  -4  -1 -14 529.533 390.362   5
   4   1  14 1885.37 594.050   6
   4   2 -10 828.789 323.457   1
  -4  -2  10 347.161 287.883   4
   4   2  -8 1295.14 351.045   1
  -4  -2   8 919.349 418.499   4
  -4  -2   6 2487.79 567.649   4
   4   2  -6 1993.15 386.985   1
   4   2  -4 18430.3 1232.87   7
  -4  -2   4 17713.5 1325.78   4
   4   2  -4 18045.5 1173.82   1
   4   2  -2 33293.8 1714.11   5
  -4  -2   2 32264.1 1642.66   4
   4   2  -2 32340.8 959.186   8
   4   2  -2 33661.3 1624.22   1
   4   2  -2 33343.5 1642.58   7
   4   2   0 2108.28 354.886   1
  -4  -2   0 1888.45 359.609   4
  -4  -2   0 1754.02 328.807   7
   4   2   0 1972.40 227.461   3
   4   2   0 2051.53 155.816   6
   4   2   0 1783.65 329.830   4
  -4  -2  -2 66334.7 2465.58   5
   4   2   2 71197.5 2499.91   5
   4   2   2 66893.4 2465.32   4
  -4  -2  -2 64707.2 2337.57   7
   4   2   2 69538.6 2414.93   7
   4   2   2 65722.7 2176.91   3
   4   2   2 66241.2 2043.50   6
   4   2   2 66399.6 1927.45   2
  -4  -2  -4 17738.6 1125.25   5
   4   2   4 19156.1 1054.15   5
   4   2   4 16892.5 732.476   2
  -4  -2  -4 18034.7 1028.97   3
  -4  -2  -4 16346.4 952.454   7
   4   2   4 18185.2 987.590   7
   4   2   4 18467.0 1054.35   3
   4   2   4 16852.7 971.925   6
  -4  -2  -6 67709.4 2252.19   2
  -4  -2  -6 73177.2 2845.00   5
   4   2   6 80920.5 2596.08   5
  -4  -2  -6 75042.3 2690.62   3
  -4  -2  -6 73543.7 2384.39   7
   4   2   6 77276.3 2792.84   3
   4   2   6 67652.6 2679.50   6
  -4  -2  -8 4108.15 644.908   5
   4   2   8 3364.29 297.025   1
  -4  -2  -8 3799.86 580.364   3
  -4  -2  -8 3933.11 374.935   7
   4   2   8 3498.59 571.667   6
  -4  -2 -10 9149.44 1032.36   5
   4   2  10 7664.03 540.885   1
  -4  -2 -10 7050.43 759.339   2
  -4  -2 -10 8814.65 910.779   3
   4   2  10 6100.47 844.693   6
  -4  -2 -12 7018.73 1030.20   5
   4   2  12 11849.7 1289.09   6
  -4  -2 -14-223.713 305.978   5
   4   2  14 118.582 351.447   6
   4   3 -10 87.0350 152.138   1
  -4  -3  10 239.069 258.017   4
  -4  -3   8 1987.02 587.818   4
   4   3  -8 3120.71 534.917   1
  -4  -3   6 5598.81 829.621   4
   4   3  -6 6221.74 738.387   1
  -4  -3   4 3834.39 611.763   4
   4   3  -4 3818.57 555.487   1
   4   3  -4 2914.38 478.982   7
   4   3  -2 11832.0 954.976   1
   4   3  -2 11038.6 972.028   5
  -4  -3   2 9738.15 855.127   4
  -4  -3   2 11404.3 899.387   7
   4   3  -2 11144.3 906.312   7
   4   3  -2 11784.0 491.617   3
   4   3  -2 11292.7 567.210   8
  -4  -3   0 39640.4 1817.73   4
   4   3   0 41976.3 1830.04   4
   4   3   0 44529.1 1638.30   8
  -4  -3   0 41273.2 1855.51   7
   4   3   0 43667.9 1488.79   3
   4   3   2 698.880 174.659   3
  -4  -3  -2 955.653 268.216   5
   4   3   2 922.716 239.064   7
   4   3   2 658.945 223.504   4
  -4  -3  -2 546.578 217.357   7
   4   3   2 681.896 194.673   6
   4   3   2 763.549 106.756   2
  -4  -3  -4 54890.1 2301.00   5
   4   3   4 55224.2 2254.81   4
  -4  -3  -4 55841.8 2157.09   7
   4   3   4 58782.2 2190.11   3
   4   3   4 50260.9 2033.83   6
  -4  -3  -4 55962.4 1977.96   6
  -4  -3  -6 27576.6 1620.72   5
   4   3   6 28577.1 1408.65   5
  -4  -3  -6 25543.7 995.469   2
  -4  -3  -6 27554.5 1339.20   7
   4   3   6 30867.8 1592.18   3
   4   3   6 23682.1 1402.27   6
  -4  -3  -6 27149.7 1421.19   6
   4   3   8 8503.61 547.282   1
  -4  -3  -8 9996.60 1036.07   5
  -4  -3  -8 7881.89 629.674   2
  -4  -3  -8 8927.61 681.614   7
   4   3   8 8398.93 925.432   6
  -4  -3  -8 9660.66 895.587   6
  -4  -3 -10 14631.9 1368.82   5
   4   3  10 12006.9 712.022   1
  -4  -3 -10 11732.7 956.963   2
  -4  -3 -10 12853.8 759.300   7
   4   3  10 11174.5 1207.14   6
  -4  -3 -12 1378.32 508.716   5
   4   3  12 2827.03 693.715   6
  -4  -3 -14 1584.53 590.644   5
   4   3  14 2005.11 663.265   6
   4   4 -10 702.712 294.237   1
  -4  -4  10 601.050 367.909   4
  -4  -4   8 651.436 357.044   4
   4   4  -8 1645.01 397.174   1
   4   4  -6 1345.36 385.167   1
  -4  -4   6 1427.48 442.493   4
  -4  -4   4 9013.44 913.180   4
  -4  -4   4 9278.98 873.555   7
   4   4  -4 8609.22 368.575   3
   4   4  -4 8814.84 371.428   3
   4   4  -4 10559.8 977.269   1
   4   4  -2 6294.49 754.543   5
   4   4  -2 7107.01 789.021   1
  -4  -4   2 6126.73 667.500   4
   4   4  -2 6008.34 480.373   8
   4   4  -2 6539.54 427.533   3
  -4  -4   2 7049.54 739.569   7
   4   4  -2 6277.62 690.206   7
   4   4   0 14039.7 1072.15   5
  -4  -4   0 12663.1 933.671   4
   4   4   0 13465.9 934.790   4
   4   4   0 15019.1 863.236   8
   4   4   0 12712.2 736.780   3
  -4  -4   0 14253.4 1037.70   7
   4   4   0 13752.4 995.645   7
  -4  -4  -2 8369.24 814.802   5
   4   4   2 8533.87 738.271   4
   4   4   2 9064.62 687.317   3
  -4  -4  -2 8952.55 796.824   7
  -4  -4  -2 8003.68 498.172   6
  -4  -4  -4 28091.1 1611.16   5
   4   4   4 30399.1 1508.48   5
  -4  -4  -4 28501.4 1514.07   7
   4   4   4 25666.9 1447.18   4
   4   4   4 28967.3 1483.00   3
   4   4   4 29574.6 1531.23   6
  -4  -4  -4 26921.3 1267.71   6
  -4  -4  -6 11494.4 1060.75   5
   4   4   6 12177.8 898.198   5
  -4  -4  -6 12623.5 948.499   7
   4   4   6 11542.7 966.657   3
   4   4   6 11195.6 1021.88   6
  -4  -4  -6 11608.2 893.408   6
   4   4   8 10048.8 661.190   1
  -4  -4  -8 12047.6 1167.49   5
  -4  -4  -8 11302.3 690.813   2
  -4  -4  -8 11246.2 873.010   7
   4   4   8 10459.0 1099.69   6
  -4  -4  -8 10131.3 936.416   6
  -4  -4 -10 177.244 236.018   5
   4   4  10 193.459 121.209   1
  -4  -4 -10 335.460 180.320   7
   4   4  10 567.459 452.479   6
  -4  -4 -12 9587.52 1287.44   5
  -4  -4 -12 8393.78 641.256   7
  -4  -4 -14 1097.79 508.758   5
   4   4  14 1929.62 682.475   6
  -4  -5  10 245.334 264.360   4
  -4  -5   8 794.184 418.815   4
   4   5  -8 442.658 258.921   1
  -4  -5   6 7551.21 936.731   4
   4   5  -6 8161.30 930.057   1
   4   5  -4 187.537 96.6960   3
  -4  -5   4 71.4779 174.450   4
   4   5  -4-66.5588 117.229   2
  -4  -5   4-54.3436 148.235   7
   4   5  -4 116.955 207.970   1
   4   5  -2 7596.88 665.326   2
  -4  -5   2 7511.10 745.070   4
   4   5  -2 8116.40 637.423   8
  -4  -5   2 9524.16 892.713   7
   4   5   0 8416.19 838.229   5
  -4  -5   0 7392.68 689.747   4
   4   5   0 7222.58 516.775   2
   4   5   0 6577.23 640.923   4
   4   5   0 7952.11 686.024   8
  -4  -5   0 7352.35 334.411   6
  -4  -5   0 6912.45 761.241   7
  -4  -5  -2 28807.7 1661.73   5
   4   5   2 31332.9 1667.64   5
   4   5   2 27231.1 1439.07   4
   4   5   2 34871.5 1675.95   8
   4   5   2 25485.4 1298.95   3
  -4  -5  -2 31333.5 1686.32   7
  -4  -5  -2 28199.6 1186.05   6
  -4  -5  -4 968.981 315.085   5
   4   5   4 670.227 232.621   5
   4   5   4 986.839 266.030   4
  -4  -5  -4 727.530 271.709   7
   4   5   4 948.839 302.970   6
   4   5   4 983.156 271.522   3
  -4  -5  -4 1129.12 255.406   6
  -4  -5  -6 22244.0 1573.25   5
   4   5   6 21324.4 1360.71   4
   4   5   6 23155.2 1433.92   3
  -4  -5  -6 23397.4 1417.81   7
   4   5   6 23464.5 1585.81   6
  -4  -5  -6 22032.0 1330.49   6
  -4  -5  -8 444.281 331.879   5
   4   5   8 318.074 140.642   1
  -4  -5  -8 282.557 107.839   2
  -4  -5  -8-0.97733 138.939   7
   4   5   8 107.121 279.273   6
  -4  -5 -10 5057.86 877.927   5
  -4  -5 -10 4418.58 515.613   2
  -4  -5 -10 4408.52 578.165   7
   4   5  10 3752.22 805.346   6
  -4  -5 -12 1834.89 602.813   5
  -4  -5 -12 1648.67 337.403   7
  -4  -5 -14 925.294 475.118   5
   4   5  14 956.627 553.788   6
   4   6  -8 1784.67 458.799   1
  -4  -6   8 429.460 276.998   4
  -4  -6   6 722.207 302.975   4
  -4  -6   6 584.182 268.754   7
   4   6  -6 960.913 348.758   1
   4   6  -4 11651.5 1149.61   1
  -4  -6   4 10777.2 970.231   4
  -4  -6   4 10784.5 1046.69   7
   4   6  -4 10544.0 704.944   3
  -4  -6   2 637.875 232.841   4
   4   6  -2 293.804 176.470   8
   4   6  -2 513.613 194.737   2
  -4  -6   2 800.749 295.497   7
  -4  -6   0 10827.0 837.124   4
   4   6   0 10048.4 662.255   2
   4   6   0 10971.1 833.773   4
   4   6   0 10986.1 866.949   8
  -4  -6   0 11505.3 1036.26   7
  -4  -6   0 9810.93 572.839   6
  -4  -6  -2 3328.26 560.413   5
   4   6   2 2860.22 425.467   4
   4   6   2 4590.60 607.831   8
  -4  -6  -2 2813.05 520.649   7
  -4  -6  -2 2764.54 364.786   6
  -4  -6  -4 12551.7 1144.57   5
   4   6   4 12053.9 926.174   4
   4   6   4 11168.6 898.227   3
  -4  -6  -4 13132.5 1102.02   7
  -4  -6  -6 6847.91 893.495   5
   4   6   6 6092.85 709.645   4
  -4  -6  -6 7601.08 842.625   7
   4   6   6 8965.76 979.557   6
  -4  -6  -6 7399.80 777.152   6
  -4  -6  -8 10178.4 1168.00   5
  -4  -6  -8 8466.42 373.356   2
  -4  -6  -8 9726.56 941.388   7
   4   6   8 9142.04 1095.23   6
  -4  -6 -10-34.8218 221.715   5
  -4  -6 -10 342.628 204.992   7
   4   6  10 28.2029 328.234   6
  -4  -6 -12 689.038 419.010   5
  -4  -6 -12 763.179 270.555   7
   4   6  12 1511.69 554.830   6
  -4  -7   6 2083.14 482.218   4
  -4  -7   6 2657.97 539.619   7
   4   7  -6 2975.73 617.954   1
   4   7  -4 1624.91 322.747   3
  -4  -7   4 1571.94 358.838   4
   4   7  -4 2120.46 538.922   1
  -4  -7   4 1574.41 415.989   7
  -4  -7   2 3849.13 517.772   4
   4   7  -2 4131.19 535.234   2
   4   7  -2 3897.60 541.342   8
  -4  -7   2 2898.86 567.218   7
   4   7   0 4170.51 579.937   8
   4   7   0 3129.31 382.472   2
  -4  -7   0 3051.14 597.261   7
  -4  -7   0 3293.68 415.590   6
   4   7   2 4296.74 518.020   4
   4   7   2 4564.71 663.280   8
  -4  -7  -2 4276.42 670.116   7
  -4  -7  -2 2959.42 432.633   6
  -4  -7  -4 5983.85 813.304   5
   4   7   4 6220.97 654.020   4
   4   7   4 7527.74 893.288   8
  -4  -7  -4 7200.79 878.630   7
  -4  -7  -4 5234.33 638.906   6
  -4  -7  -6 6971.36 944.116   5
   4   7   6 6199.11 709.927   4
   4   7   6 9766.77 1117.87   8
  -4  -7  -6 7192.66 880.707   7
  -4  -7  -6 6966.42 799.404   6
  -4  -7  -8 6213.18 938.730   5
   4   7   8 5941.19 958.779   8
  -4  -7  -8 4862.04 747.076   7
  -4  -7 -10 456.220 288.384   5
  -4  -7 -10 794.870 316.914   7
   4   7  10 123.380 302.002   6
  -4  -7 -12 1511.18 580.899   5
  -4  -7 -12 1260.43 371.981   7
   4   7  12 535.663 414.390   6
   4   8  -6 61.4630 187.743   1
  -4  -8   6 192.269 168.822   7
   4   8  -4 2207.72 572.289   1
  -4  -8   4 1786.37 370.224   4
  -4  -8   4 2047.46 506.896   7
   4   8  -2 3321.32 508.382   3
  -4  -8   2 3532.04 483.834   4
   4   8  -2 3265.88 542.821   8
  -4  -8   2 4662.46 736.478   7
   4   8   0 529.872 239.720   8
  -4  -8   0 1011.23 377.112   7
   4   8   2 5959.64 597.584   4
   4   8   2 5581.57 765.613   8
  -4  -8  -2 6122.31 846.716   7
  -4  -8  -4 1563.29 444.458   5
   4   8   4 1341.31 303.295   4
   4   8   4 814.321 375.717   8
  -4  -8  -4 1071.01 372.808   7
  -4  -8  -4 1269.34 346.836   6
  -4  -8  -6 3716.93 713.091   5
   4   8   6 3387.99 528.304   4
   4   8   6 3877.63 717.834   8
  -4  -8  -6 2998.52 636.124   7
  -4  -8  -8 1887.86 538.445   5
   4   8   8 2984.72 672.924   8
  -4  -8  -8 1743.42 470.672   7
  -4  -8 -10 1187.02 503.893   5
   4   8  10 2015.13 581.465   8
  -4  -8 -10 1603.22 446.134   7
  -4  -8 -12 465.272 370.831   5
   4   8  12 1379.91 598.303   8
  -4  -8 -12 500.539 287.903   7
  -4  -9   6 16.9162 141.296   7
   4   9  -4 486.472 324.172   1
  -4  -9   4 185.560 217.509   7
   4   9  -2 525.492 227.302   3
  -4  -9   2 516.268 305.841   7
  -4  -9   0 2459.99 599.022   7
   4   9   0 2861.40 562.069   8
   4   9   2 334.424 297.138   8
  -4  -9  -2 568.828 312.553   7
  -4  -9  -4 1926.83 508.173   5
   4   9   4 2250.18 545.318   8
  -4  -9  -4 1891.28 558.981   7
  -4  -9  -6 731.218 359.431   5
   4   9   6 283.248 256.646   8
  -4  -9  -6 780.438 361.189   7
  -4  -9  -8 1579.75 526.757   5
   4   9   8 2169.15 610.858   8
  -4  -9  -8 1021.57 435.838   7
  -4  -9 -10 283.084 233.441   5
   4   9  10 643.742 446.469   8
  -4  -9 -10 150.913 214.699   7
  -4  -9 -12 237.185 211.328   7
  -4 -10   2 1329.97 477.879   7
  -4 -10   0 342.912 287.011   7
   4  10   0 912.050 371.089   8
  -4 -10  -2 1023.53 439.639   7
   4  10   2 1495.54 462.965   8
  -4 -10  -4 916.088 382.226   5
   4  10   4 1431.22 489.182   8
  -4 -10  -4 1487.17 513.247   7
  -4 -10  -6 777.696 385.342   5
   4  10   6 1521.12 502.897   8
  -4 -10  -6 1306.63 523.442   7
  -4 -10  -8 565.953 376.584   5
   4  10   8 865.603 397.029   8
  -4 -10  -8 405.001 262.702   7
  -4 -10 -10 409.662 325.747   5
  -4 -10 -10-21.7203 210.012   7
  -4 -10 -12-252.133 308.110   7
   4  11   0 265.462 223.487   8
   4  11   2 666.580 349.876   8
   4  11   4 311.680 352.103   8
  -4 -11  -6 750.185 377.641   5
   4  11   6 1231.65 502.473   8
  -4 -11  -8 664.729 415.364   5
  -4 -12  -6 7.02062 227.101   5
  -5   9   7-97.2758 209.721   3
  -5   9   5 520.294 328.320   3
  -5   9   3 80.8572 263.036   3
  -5   9   1 125.507 231.228   3
  -5   8   7 636.224 334.161   3
   5  -8  -7 247.942 187.399   1
  -5   8   7 521.052 287.174   4
   5  -8  -5 940.797 309.535   1
  -5   8   5 884.130 375.635   3
  -5   8   5 993.560 345.189   4
   5  -8  -5 1057.11 478.456   2
  -5   8   3 2158.24 568.071   3
  -5   8   3 1080.13 331.294   4
   5  -8  -3 1104.05 474.027   2
  -5   8   1 2994.70 708.923   3
   5  -8  -1 3420.61 785.454   2
  -5   8  -1 294.020 265.585   3
   5  -8   1 366.909 288.754   2
  -5   8  -3 1641.67 511.740   3
   5  -8   3 2024.19 602.286   2
  -5   7   9 525.425 325.672   4
  -5   7   7 750.181 366.582   3
   5  -7  -7 831.335 282.620   1
  -5   7   7 832.807 395.655   4
  -5   7   5 3280.56 679.334   3
   5  -7  -5 2805.07 464.541   1
  -5   7   5 2804.28 562.665   4
   5  -7  -3 5189.08 599.651   1
  -5   7   3 4645.79 796.252   3
  -5   7   3 5473.14 745.326   4
   5  -7  -3 6111.26 1000.34   2
  -5   7   1-32.1653 249.129   3
   5  -7  -1-120.008 231.670   2
   5  -7   1 6663.53 1042.10   2
  -5   7  -1 7160.28 949.839   3
  -5   7  -3 4877.60 807.551   3
   5  -7   3 4796.82 862.777   2
  -5   7  -5 683.604 337.486   3
   5  -7   5 1368.78 445.217   2
  -5   6   9 474.145 345.345   4
  -5   6   7 653.161 309.801   3
   5  -6  -7 1460.61 337.290   1
  -5   6   7 741.612 342.780   4
  -5   6   5 1238.41 428.557   3
   5  -6  -5 2023.26 354.968   1
  -5   6   5 1333.60 403.857   4
  -5   6   3 2164.60 519.226   3
   5  -6  -3 2883.47 417.326   1
  -5   6   3 2323.94 482.621   4
   5  -6  -3 2302.26 599.073   2
   5  -6  -1 13645.9 905.530   1
  -5   6   1 13980.7 1130.08   4
   5  -6  -1 16582.5 1533.14   2
  -5   6   1 14125.3 1297.28   3
  -5   6  -1 3717.50 671.767   3
   5  -6   1 3591.56 497.254   4
  -5   6  -1 2784.93 440.085   1
   5  -6   1 4003.43 729.805   2
   5  -6   3 5687.39 656.376   4
   5  -6   3 5883.50 927.556   2
  -5   6  -3 6370.68 874.456   3
   5  -6   5 6119.63 936.341   2
  -5   6  -5 6987.16 945.692   3
  -5   6  -7 2621.95 596.158   3
   5  -6   7 2528.03 635.651   2
   5  -5  -9 632.897 229.089   1
  -5   5   9 756.388 389.417   4
  -5   5   7 148.416 125.553   3
  -5   5   7 352.917 237.153   4
  -5   5   5 1031.26 340.020   3
  -5   5   5 716.438 305.021   4
   5  -5  -5 1639.01 325.117   1
   5  -5  -3 10796.6 751.774   1
  -5   5   3 9542.14 968.342   4
   5  -5  -3 8117.70 772.342   8
  -5   5   3 10127.5 1045.21   3
  -5   5   1 962.140 317.762   3
   5  -5  -1 1411.55 258.106   5
   5  -5  -1 1579.99 286.316   1
  -5   5   1 1636.27 370.868   4
   5  -5  -1 1624.99 354.507   8
   5  -5  -1 1916.53 502.194   2
  -5   5   1 1362.32 348.247   1
   5  -5   1 6158.74 497.370   1
   5  -5   1 5085.43 615.523   4
  -5   5  -1 4709.31 704.353   3
   5  -5   1 5159.12 788.324   2
   5  -5   3 15114.6 1131.41   4
   5  -5   3 14867.6 1345.32   2
  -5   5  -3 16388.7 1342.33   3
  -5   5  -3 15925.1 808.390   1
  -5   5  -5 2766.14 575.664   3
   5  -5   5 2472.26 576.190   2
   5  -5   7 7401.52 1001.35   2
  -5   5  -7 8234.61 993.017   3
   5  -5   9 4124.08 798.860   6
  -5   5  -9 4042.97 734.959   3
   5  -5   9 4770.48 890.031   2
  -5   4   9 144.847 252.566   4
   5  -4  -9 195.632 202.340   1
  -5   4   7 1391.96 346.937   3
  -5   4   7 1650.90 512.166   4
   5  -4  -7 1740.64 356.386   1
  -5   4   5 458.521 216.524   3
  -5   4   5 597.354 300.389   4
   5  -4  -5 704.873 220.899   1
  -5   4   3 1619.32 394.995   3
  -5   4   3 1589.22 422.713   4
   5  -4  -3 1578.79 300.880   8
   5  -4  -3 1930.94 317.230   1
   5  -4  -1 8467.17 693.015   5
   5  -4  -1 9570.42 639.011   1
  -5   4   1 8862.59 913.010   4
   5  -4  -1 9730.01 856.857   4
   5  -4  -1 8893.71 767.763   8
   5  -4  -1 10357.0 1086.96   2
  -5   4   1 9985.51 907.700   1
  -5   4   1 10369.1 944.096   3
   5  -4   1 3289.73 326.056   5
   5  -4   1 3876.31 359.966   1
   5  -4   1 3898.78 535.769   4
   5  -4   1 3684.27 528.691   8
  -5   4  -1 4142.50 611.413   3
   5  -4   1 3330.92 620.294   2
  -5   4  -3 2526.81 288.135   1
  -5   4  -3 2293.80 477.793   3
   5  -4   3 2935.84 492.379   4
   5  -4   3 1981.64 477.873   2
   5  -4   5 17842.0 1288.51   4
   5  -4   5 19021.0 1474.47   2
  -5   4  -5 16849.9 1346.46   3
  -5   4  -7 4502.87 403.895   5
  -5   4  -7 4274.81 702.375   3
   5  -4   7 3620.67 688.724   2
  -5   4  -9 4093.47 704.075   3
   5  -4   9 3206.45 669.292   2
   5  -4   9 4040.70 748.613   6
  -5   3   9 303.815 333.972   4
   5  -3  -9 832.985 293.266   1
  -5   3   7 1650.60 312.704   3
  -5   3   7 1916.27 534.487   4
   5  -3  -7 1797.95 358.934   1
   5  -3  -5 4389.58 519.982   1
  -5   3   5 3839.10 679.966   4
  -5   3   5 3505.13 471.705   3
   5  -3  -5 2661.12 517.400   6
   5  -3  -3 5942.52 563.246   1
  -5   3   3 5315.68 716.344   4
   5  -3  -3 5257.99 487.080   8
  -5   3   3 6237.57 641.541   3
  -5   3   1 2288.33 409.536   3
   5  -3  -1 2550.31 385.939   5
   5  -3  -1 3436.37 386.944   1
  -5   3   1 3323.70 559.064   4
   5  -3  -1 2373.76 365.083   8
   5  -3  -1 2525.35 453.588   4
  -5   3   1 2639.33 442.187   1
   5  -3   1 3376.63 384.480   5
  -5   3  -1 3472.30 510.948   3
   5  -3   1 3755.20 350.006   1
   5  -3   1 4291.16 570.375   4
  -5   3  -1 3069.07 508.796   4
   5  -3   1 3220.48 462.773   8
   5  -3   1 5124.72 683.599   2
   5  -3   3 17295.8 813.946   5
   5  -3   3 18500.1 704.266   1
   5  -3   3 19133.0 1277.97   4
   5  -3   3 16563.7 1268.88   2
  -5   3  -3 16865.3 1211.34   3
   5  -3   3 15753.5 1169.24   3
  -5   3  -5 5347.00 460.860   5
   5  -3   5 5667.97 711.382   4
   5  -3   5 5568.11 748.020   2
  -5   3  -5 5430.27 708.372   3
  -5   3  -7 5941.09 548.235   5
   5  -3   7 5818.83 792.992   2
   5  -3   7 7163.39 576.587   7
  -5   3  -7 6740.21 824.138   3
  -5   3  -9 4795.25 736.036   3
  -5   3  -9 4334.34 526.647   5
   5  -3   9 3595.98 686.232   2
   5  -3   9 4019.08 700.703   6
  -5   3 -11 3333.93 654.626   3
   5  -3  11 2205.77 572.250   6
  -5   2   9 1200.00 493.887   4
   5  -2  -9 674.999 289.887   1
  -5   2   7 2852.84 716.956   4
   5  -2  -7 2594.24 507.877   6
   5  -2  -7 3993.17 545.565   1
   5  -2  -5 1702.51 336.254   1
  -5   2   5 1589.23 468.536   4
  -5   2   5 2004.30 272.254   3
   5  -2  -5 1311.77 377.745   6
  -5   2   3 6112.35 794.368   4
   5  -2  -3 7141.39 615.909   1
   5  -2  -3 5648.65 433.379   8
  -5   2   3 6571.60 558.768   3
  -5   2   3 7511.18 830.119   1
   5  -2  -1 33884.0 1656.20   5
  -5   2   1 34094.2 1881.85   4
   5  -2  -1 37317.3 1831.18   4
   5  -2  -1 39026.2 1494.85   1
   5  -2  -1 34561.4 1453.45   8
  -5   2   1 38416.2 1621.42   3
  -5   2   1 37176.4 1790.22   1
   5  -2   1 11882.0 806.510   5
  -5   2  -1 11363.9 980.274   4
   5  -2   1 12734.8 1005.47   4
   5  -2   1 12748.3 691.404   1
   5  -2   1 11688.3 1000.12   2
  -5   2  -1 11769.7 878.183   3
   5  -2   1 11081.7 850.468   3
  -5   2  -3 483.343 219.916   3
   5  -2   3 282.995 165.619   3
   5  -2   3 185.080 87.4957   5
   5  -2   3 243.552 179.415   4
   5  -2   3 55.2305 155.139   2
   5  -2   3 135.494 83.6448   1
  -5   2  -5 7177.06 597.722   5
   5  -2   5 6619.24 770.352   4
   5  -2   5 6501.22 746.439   2
   5  -2   5 5292.80 544.896   7
  -5   2  -5 7046.55 757.283   3
  -5   2  -7 10216.6 791.715   5
   5  -2   7 11786.4 1074.56   2
   5  -2   7 10349.0 697.930   7
  -5   2  -7 12018.1 1044.77   3
   5  -2   7 12441.9 1131.23   6
  -5   2  -9 13470.8 1017.23   5
  -5   2  -9 14605.2 1260.63   3
   5  -2   9 13934.2 1306.30   6
  -5   2 -11 1204.65 415.809   3
  -5   2 -11 1434.29 374.791   5
   5  -2  11 1806.95 518.704   6
  -5   1   9 447.494 402.129   4
   5  -1  -9 419.424 235.357   1
   5  -1  -7 1473.67 346.607   1
  -5   1   7 1104.18 449.994   4
  -5   1   5 13010.8 1261.02   4
   5  -1  -5 12845.9 936.106   1
   5  -1  -5 9934.72 880.734   6
  -5   1   3 14231.5 1162.61   1
  -5   1   3 13564.2 1199.24   4
   5  -1  -3 14860.1 570.207   8
   5  -1  -3 16443.0 995.099   1
  -5   1   3 15856.5 726.533   3
   5  -1  -3 13308.1 953.428   6
   5  -1  -1 5557.89 628.982   5
  -5   1   1 6455.53 680.206   1
  -5   1   1 6248.18 733.861   4
   5  -1  -1 5976.78 687.298   4
   5  -1  -1 5700.37 454.610   8
   5  -1  -1 6572.39 561.484   1
   5  -1  -1 6247.77 689.794   7
  -5   1   1 6061.74 507.056   3
   5  -1   1 13927.0 957.179   5
  -5   1  -1 14891.8 1120.12   4
   5  -1   1 15290.0 1131.87   4
   5  -1   1 15190.7 1063.77   2
   5  -1   1 16353.6 1062.90   7
   5  -1   1 15355.9 815.153   1
  -5   1  -1 14535.0 905.995   3
   5  -1   1 14523.5 908.999   3
   5  -1   3 21475.6 1117.08   5
   5  -1   3 23289.0 1423.38   4
   5  -1   3 20873.9 1253.94   2
   5  -1   3 22647.8 906.278   1
   5  -1   3 21529.5 1199.32   7
  -5   1  -3 20198.6 1191.38   3
   5  -1   3 20160.5 1223.85   3
  -5   1  -5 5661.65 568.864   5
   5  -1   5 5433.87 499.171   5
   5  -1   5 4964.24 671.117   4
   5  -1   5 4462.89 571.589   2
   5  -1   5 5071.08 289.616   1
   5  -1   5 4996.94 510.804   7
  -5   1  -5 4732.25 589.898   3
   5  -1   5 4692.31 608.329   3
  -5   1  -7 11419.9 880.811   5
   5  -1   7 10113.4 932.493   2
  -5   1  -7 10559.0 945.539   2
   5  -1   7 11040.8 719.687   7
  -5   1  -7 10971.0 982.950   3
   5  -1   7 12117.0 1062.14   6
  -5   1  -9 4214.30 583.468   5
  -5   1  -9 5328.06 745.855   3
   5  -1   9 4477.24 727.294   6
  -5   1 -11 5031.96 732.657   5
  -5   1 -11 5451.11 797.382   3
   5  -1  11 7057.83 978.064   6
  -5   1 -13 580.034 294.834   5
  -5   1 -13 732.180 353.036   3
   5   0  -9 1294.51 371.270   1
  -5   0   9 625.467 435.916   4
   5   0  -7 4659.87 607.211   1
  -5   0   7 3386.34 756.765   4
   5   0  -5 1041.19 292.470   1
  -5   0   5 1403.87 450.794   4
   5   0  -5 1025.38 232.164   6
  -5   0   3 4262.28 666.459   4
   5   0  -3 3897.59 483.699   1
   5   0  -3 4212.91 463.004   6
   5   0  -1 28142.8 1552.21   5
  -5   0   1 26702.3 1583.70   4
   5   0  -1 27104.3 1549.27   4
   5   0  -1 30540.1 1586.53   7
  -5   0   1 28302.7 1116.72   3
   5   0  -1 27818.6 1351.51   1
   5   0  -1 27575.4 1100.10   3
   5   0   1 36878.8 1738.84   5
  -5   0  -1 38741.4 1903.42   4
   5   0   1 41106.1 1947.99   4
   5   0   1 36552.3 1733.12   7
  -5   0  -1 35234.3 1481.57   3
   5   0   1 38462.8 1536.87   1
   5   0   1 36191.6 1503.42   3
  -5   0  -3 9598.82 788.683   5
   5   0   3 10334.6 784.481   5
   5   0   3 9680.70 896.869   4
   5   0   3 8380.03 703.276   2
   5   0   3 9539.15 773.164   7
  -5   0  -3 9129.90 746.861   3
   5   0   3 8897.55 743.649   3
   5   0   3 9457.86 624.743   1
  -5   0  -5 13054.5 944.296   5
   5   0   5 13449.4 851.461   5
   5   0   5 13813.4 1129.21   4
   5   0   5 13174.0 925.949   2
   5   0   5 12354.4 842.922   7
  -5   0  -5 12373.2 972.454   3
   5   0   5 13387.8 1017.30   3
   5   0   5 13388.3 679.259   1
   5   0   5 13215.0 977.083   6
  -5   0  -7 446.548 231.858   3
  -5   0  -7 318.612 197.900   5
   5   0   7 317.419 69.7127   1
   5   0   7 234.417 72.6142   1
   5   0   7 360.060 196.966   2
   5   0   7 118.087 86.8571   7
  -5   0  -7 78.3410 116.147   2
   5   0   7 327.156 211.818   6
  -5   0  -9 11881.3 1057.23   5
  -5   0  -9 10084.6 968.546   2
  -5   0  -9 14151.7 1175.52   3
   5   0   9 11232.8 1114.49   6
  -5   0 -11 2958.61 580.221   5
   5   0  11 3424.03 682.755   6
  -5   0 -11 3400.38 632.318   3
  -5   0 -13 547.205 329.844   5
   5   0  13-285.734 336.649   6
  -5   0 -13 503.406 311.060   3
  -5   0 -15 1231.89 512.633   5
   5   1  -9 801.214 302.929   1
  -5  -1   9 722.211 426.994   4
   5   1  -7 67.6983 164.360   1
  -5  -1   7 491.173 339.021   4
  -5  -1   5 6876.74 943.325   4
   5   1  -5 6365.03 695.773   1
   5   1  -5 7226.34 442.223   6
  -5  -1   3 14293.2 1203.76   4
   5   1  -3 13475.0 985.403   1
   5   1  -3 13086.3 594.400   6
   5   1  -1 6503.57 724.674   5
  -5  -1   1 5247.96 673.347   4
   5   1  -1 6646.52 724.977   4
   5   1  -1 5961.55 685.528   7
   5   1  -1 7702.35 691.108   1
   5   1  -1 6458.10 420.085   3
   5   1   1 13361.2 998.664   5
   5   1   1 13685.4 977.499   7
  -5  -1  -1 11866.2 1002.84   4
   5   1   1 14397.5 1082.16   4
  -5  -1  -1 12563.2 774.578   3
   5   1   1 12022.4 747.497   3
   5   1   1 13012.5 704.800   6
   5   1   1 12792.8 885.717   1
  -5  -1  -3 42979.3 1912.86   5
   5   1   3 43621.6 1873.55   5
   5   1   3 44429.1 2074.03   4
   5   1   3 41488.0 1628.40   2
  -5  -1  -3 39251.6 1721.01   3
   5   1   3 43360.6 1863.24   7
   5   1   3 40779.9 1734.87   3
   5   1   3 41559.1 1645.68   6
   5   1   3 42340.3 1696.89   1
  -5  -1  -5 5713.93 654.334   5
   5   1   5 5643.22 566.979   5
   5   1   5 5451.07 701.907   4
   5   1   5 5234.13 510.962   2
  -5  -1  -5 6283.49 648.295   3
   5   1   5 5241.79 546.715   7
   5   1   5 5778.23 643.359   3
   5   1   5 4968.91 572.167   6
  -5  -1  -7 6823.95 758.379   5
   5   1   7 5886.24 597.674   2
  -5  -1  -7 5847.87 702.125   3
   5   1   7 6730.35 563.386   7
   5   1   7 6398.66 742.760   6
   5   1   7 6016.86 387.096   1
  -5  -1  -9 3905.25 615.019   5
   5   1   9 4223.34 308.168   1
  -5  -1  -9 3709.85 540.368   2
  -5  -1  -9 5251.20 713.466   3
   5   1   9 4927.01 726.745   6
  -5  -1 -11 3481.46 668.554   5
   5   1  11 2845.60 633.618   6
  -5  -1 -11 3668.01 656.365   3
  -5  -1 -13 1287.56 444.744   5
  -5  -1 -13 1292.52 454.668   3
   5   1  13 1337.05 529.544   6
  -5  -1 -15 355.307 253.919   5
   5   2  -9 703.665 275.807   1
  -5  -2   9 624.919 452.684   4
   5   2  -7 2578.22 487.118   1
  -5  -2   7 2885.15 726.383   4
  -5  -2   5 1523.74 455.741   4
   5   2  -5 1248.02 331.756   1
   5   2  -3 2972.30 488.179   1
  -5  -2   3 2173.17 467.836   4
   5   2  -1 34378.1 1830.48   5
  -5  -2   1 32050.9 1747.54   4
   5   2  -1 30769.5 1666.63   4
   5   2  -1 33497.4 1188.73   8
   5   2  -1 32496.5 1749.51   7
   5   2  -1 32207.2 1105.01   3
   5   2  -1 33911.4 1689.03   1
   5   2   1 8264.75 764.107   1
   5   2   1 9193.12 851.972   5
  -5  -2  -1 8500.53 824.517   4
   5   2   1 8758.15 832.496   4
   5   2   1 8980.05 822.290   7
   5   2   1 9062.64 623.811   3
   5   2   1 8785.48 515.058   6
  -5  -2  -3 15781.3 1133.92   5
   5   2   3 16148.4 1110.17   5
   5   2   3 16351.3 1169.14   4
   5   2   3 16003.2 796.581   2
  -5  -2  -3 16661.2 1024.81   3
   5   2   3 17356.2 1099.95   7
   5   2   3 15903.4 985.529   3
   5   2   3 15120.6 876.558   6
  -5  -2  -5 20600.7 1338.82   5
   5   2   5 19912.2 1196.79   5
   5   2   5 18815.2 921.719   2
   5   2   5 20963.5 1413.22   4
   5   2   5 20186.2 1153.27   7
   5   2   5 21586.7 1295.17   3
   5   2   5 21125.5 1218.96   6
  -5  -2  -5 21860.8 1277.96   3
  -5  -2  -7 9484.39 935.349   5
   5   2   7 11372.4 856.106   5
  -5  -2  -7 10149.6 733.747   2
  -5  -2  -7 8551.32 858.527   3
   5   2   7 9300.47 891.869   6
   5   2   9 3742.69 320.358   1
  -5  -2  -9 3873.55 676.169   5
  -5  -2  -9 3073.54 462.170   2
  -5  -2  -9 3857.52 621.944   3
   5   2   9 3192.74 605.641   6
  -5  -2 -11 6316.17 933.147   5
  -5  -2 -11 6871.39 885.493   3
   5   2  11 4715.39 806.808   6
  -5  -2 -13-259.749 276.775   5
   5   2  13-30.3685 241.004   6
   5   3  -9 834.727 310.822   1
  -5  -3   9 555.569 334.427   4
  -5  -3   7 297.731 237.108   4
   5   3  -7 329.457 215.083   1
   5   3  -5 1645.56 419.822   1
  -5  -3   5 2045.33 515.531   4
  -5  -3   3 12062.0 1114.51   4
   5   3  -3 14157.9 1135.93   1
   5   3  -1 1356.63 187.298   3
  -5  -3   1 1309.52 349.976   4
   5   3  -1 986.115 180.732   8
   5   3  -1 1123.45 305.840   4
   5   3  -1 1649.35 399.279   1
   5   3   1 27816.4 1628.89   5
  -5  -3  -1 28421.5 1622.89   4
   5   3   1 28408.8 1601.74   4
  -5  -3  -1 30904.5 1640.45   7
   5   3   1 32713.3 1676.64   7
   5   3   1 30142.9 1284.86   3
   5   3   1 31049.1 1039.08   6
  -5  -3  -3 6908.74 783.172   5
   5   3   3 7501.89 770.524   5
   5   3   3 8699.28 839.149   4
   5   3   3 6914.23 391.306   2
  -5  -3  -3 7135.85 733.598   7
   5   3   3 8278.60 760.229   7
   5   3   3 7861.14 685.423   3
   5   3   3 7306.33 621.562   6
  -5  -3  -5 32181.3 1831.52   5
   5   3   5 36282.1 1731.69   5
   5   3   5 33197.4 1848.57   4
  -5  -3  -5 33960.4 1653.20   7
   5   3   5 37256.1 1780.22   3
   5   3   5 30228.1 1562.67   6
  -5  -3  -7 2645.43 510.645   5
  -5  -3  -7 1758.22 338.080   7
   5   3   7 2474.44 486.056   6
  -5  -3  -9 7973.80 996.863   5
   5   3   9 7106.56 500.667   1
  -5  -3  -9 6796.03 627.660   2
  -5  -3  -9 7625.18 643.175   7
   5   3   9 6568.99 848.377   6
  -5  -3 -11 3117.82 700.853   5
   5   3  11 3097.09 696.662   6
  -5  -3 -13 2664.78 706.312   5
   5   3  13 2396.57 683.100   6
  -5  -4   9 591.311 412.115   4
  -5  -4   7 1656.76 515.170   4
   5   4  -7 1966.43 476.221   1
   5   4  -5 2203.55 487.576   1
  -5  -4   5 2463.47 567.232   4
   5   4  -3 568.158 257.071   1
  -5  -4   3 524.846 271.358   4
   5   4  -1 33774.4 1868.17   1
  -5  -4   1 26060.5 1629.78   4
   5   4  -1 29088.2 1602.01   4
   5   4  -1 29176.6 1244.37   8
  -5  -4   1 32037.1 1764.18   7
   5   4  -1 30007.3 1159.39   3
  -5  -4  -1 4866.36 633.562   4
   5   4   1 4487.88 591.347   4
   5   4   1 6109.60 631.851   8
  -5  -4  -1 4234.05 620.139   7
   5   4   1 4304.59 458.343   3
  -5  -4  -3 17527.4 1318.40   5
   5   4   3 19603.9 1311.98   4
  -5  -4  -3 19043.9 1283.85   7
   5   4   3 18150.3 1127.41   3
   5   4   3 20240.0 1148.80   6
  -5  -4  -5 4337.96 681.899   5
   5   4   5 3725.70 592.883   4
  -5  -4  -5 4248.99 578.640   7
   5   4   5 4341.35 583.563   3
   5   4   5 3998.46 593.132   6
  -5  -4  -7 8502.96 973.165   5
  -5  -4  -7 9806.96 872.307   7
   5   4   7 7778.16 933.745   6
   5   4   9 1984.19 285.887   1
  -5  -4  -9 1803.98 492.711   5
  -5  -4  -9 2090.83 367.404   7
  -5  -4  -9 2014.66 299.784   2
   5   4   9 2662.60 610.343   6
  -5  -4 -11 7545.54 1109.98   5
  -5  -4 -11 6564.16 619.916   7
   5   4  11 7043.01 1050.90   6
  -5  -4 -13 431.147 291.874   5
   5   4  13 1659.70 597.601   6
  -5  -5   9 129.305 245.556   4
   5   5  -7 736.151 346.287   1
  -5  -5   7 339.475 277.825   4
  -5  -5   5 344.350 271.826   4
   5   5  -5 1205.57 399.492   1
   5   5  -3 4019.09 550.409   2
  -5  -5   3 4461.88 648.463   4
  -5  -5   3 3599.83 616.061   7
   5   5  -3 4515.91 326.458   3
   5   5  -3 5592.69 802.465   1
   5   5  -1-202.660 302.331   1
   5   5  -1 18.0009 120.214   8
   5   5  -1 157.739 125.091   2
  -5  -5   1 3.55312 202.112   7
   5   5  -1 35.6009 84.4998   3
  -5  -5  -1 12410.3 1000.08   4
   5   5   1 10335.4 553.614   2
   5   5   1 10876.4 937.144   4
   5   5   1 13404.6 955.085   8
  -5  -5  -1 12056.6 1081.18   7
   5   5   1 10294.0 749.981   3
  -5  -5  -3 7086.78 868.780   5
   5   5   3 7583.69 792.676   4
   5   5   3 8303.83 923.536   8
   5   5   3 6902.09 673.863   3
  -5  -5  -3 8259.24 869.280   7
  -5  -5  -3 7206.03 537.258   6
  -5  -5  -5 6195.83 831.972   5
   5   5   5 6787.81 777.978   4
  -5  -5  -5 5787.12 741.595   7
   5   5   5 6079.38 699.691   3
   5   5   5 6389.63 780.701   6
  -5  -5  -7 6070.28 866.033   5
  -5  -5  -7 6677.02 785.822   7
   5   5   7 6796.31 911.435   6
  -5  -5  -7 5656.67 683.562   6
  -5  -5  -9 1328.32 480.633   5
  -5  -5  -9 1302.86 345.080   7
  -5  -5  -9 1303.91 175.972   2
   5   5   9 1699.81 500.884   6
  -5  -5 -11 2368.03 683.339   5
  -5  -5 -11 1946.20 395.695   7
   5   5  11 2206.30 672.161   6
  -5  -5 -13 1979.78 659.408   5
   5   5  13 1061.90 560.427   6
   5   6  -7 456.831 296.861   1
  -5  -6   7 622.461 307.559   4
  -5  -6   5 2022.44 503.401   4
  -5  -6   5 1448.78 414.846   7
   5   6  -5 2598.06 593.752   1
   5   6  -3 125.807 195.843   1
  -5  -6   3 61.4021 188.326   4
  -5  -6   3 98.3816 175.543   7
  -5  -6   1 1160.03 331.321   4
   5   6  -1 1565.07 321.030   8
   5   6  -1 1343.18 273.565   2
  -5  -6   1 1345.97 401.669   7
   5   6  -1 1174.81 228.334   3
   5   6   1 5294.20 649.983   4
   5   6   1 5314.27 363.403   2
   5   6   1 5283.19 536.762   3
  -5  -6  -1 6430.33 813.571   7
   5   6   1 6656.81 726.656   8
  -5  -6  -3 1189.51 372.944   5
   5   6   3 1755.31 391.875   4
   5   6   3 2354.91 502.931   8
  -5  -6  -3 1435.14 405.209   7
   5   6   3 1357.71 304.369   3
  -5  -6  -3 1549.73 255.992   6
  -5  -6  -5 10362.1 1130.72   5
   5   6   5 10734.8 998.791   4
   5   6   5 13633.8 1357.85   8
  -5  -6  -5 12498.2 1155.73   7
  -5  -6  -5 10312.2 844.534   6
  -5  -6  -7 1767.50 510.330   5
  -5  -6  -7 2034.99 471.713   7
   5   6   7 1426.57 485.021   6
  -5  -6  -7 1958.61 419.478   6
  -5  -6  -9 1093.26 415.730   5
  -5  -6  -9 1526.71 398.370   7
   5   6   9 742.700 403.728   6
  -5  -6 -11 1479.74 553.632   5
  -5  -6 -11 643.822 255.078   7
   5   6  11 1350.77 553.274   6
  -5  -6 -13 1354.90 552.947   5
   5   6  13 1144.85 561.918   6
   5   7  -5 207.160 234.699   1
  -5  -7   5 768.065 323.336   4
  -5  -7   5 570.426 290.091   7
  -5  -7   3 1722.80 405.237   4
   5   7  -3 1906.89 527.057   1
  -5  -7   3 1606.48 473.934   7
  -5  -7   1 1211.90 326.707   4
   5   7  -1 1550.77 344.052   8
  -5  -7   1 1478.51 415.304   7
   5   7   1 384.909 202.594   8
   5   7   1 124.906 118.906   4
  -5  -7  -1-22.9198 214.560   7
   5   7   1 274.778 141.305   3
  -5  -7  -3 6183.59 888.813   5
   5   7   3 6822.79 749.408   4
   5   7   3 8507.62 933.184   8
  -5  -7  -3 7391.36 924.579   7
  -5  -7  -3 6380.46 584.923   6
  -5  -7  -5 1115.76 421.081   5
   5   7   5 1431.19 362.399   4
   5   7   5 1535.16 502.297   8
  -5  -7  -5 1279.78 438.287   7
  -5  -7  -5 1165.99 302.979   6
  -5  -7  -7 3409.67 718.117   5
   5   7   7 4944.22 886.592   8
  -5  -7  -7 2816.15 577.456   7
  -5  -7  -9 1309.64 491.274   5
  -5  -7  -9 911.140 331.015   7
   5   7   9 157.541 285.791   6
  -5  -7 -11 862.588 457.606   5
  -5  -7 -11 941.201 338.778   7
   5   7  11 1364.43 557.975   6
   5   7  13-79.9318 309.534   6
  -5  -8   5 587.988 290.995   7
   5   8  -3 206.598 252.491   1
  -5  -8   3 946.673 285.955   4
  -5  -8   3 889.669 338.022   7
   5   8  -1 808.707 288.727   8
  -5  -8   1 370.005 246.824   7
   5   8   1 2086.70 484.316   8
  -5  -8  -1 2966.14 610.961   7
   5   8   3 1078.69 388.064   8
  -5  -8  -3 1212.62 412.399   7
  -5  -8  -5 2364.45 581.609   5
   5   8   5 1387.45 444.053   8
  -5  -8  -5 2335.87 578.730   7
  -5  -8  -7 1348.56 506.283   5
   5   8   7 1925.82 581.909   8
  -5  -8  -7 1497.06 473.363   7
  -5  -8  -9 446.828 333.694   5
   5   8   9 1238.57 537.700   8
  -5  -8  -9 1484.70 451.973   7
  -5  -8 -11 601.852 408.570   5
   5   8  11 986.449 494.655   8
  -5  -8 -11 805.329 345.860   7
  -5  -9   3 31.0939 217.997   7
   5   9  -1 650.787 288.337   8
  -5  -9   1 309.889 237.059   7
   5   9   1 1063.76 386.665   8
  -5  -9  -1 1328.43 455.059   7
   5   9   3 1141.48 400.685   8
  -5  -9  -3 904.834 394.804   7
  -5  -9  -5 460.843 291.802   5
   5   9   5 1157.66 459.259   8
  -5  -9  -5 1210.76 449.053   7
  -5  -9  -7 623.347 399.438   5
   5   9   7 843.877 457.502   8
  -5  -9  -7 1223.52 449.032   7
  -5  -9  -9 830.375 433.899   5
   5   9   9 423.415 331.774   8
  -5  -9  -9-40.3522 213.150   7
  -5  -9 -11 626.061 352.054   7
   5  10   1 532.171 295.207   8
   5  10   3 875.539 358.111   8
  -5 -10  -3 1078.68 462.776   7
  -5 -10  -5 363.452 267.604   5
   5  10   5 873.737 421.370   8
  -5 -10  -5 967.550 435.871   7
  -5 -10  -7 255.428 353.292   5
   5  10   7 461.180 325.246   8
  -5 -10  -7-142.874 235.633   7
  -5 -10  -9 184.953 248.223   7
   5  11   1 676.434 344.014   8
   5  11   3 480.576 361.469   8
  -6   8   4 558.172 310.978   3
   6  -8  -4 318.944 179.994   1
  -6   8   2-298.404 252.195   3
  -6   8   0-348.809 262.943   3
   6  -7  -6 362.250 202.187   1
  -6   7   6 312.132 253.187   4
  -6   7   4 408.170 201.863   3
   6  -7  -4 457.572 200.555   1
  -6   7   4 294.563 237.299   4
  -6   7   2 636.682 298.108   3
   6  -7  -2 917.394 267.771   1
  -6   7   2 799.691 318.966   4
   6  -7  -2 1516.15 540.759   2
  -6   7   0 1300.65 468.398   3
   6  -7   0 1950.99 624.007   2
  -6   7  -2 101.838 165.576   3
   6  -7   2 312.232 298.651   2
  -6   7  -4 393.882 285.126   3
   6  -7   4 554.389 327.558   2
  -6   6   8 505.277 324.109   4
   6  -6  -6 797.634 257.321   1
  -6   6   6 496.915 288.338   4
  -6   6   4 705.947 322.133   3
   6  -6  -4 1598.49 322.894   1
  -6   6   4 1644.01 475.191   4
   6  -6  -4 1704.51 579.401   2
  -6   6   2 2341.55 576.339   3
   6  -6  -2 2563.49 389.721   1
   6  -6  -2 2825.88 731.953   2
  -6   6   2 2142.54 518.073   4
   6  -6   0 876.017 231.436   1
   6  -6   0 889.689 439.229   2
  -6   6  -2 3917.03 720.057   3
   6  -6   2 4340.78 832.551   2
  -6   6  -4 2164.94 550.080   3
   6  -6   4 2827.71 688.951   2
  -6   6  -6 725.519 315.158   3
   6  -6   6 863.237 405.535   2
  -6   5   8 503.955 314.140   4
  -6   5   6 396.683 297.730   4
   6  -5  -6 1093.30 287.503   1
  -6   5   4 712.830 294.782   3
  -6   5   4 723.056 325.216   4
   6  -5  -4 1398.54 312.695   1
  -6   5   2 3279.27 631.716   3
   6  -5  -2 4594.13 500.017   1
  -6   5   2 3029.12 611.510   4
   6  -5  -2 5505.64 915.852   2
   6  -5   0 2942.66 373.043   1
  -6   5   0 3033.95 614.113   3
  -6   5   0 3724.12 630.730   4
  -6   5   0 2795.73 499.257   1
   6  -5   0 3620.00 729.541   2
  -6   5  -2 2958.71 575.687   3
   6  -5   2 3963.29 756.433   2
   6  -5   2 4163.60 413.508   1
   6  -5   4 5748.86 908.118   2
  -6   5  -4 6073.05 860.234   3
  -6   5  -6 4315.16 739.010   3
   6  -5   6 3905.79 779.231   2
  -6   5  -8 791.446 355.042   3
   6  -5   8 933.676 398.038   2
  -6   4   8 50.8972 303.801   4
   6  -4  -8 573.183 257.832   1
  -6   4   6 684.842 367.815   4
   6  -4  -6 691.085 256.464   1
  -6   4   4 995.305 309.557   3
  -6   4   4 1292.66 420.058   4
   6  -4  -4 1798.08 350.294   1
  -6   4   2 1346.13 367.291   3
   6  -4  -2 800.108 254.985   5
  -6   4   2 974.019 364.598   4
   6  -4  -2 1235.59 295.187   8
   6  -4  -2 1443.80 289.518   1
   6  -4   0 3470.82 445.215   5
  -6   4   0 4005.25 629.007   3
   6  -4   0 4243.17 427.437   1
  -6   4   0 4088.68 652.670   4
   6  -4   0 3079.92 485.440   8
   6  -4   0 4048.88 731.654   2
  -6   4   0 3421.80 534.500   1
   6  -4   2 8183.19 540.515   1
   6  -4   2 8123.71 1004.75   2
  -6   4  -2 7494.42 905.633   3
   6  -4   4 8081.56 1005.45   2
  -6   4  -4 8598.49 967.311   3
  -6   4  -6 3438.16 625.348   3
   6  -4   6 2491.50 583.229   2
  -6   4  -8 1907.55 488.395   3
   6  -4   8 1611.19 478.543   2
   6  -4  10 679.787 389.769   2
  -6   3   8 315.621 267.773   4
   6  -3  -8 434.013 239.991   1
  -6   3   6 415.035 304.951   4
   6  -3  -6 720.350 265.172   1
  -6   3   4 731.805 224.676   3
  -6   3   4 364.612 211.418   4
   6  -3  -4 873.902 247.717   1
   6  -3  -2 5131.81 635.609   5
  -6   3   2 6983.01 887.187   4
   6  -3  -2 5788.49 575.816   1
   6  -3  -2 5696.21 551.830   8
  -6   3   2 6600.14 702.656   3
  -6   3   0 3221.13 511.247   3
   6  -3   0 2707.87 431.984   5
   6  -3   0 3431.40 407.002   1
  -6   3   0 3165.61 495.834   1
  -6   3   0 3124.27 601.921   4
   6  -3   0 3109.22 451.938   8
   6  -3   0 3299.20 616.250   2
  -6   3  -2 1550.63 380.168   3
   6  -3   2 1310.53 258.421   5
   6  -3   2 1434.14 222.893   1
   6  -3   2 1285.94 401.486   2
   6  -3   4 6575.07 361.563   1
   6  -3   4 5054.59 762.348   2
  -6   3  -4 6276.56 769.099   3
   6  -3   6 8497.61 1037.15   2
   6  -3   6 9021.70 801.817   7
  -6   3  -6 9453.88 1002.52   3
  -6   3  -8 4165.49 496.881   5
  -6   3  -8 4039.42 690.275   3
   6  -3   8 3927.45 702.994   2
   6  -3   8 3834.23 702.401   6
  -6   3 -10 1320.19 387.164   3
   6  -3  10 1662.50 521.053   6
  -6   2   8 912.435 495.945   4
   6  -2  -8 841.479 276.400   1
  -6   2   6 702.679 415.632   4
   6  -2  -6 1572.04 369.108   1
   6  -2  -4 4539.24 556.899   1
  -6   2   4 4246.04 752.781   4
  -6   2   4 4334.62 419.164   3
   6  -2  -4 2904.84 499.516   6
   6  -2  -2 904.393 244.137   1
  -6   2   2 469.672 176.641   3
   6  -2  -2 267.121 135.863   5
  -6   2   2 591.560 282.903   4
   6  -2  -2 419.407 133.412   8
   6  -2   0 2241.96 411.681   5
   6  -2   0 3231.70 390.513   1
  -6   2   0 2257.59 511.437   4
   6  -2   0 2168.26 345.905   8
  -6   2   0 3128.66 462.087   3
   6  -2   0 2546.21 525.367   2
   6  -2   2 8339.01 726.042   5
   6  -2   2 8075.21 559.493   1
   6  -2   2 7375.19 869.099   2
  -6   2  -2 6916.17 725.386   3
   6  -2   2 6528.07 704.706   3
   6  -2   4 5806.87 539.181   5
   6  -2   4 5579.62 375.764   1
   6  -2   4 5681.20 742.668   2
   6  -2   4 5066.81 614.003   7
  -6   2  -4 4811.38 651.748   3
  -6   2  -6 6568.99 644.793   5
   6  -2   6 6171.47 800.634   2
   6  -2   6 5557.08 605.475   7
  -6   2  -6 5922.01 754.479   3
  -6   2  -8 7475.25 737.046   5
   6  -2   8 7397.05 908.693   2
  -6   2  -8 7407.21 912.821   3
   6  -2   8 7870.09 957.966   6
  -6   2 -10 1748.38 481.624   3
  -6   2 -10 1304.01 345.899   5
   6  -2  10 1367.04 457.680   6
   6  -1  -8 179.724 189.023   1
  -6   1   8 457.074 366.578   4
   6  -1  -6 1207.87 335.565   1
  -6   1   6 1299.33 488.505   4
   6  -1  -4 824.489 263.312   1
  -6   1   4 337.421 262.906   4
   6  -1  -4 204.239 135.832   6
  -6   1   4 571.063 102.502   3
  -6   1   2 8134.51 953.495   4
   6  -1  -2 7951.18 496.448   8
  -6   1   2 8507.63 605.267   3
   6  -1   0 5909.69 697.208   5
  -6   1   0 6539.46 817.469   4
   6  -1   0 6183.91 570.654   1
  -6   1   0 6365.20 587.353   3
   6  -1   0 5950.17 569.004   3
  -6   1  -2 2286.67 399.772   3
   6  -1   2 2803.94 442.747   5
   6  -1   2 2478.47 328.014   1
   6  -1   2 2045.94 424.267   2
   6  -1   2 3368.54 479.635   3
   6  -1   4 6786.41 640.749   5
   6  -1   4 7143.11 763.299   2
   6  -1   4 6994.05 481.687   1
   6  -1   4 5699.74 646.516   7
  -6   1  -4 6545.65 714.773   3
  -6   1  -6 5312.19 630.192   5
   6  -1   6 5622.00 285.245   1
   6  -1   6 5517.28 706.502   2
   6  -1   6 5584.00 601.000   7
  -6   1  -6 5860.37 733.867   3
   6  -1   6 6071.96 756.574   6
  -6   1  -8 5146.83 649.591   5
   6  -1   8 6064.78 769.203   2
  -6   1  -8 5744.16 776.585   3
   6  -1   8 6595.35 844.330   6
  -6   1 -10 5058.45 694.474   5
  -6   1 -10 5128.02 788.207   3
   6  -1  10 4180.26 743.310   6
  -6   1 -12 208.466 188.022   5
   6  -1  12 883.982 412.060   6
   6   0  -8 446.576 258.076   1
  -6   0   8 295.487 275.335   4
   6   0  -6 1359.76 361.221   1
  -6   0   6 1315.52 492.056   4
  -6   0   4 6409.76 908.972   4
   6   0  -4 6070.27 687.941   1
   6   0  -2 1335.30 143.837   8
  -6   0   2 1520.09 429.572   4
   6   0  -2 1448.94 329.604   1
   6   0  -2 1344.23 278.422   6
  -6   0   2 1562.93 225.863   3
   6   0   0 2179.94 441.861   5
   6   0   0 1894.04 300.842   3
  -6   0   0 2855.08 568.313   4
  -6   0   0 2511.49 350.881   3
   6   0   0 2200.96 368.827   1
   6   0   2 15206.5 1119.61   5
   6   0   2 14930.2 1062.07   2
  -6   0  -2 15598.7 1007.85   3
   6   0   2 15138.9 918.582   1
   6   0   2 15121.4 995.837   3
  -6   0  -4 3019.00 478.881   3
   6   0   4 3428.75 474.735   5
  -6   0  -4 2423.99 434.497   5
   6   0   4 3068.14 478.950   3
   6   0   4 3008.78 460.212   7
   6   0   4 3307.92 377.726   1
   6   0   4 2775.77 446.659   2
   6   0   4 2875.08 450.645   6
  -6   0  -6 4720.83 615.417   5
   6   0   6 4425.72 523.372   5
   6   0   6 5111.84 625.636   2
   6   0   6 4088.01 515.720   7
  -6   0  -6 4765.39 646.777   3
   6   0   6 4510.01 378.858   1
   6   0   6 4638.80 635.809   6
  -6   0  -8 4683.06 653.745   5
   6   0   8 5095.44 658.829   2
  -6   0  -8 5748.22 694.926   2
  -6   0  -8 5418.22 732.686   3
   6   0   8 4553.17 494.438   7
   6   0   8 4282.20 695.202   6
  -6   0 -10 3575.56 617.929   5
   6   0  10 4520.69 767.087   6
  -6   0 -10 4841.22 746.141   3
  -6   0 -12 833.691 378.260   5
   6   0  12 2.01771 274.066   6
  -6   0 -12 983.244 400.610   3
  -6   0 -14 167.225 184.511   5
   6   1  -8 989.474 352.223   1
  -6  -1   8 788.407 449.334   4
   6   1  -6 1390.33 388.092   1
  -6  -1   6 239.481 249.436   4
  -6  -1   4 992.800 362.895   4
   6   1  -4 1305.12 341.113   1
  -6  -1   2 6454.81 845.253   4
   6   1  -2 8042.34 780.871   1
   6   1  -2 6741.71 468.250   6
  -6  -1   0 10723.5 1039.31   4
  -6  -1   0 11246.8 739.558   3
   6   1   0 11166.2 895.813   1
   6   1   0 10848.6 621.358   6
   6   1   0 10344.3 683.927   3
   6   1   2 474.095 182.917   3
   6   1   2 3.29567 168.782   5
  -6  -1  -2 669.635 328.921   4
   6   1   2 277.399 164.504   1
   6   1   2 11.8895 117.063   2
  -6  -1  -2 208.308 190.674   3
   6   1   2 8.06599 109.881   6
  -6  -1  -4 15227.2 1183.55   5
   6   1   4 17878.9 1196.09   5
   6   1   4 17186.1 1036.33   2
  -6  -1  -4 17036.5 1146.69   3
   6   1   4 17293.5 1174.62   7
   6   1   4 16244.6 1127.05   3
   6   1   4 17452.5 1081.96   6
   6   1   4 17670.3 1039.13   1
  -6  -1  -6 2026.93 441.431   5
   6   1   6 2836.77 441.891   5
   6   1   6 2089.11 324.096   1
   6   1   6 2041.50 350.319   2
   6   1   6 2369.66 400.235   7
   6   1   6 2251.21 430.573   6
  -6  -1  -6 2367.22 451.770   3
   6   1   8 4672.79 327.670   1
  -6  -1  -8 4643.29 670.310   5
  -6  -1  -8 5496.44 733.667   3
   6   1   8 4069.49 483.568   7
   6   1   8 4515.45 695.484   6
   6   1   8 4830.19 440.892   1
  -6  -1 -10 2986.17 585.261   5
  -6  -1 -10 2832.90 574.582   3
   6   1  10 1430.65 479.558   6
  -6  -1 -12 677.784 341.067   5
  -6  -1 -12 1360.31 470.529   3
   6   1  12 695.914 329.780   6
  -6  -1 -14-165.237 215.756   5
   6   2  -8 862.407 342.631   1
  -6  -2   8 78.7949 301.868   4
  -6  -2   6 595.465 359.916   4
   6   2  -6 860.484 320.400   1
  -6  -2   4 4043.39 744.401   4
   6   2  -4 3173.39 534.706   1
  -6  -2   2 5122.54 764.128   4
   6   2  -2 7586.69 801.398   1
   6   2   0 64.9527 87.4613   3
  -6  -2   0 123.848 201.814   4
   6   2   0 153.926 181.168   1
   6   2   0-35.4405 74.5608   6
   6   2   2 19015.2 1044.26   2
   6   2   2 19220.9 1097.66   3
   6   2   2 20268.4 1001.46   6
   6   2   2 21712.1 1312.10   1
   6   2   4 626.756 226.108   3
  -6  -2  -4 1100.51 363.780   5
   6   2   4 875.495 277.705   7
   6   2   4 702.602 197.897   2
   6   2   4 1040.83 284.829   1
  -6  -2  -4 823.297 277.845   3
   6   2   4 835.664 244.356   6
  -6  -2  -6 6950.01 846.693   5
   6   2   6 7303.36 599.089   2
  -6  -2  -6 7346.07 801.174   3
   6   2   6 7575.84 734.069   7
   6   2   6 7200.46 762.216   6
   6   2   8 1432.47 225.807   1
  -6  -2  -8 1468.77 434.058   5
  -6  -2  -8 2052.04 493.342   3
   6   2   8 1867.86 466.666   6
  -6  -2 -10 3329.47 662.663   5
  -6  -2 -10 3760.94 672.609   3
   6   2  10 2875.59 630.770   6
  -6  -2 -12 706.118 358.034   5
  -6  -2 -12 899.989 391.796   3
   6   2  12 329.488 320.452   6
  -6  -2 -14 185.646 263.650   5
  -6  -3   8 274.252 329.709   4
  -6  -3   6 323.213 308.519   4
   6   3  -6 478.710 275.358   1
   6   3  -4 1301.65 389.064   1
  -6  -3   4 753.146 334.417   4
  -6  -3   2 2867.70 587.032   4
   6   3  -2 3876.54 611.169   1
  -6  -3   0 23712.5 1601.77   4
   6   3   0 23904.2 1192.94   8
   6   3   0 22278.9 1027.77   3
   6   3   0 23964.3 1543.40   1
   6   3   2 99.9131 121.651   3
   6   3   2-85.9038 257.954   1
   6   3   2 116.598 116.058   2
   6   3   2 269.206 173.423   6
  -6  -3  -4 6478.57 820.191   5
   6   3   4 5506.98 398.947   2
   6   3   4 6924.64 714.002   3
   6   3   4 6044.95 615.788   6
  -6  -3  -6 4451.33 719.335   5
   6   3   6 3354.29 526.180   6
  -6  -3  -8 2163.52 523.987   5
   6   3   8 1915.02 463.532   6
  -6  -3 -10 3626.13 711.715   5
   6   3  10 3489.58 689.266   6
  -6  -3 -12 1999.51 608.056   5
   6   3  12 1696.66 555.463   6
  -6  -4   6 500.973 339.113   4
   6   4  -6 469.811 286.332   1
   6   4  -4 1008.44 369.351   1
  -6  -4   4 722.672 296.916   4
   6   4  -2 3435.22 642.288   1
   6   4  -2 2034.48 227.983   8
  -6  -4   2 2865.91 567.204   4
   6   4   0 2783.27 540.518   1
  -6  -4   0 2804.43 555.702   4
   6   4   0 2810.98 374.288   8
  -6  -4   0 3321.36 585.456   7
   6   4   0 2928.96 352.122   3
   6   4   2 7591.07 458.544   2
  -6  -4  -2 9062.78 942.234   7
   6   4   2 7523.48 678.977   3
  -6  -4  -4 5727.65 807.116   5
  -6  -4  -4 5775.96 740.339   7
   6   4   4 6200.14 687.907   3
   6   4   4 6152.46 685.746   6
  -6  -4  -6 944.960 359.790   5
  -6  -4  -6 1437.18 371.422   7
   6   4   6 1509.88 436.051   6
  -6  -4  -8 5452.36 843.809   5
  -6  -4  -8 5066.98 636.281   7
   6   4   8 4973.05 764.100   6
  -6  -4 -10 946.200 425.497   5
  -6  -4 -10 1455.39 324.535   7
   6   4  10 1376.13 505.900   6
  -6  -4 -12 605.810 313.412   5
   6   4  12 570.814 493.527   6
   6   5  -6 472.472 337.280   1
  -6  -5   6 368.839 298.141   4
  -6  -5   4 320.475 260.733   4
   6   5  -4 467.584 277.760   1
   6   5  -2 674.026 331.157   1
  -6  -5   2 750.682 285.939   4
   6   5  -2 622.780 167.126   8
  -6  -5   2 885.427 343.927   7
   6   5   0 4133.23 698.132   1
  -6  -5   0 3676.67 609.693   4
   6   5   0 3713.66 467.083   8
  -6  -5   0 4948.57 738.729   7
   6   5   0 3279.29 389.977   3
   6   5   2 8033.51 854.898   8
  -6  -5  -2 7024.14 869.113   7
   6   5   2 6117.37 628.952   3
   6   5   4 858.059 278.629   3
  -6  -5  -4 790.520 369.755   5
  -6  -5  -4 1047.54 366.191   7
   6   5   4 590.990 255.641   6
  -6  -5  -6 6965.11 959.247   5
  -6  -5  -6 6622.15 811.388   7
   6   5   6 7033.03 880.273   6
  -6  -5  -8 514.265 326.669   5
  -6  -5  -8 698.225 274.061   7
   6   5   8 854.050 390.430   6
  -6  -5 -10 1679.96 544.688   5
  -6  -5 -10 1788.61 409.587   7
   6   5  10 1788.54 580.399   6
  -6  -5 -12 766.861 385.149   5
   6   5  12-4.56122 317.691   6
  -6  -6   6-95.6572 167.870   4
  -6  -6   4 817.667 347.481   4
   6   6  -4 1724.57 515.221   1
  -6  -6   2 339.135 219.468   4
  -6  -6   2 385.639 259.273   7
   6   6  -2 438.384 328.467   1
  -6  -6   0 1292.91 364.957   4
   6   6   0 1457.91 319.432   8
  -6  -6   0 1745.38 468.314   7
   6   6   2 1931.80 433.292   8
  -6  -6  -2 1738.53 467.980   7
   6   6   2 1634.06 333.783   3
  -6  -6  -4 4654.76 789.048   5
   6   6   4 6024.47 860.228   8
  -6  -6  -4 4412.37 716.532   7
  -6  -6  -6 1297.25 429.922   5
  -6  -6  -6 1372.97 412.953   7
   6   6   6 1160.67 370.445   6
  -6  -6  -8 2001.42 581.604   5
  -6  -6  -8 1875.57 440.689   7
   6   6   8 1239.24 451.300   6
  -6  -6 -10 1024.59 446.386   5
  -6  -6 -10 889.934 321.291   7
   6   6  10 498.240 354.101   6
  -6  -6 -12 673.774 423.130   5
   6   6  12 274.632 311.120   6
  -6  -7   6 404.835 278.798   4
  -6  -7   4 376.133 228.886   4
  -6  -7   4 488.283 284.385   7
   6   7  -2 627.332 339.021   1
  -6  -7   2 432.663 226.853   4
  -6  -7   2 883.395 403.074   7
   6   7   0 447.900 203.338   8
  -6  -7   0 491.959 291.639   7
   6   7   2 789.602 324.133   8
  -6  -7  -2 897.051 358.692   7
  -6  -7  -4 1365.09 474.170   5
  -6  -7  -4 973.515 359.568   7
  -6  -7  -6 650.687 328.724   5
  -6  -7  -6 888.903 360.553   7
  -6  -7  -8 749.592 374.869   5
  -6  -7  -8 1200.76 407.429   7
   6   7   8 1661.21 514.218   6
  -6  -7 -10 895.076 450.559   5
  -6  -7 -10 638.224 297.546   7
   6   7  10 801.627 448.293   6
   6   7  12 510.333 350.547   6
  -6  -8   2 333.358 235.578   4
  -6  -8   2 534.070 343.065   7
   6   8   0 304.628 219.007   8
  -6  -8   0 544.398 321.093   7
   6   8   2 1081.08 342.625   8
  -6  -8  -2 742.768 364.304   7
   6   8   4 792.741 355.369   8
  -6  -8  -4 606.511 306.399   7
  -6  -8  -6 907.177 425.379   5
   6   8   6 1603.34 569.715   8
  -6  -8  -6 429.870 257.285   7
  -6  -8  -8 401.398 319.193   5
  -6  -8  -8 328.250 239.455   7
   6   8  10 515.125 366.891   8
  -6  -8 -10 272.043 202.486   7
  -6  -8 -12 373.877 245.736   7
   6   8  12 435.262 408.607   6
   6   9   2 264.804 188.619   8
  -6  -9  -2 112.032 264.290   7
   6   9   4 939.844 407.478   8
  -6  -9  -4 246.898 266.278   7
  -6  -9  -6 1579.39 558.802   5
   6   9   6 1040.82 426.633   8
  -6  -9  -6 927.153 427.175   7
  -6  -9  -8-301.189 290.400   5
   6   9   8-109.181 273.274   8
  -6  -9  -8 641.251 346.277   7
  -6  -9 -10 793.301 409.242   7
   6  10   2 195.635 255.441   8
   6  10   4 88.4241 269.214   8
   6  10   6 280.981 286.232   8
  -7   7   3 311.324 266.571   3
   7  -7  -3 405.982 195.821   1
  -7   7   3 89.5296 150.490   4
  -7   7   1-157.933 199.675   3
  -7   7  -1 23.9802 220.181   3
   7  -6  -5 653.543 255.448   1
  -7   6   5-45.9150 184.815   4
  -7   6   3 374.018 296.850   3
   7  -6  -3 356.886 176.268   1
  -7   6   3-172.178 209.383   4
  -7   6   1 489.506 276.264   3
   7  -6  -1 305.002 170.914   1
   7  -6  -1 663.093 394.789   2
  -7   6  -1-51.0759 169.427   3
   7  -6   1 361.535 351.425   2
  -7   6  -3 901.585 367.166   3
   7  -6   3 810.922 423.708   2
  -7   5   5 709.031 375.071   4
   7  -5  -5 117.786 140.236   1
  -7   5   3 697.986 343.507   3
  -7   5   3 486.164 292.324   4
   7  -5  -3 590.635 212.573   1
   7  -5  -3 667.777 382.366   2
  -7   5   1 896.301 374.311   3
  -7   5   1 1430.54 471.426   4
   7  -5  -1 1212.98 267.921   1
   7  -5  -1 1068.08 457.824   2
  -7   5  -1 2429.53 588.229   3
   7  -5   1 3147.77 730.508   2
  -7   5  -3 1445.87 446.174   3
   7  -5   3 930.435 401.999   2
  -7   5  -5 183.733 202.946   3
   7  -5   5 776.081 376.393   2
   7  -5   7 97.2608 273.848   2
  -7   4   5 480.190 346.933   4
   7  -4  -5 971.650 288.706   1
  -7   4   3 1364.22 373.776   3
  -7   4   3 845.112 346.336   4
   7  -4  -3 1111.97 272.885   1
  -7   4   1 2096.03 485.038   3
  -7   4   1 1813.28 493.805   4
   7  -4  -1 2208.46 360.746   1
   7  -4  -1 2478.68 644.136   2
  -7   4  -1 759.797 322.570   3
   7  -4   1 788.482 206.555   1
   7  -4   1 346.062 289.754   2
  -7   4  -3 2155.75 520.848   3
   7  -4   3 2770.82 655.675   2
  -7   4  -5 2834.79 603.805   3
   7  -4   5 2810.25 640.500   2
  -7   4  -7 529.226 302.456   3
   7  -4   7 374.692 267.609   2
   7  -4   9 346.693 288.060   2
  -7   3   5 393.696 311.757   4
   7  -3  -5 777.290 268.781   1
  -7   3   3 686.068 240.157   3
  -7   3   3 320.472 258.863   4
   7  -3  -3 718.893 250.064   1
  -7   3   1 639.517 257.566   3
  -7   3   1 539.229 274.879   4
   7  -3  -1 251.352 135.704   1
   7  -3  -1 329.478 264.559   2
  -7   3  -1 3924.44 611.574   3
   7  -3   1 4729.87 466.085   1
   7  -3   1 4749.92 807.479   2
  -7   3  -3 2991.61 557.912   3
   7  -3   3 3032.24 315.486   1
   7  -3   3 2789.31 610.240   2
  -7   3  -5 1110.72 347.440   3
   7  -3   5 1472.69 444.720   2
   7  -3   7 2382.24 560.312   6
  -7   3  -7 2222.27 552.891   3
   7  -3   7 3074.06 634.755   2
  -7   3  -9 378.493 271.910   3
   7  -3   9 446.720 310.611   2
   7  -3   9-234.025 308.474   6
  -7   2   5 208.240 276.646   4
   7  -2  -5 47.0309 173.498   1
  -7   2   3 883.942 388.938   4
   7  -2  -3 825.413 260.819   1
   7  -2  -1 3086.90 433.051   1
  -7   2   1 3789.90 700.448   4
  -7   2   1 3042.79 460.100   3
  -7   2  -1 983.510 306.014   3
   7  -2   1 1003.28 305.989   5
  -7   2  -1 1475.39 468.743   4
   7  -2   1 976.574 265.363   8
   7  -2   1 816.369 359.307   2
   7  -2   1 1348.44 275.394   1
  -7   2  -3 2715.69 490.303   3
   7  -2   3 3241.74 353.370   1
   7  -2   3 3764.63 650.004   2
   7  -2   5 5105.87 762.537   2
  -7   2  -5 6027.19 790.572   3
  -7   2  -7 802.321 302.447   3
   7  -2   7 1361.38 422.286   2
   7  -2   7 1466.33 450.564   6
  -7   2  -9 2059.69 510.156   3
   7  -2   9 1703.57 495.295   2
   7  -2   9 1922.90 544.200   6
   7  -1  -5 1043.26 322.730   1
  -7   1   5 1134.17 466.197   4
   7  -1  -3 1547.01 355.508   1
  -7   1   3 927.040 370.067   4
  -7   1   1 544.708 177.817   3
   7  -1  -1 471.885 208.457   1
  -7   1   1 728.388 338.017   4
  -7   1  -1 3907.25 680.439   4
   7  -1   1 3971.93 482.209   1
  -7   1  -1 4521.53 570.061   3
   7  -1   1 3974.48 630.265   2
   7  -1   1 3787.06 507.126   3
   7  -1   3 8636.00 846.832   5
   7  -1   3 8169.39 913.685   2
   7  -1   3 8907.07 647.785   1
  -7   1  -3 7590.20 810.671   3
   7  -1   5 510.088 267.945   6
  -7   1  -5 349.088 228.758   3
   7  -1   5 509.635 148.598   1
   7  -1   5 424.426 248.399   2
  -7   1  -7 4907.59 650.396   5
  -7   1  -7 4876.42 736.777   3
   7  -1   7 3792.89 640.589   2
   7  -1   7 4244.04 688.994   6
  -7   1  -9 1318.85 364.662   5
   7  -1   9 932.415 357.231   2
   7  -1   9 855.690 344.306   6
  -7   1  -9 1384.36 432.089   3
   7  -1  11 506.349 371.870   6
   7   0  -5 387.849 214.744   1
  -7   0   5 555.321 369.753   4
   7   0  -3 1529.91 394.643   1
  -7   0   3 1421.82 458.738   4
  -7   0   1 2392.14 570.240   4
   7   0  -1 1816.82 369.196   1
  -7   0   1 1781.38 291.932   3
   7   0   1 1653.44 317.555   3
  -7   0  -1 1346.02 417.392   4
   7   0   1 1374.76 304.391   1
   7   0   1 1826.69 420.787   2
  -7   0  -1 1598.00 335.075   3
   7   0   3 1221.54 317.868   3
   7   0   3 875.723 231.662   1
   7   0   3 1657.98 408.330   2
  -7   0  -3 620.628 265.482   3
   7   0   3 779.342 246.246   6
   7   0   5 12264.5 1037.66   2
  -7   0  -5 11865.1 1043.26   3
   7   0   5 13257.4 780.577   1
   7   0   5 12590.0 1061.35   6
  -7   0  -7 929.380 318.284   5
   7   0   7 688.585 275.973   2
   7   0   7 871.671 309.007   6
  -7   0  -7 766.129 294.483   3
  -7   0  -9 2296.17 493.154   5
   7   0   9 3110.25 639.039   6
  -7   0  -9 2453.69 547.547   3
  -7   0 -11 874.059 337.223   5
   7   0  11 878.205 392.459   6
  -7   0 -11 599.870 346.768   3
   7   1  -5 844.362 306.293   1
  -7  -1   5 823.334 422.404   4
  -7  -1   3 205.190 173.947   4
   7   1  -3 703.051 288.385   1
  -7  -1   1 570.487 294.678   4
   7   1  -1 546.146 245.236   1
   7   1  -1 708.082 137.012   6
   7   1   1 74.5618 127.379   1
   7   1   1 500.531 196.874   3
  -7  -1  -1 530.715 299.721   4
  -7  -1  -1 686.884 238.003   3
   7   1   1 371.188 211.554   2
   7   1   1 177.141 120.149   6
   7   1   3 8966.41 803.415   2
  -7  -1  -3 8448.94 809.853   3
   7   1   3 9617.80 821.581   1
   7   1   3 7137.94 747.529   3
   7   1   3 8446.73 724.629   6
  -7  -1  -5 1421.25 396.055   5
   7   1   5 1070.70 262.088   1
   7   1   5 1171.93 314.665   2
  -7  -1  -5 1041.54 331.170   3
   7   1   5 1073.64 327.985   6
  -7  -1  -7 3963.50 651.007   5
   7   1   7 4192.75 554.240   2
   7   1   7 4418.45 477.676   1
  -7  -1  -7 3302.91 592.696   3
   7   1   7 4185.94 640.307   6
  -7  -1  -9 1706.38 457.830   5
  -7  -1  -9 2204.77 528.466   3
   7   1   9 1990.59 510.000   6
  -7  -1 -11 454.499 219.436   5
  -7  -1 -11 597.292 338.210   3
   7   1  11-197.744 216.312   6
  -7  -1 -13 491.292 310.816   5
  -7  -2   5-68.0226 197.543   4
   7   2  -5 356.241 249.396   1
  -7  -2   3 1334.90 452.169   4
   7   2  -3 1490.33 401.236   1
   7   2  -1 2499.04 492.032   1
  -7  -2   1 2576.12 583.903   4
   7   2   1 1276.74 264.913   3
  -7  -2  -1 1370.89 414.019   4
   7   2   1 863.691 285.384   1
   7   2   1 1049.63 192.523   6
   7   2   1 820.700 252.659   2
   7   2   3-89.9898 92.0858   3
   7   2   3-35.0278 123.266   2
   7   2   3 121.636 143.564   1
   7   2   3-42.7635 140.639   6
  -7  -2  -5 4170.46 689.820   5
   7   2   5 4351.25 497.074   2
   7   2   5 4175.67 573.867   6
  -7  -2  -5 3825.88 606.644   3
   7   2   5 5072.09 620.205   1
  -7  -2  -7 2433.17 561.977   5
   7   2   7 2560.75 388.061   2
   7   2   7 2922.71 460.549   1
  -7  -2  -7 2458.85 557.859   3
   7   2   7 2144.02 471.233   6
  -7  -2  -9 1228.89 420.693   5
  -7  -2  -9 1131.21 394.191   3
   7   2   9 589.729 314.043   6
  -7  -2 -11 805.452 374.839   5
  -7  -2 -11 1075.27 406.246   3
   7   2  11 981.489 330.566   6
  -7  -2 -13 197.358 232.940   5
  -7  -3   5 125.496 223.360   4
   7   3  -5 242.068 178.767   1
   7   3  -3 898.148 340.346   1
  -7  -3   3 450.703 316.315   4
  -7  -3   1 1369.29 431.588   4
   7   3  -1 1179.17 380.810   1
   7   3   1 1885.33 461.867   1
  -7  -3  -1 1933.60 489.927   4
   7   3   3 1375.88 319.534   3
   7   3   3 1241.88 367.184   1
   7   3   3 1010.59 213.347   2
   7   3   3 954.265 281.549   6
  -7  -3  -5 2254.50 528.721   5
   7   3   5 2221.80 280.712   2
   7   3   5 2201.84 458.626   1
   7   3   5 2456.30 434.305   6
  -7  -3  -7 818.642 366.580   5
   7   3   7 452.501 250.843   6
  -7  -3  -9 1591.85 476.668   5
   7   3   9 3062.68 631.156   6
  -7  -3 -11 783.190 362.513   5
   7   3  11 709.288 377.224   6
  -7  -4   5 270.464 270.857   4
   7   4  -3 813.559 367.558   1
  -7  -4   3 204.723 211.530   4
  -7  -4   1 2041.64 515.488   4
   7   4  -1 2723.74 587.418   1
  -7  -4  -1 673.581 321.533   4
   7   4   1 1297.95 391.426   1
   7   4   1 999.243 264.559   8
   7   4   3 1836.66 385.869   3
   7   4   3 1385.76 431.811   1
   7   4   3 1292.04 271.263   6
  -7  -4  -5 411.899 311.511   5
   7   4   5 381.140 270.801   6
  -7  -4  -7 2549.75 592.401   5
   7   4   7 2156.61 546.607   6
  -7  -4  -9 691.438 387.805   5
   7   4   9 535.478 338.956   6
  -7  -4 -11 959.909 461.637   5
   7   4  11 1403.38 537.778   6
  -7  -5   5 397.329 277.756   4
  -7  -5   3 365.100 303.020   4
   7   5  -3 1472.43 462.032   1
   7   5  -1 376.826 287.583   1
  -7  -5   1 776.170 331.935   4
   7   5   1 1860.41 490.823   1
   7   5   1 1466.95 355.103   8
  -7  -5  -1 1665.62 476.135   7
   7   5   3 2384.62 537.021   8
  -7  -5  -3 1193.08 391.385   7
  -7  -5  -5 1425.62 460.781   5
  -7  -5  -5 1606.81 455.714   7
   7   5   5 1863.46 429.309   6
  -7  -5  -7 1261.55 465.644   5
  -7  -5  -7 1272.74 387.154   7
   7   5   7 1164.97 441.711   6
  -7  -5  -9 587.315 284.987   5
  -7  -5  -9 951.439 312.800   7
   7   5   9 353.583 342.271   6
  -7  -5 -11 810.397 458.967   5
   7   5  11 427.790 338.496   6
  -7  -6   5 584.508 351.280   4
  -7  -6   3 240.430 209.327   4
  -7  -6   1 605.314 296.646   4
   7   6  -1 626.831 330.686   1
   7   6   1 654.762 297.954   1
   7   6   1 812.297 261.825   8
  -7  -6  -1 953.050 407.285   7
   7   6   3 823.953 361.425   8
  -7  -6  -3 726.978 324.287   7
  -7  -6  -5 2172.92 585.083   5
   7   6   5 1454.19 518.102   8
  -7  -6  -5 1775.67 487.848   7
  -7  -6  -7 220.178 244.799   5
  -7  -6  -7 761.711 348.311   7
   7   6   7 670.227 309.940   6
  -7  -6  -9 349.582 286.675   5
  -7  -6  -9 696.909 294.659   7
   7   6   9 1271.91 476.465   6
  -7  -6 -11 503.081 248.024   7
   7   6  11 1107.56 558.579   6
  -7  -7   3 500.498 289.605   4
  -7  -7   1 780.575 329.563   4
  -7  -7   1 634.292 326.043   7
   7   7   1 641.188 371.054   1
  -7  -7  -1 479.327 331.936   7
   7   7   3 859.510 338.729   8
  -7  -7  -3 881.378 399.965   7
  -7  -7  -5 213.185 269.030   5
   7   7   5 936.519 444.198   8
  -7  -7  -5 506.476 308.243   7
  -7  -7  -7 723.316 378.837   5
  -7  -7  -7 393.981 265.724   7
  -7  -7  -9-274.523 289.261   5
  -7  -7  -9 209.494 207.500   7
   7   7   9 607.162 398.853   6
  -7  -7 -11 47.3290 146.889   7
   7   7  11-148.037 321.696   6
   7   8   3 659.789 322.976   8
  -7  -8  -3 246.740 253.335   7
   7   8   5-204.229 261.885   8
  -7  -8  -5 331.187 284.800   7
   7   8   7 286.224 375.271   8
  -7  -8  -7 519.802 334.450   7
   7   8   9 377.765 403.339   8
  -7  -8  -9 202.102 226.296   7
  -7  -8 -11 645.265 336.209   7
   7   9   3 210.730 251.380   8
   7   9   5 671.491 383.759   8
   7   9   7 184.673 299.640   8
   7  10   5 543.345 340.322   8
  -8   6   2 198.025 251.935   4
  -8   6   0-260.983 231.873   3
   8  -5  -4 273.170 180.757   1
  -8   5   2 110.611 178.778   4
   8  -5  -2 456.880 183.301   1
  -8   5   0 563.036 324.886   3
  -8   5  -2 104.036 230.884   3
   8  -5   2 367.191 307.787   2
  -8   5  -4 389.073 294.886   3
   8  -4  -4 169.731 173.913   1
  -8   4   2 261.304 232.781   4
   8  -4  -2 326.886 177.308   1
   8  -4  -2 938.898 444.864   2
  -8   4   0 19.2767 175.372   3
   8  -4   0 305.629 224.671   2
  -8   4  -2 697.432 322.545   3
   8  -4   2 1055.99 456.222   2
  -8   4  -4 91.1079 194.485   3
   8  -4   4 572.377 320.151   2
   8  -4   6 95.3518 170.003   2
   8  -3  -4 499.909 236.215   1
  -8   3   2 268.539 255.763   4
   8  -3  -2 284.659 182.404   1
   8  -3  -2 609.541 385.026   2
  -8   3   0 437.417 244.607   3
   8  -3   0 812.105 245.947   1
   8  -3   0 426.571 349.284   2
  -8   3  -2 308.196 187.717   3
   8  -3   2 645.733 417.247   2
  -8   3  -4 332.304 243.497   3
   8  -3   4 291.219 261.125   2
  -8   3  -6 996.462 365.024   3
   8  -3   6 657.660 341.791   2
   8  -3   8 108.463 181.166   2
   8  -2  -4 272.045 181.380   1
  -8   2   2 1001.64 415.520   4
   8  -2  -2 323.283 211.247   1
  -8   2   0 484.994 210.610   3
  -8   2   0 1462.39 474.325   4
   8  -2   0 1220.84 424.256   2
   8  -2   0 833.457 233.347   1
  -8   2  -2 1566.33 392.777   3
   8  -2   2 767.528 345.475   2
   8  -2   2 1302.84 272.340   1
  -8   2  -4 686.634 290.402   3
   8  -2   4 367.544 268.058   2
  -8   2  -6 251.284 208.989   3
   8  -2   6-158.863 176.325   2
   8  -2   6 117.875 231.789   6
  -8   2  -8 1527.60 485.736   3
   8  -2   8 1487.37 477.259   2
   8  -2   8 1064.65 401.856   6
   8  -2  10 119.583 134.629   2
   8  -1  -4 464.545 239.478   1
   8  -1  -2 588.925 246.159   1
  -8   1   2 1001.70 418.250   4
   8  -1   0 992.785 279.166   1
  -8   1   0 1122.11 415.869   4
   8  -1   0 698.837 321.886   2
  -8   1   0 880.346 257.034   3
  -8   1  -2 2029.07 418.251   3
   8  -1   2 1734.78 322.914   1
   8  -1   2 1341.94 403.840   2
  -8   1  -4 1157.01 373.290   3
   8  -1   4 1130.21 344.125   2
   8  -1   4 1130.35 345.402   6
  -8   1  -6 1115.61 390.753   3
   8  -1   6 1885.50 480.274   2
   8  -1   6 1286.07 391.644   6
   8  -1   8 274.874 204.046   2
   8  -1   8 125.971 212.288   6
  -8   1  -8 93.4922 170.980   3
   8   0  -4 310.093 241.551   1
   8   0  -2 909.665 296.867   1
  -8   0   2-181.654 226.882   4
   8   0   0 695.508 282.566   1
  -8   0   0 859.053 380.786   4
   8   0   0 569.915 246.099   2
   8   0   2 2096.69 379.353   1
   8   0   2 1995.38 458.459   2
  -8   0  -2 1805.08 389.351   3
   8   0   2 1296.13 312.643   6
   8   0   4 2853.99 398.670   1
   8   0   4 2477.68 491.623   2
  -8   0  -4 2940.09 527.260   3
   8   0   4 3184.67 519.110   6
   8   0   6 387.758 210.794   2
   8   0   6 648.609 304.124   6
  -8   0  -6 325.665 221.924   3
  -8   0  -8 876.529 343.394   5
   8   0   8 1321.85 363.119   2
   8   0   8 923.157 372.383   6
  -8   0  -8 575.709 283.064   3
  -8   0 -10 136.757 141.059   5
   8   0  10 360.072 272.744   6
   8   1  -4 229.602 205.559   1
  -8  -1   2 213.095 264.098   4
   8   1  -2 522.509 274.287   1
  -8  -1   0 395.983 283.501   4
   8   1   0 508.590 228.023   1
   8   1   0 978.767 347.580   2
   8   1   2 546.294 238.045   1
   8   1   2 1023.55 310.477   2
  -8  -1  -2 873.008 265.414   3
   8   1   4 1664.64 370.034   2
   8   1   4 2042.61 376.710   1
  -8  -1  -4 2845.24 511.913   3
   8   1   4 2060.91 406.208   6
   8   1   6 1586.06 355.533   2
  -8  -1  -6 1818.72 444.887   3
   8   1   6 1920.24 433.316   6
  -8  -1  -8 1447.35 433.432   5
  -8  -1  -8 1154.99 399.920   3
   8   1   8 571.294 318.549   6
  -8  -1 -10 753.260 352.671   5
  -8  -1 -10 262.990 300.803   3
   8   1  10 83.7132 220.016   6
  -8  -1 -12 371.895 259.403   5
  -8  -2   2 406.974 305.799   4
   8   2  -2 393.776 219.924   1
  -8  -2   0 442.970 267.191   4
   8   2   0 331.635 233.220   1
   8   2   2 1188.45 349.618   1
   8   2   2 881.326 263.119   2
   8   2   4 1479.79 377.925   1
   8   2   4 784.563 242.515   6
   8   2   6 1420.95 358.640   1
  -8  -2  -6 2023.07 469.522   3
   8   2   6 1829.85 438.332   6
  -8  -2  -8 567.051 321.908   5
  -8  -2  -8 332.831 293.063   3
   8   2   8 271.545 264.486   6
  -8  -2 -10 391.430 305.015   5
  -8  -2 -10 436.841 303.181   3
   8   2  10 427.981 232.478   6
  -8  -2 -12-4.27651 150.705   5
  -8  -3   2 252.844 241.813   4
   8   3  -2 270.443 244.363   1
   8   3   0 644.362 271.272   1
  -8  -3   0 549.327 285.231   4
   8   3   2 303.282 242.988   1
   8   3   4 1054.25 341.115   1
  -8  -3  -6 1193.19 421.405   5
   8   3   6 1077.63 342.743   1
   8   3   6 277.378 232.157   6
  -8  -3  -8 437.215 282.544   5
   8   3   8 512.702 240.049   6
  -8  -3 -10 482.002 325.653   5
   8   3  10 798.144 440.372   6
   8   4  -2 437.793 296.834   1
  -8  -4   2-41.5440 232.722   4
  -8  -4   0 253.726 284.730   4
   8   4   0 224.418 278.390   1
   8   4   2 630.848 295.745   1
   8   4   4 598.933 261.532   1
  -8  -4  -6 683.478 321.473   5
   8   4   6 239.549 212.995   1
  -8  -4  -8 1187.04 476.694   5
   8   4   8 1032.17 394.427   6
  -8  -4 -10 374.500 264.156   5
   8   4  10 632.511 415.070   6
  -8  -5   2 927.660 398.440   4
  -8  -5   0-27.2620 156.694   4
   8   5   0 701.445 275.597   1
   8   5   2 46.3205 155.765   1
   8   5   4 249.537 235.832   1
  -8  -5  -6 535.630 354.752   5
  -8  -5  -8 660.265 323.835   5
   8   5  10 2.09937 250.856   6
   8   6   2 315.424 265.571   1
   8   6   4 185.815 265.546   1
   8   6   4 753.060 326.142   8
  -8  -6  -4 320.264 286.412   7
  -8  -6  -6 1124.46 412.263   7
  -8  -6  -8 400.442 280.328   7
   8   7   6 653.227 370.833   8
  -8  -7  -6 422.607 336.091   7
  -8  -7  -8 579.876 315.666   7
  -8  -7 -10-317.550 234.065   7
   8   8   6 108.126 289.416   8
  -9   4  -3 232.722 233.126   3
   9  -3   1 307.473 211.633   2
  -9   3  -3 208.699 225.727   3
   9  -3   3 392.930 191.791   2
   9  -3   5-43.1655 177.986   6
   9  -3   5 441.570 346.098   2
   9  -2  -1 48.7536 125.264   1
   9  -2  -1 430.839 328.045   2
   9  -2   1 205.680 251.347   2
  -9   2  -3 508.198 266.902   3
   9  -2   3 319.705 299.452   2
  -9   2  -5-149.403 193.008   3
   9  -2   5-159.217 232.424   2
   9  -2   5-80.4690 214.285   6
   9  -2   7 623.006 383.579   6
   9  -1  -1 246.227 153.569   1
   9  -1  -1 473.383 289.051   2
   9  -1   1 404.719 211.440   1
   9  -1   1 292.553 224.919   2
   9  -1   3 187.303 170.069   2
  -9   1  -3 189.611 171.158   3
   9  -1   5 50.7902 166.984   6
  -9   1  -5-22.0898 151.527   3
   9  -1   7-63.7241 182.150   6
  -9   1  -7 420.911 230.717   3
   9   0  -1 229.875 185.322   1
   9   0  -1-42.4878 163.011   2
   9   0   1 1026.47 289.901   1
   9   0   1 496.061 301.636   2
  -9   0  -3-40.6838 111.758   3
  -9   0  -5 570.385 291.583   3
  -9   0  -7-25.2737 174.132   3
   9   0   7 8.26357 149.355   6
   9   0   9 33.4207 165.350   6
   9   1  -1 576.838 288.522   1
   9   1   1 161.559 202.920   1
   9   1   3 538.705 238.818   1
  -9  -1  -5 558.915 297.997   3
  -9  -1  -7 575.333 334.259   3
  -9  -1  -9 263.295 203.732   5
   9   1   9-313.573 323.426   6
   9   2  -1-29.2239 183.107   1
   9   2   1 251.145 224.771   1
   9   2   3 52.2940 175.239   1
  -9  -2  -9 199.686 189.290   5
   9   3   1 231.198 279.802   1
   9   3   3 748.924 342.805   1
   9   3   5 206.453 182.713   1
   9   4   1 316.330 281.282   1
   9   4   3 527.361 330.362   1
   9   4   5 409.629 258.642   1
   9   5   3 559.785 322.290   1
   9   5   5-442.330 281.184   1
   9   6   5-61.6836 208.236   1
   9   6   7 303.411 256.586   1
   0   0   0    0.00    0.00   0

TITL exp_1341 in P-1
REM P-1 (#2 in standard setting)
CELL 0.71073   7.161821   9.253581  11.897231  76.5826  77.7267  83.7566
ZERR    2.00   0.000467   0.000591   0.000878   0.0059   0.0059   0.0053
LATT  1
SFAC C H F Fe
UNIT 32.00 20.00 12.00 2.00
TREF
HKLF 4
END
;
_shelx_hkl_checksum              99272
_olex2_date_sample_data_collection 2018-12-13
_olex2_exptl_crystal_mounting_method 'Inside 1.0 mm X-ray capillary'
_olex2_submission_special_instructions 'No special instructions were received'
_oxdiff_exptl_absorpt_empirical_details
;
Empirical correction (ABSPACK) includes:
- Absorption correction using spherical harmonics
- Frame scaling
;
_oxdiff_exptl_absorpt_empirical_full_max 1.848
_oxdiff_exptl_absorpt_empirical_full_min 0.762
loop_
_space_group_symop_operation_xyz
'x, y, z'
'x+1/2, y, z+1/2'
'-x, -y, -z'
'-x+1/2, -y, -z+1/2'
loop_
_atom_site_label
_atom_site_type_symbol
_atom_site_fract_x
_atom_site_fract_y
_atom_site_fract_z
_atom_site_U_iso_or_equiv
_atom_site_adp_type
_atom_site_occupancy
_atom_site_site_symmetry_order
_atom_site_calc_flag
_atom_site_refinement_flags_posn
_atom_site_refinement_flags_adp
_atom_site_refinement_flags_occupancy
_atom_site_disorder_assembly
_atom_site_disorder_group
Fe1 Fe 0.2500 0.5000 0.2500 0.0624(3) Uani 1 2 d DS TU P . .
C7 C 0.3112(14) 0.6956(10) 0.1365(10) 0.091(3) Uani 0.5 1 d D U . A 1
H7 H 0.4264 0.7408 0.1215 0.109 Uiso 0.5 1 calc R . . A 1
C8 C 0.2673(16) 0.5930(12) 0.0766(7) 0.092(3) Uani 0.5 1 d D U . A 1
H8 H 0.3472 0.5588 0.0144 0.110 Uiso 0.5 1 calc R . . A 1
C9 C 0.0824(16) 0.5526(10) 0.1278(9) 0.079(2) Uani 0.5 1 d D U . A 1
H9 H 0.0173 0.4856 0.1055 0.095 Uiso 0.5 1 calc R . . A 1
C10 C 0.0091(11) 0.6285(10) 0.2183(8) 0.072(2) Uani 0.5 1 d D U . A 1
H10 H -0.1116 0.6211 0.2665 0.086 Uiso 0.5 1 calc R . . A 1
C11 C 0.1517(16) 0.7172(9) 0.2221(9) 0.075(2) Uani 0.5 1 d D U . A 1
H11 H 0.1419 0.7806 0.2736 0.090 Uiso 0.5 1 calc R . . A 1
F1 F 0.3609(3) 0.9818(4) -0.1201(3) 0.1493(11) Uani 1 1 d . . . . .
F2 F 0.1021(5) 0.8125(3) -0.1481(2) 0.1438(10) Uani 1 1 d . . . . .
F3 F -0.2595(5) 0.8291(3) -0.0271(3) 0.1563(12) Uani 1 1 d . . . . .
C1 C 0.1811(5) 0.9910(4) -0.0614(3) 0.0853(10) Uani 1 1 d . . . . .
C2 C 0.0492(6) 0.9062(4) -0.0746(3) 0.0825(9) Uani 1 1 d . . . . .
C3 C -0.1310(5) 0.9145(4) -0.0136(3) 0.0854(9) Uani 1 1 d . . . . .
C7A C 0.0228(11) 0.5764(13) 0.1713(9) 0.079(2) Uani 0.5 1 d D U . A 2
H7A H -0.0920 0.5308 0.1861 0.095 Uiso 0.5 1 calc R . . A 2
C8A C 0.0678(15) 0.6845(11) 0.2332(9) 0.082(3) Uani 0.5 1 d D U . A 2
H8A H -0.0122 0.7202 0.2947 0.099 Uiso 0.5 1 calc R . . A 2
C9A C 0.2580(15) 0.7235(8) 0.1803(8) 0.069(2) Uani 0.5 1 d D U . A 2
H9A H 0.3248 0.7907 0.2012 0.083 Uiso 0.5 1 calc R . . A 2
C10A C 0.3282(11) 0.6442(9) 0.0916(7) 0.0654(18) Uani 0.5 1 d D U . A 2
H10A H 0.4497 0.6501 0.0443 0.079 Uiso 0.5 1 calc R . . A 2
C11A C 0.1865(14) 0.5544(9) 0.0850(7) 0.0651(19) Uani 0.5 1 d D U . A 2
H11A H 0.1983 0.4914 0.0330 0.078 Uiso 0.5 1 calc R . . A 2
loop_
_atom_site_aniso_label
_atom_site_aniso_U_11
_atom_site_aniso_U_22
_atom_site_aniso_U_33
_atom_site_aniso_U_23
_atom_site_aniso_U_13
_atom_site_aniso_U_12
Fe1 0.0745(4) 0.0529(4) 0.0586(4) -0.0054(2) -0.0213(3) 0.0039(2)
C7 0.099(5) 0.066(8) 0.090(10) 0.006(4) -0.008(4) -0.003(5)
C8 0.112(8) 0.084(10) 0.065(4) 0.000(5) -0.015(6) 0.017(5)
C9 0.103(7) 0.080(4) 0.058(7) -0.017(5) -0.033(5) 0.014(6)
C10 0.081(4) 0.068(6) 0.076(5) -0.023(3) -0.036(3) 0.013(3)
C11 0.081(6) 0.055(4) 0.087(6) -0.008(4) -0.025(5) 0.009(5)
F1 0.0933(15) 0.174(3) 0.135(2) 0.0123(19) 0.0136(15) 0.0218(15)
F2 0.231(3) 0.1041(17) 0.1032(16) -0.0471(14) -0.0486(18) 0.0460(18)
F3 0.166(2) 0.128(2) 0.196(3) -0.010(2) -0.085(2) -0.0535(19)
C1 0.076(2) 0.083(2) 0.076(2) 0.0069(17) -0.0065(16) 0.0157(17)
C2 0.118(3) 0.0606(17) 0.0673(18) -0.0124(14) -0.0277(18) 0.0173(18)
C3 0.095(2) 0.0663(19) 0.096(2) 0.0026(17) -0.040(2) -0.0115(17)
C7A 0.067(4) 0.096(8) 0.069(8) -0.007(4) -0.018(3) 0.005(4)
C8A 0.085(6) 0.078(8) 0.076(4) -0.011(4) -0.017(5) 0.024(4)
C9A 0.089(6) 0.048(3) 0.068(6) -0.013(4) -0.017(4) 0.012(5)
C10A 0.090(4) 0.050(6) 0.059(4) -0.013(3) -0.017(3) -0.009(3)
C11A 0.071(5) 0.070(4) 0.055(5) -0.007(4) -0.018(4) -0.009(4)
loop_
_atom_type_symbol
_atom_type_description
_atom_type_scat_dispersion_real
_atom_type_scat_dispersion_imag
_atom_type_scat_source
C C 0.0033 0.0016 'International Tables Vol C Tables 4.2.6.8 and 6.1.1.4'
H H 0.0000 0.0000 'International Tables Vol C Tables 4.2.6.8 and 6.1.1.4'
F F 0.0171 0.0103 'International Tables Vol C Tables 4.2.6.8 and 6.1.1.4'
Fe Fe 0.3463 0.8444 'International Tables Vol C Tables 4.2.6.8 and 6.1.1.4'
loop_
_exptl_crystal_face_index_h
_exptl_crystal_face_index_k
_exptl_crystal_face_index_l
_exptl_crystal_face_perp_dist
0 2 16 0.1688
-2 -11 3 0.3527
-2 10 12 0.1016
1 -7 -15 0.1000
0 11 -6 0.1527
-1 7 15 0.1000
-7 7 -8 0.1653
8 -2 10 0.2091
2 -8 10 0.2361
-5 2 -14 0.1401
1 6 -12 0.1415
0 -5 13 0.2332
-5 10 1 0.1680
8 0 12 0.2066
1 -9 -13 0.1120
3 -12 -3 0.2141
3 -11 5 0.2285
6 -9 6 0.2201
-8 5 -7 0.1646
7 6 -6 0.2193
2 13 4 0.1666
loop_
_geom_angle_atom_site_label_1
_geom_angle_atom_site_label_2
_geom_angle_atom_site_label_3
_geom_angle
_geom_angle_site_symmetry_1
_geom_angle_site_symmetry_3
C7 Fe1 C7 180.0 4_565 .
C7 Fe1 C8 139.2(4) . 4_565
C7 Fe1 C8 40.8(4) 4_565 4_565
C7 Fe1 C8 40.8(4) . .
C7 Fe1 C8 139.2(4) 4_565 .
C7 Fe1 C10 67.9(4) . .
C7 Fe1 C10 112.1(4) . 4_565
C7 Fe1 C10 112.1(4) 4_565 .
C7 Fe1 C10 67.9(4) 4_565 4_565
C7 Fe1 C11 139.9(3) . 4_565
C7 Fe1 C11 40.1(3) . .
C7 Fe1 C11 139.9(3) 4_565 .
C7 Fe1 C11 40.1(3) 4_565 4_565
C8 Fe1 C8 180.0 . 4_565
C8 Fe1 C10 112.0(4) 4_565 .
C8 Fe1 C10 68.0(4) . .
C8 Fe1 C10 112.0(4) . 4_565
C8 Fe1 C10 68.0(4) 4_565 4_565
C8 Fe1 C11 112.3(4) . 4_565
C8 Fe1 C11 67.7(4) 4_565 4_565
C8 Fe1 C11 112.3(4) 4_565 .
C8 Fe1 C11 67.7(4) . .
C9 Fe1 C7 67.7(4) . .
C9 Fe1 C7 112.3(4) 4_565 .
C9 Fe1 C7 67.7(4) 4_565 4_565
C9 Fe1 C7 112.3(4) . 4_565
C9 Fe1 C8 40.1(4) . .
C9 Fe1 C8 40.1(4) 4_565 4_565
C9 Fe1 C8 139.9(4) 4_565 .
C9 Fe1 C8 139.9(4) . 4_565
C9 Fe1 C9 180.0 4_565 .
C9 Fe1 C10 40.3(3) 4_565 4_565
C9 Fe1 C10 139.7(3) 4_565 .
C9 Fe1 C10 40.3(3) . .
C9 Fe1 C10 139.7(3) . 4_565
C9 Fe1 C11 67.1(4) 4_565 4_565
C9 Fe1 C11 67.1(4) . .
C9 Fe1 C11 112.9(4) . 4_565
C9 Fe1 C11 112.9(4) 4_565 .
C10 Fe1 C10 180.0 . 4_565
C11 Fe1 C10 140.0(3) . 4_565
C11 Fe1 C10 140.0(3) 4_565 .
C11 Fe1 C10 40.0(3) 4_565 4_565
C11 Fe1 C10 40.0(3) . .
C11 Fe1 C11 180.0(6) . 4_565
C7A Fe1 C7A 180.0 . 4_565
C7A Fe1 C8A 137.6(4) . 4_565
C7A Fe1 C8A 137.5(4) 4_565 .
C7A Fe1 C8A 42.5(4) 4_565 4_565
C7A Fe1 C8A 42.4(4) . .
C7A Fe1 C9A 110.8(4) 4_565 .
C7A Fe1 C9A 69.2(4) 4_565 4_565
C7A Fe1 C9A 69.2(4) . .
C7A Fe1 C9A 110.8(4) . 4_565
C7A Fe1 C10A 111.8(3) 4_565 .
C7A Fe1 C10A 68.2(3) 4_565 4_565
C7A Fe1 C10A 68.2(3) . .
C7A Fe1 C10A 111.8(3) . 4_565
C7A Fe1 C11A 40.7(3) . .
C7A Fe1 C11A 40.7(3) 4_565 4_565
C7A Fe1 C11A 139.3(3) 4_565 .
C7A Fe1 C11A 139.3(3) . 4_565
C8A Fe1 C8A 180.0 4_565 .
C8A Fe1 C9A 139.2(3) 4_565 .
C8A Fe1 C9A 40.8(3) . .
C8A Fe1 C9A 139.2(3) . 4_565
C8A Fe1 C9A 40.8(3) 4_565 4_565
C8A Fe1 C10A 68.4(4) . .
C8A Fe1 C10A 111.6(4) 4_565 .
C8A Fe1 C10A 111.6(4) . 4_565
C8A Fe1 C10A 68.4(4) 4_565 4_565
C8A Fe1 C11A 110.4(4) . 4_565
C8A Fe1 C11A 69.6(4) . .
C8A Fe1 C11A 110.4(4) 4_565 .
C8A Fe1 C11A 69.6(4) 4_565 4_565
C9A Fe1 C9A 180.0 . 4_565
C9A Fe1 C10A 40.0(3) . .
C9A Fe1 C10A 40.0(3) 4_565 4_565
C9A Fe1 C10A 140.0(3) . 4_565
C9A Fe1 C10A 140.0(3) 4_565 .
C9A Fe1 C11A 68.1(3) 4_565 4_565
C9A Fe1 C11A 111.9(3) 4_565 .
C9A Fe1 C11A 111.9(3) . 4_565
C9A Fe1 C11A 68.1(3) . .
C10A Fe1 C10A 180.0(5) 4_565 .
C11A Fe1 C10A 40.1(3) . .
C11A Fe1 C10A 139.9(3) 4_565 .
C11A Fe1 C10A 40.1(3) 4_565 4_565
C11A Fe1 C10A 139.9(3) . 4_565
C11A Fe1 C11A 180.0 4_565 .
Fe1 C7 H7 125.2 . .
C8 C7 Fe1 69.9(5) . .
C8 C7 H7 126.1 . .
C11 C7 Fe1 70.4(4) . .
C11 C7 H7 126.1 . .
C11 C7 C8 107.8(8) . .
Fe1 C8 H8 126.0 . .
C7 C8 Fe1 69.4(5) . .
C7 C8 H8 126.5 . .
C9 C8 Fe1 69.7(4) . .
C9 C8 C7 107.1(7) . .
C9 C8 H8 126.5 . .
Fe1 C9 H9 125.5 . .
C8 C9 Fe1 70.2(5) . .
C8 C9 H9 125.3 . .
C8 C9 C10 109.4(8) . .
C10 C9 Fe1 70.6(4) . .
C10 C9 H9 125.3 . .
Fe1 C10 H10 126.1 . .
C9 C10 Fe1 69.1(4) . .
C9 C10 H10 126.6 . .
C11 C10 Fe1 69.7(4) . .
C11 C10 C9 106.7(8) . .
C11 C10 H10 126.6 . .
Fe1 C11 H11 126.3 . .
C7 C11 Fe1 69.5(5) . .
C7 C11 C10 109.0(8) . .
C7 C11 H11 125.5 . .
C10 C11 Fe1 70.3(4) . .
C10 C11 H11 125.5 . .
F1 C1 C2 120.6(4) . .
F1 C1 C3 119.7(4) . 3_575
C2 C1 C3 119.7(3) . 3_575
F2 C2 C1 118.8(4) . .
F2 C2 C3 121.1(4) . .
C3 C2 C1 120.1(3) . .
F3 C3 C1 120.5(4) . 3_575
F3 C3 C2 119.4(4) . .
C2 C3 C1 120.1(3) . 3_575
Fe1 C7A H7A 126.1 . .
C8A C7A Fe1 68.9(5) . .
C8A C7A H7A 126.3 . .
C11A C7A Fe1 70.3(4) . .
C11A C7A H7A 126.3 . .
C11A C7A C8A 107.4(7) . .
Fe1 C8A H8A 125.9 . .
C7A C8A Fe1 68.7(5) . .
C7A C8A H8A 126.9 . .
C9A C8A Fe1 70.1(4) . .
C9A C8A C7A 106.2(7) . .
C9A C8A H8A 126.9 . .
Fe1 C9A H9A 126.7 . .
C8A C9A Fe1 69.1(4) . .
C8A C9A H9A 125.6 . .
C10A C9A Fe1 70.2(4) . .
C10A C9A C8A 108.8(7) . .
C10A C9A H9A 125.6 . .
Fe1 C10A H10A 126.6 . .
C9A C10A Fe1 69.8(4) . .
C9A C10A H10A 125.3 . .
C9A C10A C11A 109.4(7) . .
C11A C10A Fe1 69.8(4) . .
C11A C10A H10A 125.3 . .
Fe1 C11A H11A 126.6 . .
C7A C11A Fe1 69.0(4) . .
C7A C11A H11A 125.9 . .
C10A C11A Fe1 70.0(4) . .
C10A C11A C7A 108.2(7) . .
C10A C11A H11A 125.9 . .
loop_
_geom_bond_atom_site_label_1
_geom_bond_atom_site_label_2
_geom_bond_distance
_geom_bond_site_symmetry_2
Fe1 C7 2.019(8) 4_565
Fe1 C7 2.019(8) .
Fe1 C8 2.026(8) .
Fe1 C8 2.026(8) 4_565
Fe1 C9 2.019(8) .
Fe1 C9 2.019(8) 4_565
Fe1 C10 2.038(7) 4_565
Fe1 C10 2.038(7) .
Fe1 C11 2.031(8) 4_565
Fe1 C11 2.031(8) .
Fe1 C7A 2.028(8) .
Fe1 C7A 2.028(8) 4_565
Fe1 C8A 2.031(8) .
Fe1 C8A 2.031(8) 4_565
Fe1 C9A 2.044(7) 4_565
Fe1 C9A 2.044(7) .
Fe1 C10A 2.048(7) .
Fe1 C10A 2.048(7) 4_565
Fe1 C11A 2.045(7) .
Fe1 C11A 2.045(7) 4_565
C7 H7 0.9300 .
C7 C8 1.409(13) .
C7 C11 1.389(12) .
C8 H8 0.9300 .
C8 C9 1.387(12) .
C9 H9 0.9300 .
C9 C10 1.398(10) .
C10 H10 0.9300 .
C10 C11 1.392(10) .
C11 H11 0.9300 .
F1 C1 1.332(4) .
F2 C2 1.341(4) .
F3 C3 1.333(4) .
C1 C2 1.348(5) .
C1 C3 1.359(5) 3_575
C2 C3 1.343(5) .
C3 C1 1.359(5) 3_575
C7A H7A 0.9300 .
C7A C8A 1.469(12) .
C7A C11A 1.416(10) .
C8A H8A 0.9300 .
C8A C9A 1.421(11) .
C9A H9A 0.9300 .
C9A C10A 1.400(10) .
C10A H10A 0.9300 .
C10A C11A 1.405(9) .
C11A H11A 0.9300 .
loop_
_geom_torsion_atom_site_label_1
_geom_torsion_atom_site_label_2
_geom_torsion_atom_site_label_3
_geom_torsion_atom_site_label_4
_geom_torsion
_geom_torsion_site_symmetry_1
_geom_torsion_site_symmetry_4
Fe1 C7 C8 C9 59.8(6) . .
Fe1 C7 C11 C10 -59.3(6) . .
Fe1 C8 C9 C10 59.9(6) . .
Fe1 C9 C10 C11 59.8(6) . .
Fe1 C10 C11 C7 58.8(6) . .
Fe1 C7A C8A C9A 60.4(6) . .
Fe1 C7A C11A C10A -59.3(6) . .
Fe1 C8A C9A C10A 59.1(6) . .
Fe1 C9A C10A C11A 58.8(6) . .
Fe1 C10A C11A C7A 58.6(6) . .
C7 C8 C9 Fe1 -59.6(6) . .
C7 C8 C9 C10 0.3(10) . .
C8 C7 C11 Fe1 60.1(6) . .
C8 C7 C11 C10 0.8(10) . .
C8 C9 C10 Fe1 -59.7(6) . .
C8 C9 C10 C11 0.2(10) . .
C9 C10 C11 Fe1 -59.5(6) . .
C9 C10 C11 C7 -0.6(10) . .
C11 C7 C8 Fe1 -60.5(6) . .
C11 C7 C8 C9 -0.7(10) . .
F1 C1 C2 F2 -0.1(5) . .
F1 C1 C2 C3 178.9(3) . .
F2 C2 C3 F3 -0.6(5) . .
F2 C2 C3 C1 179.2(3) . 3_575
C1 C2 C3 F3 -179.6(3) . .
C1 C2 C3 C1 0.2(5) . 3_575
C3 C1 C2 F2 -179.3(3) 3_575 .
C3 C1 C2 C3 -0.2(5) 3_575 .
C7A C8A C9A Fe1 -59.5(6) . .
C7A C8A C9A C10A -0.4(9) . .
C8A C7A C11A Fe1 59.1(6) . .
C8A C7A C11A C10A -0.1(10) . .
C8A C9A C10A Fe1 -58.4(6) . .
C8A C9A C10A C11A 0.3(10) . .
C9A C10A C11A Fe1 -58.8(6) . .
C9A C10A C11A C7A -0.1(10) . .
C11A C7A C8A Fe1 -60.1(6) . .
C11A C7A C8A C9A 0.3(10) . .
loop_
_exptl_oxdiff_crystal_face_indexfrac_h
_exptl_oxdiff_crystal_face_indexfrac_k
_exptl_oxdiff_crystal_face_indexfrac_l
_exptl_oxdiff_crystal_face_x
_exptl_oxdiff_crystal_face_y
_exptl_oxdiff_crystal_face_z
-0.2737 2.3233 16.2779 0.2326 0.9726 0.0006
-2.3172 -11.4810 3.4394 0.9057 0.0887 0.4145
-1.5735 10.0195 11.7269 -0.4931 0.8699 -0.0090
1.0622 -7.2769 -14.6572 0.2002 -0.9797 0.0091
0.3940 10.8240 -5.8309 -0.9583 -0.1780 -0.2234
-1.0622 7.2769 14.6572 -0.2002 0.9797 -0.0091
-6.5189 6.7197 -8.0106 -0.8524 -0.1597 0.4979
8.3785 -2.2909 9.8560 0.6045 0.2777 -0.7466
1.7146 -8.0570 10.3467 0.9094 0.4154 -0.0188
-5.4850 2.1368 -14.0971 -0.6385 -0.6081 0.4717
1.4508 5.5326 -12.4494 -0.7039 -0.6684 -0.2404
0.2319 -4.9533 13.4980 0.7230 0.6871 0.0723
-5.4146 10.1818 0.7101 -0.8685 0.3582 0.3427
7.9282 -0.0422 12.2939 0.4868 0.4647 -0.7396
0.5548 -9.3696 -13.3020 0.3820 -0.9195 0.0933
3.2148 -11.8291 -2.9001 0.8899 -0.4430 -0.1087
2.8691 -10.7181 4.8537 0.9958 0.0268 -0.0881
5.5470 -8.7700 5.6846 0.9273 0.0244 -0.3735
-8.2432 4.8449 -6.8054 -0.7171 -0.0684 0.6936
6.7233 6.2283 -6.1936 -0.4837 -0.4578 -0.7460
2.0850 12.9762 3.7045 -0.8420 0.3487 -0.4116
