#------------------------------------------------------------------------------
#$Date: 2019-11-26 08:19:15 +0200 (Tue, 26 Nov 2019) $
#$Revision: 243044 $
#$URL: file:///home/coder/svn-repositories/cod/cif/4/13/32/4133207.cif $
#------------------------------------------------------------------------------
#
# This file is available in the Crystallography Open Database (COD),
# http://www.crystallography.net/
#
# All data on this site have been placed in the public domain by the
# contributors.
#
data_4133207
loop_
_publ_author_name
'Taniguchi, Tohru'
'Suzuki, Takahiro'
'Satoh, Haruka'
'Shichibu, Yukatsu'
'Konishi, Katsuaki'
'Monde, Kenji'
_publ_section_title
;
 Preparation of Carbodiimides with One-Handed Axial Chirality.
;
_journal_issue                   46
_journal_name_full               'Journal of the American Chemical Society'
_journal_page_first              15577
_journal_page_last               15581
_journal_paper_doi               10.1021/jacs.8b08969
_journal_volume                  140
_journal_year                    2018
_chemical_absolute_configuration unk
_chemical_formula_sum            'C15 H12 N2'
_chemical_formula_weight         220.27
_space_group_crystal_system      orthorhombic
_space_group_IT_number           18
_space_group_name_Hall           'P 2 2ab'
_space_group_name_H-M_alt        'P 21 21 2'
_atom_sites_solution_hydrogens   difmap
_cell_angle_alpha                90
_cell_angle_beta                 90
_cell_angle_gamma                90
_cell_formula_units_Z            2
_cell_length_a                   9.8881(15)
_cell_length_b                   5.8140(9)
_cell_length_c                   9.7349(15)
_cell_measurement_reflns_used    114
_cell_measurement_temperature    90.(2)
_cell_measurement_theta_max      22.2337
_cell_measurement_theta_min      2.0911
_cell_volume                     559.65(15)
_computing_cell_refinement       'APEX3 v2017.3-0 (Bruker AXS)'
_computing_data_collection       'Bruker SMART APEXII'
_computing_molecular_graphics    'shelXle (C.B. Huebschle, rev 833)'
_computing_publication_material  'Generate Report (Bruker AXS)'
_computing_structure_refinement  'SHELXL-2016/6 (Sheldrick, 2016)'
_computing_structure_solution    'SHELXT 2014/5 (Sheldrick, 2014)'
_diffrn_ambient_temperature      90.(2)
_diffrn_detector_area_resol_mean 8.3333
_diffrn_measured_fraction_theta_full 0.999
_diffrn_measured_fraction_theta_max 0.999
_diffrn_measurement_device_type  'Bruker D8 goniometer'
_diffrn_measurement_method       'omega scans'
_diffrn_radiation_monochromator  graphite
_diffrn_radiation_type           'Mo K\a'
_diffrn_radiation_wavelength     0.71073
_diffrn_reflns_av_R_equivalents  0.0309
_diffrn_reflns_av_unetI/netI     0.0407
_diffrn_reflns_limit_h_max       12
_diffrn_reflns_limit_h_min       -12
_diffrn_reflns_limit_k_max       7
_diffrn_reflns_limit_k_min       -7
_diffrn_reflns_limit_l_max       12
_diffrn_reflns_limit_l_min       -4
_diffrn_reflns_number            3270
_diffrn_reflns_theta_full        27.53
_diffrn_reflns_theta_max         27.53
_diffrn_reflns_theta_min         2.09
_diffrn_source                   'sealed tube'
_exptl_absorpt_coefficient_mu    0.078
_exptl_absorpt_correction_T_max  0.99
_exptl_absorpt_correction_T_min  0.77
_exptl_absorpt_correction_type   multi-scan
_exptl_absorpt_process_details
;
SADABS-2016/2 - Bruker AXS area detector scaling and absorption correction
;
_exptl_crystal_colour            colourless
_exptl_crystal_density_diffrn    1.307
_exptl_crystal_density_method    'not measured'
_exptl_crystal_description       block
_exptl_crystal_F_000             232
_exptl_crystal_size_max          0.310
_exptl_crystal_size_mid          0.180
_exptl_crystal_size_min          0.080
_refine_diff_density_max         0.221
_refine_diff_density_min         -0.191
_refine_ls_abs_structure_details
;

Flack x determined using 368 quotients [(I+)-(I-)]/[(I+)+(I-)]
(Parsons, Flack and Wagner, Acta Cryst. B69 (2013) 249-259).
;
_refine_ls_abs_structure_Flack   -0.6(10)
_refine_ls_extinction_method     none
_refine_ls_goodness_of_fit_ref   1.051
_refine_ls_hydrogen_treatment    refall
_refine_ls_matrix_type           full
_refine_ls_number_parameters     102
_refine_ls_number_reflns         1296
_refine_ls_number_restraints     0
_refine_ls_restrained_S_all      1.051
_refine_ls_R_factor_all          0.0526
_refine_ls_R_factor_gt           0.0351
_refine_ls_shift/su_max          0.000
_refine_ls_shift/su_mean         0.000
_refine_ls_structure_factor_coef Fsqd
_refine_ls_weighting_details
'w=1/[\s^2^(Fo^2^)+(0.0323P)^2^+0.0671P] where P=(Fo^2^+2Fc^2^)/3'
_refine_ls_weighting_scheme      calc
_refine_ls_wR_factor_gt          0.0708
_refine_ls_wR_factor_ref         0.0784
_reflns_number_gt                1075
_reflns_number_total             1296
_reflns_threshold_expression     'I > 2\s(I)'
_cod_data_source_file            ja8b08969_si_001.cif
_cod_data_source_block           exp828
_cod_depositor_comments
;
The following automatic conversions were performed:

data item '_exptl_absorpt_correction_type' value 'Multi-Scan' was
changed to 'multi-scan' in accordance with the
/home/saulius/struct/COD-crude-data/automatic-downloads/DataCite-retrospective/ACS/depositions/lib/dictionaries/cif_core.dic
dictionary named 'cif_core.dic' version 2.4.2 last updated on
2011-04-26.

Automatic conversion script
Id: cif_fix_values 6909 2019-04-08 15:41:33Z antanas 
;
_cod_database_code               4133207
_shelx_res_file
;

TITL exp828_0ma_a.res in P2(1)2(1)2
    exp828_0ma_a.res
    created by SHELXL-2016/6 at 17:45:12 on 08-Nov-2017
CELL  0.71073   9.8881   5.8140   9.7349   90.000   90.000   90.000
ZERR    2.000   0.0015   0.0009   0.0015    0.000    0.000    0.000
LATT -1
SYMM -X, -Y, Z
SYMM 1/2-X, 1/2+Y, -Z
SYMM 1/2+X, 1/2-Y, -Z
SFAC C  H  N
UNIT 30  24  4
L.S. 30
ACTA
BOND $H
FMAP 2
PLAN 20
SIZE 0.31 0.18 0.08
TEMP -183
WGHT    0.032300    0.067100
FVAR       1.73818
C1    1    0.193896    0.485710    0.275012    11.00000    0.02222    0.03220 =
         0.02299    0.00349    0.00086    0.00210
C2    1    0.162070    0.298979    0.192171    11.00000    0.02267    0.03526 =
         0.02756    0.00358   -0.00390   -0.00446
C3    1    0.261439    0.192058    0.115848    11.00000    0.03081    0.02914 =
         0.02457    0.00056   -0.00376   -0.00268
C4    1    0.393727    0.272344    0.123104    11.00000    0.02601    0.02675 =
         0.02230    0.00089   -0.00092    0.00317
C5    1    0.427734    0.459485    0.205247    11.00000    0.02101    0.02481 =
         0.01976    0.00309   -0.00253    0.00014
C6    1    0.325707    0.569159    0.282710    11.00000    0.02492    0.02573 =
         0.02066    0.00168   -0.00163    0.00060
C7    1    0.357882    0.763346    0.380649    11.00000    0.02406    0.02947 =
         0.02609   -0.00105   -0.00036    0.00245
C8    1    0.500000    0.500000    0.486956    10.50000    0.01987    0.03983 =
         0.01620    0.00000    0.00000   -0.00092
H1    2    0.123124    0.558935    0.329200    11.00000    0.02865
H2    2    0.068632    0.240419    0.189970    11.00000    0.03301
H3    2    0.243993    0.057698    0.058017    11.00000    0.03629
H4    2    0.464425    0.197738    0.067566    11.00000    0.02252
H5    2    0.275633    0.815604    0.429316    11.00000    0.04087
H6    2    0.396111    0.901673    0.330894    11.00000    0.02927
N1    3    0.459647    0.698697    0.486543    11.00000    0.02375    0.03482 =
         0.02445   -0.00342   -0.00038    0.00100
HKLF 4




REM  exp828_0ma_a.res in P2(1)2(1)2
REM R1 =  0.0351 for    1075 Fo > 4sig(Fo)  and  0.0526 for all    1296 data
REM    102 parameters refined using      0 restraints

END

WGHT      0.0323      0.0671

REM Highest difference peak  0.221,  deepest hole -0.191,  1-sigma level  0.035
Q1    1   0.5000  0.5000  0.2105  10.50000  0.05    0.22
Q2    1   0.3737  0.5474  0.2242  11.00000  0.05    0.15
Q3    1   0.4128  0.5329  0.4828  11.00000  0.05    0.14
Q4    1   0.5168  0.8341  0.4847  11.00000  0.05    0.14
Q5    1   0.4148  0.3980  0.1474  11.00000  0.05    0.12
Q6    1   0.2594  0.5719  0.2531  11.00000  0.05    0.12
Q7    1   0.2200  0.1897  0.1750  11.00000  0.05    0.12
Q8    1   0.4986  0.3205  0.1927  11.00000  0.05    0.11
Q9    1   0.1478  0.8143  0.4677  11.00000  0.05    0.11
Q10   1   0.3007 -0.0239  0.1938  11.00000  0.05    0.11
Q11   1   0.0000  0.5000  0.1962  10.50000  0.05    0.11
Q12   1   0.2454  0.2207 -0.0157  11.00000  0.05    0.11
Q13   1   0.3892  0.4621  0.2765  11.00000  0.05    0.10
Q14   1   0.4380  0.9939  0.4615  11.00000  0.05    0.10
Q15   1   0.5188  0.9299  0.4019  11.00000  0.05    0.10
Q16   1   0.2784  0.5008  0.3007  11.00000  0.05    0.10
Q17   1   0.0866  0.4738  0.1996  11.00000  0.05    0.10
Q18   1   0.1818  0.4172  0.2112  11.00000  0.05    0.10
Q19   1   0.3352  0.6313  0.3440  11.00000  0.05    0.10
Q20   1   0.5349  0.6565  0.4832  11.00000  0.05    0.10
;
_shelx_res_checksum              97006
_shelx_hkl_file
;
   0   1   0    0.40    1.80
   0  -1   0    1.30    1.40
   0  -1   0   -1.00    1.20
   0   2   0 1660.03   36.80
   0  -2   0 1649.33   36.80
   0  -2   0 1611.14   36.10
   0  -3   0    1.90    3.60
   0  -3   0    0.70    2.70
   0   3   0   -2.40    3.70
   0   4   0 2685.53   60.09
   0  -4   0 2602.04   60.39
   0  -5   0    7.10    6.40
   0   5   0    1.90    5.60
   0  -6   0   -1.40    7.10
   0   6   0    1.20    6.00
   0  -7   0  -16.20    8.10
   0   0   1  570.34   13.00
   0   0   1  595.24   13.30
   0   1   1 9611.84  214.28
   0   1  -1 9971.00  212.28
   0  -1   1 9651.13  214.78
   0  -1  -1 9859.61  214.18
   0   2   1   76.29    5.40
   0  -2  -1   80.19    4.60
   0  -2   1   88.89    4.70
   0   2  -1   82.69    4.40
   0   3   1  944.71   23.50
   0  -3   1  954.00   23.20
   0  -3   1  915.01   22.60
   0   3  -1  938.11   22.70
   0  -3  -1  962.10   23.40
   0  -4  -1   25.10    5.50
   0   4   1   32.60    5.90
   0  -4   1   31.40    6.10
   0  -4   1   28.90    5.20
   0   4  -1   29.70    4.90
   0  -5   1   95.59    8.80
   0  -5  -1   82.19    8.20
   0   5   1   92.89    8.20
   0   5  -1  101.49    8.10
   0   6   1    1.70    6.40
   0  -6   1   -5.50    6.90
   0  -6  -1    3.70    7.30
   0  -7   1   26.20    9.10
   0  -7  -1   12.30    9.20
   0   0   2 2753.92   61.59
   0   0   2 2606.54   58.39
   0  -1   2   98.89    3.80
   0   1   2  100.39    5.70
   0   1   2  100.89    4.20
   0  -1   2  104.19    5.80
   0  -2   2 3139.89   69.99
   0   2   2 3110.49   69.89
   0  -2  -2 3112.79   69.69
   0   2  -2 3236.48   68.69
   0   3  -2   22.30    3.60
   0  -3   2   17.10    4.20
   0   3   2   19.30    4.90
   0  -3  -2   23.50    4.60
   0  -4   2   37.90    5.60
   0  -4   2   28.30    5.30
   0   4   2   32.80    6.40
   0  -4  -2   34.40    6.20
   0   4  -2   37.00    4.80
   0   5   2   17.60    6.70
   0  -5  -2   12.00    6.80
   0  -5   2   11.30    6.00
   0  -6  -2   14.10    8.10
   0   6   2   32.50    7.50
   0  -6   2    5.60    6.80
   0   7   2   56.69    8.30
   0  -7  -2   32.80   10.10
   0  -7   2   35.60    9.10
   0   0   3 6030.70  133.89
   0   0   3 5877.81  129.89
   0  -1   3 5091.99  105.79
   0   1   3 4783.52  106.79
   0   1   3 4789.12  107.29
   0  -1   3 4892.61  109.79
   0  -2   3 1849.21   43.60
   0   2   3 1856.11   43.20
   0   2   3 1894.01   41.20
   0   3   3   63.99    6.20
   0  -3  -3   76.19    6.90
   0   3  -3   77.29    4.90
   0  -3   3   66.99    7.10
   0  -4   3  218.28   10.50
   0   4   3  206.08   11.30
   0  -4  -3  202.48   10.80
   0   4  -3  202.48    8.30
   0   5   3  107.99    9.70
   0  -5  -3  100.19    9.30
   0  -5   3  104.29    8.50
   0  -6  -3   93.59   10.30
   0  -6   3   79.99    8.70
   0   6   3   88.79    9.20
   0  -7   3   10.70    8.10
   0   7   3    7.70    7.40
   0  -7  -3    6.00    9.60
   0   0   4  193.38    8.60
   0   0   4  207.18    7.70
   0  -1   4   57.19    4.90
   0   1   4   57.99    5.30
   0  -1   4   69.39    6.20
   0   1   4   57.89    5.60
   0   2   4 3826.12   87.99
   0  -2   4 4017.20   86.09
   0  -2   4 4031.40   89.09
   0   2   4 3921.91   86.49
   0  -3   4  218.98   10.50
   0   3   4  222.68   10.90
   0  -4   4   -2.90    6.30
   0   4   4    6.30    6.70
   0   5   4  138.89   11.00
   0  -5  -4  164.88   11.60
   0  -5   4  159.08    9.40
   0  -6   4  122.29   10.10
   0  -6  -4  123.19   11.40
   0   6   4  107.59   10.10
   0  -7  -4   15.70   10.40
   0  -7   4   24.10    8.30
   0   7   4   23.90    8.50
   0   0   5 1487.65   34.40
   0   0   5 1447.06   35.70
   0  -1   5  719.53   18.00
   0   1   5  697.23   19.20
   0   1   5  723.03   19.20
   0  -1   5  714.03   20.50
   0  -2   5   15.30    3.30
   0  -2   5   15.80    5.70
   0   2   5   14.80    3.80
   0   2   5   19.60    5.40
   0  -3   5   63.69    7.80
   0   3   5   63.39    7.40
   0   4   5    8.30    6.90
   0  -4   5   -0.70    6.80
   0  -5   5   18.20    8.00
   0   5   5   38.90    8.00
   0  -6   5   39.10    7.10
   0   6   5   29.30    8.10
   0   0   6  118.89    8.60
   0   0   6  123.59    7.90
   0  -1   6  142.19    7.80
   0  -1   6  142.09   10.00
   0   1   6  148.79    8.40
   0   1   6  152.18    9.50
   0  -2   6  114.69   10.30
   0  -2   6  114.59    6.80
   0   2   6  116.09    7.70
   0   2   6  114.79    9.80
   0   3   6   51.99    7.80
   0  -3   6   80.39    9.00
   0   4   6    7.60    6.70
   0  -4   6   -8.90    6.70
   0  -5   6  -10.50    7.40
   0   5   6   -5.60    7.00
   0  -6   6   20.20    6.40
   0   6   6   27.20    8.30
   0   0   7   72.49    6.80
   0   0   7   87.09    8.30
   0  -1   7   93.39    8.00
   0   1   7   85.89    8.90
   0  -1   7   75.79    8.40
   0   1   7   75.79    7.60
   0  -2   7   86.99    9.20
   0   2   7   93.49    8.70
   0   2   7   95.19    8.40
   0   3   7  206.58   12.40
   0  -3   7  217.08   13.70
   0   4   7    9.20    7.20
   0  -4   7   14.50    8.20
   0  -5   7  141.69   13.00
   0   5   7  143.59   12.40
   0  -6   7   34.90    6.70
   0   6   7   15.50    8.60
   0   0   8  591.04   20.40
   0   0   8  592.44   18.30
   0   1   8   24.10    6.80
   0  -1   8   38.20    6.70
   0  -1   8   27.40    7.80
   0   1   8   37.80    7.10
   0   2   8  408.06   14.70
   0  -2   8  393.96   17.30
   0   2   8  379.76   15.70
   0   3   8   23.40    7.40
   0  -3   8   21.40    8.30
   0  -4   8  149.09   13.70
   0   4   8  149.59   12.30
   0  -5   8  -12.20    8.60
   0   5   8   27.50    8.50
   0   0   9  232.98   13.50
   0   0   9  242.28   12.00
   0   1   9   31.80    7.00
   0   1   9   23.30    6.90
   0  -1   9    9.80    7.50
   0  -2   9   98.09   10.70
   0   2   9  104.29    9.50
   0  -3   9   -6.70    8.00
   0   3   9   -2.60    7.10
   0   4   9   37.90    8.70
   0  -4   9   37.70   10.00
   0   5   9   16.30    8.90
   0  -5   9  -19.10    9.30
   0   0  10 1043.30   31.50
   0   1  10  252.27   13.60
   0  -1  10  253.27   15.50
   0   1  10  248.88   14.20
   0  -2  10    2.80    8.30
   0   2  10   22.20    7.90
   0  -3  10   -8.50    8.40
   0   3  10   21.10    8.30
   0   4  10   87.59   10.50
   0  -4  10   67.49   12.10
   0   0  11   33.90    9.00
   0   1  11  224.08   14.50
   0   1  11  231.08   14.60
   0  -1  11  234.78   16.10
   0  -2  11   51.29   10.90
   0   2  11   36.10    8.60
   0   3  11   21.40    9.00
   0  -3  11   23.80   10.40
   0   0  12  489.85   21.60
   0  -1  12   36.90   10.50
   0  -2  12   -1.50    9.90
   0   2  12   -7.50    8.60
   1   0   0    0.20    0.70
   1   0   0    0.30    0.90
   1   1   0 2225.28   48.50
   1  -1   0 2125.79   48.30
   1  -1   0 2270.17   48.40
  -1   1   0 2212.68   48.20
  -1  -1   0 2233.78   48.00
  -1   2   0   99.39    5.20
  -1  -2   0   89.49    4.10
   1  -2   0   91.29    4.50
   1  -2   0   92.29    4.50
   1   2   0   91.89    5.20
  -1  -3   0   31.40    4.00
  -1   3   0   35.70    4.30
   1   3   0   32.90    4.50
   1  -3   0   34.90    4.40
   1  -3   0   28.90    3.80
  -1   4   0   28.20    5.30
  -1  -4   0   29.10    5.10
   1  -4   0   30.50    5.40
   1   4   0   31.30    5.60
  -1   5   0   59.49    6.80
  -1  -5   0   64.69    7.50
   1  -5   0   64.19    8.00
   1   5   0   54.89    6.80
   1   6   0   32.30    6.90
  -1  -6   0   25.80    7.40
   1  -6   0   34.10    8.10
   1  -7   0   15.90    9.00
  -1  -7   0   23.00    8.80
  -1   0   1 3423.56   75.79
   1   0   1 3427.66   75.59
   1   0   1 3499.85   79.69
   1   1  -1 1404.86   31.30
  -1  -1  -1 1466.75   31.10
   1  -1   1 1393.56   31.80
  -1   1   1 1401.96   31.70
   1   1   1 1388.26   31.10
   1  -1  -1 1441.66   31.50
   1   1   1 1363.56   31.50
  -1   2   1   21.20    3.80
   1  -2   1   27.60    3.60
   1   2  -1   25.30    3.30
  -1  -2  -1   29.40    3.10
   1  -2   1   22.80    3.00
  -1   2  -1   23.10    2.70
   1   2   1   24.20    3.80
   1  -2  -1   21.50    3.30
   1  -3   1  447.46   13.20
   1   3  -1  457.85   12.80
  -1  -3  -1  458.35   13.00
   1  -3   1  450.85   12.90
  -1   3   1  450.95   13.50
   1   3   1  465.65   13.90
  -1   3  -1  463.05   12.30
   1  -3  -1  452.75   13.30
  -1  -3   1  438.96   12.50
   1  -4   1   96.79    7.50
   1  -4   1   88.29    9.40
   1   4  -1   91.39    7.40
  -1   4   1  107.29    8.40
  -1  -4  -1   91.19    7.20
   1  -4  -1   81.89    7.80
   1   4   1  106.09    8.40
  -1   4  -1   88.09    6.80
  -1  -4   1   88.59    6.50
  -1  -4   1   91.49    7.20
  -1  -5  -1   78.59    7.80
   1   5  -1   68.69    6.80
  -1   5   1   97.99    9.00
   1  -5   1   65.69    7.70
   1   5   1   77.09    7.80
  -1  -5   1   80.79    7.50
   1  -5  -1   86.49    8.40
  -1   5  -1   91.59    7.40
  -1  -6  -1   68.59    8.90
   1   6  -1   71.29    8.60
   1  -6   1   86.79    9.30
  -1   6   1   76.39    8.10
   1   6   1   69.99    8.30
  -1  -6   1   91.29    8.90
   1  -6  -1   69.09    9.20
  -1  -7  -1   71.99   10.60
   1  -7   1   82.39   10.50
  -1  -7   1   75.59   10.00
   1  -7  -1   83.89   11.20
   1   7   1   86.59    9.10
   1   0   2    0.60    2.10
   1   0   2    5.00    2.80
  -1   0   2    4.80    2.70
   1  -1   2 9859.71  217.28
  -1   1   2 9202.18  211.48
  -1  -1   2 9999.00  211.08
   1   1   2 9697.23  213.28
   1   1   2 9448.05  212.18
   1   2  -2  235.38    7.70
   1  -2   2  234.58    8.70
  -1  -2  -2  240.28    8.10
  -1   2   2  234.68    9.00
   1   2   2  237.58    6.50
  -1   2  -2  236.58    6.50
   1   2   2  229.68    8.90
   1  -3   2  871.31   22.00
   1  -3   2  866.91   22.50
  -1   3   2  887.91   22.60
  -1  -3  -2  894.51   22.10
   1   3  -2  897.81   21.50
  -1   3  -2  870.51   20.60
   1  -3  -2  859.81   22.40
   1   3   2  860.31   22.60
  -1  -4  -2  135.99    8.60
   1  -4   2  132.59    8.60
  -1   4   2  143.09    9.30
   1  -4   2  126.59    8.30
   1   4  -2  129.69    7.70
   1  -4  -2  131.49    9.20
  -1  -4   2  131.19    8.10
   1   4   2  126.79    9.60
  -1   4  -2  118.89    6.70
  -1  -4   2  128.49    7.90
   1   5  -2  395.56   13.30
  -1   5   2  410.66   14.70
  -1  -5  -2  401.56   15.30
   1  -5   2  415.36   14.60
  -1  -5   2  419.86   14.70
   1  -5  -2  394.76   15.60
   1   5   2  402.46   15.60
  -1   6   2   59.29    7.90
   1  -6   2   51.59    8.30
  -1  -6  -2   49.40    8.60
  -1  -6   2   47.00    7.80
   1   6   2   52.89    8.20
   1  -6  -2   46.80    9.00
   1  -7   2   -6.60    8.00
  -1  -7  -2   -5.00    8.50
   1  -7  -2  -10.60    9.00
  -1  -7   2   -0.90    7.70
   1   7   2   13.60    7.80
   1   0   3 1288.17   29.10
   1   0   3 1305.57   30.30
  -1   0   3 1286.87   30.00
  -1   1   3 1560.64   37.30
   1  -1   3 1680.13   35.50
   1  -1   3 1618.54   38.00
   1   1   3 1607.24   36.80
  -1  -1   3 1650.93   36.60
   1   1   3 1617.74   37.10
  -1   2   3 1600.44   38.90
   1  -2   3 1727.53   36.50
   1   2  -3 1675.03   37.50
   1  -2   3 1666.93   39.40
   1   2   3 1642.44   37.20
   1   2   3 1672.33   38.90
  -1   3   3   46.90    5.90
   1  -3   3   47.10    5.90
   1   3  -3   63.19    5.50
  -1  -3  -3   61.09    5.70
   1   3   3   53.29    6.00
  -1  -3   3   50.99    5.80
   1  -3  -3   54.29    6.00
  -1   3  -3   53.09    3.90
   1   4  -3  239.58    9.50
   1  -4   3  254.17   10.60
   1  -4   3  278.77   12.40
  -1   4   3  248.18   11.90
  -1  -4  -3  234.18   11.60
   1  -4  -3  237.28   11.90
   1   4   3  252.67   12.10
  -1  -4   3  255.27   11.40
  -1   5   3  242.08   12.00
   1  -5   3  230.78   11.40
  -1  -5  -3  228.98   12.40
   1  -5  -3  219.08   12.80
   1   5   3  239.08   12.50
  -1  -5   3  257.87   11.00
   1  -6   3   12.00    6.90
  -1   6   3   13.00    7.40
  -1  -6  -3   32.50    8.60
   1   6   3    5.00    7.20
   1  -6  -3    7.40    8.30
  -1  -6   3   16.70    6.90
   1  -7   3   -1.70    7.90
  -1  -7  -3   -5.10    9.00
  -1   7   3    4.40    7.40
   1  -7  -3   -3.50    9.60
   1   7   3   10.20    7.80
  -1  -7   3   -6.00    7.60
   1   0   4  120.69    7.30
   1   0   4  131.99    6.20
  -1   0   4  127.69    7.30
   1  -1   4  902.81   20.40
   1  -1   4  885.51   23.20
  -1   1   4  854.71   22.50
   1   1   4  874.31   22.00
  -1  -1   4  887.21   21.50
   1   1   4  885.41   22.10
   1  -2   4  368.86    9.20
   1  -2   4  364.66   13.10
  -1   2   4  363.66   12.90
  -1   2   4  359.16   10.40
  -1  -2   4  372.36   10.70
   1   2   4  364.86   10.80
   1   2   4  363.86   12.40
   1  -3   4   61.89    7.00
  -1   3   4   64.19    7.10
  -1  -3   4   63.49    6.90
   1   3   4   54.89    6.60
   1  -4   4   77.59    8.40
   1   4  -4   87.89    6.80
  -1   4   4   81.09    8.40
   1   4   4   55.89    7.80
  -1  -4   4   74.79    7.90
   1  -5   4   68.49    7.10
  -1   5   4   61.59    8.20
  -1  -5   4   60.19    6.70
   1   5   4   63.69    8.40
   1  -5  -4   57.79    8.80
  -1   6   4   18.50    7.60
   1  -6   4    9.10    6.70
   1   6   4    9.50    7.70
  -1  -6   4   14.00    6.70
   1  -6  -4    7.60    8.70
  -1   7   4   11.30    8.10
   1  -7   4   -2.20    7.70
   1   7   4   23.10    8.20
   1  -7  -4    6.50   10.40
  -1  -7   4   10.30    7.90
   1   0   5   19.40    4.90
   1   0   5   19.60    4.10
  -1   0   5   25.80    4.70
   1  -1   5  186.78    9.90
  -1   1   5  181.88    9.60
   1  -1   5  213.28    7.30
  -1   1   5  197.08    8.80
   1   1   5  199.18    8.90
  -1  -1   5  203.08    8.20
   1   1   5  197.58    8.80
   1  -2   5  799.52   18.70
  -1   2   5  791.92   22.30
   1  -2   5  784.92   22.80
  -1   2   5  795.02   20.30
   1   2   5  778.22   21.70
  -1  -2   5  831.12   20.00
   1   2   5  808.82   20.50
  -1  -2   5  772.52   22.90
  -1   3   5  452.35   16.30
   1  -3   5  440.76   16.30
  -1  -3   5  425.06   16.70
  -1  -3   5  452.05   13.00
   1   3   5  441.26   15.40
   1  -4   5   46.10    8.20
  -1   4   5   44.70    8.00
   1   4   5   43.30    7.50
  -1  -4   5   61.39    8.10
  -1   5   5  129.39   11.20
   1  -5   5  110.49   11.20
   1   5   5  120.59   11.00
  -1  -5   5  126.69   11.00
   1  -6   5  150.38   10.20
  -1   6   5  160.68   12.20
   1   6   5  135.99   12.00
  -1  -6   5  152.38   10.10
  -1   0   6  127.99    8.80
   1   0   6  140.39    8.00
   1   0   6  126.59    9.10
  -1   0   6  129.99    9.10
   1  -1   6  262.87   12.20
  -1   1   6  251.37   11.60
   1  -1   6  273.17    9.20
  -1   1   6  254.67   10.60
  -1  -1   6  260.27   12.30
   1   1   6  266.97   11.20
  -1  -1   6  258.57   10.30
   1   1   6  272.57   10.90
  -1   2   6  382.86   12.70
  -1   2   6  394.16   15.10
   1  -2   6  393.56   15.60
  -1  -2   6  373.46   15.50
  -1  -2   6  386.26   12.10
   1   2   6  371.46   14.00
   1   2   6  374.66   12.90
   1  -3   6  461.75   18.00
  -1   3   6  481.85   17.60
   1   3   6  463.05   16.50
  -1  -3   6  475.65   18.20
  -1   4   6   12.20    7.10
   1  -4   6   -4.10    6.90
   1   4   6    5.50    6.50
  -1  -4   6    1.70    6.80
  -1   5   6   65.59    9.10
   1  -5   6   55.29    9.40
   1   5   6   72.39    9.00
  -1  -5   6   74.59    9.50
  -1   6   6    6.90    8.00
   1  -6   6    7.50    6.00
   1   6   6    6.20    7.90
  -1  -6   6   15.70    6.10
   1   0   7    8.50    6.20
  -1   0   7    4.80    6.00
  -1   0   7   19.20    6.10
   1   0   7   11.70    5.10
   1  -1   7  194.28    9.00
  -1   1   7  189.28   11.40
  -1   1   7  182.38   10.80
   1  -1   7  190.98   12.30
   1   1   7  203.68   10.90
  -1  -1   7  179.38   12.30
   1   1   7  207.78   11.20
  -1  -1   7  189.98   10.20
   1  -2   7  390.06   16.80
  -1   2   7  384.36   15.50
  -1   2   7  352.76   13.30
  -1  -2   7  372.46   16.70
   1   2   7  339.77   14.40
   1   2   7  378.76   13.90
  -1  -2   7  372.56   12.80
  -1   3   7   89.99    9.30
   1  -3   7   81.59    9.60
   1   3   7   71.79    8.20
  -1  -3   7   88.29    9.60
   1  -4   7   14.90    8.40
  -1   4   7   31.60    8.00
  -1  -4   7   24.50    8.30
   1   4   7   27.00    7.40
   1  -5   7   66.59   10.60
  -1   5   7   74.29    9.60
  -1  -5   7   68.29    9.80
   1   5   7   59.79    9.00
   1  -6   7   64.89    7.60
  -1   6   7   50.89    9.90
   1   6   7   62.99    9.80
  -1   0   8  209.28   12.20
   1   0   8  216.08   12.90
   1   0   8  223.08   10.90
  -1   0   8  211.08   12.80
   1  -1   8  105.29   11.40
  -1   1   8  106.59   10.20
  -1   1   8  113.09    9.30
  -1  -1   8  116.79    9.50
  -1  -1   8   91.19    9.80
   1   1   8  112.49   10.00
   1   1   8  103.79    8.40
  -1   2   8   69.49    7.10
   1  -2   8   85.39    9.70
  -1   2   8   61.39    8.40
   1   2   8   70.69    7.70
  -1  -2   8   86.39    9.70
   1   2   8   70.49    8.00
  -1   3   8   99.49    9.80
   1  -3   8  107.19   11.00
  -1  -3   8   97.89   10.60
   1   3   8   84.39    8.80
  -1   4   8   92.89   10.10
   1  -4   8  107.29   11.70
   1   4   8   95.79    9.60
  -1  -4   8  113.99   12.20
  -1   5   8   86.29   10.50
   1  -5   8   82.99   11.60
   1   5   8   88.59   10.10
  -1  -5   8   93.59   11.70
  -1   0   9  145.69   11.00
  -1   0   9  141.59   11.60
   1   0   9  142.39   12.00
  -1   1   9   18.90    6.50
  -1   1   9   22.20    7.30
   1  -1   9   23.90    7.90
  -1  -1   9   13.40    7.40
   1   1   9   20.40    6.70
   1   1   9   27.40    7.40
  -1   2   9  273.47   14.60
   1  -2   9  252.67   15.40
   1   2   9  285.97   13.30
  -1  -2   9  257.57   15.50
   1  -3   9   20.50    9.20
  -1   3   9   15.30    8.10
   1   3   9   16.70    7.50
  -1  -3   9   24.40    8.90
  -1   4   9  113.09   11.20
   1  -4   9  106.79   12.60
  -1  -4   9  105.49   12.10
   1   4   9  133.79   12.00
  -1   5   9    0.90    8.70
   1  -5   9   -5.70    9.80
  -1  -5   9   10.70   10.20
   1   5   9   12.80    8.30
  -1   0  10   11.40    7.10
  -1   0  10   18.10    7.60
   1   0  10   -3.10    7.20
   1  -1  10  317.87   17.20
  -1   1  10  359.86   16.20
  -1   1  10  353.86   15.90
   1   1  10  353.76   15.20
  -1  -1  10  368.96   17.60
   1   1  10  352.76   16.60
  -1   2  10   -7.00    7.30
   1  -2  10   -6.40    8.30
  -1  -2  10    9.50    8.40
   1   2  10   -2.30    7.00
  -1   3  10   52.39    9.60
   1  -3  10   36.00   10.50
  -1  -3  10   49.10   10.30
   1   3  10   42.60    8.50
  -1   4  10   -1.90    8.80
   1  -4  10  -21.50    9.50
  -1  -4  10  -14.80    8.90
   1   4  10   -3.40    7.80
   1   0  11  466.25   20.50
  -1   0  11  497.45   20.70
  -1   1  11   43.90    8.70
  -1   1  11   36.00    8.70
   1  -1  11   48.90   10.20
  -1  -1  11   51.79   10.00
   1   1  11   38.50    9.00
  -1   2  11  -11.20    7.80
   1  -2  11   -6.20    9.00
   1   2  11   -2.20    7.20
  -1  -2  11   -3.50    8.50
  -1   3  11    3.80    8.70
   1  -3  11   12.40   10.60
  -1  -3  11    3.30    9.40
   1   3  11    4.20    8.00
  -1   0  12   75.19   11.40
   1   0  12   90.99   12.10
   1  -1  12   81.29   12.20
   1   1  12   65.79   15.70
   1  -2  12   -1.10   10.60
  -1   2  12   -8.70    9.20
  -1  -2  12   17.50   10.40
   2   0   0  371.06    9.70
   2   0   0  408.46    9.00
   2   0   0  405.56   10.70
   2  -1   0 2454.95   52.39
   2   1   0 2412.26   52.89
  -2   1   0 2361.56   52.39
   2  -1   0 2357.16   52.99
  -2  -1   0 2337.77   51.69
   2   1   0 2438.76   52.99
   2  -2   0   10.00    3.60
  -2   2   0    9.00    3.20
   2  -2   0    4.70    2.90
  -2  -2   0    7.90    2.30
   2   2   0    5.10    3.40
  -2   3   0   45.60    4.50
   2  -3   0   49.10    4.80
  -2  -3   0   51.09    4.60
   2  -3   0   46.80    4.70
   2   3   0   47.40    5.00
  -2  -4   0    5.80    4.50
  -2   4   0   17.30    5.00
   2   4   0   10.00    5.40
   2  -4   0    2.00    5.00
   2   5   0    9.50    6.10
  -2   5   0    6.90    5.50
  -2  -5   0   -1.40    5.70
   2  -5   0   -4.00    6.30
   2  -6   0  -10.90    7.00
   2   6   0    2.10    6.10
  -2  -6   0   -9.20    6.40
  -2  -7   0   -8.50    7.70
   2  -7   0   -6.40    8.40
  -2   0   1 2634.44   59.19
   2   0   1 2740.83   59.79
   2   0   1 2733.23   59.19
  -2   1   1 3499.85   75.59
   2   1  -1 3386.26   75.39
   2  -1   1 3434.66   75.99
   2  -1  -1 3532.05   75.29
   2   1   1 3419.56   75.49
  -2   1  -1 3443.76   74.39
   2   1   1 3320.07   75.39
   2  -1  -1 3567.64   75.59
   2  -2   1  382.36   11.50
  -2  -2  -1  375.86    9.90
   2  -2   1  364.46   10.60
  -2   2   1  373.76   10.90
   2   2  -1  368.36   10.80
  -2   2  -1  376.26    9.50
   2  -2  -1  384.86   10.30
   2  -2  -1  371.36   11.00
   2   2   1  365.36   11.20
   2   2   1  358.76   10.10
   2  -3   1  450.15   13.90
  -2  -3  -1  488.95   13.10
   2  -3   1  489.25   14.20
  -2   3   1  478.75   13.90
   2   3  -1  483.85   13.70
  -2  -3   1  462.15   12.80
   2   3   1  458.45   14.10
   2  -3  -1  473.65   14.20
  -2   3  -1  475.25   12.50
   2  -3  -1  491.05   12.60
   2   4  -1   16.40    5.30
  -2  -4  -1   22.10    5.00
   2  -4   1    9.30    5.00
  -2   4   1   16.30    5.60
   2  -4   1    1.30    6.00
  -2   4  -1   13.90    4.50
   2   4   1    9.90    5.70
  -2  -4   1   20.00    4.70
   2  -4  -1   19.70    5.90
   2  -5   1  169.18   10.60
  -2  -5  -1  155.88    9.90
   2   5  -1  166.68    9.90
  -2   5   1  172.78    9.90
  -2  -5   1  162.58    9.40
   2  -5  -1  156.08   10.70
   2   5   1  167.58   10.30
   2  -6   1   58.29    8.80
  -2  -6  -1   76.59    8.60
   2   6  -1   69.09    7.70
   2  -6  -1   60.99    9.20
   2   6   1   57.59    8.10
  -2  -6   1   67.99    8.20
   2  -7   1    4.00    8.70
  -2  -7  -1    9.30   11.60
   2  -7  -1   -8.70    9.00
  -2  -7   1  -11.10    7.80
   2   7   1   10.20    7.20
  -2   0   2 4434.06   98.29
   2   0   2 4532.95   98.59
   2   0   2 4546.15  105.19
  -2   1   2  731.73   18.40
   2  -1   2  739.13   18.70
   2   1   2  720.23   17.80
   2   1   2  720.83   17.80
  -2  -1   2  722.03   17.90
  -2   2   2    3.90    4.30
   2   2  -2   -7.70    3.30
   2  -2   2    4.80    4.60
   2  -2  -2    2.50    4.10
   2   2   2    1.00    3.00
   2   2   2   -0.80    3.90
   2  -3   2   21.10    4.10
  -2   3   2   24.00    5.20
   2  -3   2   18.90    5.40
  -2  -3  -2   27.10    4.40
   2   3  -2   25.80    4.30
   2   3   2   15.80    5.00
  -2   3  -2   26.20    2.90
   2  -3  -2   18.30    4.70
  -2  -4  -2  252.37   10.70
   2   4  -2  245.28    9.90
   2  -4   2  243.78   11.50
  -2   4   2  254.07   11.60
   2  -4   2  245.08   10.80
  -2  -4   2  264.07    9.90
   2   4   2  230.18   11.60
   2  -4  -2  238.58   11.40
   2  -5   2   38.40    6.80
   2   5  -2   29.50    5.80
  -2   5   2   26.20    6.60
  -2  -5  -2   25.80    6.60
   2  -5  -2   26.20    7.30
  -2  -5   2   20.30    5.80
   2   5   2   28.90    7.00
  -2   6   2   33.90    7.30
   2  -6   2   23.30    7.60
  -2  -6  -2   19.70    7.80
   2   6   2   36.80    7.90
  -2  -6   2   32.30    7.30
   2  -6  -2   21.50    8.70
   2  -7   2   -8.90    8.00
   2   7   2    9.90    7.70
  -2  -7   2    3.30    8.10
   2  -7  -2   -0.50    9.40
   2   0   3 2846.62   62.19
  -2   0   3 2769.92   63.39
   2   0   3 2921.31   63.99
   2  -1   3 1145.59   27.90
  -2   1   3 1110.79   27.30
   2   1   3 1100.59   26.70
  -2  -1   3 1112.59   26.50
   2   1   3 1137.89   26.60
   2   2  -3  550.94   14.60
   2  -2   3  552.74   16.30
  -2   2   3  546.05   16.00
   2   2   3  536.25   14.30
   2   2   3  560.34   15.80
  -2   3   3  123.19    8.70
   2   3  -3  119.89    6.80
   2  -3   3  130.39    8.90
   2   3   3  121.49    5.40
   2   3   3  113.69    8.10
   2  -3  -3  117.49    8.40
   2  -4   3  172.28    9.40
  -2   4   3  174.48   10.80
   2   4  -3  180.78    8.90
   2  -4   3  181.98   11.40
  -2  -4  -3  193.88   10.30
   2  -4  -3  176.78   11.00
   2   4   3  176.68   11.20
   2  -5   3  367.46   14.10
  -2  -5  -3  351.96   14.20
   2   5  -3  354.76   12.70
  -2   5   3  358.86   14.60
  -2  -5   3  382.66   13.40
   2   5   3  358.26   15.00
   2  -5  -3  332.37   15.30
  -2  -6  -3   29.80    8.30
   2  -6   3   39.10    7.70
  -2   6   3   50.89    8.10
   2   6   3   45.30    8.30
  -2  -6   3   37.20    7.30
   2  -6  -3   36.50    9.20
   2  -7   3    7.10    8.30
   2  -7  -3   27.00   10.60
  -2  -7   3   26.90    8.40
   2   7   3   35.90    8.60
   2   0   4 1211.78   27.70
  -2   0   4 1176.18   29.10
   2   0   4 1216.58   29.80
   2  -1   4 1192.28   25.60
   2  -1   4 1183.08   29.30
  -2   1   4 1154.48   28.80
   2   1   4 1150.08   28.10
  -2  -1   4 1090.49   27.50
   2   1   4 1121.19   27.50
   2  -2   4  709.03   20.40
  -2   2   4  682.03   19.80
   2   2   4  685.13   18.10
   2   2   4  729.43   19.40
  -2  -2   4  712.63   18.40
   2  -3   4  181.18   11.10
  -2   3   4  183.78   10.80
   2   3   4  177.48   10.40
   2  -4   4  355.96   15.30
   2   4  -4  366.86   12.30
  -2   4   4  373.16   15.00
   2   4   4  365.46   15.10
  -2  -4   4  398.66   14.90
   2  -4  -4  355.36   15.30
  -2   5   4    4.70    6.90
   2  -5   4   14.60    5.70
   2  -5  -4   14.10    7.70
   2   5   4    9.50    7.10
  -2  -5   4   18.20    5.40
   2  -6   4   44.00    7.80
  -2   6   4   59.09    8.70
   2   6   4   50.29    8.50
   2  -6  -4   31.70    9.60
  -2  -6   4   35.60    7.20
  -2   7   4   -3.10    8.00
   2  -7   4   -4.60    7.80
  -2  -7   4   -2.70    7.70
   2   7   4   22.00    8.30
   2  -7  -4    8.50   10.50
   2   0   5   14.10    3.70
   2   0   5   14.40    5.10
  -2   0   5   15.80    4.90
  -2   1   5  593.24   17.80
   2  -1   5  561.44   18.30
   2  -1   5  608.14   14.40
   2   1   5  575.34   16.40
   2   1   5  622.04   17.40
  -2  -1   5  569.84   16.30
   2  -2   5  665.53   20.90
  -2   2   5  664.63   20.10
   2   2   5  700.33   19.60
  -2  -2   5  699.03   18.40
   2   2   5  710.93   18.80
   2  -3   5 1134.79   30.70
  -2   3   5 1072.99   29.60
   2   3   5 1087.69   29.30
  -2  -3   5 1125.19   27.60
  -2   4   5    1.70    7.10
   2  -4   5    3.60    7.20
  -2  -4   5    1.00    6.40
   2   4   5   -2.40    6.30
   2  -5   5   -4.50    5.00
   2  -5   5  -13.40    8.80
  -2   5   5    5.50    7.50
  -2  -5   5    6.10    7.10
   2   5   5    8.70    7.20
  -2   6   5   41.10    8.80
   2  -6   5   25.00    6.60
   2   6   5   36.20    8.50
  -2  -6   5   35.00    6.90
   2   0   6 1038.50   28.20
   2   0   6 1080.89   25.70
  -2   0   6 1041.50   27.30
   2  -1   6  273.17   13.00
   2  -1   6  264.97    8.90
  -2   1   6  267.17   12.60
  -2  -1   6  249.48   10.70
   2   1   6  282.47   12.10
   2   1   6  265.57   10.80
   2  -2   6   99.79   10.70
  -2   2   6   84.49    8.50
   2   2   6   79.39    8.50
   2   2   6   86.69    7.60
  -2  -2   6   90.59    7.20
  -2   3   6  681.13   21.80
   2  -3   6  702.73   22.80
   2   3   6  641.44   20.90
  -2  -3   6  700.43   18.90
  -2  -3   6  642.54   22.00
   2  -4   6  310.57   15.40
  -2   4   6  297.57   14.80
  -2  -4   6  291.47   14.40
   2   4   6  276.37   13.80
   2  -5   6  100.59   10.90
  -2   5   6  108.89   10.50
  -2  -5   6  117.49   11.70
   2   5   6   99.09    9.80
   2  -6   6   47.30    7.20
  -2   6   6   49.00    9.30
  -2  -6   6   52.49    7.10
   2   6   6   38.60    8.90
   2   0   7 1345.47   36.20
  -2   0   7 1353.06   35.00
   2   0   7 1457.25   33.50
  -2   1   7  326.57   14.50
   2  -1   7  314.67   15.00
   2   1   7  301.37   12.10
  -2  -1   7  308.17   12.70
   2   1   7  322.27   13.70
  -2   2   7  187.78   12.80
   2  -2   7  165.78   12.90
  -2   2   7  182.58    9.80
   2   2   7  160.68   11.00
  -2  -2   7  153.58   12.10
  -2  -2   7  179.58    9.50
   2   2   7  168.08   10.70
  -2   3   7  776.42   23.80
   2  -3   7  737.63   24.80
   2   3   7  725.33   22.60
  -2  -3   7  760.42   24.50
   2  -4   7  269.77   15.90
  -2   4   7  296.87   15.40
   2   4   7  258.27   13.90
  -2  -4   7  293.57   15.20
   2  -5   7   12.50    9.20
  -2   5   7   33.00    9.00
  -2  -5   7   24.40    8.50
   2   5   7   32.00    8.00
  -2   6   7   50.49   10.30
   2   6   7   56.59    9.60
  -2   0   8    1.00    6.50
   2   0   8    8.10    7.10
   2   0   8   -1.60    5.30
  -2   0   8    4.10    6.30
   2  -1   8  455.15   18.90
  -2   1   8  493.15   17.30
  -2   1   8  484.95   18.00
  -2  -1   8  479.55   16.40
  -2  -1   8  460.95   18.50
   2   1   8  492.25   16.20
   2   1   8  499.45   17.80
   2  -2   8   44.10    8.80
  -2   2   8   31.00    8.00
  -2   2   8   37.70    6.30
   2   2   8   46.40    7.10
   2   2   8   42.50    7.40
  -2  -2   8   34.50    6.40
  -2  -2   8   50.49    8.40
  -2   3   8   65.79    9.30
   2  -3   8   66.79   10.20
  -2  -3   8   70.59    9.70
   2   3   8   67.79    8.40
   2  -4   8  174.98   14.90
  -2   4   8  190.78   14.10
  -2  -4   8  205.68   14.70
   2   4   8  187.98   12.70
   2  -5   8   78.89   11.60
  -2   5   8   70.09   10.40
  -2  -5   8   84.99   11.10
   2   5   8   84.89   10.00
  -2   0   9   -5.50    6.40
  -2   0   9    5.70    6.50
   2   0   9   -2.70    6.80
  -2   1   9  451.25   17.50
   2  -1   9  455.15   19.30
  -2   1   9  456.95   17.70
   2   1   9  486.05   17.90
  -2  -1   9  443.86   18.90
   2   1   9  469.15   16.40
  -2  -1   9  473.35   16.90
   2  -2   9  216.68   15.10
  -2   2   9  181.08   14.20
   2   2   9  214.48   11.90
  -2  -2   9  213.48   14.60
   2  -3   9   79.99   11.40
  -2   3   9   72.49   10.10
  -2  -3   9   71.29   10.40
   2   3   9   77.79    9.00
   2  -4   9   63.39   11.00
  -2   4   9   61.79   10.20
  -2  -4   9   66.79   10.60
   2   4   9   54.79    8.90
   2  -5   9  157.68   15.60
  -2   5   9  199.98   15.50
  -2  -5   9  184.38   15.80
   2   5   9  214.68   14.90
  -2   0  10   12.50    7.40
   2   0  10    7.60    7.80
  -2   0  10    9.60    7.10
  -2   1  10  131.89   11.00
  -2   1  10  119.19   10.70
   2  -1  10  128.09   13.00
  -2  -1  10  130.59   12.30
   2   1  10  115.29   11.10
   2  -2  10  116.59   12.60
  -2   2  10  101.49   10.80
   2   2  10  101.99    9.50
  -2  -2  10   91.59   10.90
   2  -3  10   14.70    9.70
  -2   3  10   19.10    9.00
   2   3  10   27.50    8.10
  -2  -3  10   40.60    9.70
  -2   4  10    6.00    9.30
   2  -4  10    0.90   10.10
   2   4  10   14.70    8.30
  -2  -4  10   10.90    9.30
  -2   0  11  229.98   15.30
  -2   0  11  223.58   14.90
   2   0  11  236.88   15.10
   2  -1  11  112.39   12.50
  -2   1  11  123.69   12.00
  -2   1  11  121.49   11.50
  -2  -1  11  137.19   13.20
   2   1  11  134.89   13.50
   2  -2  11    8.10    9.60
  -2   2  11    8.00    8.60
  -2  -2  11   17.10    8.90
  -2   3  11   -7.70    9.30
   2  -3  11  -11.00    9.80
  -2  -3  11    8.00    8.90
   2   3  11   15.40    8.70
  -2   0  12   64.49   10.30
   2   0  12   59.59   10.90
  -2   1  12   61.49   11.00
   2  -1  12   39.60   10.70
  -2  -1  12   57.29   10.60
   2  -2  12   19.20   14.90
  -2   2  12  -16.90    9.20
  -2  -2  12   11.70   12.50
   3   0   0    3.50    1.40
   3   0   0   -3.00    3.10
   3   0   0    1.80    2.10
   3  -1   0 1354.86   30.30
   3   1   0 1324.47   31.50
   3   1   0 1359.86   31.00
  -3   1   0 1372.86   30.60
   3  -1   0 1323.67   31.50
   3  -2   0  406.96   11.50
   3   2   0  407.66   12.10
  -3  -2   0  389.46   10.00
   3  -2   0  411.06   12.80
  -3   2   0  403.16   11.30
   3  -3   0   51.19    5.50
  -3  -3   0   48.30    4.40
   3   3   0   47.10    5.20
   3  -3   0   46.30    5.00
  -3   3   0   49.90    4.80
   3  -4   0    2.00    5.30
  -3   4   0    2.70    4.80
  -3  -4   0    1.70    4.40
   3   4   0    3.30    5.30
   3   5   0  862.81   24.00
  -3  -5   0  846.52   22.90
   3  -5   0  826.82   24.90
   3  -6   0  142.99   12.40
   3   6   0  163.88   11.30
   3  -7   0    7.70    9.30
   3   7   0   20.00    7.50
   3   0   1   10.70    3.40
   3   0  -1   13.10    3.30
   3   0   1   10.40    2.20
  -3   0   1   11.80    2.90
  -3   1   1  347.07   10.40
   3  -1   1  334.67    9.00
   3  -1   1  357.56   11.20
   3   1  -1  343.77    9.90
   3  -1  -1  365.86    9.70
   3   1   1  348.47   10.60
  -3   1  -1  352.36    8.90
   3  -1  -1  344.27   10.60
   3   1   1  338.77    9.90
  -3   2   1  901.91   22.20
   3  -2   1  880.71   23.00
   3  -2   1  901.91   21.70
  -3  -2  -1  896.81   20.60
   3   2  -1  900.91   22.20
  -3   2  -1  875.51   20.60
   3  -2  -1  929.01   22.30
   3  -2  -1  884.41   22.00
   3   2   1  882.81   22.00
   3   2   1  890.21   22.40
   3   3  -1   34.30    4.90
   3  -3   1   35.60    5.90
   3  -3   1   33.50    4.60
  -3   3   1   28.20    5.00
  -3  -3  -1   30.10    3.90
   3  -3  -1   30.30    4.90
   3  -3  -1   36.90    4.80
   3   3   1   38.50    5.10
  -3  -3   1   34.10    3.50
  -3   3  -1   36.40    3.80
   3   4  -1  249.48   10.70
  -3  -4  -1  247.88    9.60
   3  -4   1  260.57   11.30
   3  -4   1  234.18   12.10
  -3   4   1  256.47   11.20
   3  -4  -1  251.07   11.70
   3   4   1  243.88   11.40
  -3  -4   1  248.98    9.50
  -3   5   1  200.08   10.30
   3  -5   1  204.68   11.50
   3   5  -1  215.18   10.40
  -3  -5  -1  206.38   10.60
   3   5   1  207.38   11.40
   3  -5  -1  201.28   11.60
  -3  -5   1  216.08    9.80
   3  -6   1  345.17   16.10
   3   6  -1  376.96   14.60
  -3  -6   1  357.86   19.90
   3   6   1  387.06   15.40
   3  -6  -1  341.27   16.20
   3  -7   1  -12.40    8.50
   3  -7  -1  -12.80    8.90
   3   7   1   -1.00    7.40
   3   0   2  634.44   15.00
  -3   0   2  617.64   16.20
   3   0   2  645.04   17.10
   3  -1   2  462.75   13.90
  -3   1   2  456.55   13.20
   3   1   2  418.86   12.00
  -3  -1   2  432.36   12.60
   3   1   2  444.16   13.00
  -3   1  -2  434.96   10.30
   3   2  -2  540.65   14.80
   3  -2   2  541.75   16.30
  -3   2   2  529.75   15.60
   3   2   2  520.45   15.10
   3  -2  -2  532.45   15.10
   3   2   2  534.85   14.60
   3  -3   2   81.19    8.70
  -3   3   2   77.29    6.70
   3  -3   2   72.09    5.80
  -3  -3  -2   85.89    6.10
   3   3  -2   87.19    6.80
   3  -3  -2   70.69    6.40
   3   3   2   72.39    5.50
   3   3   2   71.89    6.30
  -3   3  -2   73.49    4.10
   3   4  -2   11.80    5.20
  -3  -4  -2   13.90    5.60
   3  -4   2    5.50    5.50
   3  -4   2    3.80    7.50
  -3   4   2   10.50    6.30
   3   4   2    5.50    6.20
   3  -4  -2    9.90    6.30
  -3  -4   2    6.50    4.40
  -3   5   2  249.58   11.80
   3  -5   2  205.08   11.60
   3   5  -2  226.38   11.00
  -3  -5  -2  265.57   11.70
  -3  -5   2  247.18   10.70
   3  -5  -2  235.38   12.70
   3   5   2  234.28   12.30
   3  -6   2   97.59    9.80
   3   6  -2  104.29    8.80
   3   6   2  100.79    9.70
  -3  -6   2  119.09    9.60
   3  -6  -2   85.59   10.40
   3  -7   2   48.00   10.00
   3  -7  -2   44.80   10.80
   3   7   2   50.99    8.70
   3   0   3  745.33   18.00
  -3   0   3  757.52   19.70
   3   0   3  785.42   20.70
   3  -1   3  785.72   21.20
  -3   1   3  757.52   20.50
   3   1   3  753.02   19.10
   3   1   3  768.12   20.10
  -3  -1   3  750.42   19.70
   3  -2   3  295.87   12.10
  -3   2   3  292.37   11.70
   3   2   3  286.47   10.80
   3   2   3  299.57   10.20
   3   3  -3  164.28    8.10
  -3   3   3  165.78   10.10
   3  -3   3  170.78   11.20
   3   3   3  136.49    9.50
   3   3   3  150.08    7.20
   3  -3  -3  157.68    9.40
  -3   4   3  260.67   12.90
   3  -4   3  278.27   11.80
   3  -4   3  284.17   13.90
   3   4  -3  279.17   11.40
   3   4   3  292.57   12.60
   3  -4  -3  289.27   13.50
  -3  -5  -3   65.49    7.90
   3  -5   3   62.69    7.60
   3   5  -3   75.49    7.10
  -3   5   3   69.79    8.10
   3  -5  -3   62.89    9.10
  -3  -5   3   73.99    6.90
   3   5   3   58.69    8.10
  -3   6   3   49.40    8.20
   3  -6   3   40.80    8.00
   3  -6  -3   28.80    9.30
  -3  -6   3   47.30    7.20
   3   6   3   44.80    8.50
   3  -7   3   64.59   10.00
   3  -7  -3   58.79   11.80
   3   7   3   62.69    9.80
   3   0   4  817.72   19.40
   3   0   4  819.12   22.10
  -3   0   4  800.02   21.40
   3  -1   4  251.27   11.30
  -3   1   4  246.48   10.80
   3  -1   4  234.38    6.30
   3   1   4  249.28   10.50
  -3  -1   4  242.88    9.40
   3   1   4  254.87    9.30
   3  -2   4  389.76   14.70
  -3   2   4  410.96   14.40
  -3  -2   4  376.36   12.40
   3   2   4  366.46   12.30
   3   2   4  374.36   12.90
   3  -3   4  127.69   11.80
  -3   3   4  139.49   10.70
   3   3   4  128.89   10.00
  -3   4   4  525.85   18.10
   3   4  -4  545.05   16.20
   3  -4   4  542.85   19.10
   3  -4   4  501.65   16.10
   3   4   4  520.25   18.00
   3  -4  -4  467.25   18.30
  -3   5   4  204.28   12.40
   3  -5   4  194.48   10.90
   3   5  -4  203.98   10.30
  -3  -5   4  223.98   10.20
   3   5   4  197.38   12.30
   3  -5  -4  230.78   13.70
  -3   6   4  133.09   11.90
   3  -6   4  105.39    9.60
   3   6   4  103.39   10.20
  -3  -6   4  130.39    9.90
   3  -6  -4   98.69   11.50
   3   0   5  457.85   15.60
  -3   0   5  445.86   14.70
   3   0   5  454.75   12.30
   3  -1   5    0.20    2.00
  -3   1   5    1.50    5.40
   3  -1   5    5.20    5.60
   3   1   5   -3.70    3.90
  -3  -1   5    3.40    4.40
   3   1   5   -0.90    4.80
  -3   2   5   58.79    7.90
   3  -2   5   59.09    7.90
   3   2   5   51.19    6.10
   3   2   5   47.50    6.20
  -3  -2   5   52.89    5.80
   3  -3   5   95.99    9.90
  -3   3   5  108.09    9.60
   3   3   5   84.29    8.30
  -3  -3   5  116.69    8.40
   3  -4   5  220.88   13.40
  -3   4   5  223.88   13.30
  -3  -4   5  245.38   10.90
   3   4   5  222.08   12.40
   3  -5   5   35.70   12.40
  -3   5   5   27.60    8.30
   3  -5   5   33.10    6.30
   3   5   5   36.50    8.00
  -3  -5   5   40.60    8.10
   3  -6   5   23.10    6.80
  -3   6   5   21.20    8.50
   3   6   5   17.40    8.00
  -3  -6   5   34.20    6.80
   3   0   6   25.10    4.20
  -3   0   6   23.80    6.30
   3   0   6   26.90    6.80
  -3   1   6  116.79   10.60
   3  -1   6   90.19    8.90
   3   1   6  112.79   10.10
   3   1   6  107.69    7.90
  -3  -1   6   96.59    8.40
  -3   2   6   22.50    7.70
   3  -2   6   27.40    8.00
  -3  -2   6   24.70    5.70
   3   2   6   28.20    6.40
   3   2   6   27.20    6.30
  -3   3   6  143.79   12.70
   3  -3   6  134.59   12.80
   3   3   6  149.09   11.00
  -3  -3   6  138.99    9.10
  -3   4   6  146.09   12.40
   3  -4   6  130.79   12.50
  -3  -4   6  148.89   11.10
   3   4   6  133.89   11.20
  -3   5   6   27.00    8.70
   3  -5   6   12.90    9.10
   3   5   6   29.80    7.80
  -3  -5   6   34.80    8.50
  -3   6   6   32.60    9.40
   3  -6   6   29.60    7.00
  -3  -6   6   35.70    6.90
   3   6   6   27.10    8.40
   3   0   7  831.62   25.60
  -3   0   7  861.11   24.70
   3   0   7  880.51   22.20
  -3   1   7  185.98   12.70
   3  -1   7  169.38   12.00
  -3  -1   7  171.28   11.00
   3   1   7  178.18   12.10
   3   1   7  164.38   10.00
   3  -2   7  347.67   17.00
  -3   2   7  385.46   17.10
   3   2   7  381.66   14.50
   3   2   7  387.56   15.00
  -3  -2   7  394.36   14.20
  -3   3   7   58.79    9.30
   3  -3   7   58.79    9.50
  -3  -3   7   63.69    6.80
   3   3   7   74.69    8.10
   3  -4   7  258.17   15.70
  -3   4   7  254.87   15.20
  -3  -4   7  258.77   14.10
   3   4   7  259.57   13.80
  -3   5   7   12.90    8.90
   3  -5   7   -6.60    9.20
  -3  -5   7   15.00    8.20
   3   5   7   12.10    7.60
  -3   6   7   -0.90    9.20
   3   0   8  202.58   12.80
  -3   0   8  196.18   12.10
  -3   1   8   31.80    8.10
   3  -1   8   31.90    8.50
  -3  -1   8   43.80    7.20
   3   1   8   54.09    8.30
   3   1   8   53.89    6.70
  -3   2   8   21.10    5.30
  -3   2   8    8.10    7.90
   3  -2   8    9.60    7.80
   3   2   8    9.30    6.10
   3   2   8    4.50    6.70
  -3  -2   8   10.90    5.90
   3  -3   8   35.70    9.50
  -3   3   8   34.60    9.20
   3   3   8   40.90    7.70
  -3  -3   8   34.40    8.10
   3  -4   8   78.09   11.50
  -3   4   8   71.49   10.50
  -3  -4   8  102.69   10.90
   3   4   8  103.19    9.80
  -3   5   8   35.30    9.90
   3  -5   8   21.20   10.40
   3   5   8   34.20    8.80
  -3  -5   8   35.50    9.60
   3   0   9   13.80    7.70
  -3   0   9    6.20    7.20
  -3   0   9   17.40    6.50
  -3   1   9   43.00    8.80
  -3   1   9   50.49    7.30
   3  -1   9   33.90    9.00
  -3  -1   9   47.50    7.60
  -3  -1   9   53.99    8.30
   3   1   9   41.40    8.40
   3  -2   9  165.08   14.40
  -3   2   9  183.08   13.90
   3   2   9  199.48   11.50
  -3  -2   9  176.28   13.00
   3  -3   9    1.30    9.10
  -3   3   9   14.80    9.10
  -3  -3   9   18.60    7.90
   3   3   9   20.40    7.70
   3  -4   9   29.70   10.70
  -3   4   9   50.69   10.70
   3   4   9   43.30    8.70
  -3  -4   9   43.80    9.50
   3  -5   9  126.39   14.10
  -3  -5   9  157.08   14.20
   3   5   9  181.18   15.20
   3   0  10   62.39   10.10
  -3   0  10   47.40    8.90
  -3   0  10   73.39    9.20
  -3   1  10   69.39    8.50
   3  -1  10   70.09   10.80
  -3   1  10   57.49    9.70
  -3  -1  10   80.69   10.00
   3   1  10   66.99    9.70
  -3  -1  10   72.09    9.10
   3  -2  10    5.80    9.00
  -3   2  10    8.80    8.60
  -3  -2  10   19.90    8.30
   3   2  10   15.90    7.20
  -3   3  10   34.90   10.00
   3  -3  10   33.20   10.60
  -3  -3  10   50.69    9.80
   3   3  10   63.49    9.00
   3  -4  10   41.00   11.90
  -3   4  10   57.39   11.50
  -3  -4  10   58.19   10.90
   3   4  10   47.60    9.50
   3   0  11   -8.10    8.20
  -3   0  11    6.40    7.20
  -3   0  11   -7.70    8.00
  -3   1  11    2.70    8.60
   3  -1  11   12.70    9.60
  -3   1  11    4.30    6.80
  -3  -1  11   23.80    8.50
   3   1  11    6.30    8.70
  -3   2  11    1.80    9.40
   3  -2  11    2.20    9.90
  -3  -2  11    5.80    8.30
   3  -3  11   28.60   11.40
  -3   3  11   26.70   10.70
   3   3  11   33.60    9.00
  -3  -3  11   28.10    9.70
  -3   0  12   -5.60    7.60
   3   0  12   -4.60    9.30
  -3   1  12  -26.00    9.20
   3  -1  12   -3.50    9.90
  -3  -1  12   19.10    9.10
   4   0   0  217.98    5.80
   4   0   0  199.48    9.10
   4   1   0  543.25   14.80
  -4   1   0  549.35   14.30
   4  -1   0  558.94   13.70
   4   1   0  538.35   15.90
   4  -1   0  551.54   16.10
   4  -2   0  298.37    9.50
   4  -2   0  294.77   11.30
  -4   2   0  294.37    9.60
   4   2   0  282.17    9.90
  -4  -2   0  276.37    7.40
  -4   3   0  275.97   10.00
  -4  -3   0  257.07    8.30
   4  -3   0  274.47   10.50
   4   3   0  274.97   10.90
   4  -3   0  307.47   12.00
   4   4   0   65.19    7.30
   4  -4   0   67.49    7.40
  -4  -4   0   67.29    6.30
  -4   4   0   60.79    6.20
   4  -5   0  486.95   17.70
   4   5   0  504.95   17.20
   4   6   0  274.47   13.50
   4  -6   0  264.47   14.70
   4   7   0   13.80    7.30
   4  -7   0   -1.20    9.40
   4   0   1   99.09    4.80
   4   0  -1   83.49    7.20
   4   0   1   96.99    7.50
  -4   0   1   94.79    5.90
   4   0   1   94.29    3.20
  -4   1   1  808.22   20.50
   4  -1   1  787.22   21.70
   4   1  -1  805.12   20.40
   4  -1   1  822.22   19.20
   4   1   1  869.11   21.70
   4  -1  -1  807.62   21.70
  -4   1  -1  776.92   19.20
   4   1   1  822.42   20.30
   4  -1  -1  851.41   19.80
  -4   2   1 1091.39   26.70
   4   2  -1 1117.69   26.90
   4  -2   1 1078.69   25.90
   4  -2   1 1049.89   27.70
  -4   2  -1 1076.29   25.30
   4   2   1 1073.39   26.90
   4  -2  -1 1115.09   27.40
   4   2   1 1094.39   27.10
   4  -2  -1 1126.79   26.50
  -4  -3  -1  209.48    7.50
  -4   3   1  208.58    9.40
   4   3  -1  211.38    9.50
   4  -3   1  211.38    9.00
   4  -3   1  221.48   11.00
  -4   3  -1  206.78    7.80
   4  -3  -1  218.68    9.80
   4   3   1  200.58    9.70
  -4  -3   1  196.28    7.00
   4  -3  -1  202.78    9.50
   4   4  -1  162.68    9.70
  -4   4   1  172.08    9.60
  -4  -4  -1  169.98   10.20
   4  -4   1  179.08   12.20
   4  -4   1  177.08    9.60
   4  -4  -1  173.58   10.60
   4   4   1  168.58   10.40
  -4  -4   1  156.78    7.50
   4   5  -1   51.99    7.00
   4  -5   1   48.00    7.70
   4  -5  -1   44.80    7.90
   4   5   1   52.79    7.50
   4  -6   1  267.67   15.10
   4   6  -1  275.67   13.30
   4  -6  -1  256.67   15.00
   4   6   1  267.07   13.50
   4   7  -1   57.39    8.40
   4  -7   1   38.80   10.50
   4   7   1   52.09    9.10
   4  -7  -1   44.30   10.90
  -4   0   2 2428.06   54.49
   4   0   2 2390.76   55.39
   4   0   2 2381.36   52.99
  -4   1   2 1748.23   39.90
   4  -1   2 1701.73   41.10
  -4  -1   2 1643.64   39.80
   4   1   2 1739.33   40.30
   4   1   2 1718.23   39.10
  -4   1  -2 1673.93   37.70
   4  -2   2  103.89    9.00
  -4   2   2  111.29    8.40
   4   2  -2  106.09    7.00
   4  -2   2  101.29    5.60
   4  -2  -2  109.59    7.00
  -4   2  -2  100.39    4.40
   4   2   2  103.89    7.40
   4   2   2   98.49    7.20
   4  -2  -2  107.29    7.10
   4   3  -2  503.15   15.40
   4  -3   2  509.65   15.00
  -4   3   2  523.95   16.00
   4  -3   2  521.45   17.50
   4  -3  -2  511.05   15.10
   4   3   2  482.75   15.90
   4  -3  -2  490.75   15.80
   4   3   2  500.95   15.00
   4  -4   2  163.28    9.90
   4   4  -2  160.68    9.50
   4  -4   2  145.79   11.60
  -4   4   2  172.58   10.70
   4   4   2  165.88   10.90
   4  -4  -2  153.78   10.90
  -4  -4   2  153.78    7.80
   4   5  -2  528.45   16.90
   4  -5   2  492.35   17.80
  -4   5   2  497.85   17.20
   4   5   2  546.45   18.30
   4  -5  -2  479.95   18.50
   4   6  -2   82.29    8.00
   4  -6   2   69.89    9.20
   4   6   2   81.59    9.20
   4  -6  -2   86.89   10.60
   4  -7   2  171.18   14.80
   4   7   2  173.98   12.90
   4  -7  -2  154.18   14.50
   4   0   3  490.15   12.60
   4   0   3  502.35   15.80
  -4   0   3  484.55   14.60
  -4   1   3   96.69    7.80
   4  -1   3   86.69    3.50
   4  -1   3   93.69    8.30
  -4  -1   3   93.99    7.10
   4   1   3  102.79    8.10
   4   1   3   96.99    5.90
  -4   2   3  388.26   14.20
   4  -2   3  379.86   14.90
   4   2   3  394.96   12.90
   4   2   3  383.66   12.70
  -4   3   3   56.39    7.60
   4  -3   3   58.89    5.70
   4   3  -3   55.09    6.20
   4  -3   3   62.69    9.10
   4   3   3   59.29    6.90
   4  -3  -3   63.69    7.20
   4   3   3   64.09    7.00
  -4   4   3  150.08   11.20
   4   4  -3  139.49    9.00
   4  -4   3  163.28   13.20
   4  -4   3  140.69    9.30
   4  -4  -3  138.99   11.00
   4   4   3  157.58   10.90
  -4   5   3    4.00    6.90
   4  -5   3   17.60    6.50
   4   5  -3   21.30    5.90
   4  -5  -3    9.40    8.00
   4   5   3   20.80    7.00
   4   6  -3  108.29    9.50
   4  -6   3   80.39    9.60
   4   6   3  102.29   10.10
   4  -6  -3   78.19   10.90
   4   0   4  763.22   18.80
  -4   0   4  753.02   20.90
   4   0   4  821.42   22.50
  -4   1   4  244.38   11.20
   4  -1   4  226.18    6.30
   4  -1   4  241.48   12.10
   4   1   4  252.87   11.00
  -4  -1   4  238.88   10.00
   4   1   4  248.98    9.10
   4  -2   4  183.08   12.10
  -4   2   4  171.28   11.20
  -4  -2   4  174.38    9.30
   4   2   4  195.88    9.40
   4   2   4  172.38    9.70
   4  -3   4  603.84   20.90
  -4   3   4  636.74   20.40
   4   3   4  574.14   18.50
   4   3   4  572.94   18.60
  -4   4   4  332.07   14.50
   4  -4   4  316.97   15.40
   4   4  -4  344.37   13.00
   4  -4   4  319.67   12.60
   4   4   4  320.47   13.60
   4  -5   4    9.80    6.10
  -4   5   4   15.10    7.70
   4   5  -4   11.20    6.10
   4  -5  -4    3.40    8.00
   4   5   4    8.70    7.00
   4  -6   4   43.70    8.00
  -4   6   4   43.30    8.70
   4   6   4   48.10    8.70
   4  -6  -4   40.90   10.10
   4   0   5 1110.49   30.20
  -4   0   5 1102.69   28.90
   4   0   5 1136.59   26.30
   4  -1   5  444.56   16.60
  -4   1   5  464.25   16.50
   4   1   5  454.05   13.90
   4   1   5  462.35   16.00
  -4  -1   5  463.95   15.20
   4  -2   5  132.59   12.10
  -4   2   5  142.09   11.60
   4   2   5  131.09    9.30
  -4  -2   5  139.59    9.40
   4   2   5  131.09   10.00
   4  -3   5  127.69   13.50
  -4   3   5  168.78   12.80
  -4  -3   5  149.88   10.20
   4   3   5  158.08   11.10
   4  -4   5  264.97   14.90
  -4   4   5  272.37   14.70
  -4  -4   5  249.18   11.60
   4   4   5  259.67   13.10
   4  -5   5   60.69    7.40
  -4   5   5   50.19    9.30
   4   5   5   59.79    8.70
   4  -6   5   43.60    8.00
  -4   6   5   39.70    9.50
   4   6   5   53.29    9.20
  -4   0   6    6.50    6.30
   4   0   6    6.10    7.00
   4   0   6   10.70    3.90
  -4   1   6   56.19    8.20
   4  -1   6   73.79    8.90
   4   1   6   81.79    8.70
   4   1   6   70.09    6.20
  -4  -1   6   63.99    7.20
   4  -2   6    2.50    7.80
  -4   2   6    4.60    7.90
   4   2   6    5.40    5.70
  -4  -2   6    9.60    5.90
   4   2   6    5.30    6.60
   4  -3   6   94.39   10.50
  -4   3   6   96.99   10.10
  -4  -3   6  107.89    9.30
   4   3   6  110.99   10.10
  -4   4   6   45.30    9.10
   4  -4   6   28.60    9.40
  -4  -4   6   38.40    6.90
   4   4   6   41.20    8.00
   4  -5   6   20.10    5.70
   4  -5   6    0.70    9.70
  -4   5   6   17.60    9.10
  -4  -5   6   39.60    7.80
   4   5   6   12.90    7.40
   4  -6   6   10.80    6.40
  -4   6   6   -5.00    8.80
   4   6   6    7.00    7.90
   4   0   7   11.90    7.60
  -4   0   7    2.00    6.90
   4  -1   7   53.59    9.00
  -4   1   7   74.59    9.30
  -4  -1   7   49.20    7.30
   4   1   7   53.09    8.50
   4   1   7   50.39    6.40
  -4   2   7    7.20    8.10
   4  -2   7    5.00    7.90
   4   2   7   12.00    6.00
   4   2   7    7.30    6.80
  -4  -2   7    7.40    5.80
  -4   3   7   12.20    8.50
   4  -3   7   19.50    8.70
   4   3   7   21.90    7.00
  -4  -3   7   23.80    6.30
  -4   4   7   -2.90    8.60
   4  -4   7    7.40    9.20
   4   4   7    5.00    7.30
   4  -5   7   15.00   10.10
  -4   5   7   22.80    9.70
   4   5   7   36.50    8.50
  -4  -5   7   34.20    8.40
   4   0   8   32.40    8.20
  -4   0   8   36.50    7.70
   4  -1   8   69.69    9.70
  -4   1   8   71.49    9.50
  -4  -1   8   61.89    8.10
   4   1   8   70.19    6.90
   4   1   8   70.69    9.20
  -4   2   8   59.19    9.60
   4  -2   8   46.40    9.60
   4   2   8   63.59    7.60
  -4  -2   8   56.59    7.60
   4   2   8   58.99    8.50
   4  -3   8    3.10    8.80
  -4   3   8    5.90    8.80
  -4  -3   8    5.50    8.50
   4   3   8   24.10    7.30
   4  -4   8   20.80   10.00
  -4   4   8   24.80    9.50
  -4  -4   8   35.00    8.20
   4   4   8   36.90    8.40
   4  -5   8  -20.80    9.80
  -4   5   8   -4.40   10.20
   4   5   8   13.40    8.20
  -4  -5   8    5.70    8.40
   4   0   9   -3.40    7.50
  -4   0   9   -2.30    7.30
  -4   1   9   28.70    8.70
   4  -1   9   32.00    9.10
  -4  -1   9   35.30    7.80
   4   1   9   31.90    8.50
  -4   2   9  116.49   11.90
   4  -2   9  112.19   12.10
  -4  -2   9  114.19    9.80
   4   2   9  145.09   11.10
  -4   3   9   13.30    9.70
   4  -3   9   32.90   10.20
   4   3   9   27.90    8.00
  -4  -3   9   41.40    8.20
  -4   4   9   -1.60    9.60
   4  -4   9   -0.40    9.80
   4   4   9   22.60    8.30
  -4  -4   9   15.50    8.00
  -4   0  10    9.20    6.30
   4   0  10   -1.80    8.00
  -4   0  10   -9.50    7.60
  -4   1  10   47.50    9.80
  -4   1  10   39.60    7.00
   4  -1  10   25.90    9.50
  -4  -1  10   28.10    8.10
   4   1  10   44.40    9.70
  -4  -1  10   45.50    8.20
   4  -2  10   -2.30    9.00
  -4   2  10   -5.80    8.70
  -4  -2  10   17.00    7.30
   4  -3  10   33.90   11.20
  -4   3  10   33.60   11.00
   4   3  10   54.79    9.40
  -4  -3  10   37.50    9.00
   4  -4  10   49.00   12.40
  -4  -4  10   48.80   10.60
   4   4  10   72.59   10.20
  -4   0  11   48.50    8.40
  -4   0  11   11.10    8.70
   4   0  11   29.00    9.90
  -4   1  11   51.89   10.70
   4  -1  11   39.30   10.60
  -4   1  11   52.09    8.40
   4   1  11   22.40    9.60
  -4  -1  11   64.29    9.60
  -4   2  11   13.90   10.00
   4  -2  11   25.80   10.80
  -4  -2  11   31.60    9.10
  -4   0  12   87.79   12.20
  -4   0  12  123.19   12.50
   4   0  12   99.29   13.00
   5   0   0   -0.80    4.40
  -5   0   0   -1.50    3.20
   5  -1   0   89.99    4.90
   5   1   0   97.29    5.90
  -5   1   0   91.69    5.70
   5  -1   0   89.89    8.40
   5   1   0   96.29    7.70
   5   2   0  288.57   10.60
   5  -2   0  313.17   12.80
   5  -2   0  305.67    9.90
   5   2   0  291.97   11.70
  -5   2   0  304.17   10.30
   5  -3   0   -2.70    6.60
   5   3   0    3.20    5.00
  -5   3   0    3.00    5.00
   5  -3   0    1.70    4.80
   5   4   0 1488.05   38.10
   5  -4   0 1574.64   38.40
   5   5   0  176.58   11.00
   5  -5   0  200.38   12.30
   5  -6   0  116.99   11.10
   5   6   0  102.99    9.50
   5   0   1  950.90   20.90
   5   0  -1  932.81   25.10
  -5   0   1  943.91   23.40
   5   0   1  901.41   22.20
   5   0   1  939.51   25.00
  -5   1   1  509.35   14.30
   5   1  -1  489.95   15.80
   5  -1   1  473.45   16.00
   5  -1   1  521.95   12.90
   5   1  -1  510.05   14.50
   5  -1  -1  502.25   16.10
   5   1   1  511.95   14.10
   5  -1  -1  518.05   13.50
  -5   1  -1  501.05   13.30
   5   1   1  530.55   16.00
  -5   2   1   12.50    4.90
   5   2  -1    7.40    4.10
   5  -2   1    6.10    3.40
   5  -2   1    2.00    5.80
   5   2   1    6.80    4.10
   5  -2  -1   -4.80    3.70
   5   2   1    6.80    4.70
  -5  -2   1    6.80    1.70
  -5   2  -1    3.40    3.60
   5  -2  -1   13.10    5.70
  -5   3   1  141.19    9.80
   5  -3   1  144.39    8.10
   5  -3   1  144.59   10.70
   5   3  -1  135.39    8.90
   5  -3  -1  133.09    8.70
   5   3   1  114.29    8.60
   5  -3  -1  134.69   10.10
   5   4  -1  322.97   12.60
   5  -4   1  294.77   14.10
  -5   4   1  310.37   12.30
   5  -4   1  309.57   12.80
   5   4   1  297.47   13.10
   5  -4  -1  313.87   13.30
   5  -5   1  218.08   12.50
   5   5  -1  221.38   11.90
   5   5   1  222.78   12.30
   5  -5  -1  212.38   12.70
   5   6  -1    7.50    6.50
   5  -6   1   -5.80    7.70
   5   6   1   21.50    7.60
   5  -6  -1   10.90    8.60
  -5   0   2  333.57   11.60
   5   0   2  341.87    9.90
   5   0   2  340.77   13.00
  -5   1   2  563.24   16.40
   5  -1   2  537.75   17.90
   5  -1   2  581.84   14.30
   5  -1  -2  601.04   17.50
   5   1   2  546.65   17.20
   5   1   2  585.04   15.60
  -5  -1   2  568.74   16.50
  -5   1  -2  574.54   14.20
   5  -2   2  292.37   13.40
  -5   2   2  307.67   12.20
   5   2  -2  307.87   11.30
   5  -2   2  303.67    9.90
   5  -2  -2  301.67   10.90
   5  -2  -2  317.47   12.30
   5   2   2  294.87   11.70
  -5   2  -2  297.77    8.80
   5   2   2  300.57   11.20
   5  -3   2  255.97   14.30
   5  -3   2  236.68   10.10
   5   3  -2  244.08   10.90
  -5   3   2  262.77   11.90
   5  -3  -2  241.08   11.30
   5   3   2  257.47   11.20
   5  -3  -2  275.37   12.00
   5   3   2  244.48   11.00
  -5   4   2   61.79    7.80
   5  -4   2   75.69    9.70
   5   4  -2   69.09    7.10
   5  -4   2   63.99    7.10
   5  -4  -2   64.59    8.00
   5   4   2   71.79    7.70
   5  -5   2  273.87   13.20
   5   5  -2  275.77   12.40
   5  -5  -2  259.07   14.30
   5   5   2  276.77   13.50
   5   6  -2   83.09    8.50
   5  -6   2   92.79   10.20
   5  -6  -2   69.59   10.60
   5   6   2  101.99   10.20
   5   0   3  103.69    9.20
  -5   0   3   91.99    7.00
   5   0   3   90.79    5.00
  -5   1   3  250.57   10.70
   5  -1   3  259.67   12.60
  -5  -1   3  243.78   10.20
   5   1   3  255.27   11.30
   5   1   3  244.98    9.10
  -5   2   3  619.74   18.80
   5  -2   3  613.74   20.30
   5   2   3  592.34   18.40
   5   2   3  622.54   17.60
  -5  -2   3  598.14   18.50
  -5   3   3  427.86   15.90
   5   3  -3  428.56   14.70
   5  -3   3  417.46   13.70
   5  -3   3  451.15   18.40
   5   3   3  432.06   14.80
   5  -3  -3  392.86   15.00
   5   3   3  410.26   15.30
   5  -4   3  337.27   13.20
   5  -4   3  361.36   16.60
   5   4  -3  323.17   13.10
  -5   4   3  347.27   15.00
   5   4   3  313.37   14.10
   5  -4  -3  323.97   14.60
   5   5  -3   22.20    6.40
  -5   5   3   16.70    7.70
   5  -5   3   11.10    6.50
   5   5   3   20.60    7.30
   5  -5  -3   13.00    8.20
   5   6  -3  177.78   11.10
   5  -6   3  171.28   12.40
   5  -6  -3  149.88   14.10
   5   6   3  156.78   12.30
   5   0   4   56.09    4.80
  -5   0   4   52.59    6.10
   5   0   4   55.09    7.50
  -5   1   4  356.76   14.10
   5  -1   4  375.86   15.80
  -5  -1   4  360.66   13.40
   5   1   4  362.86   11.70
   5   1   4  347.37   14.40
   5  -2   4   20.10    8.10
  -5   2   4   27.80    7.40
  -5  -2   4   27.20    6.10
   5   2   4   16.20    5.20
   5   2   4   24.10    6.20
   5  -3   4  177.08   14.10
  -5   3   4  184.28   12.90
  -5  -3   4  178.78   10.70
   5   3   4  179.48   10.80
   5   3   4  158.18    9.90
   5  -4   4   29.40    9.60
   5   4  -4   24.40    6.30
  -5   4   4    8.10    7.80
   5  -4   4    9.60    5.30
   5   4   4   19.10    6.70
  -5   5   4   14.90    8.40
   5  -5   4   12.10    6.60
   5   5  -4   15.00    6.30
   5   5   4    7.50    7.20
   5  -5  -4   11.40    8.60
   5  -6   4   56.49    8.80
  -5   6   4   26.10   13.60
   5  -6  -4   42.20   10.50
   5   6   4   46.50    9.10
   5   0   5   75.69    8.70
  -5   0   5   71.49    7.60
   5   0   5   69.49    5.40
  -5   1   5  253.77   13.00
   5  -1   5  224.18   14.10
   5   1   5  238.38    9.50
  -5  -1   5  225.48   11.60
   5   1   5  240.18   13.00
   5  -2   5  209.58   13.80
  -5   2   5  221.28   13.60
   5   2   5  212.78   11.90
  -5  -2   5  210.68   11.50
   5   2   5  205.38   10.60
   5  -3   5  113.89   11.60
  -5   3   5  103.19   10.30
   5   3   5  121.99    9.90
  -5  -3   5  115.19    9.70
   5  -4   5   11.10    9.50
   5  -4   5   20.70    5.40
  -5   4   5   16.60    8.70
   5   4   5   15.30    7.20
  -5  -4   5   18.00    6.10
  -5   5   5   13.50    8.70
   5  -5   5   21.90    6.40
   5   5   5   25.40    7.60
  -5  -5   5   25.30    6.70
  -5   6   5   53.59   10.40
   5  -6   5   75.39    9.20
   5   6   5   59.39    9.70
   5   0   6   51.99    8.80
  -5   0   6   60.19    8.10
   5  -1   6  100.69   10.60
  -5   1   6   98.39    9.70
  -5  -1   6  113.99    9.90
   5   1   6  103.29   10.00
   5   1   6  108.29    8.20
  -5   2   6   63.09    9.40
   5  -2   6   55.89   10.00
   5   2   6   63.49    7.00
  -5  -2   6   62.79    7.70
   5   2   6   72.59    8.50
   5  -3   6   52.99   10.10
  -5   3   6   37.60    9.30
   5   3   6   55.09    7.60
  -5  -3   6   42.80    7.20
  -5   4   6   60.09   10.20
   5  -4   6   56.79   11.00
   5   4   6   66.99    8.70
  -5  -4   6   60.79    8.20
   5  -5   6  112.49    9.10
  -5   5   6  116.59   12.10
   5  -5   6  121.79   13.30
   5   5   6  127.19   11.80
   5   0   7   81.99   10.10
  -5   0   7   73.99    9.00
  -5   1   7  498.55   19.00
   5  -1   7  452.25   20.20
  -5  -1   7  483.95   17.70
   5   1   7  511.55   15.50
   5   1   7  534.35   19.30
  -5   2   7   57.29    9.30
   5  -2   7   56.79    9.90
   5   2   7   60.29    8.70
   5   2   7   75.39    7.30
  -5  -2   7   60.89    7.90
   5  -3   7  176.68   15.30
  -5   3   7  229.98   15.10
   5   3   7  212.38   12.50
  -5  -3   7  200.08   12.20
   5  -4   7  103.79   12.90
  -5   4   7  106.29   12.00
   5   4   7  117.99   10.30
  -5  -4   7  127.29   11.30
   5  -5   7  114.29    9.30
   5  -5   7   97.89   13.40
  -5   5   7   88.59   12.10
   5   5   7  100.09   10.40
   5   0   8    9.40    8.20
  -5   0   8   -7.50    7.10
  -5   1   8   34.10    8.80
   5  -1   8   40.70    9.30
  -5  -1   8   45.40    8.10
   5   1   8   41.50    8.60
   5  -2   8   49.30   10.10
  -5   2   8   64.89   10.40
   5   2   8   58.09    7.60
  -5  -2   8   50.69    8.30
   5   2   8   49.20    9.00
   5  -3   8   13.40    9.60
  -5   3   8   10.60    9.50
  -5  -3   8   16.80    7.30
   5   3   8   18.80    7.30
   5  -4   8   25.90   10.80
  -5   4   8   44.50   10.90
   5   4   8   51.19    8.60
  -5   5   8   -8.80   10.70
   5  -5   8  -20.30   10.50
  -5  -5   8   19.60    8.00
   5   5   8   10.50    8.30
  -5   0   9   -2.10    7.60
   5   0   9   -7.70    8.20
  -5   1   9   12.50    8.80
   5  -1   9   16.50    9.20
  -5  -1   9   21.30    8.10
   5   1   9   26.30    9.20
  -5   2   9   17.40    9.50
   5  -2   9   30.60    9.90
  -5  -2   9   27.00    8.10
   5  -3   9   51.29   11.40
  -5   3   9   57.29   11.00
   5   3   9   78.99    9.40
   5  -4   9   -9.20   10.40
  -5   4   9   -1.50   10.40
   5   4   9   13.20    8.10
  -5  -4   9   31.60    8.00
   5   0  10   13.70    9.40
  -5   0  10   15.80    8.60
   5  -1  10    0.20    9.10
  -5   1  10    1.80    8.80
   5   1  10   -0.30    8.80
  -5  -1  10   -3.80    7.60
  -5   2  10   16.10   10.00
   5  -2  10   20.90   10.30
  -5  -2  10   20.40    8.40
  -5   3  10  -12.30   10.00
   5  -3  10   -1.10   10.30
   5   3  10   25.10   10.50
  -5   0  11   -4.10    8.60
   5   0  11   -8.30    9.50
  -5   0  11   20.50    6.80
   5  -1  11    8.30   10.30
  -5   1  11    6.10   10.00
   5   1  11    3.70    9.90
  -5  -1  11    2.10    8.90
  -5  -1  11   38.90    8.00
  -5   2  11  -17.00   10.20
   5  -2  11   -0.40   10.70
  -5  -2  11   26.70    8.00
   6   0   0  134.39    9.50
  -6   0   0  140.19    7.00
   6   1   0  110.69    9.00
  -6   1   0  111.79    6.90
   6  -1   0  105.89    9.50
   6  -1   0  126.79    5.80
   6   1   0  124.59    7.20
   6   2   0   54.29    7.00
   6   2   0   52.69    5.90
   6  -2   0   57.69    8.00
  -6   2   0   59.49    5.80
   6  -2   0   64.59    5.30
   6   3   0    5.30    5.10
   6  -3   0   -1.40    5.20
  -6   3   0    4.40    5.50
   6  -3   0    1.00    7.50
   6   4   0   21.40    6.10
   6  -4   0   12.20    6.20
   6   5   0   -8.40    6.20
   6  -5   0    1.80    7.20
   6   6   0    2.80    6.80
   6  -6   0   -4.70    8.10
  -6   0   1 1070.29   26.90
   6   0   1 1066.89   28.70
   6   0  -1 1044.60   28.70
   6   0   1 1104.89   24.00
   6  -1   1  254.07   12.40
   6  -1   1  268.37    8.10
   6   1  -1  248.98   11.80
  -6   1   1  258.27   10.20
   6  -1  -1  257.27   12.20
   6   1   1  274.97   10.00
  -6   1  -1  263.07    9.00
   6   1   1  254.47   11.70
   6  -1  -1  279.87    9.00
   6  -2   1   56.09    7.90
   6   2  -1   63.69    6.20
  -6   2   1   65.49    6.50
   6  -2   1   59.59    5.00
   6  -2  -1   49.40    7.70
  -6   2  -1   48.70    5.10
   6   2   1   60.19    6.00
   6  -2  -1   60.19    5.60
   6   2   1   57.09    7.10
   6   3  -1   79.89    7.30
  -6   3   1   80.39    7.70
   6  -3   1   81.29    6.80
   6  -3   1   91.69    9.70
   6   3   1   82.49    7.50
   6  -4   1  151.78   12.00
   6  -4   1  134.49   10.10
   6   4  -1  129.19    9.40
   6  -4  -1  115.19   10.30
   6   4   1  119.69    9.60
   6  -5   1   37.60    8.10
   6   5  -1   45.70    7.40
   6   5   1   49.40    7.70
   6  -5  -1   45.20    8.60
   6  -6   1    8.30    8.40
   6   6  -1   17.70    7.00
   6  -6  -1   26.20    9.40
   6   6   1   20.00    7.70
   6   0   2  113.39    4.00
   6   0   2  110.69    9.10
  -6   0   2  110.29    7.80
   6   0   2  108.39    6.00
   6  -1   2  243.88   12.90
  -6   1   2  247.88   10.90
   6  -1   2  247.18    7.90
  -6   1  -2  249.97    8.40
   6   1   2  263.67    9.60
   6  -1  -2  261.27   12.10
   6   1   2  269.67   12.20
  -6  -1   2  239.98   10.90
   6   2  -2   48.10    6.20
   6  -2   2   50.29    8.30
   6  -2   2   52.79    4.90
  -6   2   2   47.50    6.90
   6   2   2   45.00    5.80
   6  -2  -2   52.99    6.00
   6  -2  -2   47.10    7.40
   6   2   2   47.40    6.70
   6   3  -2  300.87   12.70
   6  -3   2  320.27   11.80
  -6   3   2  305.87   13.60
   6  -3   2  303.67   16.20
   6  -3  -2  309.37   13.60
   6  -3  -2  285.77   13.10
   6   3   2  324.67   13.80
   6   3   2  289.37   12.70
   6  -4   2   46.90    6.90
   6  -4   2   58.89    9.80
  -6   4   2   39.20    7.40
   6   4  -2   51.19    6.90
   6  -4  -2   41.30    7.50
   6   4   2   52.89    7.30
   6  -5   2   44.10    7.90
   6   5  -2   52.89    7.50
   6  -5  -2   43.00    8.70
   6   5   2   57.49    8.30
   6   6  -2   10.50    6.80
   6  -6   2    4.70    8.20
   6   6   2    3.90    7.30
   6  -6  -2   20.10    9.40
   6   0   3  288.67    9.20
   6   0   3  274.07   13.40
  -6   0   3  279.97   11.80
   6  -1   3  462.25   17.60
  -6   1   3  459.85   15.50
  -6  -1   3  449.06   15.50
   6   1   3  434.56   16.30
   6   1   3  465.45   13.60
  -6   1  -3  460.45   12.10
  -6   2   3   25.30    7.10
   6  -2   3   34.20    4.50
   6  -2   3   30.70    8.80
  -6  -2   3   31.20    6.10
   6   2   3   28.80    6.60
   6   2   3   26.70    5.60
  -6   3   3  334.67   15.20
   6  -3   3  361.26   12.50
   6  -3   3  341.67   17.80
   6   3  -3  325.77   13.60
   6   3   3  314.97   13.30
   6  -3  -3  332.67   14.00
   6   3   3  321.17   13.60
   6  -4   3  135.69    9.30
   6   4  -3  139.89   10.30
  -6   4   3  147.49   11.50
   6  -4   3  149.19   13.90
   6  -4  -3  127.39   11.00
   6   4   3  121.49   10.30
   6   5  -3   14.10    6.60
   6  -5   3    2.60    6.80
  -6   5   3    0.60    9.60
   6  -5  -3   -1.70    8.20
   6   5   3    7.40    7.00
   6   6  -3   64.49    8.40
   6  -6   3   60.29    9.50
   6  -6  -3   56.79   10.90
   6   6   3   60.49    9.40
  -6   0   4  657.13   19.50
   6   0   4  633.24   21.40
   6   0   4  626.84   16.40
  -6   1   4  540.15   18.00
   6  -1   4  562.04   20.50
   6   1   4  517.85   15.40
  -6  -1   4  516.05   17.80
   6   1   4  544.05   18.90
  -6   2   4   43.40    8.00
   6  -2   4   47.40    9.70
  -6  -2   4   39.40    7.10
   6   2   4   38.90    7.30
   6   2   4   37.00    5.90
   6  -3   4  189.78    9.30
   6  -3   4  194.18   14.60
  -6   3   4  175.18   12.30
   6   3   4  177.58   10.60
  -6  -3   4  172.48   10.90
   6   3   4  183.18   10.90
  -6   4   4   32.10    8.50
   6  -4   4   23.40   10.10
   6  -4   4   42.70    6.50
   6   4   4   37.70    7.50
   6  -5   4   25.90    7.00
  -6   5   4   14.90    8.40
   6   5  -4   25.70    7.00
   6   5   4   14.40    7.50
   6  -6   4   13.40    8.10
   6   6  -4   10.40    7.40
   6   6   4   33.20    8.60
  -6   0   5    6.00    6.30
   6   0   5    0.50    8.00
  -6   1   5  513.55   18.80
   6   1   5  547.05   15.80
   6   1   5  533.15   19.80
  -6  -1   5  547.75   18.40
   6  -2   5 1390.96   39.90
  -6   2   5 1512.45   38.40
   6   2   5 1470.85   36.20
   6   2   5 1408.46   37.30
  -6  -2   5 1453.95   37.80
  -6   3   5   84.09   10.00
   6  -3   5   89.09   11.30
  -6  -3   5   77.59    8.40
   6   3   5   93.49    8.40
   6  -4   5   17.60    5.60
   6  -4   5   13.10   10.20
  -6   4   5    1.10    8.20
  -6  -4   5    1.40    6.30
   6   4   5    9.80    7.00
   6  -5   5  119.89    9.90
  -6   5   5  100.79   11.40
   6   5   5  110.59   10.50
  -6  -5   5  129.19   10.10
  -6   0   6   16.80    7.00
   6   0   6   32.50    8.80
  -6   1   6  553.14   19.80
   6  -1   6  514.45   20.80
   6   1   6  555.24   16.30
  -6  -1   6  533.15   18.90
   6   1   6  549.95   20.60
   6  -2   6  132.09   13.80
  -6   2   6  160.48   13.10
  -6  -2   6  133.19   10.80
   6   2   6  146.69   11.10
   6   2   6  162.78   10.10
  -6   3   6  209.08   14.70
   6  -3   6  172.58   15.50
   6   3   6  202.98   11.60
  -6  -3   6  196.18   12.60
   6  -4   6  -11.40    9.60
   6  -4   6   12.50    5.20
  -6   4   6   -0.20    8.90
  -6  -4   6    3.20    6.90
   6   4   6    4.20    6.90
   6  -5   6    3.80    6.00
   6  -5   6  -17.70   10.40
  -6   5   6   -6.80    9.30
  -6  -5   6   14.70    7.50
   6   5   6    7.40    7.90
   6   0   7    1.00    8.10
  -6   0   7   -5.40    6.80
   6  -1   7   13.50    8.50
  -6   1   7   19.40    8.00
  -6  -1   7   14.70    7.00
   6   1   7   18.50    8.40
  -6   2   7  463.85   19.50
   6  -2   7  430.56   20.80
   6   2   7  496.85   16.50
  -6  -2   7  467.55   18.20
   6   2   7  477.05   18.50
  -6   3   7    7.60    9.30
   6  -3   7    7.00   10.00
   6   3   7   18.80    7.20
  -6  -3   7    8.00    7.30
  -6   4   7    3.00    9.60
  -6  -4   7   -2.50    7.20
   6   4   7   13.00    7.50
   6  -5   7   48.90   12.40
   6  -5   7   85.59    8.20
  -6   5   7   59.29   11.80
   6   5   7   77.09    9.80
   6   0   8   11.30    8.90
  -6   0   8    7.40    8.00
   6  -1   8  123.29   12.50
  -6   1   8  137.19   11.70
   6   1   8  146.49   13.10
  -6  -1   8  142.69   12.30
  -6   2   8  264.97   16.50
   6  -2   8  235.68   17.70
   6   2   8  264.27   15.40
  -6  -2   8  248.28   14.90
   6   2   8  271.47   17.00
  -6   3   8   76.99   11.50
   6  -3   8   83.39   12.70
  -6  -3   8   66.19    9.40
   6   3   8   93.79    9.40
   6  -4   8   55.89   12.60
  -6   4   8   77.49   12.40
   6   4   8   90.79   10.00
   6   0   9  878.71   29.40
  -6   0   9  849.52   27.80
  -6   1   9   12.50    9.30
   6  -1   9   14.30   12.20
  -6  -1   9   10.10    8.30
   6   1   9   12.80    9.40
  -6   2   9   18.90    9.90
   6  -2   9   23.50   10.20
  -6  -2   9   31.50    8.60
  -6   3   9  117.89   13.20
   6  -3   9  110.19   13.80
   6   3   9  137.79   12.00
  -6  -3   9  106.09   10.90
   6   0  10   -0.60    9.10
  -6   0  10    2.60    8.80
   6  -1  10   97.99   13.00
  -6   1  10  106.59   12.30
  -6  -1  10  101.89   11.30
   6   1  10  124.19   13.20
  -6   2  10   13.60   10.40
   6  -2  10    9.80   10.60
  -6  -2  10  -14.70    8.40
   6   0  11  144.09   15.00
  -6   0  11  136.29   13.70
  -6   1  11   18.10   10.90
   6  -1  11   23.00   11.60
  -6  -1  11   21.10    9.50
   6   1  11   41.90   12.10
  -7   0   0   -5.10    4.10
   7   0   0    3.80    5.90
  -7   1   0   -1.60    4.30
   7  -1   0    0.70    3.60
   7  -1   0   -1.60    6.10
   7   1   0    4.10    4.60
   7   1   0   -4.60    5.90
   7  -2   0   49.70    8.50
  -7   2   0   50.89    6.20
   7   2   0   41.00    7.50
   7  -2   0   58.19    5.70
   7   2   0   49.30    6.40
   7   3   0   65.49    7.00
   7  -3   0   62.99    6.80
   7  -3   0   61.19    9.50
   7  -4   0   18.10    6.70
   7   4   0   10.80    6.00
   7  -5   0   -1.40    7.20
   7   5   0   11.00    6.60
   7   6   0    6.00    7.20
   7  -6   0    3.20    9.00
  -7   0   1   24.20    5.30
  -7   0  -1   16.30    4.60
   7   0   1    9.50    6.20
   7   0  -1   16.10    6.20
   7   1  -1  146.69   11.00
  -7   1   1  153.18    9.00
   7  -1   1  137.19   11.60
   7  -1   1  147.69    6.40
   7  -1  -1  130.99   11.00
  -7   1  -1  148.29    7.90
   7   1   1  156.28   11.20
  -7  -1   1  156.18    9.60
   7   1   1  147.49    8.50
   7  -2   1  159.68    8.10
   7  -2   1  148.89   12.60
   7   2  -1  161.78    9.30
  -7   2   1  148.69    9.90
   7  -2  -1  162.38   12.30
   7   2   1  156.88   11.40
   7  -2  -1  171.38    8.80
  -7   2  -1  172.88    9.70
   7   2   1  146.99    9.20
   7   3  -1  106.79    8.90
  -7   3   1   94.89    8.30
   7  -3   1  102.19    8.50
   7  -3   1  125.19   13.00
   7  -3  -1  101.39    9.10
   7   3   1  101.49    8.70
   7  -3  -1  117.59   10.60
   7   4  -1   83.99    8.10
   7  -4   1   99.39    9.30
   7  -4   1  109.19   11.30
   7  -4  -1  104.49    9.20
   7   4   1   88.19    8.20
   7  -5   1   27.20    7.90
   7   5  -1   16.00    6.80
   7   5   1   16.70    7.10
   7  -5  -1   24.20    8.30
   7  -6   1   23.60    9.50
   7   6  -1   48.50    8.30
   7  -6  -1   39.30   10.30
   7   6   1   34.10    8.40
   7   0   2  768.92   19.60
   7   0   2  756.62   23.90
  -7   0   2  761.32   21.70
  -7   1   2  160.48    9.90
   7  -1   2  149.29   12.10
   7  -1  -2  164.98   11.70
   7   1   2  155.38   11.30
   7   1   2  173.38    8.40
  -7  -1   2  170.58   10.10
  -7   1  -2  174.48    7.70
   7  -2   2   66.89    6.10
  -7   2   2   71.69    7.80
   7  -2   2   68.69    9.80
   7   2   2   78.49    6.90
   7   2   2   69.69    8.40
   7  -2  -2   53.59    8.40
   7  -3   2   74.29    6.70
  -7   3   2   73.59    8.20
   7   3  -2   75.69    7.50
   7  -3   2   86.79   10.30
   7   3   2   74.19    7.50
   7  -3  -2   83.79    9.20
   7   3   2   81.79    8.50
   7  -3  -2   77.49    8.10
   7  -4   2  319.97   13.60
   7   4  -2  315.47   13.70
   7  -4   2  360.86   17.60
   7  -4  -2  315.67   14.70
   7   4   2  315.97   14.20
   7   5  -2   27.80    7.20
   7  -5   2   12.00    7.40
   7   5   2   22.30    7.30
   7  -5  -2   19.30    8.70
   7   6  -2   34.20    7.90
   7  -6   2   24.10    9.20
   7  -6  -2   17.10   10.00
   7   6   2   39.40    8.60
  -7   0   3   41.30    6.70
   7   0   3   21.80    7.40
   7   0   3   41.00    4.50
  -7   1   3  288.27   12.70
   7  -1   3  275.87   15.30
   7   1   3  278.77   10.50
  -7  -1   3  272.57   12.90
   7   1   3  250.07   14.30
  -7   2   3   24.00    7.30
   7  -2   3   26.60    4.70
   7  -2   3   19.70    8.70
   7   2   3   26.20    5.70
   7   2   3   22.10    7.20
  -7  -2   3   28.90    6.70
  -7   3   3  222.48   12.70
   7  -3   3  217.08   10.00
   7  -3   3  207.38   14.90
   7   3   3  196.38   10.90
   7   3   3  218.58   12.00
   7  -4   3   47.90    7.20
   7  -4   3   49.99   10.70
  -7   4   3   26.50    8.40
   7   4  -3   47.20    7.70
   7   4   3   51.49    7.90
   7  -4  -3   46.00    8.50
   7   5  -3  -10.00    6.30
   7  -5   3   -8.80    6.60
   7  -5  -3   10.90    8.60
   7   5   3   -1.00    7.00
   7  -6   3    9.60    8.40
   7   6  -3   29.10    8.00
   7  -6  -3   19.80   10.20
   7   6   3   16.20    8.70
   7   0   4  263.77   14.80
  -7   0   4  239.58   12.30
   7   0   4  227.48    8.80
  -7   1   4   60.99    7.90
   7  -1   4   77.49   10.10
   7   1   4   70.99    6.10
  -7  -1   4   69.49    8.20
   7   1   4   73.49    9.30
  -7   2   4  137.09   11.40
   7  -2   4  146.59    7.60
   7  -2   4  144.39   13.80
   7   2   4  153.08    9.40
  -7  -2   4  138.89   10.80
   7   2   4  148.69   11.80
  -7   3   4   59.89    9.00
   7  -3   4   78.39   11.40
   7  -3   4   73.29    6.70
   7   3   4   70.49    8.10
  -7  -3   4   59.29    7.90
   7   3   4   71.09    7.70
   7  -4   4   37.50   11.00
  -7   4   4   17.30    8.70
   7  -4   4   35.90    6.80
  -7  -4   4   33.40    7.20
   7   4   4   34.40    7.60
  -7   5   4  -19.80    8.90
   7  -5   4    9.30    7.00
   7   5   4   17.40    7.70
  -7   0   5    6.30    6.50
   7   0   5    0.40    7.70
  -7   1   5  446.76   17.20
   7  -1   5  399.26   18.90
   7   1   5  423.86   17.70
   7   1   5  426.06   13.50
  -7  -1   5  416.06   16.50
   7  -2   5  177.98   15.20
  -7   2   5  187.48   13.00
   7   2   5  192.78   10.50
   7   2   5  178.08   11.90
  -7  -2   5  198.58   12.30
   7  -3   5   61.69    6.30
   7  -3   5   57.39   11.40
  -7   3   5   53.99    9.60
   7   3   5   63.69    7.80
  -7  -3   5   58.19    8.60
   7  -4   5   10.40    5.70
   7  -4   5    4.10   10.40
  -7   4   5   13.60    8.90
   7   4   5    8.70    7.00
  -7  -4   5   16.20    7.10
   7  -5   5  119.19   10.30
  -7   5   5   79.19   11.40
   7   5   5  110.39   10.70
  -7  -5   5  126.49   11.40
  -7   0   6   65.09    8.60
   7   0   6   52.59    9.90
  -7   1   6  661.43   22.30
   7  -1   6  609.94   24.00
   7   1   6  651.23   22.80
  -7  -1   6  613.74   21.30
   7  -2   6  364.66   19.40
  -7   2   6  410.76   18.00
  -7  -2   6  397.56   17.00
   7   2   6  406.86   17.20
   7   2   6  418.16   14.80
   7  -3   6   83.09   12.20
  -7   3   6   87.19   11.00
  -7  -3   6   77.79    9.60
   7   3   6   88.59    8.80
   7  -4   6   27.90    6.00
  -7   4   6   25.30    9.80
   7  -4   6   31.10   11.20
  -7  -4   6   30.00    8.10
   7   4   6   23.40    7.60
  -7   5   6    7.50   10.60
   7  -5   6   33.60   13.90
   7  -5   6   50.19    7.70
  -7  -5   6   37.10    8.60
   7   5   6   44.40    9.10
   7   0   7  112.99   12.10
  -7   0   7  111.59   10.50
   7  -1   7  196.38   15.90
  -7   1   7  222.88   14.90
   7   1   7  244.08   15.40
  -7  -1   7  234.58   14.10
   7  -2   7    9.40    9.50
  -7   2   7    5.30    8.70
   7   2   7   26.20    8.50
   7   2   7   23.30    6.20
  -7  -2   7    2.30    7.30
   7  -3   7   20.90   10.70
  -7   3   7   30.60   10.10
  -7  -3   7   17.90    8.10
   7   3   7   44.80    7.90
  -7   4   7   80.19   11.90
   7  -4   7   95.29    8.40
   7  -4   7   67.09   13.20
  -7  -4   7   76.89   10.00
   7   4   7  116.69   10.70
  -7   0   8  195.58   14.40
   7   0   8  210.08   16.10
   7  -1   8  117.99   13.00
  -7   1   8  100.19   11.10
   7   1   8   94.29   11.90
  -7  -1   8   92.69   10.40
   7  -2   8   15.00   10.10
  -7   2   8    8.40    9.40
  -7  -2   8   12.30    8.30
   7   2   8   12.50    8.80
  -7   3   8   62.29   11.60
   7  -3   8   70.19   13.00
  -7  -3   8   58.59    9.80
   7   3   8   78.19    9.20
   7  -4   8   46.40   13.10
  -7   4   8   64.79   12.80
   7   4   8   75.89    9.90
  -7  -4   8   89.99   11.10
   7   0   9  175.18   15.60
  -7   0   9  158.68   14.10
  -7   1   9  209.18   16.40
   7  -1   9  178.68   16.40
   7   1   9  227.28   16.40
  -7  -1   9  207.48   14.90
   7  -2   9   62.09   12.40
  -7   2   9   55.59   11.40
  -7  -2   9   67.59   10.60
   7  -3   9  188.78   18.00
  -7   3   9  215.08   17.50
  -7  -3   9  213.98   15.60
   7   0  10  161.98   15.30
  -7   0  10  159.68   13.70
  -7   1  10   26.90   10.80
   7  -1  10   20.00   11.20
  -7  -1  10   30.20   10.10
   7   1  10   38.30   11.40
  -7   2  10   -9.30   16.50
  -7  -2  10   -6.50    9.10
  -8   0   0   66.99    6.70
   8   0   0   62.39    8.60
   8  -1   0 1441.16   39.60
  -8   1   0 1554.74   36.30
   8   1   0 1444.16   39.50
  -8   2   0  528.45   16.40
   8   2   0  511.35   19.70
   8   2   0  526.15   17.00
   8  -2   0  540.65   20.00
   8   3   0  172.08   10.40
   8  -3   0  197.58   13.00
   8  -3   0  188.08   10.20
   8   4   0    2.90    5.90
   8  -4   0   -4.70    6.50
   8  -5   0   85.09   10.10
   8   5   0  120.39   10.50
  -8   0  -1   11.50    4.90
   8   0  -1   10.40    7.00
  -8   0   1   15.30    5.70
   8   0   1    8.80    6.70
   8  -1   1  565.24   21.80
   8   1  -1  630.14   22.00
  -8   1   1  634.64   18.80
   8   1   1  644.44   18.40
  -8   1  -1  650.13   17.90
   8  -1  -1  653.53   22.40
  -8  -1   1  639.04   19.60
   8   1   1  643.74   22.00
   8  -2   1  189.08   13.80
   8   2  -1  225.98   11.30
  -8   2   1  197.38   10.80
   8  -2  -1  219.48   13.80
   8   2   1  199.88   12.80
   8   2   1  209.58   10.40
   8  -3   1   71.79    7.00
   8   3  -1   67.79    7.50
   8  -3   1   70.29   10.20
   8  -3  -1   62.19    7.40
   8  -3  -1   69.99    9.80
   8   3   1   54.09    6.90
   8  -4   1   18.20    9.70
   8   4  -1   14.80    6.50
   8  -4   1   11.70    6.60
   8  -4  -1    5.00    7.10
   8   4   1    6.80    6.30
   8   5  -1   40.00    7.70
   8  -5   1   39.60    8.60
   8   5   1   44.40    7.80
   8  -5  -1   42.20    9.30
  -8   0   2  659.83   20.20
  -8   1   2   -4.20    5.70
   8  -1   2    9.40    7.70
   8   1   2    2.80    4.60
  -8  -1   2    8.00    6.10
   8  -1  -2    2.60    7.10
   8   1   2   -5.10    6.70
  -8   2   2  479.25   16.60
   8  -2   2  511.15   20.30
   8   2   2  482.75   18.20
   8  -2  -2  461.15   18.50
   8   2   2  482.15   15.70
  -8  -2   2  451.85   16.90
   8  -3   2   54.59    6.50
   8  -3   2   74.09   10.60
   8   3  -2   49.50    7.40
  -8   3   2   46.40    8.20
   8  -3  -2   71.29    9.50
   8   3   2   55.09    7.10
   8   3   2   67.09    8.70
   8  -3  -2   67.69    8.00
   8  -4   2  139.09   10.70
   8  -4   2  142.29   14.70
   8   4  -2  116.49   10.30
   8  -4  -2  117.19   11.10
   8   4   2  119.19   10.40
   8  -5   2   18.70    8.00
   8   5  -2   23.50    7.20
   8  -5  -2   -1.70    8.40
   8   5   2    3.70    7.00
   8   0   3   -6.50    7.10
  -8   0   3    7.50    6.30
   8   0   3    2.00    4.00
  -8   1   3  602.44   19.20
   8  -1   3  544.15   21.50
   8   1   3  580.34   20.90
  -8  -1   3  602.64   19.70
   8   1   3  576.74   16.80
  -8   2   3   85.19    8.80
   8  -2   3   63.29   10.00
   8   2   3   96.69    8.30
  -8  -2   3   83.29    8.40
   8   2   3   82.39    8.90
   8  -3   3  316.07   17.60
  -8   3   3  296.77   14.80
   8  -3   3  282.37   11.90
  -8  -3   3  282.17   14.10
   8   3   3  313.47   14.60
   8   3   3  261.17   12.70
   8  -4   3    0.00    6.20
  -8   4   3    6.10   10.70
   8  -4   3   16.40   10.40
   8   4   3    2.70    6.60
   8  -5   3   -4.70    7.20
   8   5  -3   -1.10    6.90
   8  -5  -3    0.10    8.90
   8   5   3    6.20    7.30
  -8   0   4  930.21   26.60
   8   0   4  893.61   28.50
   8  -1   4   50.79    9.20
  -8   1   4   47.20    7.80
   8   1   4   47.40    8.80
  -8  -1   4   37.50    7.30
   8   1   4   47.20    5.40
  -8   2   4   97.09    9.80
   8  -2   4   89.09   11.10
   8   2   4  121.59   11.30
   8   2   4   98.59    8.20
  -8  -2   4   98.29    9.40
  -8   3   4  118.09   11.00
   8  -3   4  119.29   10.30
   8  -3   4  154.28   15.20
   8   3   4  119.99   11.10
   8   3   4  121.49    9.90
  -8  -3   4   94.39    9.70
  -8   4   4  147.69   12.80
   8  -4   4  166.68   16.50
   8  -4   4  143.49   10.40
   8   4   4  158.88   11.60
  -8  -4   4  157.08   11.70
   8  -5   4   -0.30    7.10
  -8  -5   4   11.70    6.90
   8   5   4   10.60    7.90
  -8   0   5   15.90    7.10
   8   0   5   20.50    8.60
  -8   1   5   68.49    9.00
   8  -1   5   53.89   10.00
   8   1   5   62.19    9.40
  -8  -1   5   75.49    9.00
   8  -2   5    6.10    9.50
  -8   2   5   14.70    8.10
   8   2   5    8.50    5.40
   8   2   5   13.00    7.80
  -8  -2   5    5.50    7.20
   8  -3   5   51.99   11.80
  -8   3   5   16.50    9.10
   8   3   5   34.50    7.20
  -8  -3   5   29.30    8.10
   8  -4   5    9.00    6.30
  -8   4   5  -15.20    8.80
   8  -4   5    4.60   11.00
  -8  -4   5   10.20    7.40
   8   4   5    0.40    7.00
  -8   5   5  -56.39   14.50
   8  -5   5    2.80    7.10
  -8  -5   5   13.60    7.50
   8   5   5   19.50    8.20
  -8   0   6    7.60    7.50
   8   0   6    6.40    8.80
  -8   1   6   37.70    8.90
   8  -1   6   31.90   10.10
  -8  -1   6   41.40    8.30
   8   1   6   55.09    9.90
  -8   2   6  153.98   14.20
   8  -2   6  148.99   14.50
  -8  -2   6  160.18   12.70
   8   2   6  167.98   10.10
   8   2   6  170.88   13.20
  -8   3   6   -0.40    8.90
   8  -3   6   10.60   10.70
   8   3   6   20.70    7.00
  -8  -3   6   17.30    8.30
   8  -4   6   -4.20   11.20
  -8   4   6   -7.80    9.40
   8  -4   6    4.30    5.90
   8   4   6   17.80    7.80
  -8  -4   6    1.90    7.50
   8   0   7   12.30    9.50
  -8   0   7    3.80    8.00
   8  -1   7   44.20   11.00
  -8   1   7   33.30    9.10
  -8  -1   7   41.00    9.00
   8   1   7   48.20   10.00
   8  -2   7  130.09   14.30
  -8   2   7  146.29   12.80
   8   2   7  183.38   13.90
  -8  -2   7  155.08   13.30
  -8   3   7    8.10    9.80
   8  -3   7   22.30   11.50
   8   3   7   27.70    7.60
  -8  -3   7   16.00    8.60
  -8   4   7   43.00   11.90
   8  -4   7   39.90   13.20
  -8  -4   7   36.00    9.70
   8   4   7   53.19    9.10
  -8   0   8  253.07   16.20
   8   0   8  244.98   17.40
  -8   1   8  160.08   14.60
   8  -1   8  123.79   13.70
  -8  -1   8  145.09   13.30
   8   1   8  153.18   15.10
   8  -2   8   19.50   10.60
  -8   2   8   22.70   10.00
   8   2   8   25.50   11.30
  -8  -2   8   15.90    8.80
  -8   3   8   96.99   13.40
   8  -3   8  118.49   15.00
  -8  -3   8  104.79   11.70
   8   0   9   99.39   13.50
  -8   0   9  104.99   12.40
   8  -1   9   28.20   11.60
  -8   1   9   26.80   10.20
   8   1   9   40.70   11.30
  -8  -1   9   39.40   10.60
  -8   2   9   -3.20   10.30
   8  -2   9    2.00   10.60
  -8  -2   9    8.40    9.30
  -9   0   0    0.80    5.10
   9   0   0    2.10    6.80
   9  -1   0   60.89    9.20
   9   1   0   47.70    8.40
  -9   1   0   42.40    6.30
  -9  -1   0   59.99    7.00
   9   2   0   80.39    7.80
   9  -2   0   98.19   10.80
   9   3   0   -1.30    5.80
   9  -3   0    3.60    8.70
   9   4   0   -0.50    6.10
   9  -5   0   39.60    9.80
   9   5   0   42.50    8.10
   9   0  -1   10.20    6.70
  -9   0   1   15.00    5.90
   9   0   1   13.00    7.20
  -9   0  -1   13.20    5.10
   9  -1   1    9.30    7.30
  -9   1   1    8.50    5.70
   9  -1  -1   15.50    7.70
   9   1   1   17.10    7.40
  -9   1  -1   13.70    5.20
  -9  -1   1    4.50    5.70
   9  -2   1  327.27   17.20
  -9   2   1  348.77   13.90
   9   2   1  353.66   13.70
   9   2   1  319.27   15.80
   9  -2  -1  340.07   17.10
   9   3  -1   84.79    8.50
   9  -3   1  100.89   11.60
   9   3   1   93.09    8.30
   9  -3  -1   80.59   10.80
   9   4  -1   15.30    6.70
   9  -4  -1    9.20    9.50
   9   4   1   18.50    6.90
   9   5  -1   85.69    9.50
   9  -5   1   76.19   10.20
   9  -5  -1   86.09   10.90
   9   5   1   75.79    9.40
   9   0   2  300.17   16.20
  -9   0  -2  341.47   12.30
  -9   0   2  343.27   13.90
   9  -1   2  231.68   15.20
  -9   1   2  232.48   11.70
   9   1   2  243.68   10.40
   9  -1  -2  254.27   14.80
   9   1   2  216.18   14.00
  -9  -1   2  242.98   12.70
  -9   2   2  284.47   13.50
   9  -2   2  265.67   16.30
   9  -2  -2  262.97   15.20
  -9  -2   2  263.97   13.50
   9   2   2  264.97   14.70
   9   2   2  269.57   12.10
   9  -3   2  335.87   18.70
   9  -3  -2  357.16   17.10
   9   3   2  333.77   16.10
   9   3   2  317.27   13.80
   9   4  -2  114.99   10.80
   9  -4   2  137.29   14.80
   9  -4  -2  129.29   10.90
   9   4   2  122.99   10.50
   9  -5   2   26.40    8.70
   9   5  -2   40.10    8.50
   9   5   2   35.60    8.30
   9  -5  -2   34.00   10.10
   9   0   3  144.79   13.00
  -9   0   3  162.48   11.10
  -9   1   3   32.00    7.50
   9  -1   3   37.90    9.10
   9   1   3   42.40    5.70
   9   1   3   44.80    8.90
  -9  -1   3   39.10    7.70
  -9   2   3   89.29    9.40
   9  -2   3   81.79   11.10
  -9  -2   3   91.69    9.50
   9   2   3   88.29    8.00
   9   2   3   79.69    9.80
   9  -3   3   46.10   10.90
  -9   3   3   58.99    9.40
  -9  -3   3   46.30    7.90
   9   3   3   66.09    7.80
   9   3   3   65.19    9.30
   9  -4   3   16.90   10.90
  -9  -4   3   26.40    7.40
   9   4   3    4.20    6.60
   9   5   3    1.10    7.60
   9   0   4   42.80    9.50
  -9   0   4   42.40    8.10
  -9   1   4   19.60    7.50
   9  -1   4   19.30    8.90
  -9  -1   4   15.90    7.30
   9   1   4   22.50    8.60
   9   1   4   27.30    5.30
  -9   2   4   -8.00    7.40
   9  -2   4   11.40    9.40
  -9  -2   4   -2.10    6.60
   9   2   4   13.50    7.60
   9   2   4   13.70    5.60
   9  -3   4    8.20   10.30
  -9   3   4   11.80    8.80
   9   3   4   23.80    6.60
   9   3   4   31.20   10.10
  -9  -3   4   22.70    7.90
   9  -4   4   -8.60   10.20
  -9   4   4  -35.10   11.40
   9   4   4    5.20    7.10
  -9  -4   4    5.30    7.10
   9   0   5   94.39   11.40
  -9   0   5  116.69   10.80
  -9   1   5    0.20    7.50
   9  -1   5   -5.00    8.60
   9   1   5   -1.90    8.10
  -9  -1   5    2.10    7.40
  -9   2   5   41.70    9.30
   9  -2   5   54.29   11.30
   9   2   5   55.79    9.40
   9   2   5   51.79    6.60
  -9  -2   5   53.09    9.10
   9  -3   5  162.28   15.30
  -9   3   5  142.89   12.50
   9   3   5  184.38   11.50
  -9  -3   5  163.28   13.10
   9  -4   5  225.68   18.60
  -9   4   5  201.88   16.30
   9   4   5  227.28   13.50
  -9  -4   5  222.58   14.80
   9   0   6   11.20    9.60
  -9   0   6   16.50    8.30
  -9   1   6   45.40    9.60
   9  -1   6   41.50   10.60
  -9  -1   6   52.89    9.50
   9   1   6   47.10    9.90
  -9   2   6   -4.80    8.40
   9  -2   6   12.20   10.40
  -9  -2   6    0.50    8.00
   9   2   6    7.00    8.20
  -9   3   6   -6.00    9.20
   9  -3   6   -3.60   10.70
  -9  -3   6    5.60    8.30
   9   3   6    3.70    6.60
  -9   4   6   15.90   11.40
   9  -4   6   34.40   12.90
  -9  -4   6   23.20    9.30
   9   4   6   42.00    8.40
  -9   0   7   -1.20    8.30
   9   0   7   14.00    9.90
   9  -1   7   10.30   10.00
  -9   1   7    6.20    9.00
   9   1   7   12.40    9.40
  -9  -1   7   16.30    9.00
  -9   2   7    4.90    9.50
   9  -2   7   12.90   10.70
   9   2   7   24.40    9.40
  -9  -2   7   11.60    8.90
   9  -3   7    6.90   11.20
  -9   3   7  -21.70    9.50
  -9  -3   7    7.60    9.10
  -9   0   8   36.40   10.50
   9   0   8   31.30   11.10
  -9   1   8   -4.60    9.20
   9  -1   8    7.60   10.50
  -9  -1   8   -2.20    8.90
   9   1   8   11.00   10.00
  -9   2   8    7.70   10.30
   9  -2   8    8.70   11.00
  -9  -2   8   17.70    9.90
   9   0   9   -6.90   10.70
  10   0   0   40.50    8.60
 -10   0   0   76.49    7.70
  10   1   0   29.90    8.10
 -10   1   0   17.70    6.40
 -10  -1   0   33.60    6.80
  10  -1   0   29.50    8.80
  10  -2   0  433.56   19.70
  10  -3   0   -3.30    8.50
  10   3   0    0.00    6.30
  10   4   0   13.50    7.20
  10   0  -1   16.50    7.70
 -10   0  -1   16.60    5.90
 -10   0   1   13.70    6.50
  10   0   1   31.30    8.50
 -10   1   1  181.38   10.70
 -10  -1  -1  194.18   10.70
  10  -1   1  155.78   14.00
  10   1   1  174.78   13.80
 -10  -1   1  192.08   11.80
  10  -1  -1  149.99   13.40
  10  -2   1  163.98   14.50
  10   2   1  212.08   13.90
  10  -2  -1  196.48   14.90
  10   2   1  223.18   11.40
 -10  -2   1  210.18   12.40
  10  -3   1  153.18   15.10
  10  -3  -1  139.79   14.50
  10   3   1  131.39   10.40
  10   4  -1    5.70    7.20
  10   4   1   15.70    7.10
  10   0   2   26.40    8.30
 -10   0   2   29.60    7.40
 -10   1   2   76.49    8.70
  10  -1   2   70.39   10.30
  10   1   2   67.19    9.70
 -10  -1   2   64.59    8.50
  10  -2   2   39.70    9.80
 -10   2   2   22.00    7.80
  10   2   2   41.00    8.90
 -10  -2   2   37.00    8.00
  10  -2  -2   39.70    9.60
  10   2   2   34.60    6.60
  10  -3   2   44.70   10.80
  10  -3  -2   52.49   10.30
 -10  -3   2   33.20    7.40
  10   3   2   47.40    9.20
  10   3   2   35.90    7.10
  10  -4   2   54.29   11.90
  10   4   2   19.20    7.30
 -10   0   3   15.10    7.40
  10   0   3   28.00    8.90
  10  -1   3    5.80    8.40
 -10   1   3   -7.80    7.00
 -10  -1   3    2.30    7.30
  10   1   3    6.00    5.20
  10   1   3   -0.30    7.50
 -10   2   3   22.40    8.00
  10  -2   3   33.50   10.00
  10   2   3   19.60    6.00
 -10  -2   3   32.10    8.20
  10   2   3   35.20    8.60
  10  -3   3  228.18   17.30
  10   3   3  204.58   12.20
  10   3   3  219.08   14.20
 -10  -3   3  201.78   13.60
  10  -4   3   12.70   11.00
 -10  -4   3   21.90    7.70
  10   4   3   15.10    7.40
  10   0   4   25.10    9.40
 -10   0   4   22.20    8.00
  10  -1   4   43.90   10.40
 -10   1   4   54.49    9.00
  10   1   4   53.39    9.80
 -10  -1   4   53.99    9.20
 -10   2   4  105.09   10.90
  10  -2   4   99.09   12.70
  10   2   4   84.29   10.40
 -10  -2   4   85.09   10.40
  10   2   4  104.79    8.70
 -10   3   4   -2.90    9.00
  10  -3   4   29.50   11.20
  10   3   4   25.20    6.90
 -10  -3   4   26.30    8.50
  10  -4   4  154.68   16.20
 -10  -4   4  142.89   13.10
  10   4   4  156.68   12.30
 -10   0   5  161.98   13.50
  10   0   5  164.28   15.40
 -10   1   5   16.30    8.50
  10  -1   5   32.90    9.80
  10   1   5   20.40    9.20
 -10  -1   5   32.30    9.10
  10  -2   5    9.10   10.20
 -10   2   5   -7.70    8.30
 -10  -2   5   -5.00    7.80
  10   2   5   13.60    8.50
 -10   3   5  135.79   13.00
  10  -3   5  139.09   15.30
 -10  -3   5  143.19   12.80
  10   3   5  147.49   11.10
 -10   0   6   29.70    9.40
  10   0   6   24.90   10.20
  10  -1   6   65.79   12.00
 -10   1   6   81.29   11.20
  10   1   6  108.39   12.80
 -10  -1   6   84.69   10.70
  10  -2   6   23.10   11.10
 -10   2   6    3.60    9.30
 -10  -2   6    4.70    8.70
  10   2   6   18.90    9.10
  10  -3   6    6.50   11.60
 -10   3   6  -30.90    9.10
  10   3   6   -0.80   10.20
 -10  -3   6   -6.80    8.40
  10   0   7  168.48   16.90
 -10   0   7  195.38   15.50
 -10   1   7   60.99   11.30
  10  -1   7   73.69   12.90
  10   1   7   92.99   12.60
 -10  -1   7   68.59   11.50
  10  -2   7   23.30   12.00
 -10   2   7   19.20   10.20
 -10  -2   7   27.40   10.30
  10   2   7   30.40   10.40
  11   0   0   -2.40    7.40
 -11   0   0    1.10    6.40
  11   1   0   37.00    8.80
 -11  -1   0   25.10    7.30
  11  -1   0   45.20   10.10
  11  -2   0   12.00    9.00
 -11  -2   0    8.90    6.50
  11  -3   0    3.20    9.20
 -11   0   1   -2.80    6.50
  11   0  -1   14.10    8.20
  11   0   1    4.10    7.60
 -11   1   1   -2.80    6.60
  11  -1   1   16.10    8.70
 -11  -1  -1   18.10    6.50
  11   1   1   14.20    8.20
 -11  -1   1   -0.50    6.70
  11  -1  -1   12.00    8.30
  11  -2   1   30.20   10.00
  11   2   1   34.10    9.20
  11  -2  -1   35.60    9.70
 -11  -2   1   36.10    7.80
  11  -3   1   71.79   12.10
 -11  -3   1   71.09    9.40
  11  -3  -1   87.39   11.90
  11   3   1   77.89    9.10
  11   0   2   25.50    8.90
 -11   0   2   20.10    7.60
 -11  -1  -2   47.00    6.80
  11  -1   2   42.40    9.90
 -11   1   2   29.40    7.80
  11   1   2   36.70    9.20
 -11  -1   2   28.90    8.00
  11  -2   2   33.30    9.90
  11   2   2   47.40    9.60
 -11  -2   2   17.70    7.80
  11   2   2   31.60    7.10
  11  -3   2   80.09   12.10
 -11  -3   2   57.39    9.00
  11   3   2   55.89    8.30
 -11   0   3   52.19    9.10
  11   0   3   47.60    9.70
 -11   1   3   15.80    7.90
  11  -1   3   31.40    9.70
  11   1   3   29.70    9.50
 -11  -1   3    8.50    7.60
  11  -2   3   46.80   10.90
 -11   2   3   50.79    9.50
 -11  -2   3   76.29   10.20
  11   2   3   69.79    7.90
  11   2   3   73.29   10.40
  11  -3   3   80.29   12.60
  11   3   3   72.89   10.40
 -11  -3   3   54.19    9.60
  11   3   3   64.19    8.50
  11   0   4    7.60    9.00
 -11   0   4   -3.70    7.80
 -11   1   4   52.89    9.60
  11  -1   4   59.09   11.20
  11   1   4   58.69   10.00
 -11  -1   4   66.99   10.00
  11  -2   4   21.70   10.70
 -11   2   4   15.40    9.30
  11   2   4   43.90    9.80
 -11  -2   4   27.20    9.20
  11  -3   4  104.09   14.60
  11   3   4  100.89    9.40
 -11   0   5   -3.00    8.60
  11   0   5   10.20    9.70
  11  -1   5   20.40   10.40
 -11   1   5   -7.20    8.60
  11   1   5    8.30    9.20
 -11  -1   5    2.40    8.80
 -11   2   5   92.99   11.80
  11  -2   5   84.99   13.30
 -11  -2   5   88.39   11.60
  11   2   5  105.19   12.10
 -11   0   6    5.30    9.30
  11   0   6    7.50   10.20
 -11   1   6   14.20   10.00
  11  -1   6   22.90   11.00
  11   1   6   32.70   10.80
 -11  -1   6   15.10    9.80
  12   0   0   72.79   10.60
 -12  -1   0   30.70    8.10
  12  -1   0   44.00   10.30
  12  -2   0   47.00   11.00
 -12  -2   0   44.40    8.50
 -12   0   1   75.19    9.60
  12   0   1   60.79   10.80
  12  -1   1   42.40   10.40
 -12  -1  -1   62.59    8.50
 -12  -1   1   50.89    9.20
  12  -1  -1   26.60    9.60
  12   1   1   42.00    9.80
 -12  -2  -1  118.49   10.50
  12  -2   1  121.19   13.50
 -12  -2   1  107.39   11.00
  12  -2  -1  107.19   13.10
 -12   0   2  142.19   12.40
  12   0   2  157.28   14.60
  12  -1   2    4.60    9.00
 -12   1   2   -4.00    7.60
  12   1   2    7.40    8.90
 -12  -1   2   -3.40    8.00
  12  -2   2   55.79   11.70
  12   2   2   60.69   10.80
 -12  -2   2   77.09   10.30
  12   0   3   46.90   10.90
 -12   0   3   20.30    8.90
 -12   1   3    0.80    8.30
  12  -1   3   28.30   10.20
  12   1   3   20.40    9.50
 -12  -1   3   18.20    8.70
  12  -2   3   46.30   12.20
 -12  -2   3   31.50   11.00
  12   2   3   31.90    9.80
 -12   0   4  -21.10    8.00
  12   0   4    1.90    9.20
  12  -1   4   86.69   17.70
 -12   1   4   84.29   11.20
 -12  -1   4   69.19   11.00
  12   1   4   97.89   12.70
   0   0   0    0.00    0.00

_computing_structure_solution     'SHELXT 2014/5 (Sheldrick, 2014)'
;
_shelx_hkl_checksum              49912
loop_
_space_group_symop_operation_xyz
'x, y, z'
'-x, -y, z'
'-x+1/2, y+1/2, -z'
'x+1/2, -y+1/2, -z'
loop_
_atom_site_type_symbol
_atom_site_label
_atom_site_fract_x
_atom_site_fract_y
_atom_site_fract_z
_atom_site_U_iso_or_equiv
_atom_site_adp_type
_atom_site_calc_flag
_atom_site_refinement_flags_adp
_atom_site_refinement_flags_occupancy
_atom_site_refinement_flags_posn
_atom_site_occupancy
C C1 0.1939(2) 0.4857(4) 0.2750(2) 0.0258(5) Uani d . . . 1
C C2 0.1621(2) 0.2990(4) 0.1922(2) 0.0285(5) Uani d . . . 1
C C3 0.2614(2) 0.1921(4) 0.1158(2) 0.0282(5) Uani d . . . 1
C C4 0.3937(2) 0.2723(4) 0.1231(2) 0.0250(5) Uani d . . . 1
C C5 0.42773(19) 0.4595(3) 0.2052(2) 0.0219(4) Uani d . . . 1
C C6 0.3257(2) 0.5692(3) 0.2827(2) 0.0238(5) Uani d . . . 1
C C7 0.3579(2) 0.7633(4) 0.3806(2) 0.0265(5) Uani d . . . 1
C C8 0.5 0.5 0.4870(3) 0.0253(6) Uani d T P S 1
H H1 0.123(2) 0.559(4) 0.329(2) 0.029(6) Uiso d . . . 1
H H2 0.069(2) 0.240(4) 0.190(2) 0.033(6) Uiso d . . . 1
H H3 0.244(2) 0.058(4) 0.058(2) 0.036(7) Uiso d . . . 1
H H4 0.464(2) 0.198(3) 0.068(2) 0.023(5) Uiso d . . . 1
H H5 0.276(2) 0.816(4) 0.429(3) 0.041(7) Uiso d . . . 1
H H6 0.396(2) 0.902(4) 0.331(2) 0.029(6) Uiso d . . . 1
N N1 0.45965(16) 0.6987(3) 0.48654(17) 0.0277(4) Uani d . . . 1
loop_
_atom_site_aniso_label
_atom_site_aniso_U_11
_atom_site_aniso_U_22
_atom_site_aniso_U_33
_atom_site_aniso_U_12
_atom_site_aniso_U_13
_atom_site_aniso_U_23
C1 0.0222(10) 0.0322(11) 0.0230(10) 0.0021(9) 0.0009(9) 0.0035(10)
C2 0.0227(10) 0.0353(11) 0.0276(11) -0.0045(9) -0.0039(9) 0.0036(10)
C3 0.0308(11) 0.0291(11) 0.0246(11) -0.0027(9) -0.0038(9) 0.0006(11)
C4 0.0260(10) 0.0268(11) 0.0223(10) 0.0032(9) -0.0009(9) 0.0009(9)
C5 0.0210(10) 0.0248(10) 0.0198(9) 0.0001(8) -0.0025(8) 0.0031(9)
C6 0.0249(10) 0.0257(10) 0.0207(9) 0.0006(8) -0.0016(9) 0.0017(9)
C7 0.0241(10) 0.0295(12) 0.0261(11) 0.0024(9) -0.0004(9) -0.0011(9)
C8 0.0199(13) 0.0398(18) 0.0162(14) -0.0009(13) 0 0
N1 0.0237(9) 0.0348(10) 0.0244(9) 0.0010(8) -0.0004(7) -0.0034(8)
loop_
_atom_type_symbol
_atom_type_description
_atom_type_scat_dispersion_real
_atom_type_scat_dispersion_imag
_atom_type_scat_source
C C 0.0033 0.0016 'International Tables Vol C Tables 4.2.6.8 and 6.1.1.4'
H H 0.0000 0.0000 'International Tables Vol C Tables 4.2.6.8 and 6.1.1.4'
N N 0.0061 0.0033 'International Tables Vol C Tables 4.2.6.8 and 6.1.1.4'
loop_
_geom_angle_atom_site_label_1
_geom_angle_atom_site_label_2
_geom_angle_atom_site_label_3
_geom_angle_site_symmetry_3
_geom_angle
C2 C1 C6 . 121.0(2)
C2 C1 H1 . 119.6(13)
C6 C1 H1 . 119.4(13)
C3 C2 C1 . 120.2(2)
C3 C2 H2 . 120.0(13)
C1 C2 H2 . 119.7(13)
C2 C3 C4 . 119.4(2)
C2 C3 H3 . 123.0(13)
C4 C3 H3 . 117.6(13)
C3 C4 C5 . 121.3(2)
C3 C4 H4 . 119.5(11)
C5 C4 H4 . 119.2(11)
C4 C5 C6 . 119.17(18)
C4 C5 C5 2_665 118.31(19)
C6 C5 C5 2_665 122.50(17)
C1 C6 C5 . 118.86(18)
C1 C6 C7 . 119.41(18)
C5 C6 C7 . 121.59(17)
N1 C7 C6 . 112.98(16)
N1 C7 H5 . 107.6(15)
C6 C7 H5 . 111.0(13)
N1 C7 H6 . 106.2(12)
C6 C7 H6 . 111.7(13)
H5 C7 H6 . 107.0(17)
N1 C8 N1 2_665 179.6(3)
C8 N1 C7 . 117.49(18)
loop_
_geom_bond_atom_site_label_1
_geom_bond_atom_site_label_2
_geom_bond_site_symmetry_2
_geom_bond_distance
C1 C2 . 1.389(3)
C1 C6 . 1.393(3)
C1 H1 . 0.97(2)
C2 C3 . 1.380(3)
C2 H2 . 0.98(2)
C3 C4 . 1.391(3)
C3 H3 . 0.98(2)
C4 C5 . 1.392(3)
C4 H4 . 0.98(2)
C5 C6 . 1.412(3)
C5 C5 2_665 1.505(4)
C6 C7 . 1.512(3)
C7 N1 . 1.489(3)
C7 H5 . 0.99(2)
C7 H6 . 1.01(2)
C8 N1 . 1.2222(19)
C8 N1 2_665 1.2222(19)
