#------------------------------------------------------------------------------
#$Date: 2019-12-24 02:08:39 +0200 (Tue, 24 Dec 2019) $
#$Revision: 245530 $
#$URL: file:///home/coder/svn-repositories/cod/cif/4/13/38/4133834.cif $
#------------------------------------------------------------------------------
#
# This file is available in the Crystallography Open Database (COD),
# http://www.crystallography.net/
#
# All data on this site have been placed in the public domain by the
# contributors.
#
data_4133834
loop_
_publ_author_name
'Shi, Chao'
'Ye, Le'
'Gong, Zhi-Xin'
'Ma, Jia-Jun'
'Wang, Qin-Wen'
'Jiang, Jia-Ying'
'Hua, Miao-Miao'
'Wang, Chang-Feng'
'Yu, Hui'
'Zhang, Yi'
'Ye, Heng-Yun'
_publ_section_title
;
 Two-Dimensional Organic-Inorganic Hybrid Rare-Earth Double Perovskite
 Ferroelectrics.
;
_journal_name_full               'Journal of the American Chemical Society'
_journal_paper_doi               10.1021/jacs.9b11697
_journal_year                    2019
_chemical_formula_sum            'C28 H52 Eu N12 O28 Rb'
_chemical_formula_weight         1242.24
_space_group_crystal_system      tetragonal
_space_group_IT_number           97
_space_group_name_Hall           'I 4 2'
_space_group_name_H-M_alt        'I 4 2 2'
_audit_creation_method           SHELXL-2014/7
_cell_angle_alpha                90
_cell_angle_beta                 90
_cell_angle_gamma                90
_cell_formula_units_Z            1
_cell_length_a                   7.05300(10)
_cell_length_b                   7.05300(10)
_cell_length_c                   24.1610(15)
_cell_measurement_reflns_used    3957
_cell_measurement_temperature    358(2)
_cell_measurement_theta_max      30.4490
_cell_measurement_theta_min      2.9980
_cell_volume                     1201.88(8)
_computing_structure_refinement  'SHELXL-2014/7 (Sheldrick, 2014)'
_diffrn_ambient_temperature      358(2)
_diffrn_measured_fraction_theta_full 0.997
_diffrn_measured_fraction_theta_max 0.922
_diffrn_measurement_device_type  'rigaky synergy'
_diffrn_radiation_type           MoK\a
_diffrn_radiation_wavelength     0.71073
_diffrn_reflns_av_R_equivalents  0.0291
_diffrn_reflns_av_unetI/netI     0.0200
_diffrn_reflns_Laue_measured_fraction_full 0.997
_diffrn_reflns_Laue_measured_fraction_max 0.922
_diffrn_reflns_limit_h_max       10
_diffrn_reflns_limit_h_min       -10
_diffrn_reflns_limit_k_max       8
_diffrn_reflns_limit_k_min       -10
_diffrn_reflns_limit_l_max       30
_diffrn_reflns_limit_l_min       -34
_diffrn_reflns_number            6314
_diffrn_reflns_point_group_measured_fraction_full 0.998
_diffrn_reflns_point_group_measured_fraction_max 0.900
_diffrn_reflns_theta_full        25.242
_diffrn_reflns_theta_max         31.559
_diffrn_reflns_theta_min         3.009
_exptl_absorpt_coefficient_mu    2.413
_exptl_absorpt_correction_T_max  1.00000
_exptl_absorpt_correction_T_min  0.76294
_exptl_absorpt_correction_type   multi-scan
_exptl_crystal_colour            colorless
_exptl_crystal_density_diffrn    1.716
_exptl_crystal_description       block
_exptl_crystal_F_000             628
_exptl_crystal_size_max          0.17
_exptl_crystal_size_mid          0.13
_exptl_crystal_size_min          0.12
_refine_diff_density_max         0.425
_refine_diff_density_min         -0.786
_refine_diff_density_rms         0.104
_refine_ls_abs_structure_details
;
 Flack x determined using 269 quotients [(I+)-(I-)]/[(I+)+(I-)]
 (Parsons, Flack and Wagner, Acta Cryst. B69 (2013) 249-259).
;
_refine_ls_abs_structure_Flack   0.51(2)
_refine_ls_extinction_method     none
_refine_ls_goodness_of_fit_ref   1.198
_refine_ls_hydrogen_treatment    undef
_refine_ls_matrix_type           full
_refine_ls_number_parameters     67
_refine_ls_number_reflns         925
_refine_ls_number_restraints     19
_refine_ls_restrained_S_all      1.291
_refine_ls_R_factor_all          0.0479
_refine_ls_R_factor_gt           0.0422
_refine_ls_shift/su_max          0.000
_refine_ls_shift/su_mean         0.000
_refine_ls_structure_factor_coef Fsqd
_refine_ls_weighting_details
'w=1/[\s^2^(Fo^2^)+(0.0638P)^2^] where P=(Fo^2^+2Fc^2^)/3'
_refine_ls_weighting_scheme      calc
_refine_ls_wR_factor_gt          0.0974
_refine_ls_wR_factor_ref         0.0995
_reflns_Friedel_coverage         0.544
_reflns_Friedel_fraction_full    1.000
_reflns_Friedel_fraction_max     0.862
_reflns_number_gt                828
_reflns_number_total             925
_reflns_threshold_expression     'I > 2\s(I)'
_cod_data_source_file            ja9b11697_si_004.cif
_cod_data_source_block           (R3HQ)4RbEu(NO3)8-T358K
_cod_database_code               4133834
_shelx_shelxl_version_number     2014/7
_shelx_space_group_comment
;
The symmetry employed for this shelxl refinement is uniquely defined
by the following loop, which should always be used as a source of
symmetry information in preference to the above space-group names.
They are only intended as comments.
;
_shelx_res_file
;

    1.res created by SHELXL-2014/7


TITL 1 in I422
CELL 0.71073   7.0530   7.0530  24.1610  90.000  90.000  90.000
ZERR  1   0.0001   0.0001   0.0015   0.000   0.000   0.000
LATT -2
SYMM -X, -Y, Z
SYMM -Y, X, Z
SYMM Y, -X, Z
SYMM -X, Y, -Z
SYMM X, -Y, -Z
SYMM Y, X, -Z
SYMM -Y, -X, -Z
SFAC C H N O RB Eu
UNIT 28 52 12 28 1 1

L.S. 24
BOND
acta
temp 85
FMAP 2
PLAN 20

sump 0.5 0 1 2
exyz eu1 rb1
eadp eu1 rb1

WGHT    0.063800
FVAR       0.39279   0.50002   1.69492
EU1   6   -0.500000    0.500000   -0.500000    20.12500    0.04266    0.04266 =
         0.07468    0.00000    0.00000    0.00000
RB1   5   -0.500000    0.500000   -0.500000    20.12500    0.04266    0.04266 =
         0.07468    0.00000    0.00000    0.00000
N2    3   -0.913491    0.500000   -0.500000    10.50000    0.04373    0.12915 =
         0.15616   -0.01693    0.00000    0.00000
O1    4   -0.521695    0.654647   -0.401357    10.50000    0.22088    0.09617 =
         0.14535   -0.00279   -0.07956   -0.02957
N1    3   -0.500000    0.500000   -0.374915    10.25000    0.16045    0.16045 =
         0.08732    0.00000    0.00000    0.00000
O4    4   -0.489652    0.169263   -0.542412    10.25000    0.09451    0.06442 =
         0.09779   -0.00684    0.02745    0.01971
O5    4   -0.168849    0.348099   -0.495116    10.25000    0.06526    0.07030 =
         0.09257   -0.01069   -0.01802    0.00963
O2    4   -0.500000    0.500000   -0.326191    10.25000    0.32816    0.32816 =
         0.11914    0.00000    0.00000    0.00000
SIMU C1 > C4

C1    1   -0.500000    0.500000   -0.088519    10.25000    0.23322    0.23322 =
         0.09648    0.00000    0.00000    0.00000
C2    1   -0.409603    0.654179   -0.123383    11.00000    0.16133    0.27004 =
         0.44453   -0.06179   -0.00381   -0.03730
C3    1   -0.309419    0.445399   -0.181743    11.00000    0.15329    0.30315 =
         0.27487   -0.11135   -0.01893    0.10321
C4    1   -0.500000    0.500000   -0.212976    10.25000    0.38217    0.38217 =
         0.37009    0.00000    0.00000    0.00000
HKLF 4

REM  1 in I422
REM R1 =  0.0422 for     828 Fo > 4sig(Fo)  and  0.0479 for all     925 data
REM     67 parameters refined using     19 restraints

END

WGHT      0.0762      0.0000

REM Highest difference peak  0.425,  deepest hole -0.786,  1-sigma level  0.104
Q1    1  -0.1966  0.4935 -0.2298  11.00000  0.05    0.42
Q2    1  -1.0000  0.5000 -0.5000  10.25000  0.05    0.41
Q3    1  -0.4897  0.6478 -0.3597  11.00000  0.05    0.38
Q4    1  -0.2357  0.4723 -0.2386  11.00000  0.05    0.37
Q5    1  -0.3432  0.3444 -0.1632  11.00000  0.05    0.31
Q6    1  -0.2631  0.4953 -0.1584  11.00000  0.05    0.29
Q7    1  -0.4121  0.5923 -0.1508  11.00000  0.05    0.27
Q8    1  -0.4973  0.7615 -0.3310  11.00000  0.05    0.24
Q9    1  -0.4977  0.1032 -0.5324  11.00000  0.05    0.18
Q10   1  -0.0993  0.3964 -0.4996  11.00000  0.05    0.18
Q11   1  -0.1393  0.4968 -0.1926  11.00000  0.05    0.17
Q12   1  -0.6675  0.6727 -0.4005  11.00000  0.05    0.16
Q13   1  -0.5460  0.1432 -0.5555  11.00000  0.05    0.14
Q14   1  -0.1341  0.5440 -0.1902  11.00000  0.05    0.14
Q15   1  -0.3636  0.7286 -0.0736  11.00000  0.05    0.14
Q16   1  -0.4524  0.1352 -0.5546  11.00000  0.05    0.14
Q17   1  -0.2570  0.6772 -0.0757  11.00000  0.05    0.14
Q18   1  -0.5881  0.0840 -0.5312  11.00000  0.05    0.13
Q19   1  -0.4064  0.0888 -0.5313  11.00000  0.05    0.13
Q20   1  -0.5735  0.6961 -0.3090  11.00000  0.05    0.13
;
_shelx_res_checksum              85891
_shelx_hkl_file
;
   0   0   4  131.97    3.27
   0   0  -4  123.67    3.26
   0   0   6 4685.65   89.40
   0   0  -6 4710.37   89.35
   0   0  -8 1698.98   34.12
   0   0   8 1740.79   34.18
   0   0  10 1984.25   39.37
   0   0 -10 1959.32   39.30
   0   0 -12 1162.03   24.43
   0   0  12 1144.34   24.47
   0   0  14  136.58    5.34
   0   0  14  131.17    4.96
   0   0 -14  127.84    4.91
   0   0  16  271.87    8.48
   0   0  16  261.36    8.20
   0   0 -16  266.18    8.06
   0   0 -16  244.71    8.08
   0   0 -18  225.30    7.49
   0   0 -18  202.61    7.41
   0   0  18  209.02    7.67
   0   0 -20  133.64    6.13
   0   0  20  150.57    6.51
   0   0 -20  149.14    6.15
   0   0 -22   89.11    5.12
   0   0  22  102.60    5.54
   0   0 -22  103.83    5.45
   0   0 -24   38.35    3.81
   0   0  24   41.26    4.13
   0   0 -26   15.41    3.04
   0   0 -28    5.29    2.80
   0   0 -30    4.61    2.95
   0   0 -32    2.07    3.03
   0   0 -34   -1.44    3.24
   1   0  -1 1134.12   21.17
   0   1   1 1075.72   21.17
   0  -1   1 1082.33   20.85
   0  -1  -1 1104.79   21.20
  -1   0   1 1086.82   21.10
   1   0   1 1089.86   21.07
  -1   0   1 1040.35   21.08
   0   1  -1 1069.60   21.29
   0  -1   1 1057.34   21.26
  -1   0  -1 1073.75   21.07
   0   1   3 2578.23   50.26
   1   0  -3 2726.40   50.20
   0   1  -3 2491.43   50.29
   0  -1   3 2758.72   49.95
   0  -1   3 2628.06   50.35
  -1   0   3 2585.11   50.11
   1   0   3 2542.11   50.02
   0  -1  -3 2567.54   50.28
  -1   0  -3 2669.36   49.58
  -1   0  -3 2624.33   50.09
  -1   0   3 2572.20   49.76
  -1   0   3 2607.74   50.02
  -1   0   5  434.90    9.42
  -1   0   5  429.29    9.70
   0  -1   5  443.21    9.58
   0   1  -5  443.99   10.00
   0  -1  -5  446.54    9.50
   0  -1  -5  456.39   10.02
   0  -1   5  441.38    9.97
   0   1   5  445.99    9.94
  -1   0  -5  451.35    9.20
   1   0  -5  428.08    9.72
   1   0  -7 1331.58   27.05
   0   1   7 1345.27   27.45
  -1   0  -7 1342.52   26.53
  -1   0   7 1352.57   26.79
   0  -1  -7 1311.68   27.37
   0  -1  -7 1361.56   26.85
   0  -1   7 1376.49   27.01
  -1   0   7 1307.66   27.04
   0   1  -7 1352.14   27.43
   0  -1   9  903.42   19.17
   1   0  -9  918.21   19.25
   0   1   9  906.35   19.70
   0   1  -9  913.29   19.65
  -1   0   9  923.63   19.08
  -1   0  -9  858.05   18.99
  -1   0  -9  905.04   18.76
   0  -1  -9  921.57   19.08
  -1   0   9  878.81   19.24
   0  -1  11  376.50    9.59
  -1   0 -11  361.70    9.42
  -1   0 -11  387.55    9.26
   0  -1 -11  387.21    9.50
   0   1  11  388.56   10.20
   0   1 -11  377.28   10.00
  -1   0  11  383.77    9.56
   1   0 -11  393.91    9.69
  -1   0  13  184.66    6.08
   0  -1 -13  190.08    6.03
  -1   0 -13  183.43    5.75
   1   0 -13  196.90    6.20
   0   1  13  178.92    6.46
   0   1 -13  182.33    6.37
   0  -1  13  184.82    6.10
  -1   0  13  177.60    6.12
   0   1 -15  196.59    6.98
   1   0 -15  200.32    6.63
   0   1  15  198.63    7.13
  -1   0  15  184.79    6.64
   0  -1 -15  199.31    6.59
  -1   0  15  210.56    6.81
  -1   0 -15  196.56    6.35
   0  -1  15  198.11    6.76
  -1   0  17  210.92    7.22
   0   1  17  210.21    7.64
   0  -1  17  203.10    7.18
  -1   0 -17  198.36    6.79
   0   1 -17  207.22    7.57
   0  -1 -17  204.18    7.05
   1   0 -17  208.40    7.14
  -1   0 -19   80.98    4.24
   0  -1 -19   94.04    4.64
   0   1  19   74.84    4.64
   0   1 -19   83.56    4.83
   0  -1  19   84.36    4.65
  -1   0  19   86.72    4.62
   1   0 -19   84.06    4.52
   0   1 -21   41.40    3.73
  -1   0 -21   37.54    3.27
  -1   0  21   50.18    3.82
   0   1  21   49.76    4.02
   0  -1  21   47.33    3.74
   1   0  21   40.46    3.85
   0  -1 -21   41.92    3.55
   0  -1  21   48.77    3.75
   1   0 -21   48.91    3.73
  -1   0  23   46.18    3.91
   0  -1 -23   42.09    3.65
   1   0 -23   39.72    3.94
   0  -1 -23   46.59    3.87
   0  -1  23   46.14    3.99
   0   1 -23   40.27    3.95
   1   0 -23   53.59    4.16
   1   0  23   42.93    4.02
  -1   0 -23   41.68    3.61
   0   1  23   51.84    4.33
  -1   0  25   18.10    3.05
  -1   0 -25   15.90    2.77
   0   1 -25   15.24    3.11
   0  -1  25   16.03    3.08
   0  -1 -25   13.20    2.72
   1   0 -25   13.77    3.06
   1   0 -27   11.36    3.09
   0   1 -27    5.20    2.82
  -1   0 -27    3.80    2.43
   0  -1 -27    9.93    2.76
   0  -1 -29    5.12    2.74
   1   0 -29    3.53    2.99
   0   1 -29    5.84    2.99
  -1   0 -29    4.62    2.64
  -1   0 -31   -0.30    2.74
   0  -1 -31    1.91    2.73
   1   0 -31    0.75    3.00
   0   1 -31    4.33    3.49
  -1   0 -33    2.87    3.10
   0   1 -33    2.26    3.19
   0  -1 -33    2.34    2.92
   1   0 -33    1.56    3.29
   1   1 -32    1.20    3.27
   1   1 -30    2.30    3.13
  -1  -1 -30    3.29    2.74
  -1  -1 -28    2.84    2.46
   1   1 -28    4.01    3.08
   1   1 -26    2.75    2.84
  -1  -1 -26    4.57    2.18
   1   1 -24   22.41    3.52
  -1  -1 -24   19.65    2.68
  -1   1  24   15.39    3.13
  -1  -1 -22   44.84    3.74
   1   1 -22   43.14    3.69
  -1  -1 -22   37.02    3.16
   1   1 -22   36.17    3.77
  -1   1  22   41.04    3.84
  -1   1  20   47.38    3.77
  -1  -1 -20   41.18    3.09
  -1  -1 -20   45.58    3.63
   1   1 -20   37.89    3.69
   1   1 -20   50.67    3.66
  -1  -1 -18   66.85    3.97
  -1   1  18   66.62    4.07
   1   1 -18   64.18    3.92
  -1  -1 -18   55.73    3.33
   1   1 -18   63.05    4.28
   1   1 -16  115.76    5.51
  -1   1  16  119.35    5.27
  -1  -1 -16  119.71    5.06
   1   1 -16  124.48    5.24
  -1  -1 -16  114.65    4.50
  -1   1  14   81.72    4.07
   1   1 -14   74.23    4.16
  -1  -1 -14   84.91    3.89
   1   1 -14   78.87    3.93
   1   1 -12  326.58    8.91
   1   1 -12  318.99    9.40
  -1   1  12  339.05    9.13
  -1  -1 -12  305.71    8.69
   1  -1  10  575.29   13.37
  -1   1  10  577.24   13.60
   1   1 -10  587.21   13.59
  -1   1   8  372.63    9.22
   1   1  -8  372.28    9.18
   1  -1   8  370.27    9.08
   1   1  -6  243.17    6.56
  -1   1   6  255.72    6.53
  -1   1   4  244.96    6.14
   1   1  -4  253.87    6.30
   1   1  -4  250.12    6.23
   1  -1   4  235.42    5.74
  -1  -1  -2   28.33    1.17
   1  -1   2   26.24    1.13
   1  -1   0 4150.48   78.94
  -1  -1   0 4188.85   78.93
  -1  -1   0 4188.60   78.94
   1  -1  -2   25.01    1.10
  -1  -1   2   25.23    1.34
   1  -1  -2   25.83    1.42
  -1  -1   2   26.48    1.16
   1  -1  -2   27.03    0.95
  -1  -1   4  248.96    6.20
  -1   1  -4  238.79    6.03
   1  -1  -4  243.48    5.53
  -1   1  -6  246.50    6.40
  -1  -1   6  262.05    6.61
   1  -1  -6  249.57    6.08
  -1  -1   8  378.14    9.31
  -1   1  -8  378.89    9.15
   1  -1  -8  368.74    8.81
  -1  -1  10  565.44   13.34
  -1   1 -10  554.92   13.11
   1  -1 -10  567.58   12.85
  -1   1 -12  329.00    8.96
  -1  -1  12  324.91    8.50
   1  -1 -12  336.90    8.76
  -1  -1  12  331.88    9.11
   1   1  12  314.17    9.42
  -1   1 -14   82.58    3.94
   1   1  14   79.16    4.23
   1  -1 -14   79.72    3.74
  -1  -1  14   71.35    3.78
  -1  -1  14   78.88    3.59
  -1   1 -16  112.58    5.00
  -1  -1  16  114.96    5.21
   1   1  16  112.54    5.44
   1  -1 -16  119.18    4.93
  -1  -1  16  125.91    4.96
  -1   1 -16  122.34    4.97
  -1  -1  18   63.92    4.11
   1  -1 -18   66.55    3.95
  -1  -1  18   70.78    3.88
  -1   1 -18   60.36    3.83
   1   1  18   68.22    4.36
  -1   1 -18   72.12    3.99
  -1   1 -20   49.20    3.52
  -1  -1  20   47.37    3.79
  -1  -1  20   49.93    3.56
   1   1  20   48.64    4.02
   1  -1 -20   44.53    3.40
  -1   1 -20   44.54    3.52
   1   1  22   40.70    3.88
  -1   1 -22   41.69    3.56
  -1  -1  22   42.31    3.75
  -1  -1  22   44.72    3.66
  -1   1 -22   37.52    3.42
   1  -1 -22   41.69    3.54
  -1   1 -24   18.57    2.98
  -1  -1  24   18.93    3.00
  -1  -1  24   26.52    3.43
  -1   1 -26    1.16    2.37
  -1  -1  26    8.40    2.75
  -1  -1  26    5.97    2.86
   1  -1 -28    2.63    2.70
  -1   1 -28    4.31    2.65
   1  -1 -30    1.75    3.04
  -1   1 -30    6.17    3.03
  -1   1 -32   -2.03    2.99
   1  -1 -32   -1.46    3.25
   1  -1 -34   -1.14    3.31
  -1   1 -34    4.19    3.29
  -2   0   0 3778.70   75.49
   0  -2   0 3977.46   75.72
   2   0   0 3908.75   75.49
   0   2  -2 1595.53   32.39
   2   0  -2 1691.34   32.18
  -2   0   2 1641.28   32.11
   0  -2   2 1666.76   32.43
  -2   0  -2 1606.80   32.05
   0  -2  -2 1612.94   32.28
   2   0   2 1653.78   32.09
   0  -2   2 1545.00   31.58
   0  -2   4  687.73   14.38
   0   2  -4  721.94   15.32
   0  -2   4  683.11   15.16
   0   2  -4  727.62   14.50
   2   0   4  694.67   14.86
   2   0  -4  695.72   14.95
   2   0  -4  705.42   14.82
   2   0  -4  648.36   14.33
  -2   0  -4  675.37   14.76
  -2   0   4  680.40   14.76
   0  -2  -4  703.33   15.15
   0   2  -6  918.44   20.09
  -2   0  -6  934.29   19.54
   0  -2   6  935.99   19.24
   0   2   6  891.71   19.87
  -2   0   6  934.42   18.99
   0   2  -6  940.93   19.27
   2   0  -6  936.53   19.74
   2   0   6  941.73   18.54
   0  -2   6  934.42   20.08
   2   0   6  937.54   19.64
  -2   0   6  907.34   19.44
   2   0  -6  943.09   19.01
   0  -2  -6  903.73   19.90
   0  -2  -8  880.17   18.38
  -2   0  -8  859.07   17.76
   0  -2  -8  855.55   19.33
  -2   0   8  865.37   18.19
   2   0  -8  859.27   18.26
   0  -2   8  883.92   19.35
   0  -2   8  893.47   18.62
   2   0  -8  888.96   19.00
   2   0   8  885.53   18.95
   0   2  -8  881.00   19.45
   0   2  -8  893.29   18.61
   0   2   8  866.15   19.31
   2   0   8  861.03   17.79
   0  -2 -10  703.00   15.47
   0  -2  10  700.37   15.68
  -2   0  10  718.85   15.39
   0  -2 -10  669.99   16.34
   2   0 -10  697.25   15.96
   0   2 -10  690.20   16.48
   2   0 -10  682.29   15.38
  -2   0 -10  709.88   14.88
   0   2 -10  704.78   15.70
   0   2  10  691.22   16.45
   2   0  10  695.14   15.89
   0   2 -12  333.80    9.97
  -2   0  12  356.52    9.13
  -2   0 -12  349.47    8.61
   2   0  12  336.30    9.50
   0  -2  12  351.29    9.42
   0   2  12  352.76   10.08
   2   0 -12  336.45    9.49
   0  -2 -12  363.39    9.25
   0   2 -12  364.53    9.43
   0   2  14  212.81    7.48
   0  -2  14  199.28    6.70
   2   0 -14  205.48    6.87
  -2   0 -14  204.00    6.11
   0  -2 -14  212.60    6.71
   0   2 -14  201.06    7.35
   0   2 -14  203.83    6.71
  -2   0  14  216.22    6.62
   0  -2  16  176.52    6.49
   0   2  16  174.74    6.93
   2   0 -16  172.35    6.45
  -2   0  16  180.83    6.28
   0   2 -16  166.24    6.93
   0  -2 -16  179.44    6.37
  -2   0 -16  176.57    5.84
   0   2 -16  186.88    6.58
  -2   0 -18   96.41    4.29
   0  -2 -18  101.98    4.75
   0   2  18   95.66    5.26
   0   2 -18   84.24    5.02
  -2   0  18   87.51    4.45
   0   2 -18   86.66    4.56
   2   0 -18   86.23    4.59
   0  -2  18   82.55    4.55
   0  -2 -20   61.00    4.01
   0  -2  20   57.45    3.98
  -2   0  20   53.50    3.72
   0   2 -20   53.03    4.26
  -2   0 -20   53.45    3.48
   0   2  20   65.55    4.55
   2   0 -20   58.10    3.96
   0   2 -20   59.39    4.01
  -2   0 -22   53.17    3.59
   0   2 -22   45.36    4.19
  -2   0  22   54.33    3.99
   0  -2  22   52.48    4.09
   0   2  22   58.69    4.57
   2   0 -22   58.37    4.33
   0   2 -22   48.51    3.90
   0  -2 -22   60.86    4.27
   0  -2  24   30.29    3.59
  -2   0  24   20.84    3.18
   0   2 -24   28.64    3.76
  -2   0 -24   23.57    2.91
   2   0 -26    7.92    3.05
  -2   0 -26    8.71    2.53
   0   2 -26    6.51    2.92
  -2   0  26    8.80    2.84
   0  -2 -28    7.82    2.84
   2   0 -28    6.12    2.96
   0   2 -28    2.90    2.86
  -2   0 -28    4.27    2.55
   2   0  30    4.38    3.37
   0   2 -30    0.76    3.13
  -2   0 -30    1.59    2.57
   0  -2 -30    6.23    2.91
   2   0 -30    2.82    3.54
   2   0 -32    5.04    3.60
   0  -2 -32    3.10    3.02
   0   2 -32    1.98    3.53
   1   2 -31    4.15    3.37
   2   1 -31   -0.43    3.46
   2   1 -29    4.88    3.30
  -1  -2 -29    6.66    2.58
   1   2 -29    6.76    3.37
   2  -1  29    7.62    3.67
  -2  -1 -29    7.19    2.59
  -1  -2 -27    8.31    2.44
   1   2 -27    9.09    3.27
  -2  -1 -27    7.80    2.39
   2   1 -27    8.91    3.42
  -1  -2 -25   10.74    2.52
   2   1 -25   12.45    3.22
   1   2 -25   14.31    3.36
  -2  -1 -25   13.77    2.49
  -2   1  25   15.89    3.13
  -2   1  25   12.36    3.20
  -1   2  23   22.55    3.37
  -1  -2 -23   24.10    2.61
  -2  -1 -23   24.63    2.60
  -2   1  23   21.72    3.23
   2   1 -23   26.41    3.86
  -2   1  23   21.33    3.17
   1   2 -23   22.17    3.48
  -1   2  21   19.82    3.03
   2   1 -21   20.28    2.97
  -2   1  21   26.51    3.15
   2   1 -21   20.68    3.26
  -2  -1 -21   30.38    3.40
   1   2 -21   23.20    3.35
  -1  -2 -21   27.35    3.04
  -2   1  21   28.97    3.28
  -2  -1 -21   20.89    2.25
   2   1 -19   53.70    4.32
  -2   1  19   57.63    3.92
  -1   2  19   60.85    4.23
   1   2 -19   53.05    4.31
  -2   1  19   45.75    3.57
   2   1 -19   63.95    4.12
  -2  -1 -19   58.42    3.15
  -2  -1 -19   63.69    4.07
  -1  -2 -19   54.54    3.80
  -2  -1 -17  167.16    5.51
   1   2 -17  168.56    7.36
  -2  -1 -17  188.89    6.83
  -2   1  17  166.10    6.56
   1  -2  17  169.17    6.40
  -1  -2 -17  185.24    6.68
  -2   1  17  183.82    6.76
   2   1 -17  187.56    6.94
  -1   2  17  183.91    7.23
   2   1 -15  183.38    6.68
  -1   2  15  189.61    6.98
  -2   1  15  180.88    6.42
  -1  -2 -15  177.16    6.28
  -2   1  15  168.22    6.25
  -2  -1 -15  171.59    5.18
  -2  -1 -15  181.70    6.43
   1  -2  15  163.95    5.95
   1   2 -15  160.25    6.85
   1  -2  13  246.39    7.81
  -2   1  13  239.18    7.44
  -1  -2 -13  248.46    7.45
   2   1 -13  249.63    7.83
  -2  -1 -13  235.17    6.13
  -2   1  13  243.04    7.53
  -1   2  13  270.40    8.23
   2  -1  13  249.21    7.28
   1   2 -13  249.15    8.39
   1  -2  13  218.50    7.01
   2  -1  13  239.60    7.63
  -1   2  11  316.48    9.20
   1  -2  11  313.94    8.30
   2   1 -11  321.92    9.06
   2  -1  11  334.00    8.51
   1  -2  11  308.59    8.94
   2  -1  11  324.65    8.79
  -2   1  11  329.70    8.84
  -2  -1 -11  309.65    7.21
  -2   1  11  315.32    8.57
   1   2 -11  308.82    9.44
   2  -1   9  466.34   11.11
  -2   1   9  473.94   11.45
  -1   2   9  484.23   11.97
   1  -2   9  452.70   10.83
   2  -1   9  478.39   11.47
  -2   1   9  469.15   11.21
  -2  -1  -9  476.17    9.63
   2   1  -9  476.54   11.86
   1   2  -9  474.33   12.26
   2  -1   7  990.25   20.24
   1   2  -7  936.92   21.10
   1  -2   7  957.62   19.70
  -1   2   7  969.45   20.98
  -2   1   7  959.43   20.09
   2  -1   7  971.24   20.41
   2   1  -7  955.66   20.93
  -2   1   7  975.69   20.59
   2  -1   5  856.29   17.42
   1  -2   5  815.60   16.52
   1  -2   5  840.76   16.86
  -1  -2  -5  787.10   17.59
   2  -1   5  816.95   17.33
   2   1  -5  812.17   15.91
  -2  -1  -5  828.43   17.35
  -2   1   5  810.22   17.01
  -1   2   5  839.12   17.99
   2   1  -5  812.34   17.90
  -2   1   3  137.23    3.67
  -1  -2  -3  128.92    3.97
  -1  -2  -3  124.50    3.51
   1  -2   3  132.83    3.41
   2  -1   3  143.86    4.03
   1  -2   3  133.58    3.13
  -1   2   3  128.64    3.38
   1  -2   3  127.18    4.34
  -2  -1  -3  126.93    3.86
  -2  -1  -1  904.86   18.90
  -2   1   1  933.40   18.47
  -1  -2  -1  926.77   18.09
   1  -2   1  926.79   18.11
  -1  -2  -1  914.23   18.73
  -1  -2  -1  925.93   18.71
   1   2  -1  928.12   18.11
   2  -1   1  915.76   18.92
  -1   2   1  925.95   18.15
   1  -2  -1  921.11   17.99
   2  -1  -1  926.91   18.87
  -2  -1   1  914.95   18.85
  -1   2  -1  899.64   17.99
  -1  -2   1  918.00   18.93
   1   2   1  915.18   18.62
  -1  -2   1  911.18   18.26
   1   2   1  935.68   18.03
   1   2   1  919.45   18.61
  -1  -2   1  916.44   18.01
   1  -2  -3  144.58    4.55
   2  -1  -3  130.77    3.69
  -1  -2   3  130.81    4.18
  -1   2  -3  135.09    3.21
   1  -2  -3  139.71    3.15
   1   2   3  123.74    3.40
  -2  -1   3  130.38    4.32
   2  -1  -3  136.84    3.97
  -2  -1   3  125.48    3.92
  -1  -2   3  125.50    4.09
  -1  -2   3  127.14    3.40
   1   2   5  829.80   16.90
  -1   2  -5  794.73   16.70
  -2  -1   5  828.05   18.00
  -1  -2   5  848.62   18.02
   1  -2  -5  816.68   18.11
  -2  -1   5  809.73   17.39
   1  -2  -5  829.24   16.62
  -1   2  -5  839.90   18.11
  -1  -2   5  838.55   17.76
   2  -1  -5  835.66   17.16
  -2  -1   7  952.48   20.18
  -1   2  -7  957.34   19.69
  -2  -1   7  972.36   20.79
  -2   1  -7  964.09   20.17
   2  -1  -7  971.20   20.02
   1  -2  -7  971.89   21.02
  -2  -1   7  932.91   18.93
   2  -1  -7  957.97   20.51
  -1   2  -7  993.99   21.00
   1  -2  -7  967.18   19.60
  -1  -2   7  961.53   20.57
  -1   2  -9  469.64   11.97
  -1  -2   9  471.18   11.72
  -2  -1   9  485.79   11.95
  -2  -1   9  472.35   10.39
  -1   2  -9  475.44   11.03
   2  -1  -9  478.67   11.28
  -2   1  -9  487.48   11.16
  -2   1  -9  488.27   11.37
   1  -2  -9  485.92   10.98
   2  -1  -9  470.79   11.63
  -2  -1  11  324.74    9.23
  -1  -2  11  312.64    8.93
   2  -1 -11  322.24    8.58
  -1   2 -11  318.63    8.35
  -2  -1  11  318.34    7.83
  -1   2 -11  326.44    9.23
   1  -2 -11  319.84    8.33
   2  -1 -11  313.16    8.90
  -2   1 -11  319.20    8.39
  -2   1 -11  322.26    8.58
  -2   1 -13  248.03    7.26
   2  -1 -13  250.05    7.41
  -2   1 -13  253.61    7.40
  -2  -1  13  244.70    6.78
  -2  -1  13  247.12    7.90
  -1   2 -13  248.74    7.93
   1   2  13  240.38    8.18
  -1   2 -13  240.29    7.18
  -1  -2  13  237.96    7.64
   1  -2 -13  242.46    7.18
   2  -1 -13  233.40    7.62
  -2  -1  15  173.84    5.61
  -2  -1  15  165.42    6.42
   2  -1 -15  156.27    6.24
  -1  -2  15  164.22    6.33
  -2   1 -15  170.45    5.99
  -1   2 -15  175.20    6.01
   2  -1 -15  157.26    5.95
  -2   1 -15  166.20    5.97
  -1   2 -15  163.49    6.43
   1   2  15  178.02    6.97
   1  -2 -15  174.27    5.97
  -1   2 -17  183.08    6.47
  -2  -1  17  170.55    6.02
   2  -1 -17  172.57    6.46
  -1  -2  17  182.29    7.01
  -2  -1  17  160.89    6.75
  -1   2 -17  179.23    7.03
   1   2  17  176.12    7.34
  -2   1 -17  170.41    6.38
  -2   1 -17  182.41    6.51
   1  -2 -17  182.42    6.46
  -2  -1  19   53.06    4.02
   1   2  19   60.14    4.45
  -1   2 -19   52.63    3.67
  -1  -2  19   53.26    3.52
   2   1  19   57.96    4.35
  -2  -1  19   55.81    3.45
  -2   1 -19   59.66    3.86
   1  -2 -19   54.07    3.67
   2  -1 -19   53.33    3.70
  -1   2 -19   53.50    3.95
  -1  -2  19   54.55    3.99
  -2   1 -19   54.73    3.69
   1   2  21   29.90    3.59
  -1   2 -21   23.32    2.87
  -1  -2  21   25.79    2.80
  -2  -1  21   24.92    2.72
   2  -1 -21   21.74    2.84
  -1  -2  21   24.45    3.18
  -2   1 -21   28.53    3.01
  -1   2 -21   23.90    3.01
   1  -2 -21   25.34    3.02
  -2  -1  21   24.36    3.26
  -2   1 -21   19.76    2.61
   2   1  21   31.02    3.73
  -2  -1  23   22.32    2.90
  -2   1 -23   22.50    2.89
  -1   2 -23   25.96    3.23
  -1  -2  23   25.26    3.40
  -1  -2  23   26.40    3.14
  -1   2 -23   25.69    3.49
   1  -2 -23   28.83    3.35
  -2  -1  23   27.64    3.69
  -2   1 -25   12.61    2.82
  -1  -2  25   15.93    2.97
  -1   2 -25    8.63    2.95
  -1  -2  25   16.68    3.32
  -2  -1  25   15.64    2.82
  -2  -1  25    9.23    3.10
  -2  -1  27    5.84    2.66
  -1   2 -27   11.10    3.15
  -1  -2  27    3.67    2.95
  -1  -2  27    7.78    2.81
  -2   1 -27    7.70    2.78
  -2  -1  27    8.18    3.27
  -2  -1  29    9.84    3.59
  -2   1 -29    3.78    2.74
  -1  -2  29    2.13    3.22
  -1   2 -29    5.49    2.87
   1  -2 -31    0.35    3.11
   2  -1 -31    1.60    3.44
  -1   2 -31    1.08    3.08
  -2   1 -31   -1.22    2.89
   1  -2 -33    0.72    3.23
  -1   2 -33    0.37    3.52
   2   2 -30   -3.95    3.70
   2  -2  30   -2.67    3.52
   2   2 -28    4.20    3.18
   2  -2  28    0.36    3.16
  -2  -2 -26    6.41    2.09
   2   2 -26   13.16    3.70
   2  -2  26    6.62    3.09
   2   2 -24   21.40    3.89
  -2  -2 -24   16.73    2.27
  -2  -2 -22   25.15    2.36
  -2   2  22   29.06    3.54
   2   2 -22   31.65    3.95
   2   2 -20   36.93    4.01
  -2  -2 -20   37.43    2.58
  -2   2  20   43.50    3.82
  -2  -2 -20   44.12    3.68
  -2   2  18   97.99    5.13
  -2  -2 -18   93.38    4.86
  -2  -2 -18   86.23    3.54
  -2   2  18   84.36    4.53
   2   2 -18   84.98    5.39
  -2   2  16  177.08    6.75
   2  -2  16  157.92    6.41
  -2  -2 -16  157.57    4.83
   2  -2  16  163.52    6.40
  -2   2  16  165.76    6.18
   2   2 -16  162.06    7.21
  -2  -2 -16  171.30    6.43
  -2   2  14  294.11    8.45
  -2  -2 -14  267.10    6.82
   2  -2  14  300.96    8.88
   2   2 -14  283.13    9.70
   2  -2  14  292.44    8.77
  -2   2  14  301.34    9.11
   2  -2  12  323.04    9.05
  -2   2  12  312.29    8.61
   2   2 -12  305.38    9.97
  -2   2  12  327.97    9.47
   2  -2  12  324.96    9.24
   2  -2  10  561.83   13.27
   2  -2  10  558.04   13.58
  -2   2  10  560.52   13.86
  -2   2  10  541.52   12.70
  -2   2   8  815.76   17.68
   2  -2   8  834.60   18.27
  -2   2   8  842.41   18.05
   2  -2   8  861.51   18.85
  -2   2   8  863.87   19.12
   2  -2   6  741.25   16.96
   2  -2   6  765.29   16.25
  -2   2   6  749.70   15.61
  -2   2   6  751.14   16.11
  -2   2   4  772.83   16.37
  -2   2   4  771.20   15.55
  -2  -2  -4  788.53   16.29
   2   2  -4  763.03   17.11
   2  -2   4  770.48   16.28
   2   2  -2 1401.57   29.06
  -2  -2  -2 1378.99   28.40
  -2   2   2 1458.64   28.58
   2  -2   2 1477.62   28.54
   2   2  -2 1436.93   28.54
   2   2  -2 1415.69   27.39
  -2   2   2 1454.67   27.44
   2  -2   0  569.51   12.39
   2   2   0  575.50   11.98
  -2   2   0  556.68   12.39
  -2  -2   0  568.25   12.38
   2   2   0  584.66   12.48
   2   2   2 1424.89   28.51
  -2   2  -2 1454.69   28.45
   2   2   2 1426.26   27.94
   2  -2  -2 1466.01   28.48
  -2  -2   2 1403.49   29.54
   2   2   2 1415.14   28.44
  -2  -2   2 1400.93   28.44
   2  -2  -4  799.47   15.76
  -2  -2   4  776.23   16.46
  -2  -2   4  745.79   17.31
  -2   2  -4  770.54   15.53
   2   2   4  793.81   16.88
  -2   2  -4  776.48   16.45
   2   2   4  769.13   16.38
  -2  -2   6  763.91   17.29
   2  -2  -6  757.83   15.76
  -2   2  -6  755.31   15.62
   2   2   6  762.03   17.07
  -2  -2   6  745.15   16.25
   2   2   6  772.94   16.36
  -2   2  -8  832.99   18.71
  -2  -2   8  828.58   17.97
  -2  -2   8  808.32   16.30
   2   2   8  849.37   18.95
   2   2   8  845.24   18.03
  -2   2  -8  847.67   17.44
   2  -2  -8  840.55   17.53
  -2  -2   8  829.43   18.90
  -2  -2  10  542.54   11.54
  -2  -2  10  554.08   13.78
   2   2  10  536.60   12.91
   2  -2 -10  552.37   12.63
  -2   2 -10  551.36   12.52
  -2   2 -10  539.94   13.47
  -2  -2  12  310.13    7.67
  -2   2 -12  330.13    8.54
   2  -2 -12  328.36    8.64
   2  -2 -12  306.80    9.48
   2   2  12  309.85    8.76
  -2  -2  12  318.02    9.48
  -2   2 -12  309.53    9.18
  -2  -2  14  287.04    9.16
  -2   2 -14  291.92    8.23
  -2   2 -14  289.88    8.96
   2   2  14  272.37    8.39
   2  -2 -14  292.41    8.34
  -2  -2  14  286.09    7.52
   2  -2 -14  280.06    9.17
  -2   2 -16  167.73    6.01
  -2   2 -16  162.74    6.54
  -2  -2  16  154.87    6.59
   2  -2 -16  161.43    6.00
   2  -2 -16  158.37    6.72
  -2  -2  16  171.38    5.51
   2   2  16  160.55    6.20
  -2  -2  18   87.71    5.05
  -2   2 -18   93.75    4.56
   2   2  18   81.17    5.18
   2  -2 -18   86.72    4.52
  -2  -2  18   91.21    4.06
  -2   2 -18   86.09    4.83
  -2   2 -20   37.35    3.25
   2  -2 -20   41.30    3.36
  -2   2 -20   36.84    3.52
  -2  -2  20   42.44    3.09
   2   2  20   36.28    3.83
  -2  -2  20   35.62    3.63
  -2  -2  22   35.69    3.87
  -2   2 -22   35.82    3.47
  -2   2 -22   30.25    3.39
  -2  -2  22   33.96    3.03
   2  -2 -22   34.80    3.45
  -2  -2  24   18.46    3.29
  -2   2 -24   19.16    3.24
  -2  -2  24   26.21    3.05
  -2   2 -26    8.20    2.90
   2   2  26    5.75    2.93
  -2  -2  26    8.86    3.30
  -2  -2  26    5.84    2.61
   2   2  28    2.28    3.10
  -2  -2  28    5.07    3.29
  -2   2 -28    6.42    3.05
  -2   2 -30   -0.34    2.95
   2   2  30    6.27    3.17
  -2   2 -32    0.35    3.11
   0  -3  -1 1815.03   36.68
   0  -3  -1 1833.89   36.63
   0  -3   1 1856.20   36.54
   0  -3   1 1812.17   35.52
   3   0   1 1769.91   36.42
   3   0  -1 1829.77   36.56
   0  -3   1 1794.82   36.80
  -3   0   1 1791.72   36.45
  -3   0  -1 1812.83   36.42
   3   0   3  706.15   15.59
  -3   0   3  676.07   15.56
   0  -3  -3  705.05   15.86
  -3   0   3  672.13   15.46
   3   0  -3  705.43   15.63
  -3   0  -3  691.79   15.46
   0  -3   3  708.71   14.81
   0  -3   3  709.05   15.97
   0   3  -5  942.54   19.46
   3   0   5  942.88   20.08
   0  -3   5  938.27   19.33
   0   3  -5  906.22   20.65
  -3   0   5  920.65   20.18
  -3   0  -5  912.73   20.00
   0  -3  -5  917.49   20.46
   3   0  -5  932.66   20.09
   3   0  -5  928.18   19.36
   0  -3   5  927.90   20.58
  -3   0   5  917.91   20.00
   3   0  -7  910.62   19.22
   0   3  -7  953.07   19.63
   3   0  -7  908.49   20.21
   3   0   7  915.49   18.65
   0  -3   7  916.20   20.66
   3   0   7  936.46   20.13
  -3   0   7  897.28   20.14
  -3   0   7  911.71   19.94
   0  -3  -7  887.91   20.50
  -3   0  -7  908.07   19.95
   0  -3   7  916.78   19.46
   0   3  -7  907.89   20.83
   3   0   9  230.30    7.14
  -3   0   9  227.01    7.17
   0   3  -9  240.78    6.87
   3   0  -9  227.05    6.42
   0  -3   9  234.14    7.62
  -3   0   9  242.12    7.07
   0   3  -9  237.65    7.75
   3   0  -9  241.20    7.31
   0  -3   9  233.26    6.73
   0  -3  -9  227.98    7.62
   3   0   9  239.67    5.94
  -3   0  11  223.38    7.36
  -3   0  11  229.22    7.13
   0  -3  11  218.88    6.85
   0   3 -11  224.57    7.87
   0  -3 -11  230.81    6.72
   0   3  11  224.27    7.68
  -3   0  11  228.41    6.61
   0   3 -11  236.61    7.04
   3   0 -11  231.79    6.72
   3   0  11  248.06    7.49
   3   0  11  240.76    6.12
   3   0 -11  228.35    7.33
   0  -3 -11  221.51    7.76
   0  -3  11  218.46    7.62
   0   3  13  162.34    6.48
   0  -3  13  150.00    5.56
  -3   0  13  169.41    6.03
   0   3 -13  153.09    5.66
  -3   0  13  148.91    5.90
   0  -3 -13  160.00    5.49
  -3   0 -13  157.56    4.80
   3   0 -13  154.05    5.43
  -3   0  13  152.95    5.26
   0   3 -13  159.52    6.57
   0  -3 -13  141.17    6.21
   3   0 -13  150.04    5.91
   3   0  13  150.40    5.84
   0  -3  15  134.81    5.47
  -3   0  15  120.61    5.56
   0   3 -15  126.60    6.03
   0   3 -15  127.50    5.35
   3   0  15  124.10    5.62
   3   0 -15  142.51    5.85
  -3   0 -15  130.76    4.56
   0  -3 -15  130.32    5.20
   0   3  15  130.24    6.08
  -3   0 -15  142.36    5.53
  -3   0  15  141.76    5.20
  -3   0 -17  161.85    6.24
  -3   0  17  149.62    6.43
  -3   0  17  152.24    5.74
   0  -3  17  140.41    5.96
   0   3  17  151.59    6.83
   0   3 -17  154.36    6.16
  -3   0 -17  147.10    5.21
   3   0 -17  138.58    6.15
   0  -3 -17  148.89    5.92
   0   3 -17  137.02    6.69
   3   0  17  147.55    6.36
   0  -3 -19   80.34    4.44
  -3   0 -19   72.25    3.77
   3   0 -19   76.94    4.65
  -3   0  19   66.16    4.58
   3   0  19   69.04    4.62
   0   3  19   80.99    5.20
   0  -3  19   71.98    4.36
   0   3 -19   77.03    4.45
   0   3 -19   76.60    5.12
  -3   0 -19   82.94    4.63
  -3   0  19   75.90    4.23
  -3   0 -21   28.44    2.77
  -3   0 -21   34.94    3.49
   0  -3 -21   35.87    3.39
   0   3 -21   32.17    3.84
   0  -3  21   33.80    3.34
  -3   0  21   37.89    3.34
   0   3  21   31.45    3.80
   3   0  21   33.15    3.57
   0   3 -21   29.15    3.25
   3   0 -21   30.12    3.47
  -3   0  21   33.53    3.58
  -3   0  23   26.70    3.64
   3   0  23   29.49    3.71
   0   3 -23   29.50    4.00
   0  -3  23   28.89    3.54
  -3   0  23   31.73    3.42
  -3   0 -23   27.05    2.82
   0   3 -25   11.27    3.50
  -3   0  25   14.73    3.29
  -3   0  25   10.86    2.88
   0  -3  25   18.94    3.39
   3   0  25   19.32    3.68
  -3   0 -25   18.75    2.71
  -3   0 -27    8.01    2.56
   3   0  27    9.33    3.39
   0  -3  27    4.77    2.88
   0   3 -27   10.31    3.55
  -3   0  27    7.50    3.21
   3   0 -29    1.32    3.52
   3   0  29    3.32    3.44
   0   3 -29    4.39    3.54
  -3   0  29    7.29    3.25
   0   3 -31    6.21    3.79
   1   3 -30    5.67    3.58
   3   1 -30    0.46    3.45
   3  -1  28    5.13    3.35
   1   3 -28    2.09    3.02
  -3   1  28    4.38    3.17
  -1  -3 -28    3.16    2.25
   3   1 -28    2.65    3.37
   1   3 -26   10.33    3.52
   3   1 -26    9.23    3.52
  -3  -1 -26    5.99    2.06
  -3   1  26    9.49    3.24
   3  -1  26    3.08    2.90
  -1  -3 -26    7.79    2.28
  -3  -1 -24   23.91    2.62
  -3   1  24   20.70    3.26
   3  -1  24   18.05    3.49
   3   1 -24   19.71    4.08
   1   3 -24   16.15    3.58
  -3   1  24   27.18    3.54
   3  -1  22   42.61    4.22
  -3   1  22   33.33    3.51
  -3   1  22   37.40    3.79
  -3  -1 -22   33.67    2.64
   1   3 -22   42.11    4.47
  -3  -1 -20   39.36    2.50
  -3   1  20   35.65    3.44
   3  -1  20   28.01    3.34
   1  -3  20   27.49    2.95
   1   3 -20   40.62    4.12
   1   3 -20   23.47    3.12
  -1  -3 -20   34.81    3.32
  -1   3  20   34.43    3.72
  -3   1  20   29.74    3.16
   3   1 -20   31.61    3.46
  -3  -1 -18   80.05    3.26
  -1   3  18   69.93    4.65
   3   1 -18   73.20    4.59
   1   3 -18   71.70    5.08
   1   3 -18   67.03    4.38
  -1  -3 -18   75.32    4.33
   1  -3  18   64.31    3.96
   3  -1  18   77.10    4.75
  -3   1  18   76.68    4.45
  -3   1  18   72.50    4.44
   3   1 -16  126.75    5.82
  -3  -1 -16  125.30    3.95
   1  -3  16  126.28    5.87
   1   3 -16  129.76    5.71
  -1  -3 -16  135.00    5.51
   1  -3  16  118.24    5.12
  -1   3  16  125.86    6.04
  -3   1  16  129.57    5.59
  -3   1  16  128.62    5.47
   3  -1  16  121.55    5.70
   1   3 -16  121.98    6.28
  -3   1  14  187.03    6.56
   1   3 -14  198.90    6.94
  -3   1  14  178.27    6.55
   3  -1  14  179.02    6.69
   1  -3  14  177.59    6.16
  -1   3  14  182.99    7.16
   1  -3  14  187.94    7.15
  -3  -1 -14  185.13    4.77
   3  -1  14  189.32    6.20
   1   3 -14  183.24    7.53
  -1  -3 -14  193.63    6.57
   3   1 -14  197.97    7.19
   3  -1  12  176.74    6.40
   1  -3  12  186.31    5.91
   1   3 -12  199.46    6.74
  -1   3  12  189.07    6.95
   3   1 -12  184.27    6.72
  -3   1  12  196.10    6.43
   1   3 -12  178.31    7.13
   3  -1  12  190.42    5.95
  -3   1  12  172.97    6.18
   1   3 -10  269.68    8.78
   3  -1  10  274.15    7.47
   1  -3  10  265.81    7.25
   3  -1  10  271.01    8.02
   1   3 -10  271.12    8.11
  -1   3  10  276.30    8.58
  -3   1  10  256.10    7.66
   3   1 -10  285.84    8.54
   3   1  -8  403.19    9.13
   1   3  -8  431.22   10.86
   1  -3   8  423.14    9.79
  -3   1   8  424.07   10.45
   3  -1   8  421.03   10.21
   1  -3   8  426.25    9.88
   3   1  -8  432.85   11.33
  -1  -3  -8  422.79   11.16
  -3  -1  -8  411.82   10.56
   3  -1   8  416.97   10.73
  -1   3   8  423.47   11.32
  -1  -3  -6  464.28   11.79
  -1   3   6  467.45   12.12
  -3   1   6  469.14   11.18
   1  -3   6  464.58   10.35
   1  -3   6  471.09   12.13
  -3  -1  -6  467.62   11.41
   1   3  -6  485.63   11.67
   3  -1   6  478.46   11.20
   1  -3   6  489.24   10.51
   3   1  -6  470.62    9.90
   3  -1   6  475.16   11.51
   1  -3   4  683.56   13.85
  -1   3   4  672.77   13.83
   1  -3   4  693.76   16.04
   1  -3   4  679.19   13.79
  -3   1   4  687.50   14.88
  -3  -1  -4  667.83   15.15
   3  -1   4  676.89   15.23
  -1  -3  -4  664.13   14.74
  -1  -3  -4  671.28   15.30
   1   3  -2  785.10   17.93
  -1  -3  -2  806.92   17.49
  -3  -1  -2  800.59   17.58
  -1   3   2  820.72   16.11
   1  -3   2  823.60   18.41
  -3   1   2  816.31   17.25
  -1  -3  -2  797.91   17.38
   1  -3   2  812.42   15.94
   1  -3   2  822.96   16.07
   3  -1   2  807.78   17.64
   1  -3   0  603.42   11.88
   1  -3   0  608.63   14.37
  -3  -1   0  594.11   13.63
   1   3   0  606.24   13.75
  -1  -3   0  614.73   13.28
  -1  -3   0  599.29   11.96
   3  -1   0  613.18   13.70
  -1  -3   0  601.10   13.61
   1   3   0  602.26   11.97
   1  -3   0  602.96   12.00
  -1   3   0  599.80   12.00
   3  -1  -2  837.06   17.86
  -1  -3   2  796.22   17.87
   1   3   2  821.95   17.58
  -1  -3   2  803.22   17.68
  -1  -3   2  827.50   17.06
  -3  -1   2  794.77   17.67
   1   3   2  818.34   16.11
  -1  -3   2  804.44   16.11
   1  -3  -2  858.98   18.62
  -1  -3   4  699.79   15.75
   1   3   4  693.47   13.95
   1  -3  -4  675.32   13.76
   3  -1  -4  690.03   15.33
  -1  -3   4  652.93   13.90
  -1   3  -4  696.01   14.05
  -1  -3   4  682.59   15.31
  -3  -1   4  667.16   15.25
   1   3   4  674.41   15.34
   1  -3  -4  698.43   16.10
  -1  -3   6  466.49   11.53
   1  -3  -6  473.69   10.29
   1   3   6  478.09   11.82
  -3  -1   6  488.48   11.66
   1   3   6  467.28   10.43
  -1   3  -6  479.16   10.55
  -1   3  -6  475.17   12.28
   3  -1  -6  478.47   11.29
   3  -1  -6  489.91   11.71
   1  -3  -6  454.45   12.18
  -1  -3   6  463.43   11.99
   3  -1  -8  428.58   10.56
  -1   3  -8  433.01   11.55
   1  -3  -8  422.24    9.68
  -1   3  -8  422.86    9.92
  -1  -3   8  419.25   10.76
  -3  -1   8  422.44   10.64
   1  -3  -8  422.05   11.48
   3  -1  -8  421.17   10.78
   1   3   8  408.70    9.72
   1   3   8  412.64   11.10
  -1  -3   8  409.80   11.26
  -1  -3  10  270.17    8.12
   3  -1 -10  269.41    7.86
   1  -3 -10  273.39    7.24
   1  -3 -10  270.28    8.68
   3  -1 -10  276.56    8.08
  -1   3 -10  274.10    8.72
  -3  -1  10  280.02    7.98
  -1   3 -10  269.30    7.39
   3  -1 -12  184.89    6.46
   1  -3 -12  181.73    7.11
   1  -3 -12  185.89    5.90
  -1   3 -12  198.12    6.15
  -3  -1  12  177.01    5.31
   3  -1 -12  204.02    6.54
  -3   1 -12  200.86    6.28
  -3  -1  12  195.55    6.54
  -1   3 -12  185.19    7.12
  -1  -3  12  193.45    6.68
  -3  -1  14  192.61    6.86
  -1  -3  14  186.22    6.82
   3  -1 -14  177.77    6.68
   1  -3 -14  192.41    6.25
  -1   3 -14  181.83    7.21
  -3  -1  14  186.41    5.68
   3  -1 -14  180.09    6.56
  -3   1 -14  199.43    6.53
  -3   1 -14  193.12    6.30
  -1   3 -14  189.22    6.36
  -1   3 -16  129.20    5.28
  -3   1 -16  130.07    5.33
  -1  -3  16  124.54    5.65
  -3   1 -16  133.09    5.21
  -3  -1  16  118.29    4.61
   1  -3 -16  127.85    5.12
  -1   3 -16  125.30    6.05
   3  -1 -16  129.02    5.47
   3  -1 -16  114.95    5.40
  -3   1 -18   74.42    4.22
  -1  -3  18   81.67    4.74
  -3   1 -18   72.69    4.01
   1   3  18   80.07    5.06
  -3  -1  18   75.00    3.81
   1  -3 -18   73.62    4.07
   3  -1 -18   77.25    4.47
  -1   3 -18   71.06    4.14
  -1   3 -18   79.00    5.02
   1   3  20   36.33    3.89
  -3   1 -20   28.98    3.18
  -3   1 -20   36.20    3.13
   3  -1 -20   34.58    3.36
   1  -3 -20   32.10    3.14
  -1   3 -20   35.55    3.24
  -1   3 -20   29.57    3.58
  -3  -1  20   35.38    2.99
  -1  -3  20   40.15    3.83
  -1   3 -22   34.14    3.91
   1  -3 -22   35.20    3.35
  -1  -3  22   31.12    3.68
  -1   3 -22   36.18    3.59
  -3  -1  22   26.95    2.96
  -3   1 -22   36.07    3.39
   3  -1 -22   33.47    3.64
  -3   1 -24   21.11    3.09
  -1  -3  24   16.11    2.86
  -3  -1  24   20.92    3.00
  -1  -3  24   26.84    3.72
  -1   3 -24   19.31    3.51
  -1  -3  26    7.84    3.28
  -1   3 -26   12.66    3.50
  -1  -3  26    4.43    2.52
  -3  -1  26   11.24    2.85
  -3   1 -26    6.46    2.49
  -1  -3  28    4.56    3.28
  -3   1 -28   -1.09    2.57
  -1   3 -28    4.45    3.23
  -1   3 -30    6.59    3.56
   2   3 -29    1.82    3.41
   2  -3  29    4.80    3.60
   3   2 -29    0.47    3.39
   3  -2  29    3.44    3.53
   2   3 -27    2.17    3.31
   2  -3  27    5.48    3.23
   3   2 -27    3.56    3.35
   3  -2  27    5.72    3.45
   3   2 -25    7.17    3.55
   3  -2  25   16.27    3.70
  -2  -3 -25    7.48    2.01
   2   3 -25   13.21    3.72
   2  -3  25    9.18    3.38
  -2  -3 -23   17.41    2.21
   3   2 -23   16.32    3.76
   3  -2  23   16.22    3.31
   2   3 -23   14.04    3.63
   2  -3  23   18.82    3.40
  -3   2  23   25.53    3.45
  -3  -2 -23   19.28    1.97
   2  -3  21   24.69    3.29
   3   2 -21   26.47    4.00
  -3  -2 -21   26.05    1.95
  -3   2  21   24.16    3.11
  -3   2  21   24.27    3.26
  -2   3  21   27.73    3.55
   3  -2  21   24.66    3.35
  -2  -3 -21   22.92    2.18
   2   3 -21   16.46    3.29
  -3  -2 -19   51.15    3.90
   3  -2  19   42.49    3.91
  -3   2  19   39.89    3.43
   3   2 -19   49.21    4.56
  -3  -2 -19   40.90    2.09
  -2   3  19   56.26    4.27
  -3   2  19   44.77    3.74
  -2  -3 -19   51.09    3.78
   3   2 -19   50.62    4.04
   2   3 -19   53.49    4.18
   2   3 -19   44.02    4.30
   2  -3  19   44.77    3.86
   2  -3  19   39.70    3.56
   3   2 -17  114.38    6.50
  -2   3  17  132.42    6.15
   3  -2  17  116.47    5.69
   2   3 -17  121.71    5.89
   3   2 -17  124.89    6.00
  -3  -2 -17  114.82    3.27
   2  -3  17  115.22    5.74
  -3   2  17  109.12    5.24
   2  -3  17  115.28    5.47
  -3   2  17  133.22    5.94
   2   3 -17  122.55    6.66
   3  -2  17  126.40    5.58
  -3   2  15  164.78    6.13
  -3   2  15  150.28    5.85
  -2   3  15  156.35    6.59
  -3   2  15  154.94    6.30
   2   3 -15  133.50    6.74
   2   3 -15  152.93    6.46
   2  -3  15  144.63    5.87
   2  -3  15  153.22    6.44
   3   2 -15  144.67    6.39
   3  -2  15  158.16    6.27
   3  -2  15  150.76    5.99
  -3   2  13  132.52    5.23
  -3   2  13  119.77    4.87
   3   2 -13  134.44    5.86
  -2   3  13  131.09    5.75
   2  -3  13  128.35    5.12
   2   3 -13  121.64    5.54
   3  -2  13  122.37    5.13
   2  -3  13  125.71    5.60
  -3   2  13  121.66    5.39
   3  -2  13  126.23    5.37
   3  -2  11  197.60    6.69
   3   2 -11  200.40    7.27
  -2   3  11  208.68    7.39
   2   3 -11  199.69    7.11
  -3   2  11  198.82    6.50
   2  -3  11  213.68    7.36
   3  -2  11  210.53    6.87
  -3   2  11  199.73    6.29
   2  -3  11  197.05    6.43
  -3   2   9  264.93    7.60
  -3   2   9  266.45    7.22
  -2   3   9  256.09    7.11
   3   2  -9  262.72    8.45
   3  -2   9  259.44    7.76
   2   3  -9  251.61    8.15
   3  -2   9  269.57    7.97
  -2  -3  -9  259.30    6.14
   2  -3   9  273.33    8.50
   2  -3   9  270.27    7.40
  -2  -3  -7  533.70   11.38
   3  -2   7  552.04   12.96
   2  -3   7  540.64   12.33
  -3   2   7  519.71   12.11
   2   3  -7  531.07   13.81
  -3  -2  -7  544.95   12.79
  -2   3   7  527.89   12.18
  -3   2   7  564.22   12.96
   3  -2   7  561.12   13.39
  -2   3   5  841.93   17.49
  -3   2   5  840.11   18.18
   3  -2   5  833.22   18.12
   2   3  -5  805.12   18.89
   3  -2   5  850.94   18.75
   2  -3   5  825.75   17.43
  -3   2   5  816.19   17.24
   3   2  -5  820.85   18.82
  -3  -2  -5  818.91   18.02
  -2  -3  -5  824.87   16.99
  -3   2   3  424.61    9.56
   2  -3   3  439.06    9.84
   3   2  -3  425.95   10.50
  -3  -2  -3  434.26   10.46
   2   3  -3  437.31   11.04
  -2   3   3  437.60    9.88
  -2  -3  -3  435.00    9.80
  -3   2   3  443.95   10.64
   3  -2   3  444.59   10.58
   3   2  -3  426.59   10.82
  -2  -3  -3  456.21    9.96
   3   2  -1  698.05   14.67
  -3   2   1  721.94   14.85
  -2  -3  -1  714.75   14.98
  -3   2   1  724.26   15.97
   2   3  -1  708.88   15.06
   3   2  -1  744.63   16.03
  -2  -3  -1  752.18   15.47
  -2  -3  -1  705.59   15.56
   2   3  -1  726.05   16.05
   2  -3   1  737.31   15.09
   3  -2   1  715.13   15.85
  -2   3   1  725.43   15.12
  -3  -2  -1  700.47   15.77
   3   2  -1  729.34   15.87
   3  -2  -1  765.06   16.17
  -2   3  -1  697.69   15.16
   2  -3  -1  728.31   15.20
  -3   2  -1  748.80   16.12
  -2  -3   1  756.32   15.13
   3   2   1  741.13   16.09
   2   3   1  720.04   15.22
   2   3   1  714.84   15.56
  -3  -2   1  709.36   15.97
   2   3   1  728.84   15.83
   3   2   1  746.52   15.45
  -2  -3   1  707.93   15.14
  -2  -3   1  709.89   16.08
  -2  -3   3  427.67    9.79
  -2  -3   3  425.13   11.12
   2   3   3  446.17   10.46
  -2   3  -3  428.25    9.81
   3  -2  -3  446.44   10.54
  -3   2  -3  440.29   10.55
  -2   3  -3  418.44    8.67
  -3  -2   3  442.79   11.47
   3   2   3  444.91    9.29
  -2  -3   3  422.25   10.79
  -3  -2   3  423.20   10.47
   2   3   3  440.72    9.82
   2  -3  -3  438.95   11.69
   3   2   3  440.65   10.53
  -2  -3   3  442.28    9.19
   2  -3  -3  434.23    8.63
   3  -2  -5  818.28   17.34
  -2  -3   5  812.67   18.80
  -3  -2   5  815.36   19.06
   2   3   5  834.60   17.39
  -3  -2   5  799.84   18.04
  -2   3  -5  822.98   16.59
   2  -3  -5  843.67   19.48
  -2  -3   5  844.08   17.50
   2  -3  -5  823.03   16.54
   3  -2  -5  816.57   19.04
  -2  -3   5  818.82   16.22
   2   3   5  842.19   18.40
  -3   2  -5  838.93   18.15
   3   2   5  819.24   18.06
  -3  -2   7  531.02   13.78
   3   2   7  552.58   12.97
  -3  -2   7  550.52   12.98
   2   3   7  537.44   13.38
  -2  -3   7  523.94   12.29
   3  -2  -7  552.32   13.76
  -3   2  -7  547.28   12.93
   2  -3  -7  545.10   11.71
   2   3   7  541.99   12.34
  -2   3  -7  537.14   11.76
  -2  -3   7  528.91   10.93
  -2  -3   7  548.95   13.65
   3  -2  -7  552.38   12.36
   2  -3  -7  526.48   13.99
  -2   3  -9  267.28    6.91
  -2   3  -9  277.91    8.61
  -3  -2   9  248.93    8.31
  -3   2  -9  260.56    6.96
   3   2   9  265.84    7.78
  -3  -2   9  249.13    7.53
   2  -3  -9  280.43    6.96
  -2  -3   9  256.62    8.18
   2   3   9  269.28    8.41
   2   3   9  257.23    7.25
  -2  -3   9  241.28    7.14
   3  -2  -9  268.23    7.30
   3  -2  -9  282.23    8.56
  -3   2 -11  199.68    6.03
  -2   3 -11  189.52    7.09
  -2   3 -11  206.58    6.01
   2  -3 -11  209.07    6.04
   2   3  11  195.44    6.22
   3   2  11  192.02    6.56
   3  -2 -11  199.41    7.17
   3  -2 -11  197.06    6.23
   2   3  11  195.46    7.23
  -3  -2  11  190.88    7.16
  -2  -3  11  198.10    7.05
  -3  -2  11  195.40    6.54
   3   2  13  132.81    5.95
   3   2  13  121.18    5.13
  -3  -2  13  129.59    5.23
  -3   2 -13  120.87    4.67
  -2   3 -13  127.99    4.71
   2   3  13  136.34    6.03
   3  -2 -13  122.61    5.53
  -2  -3  13  119.25    5.47
  -3  -2  13  114.36    5.54
   2  -3 -13  122.61    4.62
   3  -2 -13  130.40    4.96
  -2   3 -13  133.07    5.85
   2   3  13  116.97    4.80
  -3  -2  13  116.84    3.64
  -2  -3  15  148.46    4.78
   3   2  15  143.48    6.60
  -3  -2  15  150.34    6.06
   3  -2 -15  153.62    6.59
   3   2  15  139.21    5.86
  -2  -3  15  139.52    6.30
   2  -3 -15  147.82    5.49
  -2   3 -15  155.70    5.55
  -3  -2  15  152.34    4.65
  -3   2 -15  144.11    5.93
   2   3  15  145.92    5.68
  -3   2 -15  147.25    5.52
  -3  -2  15  151.13    6.66
   3  -2 -15  142.33    5.64
   2   3  15  165.60    7.03
   2  -3 -15  142.32    6.63
  -2   3 -15  141.20    6.41
  -3   2 -17  130.96    5.33
  -3  -2  17  107.30    4.25
  -3   2 -17  124.00    5.64
   3   2  17  122.38    5.64
  -2  -3  17  126.02    4.56
   2  -3 -17  128.25    6.45
  -2   3 -17  124.49    6.07
   3   2  17  120.38    6.23
   3  -2 -17  120.69    6.00
   2   3  17  119.38    5.35
  -3  -2  17  117.43    6.08
  -2  -3  17  121.88    6.00
   2  -3 -17  128.00    5.30
  -2   3 -17  114.34    5.03
   3  -2 -17  124.67    5.40
  -3   2 -19   41.40    3.58
  -2  -3  19   41.70    2.82
   3  -2 -19   41.18    3.75
  -3   2 -19   39.10    3.35
  -3  -2  19   43.31    4.03
   2  -3 -19   43.91    3.41
  -2   3 -19   45.80    4.11
   2   3  19   38.60    3.43
  -2  -3  19   40.71    3.93
   3  -2 -19   45.07    3.57
  -3  -2  19   42.69    2.81
  -2   3 -19   50.40    3.58
   2  -3 -19   37.34    3.83
   3   2  19   41.93    3.71
  -2  -3  21   25.49    3.49
  -3   2 -21   24.74    3.12
  -3   2 -21   22.02    2.99
   2  -3 -21   25.59    3.05
  -2   3 -21   23.62    3.26
  -2  -3  21   23.22    2.55
   2   3  21   26.23    3.24
   3   2  21   24.50    3.32
  -2   3 -21   29.12    3.16
  -3  -2  21   21.12    3.36
  -3  -2  21   28.12    2.80
   3  -2 -21   22.92    3.06
  -3  -2  23   18.76    3.38
   2   3  23   18.45    3.19
  -2  -3  23   19.54    2.66
  -3  -2  23   17.94    2.59
  -2  -3  23   18.84    3.47
  -2   3 -23   16.17    3.30
  -3   2 -23   17.59    3.00
   3   2  23   14.44    2.98
   3   2  25   12.54    3.34
   2   3  25    8.89    2.99
  -2  -3  25    8.85    3.36
  -3  -2  25   12.67    3.55
  -2   3 -25   12.40    3.27
  -3   2 -25   13.74    3.07
   3   2  27    4.92    3.26
   2   3  27    3.72    3.00
  -2  -3  27    7.20    3.36
  -3  -2  27    5.19    3.48
  -3   2 -27    2.71    2.75
  -2   3 -27    3.16    3.04
  -2  -3  29    6.07    3.77
   2   3  29    3.99    3.20
  -3   2 -29    1.25    2.79
   3   2  29    2.45    3.20
  -2   3 -29    3.29    3.17
  -2   3 -31    3.03    3.43
   3   3 -28    2.39    3.72
   3  -3  28    1.82    3.38
   3   3 -26    3.19    3.43
   3  -3  26    5.42    3.27
   3   3 -24    7.77    3.79
   3  -3  24   13.77    3.43
   3  -3  22   16.37    3.30
   3   3 -22   14.21    3.87
  -3  -3 -22   14.50    1.41
   3   3 -20   22.04    3.74
   3  -3  20   16.55    3.09
   3  -3  20   14.63    2.95
  -3   3  20   23.90    3.40
  -3  -3 -20   15.44    1.12
  -3   3  18   58.49    3.95
  -3   3  18   62.82    4.60
   3  -3  18   59.05    4.26
   3  -3  18   59.84    4.26
  -3   3  16   60.28    3.86
  -3   3  16   56.04    3.53
   3  -3  16   65.16    4.33
  -3   3  16   67.98    4.58
   3  -3  16   59.32    4.01
  -3   3  14   70.79    3.75
   3  -3  14   79.07    4.56
  -3   3  14   76.34    3.97
   3  -3  14   74.52    4.17
  -3   3  12   72.89    3.43
  -3   3  12   79.21    3.82
   3  -3  12   72.81    3.89
   3  -3  12   83.84    4.48
  -3   3  10   57.52    2.77
   3  -3  10   58.15    3.76
   3  -3  10   55.66    3.24
  -3   3  10   62.35    3.22
   3   3 -10   51.17    3.78
   3  -3   8  171.60    5.68
  -3   3   8  176.09    5.69
  -3   3   8  169.58    4.89
   3  -3   8  163.89    6.32
   3   3  -8  153.75    6.44
  -3  -3  -6  272.86    7.36
  -3   3   6  261.70    6.32
   3  -3   6  257.32    8.32
   3  -3   6  264.45    7.39
   3   3  -6  257.33    8.37
  -3   3   6  266.38    7.37
  -3   3   4  277.83    6.05
  -3   3   4  258.40    7.36
   3  -3   4  264.39    8.44
  -3  -3  -4  266.42    7.33
   3  -3   4  283.69    7.47
   3   3  -4  282.52    8.31
   3   3  -2  366.20    9.13
  -3  -3  -2  347.05    8.93
   3  -3   2  375.51    9.13
  -3   3   2  365.24    7.31
  -3   3   2  382.12    9.29
   3   3  -2  356.97    9.59
   3   3   0  367.24    9.15
   3   3   0  386.54    9.34
   3  -3   0  368.47    9.10
   3   3   0  356.51    8.46
  -3  -3   0  364.35    9.03
  -3   3   0  358.96    9.09
   3   3   2  361.40    8.61
  -3  -3   2  353.16    8.97
  -3   3  -2  348.25    7.20
   3  -3  -2  379.10    9.06
  -3   3  -2  377.89    9.06
   3   3   2  354.92    8.83
  -3  -3   2  359.09   10.32
  -3   3  -2  361.76    7.35
   3   3   2  357.39    8.99
  -3   3  -4  264.90    5.91
   3   3   4  274.27    7.58
  -3  -3   4  265.53    8.45
  -3  -3   4  260.50    7.28
   3   3   4  262.28    6.33
   3   3   4  274.74    7.32
  -3   3  -4  260.00    7.25
  -3   3  -6  266.64    6.32
   3   3   6  252.52    7.34
  -3  -3   6  261.51    8.53
  -3   3  -6  263.16    7.40
   3  -3  -6  268.14    6.55
   3   3   6  269.02    8.02
  -3  -3   6  265.58    7.43
  -3  -3   8  157.51    6.42
   3   3   8  172.83    5.75
   3   3   8  168.12    6.31
   3  -3  -8  173.23    5.11
  -3   3  -8  175.98    4.92
  -3  -3   8  179.97    5.90
  -3  -3  10   55.42    3.78
  -3   3 -10   63.39    2.82
  -3  -3  10   55.47    3.21
   3  -3 -10   62.38    2.92
   3  -3 -10   58.23    3.91
   3   3  10   55.59    3.21
   3   3  10   50.36    3.63
  -3  -3  12   72.77    3.82
   3   3  12   70.62    4.39
  -3  -3  12   70.35    4.35
   3  -3 -12   78.91    3.56
   3  -3 -12   77.04    4.61
  -3   3 -12   73.70    3.37
   3   3  12   74.09    3.88
   3   3  14   74.58    4.09
  -3  -3  14   78.88    4.12
  -3   3 -14   77.18    3.68
  -3  -3  14   73.84    4.61
   3  -3 -14   73.06    4.70
  -3  -3  14   67.80    2.33
   3   3  14   72.14    4.69
   3  -3 -14   74.16    3.65
  -3   3 -16   61.06    4.30
  -3  -3  16   54.64    3.82
   3  -3 -16   68.27    3.81
  -3   3 -16   66.38    3.66
  -3  -3  16   54.15    4.30
  -3  -3  16   59.39    2.55
   3  -3 -16   60.56    4.55
   3   3  16   56.14    4.43
   3   3  16   64.50    3.95
  -3  -3  18   66.90    4.25
   3   3  18   51.12    4.56
  -3   3 -18   55.34    3.64
  -3  -3  18   56.25    4.47
   3   3  18   60.72    4.08
   3  -3 -18   48.64    4.38
  -3  -3  18   56.49    2.82
  -3   3 -18   65.11    4.52
   3  -3 -18   53.27    3.63
  -3  -3  20   14.22    3.17
   3   3  20   14.35    2.82
  -3   3 -20   16.47    2.58
   3  -3 -20   15.21    3.03
  -3  -3  20   18.38    2.09
  -3   3 -20   14.78    3.01
   3  -3 -20   18.54    2.85
   3   3  22   20.70    3.27
  -3  -3  22   11.80    2.10
  -3  -3  22   17.18    3.51
  -3   3 -22   14.97    2.86
   3  -3 -22   16.73    2.97
  -3   3 -22   20.15    3.31
  -3  -3  24   17.94    3.72
  -3   3 -24   18.58    3.68
   3   3  24   11.77    3.21
   3   3  26    8.96    3.31
  -3   3 -26    6.03    3.16
  -3  -3  26    8.21    3.68
  -3   3 -28    5.22    3.26
   3   3  28    2.64    3.28
  -3   3 -30   -3.23    3.46
   0  -4   0  358.73    9.90
  -4   0   0  345.38    9.56
   4   0   0  356.39    9.56
   0  -4   0  348.33    8.48
   0  -4   0  345.28    9.57
  -4   0  -2  303.92    8.82
   0  -4   2  337.94    9.04
   4   0  -2  328.16    9.12
  -4   0   2  326.72    9.01
   4   0   2  321.94    8.96
   0  -4   2  315.96    7.91
   0  -4   2  322.73    9.29
  -4   0   2  295.40    8.75
   0  -4  -2  324.29    9.12
   0  -4  -2  316.66    9.08
   0   4   4  386.95    7.78
   4   0  -4  381.86   10.26
   0  -4   4  388.87    9.30
   0  -4  -4  375.76   10.48
  -4   0  -4  388.21   10.20
  -4   0   4  370.93   10.22
   0  -4   4  381.98    7.81
   4   0   4  373.76   10.17
   0  -4   4  370.06   10.58
  -4   0   4  368.16   10.07
   0  -4  -4  361.23   10.21
   4   0  -6  266.98    8.00
  -4   0  -6  260.56    7.86
   0  -4   6  261.88    7.10
   0  -4  -6  255.09    8.26
   4   0   6  250.19    7.78
   0  -4   6  255.37    8.33
  -4   0   6  269.73    8.09
   0   4   6  263.44    8.21
   4   0  -6  262.31    7.21
  -4   0   6  253.91    7.82
  -4   0   8  186.43    6.44
   4   0   8  190.79    5.26
   0  -4   8  191.77    5.92
  -4   0   8  188.29    6.62
   0   4  -8  181.48    7.16
   0  -4  -8  188.35    6.94
   0   4  -8  196.41    6.09
   4   0  -8  192.83    5.81
   0  -4   8  204.06    7.22
  -4   0  -8  184.77    6.45
   4   0   8  175.25    6.34
   4   0 -10  156.73    5.23
  -4   0  10  159.64    5.91
   4   0  10  160.04    6.07
   0   4 -10  167.70    6.82
   4   0  10  152.04    4.52
   0  -4 -10  151.53    6.39
   0   4 -10  161.45    5.61
  -4   0  10  156.86    6.06
   4   0 -10  154.01    6.02
   0  -4  10  148.35    6.37
   0  -4  10  149.53    5.33
   0  -4 -12  144.32    6.40
  -4   0  12  145.19    5.78
   0   4 -12  133.73    6.35
   4   0 -12  138.49    5.82
   0   4 -12  140.42    5.42
  -4   0  12  143.95    6.01
   0  -4  12  135.70    5.30
   4   0  12  145.74    5.92
   4   0  12  142.93    4.40
   0  -4  12  141.77    6.34
   4   0 -12  150.07    5.26
   0  -4 -12  141.99    5.13
   4   0  14   93.39    4.89
   4   0 -14  108.43    5.28
   4   0 -14  100.50    4.44
   0  -4 -14  105.16    4.48
  -4   0  14  104.64    5.02
   0  -4  14   92.68    4.52
   0   4 -14  108.70    4.87
  -4   0  14  101.79    5.16
   0  -4 -14   94.60    5.37
   0   4 -14   99.62    5.58
   4   0 -16   88.79    4.89
   0  -4 -16   89.29    4.39
  -4   0  16   91.40    4.87
   0  -4  16   79.80    4.37
  -4   0  16   77.55    4.72
   4   0  16   82.88    4.69
   0   4  16   81.48    5.19
   0  -4 -16   76.62    5.07
   0   4 -16   87.12    4.58
   0   4 -16   81.21    5.29
   0   4 -18   45.78    3.69
   0   4  18   47.97    4.19
  -4   0  18   48.24    3.92
   0  -4  18   42.95    3.56
   0  -4 -18   51.59    3.56
   4   0  18   40.15    3.66
  -4   0  18   48.63    3.95
  -4   0 -18   42.11    3.64
   0   4 -18   42.42    4.15
   4   0 -18   49.13    3.97
  -4   0  18   52.13    3.52
  -4   0  20   22.63    3.31
   4   0  20   20.24    3.13
  -4   0 -20   23.46    3.13
   0   4 -20   19.01    2.98
   0   4 -20   16.85    3.32
   4   0 -20   24.64    3.30
   0  -4 -20   18.11    2.78
   0  -4  20   21.73    2.97
  -4   0  20   27.87    2.94
   4   0  22   24.67    3.60
   0  -4  22   22.83    3.30
  -4   0  22   22.33    3.48
  -4   0  22   24.59    3.14
   0   4 -22   17.57    3.74
   4   0  24   18.78    3.58
   0  -4  24   18.16    3.26
  -4   0  24   14.98    2.99
  -4   0  24   11.13    3.29
   0   4 -24   15.87    3.55
   0  -4  26    6.53    3.20
   4   0  26    8.67    3.56
  -4   0  26    7.24    3.23
   0   4 -26    3.66    3.30
   4   0  28    4.06    3.44
  -4   0  28    4.03    3.25
   0  -4  28   -1.33    3.09
   0   4 -28    5.95    3.49
  -4   1  29    1.44    3.32
   1   4 -27    2.19    3.34
   4   1 -27    5.73    3.95
   4  -1  27    4.39    3.38
  -4   1  27    3.71    3.22
   4   1 -25    3.60    3.39
  -4   1  25    7.30    3.07
   4  -1  25    9.23    3.46
   1   4 -25    2.92    2.95
   1   4 -23    7.54    3.25
   4  -1  23   11.77    3.20
  -4   1  23   14.30    3.18
  -4   1  23   11.80    3.00
   1  -4  21   19.84    3.00
  -4   1  21   20.37    3.00
   1   4 -21   21.70    3.85
  -4   1  21   21.29    3.26
   4  -1  21   26.78    3.70
  -4  -1 -19   40.77    3.65
   1  -4  19   26.99    2.95
  -1  -4 -19   33.45    3.27
  -4   1  19   35.94    3.55
   4   1 -19   38.92    3.77
   1   4 -19   40.57    3.79
   4  -1  19   37.31    3.85
   1   4 -19   31.51    4.03
  -4   1  19   32.63    3.35
  -1  -4 -17   76.21    4.34
   4  -1  17   60.41    4.29
   4   1 -17   68.49    4.64
   1   4 -17   69.96    4.52
   1  -4  17   76.63    4.95
  -4   1  17   73.92    4.48
   1   4 -17   66.30    4.99
   1  -4  17   64.41    3.93
   4  -1  17   65.48    3.63
  -1   4  17   78.20    5.08
  -1  -4 -15   96.93    4.65
   1  -4  15   99.14    4.49
  -4   1  15   88.53    4.78
   1  -4  15   91.09    5.27
  -1   4  15   98.77    5.39
   4  -1  15   94.34    5.03
   1   4 -15   84.39    5.48
   1   4 -15   97.40    4.93
   4  -1  15   95.78    4.20
   4   1 -15   86.63    5.02
   1  -4  13  108.08    4.46
   4  -1  13  121.33    5.40
   1   4 -13  101.79    5.60
   1   4 -13  119.31    5.25
   4  -1  13  102.21    4.30
   4   1 -13  111.89    5.44
  -4   1  13   99.02    4.83
  -1   4  13  105.46    5.47
  -4   1  11  153.83    5.92
   1  -4  11  167.34    5.37
   4  -1  11  164.14    5.44
  -1   4  11  163.10    6.69
   4   1 -11  156.72    6.45
   1   4 -11  149.91    5.96
  -1  -4 -11  153.93    6.50
   4  -1  11  164.47    6.29
   1  -4  11  150.28    5.16
   4   1 -11  163.63    4.81
   4  -1   9  198.73    6.93
   1  -4   9  201.59    5.86
   4   1  -9  211.87    5.43
  -4   1   9  191.10    6.59
   1  -4   9  201.28    5.82
   1   4  -9  211.99    6.91
   4  -1   9  208.29    6.28
  -4  -1  -9  184.03    6.61
   1  -4   9  208.88    7.60
  -1  -4  -9  199.29    7.27
  -1   4   7  286.70    7.01
   1  -4   7  299.48    7.33
  -1  -4  -7  301.79    8.17
  -1  -4  -7  285.58    8.90
  -4  -1  -7  299.05    8.60
   4   1  -7  295.29    6.98
  -4   1   7  291.28    8.35
   4  -1   7  296.59    8.09
   1  -4   7  297.40    7.21
   1  -4   7  298.36    9.36
   4  -1   7  281.93    8.54
   4  -1   5  253.58    7.55
   1  -4   5  241.57    5.70
   1  -4   5  230.63    5.89
  -1   4   5  241.09    5.69
  -4  -1  -5  243.86    7.42
   4   1  -5  237.15    5.98
  -1  -4  -5  244.16    7.56
   1   4  -5  240.26    7.94
   1  -4   5  236.67    7.99
  -1  -4  -5  257.76    7.21
  -4   1   5  226.21    7.01
   1  -4   3  161.81    6.19
  -4  -1  -3  149.84    5.39
  -1   4   3  154.32    3.65
   1   4  -3  135.71    5.49
  -4   1   3  151.97    5.17
  -1  -4  -3  141.96    5.25
   1  -4   3  152.81    3.62
   4  -1   3  149.67    5.38
   1  -4   3  147.93    3.89
  -1  -4  -3  144.51    5.13
  -1   4   1  257.83    5.40
  -4  -1  -1  271.90    7.80
   1   4  -1  264.80    7.97
  -1  -4  -1  270.71    7.66
   4  -1   1  264.57    7.73
  -4   1   1  268.88    7.44
  -1  -4  -1  270.56    7.53
   1  -4   1  256.34    8.25
   1  -4   1  256.21    5.85
  -1  -4   1  275.61    7.40
   1  -4  -1  275.57    8.42
  -1  -4   1  265.51    5.41
   4  -1  -1  264.72    7.81
   1  -4  -1  255.60    5.92
  -4  -1   1  258.36    7.72
  -1  -4   1  254.79    7.79
  -1  -4   1  254.03    7.46
   1  -4  -1  256.63    8.17
   1   4   3  147.96    5.28
   4  -1  -3  149.93    5.40
  -1  -4   3  143.57    5.05
   1   4   3  144.54    3.51
  -1  -4   3  154.31    5.63
  -1  -4   3  141.61    3.51
  -1  -4   3  148.86    4.81
  -4  -1   3  148.45    5.35
   1  -4  -3  152.24    5.92
  -4  -1   5  242.54    7.50
   1   4   5  246.82    5.78
   1  -4  -5  238.40    5.87
   4  -1  -5  253.94    7.59
  -1  -4   5  244.81    5.83
   1  -4  -5  240.25    8.14
  -1  -4   5  243.88    6.78
  -1  -4   5  252.21    7.36
  -1  -4   5  255.68    7.99
   1   4   5  244.38    7.59
  -1  -4   7  288.31    7.03
   1  -4  -7  293.95    7.11
  -4  -1   7  287.59    8.52
   1  -4  -7  296.89    9.37
  -1  -4   7  281.13    8.32
  -1   4  -7  290.89    9.34
   1   4   7  297.72    8.85
  -1   4  -7  300.21    7.51
   4   1   7  272.25    6.23
  -1  -4   7  311.41    9.22
   1   4   7  293.07    7.06
   4  -1  -7  304.95    8.62
   1  -4  -9  203.88    5.73
   4  -1  -9  206.09    6.79
  -4  -1   9  205.70    6.93
  -1  -4   9  203.53    6.79
   1   4   9  206.53    7.30
  -1   4  -9  193.06    7.50
   4  -1  -9  200.16    6.70
   1  -4  -9  197.22    7.53
   1   4   9  196.30    5.66
  -1  -4   9  214.05    7.55
  -1   4  -9  197.39    5.99
   1  -4 -11  156.11    5.14
  -4  -1  11  158.74    6.03
   4  -1 -11  153.49    5.85
  -1  -4  11  158.51    6.01
   1  -4 -11  156.25    6.70
   1   4  11  152.60    5.07
  -1   4 -11  155.92    5.38
   1   4  11  162.57    6.52
  -1   4 -11  158.99    6.74
   4  -1 -11  153.61    5.85
  -1  -4  11  156.56    6.61
  -1   4 -13  109.66    4.63
   1  -4 -13  115.58    4.50
  -4  -1  13  110.79    5.15
  -1  -4  13  104.32    5.02
   4  -1 -13  106.07    4.91
   1  -4 -13  101.07    5.66
   4  -1 -13  120.90    5.18
  -1   4 -13  101.63    5.69
   1   4  13  119.47    5.73
  -4   1 -15   92.66    4.59
  -4  -1  15   92.21    4.89
   1  -4 -15   99.17    4.38
  -1  -4  15   96.84    4.99
  -1   4 -15  103.74    5.77
   4  -1 -15   95.81    4.82
   4  -1 -15   96.70    4.91
   1  -4 -15   89.80    5.42
  -1   4 -15   96.72    4.58
  -4   1 -17   80.89    4.35
  -4  -1  17   76.30    4.73
   1  -4 -17   62.78    3.81
  -1   4 -17   69.68    4.12
   4  -1 -17   73.81    4.50
   1  -4 -17   68.51    5.00
   4  -1 -17   69.47    4.36
  -1   4 -17   61.29    4.79
  -1  -4  17   64.95    4.34
  -4   1 -19   34.98    3.43
  -1  -4  19   37.55    3.63
   1  -4 -19   41.49    3.36
  -1   4 -19   41.54    3.57
  -4  -1  19   41.04    3.06
  -1   4 -19   35.38    3.93
  -4  -1  19   33.49    3.83
   4  -1 -19   35.17    3.47
  -1  -4  21   16.40    3.00
   1  -4 -21   13.28    2.62
  -1   4 -21   17.02    2.90
  -4  -1  21   19.95    2.58
  -4  -1  21   17.79    3.42
  -1   4 -21   13.87    3.50
  -1   4 -23   11.73    3.49
  -4  -1  23   15.58    2.61
  -1  -4  23   17.23    3.41
  -4  -1  23   10.01    3.17
  -4  -1  25    5.69    3.26
  -1  -4  25    9.69    3.26
  -1   4 -25   10.41    3.55
  -1  -4  27    5.15    3.26
  -4  -1  27    6.35    3.47
  -1   4 -27    1.61    3.25
  -1   4 -29    1.26    3.23
   2  -4  28    3.13    3.47
   4   2 -26    6.68    3.87
   4  -2  26    4.97    3.47
   2   4 -26    2.72    3.46
  -4   2  26    4.05    3.27
   2  -4  26    6.44    3.37
   4  -2  24   12.21    3.46
   4   2 -24   13.10    4.09
  -4   2  24   13.12    3.21
   2   4 -24    8.19    3.61
   2  -4  24   13.59    3.41
   2   4 -22   14.26    3.64
   4   2 -22   14.43    3.85
   4  -2  22   13.75    3.33
  -4   2  22   14.94    3.19
   2  -4  22   16.92    3.18
  -4   2  22   16.91    3.11
   2   4 -20   19.86    3.67
   4  -2  20   17.76    3.28
  -4   2  20   14.09    2.75
   2  -4  20   14.07    2.87
  -2  -4 -18   52.04    3.92
   2   4 -18   46.28    4.07
  -4   2  18   59.09    4.14
  -4   2  18   50.62    3.79
   4  -2  18   52.36    4.23
  -2   4  18   58.87    4.73
   2  -4  18   49.73    3.84
   2   4 -18   51.25    4.84
   2  -4  18   59.84    4.56
   4  -2  18   54.88    3.83
  -4   2  16   91.37    4.86
   4  -2  16   90.51    4.62
   4  -2  16   73.07    4.69
  -2   4  16   87.55    5.34
   2   4 -16   91.50    5.21
   4   2 -16   88.05    5.22
  -4   2  16   86.04    4.57
   2  -4  16   90.74    5.36
   2  -4  16   86.52    4.50
   2  -4  14  106.66    4.84
   4   2 -14  114.45    5.78
   4  -2  14  110.77    5.41
  -4   2  14  101.73    4.84
  -4   2  14  114.50    5.20
   4  -2  14  117.04    5.16
  -2   4  14  112.47    5.81
   2   4 -14  122.88    5.74
   2  -4  14  120.68    5.94
  -4   2  12  164.76    6.25
   4  -2  12  166.29    6.20
   2  -4  12  165.80    5.80
   4  -2  12  163.44    6.42
  -4   2  12  153.48    5.77
   2   4 -12  181.88    6.88
  -2  -4 -12  153.56    4.83
  -2   4  12  172.21    5.60
   4   2 -12  167.53    6.97
   2  -4  12  171.25    7.04
   4  -2  10  179.19    6.54
  -2   4  10  184.24    5.60
  -4   2  10  188.16    6.10
   2  -4  10  190.08    5.88
  -4   2  10  178.28    6.42
   2   4 -10  178.12    6.78
   2  -4  10  175.45    7.20
  -2  -4 -10  172.47    5.17
   4  -2  10  179.00    6.44
   2   4 -10  183.91    7.51
   2  -4   8  267.86    7.21
  -2   4   8  262.43    7.06
  -4   2   8  257.04    7.43
   2   4  -8  255.05    8.85
  -2  -4  -8  272.74    6.98
  -4   2   8  281.49    8.18
   4  -2   8  273.02    8.26
  -4  -2  -8  258.45    7.96
   4  -2   8  261.07    8.11
  -2   4   6  342.96    8.11
  -4   2   6  321.75    8.44
   4  -2   6  318.52    9.29
  -2  -4  -6  329.68    8.24
   4  -2   6  339.00    9.30
  -4   2   6  318.79    9.09
   2   4  -6  331.88    9.97
  -4  -2  -6  318.82    9.06
   2  -4   6  312.97    7.96
   4   2  -4  293.74    8.26
  -4  -2  -4  280.58    8.06
   2   4  -4  292.77    8.78
  -2  -4  -4  303.79    8.24
  -2   4   4  293.48    6.97
  -4   2   4  297.99    8.27
   4  -2   4  299.01    8.23
   2  -4   4  293.62    6.90
  -2  -4  -4  297.24    7.58
   2  -4   4  300.26    9.22
  -4   2   4  296.01    7.44
   2  -4   2  301.47    7.09
   4   2  -2  301.75    8.55
  -4   2   2  308.59    7.74
   2  -4   2  304.02    9.36
  -2  -4  -2  299.66    8.10
  -2  -4  -2  297.15    7.06
  -4   2   2  302.02    8.57
   2   4  -2  297.71    8.78
  -4  -2  -2  296.40    8.41
  -2   4   2  298.35    7.11
   4  -2   2  294.97    8.42
  -2  -4  -2  295.71    8.12
  -2  -4   0  302.77    8.29
   2   4   0  288.84    6.84
   2  -4   0  293.93    6.87
  -2  -4   0  285.05    6.80
  -2   4   0  292.20    6.88
   4  -2   0  288.85    8.27
  -2  -4   0  290.99    7.65
   4   2   0  288.83    8.34
   2   4   0  290.67    8.29
  -4   2   0  302.41    7.55
   2  -4   0  270.69    8.94
  -4  -2   0  297.49    8.33
  -4   2   0  296.56    8.38
   2   4   2  310.07    8.23
  -4   2  -2  304.74    8.57
   2  -4  -2  305.64    9.66
   4  -2  -2  314.52    8.60
  -4  -2   2  313.87    9.49
  -2   4  -2  300.94    7.14
   2   4   2  298.54    7.12
  -2  -4   2  311.02    7.55
   4   2   2  292.12    8.46
  -2  -4   2  286.19    8.83
  -2  -4   2  288.66    7.00
  -4  -2   2  278.46    8.33
  -2  -4   2  295.75    8.60
   4   2   2  303.14    7.48
  -2  -4   4  288.77    8.76
   4  -2  -4  296.37    8.40
  -4  -2   4  283.42    9.16
  -2  -4   4  302.41    7.13
  -4   2  -4  287.98    8.38
  -4  -2   4  286.30    8.37
   4   2   4  293.83    8.41
   2   4   4  289.00    7.07
   2   4   4  309.00    8.42
  -2  -4   4  294.24    7.13
   2  -4  -4  295.23    9.48
   4   2   4  289.98    6.70
  -2  -4   4  296.81    8.77
   2  -4  -4  281.29    6.00
  -2  -4   6  324.18    9.62
  -4   2  -6  321.53    9.22
  -2  -4   6  323.72    8.08
   2  -4  -6  346.97   10.54
   2  -4  -6  321.25    7.30
   2   4   6  321.13    9.37
  -2   4  -6  321.21    7.53
   4   2   6  332.07    9.32
  -4  -2   6  315.83   10.02
   4  -2  -6  343.41   10.01
  -4  -2   6  333.66    9.30
  -2  -4   6  334.75    9.83
   2   4   6  335.86    8.07
  -2  -4   6  331.75    7.67
   2   4   8  263.26    8.47
   4  -2  -8  262.45    8.62
  -2   4  -8  270.31    6.81
   2  -4  -8  269.10    9.21
   2   4   8  271.23    7.19
  -2  -4   8  254.89    6.39
  -4  -2   8  270.07    8.94
  -2  -4   8  265.94    7.19
   2  -4  -8  264.94    6.62
  -4   2  -8  270.33    8.11
   4  -2  -8  277.74    7.69
  -4  -2   8  250.66    8.01
   4   2   8  266.86    8.17
  -2  -4   8  252.23    8.36
   4   2  10  168.27    6.43
   2   4  10  172.67    6.87
   4  -2 -10  184.72    6.14
   2  -4 -10  182.54    5.36
  -4  -2  10  189.94    6.70
  -2  -4  10  179.49    6.80
  -2   4 -10  189.56    5.59
   4  -2 -10  188.87    7.06
  -2  -4  10  171.88    5.61
   2  -4 -10  195.32    7.69
  -4  -2  10  174.04    7.10
   2   4  10  172.59    5.67
   2   4  12  159.43    5.64
  -2  -4  12  162.45    5.64
  -4   2 -12  172.99    5.76
   4   2  12  164.56    6.38
  -2   4 -12  162.64    5.49
  -4  -2  12  163.35    6.35
   2  -4 -12  168.03    5.41
  -2  -4  12  170.70    6.80
  -4  -2  12  145.16    6.64
   4  -2 -12  167.68    6.02
  -2   4 -12  168.73    7.24
   2   4  12  158.84    6.81
   4  -2 -12  172.62    6.80
  -4   2 -14  115.60    4.82
   4   2  14  112.32    5.35
  -4  -2  14  124.62    5.49
   2  -4 -14  111.05    4.52
  -2  -4  14  111.37    5.64
  -4  -2  14  107.71    5.72
  -2   4 -14  113.18    4.64
   4  -2 -14  106.23    5.43
   4  -2 -14  114.44    5.10
   2   4  14  110.66    4.78
   2   4  14  121.26    6.07
  -2   4 -14  108.09    5.99
   4  -2 -16   82.02    4.98
   4   2  16   77.32    4.60
  -4   2 -16   89.10    4.37
  -4  -2  16   88.39    4.98
  -2  -4  16   81.90    4.97
   2  -4 -16   82.16    4.09
  -2   4 -16   95.23    4.41
   2   4  16   82.62    5.36
   4  -2 -16   85.35    4.57
   2   4  16   79.70    4.30
  -2   4 -16   87.03    5.50
   2  -4 -18   50.22    3.46
  -4  -2  18   55.07    4.22
  -4   2 -18   49.20    3.66
  -2  -4  18   52.33    4.20
   4   2  18   45.28    3.85
   4   2  18   52.43    4.57
   4  -2 -18   46.39    4.03
   4  -2 -18   56.77    3.88
   2   4  18   49.53    3.66
  -2   4 -18   55.54    4.64
  -2   4 -18   56.73    3.74
   2   4  18   60.23    4.82
   4   2  20   16.99    2.92
   4  -2 -20   21.15    3.32
  -2  -4  20   19.81    2.27
   2  -4 -20   21.40    3.65
  -4   2 -20   13.84    2.74
   2   4  20   23.00    2.99
  -2  -4  20   14.56    3.11
  -4  -2  20   18.88    2.14
   2  -4 -20   17.66    2.65
  -2   4 -20   22.20    2.88
  -2   4 -20   12.45    3.07
   4  -2 -20   18.21    2.98
   4   2  22   10.00    2.89
  -2   4 -22   16.67    2.88
  -2   4 -22   16.29    3.57
  -2  -4  22   18.12    3.28
  -2  -4  22   15.09    2.34
   2   4  22    9.66    2.84
   2  -4 -22   12.97    2.72
   4   2  24   12.26    3.29
  -2   4 -24    8.72    3.18
   2   4  24   17.31    3.30
  -2  -4  24   17.33    3.81
   4   2  26    7.22    3.28
  -2   4 -26    4.93    3.25
   2   4  26    7.91    3.21
  -2  -4  26    6.44    3.22
  -2   4 -28    8.28    3.60
   2   4  28    3.79    3.43
  -2  -4  28    2.64    3.28
   3  -4  27    5.10    3.47
   4  -3  27    3.96    3.66
   3   4 -25    5.13    3.66
   4   3 -25    7.19    3.84
   3  -4  25    4.40    3.13
   4  -3  25    4.71    3.27
   3   4 -23   11.51    3.80
   4   3 -23    8.59    4.18
   4  -3  23    9.99    3.29
   3  -4  23   14.47    3.31
   4  -3  21   13.17    2.98
   3  -4  21   12.95    3.02
  -4   3  21   13.99    2.83
   4  -3  21   12.12    3.11
   3  -4  19   22.95    3.57
  -3   4  19   21.83    2.90
   4  -3  19   25.40    3.26
   3  -4  19   19.55    3.03
   4  -3  19   23.41    3.23
  -4   3  19   25.70    3.05
  -4   3  17   50.98    3.65
  -3   4  17   50.74    3.65
  -4   3  17   47.17    3.81
   4  -3  17   51.88    4.08
   3  -4  17   56.97    4.16
   4  -3  17   65.62    4.41
   3  -4  17   60.69    4.63
   4   3 -17   54.82    5.03
  -4   3  15   85.27    4.31
   4  -3  15   84.23    4.78
  -3   4  15   80.34    4.24
  -4   3  15   88.05    4.61
   3  -4  15   81.10    4.46
   4   3 -15   95.45    5.54
   4  -3  15   82.74    4.78
   3   4 -15   71.49    5.30
   3  -4  15   74.00    4.95
   3   4 -15   85.36    5.19
   4   3 -15   83.53    5.73
   3  -4  13   58.54    3.62
   4  -3  13   66.48    4.19
   4  -3  13   59.69    3.95
  -4   3  13   57.64    3.36
  -3   4  13   57.84    3.36
  -4   3  13   59.57    3.81
   3  -4  13   58.93    4.29
   3   4 -13   62.23    4.69
   4   3 -13   57.25    4.56
   4  -3  11   81.61    4.37
   3  -4  11   86.01    4.10
   3  -4  11   89.44    5.12
  -4   3  11   89.11    3.84
  -3   4  11   88.19    3.99
  -4   3  11   82.97    4.29
   4  -3  11   93.32    4.86
   3   4 -11   85.75    5.22
   4   3 -11   81.48    5.14
  -4   3   9  135.00    4.58
  -3   4   9  136.77    4.92
  -4   3   9  133.65    5.29
   3   4  -9  124.25    6.06
   4   3  -9  119.39    6.01
   3  -4   9  138.17    6.23
   4  -3   9  132.23    5.84
   4  -3   9  134.75    5.40
  -3  -4  -9  130.83    3.47
   3  -4   9  130.17    4.93
  -4   3   7  167.61    4.92
   3  -4   7  174.00    6.95
   4  -3   7  172.00    6.59
  -3  -4  -7  158.25    4.44
  -4   3   7  170.59    5.96
  -4  -3  -7  158.02    5.73
   4  -3   7  165.47    5.93
   3   4  -7  160.06    6.67
   4   3  -7  154.37    6.51
   3  -4   7  167.51    5.47
  -3   4   7  166.25    5.40
   3   4  -5  242.31    8.28
  -4   3   5  243.21    6.28
  -4   3   5  256.57    7.66
  -4  -3  -5  248.45    7.50
   4  -3   5  267.39    7.72
   3  -4   5  253.29    7.05
   4  -3   5  248.64    8.33
  -3   4   5  260.98    7.13
   4   3  -5  246.74    8.17
   4   3  -3  246.56    7.41
  -4   3   3  244.26    5.92
  -4  -3  -3  243.70    7.30
   3  -4   3  249.37    6.78
   3   4  -3  245.42    7.87
  -3  -4  -3  248.54    6.77
   4   3  -3  234.37    7.60
  -4   3   3  243.37    7.41
  -3   4   3  249.02    6.85
   4  -3   3  242.51    7.34
  -3   4   1  185.50    5.43
  -4  -3  -1  168.70    5.79
   3   4  -1  170.07    5.28
  -3  -4  -1  170.20    5.23
   4   3  -1  173.83    5.94
   3  -4   1  186.99    5.46
   4   3  -1  172.99    4.64
  -4   3   1  183.90    4.51
   4  -3   1  176.04    5.89
   3   4  -1  180.77    6.12
   4   3  -1  170.23    5.81
  -4   3   1  182.58    6.02
  -3  -4   1  172.95    5.31
  -4   3  -1  182.56    6.09
   3  -4  -1  182.28    5.41
  -3   4  -1  181.11    5.42
   4  -3  -1  187.11    6.07
   3   4   1  195.06    5.62
   4   3   1  179.32    6.02
  -4   3  -1  175.31    4.61
   3   4   1  185.40    5.52
   4   3   1  183.41    5.33
   4   3   1  179.68    5.58
  -4  -3   1  176.63    5.94
   3   4   1  174.21    5.77
   4  -3  -3  245.70    7.35
   3  -4  -3  252.36    8.84
   3   4   3  240.80    6.72
  -4   3  -3  250.99    7.43
   3   4   3  248.63    7.23
  -4  -3   3  246.21    8.55
  -3  -4   3  246.59    8.34
   4   3   3  239.53    7.35
  -4  -3   3  246.86    7.41
   4   3   3  232.96    6.21
  -3   4  -3  251.65    6.83
  -3  -4   3  237.44    6.73
   4   3   3  251.25    7.15
  -3  -4   5  223.69    8.18
  -4   3  -5  253.07    6.05
  -3   4  -5  230.68    5.25
  -4  -3   5  246.13    7.52
  -4  -3   5  247.03    8.66
  -4   3  -5  262.83    7.61
   3   4   5  266.45    7.80
  -3  -4   5  251.90    6.99
   4   3   5  240.08    7.45
   3   4   5  240.12    6.84
   4  -3  -5  259.07    8.82
   4   3   5  259.19    7.69
   3  -4  -5  245.25    8.88
  -4  -3   7  160.33    6.85
  -4   3  -7  164.62    4.72
  -3   4  -7  162.92    4.39
   3   4   7  156.40    6.10
  -3  -4   7  159.60    5.40
  -3  -4   7  157.94    6.63
  -4  -3   7  180.38    6.15
   4   3   7  165.84    5.95
   4  -3  -7  172.70    7.03
   4   3   7  157.00    6.05
  -4   3  -7  163.88    5.93
   3   4   7  159.95    5.36
   3  -4  -7  160.73    4.38
   3   4   9  142.47    5.91
  -4   3  -9  130.64    4.31
  -4  -3   9  119.42    5.16
  -3   4  -9  130.88    4.16
  -3  -4   9  129.73    4.88
   4   3   9  137.66    5.82
  -3  -4   9  127.69    5.93
   3  -4  -9  124.15    4.10
   4  -3  -9  124.08    4.57
  -4  -3   9  122.22    5.95
   4  -3  -9  129.58    6.16
   4   3   9  129.43    5.33
   3   4   9  133.19    4.92
   3   4  11   88.74    4.13
  -4   3 -11   80.51    3.52
  -3  -4  11   84.25    4.04
  -3   4 -11   82.51    3.48
  -4  -3  11   86.72    4.43
   4   3  11   83.71    4.78
  -4  -3  11   75.48    4.83
   3   4  11   82.87    4.88
   4  -3 -11   85.15    3.84
   4  -3 -11   81.46    5.02
  -3  -4  11   84.45    4.87
   3  -4 -11   82.96    3.48
   4   3  11   75.61    4.16
   4   3  13   55.65    3.74
  -4   3 -13   58.45    3.20
   3   4  13   61.40    3.67
  -3  -4  13   61.26    3.56
  -4  -3  13   61.41    3.95
  -3   4 -13   61.22    3.23
  -3  -4  13   54.86    4.13
  -4  -3  13   49.07    4.17
   3  -4 -13   62.00    3.26
   4  -3 -13   61.80    4.40
   3   4  13   58.82    4.31
   4   3  13   53.50    4.12
   4  -3 -13   63.44    3.48
   4  -3 -15   97.62    4.52
   4   3  15   90.12    5.44
   3  -4 -15   90.68    4.13
   4   3  15   76.04    4.50
  -3  -4  15   78.21    4.21
   3   4  15   72.18    4.95
  -4   3 -15   82.56    3.98
  -4  -3  15   82.22    4.56
   3   4  15   83.90    4.38
  -3   4 -15   87.98    4.08
  -3  -4  15   80.20    5.07
  -4  -3  15   72.06    4.91
   3  -4 -15   80.14    5.40
   4  -3 -15   86.37    5.32
  -3  -4  17   52.17    3.70
  -4  -3  17   56.73    4.07
  -4   3 -17   57.54    3.68
   4   3  17   46.20    3.83
  -3   4 -17   52.94    3.46
   3   4  17   53.38    4.54
  -3  -4  17   51.21    4.42
  -4  -3  17   53.48    4.58
   3   4  17   55.42    3.86
   3  -4 -17   56.13    3.62
   4   3  17   51.25    4.60
   4  -3 -17   58.22    4.59
  -3  -4  17   46.91    2.16
   4  -3 -17   57.04    3.77
   3  -4 -17   53.23    4.68
  -3   4 -19   22.14    2.83
  -4  -3  19   19.13    3.49
   3   4  19   20.13    2.87
  -3  -4  19   20.33    1.88
  -4   3 -19   25.91    2.98
   4   3  19   22.68    3.15
  -3  -4  19   25.86    3.79
   3  -4 -19   27.79    3.04
   3  -4 -19   25.44    3.81
   4  -3 -19   23.68    3.60
  -3  -4  19   25.02    3.18
  -3   4 -19   29.68    3.77
   4  -3 -19   23.24    3.07
  -4   3 -21   11.35    2.68
   3   4  21   12.16    2.65
   4  -3 -21   12.26    3.42
  -3  -4  21   12.62    3.41
   3  -4 -21   13.75    3.18
   3  -4 -21   10.89    2.72
   4   3  21   15.41    3.09
  -4  -3  21   12.65    3.29
  -3   4 -21   10.86    2.54
  -3   4 -21   19.78    3.73
   4  -3 -21   12.85    2.87
   3   4  23    9.42    2.94
   4  -3 -23   10.77    3.35
  -3  -4  23    6.32    3.21
  -4  -3  23    4.36    3.04
   4   3  23    8.70    3.07
  -3   4 -23    8.89    3.19
   3  -4 -23    9.76    3.44
  -3  -4  25   10.79    3.60
   3   4  25    8.41    3.09
  -4  -3  25   12.58    3.89
   4   3  25    6.51    3.26
  -3   4 -25    7.39    3.45
   3   4  27    3.11    3.14
  -3   4 -27    4.96    3.38
   4   3  27    1.98    3.12
  -3   4 -29    1.18    3.46
   4  -4  26   -1.35    3.33
   4  -4  24    8.16    3.30
   4  -4  22   12.77    3.31
   4   4 -20    3.85    3.27
   4  -4  20   12.91    3.12
   4   4 -18   28.71    4.29
   4  -4  18   26.63    3.35
   4  -4  16   47.69    3.88
  -4   4  16   52.36    3.82
   4  -4  16   62.56    4.80
   4   4 -16   51.40    4.99
   4  -4  14   58.08    4.07
  -4   4  14   63.11    3.95
   4  -4  14   60.98    4.54
   4   4 -14   59.63    5.01
   4  -4  12   86.34    5.24
  -4   4  12   95.09    4.53
   4   4 -12   80.30    5.45
   4  -4  12   87.38    4.61
   4  -4  10   89.79    5.16
   4  -4  10   94.75    4.60
  -4   4  10   91.56    4.43
   4   4 -10   88.56    5.45
  -4   4   8  124.10    5.06
   4  -4   8  137.68    6.27
   4  -4   8  122.61    5.16
   4   4  -8  127.01    6.17
   4  -4   6  190.64    7.67
   4  -4   6  214.15    6.75
  -4  -4  -6  193.10    6.42
  -4   4   6  198.83    6.58
   4   4  -6  200.59    7.60
   4  -4   4  137.86    5.12
  -4  -4  -4  133.50    5.01
   4  -4   4  140.78    6.43
   4   4  -4  130.90    5.73
  -4   4   4  145.56    5.28
   4   4  -2  123.86    4.90
  -4  -4  -2  128.48    4.80
   4  -4   2  139.76    5.02
   4   4  -2  122.41    5.22
  -4   4   2  134.04    4.93
  -4  -4   0  199.57    6.36
  -4   4   0  204.97    6.45
   4   4   0  208.38    6.57
   4  -4   0  211.11    6.54
   4   4   0  195.60    6.49
   4   4   0  199.19    5.56
   4  -4  -2  122.77    4.75
  -4   4  -2  122.17    4.76
   4   4   2  132.27    4.94
  -4  -4   2  127.38    6.14
   4   4   2  137.22    4.67
  -4  -4   2  120.97    4.73
   4   4   2  118.03    4.42
   4   4   4  145.04    5.29
  -4   4  -4  135.73    5.08
  -4  -4   4  122.03    6.11
  -4  -4   4  136.52    5.15
   4   4   4  134.12    5.12
  -4   4  -6  186.59    4.71
  -4  -4   6  183.63    6.36
   4   4   6  197.37    6.48
  -4   4  -6  186.15    6.33
  -4  -4   6  197.45    7.86
   4   4   8  136.16    5.34
  -4   4  -8  128.86    4.01
   4  -4  -8  135.95    6.64
  -4  -4   8  131.06    5.27
  -4  -4   8  120.69    6.15
   4   4   8  129.23    5.70
   4  -4 -10   94.76    3.75
  -4   4 -10   96.28    3.62
  -4  -4  10   95.28    4.57
  -4  -4  10   83.33    5.23
   4  -4 -10   93.51    5.71
   4   4  10   88.22    4.46
   4   4  10   92.90    5.03
   4  -4 -12   93.27    5.75
  -4   4 -12   92.30    3.84
  -4  -4  12   91.10    4.62
   4  -4 -12   85.70    3.90
  -4  -4  12   94.01    5.48
   4   4  12   88.96    5.22
   4   4  12   89.76    4.59
   4   4  14   57.99    4.66
   4   4  14   55.91    3.94
  -4   4 -14   58.09    3.35
  -4  -4  14   64.14    4.10
   4  -4 -14   65.28    5.09
  -4  -4  14   59.37    4.60
   4  -4 -14   59.63    3.46
   4   4  16   42.89    4.36
   4   4  16   46.66    3.80
  -4  -4  16   50.02    3.94
  -4   4 -16   49.34    3.38
  -4  -4  16   53.21    4.66
   4  -4 -16   55.49    4.82
   4  -4 -16   61.87    3.69
  -4   4 -18   31.55    3.06
   4   4  18   28.55    3.44
   4  -4 -18   30.92    3.14
  -4  -4  18   32.26    4.08
   4  -4 -18   23.21    3.79
   4  -4 -20   15.75    3.78
  -4  -4  20   11.80    3.39
  -4   4 -20   11.80    2.52
   4   4  20   16.67    3.06
   4  -4 -20   15.92    2.99
  -4  -4  22    5.47    3.30
   4  -4 -22   10.12    3.60
   4   4  22   12.05    3.12
  -4  -4  24   14.20    3.90
   4  -4 -24    9.72    3.57
   4   4  24    6.46    3.13
   4   4  26    3.43    3.17
   5   0   1  477.65   12.72
   5   0  -1  481.88   12.83
   0  -5  -1  479.64   13.03
   0  -5   1  495.25   12.93
   0  -5   1  472.42   11.34
   0  -5  -1  474.30   11.40
  -5   0   1  466.04   12.58
  -5   0   1  477.25   12.85
   0  -5   1  467.32   13.04
   0  -5  -1  504.99   13.09
  -5   0  -1  481.27   12.72
  -5   0  -3  330.81    9.85
   5   0  -3  341.24    9.98
   0  -5   3  345.31   10.37
  -5   0   3  344.02   10.12
   0  -5   3  327.72    8.63
   5   0   3  333.40    9.95
   0  -5   3  345.03    9.98
  -5   0   3  335.04    9.91
   0  -5  -3  341.48   10.31
   0  -5  -3  342.17   10.20
   0  -5  -5  241.11    7.86
   5   0  -5  236.98    7.87
   0  -5   5  215.74    4.75
  -5   0  -5  249.17    7.95
   0  -5   5  244.25    6.78
   0  -5  -5  241.87    8.26
   0  -5   5  258.16    8.51
  -5   0   5  238.47    7.79
   5   0   5  246.97    8.00
   0  -5   5  225.64    4.75
  -5   0   5  237.86    7.94
   5   0  -7  285.68    9.03
   5   0   7  283.36    9.01
   0  -5   7  281.96    7.94
  -5   0   7  290.40    9.18
  -5   0  -7  273.43    8.85
   0   5   7  282.86    6.45
   5   0  -7  281.50    7.95
  -5   0   7  289.20    8.99
   0  -5  -7  274.94    8.75
   0  -5   7  275.95    6.51
   0  -5  -7  269.79    9.28
   5   0   7  275.83    7.41
   0  -5   7  284.69    9.58
   0  -5  -9  232.15    8.75
   0   5   9  258.67    8.84
   0  -5   9  245.16    7.37
  -5   0   9  238.36    8.35
   0  -5   9  242.40    8.93
   5   0  -9  249.52    7.30
  -5   0  -9  258.83    8.42
   5   0   9  235.73    6.54
   5   0   9  242.57    8.36
  -5   0   9  252.33    8.28
  -5   0  11  150.53    6.23
   0   5 -11  140.18    6.83
   0  -5  11  133.56    5.36
  -5   0  11  143.10    6.26
   5   0 -11  146.73    5.31
   0   5  11  146.60    6.52
   0   5 -11  154.08    5.71
   0  -5 -11  140.14    6.71
   5   0  11  131.26    4.36
   0  -5  11  148.65    6.78
  -5   0 -11  150.87    6.23
   5   0  11  144.89    6.20
   5   0  13  114.58    5.64
   0  -5 -13  106.69    4.66
   0  -5  13   97.18    4.78
  -5   0  13  115.25    5.67
  -5   0  13  111.58    5.46
   0  -5 -13  111.97    6.08
   5   0 -13  114.07    4.73
   0   5  13  110.47    5.87
   0   5 -13  113.33    5.07
   0  -5  13  108.68    5.89
   5   0 -13  103.11    5.36
   0   5 -13  102.45    6.08
   5   0  13  104.01    3.73
   5   0  15   62.80    4.51
   0  -5 -15   70.58    3.88
   0  -5  15   67.06    4.11
  -5   0  15   61.04    4.24
  -5   0  15   68.40    4.59
   0  -5 -15   64.73    4.94
   0   5 -15   78.36    4.38
   5   0 -15   68.04    3.88
   5   0 -15   63.30    4.36
   0   5 -15   72.74    5.21
   0  -5  15   63.79    4.85
   5   0  17   47.43    4.08
   0  -5 -17   49.69    3.66
   0  -5  17   54.25    3.97
  -5   0  17   47.11    4.12
   0   5 -17   57.08    4.06
   0  -5 -17   47.29    4.41
   0   5 -17   53.83    4.89
   5   0 -17   42.43    3.91
   5   0  19   33.19    3.79
   0  -5 -19   35.84    3.41
  -5   0  19   35.23    3.94
   0  -5  19   30.07    3.26
   0   5 -19   36.60    3.66
   0   5 -19   28.31    4.14
   5   0  21   20.36    3.49
  -5   0  21   19.85    3.63
   0  -5  21   23.93    3.36
   0   5 -21   15.20    3.82
   0  -5  23   11.90    3.25
   5   0  23    9.54    3.13
  -5   0  23   16.46    3.59
   0   5 -23    6.74    3.38
   5   0  25    8.79    3.60
   0  -5  25    6.11    3.19
  -5   0  25    3.57    3.13
   0   5 -25    3.53    3.65
   0  -5  27    5.20    3.35
  -5   0  27    0.37    3.31
   0   5 -27    2.76    3.54
   1  -5  28    3.31    3.42
   5   1 -26    2.02    3.94
   5  -1  26    6.26    3.50
  -5   1  26    7.22    3.37
   1  -5  26    1.53    3.02
   1   5 -26    3.23    3.70
   1  -5  24    8.41    3.09
  -5   1  24   10.71    3.21
   5  -1  24   13.46    3.63
   1   5 -24    4.42    3.70
   1  -5  22   13.34    2.99
   1  -5  22   12.68    2.98
  -5   1  22    8.89    2.99
   5  -1  22   21.38    3.77
   1   5 -22   15.95    3.94
  -5   1  20   20.27    3.20
   1  -5  20   16.79    2.86
   5  -1  20   16.03    3.34
   1  -5  20   19.13    3.03
   1   5 -20   17.44    3.69
   1   5 -18   33.51    3.70
   1  -5  18   31.65    3.21
   5  -1  18   36.94    3.88
  -5   1  18   37.17    3.68
  -1  -5 -18   30.80    3.35
   1  -5  18   35.74    3.24
   1   5 -18   32.36    4.15
   5  -1  16   56.76    4.28
   1  -5  16   64.42    3.84
  -5   1  16   57.14    4.20
   1   5 -16   58.51    4.27
   5   1 -16   65.47    4.73
  -1  -5 -16   62.26    3.97
   1   5 -16   61.49    5.22
   1  -5  16   58.91    3.70
   5  -1  16   55.09    3.31
   5  -1  14   63.79    4.36
   1  -5  14   66.23    3.70
  -5   1  14   65.42    4.29
   5   1 -14   77.46    4.80
   1  -5  14   70.46    3.72
   1   5 -14   69.40    4.38
   5  -1  14   72.34    3.68
   1  -5  12  129.09    4.92
  -5   1  12  134.69    5.91
   5   1 -12  139.66    4.53
  -1  -5 -12  133.09    6.49
   1  -5  12  123.38    4.76
   1   5 -12  136.21    5.85
   5  -1  12  132.24    5.01
   5  -1  12  128.01    6.02
   5  -1  10  185.83    6.14
  -1   5  10  184.85    5.35
   1  -5  10  183.07    5.85
  -5   1  10  199.35    7.05
  -1  -5 -10  181.29    7.47
   5   1 -10  191.42    5.42
   1  -5  10  183.00    5.57
  -1  -5 -10  165.59    6.29
  -5  -1 -10  196.89    7.13
   1  -5  10  191.41    7.89
   5  -1  10  201.84    7.36
  -1   5   8  184.64    4.96
   1  -5   8  182.48    5.50
   1  -5   8  182.12    5.11
  -5   1   8  194.35    6.78
  -1  -5  -8  188.41    7.25
   5   1  -8  187.56    5.26
  -5  -1  -8  178.81    6.79
   5  -1   8  183.66    6.11
  -1  -5  -8  177.37    6.38
   1   5  -8  184.52    7.64
   5  -1   8  198.65    7.12
   1  -5   8  182.79    7.51
   1   5  -6  239.63    8.57
  -5  -1  -6  231.64    7.80
   1  -5   6  232.99    8.52
   1  -5   6  232.92    6.14
  -1   5   6  235.85    5.56
  -1  -5  -6  230.93    8.02
  -5   1   6  244.78    7.76
   5   1  -6  220.11    6.14
   5  -1   6  242.73    8.01
  -1  -5  -6  233.15    7.56
   1  -5   6  232.62    5.56
  -5  -1  -4  230.57    7.63
   1  -5   4  231.83    5.78
   1  -5   4  225.33    4.90
  -1  -5  -4  231.55    7.70
  -5   1   4  232.60    7.50
   5  -1   4  226.74    7.72
  -1  -5  -4  236.27    7.52
   1  -5   4  230.56    8.32
   1   5  -4  226.92    8.14
  -1   5   4  226.01    4.85
  -1  -5  -2  254.03    8.05
  -5  -1  -2  250.76    8.12
   1  -5   2  254.96    6.06
   5  -1   2  245.19    8.07
  -5   1   2  247.35    7.80
   1  -5   2  264.79    8.89
  -1  -5  -2  248.62    7.98
  -1  -5   0  304.64    8.89
   5  -1   0  320.21    9.35
   1  -5   0  309.60    7.06
  -1  -5   0  315.08    8.89
  -5   1   0  310.43    8.98
   1  -5   0  305.37    9.81
  -1  -5   0  296.02    9.18
   1  -5   0  287.85    9.67
  -5  -1   0  300.95    9.18
  -1  -5   2  243.02    7.54
   5  -1  -2  254.33    8.21
   1  -5  -2  240.94    8.36
  -1  -5   2  243.50    7.52
   1  -5  -2  245.63    6.04
  -5  -1   2  262.13    8.69
  -1  -5   2  248.80    8.21
  -5  -1   2  250.95    8.05
   1  -5  -2  241.84    8.55
   5  -1  -4  235.13    7.67
   1   5   4  210.26    4.69
   1  -5  -4  224.87    8.22
  -1  -5   4  223.50    6.91
  -5  -1   4  242.99    8.29
  -1  -5   4  221.47    7.08
   1  -5  -4  232.15    8.00
  -5  -1   4  240.64    7.74
  -1  -5   4  221.38    4.72
  -1  -5   4  225.30    7.82
  -1  -5   6  226.97    5.49
   5  -1  -6  246.32    7.89
   1  -5  -6  230.17    5.92
   5  -1  -6  243.20    7.96
  -5  -1   6  240.18    8.39
  -5  -1   6  230.32    7.75
   1   5   6  246.76    8.10
  -1  -5   6  224.13    7.04
  -1  -5   6  229.84    7.38
   1  -5  -6  244.50    8.74
  -1  -5   6  212.62    8.00
   1   5   6  219.43    5.38
   1   5   8  192.80    7.17
   1  -5  -8  188.85    5.35
  -1  -5   8  177.54    5.00
   1   5   8  177.72    4.97
  -1  -5   8  176.48    6.46
  -5  -1   8  196.11    7.49
  -5  -1   8  187.42    6.94
   5  -1  -8  188.33    6.66
   5   1   8  183.67    4.54
  -1  -5   8  185.45    7.41
   1  -5  -8  183.49    7.62
   1  -5 -10  184.77    7.79
  -1  -5  10  177.64    5.35
   1  -5 -10  192.89    5.73
  -1  -5  10  180.51    6.71
  -5  -1  10  196.00    7.63
  -5  -1  10  182.10    6.99
   1   5  10  186.67    5.45
   5  -1 -10  185.01    6.73
  -1   5 -10  187.65    6.05
  -1   5 -10  187.38    7.95
  -1  -5  10  182.13    7.51
   1   5  10  185.55    7.34
   1  -5 -12  134.74    4.87
   1   5  12  139.42    6.45
  -1  -5  12  130.60    5.73
  -5  -1  12  142.72    6.08
  -5  -1  12  137.34    6.36
   1  -5 -12  117.49    6.48
   5  -1 -12  125.38    5.49
  -1   5 -12  150.71    5.41
  -1   5 -12  125.96    6.60
   1   5  12  119.51    4.55
   5  -1 -12  134.05    5.86
  -1  -5  12  142.37    6.66
   1   5  14   67.01    3.49
   1  -5 -14   73.43    3.75
  -1  -5  14   68.09    4.29
  -5  -1  14   75.97    4.69
  -5  -1  14   68.87    4.73
   1  -5 -14   61.40    4.83
   5  -1 -14   67.57    4.08
  -1   5 -14   70.43    3.89
   5  -1 -14   69.25    4.42
  -1   5 -14   64.84    4.91
   1   5  14   78.75    5.06
  -5   1 -16   65.75    4.20
  -1   5 -16   55.61    4.83
   1  -5 -16   54.41    3.51
  -1  -5  16   50.17    3.99
  -1   5 -16   65.95    4.08
  -5  -1  16   59.27    4.58
   1  -5 -16   63.34    5.01
   5  -1 -16   64.19    4.14
   5  -1 -16   65.18    4.32
   1   5  16   57.88    3.50
   1   5  16   71.11    5.11
   5  -1 -18   29.85    3.57
  -5   1 -18   31.77    3.46
   1  -5 -18   34.30    3.14
   5  -1 -18   35.75    3.48
   1  -5 -18   28.61    3.92
  -1  -5  18   28.24    3.41
  -1   5 -18   31.80    3.36
  -5  -1  18   30.38    3.78
   1   5  18   28.36    2.84
  -1   5 -18   29.68    4.13
   1   5  20   15.07    2.60
   1  -5 -20   18.17    3.61
  -1  -5  20   15.22    3.09
   1  -5 -20   24.21    3.12
  -5  -1  20   17.83    3.48
  -1   5 -20   15.48    3.47
  -1   5 -20   15.38    2.97
  -5  -1  22   16.86    3.67
   1   5  22   10.46    2.77
  -1  -5  22   11.48    3.31
  -1   5 -22   13.52    3.57
   1   5  24    9.97    2.91
  -1  -5  24    9.92    3.37
  -5  -1  24   12.34    3.72
  -1   5 -24    7.08    3.69
   1   5  26    6.96    3.09
  -1  -5  26    7.84    3.44
  -5  -1  26    3.84    3.67
  -1   5 -26    4.77    3.59
   1   5  28    4.82    3.35
  -5   2  27    3.02    3.27
   2  -5  27    1.30    3.43
   2   5 -25   11.26    3.93
   5   2 -25    0.51    3.80
   2  -5  25    3.28    3.20
   5  -2  25   11.08    3.77
  -5   2  25    6.92    3.40
   2   5 -23   13.40    4.03
   2  -5  23   11.72    3.25
   5  -2  23    7.03    3.23
  -5   2  23   10.66    3.13
   2   5 -21   10.99    3.55
   5  -2  21   12.51    3.48
   2  -5  21   16.24    3.04
  -5   2  21   11.26    2.92
   5  -2  19   22.50    2.98
   5   2 -19   17.39    3.90
   5  -2  19   25.38    3.64
   2  -5  19   27.17    3.26
  -5   2  19   21.75    3.17
  -2   5  17   43.99    3.30
   5  -2  17   43.40    4.04
  -5   2  17   45.24    3.80
   2   5 -17   45.12    4.20
   2  -5  17   45.65    3.46
  -2  -5 -17   46.72    2.76
   5  -2  17   41.11    3.36
   5  -2  15   66.12    4.63
  -2   5  15   69.34    3.64
  -5   2  15   71.24    4.31
  -5   2  15   71.18    4.54
   2   5 -15   81.88    4.93
  -2  -5 -15   64.22    3.22
   5  -2  15   72.59    4.11
   2  -5  15   67.44    5.17
   2  -5  15   66.76    3.89
  -2   5  13   99.07    4.13
  -5   2  13   88.10    4.66
   2  -5  13   97.49    4.33
  -5   2  13   97.87    5.04
   2  -5  13  103.14    5.83
  -2  -5 -13   90.67    3.87
   2   5 -13   88.34    5.74
   5  -2  13  100.83    4.80
   5  -2  13   91.32    5.11
   2  -5  11  121.52    4.72
  -2   5  11  121.91    4.45
  -5   2  11  121.29    5.18
  -5   2  11  125.28    5.54
  -2  -5 -11  122.65    4.56
   5  -2  11  128.29    5.40
   2   5 -11  114.33    6.35
   5  -2  11  121.45    5.75
   2  -5   9  208.03    6.21
  -5   2   9  213.55    7.01
  -2   5   9  219.80    6.17
  -5   2   9  208.44    7.49
   5  -2   9  226.26    7.47
  -5  -2  -9  207.90    7.41
   2   5  -9  213.48    8.50
  -2  -5  -9  201.57    6.41
   5  -2   9  214.13    7.69
  -5  -2  -7  227.30    7.71
  -5   2   7  229.59    7.20
   5  -2   7  232.13    7.71
  -2   5   7  233.78    6.20
  -5   2   7  237.32    7.86
   5  -2   7  239.68    8.02
   2   5  -7  221.42    8.59
   2  -5   7  236.56    8.70
  -2  -5  -7  227.89    6.92
   2  -5   7  229.29    6.23
  -2  -5  -7  217.15    7.83
  -5  -2  -5  235.40    7.70
   5   2  -5  239.77    7.93
  -2  -5  -5  237.78    7.75
  -5   2   5  231.60    7.05
   5  -2   5  231.87    7.75
   2  -5   5  235.22    5.96
  -5   2   5  241.75    7.80
  -2   5   5  239.22    5.97
   2   5  -5  235.80    8.41
   2  -5   5  242.72    8.69
  -2  -5  -5  247.99    7.21
   5   2  -5  208.45    5.14
  -2   5   3  282.31    6.52
  -5  -2  -3  272.63    8.54
   5   2  -3  273.29    8.58
   2  -5   3  282.91    6.57
   2  -5   3  264.82    9.37
  -2  -5  -3  273.18    8.31
  -5   2   3  267.89    7.83
   5  -2   3  261.51    8.45
   2   5  -3  260.26    8.85
  -5   2   3  273.21    8.56
  -2  -5  -3  271.44    8.09
  -5  -2  -1  275.67    8.50
   5   2  -1  296.49    8.82
   5  -2   1  267.14    8.48
  -2   5   1  272.76    6.29
  -5   2   1  269.25    7.78
   2   5  -1  249.89    8.46
   2  -5   1  267.11    9.25
  -2  -5  -1  281.63    8.38
  -5   2   1  267.64    8.56
  -2  -5  -1  279.65    8.11
  -5   2  -1  272.48    8.52
  -2  -5   1  269.15    7.72
   5  -2  -1  288.43    8.71
   5   2   1  276.32    8.58
  -2  -5   1  269.15    6.28
  -2  -5   1  273.86    8.80
  -5   2  -1  264.08    7.73
   2  -5  -1  295.59    9.82
   2  -5  -1  271.21    9.24
  -2  -5   1  277.18    8.58
  -5  -2   1  251.12    8.30
   2  -5  -3  270.72    9.63
  -5   2  -3  279.88    8.67
   5  -2  -3  266.99    8.49
   2   5   3  287.10    6.58
   5   2   3  277.16    8.64
  -2  -5   3  267.04    8.75
  -5  -2   3  268.98    8.51
  -2  -5   3  269.84    7.50
  -2  -5   3  258.32    8.64
  -2  -5   3  266.76    6.40
   5  -2  -5  239.17    7.84
   2  -5  -5  218.34    5.06
  -5   2  -5  235.58    7.78
  -2  -5   5  243.89    6.62
   2  -5  -5  238.54    8.89
   2   5   5  235.50    5.94
   2   5   5  251.11    7.94
  -5  -2   5  235.67    7.81
  -2  -5   5  230.35    7.95
  -2  -5   5  232.27    5.92
   5   2   5  242.53    7.96
   5   2   5  235.23    5.67
  -2  -5   5  221.94    8.01
   5  -2  -7  241.09    8.37
   2  -5  -7  231.94    8.94
   2  -5  -7  235.53    5.64
  -2  -5   7  221.35    7.93
  -2  -5   7  223.04    6.30
  -5   2  -7  225.31    7.75
  -5  -2   7  227.93    7.79
  -2  -5   7  218.81    6.11
   2   5   7  237.12    8.01
   5   2   7  234.07    7.99
   2   5   7  227.91    6.13
  -2  -5   7  217.46    8.18
   2   5   9  199.21    5.94
   2  -5  -9  209.64    5.68
  -2  -5   9  215.61    6.18
  -2  -5   9  191.35    7.40
   2  -5  -9  213.45    8.62
   2   5   9  206.64    7.74
   5  -2  -9  206.73    7.77
  -2  -5   9  202.95    5.83
   5   2   9  210.46    7.61
  -2   5  -9  215.66    6.00
  -5   2  -9  206.32    7.42
  -5  -2   9  203.18    7.45
  -2  -5   9  208.15    7.96
  -2  -5  11  123.64    4.22
   2   5  11  124.43    4.58
  -2  -5  11  114.11    4.48
  -2   5 -11  119.34    4.50
   2  -5 -11  129.25    4.42
  -2  -5  11  114.81    5.67
  -5  -2  11  125.60    5.72
   2  -5 -11  129.50    6.72
   2   5  11  129.59    6.21
   5   2  11  124.20    5.76
   5  -2 -11  131.85    6.03
  -2  -5  13   97.77    4.19
   2  -5 -13  102.83    4.13
   2   5  13   92.91    4.21
  -2  -5  13   91.58    5.23
  -5  -2  13  101.54    5.28
   2   5  13   85.87    5.31
  -2   5 -13   97.71    4.28
   5  -2 -13   93.52    5.19
   5  -2 -13   99.74    4.89
  -5   2 -13  102.68    4.68
   2  -5 -13   87.19    5.73
   5   2  13   90.14    5.12
   5   2  15   70.29    4.72
  -2  -5  15   74.49    3.87
  -5   2 -15   78.88    4.29
   2  -5 -15   72.42    3.76
  -2  -5  15   71.26    4.80
  -5  -2  15   75.21    4.84
   2  -5 -15   76.10    5.59
   2   5  15   70.22    5.14
  -2   5 -15   76.39    5.45
   2   5  15   68.37    3.83
   5  -2 -15   81.92    4.91
  -2   5 -15   68.84    3.88
   5  -2 -15   73.83    4.43
  -2  -5  17   47.25    3.37
   5   2  17   36.79    3.83
   5  -2 -17   45.04    3.77
  -5   2 -17   48.26    3.66
  -2  -5  17   45.89    4.23
   2  -5 -17   50.91    3.45
   5  -2 -17   38.73    3.85
  -2   5 -17   45.56    3.56
  -2   5 -17   41.70    4.46
   2   5  17   48.53    3.46
   5  -2 -19   28.87    3.46
   2   5  19   22.22    2.92
  -5   2 -19   27.86    3.33
  -2  -5  19   25.18    3.52
   5   2  19   21.96    3.44
   2  -5 -19   24.39    2.99
   5  -2 -19   31.37    3.68
  -2   5 -19   26.82    3.24
  -2   5 -19   29.30    4.11
   2   5  21   11.24    2.77
   5   2  21   17.72    3.44
   5  -2 -21   11.06    2.85
  -2  -5  21   13.69    3.33
   2  -5 -21   16.31    2.76
  -2   5 -21   11.05    2.77
  -2   5 -21   16.80    3.90
   2   5  23    5.79    2.68
  -2  -5  23   10.82    3.48
   5   2  23    9.10    3.24
  -2   5 -23    7.95    3.37
  -2  -5  25    4.66    3.31
   2   5  25    5.75    3.15
   5   2  25    1.66    3.24
  -2   5 -25   12.79    4.01
   2   5  27    1.77    3.15
  -2   5 -27   -0.43    3.59
   3  -5  26   -0.63    3.10
   5  -3  24    6.78    3.49
  -5   3  24    6.93    3.08
   3  -5  24    5.81    2.99
   5  -3  22    6.67    3.29
   5   3 -22   11.74    4.19
  -5   3  22    8.07    3.14
   3  -5  22    9.09    3.02
   5   3 -20    7.94    3.59
   5  -3  20   10.88    2.86
   5  -3  20   14.27    3.35
  -5   3  20   20.70    3.08
   3  -5  20   12.73    3.05
   3   5 -18   24.18    4.04
  -3   5  18   24.68    3.08
   5  -3  18   28.41    3.42
   5   3 -18   29.23    4.63
  -5   3  18   30.71    3.39
   5  -3  18   25.36    3.59
   3  -5  18   25.37    3.13
   3   5 -16   35.32    4.27
   5  -3  16   51.69    4.17
  -5   3  16   54.46    3.73
   3  -5  16   48.70    3.69
  -3   5  16   50.80    3.53
   5  -3  16   48.47    4.00
   5   3 -16   42.74    4.78
   3  -5  14   52.79    3.59
  -5   3  14   52.51    3.59
  -3   5  14   61.97    3.55
   3   5 -14   55.35    5.06
  -3  -5 -14   59.87    2.13
  -5   3  14   58.04    4.12
   5   3 -14   49.55    4.82
   5  -3  14   58.45    4.16
   5  -3  14   57.47    4.23
   3  -5  12   79.39    4.07
  -5   3  12   81.81    4.03
   3   5 -12   68.46    5.13
  -3   5  12   85.06    3.99
  -5   3  12   87.83    4.68
   5  -3  12   79.14    4.68
   3  -5  12   74.10    5.19
  -3  -5 -12   75.95    2.79
   5  -3  12   76.24    4.72
   5   3 -12   79.07    5.48
  -5   3  10  110.37    4.47
  -3   5  10  112.53    4.42
  -5   3  10  104.22    5.09
   3   5 -10  100.92    5.86
   5  -3  10  102.84    5.39
   3  -5  10  105.90    5.92
   5  -3  10  103.25    5.26
  -3  -5 -10  102.45    3.60
   3  -5  10  118.10    4.66
   5   3 -10   97.14    5.77
  -5   3   8  143.03    5.89
  -5   3   8  132.48    4.79
  -3   5   8  137.51    4.86
   5  -3   8  132.80    5.80
   5  -3   8  132.91    5.94
   3  -5   8  129.47    4.85
  -5  -3  -8  133.23    5.67
   3  -5   8  142.96    6.67
   3   5  -8  130.47    6.47
  -3  -5  -8  144.08    4.55
   5   3  -8  125.37    6.22
   3   5  -6  194.99    7.83
  -5   3   6  201.33    5.96
   5  -3   6  195.42    7.10
  -5  -3  -6  199.34    7.03
   3  -5   6  198.82    6.09
  -5   3   6  210.25    7.18
   5  -3   6  205.72    7.66
  -3  -5  -6  203.29    6.14
   5   3  -6  200.42    7.63
  -3   5   6  209.94    6.13
   5   3  -4  186.48    6.82
  -5   3   4  196.33    5.62
  -5  -3  -4  180.42    6.64
   3  -5   4  184.28    5.66
   5  -3   4  186.30    6.79
   3   5  -4  171.44    7.14
  -5   3   4  205.20    7.02
  -3   5   4  198.98    5.77
   5   3  -4  198.37    7.13
  -3  -5  -4  196.12    6.20
  -3   5   2  209.79    5.85
  -5  -3  -2  199.44    6.96
   5   3  -2  202.21    7.12
   3  -5   2  210.78    5.92
   5   3  -2  186.80    4.94
   5  -3   2  204.72    7.12
  -3  -5  -2  222.45    5.96
   3  -5   2  211.30    8.26
   3   5  -2  192.87    7.25
   5   3  -2  205.01    6.96
  -5   3   2  213.10    7.18
  -3  -5  -2  213.95    6.82
  -5   3   2  211.75    5.80
  -5  -3   0  263.59    8.35
  -5   3   0  270.25    8.48
   3   5   0  263.28    7.06
   3  -5   0  274.55    7.15
   5   3   0  287.04    8.73
   5  -3   0  271.50    8.56
  -3  -5   0  260.60    7.01
  -3   5   0  273.41    7.10
   5   3   0  267.79    7.05
  -5   3   0  282.75    7.15
   3  -5   0  271.43    9.70
   3   5   0  259.09    8.36
   5   3   0  271.10    7.90
  -3  -5   0  281.95    8.41
  -3  -5   2  202.39    5.82
   3   5   2  218.74    6.75
  -5   3  -2  208.00    7.16
   5  -3  -2  210.37    7.18
   3   5   2  205.90    5.92
   5   3   2  201.96    7.15
   3  -5  -2  227.29    8.79
  -5   3  -2  203.69    5.88
  -3  -5   2  208.49    7.97
  -5  -3   2  200.38    8.18
  -3   5  -2  214.51    5.95
   5   3   2  201.86    6.07
  -5  -3   2  203.39    7.11
   5   3   2  210.43    6.38
  -3  -5   4  169.58    7.23
   5  -3  -4  196.29    6.86
  -3  -5   4  185.90    5.51
  -5   3  -4  184.77    6.71
   5   3   4  188.12    6.35
   3   5   4  182.71    5.58
   5   3   4  184.24    6.76
   3   5   4  189.83    6.53
   3  -5  -4  196.34    8.13
  -5  -3   4  178.12    7.70
  -5  -3   4  192.11    6.85
   5   3   4  181.56    4.93
   3  -5  -6  185.97    8.20
  -3  -5   6  194.46    7.75
   5   3   6  197.38    6.95
  -5  -3   6  194.99    8.14
  -5   3  -6  204.08    7.11
   5  -3  -6  211.71    8.16
   3   5   6  194.76    5.90
   5   3   6  192.13    7.09
   3   5   6  210.37    7.21
  -5  -3   6  197.58    7.10
  -3  -5   6  187.69    5.87
  -5   3  -8  143.61    4.69
  -5  -3   8  130.76    5.78
   5   3   8  135.28    5.89
  -3  -5   8  144.47    6.50
   3  -5  -8  142.57    7.09
   3   5   8  141.50    6.07
   3  -5  -8  127.41    3.66
   5  -3  -8  131.67    6.52
  -3   5  -8  131.41    3.83
  -5  -3   8  141.12    6.83
   5   3   8  139.47    5.93
   3   5   8  140.45    4.95
  -5   3  -8  139.00    5.84
  -3  -5   8  138.07    4.95
  -5   3 -10  111.27    4.29
   5   3  10  113.41    5.41
   5   3  10   99.90    5.34
  -3  -5  10  106.06    4.42
  -3  -5  10   94.16    5.42
   3  -5 -10  109.30    3.71
  -5  -3  10  101.96    5.92
   3  -5 -10  112.10    6.43
  -3   5 -10  103.86    3.77
  -5  -3  10  115.59    5.34
   3   5  10  106.26    5.53
   3   5  10  103.07    4.39
   5  -3 -10  109.19    5.89
  -5  -3  12   85.59    4.74
   3   5  12   76.98    3.96
  -5   3 -12   85.96    3.93
  -3  -5  12   86.29    4.24
  -3  -5  12   78.92    5.04
   5   3  12   73.99    4.90
   3  -5 -12   80.58    3.48
  -5  -3  12   85.52    5.41
  -3   5 -12   76.59    3.54
   3   5  12   80.57    5.12
   5  -3 -12   79.14    4.16
   5  -3 -12   81.10    5.24
   5   3  12   83.09    4.84
   3   5  14   53.53    3.52
  -5   3 -14   61.46    3.54
  -3  -5  14   54.42    3.55
  -3  -5  14   57.79    4.54
  -5  -3  14   50.39    3.94
   3  -5 -14   59.97    3.26
  -3   5 -14   55.28    3.27
   5  -3 -14   51.84    4.43
   3   5  14   55.86    4.64
   5   3  14   56.14    4.60
   5  -3 -14   50.59    3.58
  -5  -3  14   46.80    4.44
   5   3  14   55.45    4.10
   5   3  16   52.73    4.21
   3   5  16   44.69    3.47
  -5   3 -16   50.28    3.59
  -3  -5  16   47.50    3.52
  -3  -5  16   39.34    4.07
  -5  -3  16   41.44    4.29
   3  -5 -16   44.61    3.14
  -3   5 -16   50.04    3.39
   5  -3 -16   46.31    4.30
   5  -3 -16   45.04    3.76
  -3  -5  18   29.79    3.17
   5  -3 -18   28.86    3.35
  -5   3 -18   32.86    3.24
   3   5  18   31.24    3.24
   5   3  18   20.37    3.29
   3  -5 -18   17.86    3.64
   5  -3 -18   33.38    3.98
  -3  -5  18   27.97    3.81
  -5  -3  18   22.80    3.75
   3  -5 -18   27.43    2.93
  -3   5 -18   25.44    3.09
   5  -3 -20   13.57    2.96
   5   3  20   12.15    3.13
   3  -5 -20   11.69    3.75
   5  -3 -20   12.96    3.46
   3   5  20   12.75    2.72
  -5   3 -20   17.71    3.04
  -3  -5  20   11.69    3.31
  -5  -3  20   12.21    3.45
   3  -5 -20   13.24    2.76
  -3   5 -20   12.29    2.73
   5   3  22    5.38    3.05
   3  -5 -22   13.05    3.95
   5  -3 -22   11.33    3.37
  -3  -5  22   12.37    3.72
  -5  -3  22    4.50    3.30
   3   5  22    7.77    2.90
   3  -5 -24    7.45    3.71
   5   3  24    6.01    3.23
  -3  -5  24    5.55    3.42
  -5  -3  24   14.95    4.00
   3   5  24    5.14    2.96
   3   5  26    4.93    3.28
   4  -5  25    5.63    3.37
   5  -4  23    6.38    3.34
   4  -5  23    3.79    3.15
   4   5 -21    1.85    3.45
   5   4 -21    2.81    3.65
   5  -4  21    5.40    3.13
   4  -5  21    7.32    2.98
   4   5 -19   12.16    3.98
   5   4 -19    9.67    3.69
   5  -4  19   14.93    3.35
   4  -5  19   16.93    3.29
   4   5 -17   17.85    4.01
   5   4 -17   24.14    4.26
   5  -4  17   25.96    3.52
  -4   5  17   29.17    3.38
   4  -5  17   27.26    3.29
   4   5 -15   38.92    4.70
   5   4 -15   39.04    4.61
  -5   4  15   41.96    3.19
  -4   5  15   41.24    3.45
   5  -4  15   45.68    4.33
   5  -4  15   46.62    4.06
   4  -5  15   40.53    3.70
  -5   4  13   54.51    3.26
   5  -4  13   53.18    4.35
   4   5 -13   51.06    4.78
   5  -4  13   57.02    4.21
   5   4 -13   51.29    4.88
  -5   4  13   58.33    3.98
   4  -5  13   53.34    3.78
  -4   5  13   47.69    3.46
  -5   4  11   66.84    3.23
  -4   5  11   59.92    3.61
  -5   4  11   68.66    4.21
   5  -4  11   61.40    4.19
   5  -4  11   69.10    4.73
   4  -5  11   63.06    3.87
   4   5 -11   58.34    4.95
   5   4 -11   63.30    5.00
  -5   4   9   98.91    3.63
  -4   5   9   89.20    4.30
  -5   4   9   97.18    4.87
   5  -4   9   92.29    4.89
   4  -5   9   93.71    4.48
   5  -4   9   91.97    5.41
   4  -5   9   93.87    5.65
   4   5  -9   83.77    5.47
   5   4  -9   88.75    5.57
  -5   4   7  110.86    3.59
   5  -4   7  110.58    5.88
   4  -5   7  117.90    4.86
   5  -4   7  109.98    5.18
  -5   4   7  115.49    5.20
  -4   5   7  114.24    4.74
   4  -5   7  120.83    6.28
  -5  -4  -7  104.16    4.96
   4   5  -7  106.74    5.89
   5   4  -7  110.20    5.82
  -5   4   5  123.55    3.48
   4  -5   5  121.92    4.86
   5  -4   5  125.96    5.41
  -5  -4  -5  116.91    5.22
   5  -4   5  130.82    6.51
   4  -5   5  134.56    6.65
   4   5  -5  132.20    6.17
  -5   4   5  132.04    5.48
  -4   5   5  133.11    5.00
   5   4  -5  133.00    6.03
   5   4  -3  136.01    5.65
  -5   4   3  126.58    3.17
   4  -5   3  152.78    5.32
   5  -4   3  140.54    5.60
  -5  -4  -3  128.33    5.41
  -4  -5  -3  136.87    5.05
   4   5  -3  144.45    6.12
   5   4  -3  139.13    5.87
  -5   4   3  141.91    5.66
  -4   5   3  152.70    5.27
  -5   4   1  117.40    5.07
   4   5  -1  109.27    4.45
  -4   5   1  114.78    4.51
   5   4  -1  113.80    4.97
  -5  -4  -1  111.33    4.94
   4  -5   1  115.93    4.50
   5  -4   1  119.23    5.11
  -4  -5  -1  107.90    4.36
   5   4  -1   93.88    3.12
   5   4  -1  112.29    4.88
   4   5  -1  103.06    4.88
  -5  -4   1  110.53    4.94
   4  -5  -1  115.92    4.52
  -4  -5   1  102.42    4.29
   5  -4  -1  109.24    4.89
   4   5   1  113.92    4.52
  -5   4  -1  111.55    4.98
   5   4   1  100.69    4.84
  -4   5  -1  119.33    4.56
   5   4   1  106.54    3.99
  -4  -5   1  114.10    6.14
  -5  -4   1  113.49    6.23
   4   5   1  105.61    4.69
   5   4   1  106.22    4.38
   5  -4  -3  154.36    5.78
  -5   4  -3  127.84    3.21
  -4  -5   3  142.79    6.82
   4   5   3  148.49    5.25
   5   4   3  126.64    5.46
  -5   4  -3  125.16    3.29
   5   4   3  136.82    5.06
  -4   5  -3  139.23    5.04
   4  -5  -3  154.14    7.38
  -5  -4   3  142.30    6.97
   5   4   3  123.08    4.37
  -5  -4   3  136.30    5.52
   4   5   3  141.86    5.29
  -5   4  -3  150.57    5.79
  -4  -5   3  140.34    5.02
   5   4   5  117.98    5.28
  -5   4  -5  121.81    3.49
   5  -4  -5  139.99    6.91
   5   4   5  117.27    5.16
   4   5   5  128.05    4.91
   4   5   5  138.54    5.53
  -4  -5   5  115.07    6.27
  -5  -4   5  117.41    6.47
  -5   4  -5  134.45    5.51
  -5   4  -5  124.09    3.69
  -5  -4   5  130.32    5.49
  -4  -5   5  133.54    4.96
   4   5   7  102.31    4.54
  -5   4  -7  106.88    3.50
   5  -4  -7  112.52    6.29
   5   4   7  105.91    5.08
   4   5   7  120.55    5.47
  -4  -5   7   95.32    5.75
  -5  -4   7  111.14    6.20
   5   4   7  113.99    5.21
  -5  -4   7  104.07    5.00
  -4  -5   7  102.07    4.51
  -5   4  -7  109.20    5.06
  -5   4  -9   91.88    3.48
   5  -4  -9   88.23    5.73
   5   4   9   86.06    4.92
  -4   5  -9   82.02    2.87
  -4  -5   9   88.53    5.60
   4   5   9   88.28    5.04
  -4  -5   9   93.41    4.39
  -5  -4   9   88.03    4.70
   4   5   9   84.89    4.24
  -5  -4   9   90.58    5.64
   5   4   9   90.54    4.79
  -5   4 -11   65.07    3.19
  -4   5 -11   59.22    2.88
   5   4  11   61.25    4.48
  -4  -5  11   53.03    4.62
  -5  -4  11   58.80    4.90
   4   5  11   61.94    4.61
  -4  -5  11   65.46    3.94
   5  -4 -11   67.38    5.15
  -5  -4  11   67.24    4.29
   4  -5 -11   61.69    2.81
   5   4  11   73.14    4.50
   4   5  11   64.99    3.86
  -5   4 -13   58.92    3.26
  -4  -5  13   39.81    4.27
  -4   5 -13   50.90    3.01
  -5  -4  13   47.71    4.57
   5   4  13   45.33    4.22
  -4  -5  13   51.03    3.71
  -5  -4  13   52.51    4.07
   4  -5 -13   52.14    5.06
   4   5  13   53.09    4.47
   5  -4 -13   57.45    4.97
   4  -5 -13   54.74    3.00
   5  -4 -13   46.14    3.17
   5   4  13   56.00    4.10
   4   5  13   48.59    3.61
   5  -4 -15   39.52    4.36
  -5   4 -15   41.91    3.12
  -4  -5  15   35.30    3.42
  -4  -5  15   45.97    4.50
  -4   5 -15   38.13    2.94
   4  -5 -15   39.90    2.98
   4  -5 -15   36.62    4.43
   5  -4 -15   39.48    3.20
  -5  -4  15   32.56    4.10
   5   4  15   37.81    3.76
   4   5  15   39.23    3.50
   5  -4 -17   27.95    3.17
   4   5  17   31.96    3.37
   5   4  17   20.93    3.34
  -4  -5  17   24.50    3.22
   4  -5 -17   25.78    4.12
   5  -4 -17   26.72    3.90
  -5   4 -17   21.26    2.82
  -4  -5  17   31.06    4.01
  -5  -4  17   27.34    4.26
  -4   5 -17   27.09    2.98
   5   4  19    8.17    2.94
   4   5  19    7.02    2.72
   5  -4 -19   16.22    3.83
  -5   4 -19   14.46    2.70
  -4  -5  19   12.06    3.39
  -5  -4  19   16.23    3.58
  -4   5 -19   12.31    2.75
   4  -5 -19   10.27    3.44
   5   4  21    6.89    3.19
   4   5  21    5.41    2.83
   4  -5 -21    5.53    3.47
   5  -4 -21    4.71    3.31
  -4  -5  21    5.15    3.40
  -5  -4  21    9.15    3.61
  -4   5 -21    5.35    2.61
  -4  -5  23    3.47    3.61
   5   4  23    7.56    3.25
   4   5  23    2.47    3.05
   4  -5 -23    3.95    3.70
   5  -4 -23    2.82    3.47
   4   5  25    2.63    3.29
   5  -4 -25    0.41    3.56
   5  -5  22    4.20    3.30
   5   5 -20    8.89    3.89
   5  -5  20    7.37    3.17
   5  -5  18   12.85    3.20
   5   5 -18    7.90    3.93
   5   5 -16   19.23    4.00
   5  -5  16   24.64    3.39
   5   5 -14   27.44    4.28
   5  -5  14   31.66    3.62
  -5   5  12   43.63    3.60
   5  -5  12   43.83    3.69
   5   5 -12   41.33    4.57
   5  -5  10   60.06    4.10
  -5   5  10   54.97    3.90
   5  -5   8   73.49    4.30
  -5   5   8   78.92    4.37
   5   5  -8   65.70    4.97
   5  -5   6   74.99    4.27
   5   5  -6   72.08    4.87
  -5   5   6   78.01    4.21
  -5  -5  -6   78.06    4.18
   5  -5   4   84.97    4.30
  -5  -5  -4   78.42    4.20
  -5   5   4   88.76    4.45
   5   5  -2   83.01    4.42
  -5   5   2   90.75    4.48
   5  -5   2   92.16    4.45
   5   5  -2   80.55    4.59
  -5  -5  -2   86.57    4.33
   5   5   0   91.43    4.52
   5  -5   0   90.88    4.53
  -5   5   0   97.73    4.63
  -5  -5   0   91.62    4.43
  -5  -5   0   92.16    5.96
   5   5   0   91.64    4.45
   5  -5  -2   83.37    4.39
  -5  -5   2   87.08    4.26
   5   5   2   88.74    4.47
  -5   5  -2   85.62    4.37
   5   5   2   86.54    3.76
  -5  -5   2   82.46    5.65
   5   5   2   78.20    3.76
  -5  -5   4   87.14    5.76
   5   5   4   83.91    4.31
   5   5   4   79.53    4.11
  -5   5  -4   77.14    4.25
  -5  -5   4   75.67    4.12
  -5  -5   6   72.65    5.39
   5   5   6   79.80    4.28
   5   5   6   85.59    4.54
   5  -5  -6   74.32    5.51
  -5  -5   6   79.31    4.31
  -5   5  -6   75.57    4.17
   5   5   8   77.84    4.68
   5  -5  -8   73.26    5.55
   5   5   8   75.33    4.33
  -5  -5   8   71.78    4.21
  -5   5 -10   50.72    2.33
  -5  -5  10   54.45    4.91
   5   5  10   60.85    4.56
   5  -5 -10   49.70    4.81
   5   5  10   54.61    3.93
  -5  -5  10   50.54    3.89
  -5   5 -12   37.67    2.46
   5   5  12   33.96    3.92
  -5  -5  12   39.68    3.62
   5  -5 -12   42.34    4.61
   5   5  12   38.30    3.49
  -5  -5  12   35.68    4.35
  -5   5 -14   30.01    2.61
  -5  -5  14   32.13    3.58
   5  -5 -14   30.86    4.29
   5   5  14   34.37    3.59
  -5  -5  14   34.73    4.25
   5  -5 -16   20.08    3.99
  -5   5 -16   22.21    2.69
  -5  -5  16   21.18    3.92
   5   5  16   18.22    3.24
   5  -5 -18    9.09    3.54
  -5  -5  18    5.68    3.29
   5   5  18    9.59    3.02
   5   5  20    9.24    3.16
   5  -5 -20    3.45    3.36
  -5  -5  20    4.70    3.51
   5   5  22    5.15    3.00
   5   5  24    4.50    3.58
   6   0   0  276.17    9.13
   0  -6   0  259.84    8.99
   0  -6   0  262.03    7.48
  -6   0   0  262.81    9.12
   0  -6   0  264.08    9.20
  -6   0   0  256.02    8.81
  -6   0  -2  185.89    7.36
   6   0  -2  196.49    7.53
   6   0   2  210.42    7.71
   0  -6   2  204.53    6.21
   0  -6  -2  197.65    7.73
  -6   0   2  206.47    7.76
   0  -6  -2  186.15    6.16
   0  -6  -2  206.43    7.85
   0  -6   2  196.58    7.84
  -6   0   2  197.51    7.49
   0  -6   2  197.31    7.48
   0  -6   4  140.96    6.15
   6   0  -4  134.95    6.16
  -6   0  -4  143.17    6.24
   0  -6   4  134.42    4.90
   0  -6  -4  139.68    6.50
   6   0   4  142.48    6.31
  -6   0   4  150.42    6.46
   0  -6  -4  137.08    6.27
  -6   0   4  141.54    6.26
   0  -6   4  140.61    6.56
   6   0  -6  101.09    5.30
   6   0  -6  119.63    4.89
   0  -6   6  111.89    4.43
  -6   0  -6  101.63    5.42
   0  -6  -6  106.20    5.76
  -6   0   6  110.17    5.57
   0  -6   6  107.76    5.36
   6   0   6  111.79    5.55
  -6   0   6  102.24    5.31
   0  -6  -6   95.21    5.21
   0  -6   6  105.46    5.80
   0   6   8   88.95    2.54
   0  -6   8   87.68    2.62
   0  -6   8   90.74    2.62
   0   6   8   84.92    2.49
   0  -6   8   97.86    4.23
   0  -6  -8   78.13    5.12
  -6   0   8   98.83    5.27
   6   0  -8   94.49    4.22
  -6   0  -8   96.45    5.28
  -6   0   8   94.06    5.10
   6   0   8  102.93    5.32
   6   0   8   95.78    3.83
   0  -6  -8   91.67    4.92
   0  -6   8   95.45    5.67
   0  -6  10  101.20    4.53
  -6   0  10   93.51    5.31
   0  -6 -10   96.61    5.76
   6   0 -10  100.04    4.41
   0   6  10   88.51    3.14
   0  -6  10   95.66    3.36
  -6   0  10   99.85    5.37
   0  -6 -10   88.77    5.00
  -6   0 -10  103.94    5.50
   6   0  10   95.01    5.35
   6   0  10   96.90    3.72
   0  -6  10   97.46    5.81
   0  -6 -12   71.18    3.73
   0  -6  12   60.07    3.75
  -6   0  12   57.76    4.41
   0  -6 -12   60.11    4.82
   6   0 -12   63.25    3.55
   0  -6  12   59.41    2.95
   0   6  12   60.33    2.81
   6   0  12   58.57    4.40
   6   0  12   59.30    2.78
   0   6  12   67.04    4.87
   6   0 -14   40.06    3.07
   0  -6 -14   36.00    2.96
   0  -6  14   36.49    3.20
   0  -6 -14   31.00    3.93
   0   6 -14   39.39    3.48
   0  -6  14   31.78    2.61
  -6   0  14   32.60    3.61
   0   6  14   32.54    2.47
   6   0  14   40.30    3.90
   6   0  14   38.84    2.21
   0   6 -14   33.24    4.18
   0   6 -16   28.58    3.39
   0  -6 -16   32.64    3.21
   0  -6  16   28.73    3.17
   6   0 -16   29.44    2.88
   0  -6 -16   26.08    3.95
  -6   0  16   28.85    3.66
   6   0  16   33.47    3.78
   0   6 -16   34.90    4.51
   0   6 -18   33.74    3.68
   6   0  18   27.87    3.82
   0  -6 -18   24.86    3.96
   0  -6 -18   31.12    3.36
   0  -6  18   22.89    3.14
  -6   0  18   31.50    3.99
   0   6 -18   21.96    4.09
   6   0  20   20.70    3.82
   0  -6  20   16.09    3.14
  -6   0  20   14.50    3.52
   0   6 -20   15.00    3.87
   6   0  22   10.94    3.68
   0  -6  22    9.24    3.17
  -6   0  22   12.86    3.49
   0   6 -22   16.21    4.25
  -6   0  24    3.29    3.43
   0  -6  24    4.78    3.14
   0   6 -24    2.82    3.40
   0  -6  26    2.23    3.48
   1  -6  25    0.28    2.98
  -6   1  25    3.54    3.42
   6  -1  23    6.42    3.47
   1  -6  23    5.63    2.88
  -6   1  23    4.04    3.38
   1   6 -23    6.18    3.98
   1  -6  21   10.57    2.78
   6  -1  21    9.09    3.45
   1  -6  21    7.60    2.82
  -6   1  21   15.88    3.57
   1   6 -21   11.77    4.04
   6  -1  19   15.57    3.45
   1  -6  19   17.30    2.90
  -6   1  19   11.69    3.14
   1  -6  19   18.34    2.83
   1   6 -19    9.45    3.58
   1   6 -17   24.75    3.55
   6  -1  17   23.77    3.67
   6  -1  17   24.07    2.54
   1  -6  17   18.51    2.60
  -1  -6 -17   20.22    3.02
   1  -6  17   20.85    2.86
  -6   1  17   24.18    3.36
  -1   6  15   27.78    2.37
   1  -6  15   28.70    2.58
   1  -6  15   22.17    2.64
  -6   1  15   29.11    3.50
   6  -1  15   29.35    2.56
  -1  -6 -15   24.47    2.85
   6  -1  15   30.36    3.64
   6   1 -13   36.44    2.43
  -1   6  13   36.33    2.42
   1  -6  13   40.82    2.99
  -6   1  13   43.43    3.78
   1  -6  13   44.50    2.75
  -1  -6 -13   29.43    3.64
  -1  -6 -13   41.09    3.27
   6  -1  13   41.64    2.86
   6  -1  13   46.45    4.06
   1  -6  11   48.92    3.09
   1  -6  11   54.61    2.69
  -1   6  11   53.05    2.56
  -6   1  11   60.94    4.15
  -1  -6 -11   50.45    4.30
   6   1 -11   59.01    2.86
  -1  -6 -11   51.40    3.62
   1   6 -11   43.91    4.30
   6  -1  11   50.89    3.17
   6  -1  11   51.39    4.21
  -6  -1 -11   53.03    4.14
   1  -6   9   73.84    3.40
  -1   6   9   77.18    2.77
  -6   1   9   79.43    4.58
  -1  -6  -9   71.83    4.79
   6   1  -9   77.17    3.25
  -6  -1  -9   73.72    4.56
   1   6  -9   79.04    5.29
   6  -1   9   75.47    4.77
   6  -1   9   80.89    3.97
  -1  -6  -9   66.87    4.08
   1  -6   9   82.70    5.39
   1  -6   9   69.96    2.76
   1  -6   7   84.98    3.41
  -1  -6  -7   92.16    5.24
  -6   1   7   79.42    4.56
  -6  -1  -7   87.47    4.85
   6   1  -7   80.45    3.40
   1  -6   7   80.66    2.42
  -1   6   7   83.77    2.40
   6  -1   7   86.41    4.99
   6  -1   7   85.89    4.18
   1   6  -7   86.49    5.43
  -1  -6  -7   87.52    4.66
   1  -6   7   82.63    5.30
   1  -6   5   64.45    2.76
  -6  -1  -5   73.92    4.40
  -1  -6  -5   66.28    4.32
  -6   1   5   69.05    4.20
   6  -1   5   74.84    4.51
   6   1  -5   68.16    3.19
   1   6  -5   67.02    4.74
  -1  -6  -5   60.67    3.93
   1  -6   5   66.17    4.63
  -6  -1  -3   92.01    4.99
   1  -6   3   94.71    3.22
  -1  -6  -3   93.78    4.97
   6  -1   3   93.37    5.02
  -6   1   3   91.09    4.74
   1  -6   3  102.22    5.50
   1  -6   3   98.94    5.56
  -1  -6  -3   89.18    4.81
  -6  -1  -1  153.54    6.30
   1  -6   1  135.36    4.00
   6  -1   1  145.40    6.29
  -1  -6  -1  145.53    6.06
   1  -6   1  132.33    6.43
  -6   1   1  149.46    6.06
  -1  -6  -1  138.49    5.70
   1  -6   1  137.80    6.61
  -1  -6  -1  147.32    6.27
   6  -1  -1  140.26    6.25
   1  -6  -1  135.62    4.02
   1  -6  -1  134.70    6.46
  -1  -6   1  142.62    5.61
  -6  -1   1  150.39    6.69
  -6   1  -1  144.02    6.03
   1  -6  -1  140.51    6.48
  -1  -6   1  147.55    6.36
  -1  -6   1  123.39    5.58
  -6  -1   1  135.88    5.99
   6  -1  -3   96.88    5.06
  -1  -6   3   94.93    4.60
  -1  -6   3   98.00    4.57
   1  -6  -3   92.13    5.42
  -6  -1   3  104.07    5.61
   1  -6  -3   87.11    3.22
   1  -6  -3  103.48    5.43
  -6  -1   3   96.33    5.06
  -1  -6   3   95.83    5.23
   6  -1  -5   62.95    4.16
  -1  -6   5   63.45    3.75
   1  -6  -5   65.32    4.81
  -1  -6   5   63.58    3.74
  -6  -1   5   61.38    4.45
   1  -6  -5   61.62    4.41
  -6  -1   5   68.75    4.33
  -1  -6   5   69.44    4.55
   6  -1  -7   76.14    4.74
   1  -6  -7   81.56    3.18
  -1  -6   7   79.79    4.29
   1  -6  -7   89.93    5.50
  -6  -1   7   72.94    4.83
  -1  -6   7   81.15    4.16
   1   6   7   80.22    2.30
   6  -1  -7   85.98    4.61
  -1  -6   7   77.02    2.33
  -6  -1   7   79.38    4.71
   6   1   7   83.60    3.06
   1  -6  -7   87.44    5.10
  -1  -6   7   91.83    5.37
   1   6   9   81.45    5.02
   1  -6  -9   72.76    3.22
  -1  -6   9   74.97    2.77
  -1  -6   9   69.76    4.10
   1  -6  -9   79.06    5.30
  -6  -1   9   77.66    5.07
   6  -1  -9   75.69    4.30
  -1  -6   9   75.81    4.06
  -6  -1   9   70.26    4.58
   6   1   9   70.30    2.41
  -1  -6   9   62.79    4.69
   1   6   9   66.24    2.59
   1  -6 -11   52.56    2.94
   1   6  11   54.54    2.59
  -1  -6  11   55.15    2.70
   1  -6 -11   54.54    4.77
  -1  -6  11   55.50    3.78
  -6  -1  11   60.52    4.58
   6  -1 -11   55.06    3.78
  -6  -1  11   49.99    3.97
   1   6  11   56.15    4.42
  -1  -6  11   59.36    4.67
  -1  -6  13   37.84    2.58
   1  -6 -13   38.99    2.82
  -1  -6  13   37.06    3.41
   1   6  13   39.23    2.48
  -6  -1  13   39.26    4.03
   1  -6 -13   38.29    4.25
   6  -1 -13   44.05    3.45
  -1   6 -13   42.44    3.20
   1   6  13   38.83    4.01
  -1   6 -13   47.67    4.63
  -1   6 -15   28.70    2.99
   1  -6 -15   30.63    2.84
   1   6  15   24.34    2.35
   1  -6 -15   30.99    4.10
   6  -1 -15   28.64    3.12
  -1  -6  15   26.48    3.27
  -6  -1  15   23.77    3.60
  -1   6 -15   26.79    4.09
  -1   6 -17   17.52    2.90
   1   6  17   24.99    2.65
   1  -6 -17   14.28    3.59
   6  -1 -17   27.55    3.32
   1  -6 -17   21.93    2.65
  -1  -6  17   21.07    3.17
  -6  -1  17   20.62    3.61
  -1   6 -17   22.09    3.96
  -1   6 -19   14.98    3.02
   1  -6 -19   16.59    3.86
   6  -1 -19   13.55    2.86
  -1  -6  19   18.57    3.57
   1  -6 -19   20.65    2.97
  -6  -1  19   15.04    3.51
   1   6  19   14.72    2.57
  -1   6 -19   16.86    3.73
   1   6  21   11.26    2.68
  -1  -6  21   12.95    3.36
  -6  -1  21   10.72    3.46
  -1   6 -21    7.73    3.71
   1   6  23    3.46    2.56
  -1  -6  23   11.80    3.49
  -6  -1  23    5.64    3.44
  -1   6 -23    5.80    3.94
   1   6  25    3.54    2.73
  -1  -6  25    6.70    3.49
   1   6  27   -0.82    2.96
  -6   2  26    9.17    3.75
   2  -6  24    5.41    3.05
  -6   2  24    2.58    3.31
   6   2 -22    6.87    4.04
   2  -6  22   15.26    3.22
   6  -2  22    7.26    3.48
  -6   2  22    9.13    3.22
   6  -2  20   11.90    2.63
   6   2 -20   14.19    3.93
   6  -2  20   13.39    3.44
  -6   2  20   10.34    3.40
  -2   6  20    8.65    2.51
   2  -6  20    5.54    2.52
   6  -2  18   14.52    2.64
   6  -2  18   21.32    3.73
  -6   2  18   16.06    3.12
   2  -6  18   17.87    2.74
  -2   6  18   15.05    2.38
   6  -2  16   21.73    3.48
  -2   6  16   23.38    2.48
   6  -2  16   27.90    3.07
   2  -6  16   28.05    2.88
  -6   2  16   20.42    3.08
   2   6 -16   23.51    3.95
   6  -2  14   29.99    2.94
   2  -6  14   30.90    2.75
  -2   6  14   27.94    2.46
  -2  -6 -14   30.17    2.62
  -6   2  14   28.66    3.28
   6  -2  14   31.31    3.75
   2   6 -14   21.51    3.97
   2  -6  12   32.35    2.54
  -6   2  12   43.71    3.46
  -2   6  12   40.61    2.57
  -2  -6 -12   37.00    2.82
   6  -2  12   40.31    3.27
   6  -2  12   39.37    3.87
   2   6 -12   35.15    4.27
  -6   2  10   73.23    4.25
  -2   6  10   64.34    2.94
  -6   2  10   66.03    4.42
   6  -2  10   57.69    4.41
   2   6 -10   49.85    4.61
   6  -2  10   57.89    3.86
  -2  -6 -10   58.66    3.47
  -6  -2 -10   57.54    4.15
   2  -6  10   60.23    2.97
  -6   2   8   72.73    4.01
  -2  -6  -8   71.15    4.64
  -2   6   8   66.56    2.80
  -6  -2  -8   70.32    4.47
  -6   2   8   57.10    4.14
   6  -2   8   67.52    4.42
   2  -6   8   59.98    2.73
   6  -2   8   64.58    4.02
   2   6  -8   61.36    4.77
  -2  -6  -8   64.37    3.64
   2  -6   8   67.51    4.85
   6   2  -6   70.97    4.43
  -2  -6  -6   66.47    4.32
  -6   2   6   71.03    3.89
   2  -6   6   68.95    2.50
  -6  -2  -6   64.28    4.21
   6   2  -6   57.03    2.15
   6  -2   6   67.38    4.39
   6  -2   6   67.13    4.11
   2   6  -6   65.23    4.71
  -6   2   6   68.93    4.39
   2  -6   6   76.53    5.03
  -2  -6  -6   67.39    3.82
  -2   6   6   64.40    2.43
   2  -6   4   75.92    2.40
   6   2  -4   81.32    4.69
  -2   6   4   78.23    2.36
  -6  -2  -4   83.16    4.75
  -2  -6  -4   80.39    4.46
  -6   2   4   83.84    4.19
   6  -2   4   87.03    4.79
   2   6  -4   88.02    5.19
   2  -6   4   78.67    5.13
  -6   2   4   80.25    4.66
  -2  -6  -4   87.90    4.44
  -6  -2  -2   95.23    5.05
   6   2  -2   95.36    5.08
  -2  -6  -2  108.71    5.04
   6  -2   2   99.70    5.16
  -6   2   2  101.82    4.70
   2  -6   2  103.97    5.94
   2  -6   2  105.85    5.83
  -2  -6  -2  100.55    4.92
  -6   2   2  104.82    5.26
  -6  -2   0  117.19    5.57
  -6   2   0  104.54    5.38
   6   2   0  122.52    5.77
   6  -2   0  122.42    5.73
  -2  -6   0  111.43    4.94
   2  -6   0  118.34    6.34
  -6   2   0  122.88    5.10
  -2  -6   0  122.40    5.74
   2  -6   0  110.67    5.91
  -2  -6   0  122.41    5.54
  -6   2  -2  102.16    5.23
   6  -2  -2  110.74    5.38
  -2  -6   2  103.77    4.56
   6   2   2   98.99    5.22
   2  -6  -2  112.88    6.11
  -2  -6   2  101.52    5.25
  -6  -2   2  116.22    6.25
  -6   2  -2  104.76    4.72
   2  -6  -2   99.32    5.64
  -2  -6   2  100.57    5.29
  -6  -2   2  104.12    5.25
   2   6   4   77.61    2.32
   6  -2  -4   82.83    4.70
  -2  -6   4   80.96    2.38
  -6   2  -4   83.93    4.78
   6   2   4   86.52    4.87
   2  -6  -4   82.15    5.42
  -2  -6   4   80.96    4.78
  -6  -2   4   92.28    5.61
   2  -6  -4   81.51    5.19
  -2  -6   4   84.69    3.93
  -6  -2   4   77.65    4.61
  -2  -6   4   81.38    4.79
   6  -2  -6   66.03    4.31
  -2  -6   6   71.96    3.49
   2  -6  -6   62.96    1.99
   2   6   6   69.66    2.50
  -6   2  -6   65.93    4.33
  -2  -6   6   68.90    4.29
   2  -6  -6   62.46    4.78
  -6  -2   6   61.51    4.66
   6  -2  -6   68.53    4.55
   6   2   6   60.72    4.23
  -6  -2   6   67.65    4.33
  -2  -6   6   72.36    2.51
   6   2   6   62.48    2.34
  -2  -6   6   69.29    4.69
   2  -6  -8   66.77    2.51
  -2  -6   8   61.73    4.21
   2  -6  -8   69.44    5.14
  -2  -6   8   65.10    3.22
  -6  -2   8   64.21    4.81
   6  -2  -8   63.85    4.37
   2   6   8   67.97    4.54
  -2  -6   8   65.32    2.77
  -6   2  -8   66.94    4.51
  -6  -2   8   75.23    4.65
   2   6   8   65.07    2.74
   6   2   8   62.81    4.34
  -2  -6   8   67.03    4.69
   2  -6 -10   68.79    2.91
  -2  -6  10   61.72    3.03
  -6  -2  10   67.40    4.96
   2  -6 -10   58.43    4.92
   6  -2 -10   64.50    4.49
  -2  -6  10   64.58    3.17
   2   6  10   61.49    4.53
  -6  -2  10   66.92    4.50
  -2  -6  10   59.51    4.27
   6   2  10   61.54    4.43
  -6   2 -10   67.25    4.55
   2   6  10   58.40    2.86
  -2  -6  10   59.21    4.63
   2   6  12   37.02    2.52
   2  -6 -12   41.27    2.63
  -2  -6  12   34.20    2.64
  -2  -6  12   32.50    3.55
  -6  -2  12   42.71    4.20
   2  -6 -12   46.33    4.60
   6  -2 -12   36.02    3.59
  -2  -6  12   37.40    2.53
  -2   6 -12   35.89    2.69
   2   6  12   45.03    4.15
   6   2  12   36.03    3.74
  -2  -6  14   24.60    2.47
  -6   2 -14   33.59    3.29
   2   6  14   30.92    2.54
   2  -6 -14   24.86    2.42
  -2  -6  14   24.29    2.20
  -2   6 -14   29.16    2.76
   2  -6 -14   22.80    3.78
   6  -2 -14   32.85    3.47
  -2  -6  14   28.02    3.46
  -6  -2  14   27.40    3.82
   6   2  14   27.26    3.57
  -2  -6  16   25.37    2.69
  -2   6 -16   24.48    3.05
   2   6  16   26.26    2.64
   2  -6 -16   25.36    2.69
   2  -6 -16   28.08    4.29
   6  -2 -16   21.95    3.39
  -6   2 -16   27.23    3.31
  -2  -6  16   27.42    3.66
  -6  -2  16   22.86    3.74
   6   2  16   18.58    3.42
   6   2  18    8.63    3.04
   2  -6 -18   15.65    3.83
   6  -2 -18   20.01    3.39
  -2  -6  18   18.71    3.51
   2   6  18   17.10    2.66
  -6  -2  18   12.07    3.37
  -2   6 -18   17.63    2.93
   6   2  20    8.11    3.05
   2  -6 -20    6.45    3.71
   6  -2 -20    6.31    2.85
  -2  -6  20    7.36    3.11
  -6  -2  20    3.69    3.16
  -2   6 -20   10.09    3.60
   2   6  20    5.71    2.41
  -2   6 -20   10.86    2.78
   2   6  22    7.42    2.48
   6   2  22    0.98    3.07
   6  -2 -22    9.10    3.23
  -2  -6  22    6.74    3.35
  -6  -2  22   11.11    3.78
  -2   6 -22   10.87    4.08
   2   6  24    2.70    2.67
  -2  -6  24    6.40    3.41
   2   6  26    0.27    2.88
  -6   3  25    4.34    3.43
   3  -6  23    7.17    3.06
  -6   3  23    5.26    3.29
   6   3 -21   10.16    4.20
   6  -3  21    4.29    3.16
   3  -6  21    5.87    2.79
  -6   3  21    5.97    2.82
   3   6 -21    1.41    3.50
   6  -3  19   10.97    3.56
   6  -3  19   15.96    3.34
   6   3 -19   16.83    4.33
  -3   6  19   11.29    2.76
   3  -6  19   12.76    2.77
  -6   3  19   10.84    3.01
   3   6 -19   11.06    3.78
   6  -3  17   13.33    2.97
   6   3 -17   15.72    4.11
  -3   6  17   18.63    2.76
   3  -6  17   17.58    2.80
  -6   3  17   17.23    3.05
   6  -3  17   21.77    3.68
   3   6 -17   15.83    3.88
   6  -3  15   18.84    3.03
   6   3 -15   17.75    3.77
   3  -6  15   22.90    2.82
  -3   6  15   20.64    2.60
  -6   3  15   20.61    2.87
   6  -3  15   21.83    3.34
   3   6 -15   25.83    4.12
   6  -3  13   29.08    3.34
   6   3 -13   30.96    4.24
  -6   3  13   31.80    3.02
  -3   6  13   30.71    2.66
   6  -3  13   28.53    3.60
   3  -6  13   26.30    2.72
   3   6 -13   33.62    4.37
   6   3 -11   26.04    3.60
  -6   3  11   28.54    2.77
  -3   6  11   32.44    2.56
   6  -3  11   35.65    3.66
   3  -6  11   33.50    2.70
  -3  -6 -11   31.03    2.40
   3   6 -11   32.62    4.18
   6  -3  11   27.20    3.16
  -6   3   9   47.65    3.15
  -3   6   9   48.19    2.85
  -6   3   9   42.52    3.72
   6  -3   9   49.00    3.95
   3  -6   9   50.58    2.96
   6  -3   9   48.54    3.93
   3   6  -9   51.87    4.59
  -6  -3  -9   41.18    3.67
  -3  -6  -9   41.90    2.83
   6   3  -9   41.62    4.17
  -6   3   7   65.67    3.50
   3  -6   7   61.66    3.02
   6  -3   7   62.68    4.24
  -6  -3  -7   66.72    4.23
   6  -3   7   61.91    4.34
  -6   3   7   61.27    4.17
   3   6  -7   59.50    4.69
  -3   6   7   67.13    3.16
  -3  -6  -7   65.88    3.51
   6   3  -7   64.09    4.58
  -3   6   5   76.24    3.16
   6   3  -5   69.15    4.51
   3  -6   5   72.26    3.15
  -6   3   5   67.15    3.50
  -6  -3  -5   71.05    4.34
   6  -3   5   68.68    4.46
   6  -3   5   78.22    4.81
   3   6  -5   72.14    4.82
  -6   3   5   77.13    4.51
  -3  -6  -5   74.29    3.94
   6   3  -5   74.10    4.67
   3  -6   3   77.32    3.01
   6   3  -3   83.41    4.67
  -3   6   3   80.75    2.99
  -6  -3  -3   82.48    4.56
  -6   3   3   85.79    3.70
   6  -3   3   80.41    4.61
   3   6  -3   78.70    4.87
   3  -6   3   86.21    5.49
   6   3  -3   75.19    4.37
  -3  -6  -3   89.16    4.36
  -6   3   3   82.25    4.61
  -6   3   1  102.32    5.19
  -6  -3  -1   98.80    5.06
   6   3  -1  108.79    5.32
   6  -3   1  108.68    5.37
   6   3  -1   90.95    3.48
  -6   3   1   99.40    4.11
   3  -6   1  110.31    6.46
  -3   6   1  102.05    3.45
  -3  -6  -1  103.63    5.77
   3   6  -1   90.36    5.01
   3  -6   1   98.48    5.77
   6   3  -1   99.52    4.70
  -3  -6  -1  101.41    4.93
  -6  -3   1   95.35    5.08
  -6   3  -1  103.55    5.19
   6  -3  -1   99.95    5.09
   6   3   1  101.19    5.30
   6   3   1   92.19    3.99
  -6   3  -1  105.15    4.23
   3  -6  -1  112.60    6.44
  -3  -6   1  103.87    5.79
  -3  -6   1  101.71    3.48
   3  -6  -1  106.10    6.03
   6   3   1   99.39    4.31
  -3  -6   1  101.39    5.05
   3   6   3   78.51    3.07
   6  -3  -3   79.40    4.56
  -3  -6   3   82.74    3.13
  -6   3  -3   85.66    4.73
  -3  -6   3   85.25    3.65
   6   3   3   85.50    4.76
   3  -6  -3   79.58    5.55
  -3  -6   3   70.85    4.90
  -6   3  -3   77.07    3.70
   6   3   3   81.72    4.01
   3  -6  -3   80.32    5.42
   6   3   3   80.76    3.37
  -6  -3   3   74.95    4.52
  -3  -6   3   80.70    4.73
   6  -3  -5   64.15    4.26
   3   6   5   70.01    3.13
   6   3   5   68.13    4.06
  -3  -6   5   73.52    3.10
  -6   3  -5   64.52    4.22
   6   3   5   76.51    4.59
  -3  -6   5   60.83    4.53
   3  -6  -5   79.36    5.42
   6  -3  -5   71.37    5.05
   3   6   5   75.92    4.41
   6   3   5   63.73    2.26
  -6  -3   5   73.16    4.50
  -3  -6   5   75.71    3.06
   6   3   7   66.61    4.14
  -3  -6   7   66.42    2.63
   3   6   7   61.03    2.99
  -3  -6   7   57.98    4.49
   3  -6  -7   54.42    4.80
   6  -3  -7   58.37    4.60
   3   6   7   65.36    4.41
   6   3   7   57.80    4.20
  -6  -3   7   61.47    4.29
  -3  -6   7   61.07    2.98
  -6   3  -7   61.42    4.27
   6   3   9   41.06    3.66
  -3  -6   9   37.76    1.70
  -3  -6   9   44.13    4.01
   3  -6  -9   39.77    4.35
   6  -3  -9   45.16    4.10
   3   6   9   41.78    3.85
  -3  -6   9   42.83    2.77
   3   6   9   41.47    2.60
  -6  -3   9   44.47    3.78
   6   3   9   39.75    3.72
  -6   3  -9   41.27    3.73
  -6   3 -11   34.46    2.88
   3  -6 -11   31.78    1.94
  -3  -6  11   37.88    2.79
   6   3  11   33.00    3.74
   3  -6 -11   30.98    3.98
   6  -3 -11   29.47    3.60
   3   6  11   32.75    3.72
   6   3  11   32.13    3.57
   3   6  11   28.20    2.51
  -3  -6  11   27.36    3.48
  -6   3 -13   31.21    2.95
  -3  -6  13   28.86    2.64
   3  -6 -13   31.24    2.21
  -3   6 -13   25.55    2.38
   6   3  13   22.63    3.57
   3  -6 -13   20.12    3.66
   6  -3 -13   30.79    3.87
   6   3  13   19.74    3.21
  -3  -6  13   22.96    3.40
   3   6  13   25.29    2.58
   3   6  15   18.79    2.57
  -3  -6  15   23.64    2.84
   6  -3 -15   25.38    3.73
  -6   3 -15   18.63    2.79
  -3  -6  15   22.50    3.58
   6   3  15   24.85    3.58
  -3   6 -15   17.82    2.38
   3   6  17   15.25    2.55
   6  -3 -17   17.94    3.53
  -6   3 -17   12.44    2.74
  -3  -6  17   15.33    3.51
   6   3  17   21.49    3.58
  -3   6 -17   16.11    2.57
   6   3  19    7.85    3.25
   3   6  19   13.94    2.72
   6  -3 -19   11.89    3.32
  -3  -6  19   10.52    3.33
  -3   6 -19    7.70    2.67
   6   3  21   10.70    3.48
   3   6  21    8.15    2.71
   3  -6 -21   10.85    3.88
   6  -3 -21    6.64    3.31
  -3  -6  21    9.95    3.54
   6  -3 -23    4.70    3.24
   3   6  23    3.67    2.81
  -3  -6  23    4.83    3.50
   3   6  25    1.83    2.80
   4  -6  22    7.05    3.12
   6   4 -20    2.39    3.65
   4  -6  20    8.32    2.88
   6  -4  20    6.94    3.38
   4   6 -20    3.74    3.72
   4  -6  18    7.53    2.80
   6   4 -18    6.28    3.55
  -6   4  18   10.12    2.79
   6  -4  18    6.93    3.17
   4   6 -18    8.37    3.67
   6   4 -16    8.37    3.76
  -4   6  16   16.49    2.77
  -6   4  16   15.73    2.69
   6  -4  16   14.66    3.43
   4  -6  16   15.54    2.99
   4   6 -16    6.20    3.57
   6   4 -14   15.14    3.69
  -4   6  14   17.73    2.78
  -6   4  14   17.84    2.51
   6  -4  14   22.09    3.43
   4  -6  14   19.29    2.82
   4   6 -14   15.93    3.78
   6   4 -12   18.95    3.81
  -6   4  12   27.24    2.58
  -4   6  12   19.27    2.54
   6  -4  12   22.84    3.40
   4  -6  12   22.67    2.79
   4   6 -12   20.37    3.76
   6   4 -10   25.88    3.76
  -6   4  10   34.70    2.53
   6  -4  10   32.64    3.61
   4  -6  10   31.31    2.82
  -4   6  10   31.70    2.90
   4   6 -10   30.35    4.09
   6   4  -8   32.99    3.86
  -6   4   8   41.72    2.53
   4  -6   8   46.12    3.09
   6  -4   8   40.23    3.65
   6  -4   8   41.15    4.13
  -6   4   8   44.56    3.75
   4   6  -8   37.64    4.14
  -4   6   8   39.49    2.97
  -6  -4  -8   36.32    3.51
  -6   4   6   41.86    2.32
   4  -6   6   43.74    2.97
   6  -4   6   35.56    3.49
  -6  -4  -6   39.80    3.54
   6  -4   6   46.09    4.38
   4   6  -6   35.98    3.92
  -6   4   6   47.04    3.78
   6   4  -6   40.03    3.82
  -4   6   6   38.70    2.84
   6   4  -4   48.94    3.86
  -4   6   4   54.44    3.08
  -6   4   4   48.90    2.27
   4  -6   4   51.05    3.04
   6  -4   4   51.26    3.84
  -6  -4  -4   48.25    3.68
   6  -4   4   52.53    4.50
   4   6  -4   44.78    4.02
   6   4  -4   49.94    3.87
  -6   4   4   48.15    3.75
  -6   4   2   64.96    4.27
   4  -6   2   54.07    3.09
   6   4  -2   58.39    4.04
  -6   4   2   56.67    2.26
   6  -4   2   63.10    4.20
  -6  -4  -2   53.74    3.86
  -4   6   2   58.05    3.21
   4   6  -2   56.38    4.10
   6   4  -2   53.77    3.71
  -4  -6  -2   54.61    3.07
  -6  -4   0   57.41    3.90
  -6   4   0   60.10    4.06
   6   4   0   58.07    4.07
   6  -4   0   62.90    4.13
  -6   4   0   54.79    2.20
   6   4   0   52.97    2.48
  -4   6   0   53.91    3.03
  -4  -6   0   55.39    3.11
   4  -6   0   61.78    5.24
  -4  -6   0   58.69    4.91
  -6  -4   0   60.65    5.01
   4   6   0   56.78    3.91
   6   4   0   56.48    3.45
  -6  -4   2   60.72    4.13
   4   6   2   52.84    3.08
   6  -4  -2   54.94    3.95
   6   4   2   56.44    4.11
  -4  -6   2   58.27    3.16
  -6   4  -2   57.27    2.36
   6   4   2   56.49    3.08
   4  -6  -2   52.02    4.88
  -4  -6   2   52.66    4.67
  -6  -4   2   64.11    5.17
   6   4   2   54.02    2.96
  -4   6  -2   52.30    3.02
   6  -4  -4   45.87    3.73
  -4  -6   4   45.59    2.88
  -6   4  -4   49.03    2.20
   4   6   4   46.49    3.02
   6   4   4   46.87    3.77
   6   4   4   45.78    3.25
  -6   4  -4   48.85    3.88
  -6   4  -4   47.62    2.34
   4  -6  -4   51.56    4.72
  -4  -6   4   41.03    4.28
   4   6   4   49.70    3.45
   6  -4  -4   49.23    4.61
  -6  -4   4   51.82    4.79
   6   4   4   45.23    2.15
  -6  -4   4   48.45    3.77
  -6   4  -6   44.76    2.25
   4   6   6   39.32    2.82
   6   4   6   41.09    3.40
   6   4   6   39.37    3.52
   4  -6  -6   44.72    4.62
   4   6   6   42.64    3.57
   6  -4  -6   48.97    4.50
  -6   4  -6   38.58    2.40
  -6   4  -6   38.25    3.61
  -6  -4   6   34.22    3.48
  -4  -6   6   41.77    2.89
  -4  -6   6   37.02    3.95
  -6  -4   6   33.51    4.27
  -6   4  -8   40.04    2.40
   6   4   8   33.79    3.38
   4   6   8   38.66    2.91
  -6  -4   8   39.46    4.39
   4   6   8   36.71    3.67
   6   4   8   44.47    3.85
   4  -6  -8   36.08    4.49
   6  -4  -8   39.58    4.30
  -6  -4   8   37.78    3.70
  -4  -6   8   38.08    2.89
  -6   4  -8   40.16    3.60
  -4  -6   8   33.06    3.96
  -6   4 -10   28.52    2.49
   6   4  10   24.56    3.36
   4   6  10   33.04    2.81
   6   4  10   25.80    3.34
   6  -4 -10   32.80    3.99
   4   6  10   29.32    3.60
  -4  -6  10   34.76    2.95
  -4  -6  10   23.39    3.65
  -6  -4  10   25.47    4.15
  -4   6 -12   18.08    1.70
  -4  -6  12   22.49    2.84
   6   4  12   17.69    3.51
   6   4  12   15.68    3.21
   6  -4 -12   23.86    3.93
   4   6  12   18.28    2.59
   4   6  12   19.67    3.47
  -6   4 -12   17.60    2.26
  -4  -6  12   23.79    3.73
  -6  -4  12   21.35    3.88
   6  -4 -14   22.24    3.92
   6   4  14   19.27    3.38
  -6   4 -14   16.41    2.44
   4   6  14   18.59    2.76
  -4  -6  14   21.71    3.68
  -6  -4  14   20.70    3.87
  -4   6 -14   15.66    2.03
   4  -6 -16   14.81    3.86
   6  -4 -16   20.51    3.99
  -6   4 -16   15.04    2.61
   6   4  16   14.15    3.39
  -4  -6  16   14.81    3.61
  -6  -4  16   15.17    3.89
   4   6  16   18.01    2.80
   4   6  18    9.01    2.54
   4  -6 -18    3.53    3.32
   6  -4 -18    7.59    3.47
  -4  -6  18    9.48    3.56
  -6  -4  18    8.66    3.53
   6   4  18    7.94    3.18
   4   6  20    5.17    2.67
   4  -6 -20   14.69    4.36
   6  -4 -20    3.54    3.33
  -4  -6  20    4.50    3.31
   6   4  20    5.48    3.14
   6   4  22    3.80    3.24
   4   6  22    8.54    2.94
   6  -4 -22    3.21    3.40
   4   6  24    2.94    3.15
   6  -5  21    0.31    3.19
   6  -5  19    5.74    3.50
   5  -6  19    6.15    2.99
   5   6 -17   10.15    3.91
   6   5 -17   13.31    4.18
   6  -5  17    8.74    3.30
   5  -6  17    4.58    2.73
   5   6 -15    7.44    3.55
   6   5 -15    9.52    3.84
   6  -5  15   12.81    3.16
   5  -6  15    9.92    2.88
   6   5 -13   15.38    3.93
  -5   6  13   18.27    2.95
   5  -6  13   15.24    3.08
   6  -5  13   17.08    3.24
   5   6 -13    5.41    3.30
   6   5 -11   24.53    3.97
   5  -6  11   19.38    2.97
   6  -5  11   25.45    3.44
  -5   6  11   22.90    3.05
   5   6 -11   23.84    3.92
   6   5  -9   24.14    3.67
   6  -5   9   31.56    3.54
   5  -6   9   33.87    3.32
  -5   6   9   27.02    2.97
   5   6  -9   22.85    3.78
   6   5  -7   28.53    3.73
   5  -6   7   31.55    3.10
   6  -5   7   33.59    3.52
  -6  -5  -7   27.61    3.25
  -6   5   7   40.58    3.68
  -5   6   7   38.43    3.30
   5   6  -7   28.04    3.87
  -5   6   5   37.68    3.18
   5  -6   5   42.74    3.35
   6  -5   5   34.59    3.50
  -6  -5  -5   34.41    3.46
   5   6  -5   37.41    4.04
   6   5  -5   36.41    3.84
  -6   5   5   37.91    3.61
  -6   5   3   44.35    3.70
  -5   6   3   44.84    3.50
   5  -6   3   40.20    3.17
   6  -5   3   46.66    3.79
  -6  -5  -3   42.32    3.58
   5   6  -3   41.45    3.83
   6   5  -3   34.27    3.48
  -5  -6  -3   39.29    3.10
   5  -6   1   51.96    3.48
   6   5  -1   47.74    3.87
   6  -5   1   52.87    3.92
  -6   5   1   54.81    3.93
  -6  -5  -1   51.56    3.93
  -5   6   1   57.60    3.59
  -5  -6  -1   49.10    3.44
  -5  -6  -1   45.13    4.90
  -6  -5  -1   45.65    4.98
   5   6  -1   55.90    3.94
   6   5  -1   49.52    3.60
   5   6   1   46.16    3.37
   6  -5  -1   50.58    3.81
   6   5   1   49.37    3.92
  -6  -5   1   48.12    3.80
  -6   5  -1   56.74    4.06
  -5  -6   1   44.48    3.28
   6   5   1   44.67    2.34
   5  -6  -1   52.99    5.12
  -5   6  -1   52.41    3.49
  -5  -6   1   45.23    4.76
  -6  -5   1   48.98    4.98
   6   5   1   48.76    3.21
  -6  -5   3   32.59    4.36
  -6  -5   3   43.74    3.53
   5   6   3   48.76    3.40
  -5  -6   3   43.47    3.30
   6   5   3   40.41    3.63
   6   5   3   39.57    2.91
  -6   5  -3   44.15    3.72
  -5  -6   3   43.65    4.76
   6  -5  -3   35.28    4.46
  -5   6  -3   43.31    3.24
  -6  -5   5   31.60    4.34
  -5  -6   5   38.76    3.16
   5   6   5   37.67    3.17
   6   5   5   44.85    3.66
   6   5   5   37.24    3.19
   5   6   5   36.50    3.37
   6  -5  -5   39.32    4.54
  -6   5  -5   37.59    3.54
  -6  -5   5   36.04    3.53
  -5  -6   5   35.52    4.32
   5   6   7   37.24    3.34
   6   5   7   36.74    3.56
   6   5   7   29.08    3.29
   5   6   7   33.85    3.52
   6  -5  -7   34.53    4.33
  -5  -6   7   30.67    3.04
  -6  -5   7   33.19    3.51
  -6   5  -7   29.00    3.37
  -5  -6   7   34.54    4.48
  -6  -5   7   26.17    4.17
  -6   5  -9   19.65    1.46
   5   6   9   28.09    3.02
   6   5   9   25.18    3.29
  -6   5  -9   23.44    1.51
   6   5   9   28.31    3.55
   6  -5  -9   27.74    3.99
   5   6   9   28.38    3.62
  -5  -6   9   27.47    4.27
  -6  -5   9   26.53    4.17
   5   6  11   23.39    2.97
   6   5  11   14.81    3.08
   6   5  11   23.80    3.44
   5  -6 -11   24.38    4.21
   6  -5 -11   26.14    4.15
   5   6  11   29.82    3.84
  -6   5 -11   19.15    1.94
  -5  -6  11   25.67    4.13
  -6  -5  11   24.44    4.13
   5   6  13   14.68    2.85
   6   5  13   15.55    3.24
   5  -6 -13   13.56    4.04
   6  -5 -13   21.66    4.16
  -5  -6  13   12.27    3.67
  -6  -5  13   16.26    3.89
   5  -6 -15   12.22    3.83
   6  -5 -15   14.88    4.04
   6   5  15   12.70    3.26
   5   6  15    9.01    2.64
  -5  -6  15   14.04    3.68
  -6  -5  15   11.00    3.74
   5  -6 -17    4.89    3.57
   6  -5 -17    9.23    3.78
   6   5  17    5.36    3.09
   5   6  17    6.91    2.93
  -5  -6  17    7.04    3.86
   6  -5 -19    5.16    3.63
   6   5  19    7.87    3.29
   5   6  19    6.26    2.98
   6   5  21    6.04    3.36
   5   6  21    5.79    3.07
   5   6  23    2.76    3.24
   6   6 -16    7.06    3.67
   6  -6  16    3.87    3.00
   6   6 -14    8.67    3.96
   6  -6  14    7.40    2.99
   6   6 -12   10.75    3.78
   6  -6  12   14.64    3.26
   6  -6  10   13.29    3.13
   6   6 -10   10.32    3.34
   6  -6   8   26.95    3.34
   6   6  -8   22.71    3.97
   6  -6   6   23.09    3.26
  -6   6   6   21.39    3.11
   6   6  -6   20.85    3.57
   6  -6   4   27.90    3.21
  -6   6   4   32.20    3.49
   6   6  -4   25.23    3.57
  -6  -6  -2   28.72    4.57
   6   6  -2   38.19    3.62
  -6   6   2   33.03    3.53
  -6  -6   0   30.91    4.66
   6  -6   0   37.45    3.45
   6   6   0   32.42    3.46
   6   6   0   27.28    3.00
  -6  -6   2   23.06    4.42
   6   6   2   33.70    3.48
  -6   6  -2   28.98    3.45
  -6  -6   4   24.31    4.25
   6   6   4   27.05    3.15
  -6   6  -4   22.60    3.14
   6  -6  -4   32.78    4.66
   6   6   6   18.99    3.11
   6  -6  -6   21.85    4.15
  -6  -6   6   14.53    3.97
   6   6   8   20.51    3.20
   6  -6  -8   25.42    4.33
  -6  -6   8   21.31    4.18
   6   6  10   16.38    3.04
   6  -6 -10   13.55    4.25
  -6  -6  10   12.13    3.96
   6   6  12    9.46    2.92
   6  -6 -12   17.79    4.36
  -6  -6  12   15.04    4.03
   6   6  14    5.70    2.87
   6   6  16    4.41    3.09
   6   6  18    6.99    3.37
   6   6  20    0.56    3.29
   7   0  -1  146.13    6.84
   7   0   1  160.32    7.09
   0  -7   1  141.43    5.18
   0  -7  -1  147.46    6.89
   0  -7   1  129.12    6.46
   0  -7  -1  134.91    5.13
  -7   0   1  154.45    7.01
  -7   0  -1  157.03    7.12
   0  -7  -1  148.71    7.04
   0  -7   1  139.41    6.94
   7   0  -3   83.05    5.30
   0  -7   3   85.32    3.93
   7   0   3   95.40    5.51
   0  -7  -3   91.61    5.53
   0  -7   3   87.23    5.24
  -7   0   3   92.01    5.45
   0  -7  -3   82.36    4.01
   0  -7  -3   96.97    5.62
   0  -7   3   92.39    5.67
   7   0  -5   87.74    5.40
   0  -7   5   87.95    4.05
   0  -7  -5   77.82    5.24
   7   0   5   79.22    5.23
  -7   0   5   86.19    5.42
   0  -7   5   88.94    5.16
   7   0  -5   76.83    4.35
   0  -7  -5   88.72    5.36
   7   0  -7   85.13    5.38
   0  -7   7   79.88    4.03
   0  -7  -7   76.74    5.39
  -7   0   7   83.17    5.31
   7   0  -7   86.05    4.35
   7   0   7   85.97    5.47
   0  -7   7   88.22    5.19
   7   0   7   78.17    3.83
   0  -7  -7   81.92    5.09
   0  -7   9   71.57    4.00
   0  -7  -9   68.35    5.31
  -7   0   9   72.27    5.05
   7   0  -9   75.19    3.99
   0  -7   9   70.95    4.76
   7   0   9   75.23    5.10
   0  -7  -9   80.61    5.09
   7   0   9   74.64    3.51
   0   7  11   53.88    2.00
   0  -7  11   52.71    2.06
   0  -7 -11   55.48    3.41
   0  -7  11   61.50    3.89
   0   7  11   51.68    2.01
  -7   0  11   60.10    4.79
   0  -7 -11   56.39    5.05
   7   0 -11   60.07    3.59
   7   0  11   58.49    4.65
   0  -7 -11   62.46    4.60
   7   0  11   52.25    2.83
   0  -7 -13   34.24    3.03
   0   7  13   30.93    2.01
   0  -7  13   33.45    3.26
   0   7  13   34.42    2.06
   0  -7  13   33.60    2.14
   7   0 -13   35.68    3.00
   0  -7 -13   40.59    4.60
   7   0  13   40.14    4.22
   7   0  13   34.55    2.22
  -7   0  13   34.44    4.04
   0  -7 -13   34.32    3.80
   0   7  15   22.44    2.12
   0  -7 -15   20.24    3.98
   7   0 -15   25.40    2.89
   0  -7 -15   27.61    3.02
   0  -7  15   27.07    3.20
   7   0  15   22.69    3.74
  -7   0  15   32.56    4.06
   0  -7 -15   22.88    3.46
   7   0 -17   19.33    2.70
   0  -7 -17   15.48    3.70
   0   7  17   18.39    2.27
   0  -7  17   14.78    3.04
  -7   0  17   16.92    3.57
   7   0  17   18.83    3.68
   0   7 -17   11.91    3.88
   0   7  19    7.97    2.18
   0  -7  19   11.74    3.09
  -7   0  19   10.33    3.54
   7   0  19    9.99    3.57
   0   7 -19   13.80    4.25
   0   7  21    8.94    2.56
   0  -7  21    3.83    2.90
  -7   0  21    9.40    3.79
   0   7  23    5.75    2.82
   0  -7  23   10.77    3.51
  -7   1  22    7.65    3.69
   1  -7  20    5.16    2.68
  -7   1  20    2.65    3.28
   7  -1  20    6.74    3.54
   1  -7  18   11.59    2.81
  -7   1  18   15.74    3.78
   7  -1  18   14.26    3.56
  -1   7  16   15.90    2.19
   7  -1  16   15.50    2.28
   1  -7  16   16.99    2.76
   7  -1  16   13.39    3.45
  -7   1  16   18.85    3.45
   1  -7  14   25.41    2.22
   1  -7  14   28.75    2.92
  -1   7  14   24.07    2.14
  -1  -7 -14   22.54    3.91
   7  -1  14   30.35    3.94
   7  -1  14   25.82    2.72
  -7   1  14   31.36    3.84
   1   7 -14   26.72    4.43
  -1  -7 -14   19.79    2.99
   1  -7  12   40.64    2.94
  -7   1  12   40.33    4.06
  -1   7  12   34.19    2.07
   7   1 -12   39.91    2.51
  -1  -7 -12   36.21    4.26
   7  -1  12   43.20    4.24
  -1   7  12   38.68    2.06
  -1  -7 -12   37.79    3.56
   7  -1  12   37.39    2.94
   1  -7  12   38.71    2.17
   1   7 -12   35.72    4.59
   1  -7  10   59.95    3.33
  -1   7  10   47.96    1.76
  -7   1  10   63.87    4.67
  -1  -7 -10   60.44    4.81
   7   1 -10   61.20    2.96
   1  -7  10   51.91    1.91
  -1   7  10   57.05    1.92
   7  -1  10   55.07    4.68
   1   7 -10   62.46    5.19
   7  -1  10   62.25    3.65
  -1  -7 -10   58.40    4.22
   1  -7   8   70.79    3.28
  -1  -7  -8   64.73    4.91
  -7   1   8   68.73    4.69
   7   1  -8   65.66    3.20
   7  -1   8   71.97    5.02
   7  -1   8   66.32    3.84
  -1  -7  -8   71.68    4.53
   1  -7   6   58.65    2.80
  -1  -7  -6   49.91    4.27
  -7   1   6   59.85    4.29
   7  -1   6   55.17    4.45
   7   1  -6   53.07    3.00
   1  -7   6   54.56    4.71
  -1  -7  -6   54.04    4.12
   1  -7   4   67.72    2.80
  -1  -7  -4   72.30    4.72
   7  -1   4   67.76    4.81
  -7   1   4   72.06    4.58
   1  -7   4   74.60    5.22
  -1  -7  -4   75.05    4.77
   1  -7   2   85.31    3.02
   7  -1   2   82.63    5.25
  -1  -7  -2   84.04    5.03
   1  -7   2   77.09    5.31
  -7   1   2   86.44    5.01
  -1  -7  -2   79.89    4.59
  -1  -7  -2   89.71    5.21
   7  -1   0  104.10    5.68
   1  -7   0   81.93    3.01
  -1  -7   0   88.32    5.01
   1  -7   0   91.15    5.68
  -1  -7   0   94.99    4.81
  -7   1   0   97.35    5.24
  -7  -1   0   96.71    5.84
   1  -7   0   91.36    5.72
  -1  -7   0   82.28    5.24
   7  -1  -2   85.70    5.19
   1  -7  -2   75.59    2.95
  -1  -7   2   86.02    4.82
  -1  -7   2   80.30    4.43
   1  -7  -2   89.18    5.64
  -7  -1   2   78.14    5.39
  -7   1  -2   96.63    5.19
   1  -7  -2   92.65    5.70
  -1  -7   2   92.75    5.46
   7  -1  -4   69.79    4.78
  -1  -7   4   67.61    4.02
   1  -7  -4   72.45    5.32
  -1  -7   4   69.43    4.31
   1  -7  -4   65.08    2.79
  -7  -1   4   73.24    5.18
   1  -7  -4   68.34    4.98
  -1  -7   4   69.52    5.01
   7  -1  -6   50.34    4.32
   1  -7  -6   56.30    2.57
  -1  -7   6   52.78    3.68
   1  -7  -6   57.01    4.88
  -1  -7   6   57.53    3.83
  -7  -1   6   59.22    4.87
   7  -1  -6   56.74    3.99
   1  -7  -6   50.78    2.75
   1  -7  -6   55.82    4.55
   1  -7  -8   71.65    3.11
  -1  -7   8   59.90    4.06
   1  -7  -8   67.97    5.36
  -7  -1   8   78.10    5.30
  -1  -7   8   65.71    4.13
   7  -1  -8   75.08    4.51
   1  -7  -8   64.10    4.90
   7   1   8   63.76    2.75
   1   7  10   48.60    1.71
   1  -7 -10   56.86    3.09
  -1  -7  10   61.21    4.07
  -1  -7  10   51.12    1.85
  -7  -1  10   62.80    4.90
   1  -7 -10   52.95    4.87
   7  -1 -10   62.86    4.13
  -1  -7  10   53.31    3.76
   1   7  10   51.37    1.80
   1  -7 -10   58.94    4.86
   7   1  10   52.67    1.82
   1  -7 -12   39.81    2.86
  -1  -7  12   36.05    3.53
   7  -1 -12   37.70    3.44
  -1  -7  12   38.22    3.46
   1  -7 -12   38.45    4.69
  -1  -7  12   35.83    2.18
   1   7  12   34.96    2.01
  -7  -1  12   36.69    4.16
   1   7  14   21.19    2.00
   1  -7 -14   28.46    4.30
   7  -1 -14   29.12    3.13
  -1  -7  14   19.56    2.89
  -1  -7  14   28.84    3.38
  -7  -1  14   24.44    3.79
   1  -7 -16   15.90    3.80
   7  -1 -16   17.45    2.86
   1   7  16   17.69    2.21
  -1  -7  16   16.32    3.21
  -7  -1  16   12.95    3.58
  -1   7 -18   15.41    3.10
   1  -7 -18   13.04    3.77
   7  -1 -18    9.84    2.81
  -1  -7  18   11.74    3.15
   1   7  18   10.29    2.15
  -7  -1  18   20.69    4.10
  -1   7 -18   13.95    3.93
   1   7  20    6.85    2.34
   7  -1 -20    8.93    2.88
   1  -7 -20    2.26    3.35
  -1  -7  20    6.26    3.24
  -7  -1  20    6.74    3.67
  -1   7 -20    8.40    3.86
   1   7  22    2.70    2.28
  -1  -7  22   10.35    3.49
  -1  -7  24    9.51    3.44
  -7   2  23    3.31    3.59
  -7   2  21    5.70    3.38
  -7   2  19    8.37    3.27
   7  -2  19   11.09    3.62
   2   7 -19    3.79    3.70
  -7   2  17   15.23    3.40
   7  -2  17   14.97    3.68
   2   7 -17   10.81    3.87
   7  -2  15   20.50    2.94
  -2   7  15   24.62    2.48
   7  -2  15   23.81    3.91
  -7   2  15   29.22    3.64
   2   7 -15   21.31    4.29
   7  -2  13   31.04    3.18
  -2   7  13   28.37    2.40
   7  -2  13   23.14    3.84
   2  -7  13   28.18    2.31
   2   7 -13   25.81    4.36
  -7   2  11   50.43    4.02
  -2   7  11   45.13    2.45
   2  -7  11   37.46    2.33
   7  -2  11   51.23    4.61
   7  -2  11   44.06    3.65
  -2  -7 -11   48.04    3.50
   2   7 -11   35.50    4.56
  -7   2   9   69.46    4.39
  -2  -7  -9   48.15    4.46
   2  -7   9   54.79    2.23
   7  -2   9   55.63    4.63
   2   7  -9   59.46    5.17
   7  -2   9   47.85    3.79
  -2  -7  -9   52.82    3.80
  -2   7   9   59.34    2.29
  -7   2   7   66.93    4.25
  -2  -7  -7   60.45    4.63
   7   2  -7   57.57    2.03
   7  -2   7   72.46    4.95
   2   7  -7   63.11    5.11
   7  -2   7   67.80    4.34
  -2  -7  -7   69.89    4.26
   7   2  -5   73.11    4.89
  -2  -7  -5   71.52    4.69
  -7   2   5   68.10    4.21
   7  -2   5   71.42    4.88
   7   2  -5   57.60    2.54
   2  -7   5   66.89    5.36
  -2  -7  -5   75.19    4.55
   7   2  -3   68.17    4.79
   7  -2   3   65.00    4.75
  -2  -7  -3   70.22    4.49
  -7   2   3   67.59    4.23
   2  -7   3   64.12    5.27
  -2  -7  -3   63.97    4.75
  -2  -7  -3   65.41    4.44
   7   2  -1   83.93    5.38
   7  -2   1   90.04    5.47
  -2  -7  -1   90.27    4.94
  -7   2   1   84.54    4.69
   2  -7   1   85.19    5.87
  -2  -7  -1  100.06    5.59
  -7  -2  -1  102.28    6.32
  -2  -7  -1   94.78    5.24
   7  -2  -1   83.32    5.23
   7   2   1   93.99    5.52
  -2  -7   1   95.58    4.86
   2  -7  -1   90.32    6.00
  -2  -7   1   89.67    5.19
  -7   2  -1   89.60    4.76
  -7  -2   1   89.56    5.99
  -2  -7   1   91.61    5.35
   7  -2  -3   64.21    4.57
   7   2   3   56.90    4.52
  -2  -7   3   62.51    3.87
  -2  -7   3   56.30    4.33
   2  -7  -3   67.30    5.24
  -7  -2   3   74.04    5.48
  -7   2  -3   73.81    4.38
  -2  -7   3   64.58    4.74
   7  -2  -5   77.61    5.00
  -2  -7   5   76.38    4.05
   7   2   5   71.73    4.92
  -2  -7   5   69.61    4.60
   2  -7  -5   69.49    5.42
  -7  -2   5   70.04    5.38
   7  -2  -5   68.95    4.79
  -2  -7   5   63.69    4.87
   7   2   5   65.12    2.99
  -2  -7   7   71.05    4.58
  -2  -7   7   67.33    3.71
   2  -7  -7   69.61    5.52
  -7  -2   7   64.60    5.23
   7   2   7   72.04    4.95
   7  -2  -7   69.29    4.86
   2   7   9   55.37    2.22
  -2  -7   9   51.75    4.13
   2  -7  -9   57.75    5.26
  -7  -2   9   59.95    5.14
  -2  -7   9   52.78    3.27
   7  -2  -9   50.85    4.38
   7   2   9   54.36    4.55
  -2  -7  11   51.71    4.11
  -7  -2  11   49.83    4.83
  -2  -7  11   40.23    2.90
   7  -2 -11   39.79    3.99
   2  -7 -11   47.28    4.90
   2   7  11   40.70    2.38
   7   2  11   51.28    4.72
  -2  -7  13   26.08    2.46
   2  -7 -13   27.23    4.27
   7  -2 -13   24.49    3.50
   7   2  13   31.86    4.17
   2   7  13   29.18    2.28
  -2  -7  13   23.08    3.57
  -7  -2  13   24.51    3.96
   2   7  15   20.82    2.35
   2  -7 -15   23.81    4.42
   7  -2 -15   22.14    3.44
   7   2  15   16.12    3.55
  -2  -7  15   23.79    3.61
  -7  -2  15   18.98    3.89
   2   7  17   12.38    2.21
   2  -7 -17   19.13    4.21
   7  -2 -17   11.70    3.01
   7   2  17   18.44    3.67
  -2  -7  17    8.80    3.26
  -7  -2  17   10.99    3.54
   2   7  19    6.08    2.24
   2  -7 -19    5.96    3.82
   7  -2 -19    9.77    3.14
  -2  -7  19    7.68    3.28
  -7  -2  19    9.39    3.89
   7   2  19   11.01    3.58
   2   7  21    3.97    2.29
   7  -2 -21    6.66    3.02
  -2  -7  21    7.70    3.68
  -7   3  24    3.43    3.49
  -7   3  22    4.40    3.30
  -7   3  20    6.08    2.96
   7   3 -18   10.10    4.22
  -7   3  18   10.15    3.14
   7  -3  18    6.40    3.52
   3   7 -18    5.16    3.74
   7   3 -16   17.23    4.36
   7  -3  16   15.02    3.67
  -7   3  16   16.79    3.14
   3   7 -16   15.59    4.24
   7  -3  14   23.65    3.51
   7   3 -14   18.07    4.11
   7  -3  14   22.41    3.88
  -7   3  14   23.65    3.30
   3   7 -14   21.05    4.26
   7   3 -12   31.28    4.47
   7  -3  12   24.95    3.82
  -3   7  12   25.92    2.52
  -7   3  12   31.76    3.33
   3   7 -12   31.05    4.61
   7  -3  12   28.92    3.51
  -7   3  10   42.17    3.43
   3  -7  10   38.03    2.53
   7  -3  10   42.18    4.27
   7  -3  10   38.36    3.82
  -3   7  10   42.66    2.69
   7   3 -10   44.92    4.79
   3   7 -10   40.04    4.68
  -7   3   8   54.77    3.56
   3  -7   8   51.21    2.68
   7  -3   8   51.16    4.40
   3   7  -8   41.85    4.46
   7  -3   8   55.00    4.43
   7   3  -8   51.66    4.62
  -3   7   8   56.41    2.73
   3  -7   6   54.18    2.39
  -3   7   6   54.55    2.36
  -7   3   6   54.92    3.52
   7  -3   6   52.14    4.37
   7  -3   6   52.91    4.43
  -3  -7  -6   54.56    3.90
   7   3  -6   58.95    4.59
   3   7  -6   40.69    4.44
   7   3  -4   61.23    4.66
  -7   3   4   70.23    3.85
   7  -3   4   67.06    4.82
   3   7  -4   65.17    4.98
  -3   7   4   61.77    2.22
  -3  -7  -4   70.03    4.44
   7   3  -4   62.33    4.46
   7   3  -2   71.45    4.86
   7  -3   2   80.09    5.14
   7   3  -2   63.21    2.68
  -7   3   2   78.00    4.00
   3  -7   2   77.51    6.00
  -3  -7  -2   73.22    5.47
   7   3  -2   72.95    4.40
  -3  -7  -2   85.76    4.90
   7   3   0   67.93    4.80
   7  -3   0   79.62    4.99
   7   3   0   71.24    3.41
  -7   3   0   82.52    4.09
   3  -7   0   75.73    5.93
  -3  -7   0   70.77    5.34
   7   3   0   73.26    4.08
  -3  -7   0   74.50    4.87
   7  -3  -2   72.81    4.84
   7   3   2   78.78    5.09
  -3  -7   2   72.24    4.03
   7   3   2   71.81    3.79
   3  -7  -2   87.35    6.16
  -7   3  -2   74.50    3.95
  -3  -7   2   75.04    5.31
   7   3   2   61.86    3.44
  -3  -7   2   66.47    4.70
   7  -3  -4   66.00    4.77
   7   3   4   60.83    3.88
  -3  -7   4   72.67    3.67
   7   3   4   69.84    4.85
  -3  -7   4   54.38    4.74
   3  -7  -4   67.20    5.61
   7  -3  -4   71.77    5.14
  -7   3  -4   70.31    3.83
   7   3   4   60.22    2.72
   3   7   6   53.09    2.34
   7   3   6   56.05    3.99
  -3  -7   6   53.37    2.99
   7   3   6   56.23    4.52
  -3  -7   6   56.88    4.77
   3  -7  -6   59.97    5.37
  -7  -3   6   51.53    5.13
   7  -3  -6   53.93    4.72
   3   7   8   54.66    2.74
   7   3   8   40.44    3.96
  -3  -7   8   51.09    4.62
   3  -7  -8   50.41    5.21
  -7  -3   8   59.59    5.32
   7   3   8   54.28    4.61
   7  -3  -8   49.00    4.55
   7   3  10   42.35    4.26
  -3  -7  10   40.10    4.26
   3   7  10   37.88    2.63
   7  -3 -10   47.37    4.54
   7   3  10   43.67    4.27
   3  -7 -10   38.90    4.80
  -7  -3  10   39.18    4.62
   7   3  12   25.87    3.84
   3   7  12   26.83    2.50
   3  -7 -12   31.65    4.65
   7  -3 -12   26.21    3.88
  -7   3 -12   29.59    3.23
  -3  -7  12   31.06    3.92
  -7  -3  12   23.76    4.20
   3  -7 -14   19.41    4.20
   7  -3 -14   29.42    4.17
   7   3  14   20.08    3.65
  -7   3 -14   28.26    3.32
   3   7  14   20.27    2.47
  -3  -7  14   20.35    3.82
  -7  -3  14   19.92    4.20
   3  -7 -16   16.17    4.32
   7  -3 -16   12.33    3.42
   7   3  16   15.39    3.63
  -7   3 -16   18.43    3.19
  -3  -7  16   13.70    3.57
   3   7  16   19.00    2.58
  -7  -3  16   17.67    4.09
   3   7  18    8.75    2.36
   7  -3 -18    9.10    3.56
   7   3  18   12.12    3.66
  -3  -7  18   10.30    3.71
   3   7  20    5.97    2.48
   7  -3 -20    8.30    3.41
  -3  -7  20    3.93    3.47
   7  -3 -22    1.05    3.21
   7  -3 -24    2.13    3.52
   7   4 -17   11.77    4.14
  -7   4  17    8.05    2.61
   7  -4  17   13.66    3.90
   4   7 -17    3.69    3.72
   7   4 -15   16.53    4.40
   7  -4  15   14.09    3.71
  -7   4  15   15.51    2.79
   4   7 -15   18.84    4.44
   7   4 -13   18.51    4.37
   7  -4  13   19.68    3.75
  -7   4  13   18.81    2.87
   4   7 -13   17.87    4.05
   7   4 -11   20.33    4.11
   7  -4  11   22.08    3.79
  -7   4  11   20.61    2.62
   4   7 -11   23.88    4.21
   7   4  -9   26.91    4.09
  -7   4   9   29.77    2.67
   7  -4   9   29.98    3.83
  -4   7   9   31.54    2.79
   4   7  -9   27.95    4.38
   7   4  -7   32.99    3.99
  -4   7   7   40.36    2.89
  -7   4   7   35.83    2.55
   7  -4   7   33.38    3.86
   4   7  -7   27.53    4.14
   4  -7   5   36.27    2.61
  -7   4   5   42.00    2.57
  -4   7   5   41.13    2.70
   7  -4   5   42.00    4.05
   4   7  -5   42.10    4.32
   7   4  -5   36.33    3.95
  -4  -7  -3   36.29    4.68
   7   4  -3   37.24    3.90
  -7   4   3   43.38    2.42
   7  -4   3   38.42    3.89
  -4   7   3   36.87    2.45
   7   4  -3   39.47    3.66
   4   7  -3   32.13    3.83
  -4  -7  -1   37.38    4.64
  -7  -4  -1   42.46    5.01
   7   4  -1   42.56    4.05
   7  -4   1   46.52    4.08
  -7   4   1   43.84    2.46
   4  -7   1   57.10    5.61
   7   4  -1   41.78    3.34
  -7  -4   1   40.54    4.98
   7  -4  -1   46.45    3.97
   7   4   1   40.35    4.05
  -7   4  -1   45.15    2.53
   7   4   1   35.74    2.40
  -4  -7   1   48.57    4.99
   4  -7  -1   46.20    5.16
   7   4   1   40.72    2.93
  -4  -7   3   30.77    4.39
  -7  -4   3   37.97    4.76
   7  -4  -3   40.84    3.90
   7   4   3   39.46    3.98
   7   4   3   31.45    2.74
  -7   4  -3   35.84    2.40
   7  -4  -3   46.91    4.88
   4  -7  -3   34.01    4.54
   7   4   3   34.69    2.19
  -7   4  -5   39.94    2.50
   4   7   5   35.88    2.57
   7   4   5   35.62    3.93
   7   4   5   40.84    3.39
  -7   4  -5   38.80    2.62
   4  -7  -5   42.90    4.86
   7  -4  -5   41.97    4.50
  -4  -7   5   39.50    4.66
  -7   4  -7   34.36    2.54
   4   7   7   31.96    2.71
   7   4   7   35.25    3.98
   7   4   7   29.88    3.37
  -7   4  -7   34.87    2.68
   4  -7  -7   34.14    4.77
   7  -4  -7   38.75    4.48
  -4  -7   7   30.19    4.24
  -7   4  -9   28.51    2.56
   4   7   9   30.83    2.79
   7   4   9   24.62    3.69
   7   4   9   28.60    3.70
   4  -7  -9   32.80    4.76
   7  -4  -9   34.94    4.39
   4   7   9   31.19    4.13
  -4  -7   9   26.44    4.12
   4   7  11   24.49    2.62
   7   4  11   24.92    3.75
   7   4  11   23.13    3.62
   4  -7 -11   23.03    4.38
   7  -4 -11   26.44    4.16
  -4  -7  11   18.96    3.77
   4   7  13   13.55    2.49
   7   4  13   13.84    3.56
   4  -7 -13   12.98    3.91
   7  -4 -13   22.51    4.03
  -4  -7  13   12.08    3.54
   7   4  15   16.10    3.65
   4   7  15   11.26    2.48
   7  -4 -15   20.20    4.11
  -4  -7  15   13.89    3.79
   7  -4 -17    9.98    3.84
   7   4  17   11.81    3.69
   4   7  17    9.52    2.63
  -4  -7  17   14.60    3.93
   7  -4 -19    6.24    3.76
   7   5 -16    2.22    3.94
   7  -5  16    5.03    3.58
   7   5 -14   14.93    4.15
   7  -5  14    9.41    3.56
   5   7 -14   10.34    4.10
   7   5 -12   16.16    4.14
   7  -5  12   16.09    3.75
   5   7 -12    8.97    3.86
   7   5 -10   21.59    4.10
   7  -5  10   17.50    3.63
   5   7 -10   20.35    4.13
   7   5  -8   21.90    3.88
   7  -5   8   23.24    3.60
   5   7  -8   24.98    4.36
   7   5  -6   22.02    3.63
   7  -5   6   25.00    3.67
   5   7  -6   18.54    3.79
   7   5  -4   21.97    3.28
   7  -5   4   29.23    3.69
   5   7  -4   22.58    3.63
   7  -5   2   30.44    3.68
  -5  -7  -2   28.86    4.57
  -7  -5  -2   26.98    4.63
  -5   7   2   33.17    3.04
   5  -7   2   31.06    4.76
   7   5  -2   32.69    3.89
   5   7  -2   31.79    3.77
   7   5  -2   27.38    3.23
  -5  -7   0   35.82    4.94
  -7  -5   0   26.25    4.51
   5  -7   0   41.58    5.30
  -5   7   0   30.66    2.87
   7   5   0   29.17    3.66
   7   5   0   27.29    2.91
   7  -5   0   37.28    3.86
  -5  -7   2   33.53    4.69
  -7  -5   2   32.81    4.81
   7   5   2   29.22    3.79
   5  -7  -2   42.94    5.25
   7  -5  -2   37.61    4.80
   7   5   2   25.20    2.37
   7  -5  -2   29.35    3.58
  -7  -5   4   28.31    4.70
   7   5   4   25.52    3.64
   5  -7  -4   25.32    4.54
   7  -5  -4   26.07    4.33
   5   7   4   24.36    2.81
  -5  -7   4   14.95    4.11
   5   7   6   20.75    2.71
   7   5   6   16.21    3.39
   5  -7  -6   20.14    4.38
   7  -5  -6   24.22    4.12
  -5  -7   6   20.88    4.24
  -7  -5   6   17.38    4.02
   5   7   8   24.17    3.01
   7   5   8   25.72    3.74
   7  -5  -8   18.89    3.95
  -5  -7   8   23.61    4.45
  -7  -5   8   21.59    4.27
   5   7  10   17.81    2.74
   7   5  10   14.79    3.33
   7  -5 -10   19.29    4.22
  -5  -7  10   17.23    4.02
  -7  -5  10   20.08    4.26
   5   7  12   10.65    2.67
   7   5  12   15.63    3.62
   7  -5 -12   10.30    3.66
  -5  -7  12   19.24    4.35
   5   7  14   10.04    2.71
   7   5  14    7.67    3.57
   7  -5 -14   10.06    3.84
   7   5  16    7.32    3.41
   7   6 -13   10.16    4.04
   6   7 -13    4.21    3.81
   7  -6  11   13.14    3.56
   6   7 -11   10.33    3.87
   7   6 -11   11.65    3.90
   7  -6   9   15.77    3.58
   6   7  -9   11.84    3.79
   7   6  -9    7.25    3.62
   7  -6   7   10.83    3.26
   6   7  -7   17.60    3.93
   7   6  -7   11.31    3.40
  -6  -7  -5   13.36    4.50
   7  -6   5   12.43    3.24
   6   7  -5   13.93    3.29
   7   6  -5   11.24    3.25
  -6  -7  -3   17.97    4.81
   6   7  -3   13.65    3.25
   7   6  -3   13.07    3.11
   7  -6   3   17.53    3.37
  -6  -7  -1   14.06    4.34
   7  -6   1   22.64    3.54
   7   6  -1   15.25    2.72
  -6  -7   1   13.66    4.45
   7  -6  -1   26.28    4.99
   7   6   1   19.73    3.54
  -6  -7   3   11.12    4.10
   7  -6  -3   15.05    4.47
   6   7   3   21.69    3.18
   7   6   3   19.51    3.40
   7   6   5   16.04    3.26
   6   7   5   14.05    2.87
  -6  -7   5    7.79    3.96
   6   7   7   14.51    2.89
   7   6   7    9.55    3.04
   6   7   9   16.51    3.12
   7   6   9   12.31    3.26
   7   6  11    9.71    3.20
   7   6  13    5.67    3.25
   7   6  15    5.87    3.41
   7   7 -10    5.67    4.06
   8   0   0   42.27    4.38
   0  -8   0   34.78    2.73
  -8   0   0   43.05    4.41
   0  -8   0   35.63    4.04
  -8   0   2   38.01    4.24
   8   0  -2   31.78    4.00
   8   0   2   46.81    4.58
   0  -8   2   37.71    2.82
   0  -8  -2   35.93    2.77
   0  -8  -2   38.21    4.32
  -8   0  -2   42.58    4.45
   0  -8   2   38.71    4.11
   8   0   4   35.91    4.20
   0  -8   4   27.06    2.56
   0  -8  -4   29.89    2.71
   0  -8  -4   30.81    3.98
   0  -8   4   30.01    3.80
   8   0  -4   25.53    3.90
  -8   0   4   31.21    3.99
   0  -8  -6   27.47    2.83
   0  -8   6   29.73    2.71
   8   0   6   23.79    3.83
   8   0  -6   29.66    3.03
   0  -8  -6   29.34    4.16
   0  -8   6   24.26    3.56
   8   0  -6   31.38    4.00
  -8   0   6   33.88    4.00
   0  -8   8   35.15    3.05
   8   0   8   35.23    4.21
   0  -8  -8   25.30    4.17
   8   0  -8   28.30    2.95
   0  -8   8   25.75    3.73
   8   0   8   32.53    2.75
  -8   0   8   32.00    4.22
   8   0  10   19.88    3.94
   0  -8 -10   19.73    3.95
   8   0 -10   20.08    2.63
   0  -8  10   22.33    3.46
   0  -8  10   25.95    2.89
  -8   0  10   21.69    3.81
   8   0  12   20.05    3.81
   0  -8 -12   12.86    3.70
   8   0 -12   15.56    2.50
   0  -8  12   17.47    3.56
   0  -8  12   19.48    2.94
  -8   0  12   14.04    3.48
   0  -8 -14   12.54    4.01
   8   0 -14    8.55    2.29
   8   0  14   13.98    3.94
   0  -8  14   15.62    3.56
  -8   0  14   11.20    3.66
   0  -8 -16    3.48    3.49
  -8   0  16    6.31    3.36
  -8   0  18   12.97    4.10
  -8   1  19    4.48    3.76
  -8   1  17    6.91    3.61
   8  -1  15    8.87    3.59
  -8   1  15   12.41    3.43
   1   8 -15   12.58    4.07
   8  -1  13   11.39    3.66
  -1  -8 -13    9.73    3.65
  -8   1  13   14.11    3.45
   8  -1  11   23.74    4.01
  -1  -8 -11   18.23    3.93
   8   1 -11   20.07    2.13
   1  -8  11   16.65    3.87
  -8   1  11   25.61    3.74
   8  -1   9   21.51    3.81
  -1  -8  -9   20.19    3.69
   8   1  -9   20.80    2.17
   1  -8   9   22.85    4.01
  -8   1   9   25.31    3.72
   8  -1   9   23.05    2.77
  -1  -8  -9   25.24    3.40
  -1  -8  -7   28.49    3.63
   8  -1   7   31.43    4.20
   8   1  -7   25.68    2.46
  -1  -8  -7   33.11    4.22
   1  -8   7   30.55    4.23
  -8   1   7   30.80    3.74
   8  -1   7   27.77    3.09
  -1  -8  -5   28.73    3.75
  -1  -8  -5   30.79    3.51
   8  -1   5   23.33    3.77
   8   1  -5   30.19    2.72
  -1  -8  -5   26.52    3.71
   1  -8   5   32.03    4.10
  -8   1   5   32.10    3.74
  -1  -8  -3   26.01    3.20
   8  -1   3   27.11    3.88
  -1  -8  -3   19.88    3.40
   1  -8   3   33.36    4.12
  -8   1   3   31.59    3.75
  -8   1   1   35.96    3.90
  -8  -1  -1   32.39    4.26
   8  -1   1   24.73    3.75
  -1  -8  -1   37.85    3.93
  -1  -8  -1   34.41    3.32
   1  -8   1   32.65    4.13
  -8   1  -1   32.62    3.82
  -8  -1   1   35.61    4.29
   8  -1  -1   26.85    3.80
  -1  -8   1   34.89    3.31
  -1  -8   1   31.21    3.74
   1  -8  -1   32.46    4.24
  -8  -1   3   31.06    4.23
  -8   1  -3   21.51    3.31
  -1  -8   3   24.82    3.30
   1  -8  -3   33.57    4.20
  -1  -8   3   20.66    2.79
   8  -1  -3   24.45    3.66
   1  -8  -5   29.62    4.14
  -1  -8   5   32.78    3.45
   8  -1  -5   31.68    3.50
  -1  -8   5   27.39    3.06
   8  -1  -5   26.74    3.92
  -8  -1   5   26.18    4.11
   1  -8  -7   26.30    4.22
  -1  -8   7   22.70    3.19
   8  -1  -7   30.80    3.44
   8   1   7   26.96    2.20
  -1  -8   7   27.92    3.17
  -8  -1   7   34.91    4.35
   1  -8  -9   23.39    4.20
  -1  -8   9   26.33    3.24
   8  -1  -9   25.15    3.33
  -1  -8   9   28.49    3.19
  -8  -1   9   22.60    4.00
   1  -8 -11   21.91    4.19
   8  -1 -11   16.67    2.92
  -1  -8  11   15.25    2.82
  -1  -8  11   14.77    3.02
  -8  -1  11   24.34    4.09
   1  -8 -13   12.57    4.17
   8  -1 -13   14.14    2.98
  -1  -8  13   12.91    2.98
  -8  -1  13   15.42    3.81
   1  -8 -15    4.03    3.71
   8  -1 -15   11.31    2.72
  -1  -8  15   12.92    3.01
  -8  -1  15    8.15    3.61
   8  -1 -17   10.66    2.93
  -1  -8  17    4.10    2.97
  -8  -1  17    8.40    3.92
  -8   2  20    4.88    3.57
  -8   2  18    4.03    3.36
  -8   2  16   13.58    3.55
   8  -2  14    6.63    3.50
  -8   2  14    9.27    3.27
   2   8 -14   15.47    4.39
   8  -2  12   24.34    4.24
  -8   2  12   18.35    3.39
   2   8 -12   21.36    4.33
   8  -2  10   18.67    3.86
  -8   2  10   14.00    3.14
   2   8 -10   25.45    4.48
   8  -2  10   17.15    2.98
   8  -2   8   22.89    3.82
  -2  -8  -8   23.54    3.70
   2  -8   8   29.93    4.38
  -8   2   8   33.23    3.70
   8  -2   8   23.50    3.27
   8  -2   6   29.21    4.02
   8   2  -6   20.79    1.64
  -2  -8  -6   25.97    3.77
   2  -8   6   26.48    4.29
   8   2  -6   27.53    4.01
  -8   2   6   28.80    3.54
   8  -2   6   26.28    3.36
  -2  -8  -4   30.94    3.70
  -2  -8  -4   30.04    3.88
   8  -2   4   30.54    3.95
   8   2  -4   26.13    2.10
  -2  -8  -4   29.78    3.76
   2  -8   4   30.83    4.39
  -8   2   4   32.36    3.59
   8   2  -4   38.16    4.37
   8   2  -2   29.41    3.82
  -2  -8  -2   35.29    4.07
  -2  -8  -2   26.49    3.72
  -8  -2  -2   29.92    4.48
   8  -2   2   45.64    4.50
  -2  -8  -2   32.91    3.77
   2  -8   2   36.35    4.61
  -8   2   2   30.08    3.51
  -8  -2   0   31.08    4.31
   8   2   0   28.96    3.91
   8  -2   0   29.37    3.98
  -2  -8   0   38.70    3.80
   2  -8   0   31.41    4.38
  -8   2   0   31.83    3.45
  -2  -8   0   22.88    3.43
   8  -2  -2   37.71    4.22
  -8  -2   2   28.49    4.29
   8   2   2   33.96    4.11
  -8   2  -2   35.77    3.70
  -2  -8   2   34.39    3.47
   2  -8  -2   35.56    4.49
  -2  -8   2   27.51    3.57
  -8  -2   4   23.59    4.28
  -8   2  -4   28.59    3.49
   8   2   4   28.24    4.02
  -2  -8   4   39.99    3.59
   2  -8  -4   32.55    4.48
   8  -2  -4   24.96    3.66
   8   2   4   30.62    2.52
  -2  -8   4   31.15    3.63
   8  -2  -4   29.83    3.92
   8   2   6   31.49    4.01
  -2  -8   6   30.48    3.17
   2  -8  -6   33.15    4.63
   8  -2  -6   28.68    3.86
   8   2   6   26.14    1.75
   8   2   6   26.31    1.85
   8  -2  -6   25.57    3.76
  -2  -8   6   24.07    3.36
  -8  -2   6   31.19    4.50
   8   2   8   27.29    4.07
   2  -8  -8   22.64    4.35
   8  -2  -8   28.55    3.90
  -2  -8   8   22.19    3.47
  -8  -2   8   28.42    4.33
   8   2  10   18.74    3.83
   2  -8 -10   21.88    4.32
   8  -2 -10   18.82    3.46
  -2  -8  10   17.67    3.37
  -8  -2  10   23.98    4.20
   8   2  12   21.23    4.05
   2  -8 -12   18.03    4.05
   8  -2 -12   15.81    3.10
  -2  -8  12   13.76    3.29
  -8  -2  12   13.10    3.82
   8   2  14    6.90    3.53
   2  -8 -14    8.22    3.78
   8  -2 -14   15.73    3.44
  -2  -8  14    7.84    3.22
  -8  -2  14   14.44    4.06
   8  -2 -16   12.98    3.18
  -2  -8  16    3.02    3.01
   8  -2 -18    7.22    3.14
  -2  -8  18    5.69    3.51
  -2  -8  20    5.25    3.57
  -8   3  17    3.20    3.00
   8   3 -15    3.85    3.99
  -8   3  15   10.53    3.26
   8   3 -13   13.65    3.91
   8  -3  13   11.16    3.76
  -8   3  13   12.50    3.17
   3   8 -13    9.77    4.17
   8   3 -11   16.82    4.12
   8  -3  11   14.12    3.80
  -8   3  11   15.98    3.08
   3   8 -11   10.62    4.01
   8   3  -9   20.71    4.09
   8  -3   9   21.00    3.86
  -8   3   9   17.65    2.94
   3   8  -9   18.61    4.05
   8   3  -7   16.37    3.53
   8  -3   7   18.31    3.64
   3  -8   7   20.86    4.41
  -8   3   7   26.00    3.08
  -3  -8  -5   22.62    4.29
   8   3  -5   24.56    3.70
   8  -3   5   22.80    3.73
   3  -8   5   25.44    4.47
  -8   3   5   25.38    3.16
   8   3  -5   21.74    3.67
  -3  -8  -3   29.14    4.32
   8   3  -3   20.03    3.29
  -8  -3  -3   27.09    4.50
   8  -3   3   22.60    3.69
   3  -8   3   30.43    4.82
  -8   3   3   28.19    3.13
   8   3  -3   26.95    3.87
   8   3  -1   30.55    3.96
  -3  -8  -1   24.35    4.25
  -8  -3  -1   28.43    4.72
   8   3  -1   24.32    3.11
   8  -3   1   28.24    3.79
  -8   3   1   32.58    3.21
   3  -8   1   25.30    4.45
  -3  -8   1   23.33    3.93
   8  -3  -1   32.40    4.04
  -8  -3   1   24.57    4.41
   8   3   1   24.04    2.73
   8   3   1   27.03    3.99
  -8   3  -1   32.57    3.22
   3  -8  -1   29.92    4.54
  -8  -3   3   22.18    4.33
   8   3   3   36.60    4.32
   8   3   3   27.27    2.93
   3  -8  -3   29.61    4.62
   8   3   3   22.58    2.25
   8  -3  -3   24.51    3.71
  -3  -8   3   32.15    4.30
  -8   3  -3   29.65    3.16
  -8   3  -5   27.33    3.17
   8   3   5   28.68    4.07
   8   3   5   19.69    2.98
   3  -8  -5   23.81    4.31
   8  -3  -5   27.88    4.15
   8  -3  -5   26.91    3.84
  -3  -8   5   32.66    4.29
  -8  -3   5   27.56    4.52
  -8   3  -7   25.12    3.08
   8   3   7   24.21    3.89
   8   3   7   19.62    3.21
   3  -8  -7   22.41    4.44
   8  -3  -7   25.95    4.02
  -3  -8   7   15.88    3.56
  -8  -3   7   22.33    4.54
   8   3   9   18.63    3.83
   8   3   9   19.50    3.42
   3  -8  -9   18.77    4.38
   8  -3  -9   17.15    3.68
  -3  -8   9   18.45    3.76
  -8  -3   9   20.42    4.26
   8   3  11   17.47    3.74
   3  -8 -11   18.29    4.59
   8  -3 -11   16.53    3.69
  -3  -8  11    9.97    3.27
  -8  -3  11   13.09    4.11
   8   3  13   10.11    3.66
   8  -3 -13   12.18    3.63
  -3  -8  13    9.59    3.52
   8  -3 -15    8.11    3.52
  -3  -8  15   10.47    3.66
   8  -3 -17    6.69    3.40
  -3  -8  17    4.83    3.40
   8  -3 -19    5.76    3.50
   8   4 -14    2.52    3.72
   8   4 -12    5.87    3.58
   8  -4  12    7.88    3.65
   4   8 -12    8.65    3.94
   8   4 -10   11.56    3.94
   8  -4  10    7.36    3.52
   4   8 -10   13.59    4.01
   8   4  -8   21.65    3.98
   8  -4   8   13.67    3.49
   4   8  -8   23.40    4.34
   8   4  -6   12.01    3.42
   8  -4   6   15.95    3.70
   4  -8   6   21.72    4.46
   8   4  -4   18.95    3.30
  -4  -8  -4   17.28    4.32
   8  -4   4   13.13    3.33
   4  -8   4   21.16    4.60
   8   4  -2   16.57    2.93
  -4  -8  -2   13.08    4.12
   8  -4   2   18.20    3.55
   4  -8   2   22.99    4.63
   8   4  -2   20.34    3.71
   8  -4   0   16.80    3.47
   8   4   0   15.13    2.51
  -4  -8   0   21.22    4.36
   4  -8   0   11.08    4.10
   8   4   0   14.50    3.43
   8   4   2   17.84    3.67
   4  -8  -2   17.45    4.53
   8  -4  -2   16.82    3.55
  -4  -8   2   14.38    4.18
   8   4   4   21.85    3.72
   4  -8  -4   13.78    3.97
   8  -4  -4   18.74    4.03
  -4  -8   4   16.07    4.07
   8   4   6   18.70    3.83
   4  -8  -6   16.58    4.35
   8  -4  -6   25.17    4.29
  -4  -8   6   17.37    4.24
   8   4   8   16.15    3.66
   8  -4  -8   11.92    3.65
  -4  -8   8   10.41    3.65
   8   4  10   15.00    3.74
   8  -4 -10   10.97    3.75
  -4  -8  10   15.90    4.15
   8   4  12    8.83    3.58
   8  -4 -12    6.14    3.55
  -4  -8  12   10.77    3.83
   8  -4 -14    3.09    3.53
   8   5 -13    7.74    4.07
   8   5 -11    6.77    3.93
   5   8 -11    9.22    3.99
   8   5  -9   10.28    3.37
   8  -5   9   10.31    3.55
   5   8  -9    8.31    3.80
   8   5  -7   10.13    3.17
   8  -5   7    9.38    3.62
   5   8  -7    7.39    3.77
   8   5  -5   12.30    3.14
  -5  -8  -5    9.51    4.11
   8  -5   5   10.94    3.42
  -5  -8  -3   12.91    4.39
   8  -5   3   13.28    3.52
  -5  -8  -1    9.91    4.27
   8   5  -1   10.69    3.49
   8  -5   1   10.50    3.11
  -5  -8   1   12.45    4.33
   8  -5  -1   17.05    4.19
   8  -5  -1   17.10    3.62
   8   5   1    9.75    3.42
   8   5   3   10.42    3.52
   8  -5  -3    9.60    4.04
  -5  -8   3    9.43    4.28
   8   5   5   14.67    3.85
   8  -5  -5   11.51    3.95
  -5  -8   5   14.03    4.30
   8   5   7   13.15    3.69
  -5  -8   7   13.93    4.26
   8   5   9    8.50    3.52
   6   8  -8    4.43    3.80
   8   6   2    9.52    3.50
   8   6   4    6.22    3.32
   8   6   6    6.31    3.42
   8   6   8    4.20    3.38
  -9   0   1   20.56    4.16
  -9   0  -1   23.13    4.19
   9   0  -1   18.56    3.97
   9   0   1   20.13    3.81
   0  -9  -1   27.67    4.23
   0  -9   1   22.02    3.93
  -9   0  -3   15.75    3.94
   9   0   3   20.21    4.09
   0  -9  -3   13.49    3.61
   0  -9   3   16.43    3.71
   9   0  -3   19.58    3.84
  -9   0   3   18.37    3.97
  -9   0  -5   16.73    4.03
   9   0   5   17.65    3.91
   0  -9  -5   20.78    3.99
   0  -9   5   23.75    3.76
   9   0  -5   15.71    2.83
   9   0  -5   10.94    3.60
  -9   0   5   21.25    4.08
   0  -9  -7   14.99    3.86
   0  -9   7   14.95    3.49
   9   0  -7   15.26    2.76
  -9   0   7   11.84    3.76
   0  -9  -9   14.06    4.12
   0  -9   9   14.93    3.56
  -9   0   9   12.61    3.75
   0  -9 -11   13.29    3.98
  -9   0  11   12.11    3.87
  -9   0  13    4.27    3.48
  -9   1  16    8.84    4.06
  -9   1  14    7.30    3.67
  -1  -9 -12    9.88    4.06
   1  -9  12   11.43    4.15
  -9   1  12    9.34    3.68
  -1  -9 -10   12.66    4.02
   1  -9  10   14.67    4.21
  -9   1  10   14.65    3.60
  -1  -9  -8   13.19    3.75
   1  -9   8   14.82    4.03
  -9   1   8   17.02    3.77
  -1  -9  -6   10.85    3.46
   1  -9   6   15.05    3.81
  -9   1   6   13.18    3.46
  -9  -1  -4   13.03    4.16
   9  -1   4   23.84    4.11
  -1  -9  -4   13.80    3.58
   1  -9   4   16.97    3.89
   9   1  -4   15.32    2.65
  -9   1   4   15.86    3.63
  -9  -1  -2   24.58    4.66
   9  -1   2   24.11    3.98
  -1  -9  -2   16.59    3.57
   1  -9   2   25.18    4.38
  -9   1   2   15.90    3.54
  -9  -1   0   25.25    4.44
   9  -1   0   25.42    4.27
  -1  -9   0   18.48    3.41
   1  -9   0   19.25    4.18
  -9   1   0   22.12    3.78
  -9  -1   2   14.59    4.03
  -9   1  -2   19.89    3.73
  -1  -9   2   24.39    3.67
   1  -9  -2   20.38    4.25
   9  -1  -2   19.95    3.97
  -9   1  -4   18.02    3.67
  -1  -9   4   19.77    3.39
   1  -9  -4   16.80    4.27
   9  -1  -4   15.69    3.24
   9  -1  -4   12.43    3.93
  -9  -1   4   21.15    4.40
  -9   1  -6   18.76    3.83
   1  -9  -6   16.72    4.23
   9  -1  -6   12.05    3.26
  -9  -1   6   15.75    3.97
   1  -9  -8   11.54    4.13
   9  -1  -8   16.34    3.06
  -9  -1   8    9.03    3.79
   1  -9 -10    8.43    3.70
   9  -1 -10   10.41    2.92
  -9  -1  10   11.30    4.07
  -9   2  15    6.67    3.61
   2  -9  13    7.52    4.11
  -9   2  13    2.33    3.26
   2  -9  11    7.12    3.82
  -9   2  11   12.18    3.38
   2  -9   9   15.10    4.40
  -9   2   9   12.39    3.49
  -2  -9  -7   11.79    3.59
   2  -9   7   19.29    4.49
  -9   2   7   12.19    3.25
  -9  -2  -5   15.13    4.25
  -2  -9  -5   16.03    3.65
   2  -9   5   14.37    4.22
  -9   2   5   12.18    3.21
  -9  -2  -3   13.29    4.30
   9  -2   3   20.91    4.07
  -2  -9  -3   17.27    3.63
   2  -9   3   17.41    4.34
  -9   2   3   16.62    3.37
   9   2  -3   28.00    4.32
   9   2  -1   13.91    3.87
  -9  -2  -1   15.20    4.59
   9  -2   1   18.80    4.09
   2  -9   1   19.55    4.14
  -9   2   1   14.39    3.44
   9  -2  -1   16.62    3.89
  -9  -2   1   10.65    4.09
   9   2   1   13.41    3.81
   9   2   1   14.52    2.85
   2  -9  -1   14.84    4.08
  -9   2  -1   11.36    3.27
  -9   2  -3   19.76    3.38
   9   2   3   21.92    4.16
   2  -9  -3   20.28    4.52
   9  -2  -3   17.23    3.66
   9  -2  -3   16.40    4.00
  -9  -2   3    7.37    4.01
  -9   2  -5   16.71    3.50
   2  -9  -5    9.38    3.88
   9  -2  -5   14.41    3.56
  -9  -2   5    9.85    3.94
  -9   2  -7   14.25    3.44
   2  -9  -7   14.14    4.46
   9  -2  -7   15.25    3.54
  -9  -2   7   17.19    4.21
   9  -2  -9    8.10    3.17
   9  -2 -11    7.66    3.20
   9  -2 -13    3.73    3.04
   9   3 -12    7.45    3.96
   9   3 -10    4.38    3.60
  -3  -9  -8   16.15    4.24
   9   3  -8   11.76    3.83
  -3  -9  -6   11.59    4.10
   9   3  -6   11.85    3.53
  -3  -9  -4   12.48    4.20
   9   3  -4    7.76    2.93
   3  -9   4   13.69    4.49
  -3  -9  -2    4.39    3.54
   3  -9   2    9.45    3.98
  -3  -9   0   11.75    3.78
  -3  -9   2    9.96    3.63
   9  -3  -4   12.44    3.61
  -3  -9   4    6.68    3.25
   9  -3  -6   11.16    3.67
  -3  -9   6    9.47    3.57
   9  -3  -8    5.20    3.17
  -3  -9   8    9.07    3.51
   9  -3 -10    9.67    3.63
   9  -3 -12    4.80    3.54
   9  -3 -14    6.45    3.40
   9   4 -11    3.39    3.71
  -4  -9  -7   -0.87    3.86
  -4  -9  -5    2.14    3.92
  -4  -9  -3   10.66    4.40
  -4  -9  -1   12.19    4.49
  -4  -9   1   14.60    4.46
  -4  -9   3   13.36    4.26
  -4  -9   5    6.34    3.92
  -4  -9   7    3.88    3.72
   0 -10   0    7.11    3.76
 -10   0   0   17.01    4.31
 -10   0  -2   11.28    3.97
   0 -10  -2   11.55    3.93
 -10   0   2   10.80    3.99
 -10   0  -4    5.90    4.23
 -10   0   4   10.40    4.00
 -10   1   9    5.50    3.68
 -10   1   7    2.87    3.59
   1 -10   5    5.45    3.81
 -10   1   5    9.80    3.86
   1 -10   3    9.24    3.98
 -10   1   3    9.85    3.77
 -10   1   1    6.05    3.54
 -10   1  -1    6.43    3.58
 -10   1  -3    7.77    3.71
 -10   1  -5   10.86    3.85
 -10   1  -7    4.68    3.70
 -10   1  -9    2.40    3.64
  10  -2  -2    6.11    3.68
  10  -2  -4   15.36    4.04
   0   0   0    0.00    0.00
;
_shelx_hkl_checksum              35783
loop_
_space_group_symop_operation_xyz
'x, y, z'
'-x, -y, z'
'-y, x, z'
'y, -x, z'
'-x, y, -z'
'x, -y, -z'
'y, x, -z'
'-y, -x, -z'
'x+1/2, y+1/2, z+1/2'
'-x+1/2, -y+1/2, z+1/2'
'-y+1/2, x+1/2, z+1/2'
'y+1/2, -x+1/2, z+1/2'
'-x+1/2, y+1/2, -z+1/2'
'x+1/2, -y+1/2, -z+1/2'
'y+1/2, x+1/2, -z+1/2'
'-y+1/2, -x+1/2, -z+1/2'
loop_
_atom_site_label
_atom_site_type_symbol
_atom_site_fract_x
_atom_site_fract_y
_atom_site_fract_z
_atom_site_U_iso_or_equiv
_atom_site_adp_type
_atom_site_occupancy
_atom_site_site_symmetry_order
_atom_site_calc_flag
_atom_site_refinement_flags_posn
_atom_site_refinement_flags_adp
_atom_site_refinement_flags_occupancy
Eu1 Eu -0.5000 0.5000 -0.5000 0.0533(3) Uani 0.500(0) 8 d S T P
Rb1 Rb -0.5000 0.5000 -0.5000 0.0533(3) Uani 0.500(0) 8 d S T P
N2 N -0.9135(10) 0.5000 -0.5000 0.110(3) Uani 1 2 d S T P
O1 O -0.522(6) 0.655(2) -0.4014(7) 0.154(9) Uani 0.5 1 d . . P
N1 N -0.5000 0.5000 -0.3749(6) 0.136(6) Uani 1 4 d S T P
O4 O -0.490(9) 0.169(3) -0.5424(8) 0.086(7) Uani 0.25 1 d . . P
O5 O -0.169(3) 0.348(3) -0.495(4) 0.076(9) Uani 0.25 1 d . . P
O2 O -0.5000 0.5000 -0.3262(8) 0.258(15) Uani 1 4 d S T P
C1 C -0.5000 0.5000 -0.0885(9) 0.188(13) Uani 1 4 d S TU P
C2 C -0.410(6) 0.654(7) -0.1234(17) 0.292(16) Uani 1 1 d . U .
C3 C -0.309(3) 0.445(5) -0.1817(9) 0.244(14) Uani 1 1 d . U .
C4 C -0.5000 0.5000 -0.213(3) 0.38(3) Uani 1 4 d S TU P
loop_
_atom_site_aniso_label
_atom_site_aniso_U_11
_atom_site_aniso_U_22
_atom_site_aniso_U_33
_atom_site_aniso_U_23
_atom_site_aniso_U_13
_atom_site_aniso_U_12
Eu1 0.0427(3) 0.0427(3) 0.0747(5) 0.000 0.000 0.000
Rb1 0.0427(3) 0.0427(3) 0.0747(5) 0.000 0.000 0.000
N2 0.044(3) 0.129(8) 0.156(8) -0.02(3) 0.000 0.000
O1 0.22(3) 0.096(8) 0.145(10) -0.003(8) -0.080(18) -0.030(17)
N1 0.160(10) 0.160(10) 0.087(8) 0.000 0.000 0.000
O4 0.095(18) 0.064(8) 0.098(10) -0.007(8) 0.03(2) 0.02(2)
O5 0.065(8) 0.070(8) 0.09(3) -0.011(18) -0.018(19) 0.010(6)
O2 0.33(2) 0.33(2) 0.119(13) 0.000 0.000 0.000
C1 0.23(2) 0.23(2) 0.096(12) 0.000 0.000 0.000
C2 0.16(2) 0.27(3) 0.44(3) -0.06(3) 0.00(3) -0.04(2)
C3 0.153(15) 0.30(3) 0.27(2) -0.11(2) -0.019(14) 0.10(2)
C4 0.38(4) 0.38(4) 0.37(5) 0.000 0.000 0.000
loop_
_atom_type_symbol
_atom_type_description
_atom_type_scat_dispersion_real
_atom_type_scat_dispersion_imag
_atom_type_scat_source
C C 0.0033 0.0016 'International Tables Vol C Tables 4.2.6.8 and 6.1.1.4'
H H 0.0000 0.0000 'International Tables Vol C Tables 4.2.6.8 and 6.1.1.4'
N N 0.0061 0.0033 'International Tables Vol C Tables 4.2.6.8 and 6.1.1.4'
O O 0.0106 0.0060 'International Tables Vol C Tables 4.2.6.8 and 6.1.1.4'
Rb Rb -0.9393 2.9676 'International Tables Vol C Tables 4.2.6.8 and 6.1.1.4'
Eu Eu -0.1578 3.6682 'International Tables Vol C Tables 4.2.6.8 and 6.1.1.4'
loop_
_geom_angle_atom_site_label_1
_geom_angle_atom_site_label_2
_geom_angle_atom_site_label_3
_geom_angle
_geom_angle_site_symmetry_1
_geom_angle_site_symmetry_3
O4 Eu1 O4 80.7(3) 8_554 6_564
O4 Eu1 O4 177(3) 8_554 4_455
O4 Eu1 O4 102(3) 6_564 4_455
O4 Eu1 O4 132.6(9) 8_554 7_464
O4 Eu1 O4 80.7(3) 6_564 7_464
O4 Eu1 O4 47.5(8) 4_455 7_464
O4 Eu1 O4 80.7(3) 8_554 5_454
O4 Eu1 O4 132.6(9) 6_564 5_454
O4 Eu1 O4 96(3) 4_455 5_454
O4 Eu1 O4 80.7(3) 7_464 5_454
O4 Eu1 O4 47.5(8) 8_554 3_565
O4 Eu1 O4 96(3) 6_564 3_565
O4 Eu1 O4 132.6(9) 4_455 3_565
O4 Eu1 O4 177(3) 7_464 3_565
O4 Eu1 O4 102(3) 5_454 3_565
O4 Eu1 O4 102(3) 8_554 2_465
O4 Eu1 O4 47.5(8) 6_564 2_465
O4 Eu1 O4 80.7(3) 4_455 2_465
O4 Eu1 O4 96(3) 7_464 2_465
O4 Eu1 O4 177(3) 5_454 2_465
O4 Eu1 O4 80.7(3) 3_565 2_465
O4 Eu1 O4 96(3) 8_554 .
O4 Eu1 O4 177(3) 6_564 .
O4 Eu1 O4 80.7(3) 4_455 .
O4 Eu1 O4 102(3) 7_464 .
O4 Eu1 O4 47.5(8) 5_454 .
O4 Eu1 O4 80.7(3) 3_565 .
O4 Eu1 O4 132.6(9) 2_465 .
O4 Eu1 O5 146.9(17) 8_554 5_454
O4 Eu1 O5 115.2(17) 6_564 5_454
O4 Eu1 O5 30.5(18) 4_455 5_454
O4 Eu1 O5 36.8(18) 7_464 5_454
O4 Eu1 O5 67.1(17) 5_454 5_454
O4 Eu1 O5 145.5(19) 3_565 5_454
O4 Eu1 O5 109.7(17) 2_465 5_454
O4 Eu1 O5 68.1(17) . 5_454
O4 Eu1 O5 36.8(18) 8_554 6_564
O4 Eu1 O5 67.1(17) 6_564 6_564
O4 Eu1 O5 145.5(19) 4_455 6_564
O4 Eu1 O5 146.9(17) 7_464 6_564
O4 Eu1 O5 115.2(17) 5_454 6_564
O4 Eu1 O5 30.5(18) 3_565 6_564
O4 Eu1 O5 68.1(17) 2_465 6_564
O4 Eu1 O5 109.7(17) . 6_564
O5 Eu1 O5 175(4) 5_454 6_564
O4 Eu1 O5 68.1(17) 8_554 3_565
O4 Eu1 O5 30.5(18) 6_564 3_565
O4 Eu1 O5 115.2(18) 4_455 3_565
O4 Eu1 O5 109.7(17) 7_464 3_565
O4 Eu1 O5 145.5(19) 5_454 3_565
O4 Eu1 O5 67.1(17) 3_565 3_565
O4 Eu1 O5 36.8(18) 2_465 3_565
O4 Eu1 O5 146.9(17) . 3_565
O5 Eu1 O5 139.3(9) 5_454 3_565
O5 Eu1 O5 41.0(9) 6_564 3_565
O4 Eu1 O5 109.7(17) 8_554 4_455
O4 Eu1 O5 145.5(19) 6_564 4_455
O4 Eu1 O5 67.1(17) 4_455 4_455
O4 Eu1 O5 68.1(17) 7_464 4_455
O4 Eu1 O5 30.5(18) 5_454 4_455
O4 Eu1 O5 115.2(18) 3_565 4_455
O4 Eu1 O5 146.9(17) 2_465 4_455
O4 Eu1 O5 36.8(18) . 4_455
O5 Eu1 O5 41.0(9) 5_454 4_455
O5 Eu1 O5 139.3(9) 6_564 4_455
O5 Eu1 O5 175(4) 3_565 4_455
O4 N2 O4 120.8(17) 7_464 4_455
O4 N2 O5 68(5) 7_464 2_465
O4 N2 O5 84(4) 4_455 2_465
O4 N2 O5 84(4) 7_464 5_454
O4 N2 O5 68(5) 4_455 5_454
O5 N2 O5 123.4(17) 2_465 5_454
O4 N2 N2 119.6(9) 7_464 2_365
O4 N2 N2 119.6(9) 4_455 2_365
O5 N2 N2 118.3(9) 2_465 2_365
O5 N2 N2 118.3(9) 5_454 2_365
O4 N2 Eu1 60.4(9) 7_464 .
O4 N2 Eu1 60.4(9) 4_455 .
O5 N2 Eu1 61.7(9) 2_465 .
O5 N2 Eu1 61.7(9) 5_454 .
N2 N2 Eu1 180.0 2_365 .
N1 O1 O1 52.3(4) . 3_565
N1 O1 O1 52.3(4) . 4_455
O1 O1 O1 90.001(8) 3_565 4_455
N1 O1 Eu1 95.3(11) . .
O1 O1 Eu1 72.7(2) 3_565 .
O1 O1 Eu1 72.7(2) 4_455 .
O2 N1 O1 120.1(10) . .
O2 N1 O1 120.1(10) . 3_565
O1 N1 O1 75.4(9) . 3_565
O2 N1 O1 120.1(10) . 2_465
O1 N1 O1 119.8(19) . 2_465
O1 N1 O1 75.4(9) 3_565 2_465
O2 N1 O1 120.1(10) . 4_455
O1 N1 O1 75.4(9) . 4_455
O1 N1 O1 119.8(19) 3_565 4_455
O1 N1 O1 75.4(9) 2_465 4_455
O2 N1 Eu1 180.0 . .
O1 N1 Eu1 59.9(10) . .
O1 N1 Eu1 59.9(10) 3_565 .
O1 N1 Eu1 59.9(10) 2_465 .
O1 N1 Eu1 59.9(10) 4_455 .
N2 O4 O5 57(3) 3_565 8_554
N2 O4 O5 49(2) 3_565 4_455
O5 O4 O5 92.8(17) 8_554 4_455
N2 O4 Eu1 95.8(10) 3_565 .
O5 O4 Eu1 75.7(15) 8_554 .
O5 O4 Eu1 72.4(12) 4_455 .
N2 O5 O4 54(2) 2_465 8_554
N2 O5 O4 47(2) 2_465 3_565
O4 O5 O4 87.2(17) 8_554 3_565
N2 O5 Eu1 93.5(11) 2_465 .
O4 O5 Eu1 73.8(12) 8_554 .
O4 O5 Eu1 70.8(13) 3_565 .
C2 C1 C2 72.0(16) 2_465 3_565
C2 C1 C2 72.0(16) 2_465 4_455
C2 C1 C2 112(3) 3_565 4_455
C2 C1 C2 112(3) 2_465 .
C2 C1 C2 72.0(16) 3_565 .
C2 C1 C2 72.0(16) 4_455 .
C3 C2 C1 126(3) 3_565 .
C3 C2 C2 83(2) 3_565 3_565
C1 C2 C2 54.0(8) . 3_565
C3 C2 C2 102(2) 3_565 4_455
C1 C2 C2 54.0(8) . 4_455
C2 C2 C2 90.000(7) 3_565 4_455
C3 C2 C3 63(2) 3_565 .
C1 C2 C3 91(3) . .
C2 C2 C3 98.3(17) 3_565 .
C2 C2 C3 42.0(18) 4_455 .
C2 C3 C4 111(4) 4_455 .
C2 C3 C3 76(3) 4_455 4_455
C4 C3 C3 51.5(13) . 4_455
C2 C3 C3 93.8(16) 4_455 3_565
C4 C3 C3 51.5(13) . 3_565
C3 C3 C3 90.000(3) 4_455 3_565
C2 C3 C2 55.1(19) 4_455 .
C4 C3 C2 82(3) . .
C3 C3 C2 92.6(11) 4_455 .
C3 C3 C2 40.9(15) 3_565 .
C3 C4 C3 123(6) 3_565 4_455
C3 C4 C3 77(3) 3_565 2_465
C3 C4 C3 77(3) 4_455 2_465
C3 C4 C3 77(3) 3_565 .
C3 C4 C3 77(3) 4_455 .
C3 C4 C3 123(6) 2_465 .
loop_
_geom_bond_atom_site_label_1
_geom_bond_atom_site_label_2
_geom_bond_distance
_geom_bond_site_symmetry_2
Eu1 O4 2.549(17) 8_554
Eu1 O4 2.549(17) 6_564
Eu1 O4 2.549(17) 4_455
Eu1 O4 2.549(17) 7_464
Eu1 O4 2.549(17) 5_454
Eu1 O4 2.549(17) 3_565
Eu1 O4 2.549(17) 2_465
Eu1 O4 2.549(17) .
Eu1 O5 2.572(17) 5_454
Eu1 O5 2.572(17) 6_564
Eu1 O5 2.572(17) 3_565
Eu1 O5 2.572(17) 4_455
N2 O4 1.182(19) 7_464
N2 O4 1.182(19) 4_455
N2 O5 1.22(2) 2_465
N2 O5 1.22(2) 5_454
N2 N2 1.220(14) 2_365
O1 N1 1.273(17) .
O1 O1 1.56(2) 3_565
O1 O1 1.56(2) 4_455
N1 O2 1.18(3) .
N1 O1 1.273(17) 3_565
N1 O1 1.273(17) 2_465
N1 O1 1.273(17) 4_455
O4 N2 1.182(19) 3_565
O4 O5 1.35(8) 8_554
O4 O5 1.62(8) 4_455
O5 N2 1.22(2) 2_465
O5 O4 1.35(8) 8_554
O5 O4 1.62(8) 3_565
C1 C2 1.52(4) 2_465
C1 C2 1.52(4) 3_565
C1 C2 1.52(4) 4_455
C1 C2 1.52(4) .
C2 C3 1.46(5) 3_565
C2 C2 1.78(5) 3_565
C2 C2 1.78(5) 4_455
C2 C3 2.16(6) .
C3 C2 1.46(5) 4_455
C3 C4 1.59(5) .
C3 C3 1.98(3) 4_455
C3 C3 1.98(3) 3_565
C4 C3 1.59(5) 3_565
C4 C3 1.59(5) 4_455
C4 C3 1.59(5) 2_465
