#------------------------------------------------------------------------------
#$Date: 2019-11-26 08:59:38 +0200 (Tue, 26 Nov 2019) $
#$Revision: 243123 $
#$URL: file:///home/coder/svn-repositories/cod/cif/4/13/32/4133291.cif $
#------------------------------------------------------------------------------
#
# This file is available in the Crystallography Open Database (COD),
# http://www.crystallography.net/
#
# All data on this site have been placed in the public domain by the
# contributors.
#
data_4133291
loop_
_publ_author_name
'Magott, Micha\/l'
'Reczy\'nski, Mateusz'
'Gawe\/l, Bart\/lomiej'
'Sieklucka, Barbara'
'Pinkowicz, Dawid'
_publ_section_title
;
 A Photomagnetic Sponge: High-Temperature Light-Induced Ferrimagnet
 Controlled by Water Sorption.
;
_journal_issue                   46
_journal_name_full               'Journal of the American Chemical Society'
_journal_page_first              15876
_journal_page_last               15882
_journal_paper_doi               10.1021/jacs.8b09322
_journal_volume                  140
_journal_year                    2018
_chemical_formula_moiety         '{Mn(imidazole)}2, {[W(IV)(CN)8]'
_chemical_formula_sum            'C14 H8 Mn2 N12 W'
_chemical_formula_weight         638.04
_space_group_IT_number           2
_space_group_name_Hall           '-P 1'
_space_group_name_H-M_alt        'P -1'
_symmetry_cell_setting           triclinic
_symmetry_Int_Tables_number      2
_symmetry_space_group_name_Hall  '-P 1'
_symmetry_space_group_name_H-M   'P -1'
_cell_angle_alpha                103.871(3)
_cell_angle_beta                 103.223(3)
_cell_angle_gamma                95.421(4)
_cell_formula_units_Z            2
_cell_length_a                   9.9810(5)
_cell_length_b                   10.8463(5)
_cell_length_c                   9.8571(5)
_cell_measurement_temperature    293
_cell_volume                     995.85(9)
_diffrn_ambient_temperature      293
_diffrn_measurement_device_type  Panalytical
_diffrn_radiation_probe          x-ray
_diffrn_radiation_type           'Co K\a'
_diffrn_radiation_wavelength     1.5418
_exptl_absorpt_coefficient_mu    20.855
_exptl_crystal_density_diffrn    2.128
_exptl_crystal_F_000             600
_pd_instr_location               ' ?'
_pd_meas_2theta_range_inc        0.013
_pd_meas_2theta_range_max        49.993
_pd_meas_2theta_range_min        5.010
_pd_meas_number_of_points        3427
_pd_proc_2theta_range_inc        0.013
_pd_proc_2theta_range_max        49.993
_pd_proc_2theta_range_min        5.01
_pd_proc_ls_background_function  '9 Legendre polynoms'
_pd_proc_ls_pref_orient_corr     none
_pd_proc_ls_profile_function     Pseudo-Voigt
_pd_proc_ls_prof_R_factor        0.0322
_pd_proc_ls_prof_wR_expected     0.0225
_pd_proc_ls_prof_wR_factor       0.0412
_refine_ls_goodness_of_fit_all   1.83
_refine_ls_hydrogen_treatment    constr
_refine_ls_number_constraints    0
_refine_ls_number_parameters     71
_refine_ls_number_restraints     0
_refine_ls_R_factor_all          0.0299
_refine_ls_R_factor_gt           0.0296
_refine_ls_shift/su_max          0.019041
_refine_ls_shift/su_mean         0.01384
_refine_ls_weighting_scheme      sigma
_refine_ls_wR_factor_all         0.0363
_refine_ls_wR_factor_gt          0.0363
_cod_data_source_file            ja8b09322_si_003.cif
_cod_data_source_block           Mn2W
_cod_depositor_comments
;
The following automatic conversions were performed:

data item '_diffrn_radiation_probe' value 'X-ray' was changed to
'x-ray' in accordance with the
/home/saulius/struct/COD-crude-data/automatic-downloads/DataCite-retrospective/ACS/depositions/lib/dictionaries/cif_core.dic
dictionary named 'cif_core.dic' version 2.4.2 last updated on
2011-04-26.

Automatic conversion script
Id: cif_fix_values 6909 2019-04-08 15:41:33Z antanas 
;
_cod_original_formula_sum        'C14 H8 Mn2 N12 W1'
_cod_database_code               4133291
loop_
_space_group_symop_id
_space_group_symop_operation_xyz
1 x,y,z
2 -x,-y,-z
loop_
_atom_site_label
_atom_site_type_symbol
_atom_site_fract_x
_atom_site_fract_y
_atom_site_fract_z
_atom_site_adp_type
_atom_site_U_iso_or_equiv
_atom_site_site_symmetry_multiplicity
_atom_site_occupancy
_atom_site_calc_flag
C2 C 0.2594(12) 0.4898(5) 0.6258(13) Uiso 0.0193(14) 2 1 d
N1 N 0.2622(17) 0.5984(7) 0.663(2) Uiso 0.0193(14) 2 1 d
W1 W 0.2636(5) 0.2862(3) 0.5659(4) Uiso 0.0158(3) 2 1 d
C4 C 0.4647(12) 0.3819(11) 0.7033(16) Uiso 0.0193(14) 2 1 d
N4 N 0.5731(17) 0.4344(17) 0.772(2) Uiso 0.0193(14) 2 1 d
C1 C 0.2830(11) 0.1154(6) 0.6390(12) Uiso 0.0193(14) 2 1 d
N2 N 0.2969(15) 0.0263(8) 0.6801(17) Uiso 0.0193(14) 2 1 d
C6 C 0.4460(8) 0.2552(9) 0.4886(14) Uiso 0.0193(14) 2 1 d
N6 N 0.5453(10) 0.2394(14) 0.452(2) Uiso 0.0193(14) 2 1 d
C7 C 0.0409(7) 0.2803(10) 0.5115(16) Uiso 0.0193(14) 2 1 d
N7 N -0.0766(10) 0.2798(15) 0.478(2) Uiso 0.0193(14) 2 1 d
C8 C 0.2578(13) 0.3625(10) 0.3829(8) Uiso 0.0193(14) 2 1 d
N8 N 0.2553(19) 0.4085(14) 0.2890(11) Uiso 0.0193(14) 2 1 d
C5 C 0.2460(15) 0.3144(11) 0.7845(7) Uiso 0.0193(14) 2 1 d
N5 N 0.231(2) 0.3321(17) 0.8995(9) Uiso 0.0193(14) 2 1 d
C3 C 0.1841(16) 0.1366(11) 0.3671(12) Uiso 0.0193(14) 2 1 d
N3 N 0.142(2) 0.0525(16) 0.2648(18) Uiso 0.0193(14) 2 1 d
Mn1 Mn 0.2855(11) 0.8074(9) 0.6513(12) Uiso 0.014(1) 2 1 d
N11 N 0.334(4) 0.869(2) 0.8893(14) Uiso 0.015(3) 2 1 d
C12 C 0.394(4) 0.803(4) 0.9832(16) Uiso 0.015(3) 2 1 d
C13 C 0.317(7) 0.975(3) 0.972(2) Uiso 0.015(3) 2 1 d
C14 C 0.411(6) 0.867(5) 1.1185(19) Uiso 0.015(3) 2 1 d
N15 N 0.359(9) 0.979(4) 1.113(2) Uiso 0.015(3) 2 1 d
H12 H 0.419576 0.721071 0.954007 Uiso 0.015(3) 2 1 d
H13 H 0.278329 1.04215 0.937672 Uiso 0.015(3) 2 1 d
H14 H 0.450808 0.841434 1.203414 Uiso 0.015(3) 2 1 d
H15 H 0.354542 1.040705 1.185691 Uiso 0.015(3) 2 1 d
Mn2 Mn 0.7659(12) 0.5331(12) 0.8975(12) Uiso 0.0134(2) 2 1 d
N21 N 0.862(6) 0.364(4) 0.932(10) Uiso 0.026(4) 2 1 d
C22 C 0.942(11) 0.352(7) 1.058(13) Uiso 0.026(4) 2 1 d
C23 C 0.855(8) 0.255(5) 0.839(14) Uiso 0.026(4) 2 1 d
C24 C 0.983(13) 0.239(8) 1.043(19) Uiso 0.026(4) 2 1 d
N25 N 0.927(10) 0.176(6) 0.900(19) Uiso 0.026(4) 2 1 d
H22 H 0.966433 0.41774 1.146583 Uiso 0.026(4) 2 1 d
H23 H 0.804082 0.233742 0.740628 Uiso 0.026(4) 2 1 d
H24 H 1.03857 0.208272 1.115062 Uiso 0.026(4) 2 1 d
H25 H 0.936715 0.098144 0.857061 Uiso 0.026(4) 2 1 d
loop_
_atom_type_symbol
_atom_type_scat_dispersion_real
_atom_type_scat_dispersion_imag
_atom_type_scat_source
C 0.0181 0.0091 'International Tables Vol C tables 4.2.6.8 and 6.1.1.1'
H 0.0000 0.0000 'International Tables Vol C tables 4.2.6.8 and 6.1.1.1'
Mn -0.5299 2.8052 'International Tables Vol C tables 4.2.6.8 and 6.1.1.1'
N 0.0311 0.0180 'International Tables Vol C tables 4.2.6.8 and 6.1.1.1'
W -5.4734 5.5774 'International Tables Vol C tables 4.2.6.8 and 6.1.1.1'
loop_
_geom_angle_atom_site_label_1
_geom_angle_atom_site_label_2
_geom_angle_atom_site_label_3
_geom_angle_site_symmetry_1
_geom_angle_site_symmetry_3
_geom_angle
N1 C2 W1 . . 176.9(11)
C2 W1 C4 . . 71.5(4)
C2 W1 C1 . . 146.4(5)
C2 W1 C6 . . 108.3(5)
C2 W1 C7 . . 81.5(4)
C2 W1 C8 . . 69.7(4)
C2 W1 C5 . . 79.4(5)
C2 W1 C3 . . 133.7(5)
C4 W1 C1 . . 92.4(5)
C4 W1 C6 . . 61.1(5)
C4 W1 C7 . . 148.1(5)
C4 W1 C8 . . 100.3(6)
C4 W1 C5 . . 74.0(6)
C4 W1 C3 . . 137.0(6)
C1 W1 C6 . . 87.4(5)
C1 W1 C7 . . 101.5(5)
C1 W1 C8 . . 143.6(4)
C1 W1 C5 . . 67.8(4)
C1 W1 C3 . . 78.0(4)
C6 W1 C7 . . 147.1(5)
C6 W1 C8 . . 69.9(5)
C6 W1 C5 . . 127.5(5)
C6 W1 C3 . . 76.6(5)
C7 W1 C8 . . 85.4(6)
C7 W1 C5 . . 84.8(6)
C7 W1 C3 . . 74.5(5)
C8 W1 C5 . . 148.6(5)
C8 W1 C3 . . 69.4(4)
C5 W1 C3 . . 135.3(5)
W1 C4 N4 . . 177.3(18)
C4 N4 Mn2 . . 178.5(13)
W1 C1 N2 . . 178.1(9)
W1 C6 N6 . . 177.8(12)
C6 N6 Mn1 . 2_666 171.1(15)
W1 C7 N7 . . 176.8(17)
C7 N7 Mn1 . 2_566 152.1(15)
W1 C8 N8 . . 177.0(9)
C8 N8 Mn2 . 2_666 171.6(11)
W1 C5 N5 . . 176.6(15)
C5 N5 Mn2 . 2_667 148.9(15)
W1 C3 N3 . . 176.7(14)
N6 Mn1 N7 2_666 2_566 115.7(8)
N6 Mn1 N11 2_666 . 118.8(10)
N7 Mn1 N11 2_566 . 121.0(1)
Mn1 N11 C12 . . 127.2(16)
Mn1 N11 C13 . . 128.6(18)
C12 N11 C13 . . 104.2(17)
N11 C12 C14 . . 112(3)
N11 C12 H12 . . 123.94
C14 C12 H12 . . 123.94
N11 C13 N15 . . 112(3)
N11 C13 H13 . . 124.07
N15 C13 H13 . . 124.07
C12 C14 N15 . . 105(3)
C12 C14 H14 . . 127.4
N15 C14 H14 . . 127.4
C13 N15 C14 . . 107(3)
C13 N15 H15 . . 126.69
C14 N15 H15 . . 126.69
N4 Mn2 N8 . 2_666 76.6(9)
N4 Mn2 N5 . 2_667 115.7(10)
N4 Mn2 N21 . . 96.8(9)
N8 Mn2 N5 2_666 2_667 120.4(8)
N8 Mn2 N21 2_666 . 124(2)
N5 Mn2 N21 2_667 . 112(2)
Mn2 N21 C22 . . 127(2)
Mn2 N21 C23 . . 129(3)
C22 N21 C23 . . 104(3)
N21 C22 C24 . . 112(4)
N21 C22 H22 . . 123.97
C24 C22 H22 . . 123.97
N21 C23 N25 . . 112(4)
N21 C23 H23 . . 124.13
N25 C23 H23 . . 124.13
C22 C24 N25 . . 105(5)
C22 C24 H24 . . 127.41
N25 C24 H24 . . 127.41
C23 N25 C24 . . 107(4)
C23 N25 H25 . . 126.61
C24 N25 H25 . . 126.61
loop_
_geom_bond_atom_site_label_1
_geom_bond_atom_site_label_2
_geom_bond_site_symmetry_2
_geom_bond_distance
C2 N1 . 1.142(9)
C2 W1 . 2.151(6)
W1 C4 . 2.151(11)
W1 C1 . 2.152(9)
W1 C6 . 2.153(11)
W1 C7 . 2.155(9)
W1 C8 . 2.149(10)
W1 C5 . 2.152(9)
W1 C3 . 2.150(10)
C4 N4 . 1.148(18)
N4 Mn2 . 2.07(2)
C1 N2 . 1.142(14)
C6 N6 . 1.143(17)
N6 Mn1 2_666 2.21(2)
C7 N7 . 1.143(12)
N7 Mn1 2_566 2.167(15)
C8 N8 . 1.148(16)
N8 Mn2 2_666 2.057(17)
C5 N5 . 1.151(14)
N5 Mn2 2_667 2.167(17)
C3 N3 . 1.148(17)
Mn1 N11 . 2.203(16)
N11 C12 . 1.36(3)
N11 C13 . 1.30(3)
C12 C14 . 1.31(2)
C12 H12 . 0.95
C13 N15 . 1.34(3)
C13 H13 . 0.95
C14 N15 . 1.37(6)
C14 H14 . 0.96
N15 H15 . 0.87
Mn2 N21 . 2.21(3)
N21 C22 . 1.36(6)
N21 C23 . 1.30(4)
C22 C24 . 1.31(5)
C22 H22 . 0.95
C23 N25 . 1.34(6)
C23 H23 . 0.95
C24 N25 . 1.37(9)
C24 H24 . 0.95
N25 H25 . 0.87
loop_
_geom_hbond_atom_site_label_D
_geom_hbond_atom_site_label_H
_geom_hbond_atom_site_label_A
_geom_hbond_site_symmetry_A
_geom_hbond_distance_DH
_geom_hbond_distance_HA
_geom_hbond_distance_DA
_geom_hbond_angle_DHA
N25 H25 N3 2_656 0.87 1.85 2.60(4) 143.06
loop_
_pd_proc_point_id
_pd_proc_2theta_corrected
_pd_proc_intensity_net
_pd_calc_intensity_net
_pd_proc_ls_weight
1 5.0494 1586.00 1486.55 39.82
2 5.0625 1532.00 1489.19 39.14
3 5.0757 1485.00 1491.79 38.54
4 5.0888 1576.00 1494.36 39.70
5 5.1019 1550.00 1496.89 39.37
6 5.1151 1616.00 1499.38 40.20
7 5.1282 1645.00 1501.84 40.56
8 5.1413 1607.00 1504.27 40.09
9 5.1545 1580.00 1506.66 39.75
10 5.1676 1538.00 1509.01 39.22
11 5.1807 1658.00 1511.34 40.72
12 5.1938 1556.00 1513.63 39.45
13 5.2070 1581.00 1515.88 39.76
14 5.2201 1535.00 1518.10 39.18
15 5.2332 1622.00 1520.29 40.27
16 5.2464 1572.00 1522.45 39.65
17 5.2595 1629.00 1524.57 40.36
18 5.2726 1571.00 1526.66 39.64
19 5.2858 1570.00 1528.72 39.62
20 5.2989 1599.00 1530.75 39.99
21 5.3120 1619.00 1532.74 40.24
22 5.3251 1628.00 1534.70 40.35
23 5.3383 1553.00 1536.64 39.41
24 5.3514 1568.00 1538.54 39.60
25 5.3645 1580.00 1540.41 39.75
26 5.3777 1587.00 1542.25 39.84
27 5.3908 1528.00 1544.06 39.09
28 5.4039 1531.00 1545.83 39.13
29 5.4171 1620.00 1547.58 40.25
30 5.4302 1589.00 1549.30 39.86
31 5.4433 1558.00 1550.99 39.47
32 5.4564 1647.00 1552.65 40.58
33 5.4696 1579.00 1554.28 39.74
34 5.4827 1534.00 1555.89 39.17
35 5.4958 1597.00 1557.46 39.96
36 5.5090 1553.00 1559.00 39.41
37 5.5221 1565.00 1560.52 39.56
38 5.5352 1567.00 1562.01 39.59
39 5.5484 1576.00 1563.47 39.70
40 5.5615 1564.00 1564.90 39.55
41 5.5746 1576.00 1566.31 39.70
42 5.5877 1554.00 1567.69 39.42
43 5.6009 1566.00 1569.04 39.57
44 5.6140 1599.00 1570.37 39.99
45 5.6271 1591.00 1571.66 39.89
46 5.6403 1569.00 1572.94 39.61
47 5.6534 1601.00 1574.18 40.01
48 5.6665 1579.00 1575.40 39.74
49 5.6797 1595.00 1576.59 39.94
50 5.6928 1641.00 1577.76 40.51
51 5.7059 1550.00 1578.91 39.37
52 5.7190 1616.00 1580.02 40.20
53 5.7322 1618.00 1581.12 40.22
54 5.7453 1558.00 1582.18 39.47
55 5.7584 1670.00 1583.23 40.87
56 5.7716 1601.00 1584.25 40.01
57 5.7847 1650.00 1585.24 40.62
58 5.7978 1579.00 1586.21 39.74
59 5.8110 1575.00 1587.16 39.69
60 5.8241 1591.00 1588.08 39.89
61 5.8372 1626.00 1588.98 40.32
62 5.8503 1622.00 1589.86 40.27
63 5.8635 1663.00 1590.71 40.78
64 5.8766 1661.00 1591.54 40.76
65 5.8897 1575.00 1592.35 39.69
66 5.9029 1679.00 1593.13 40.98
67 5.9160 1599.00 1593.89 39.99
68 5.9291 1601.00 1594.63 40.01
69 5.9423 1614.00 1595.35 40.17
70 5.9554 1615.00 1596.05 40.19
71 5.9685 1636.00 1596.72 40.45
72 5.9816 1580.00 1597.38 39.75
73 5.9948 1570.00 1598.01 39.62
74 6.0079 1606.00 1598.62 40.07
75 6.0210 1667.00 1599.21 40.83
76 6.0342 1626.00 1599.78 40.32
77 6.0473 1637.00 1600.33 40.46
78 6.0604 1633.00 1600.86 40.41
79 6.0736 1581.00 1601.36 39.76
80 6.0867 1539.00 1601.85 39.23
81 6.0998 1547.00 1602.32 39.33
82 6.1129 1649.00 1602.77 40.61
83 6.1261 1641.00 1603.20 40.51
84 6.1392 1603.00 1603.61 40.04
85 6.1523 1616.00 1604.00 40.20
86 6.1655 1655.00 1604.37 40.68
87 6.1786 1616.00 1604.72 40.20
88 6.1917 1602.00 1605.06 40.03
89 6.2049 1594.00 1605.37 39.92
90 6.2180 1575.00 1605.67 39.69
91 6.2311 1529.00 1605.95 39.10
92 6.2442 1573.00 1606.21 39.66
93 6.2574 1650.00 1606.45 40.62
94 6.2705 1534.00 1606.68 39.17
95 6.2836 1666.00 1606.88 40.82
96 6.2968 1568.00 1607.07 39.60
97 6.3099 1558.00 1607.25 39.47
98 6.3230 1610.00 1607.40 40.12
99 6.3362 1557.00 1607.54 39.46
100 6.3493 1644.00 1607.66 40.55
101 6.3624 1598.00 1607.77 39.97
102 6.3755 1461.00 1607.86 38.22
103 6.3887 1648.00 1607.93 40.60
104 6.4018 1601.00 1607.99 40.01
105 6.4149 1556.00 1608.03 39.45
106 6.4281 1647.00 1608.05 40.58
107 6.4412 1637.00 1608.06 40.46
108 6.4543 1483.00 1608.06 38.51
109 6.4675 1602.00 1608.03 40.03
110 6.4806 1563.00 1608.00 39.53
111 6.4937 1585.00 1607.95 39.81
112 6.5068 1555.00 1607.88 39.43
113 6.5200 1591.00 1607.80 39.89
114 6.5331 1576.00 1607.70 39.70
115 6.5462 1586.00 1607.59 39.82
116 6.5594 1575.00 1607.46 39.69
117 6.5725 1585.00 1607.32 39.81
118 6.5856 1558.00 1607.17 39.47
119 6.5988 1630.00 1607.00 40.37
120 6.6119 1557.00 1606.82 39.46
121 6.6250 1571.00 1606.63 39.64
122 6.6381 1560.00 1606.42 39.50
123 6.6513 1552.00 1606.20 39.40
124 6.6644 1568.00 1605.96 39.60
125 6.6775 1600.00 1605.72 40.00
126 6.6907 1537.00 1605.45 39.20
127 6.7038 1614.00 1605.18 40.17
128 6.7169 1587.00 1604.89 39.84
129 6.7301 1616.00 1604.60 40.20
130 6.7432 1631.00 1604.28 40.39
131 6.7563 1544.00 1603.96 39.29
132 6.7694 1519.00 1603.63 38.97
133 6.7826 1585.00 1603.28 39.81
134 6.7957 1534.00 1602.92 39.17
135 6.8088 1536.00 1602.55 39.19
136 6.8220 1584.00 1602.16 39.80
137 6.8351 1538.00 1601.77 39.22
138 6.8482 1613.00 1601.36 40.16
139 6.8614 1582.00 1600.95 39.77
140 6.8745 1555.00 1600.52 39.43
141 6.8876 1585.00 1600.08 39.81
142 6.9007 1458.00 1599.63 38.18
143 6.9139 1572.00 1599.17 39.65
144 6.9270 1521.00 1598.70 39.00
145 6.9401 1520.00 1598.22 38.99
146 6.9533 1504.00 1597.73 38.78
147 6.9664 1590.00 1597.23 39.87
148 6.9795 1583.00 1596.71 39.79
149 6.9927 1606.00 1596.19 40.07
150 7.0058 1590.00 1595.66 39.87
151 7.0189 1504.00 1595.12 38.78
152 7.0320 1481.00 1594.57 38.48
153 7.0452 1486.00 1594.01 38.55
154 7.0583 1503.00 1593.44 38.77
155 7.0714 1557.00 1592.86 39.46
156 7.0846 1521.00 1592.27 39.00
157 7.0977 1473.00 1592.10 38.38
158 7.1108 1530.00 1591.71 39.12
159 7.1240 1495.00 1591.10 38.67
160 7.1371 1478.00 1590.49 38.44
161 7.1502 1527.00 1589.87 39.08
162 7.1633 1537.00 1589.25 39.20
163 7.1765 1534.00 1588.61 39.17
164 7.1896 1498.00 1587.97 38.70
165 7.2027 1570.00 1587.32 39.62
166 7.2159 1500.00 1586.66 38.73
167 7.2290 1561.00 1585.99 39.51
168 7.2421 1584.00 1585.32 39.80
169 7.2553 1557.00 1584.64 39.46
170 7.2684 1529.00 1583.95 39.10
171 7.2815 1546.00 1583.26 39.32
172 7.2946 1558.00 1582.56 39.47
173 7.3078 1519.00 1581.85 38.97
174 7.3209 1451.00 1581.14 38.09
175 7.3340 1506.00 1580.42 38.81
176 7.3472 1550.00 1579.69 39.37
177 7.3603 1541.00 1578.96 39.26
178 7.3734 1469.00 1578.22 38.33
179 7.3866 1558.00 1577.48 39.47
180 7.3997 1505.00 1576.73 38.79
181 7.4128 1543.00 1575.97 39.28
182 7.4259 1511.00 1575.21 38.87
183 7.4391 1526.00 1574.45 39.06
184 7.4522 1458.00 1573.68 38.18
185 7.4653 1493.00 1572.90 38.64
186 7.4785 1560.00 1572.12 39.50
187 7.4916 1473.00 1571.33 38.38
188 7.5047 1470.00 1570.55 38.34
189 7.5179 1504.00 1569.75 38.78
190 7.5310 1499.00 1568.95 38.72
191 7.5441 1492.00 1568.15 38.63
192 7.5572 1496.00 1567.35 38.68
193 7.5704 1553.00 1566.54 39.41
194 7.5835 1489.00 1565.72 38.59
195 7.5966 1429.00 1564.91 37.80
196 7.6098 1490.00 1564.09 38.60
197 7.6229 1486.00 1563.27 38.55
198 7.6360 1568.00 1562.44 39.60
199 7.6492 1498.00 1561.61 38.70
200 7.6623 1562.00 1560.79 39.52
201 7.6754 1517.00 1559.95 38.95
202 7.6885 1549.00 1559.12 39.36
203 7.7017 1527.00 1558.29 39.08
204 7.7148 1580.00 1557.45 39.75
205 7.7279 1590.00 1556.62 39.87
206 7.7411 1508.00 1555.78 38.83
207 7.7542 1440.00 1554.94 37.95
208 7.7673 1562.00 1554.11 39.52
209 7.7805 1517.00 1553.27 38.95
210 7.7936 1495.00 1552.44 38.67
211 7.8067 1504.00 1551.60 38.78
212 7.8198 1496.00 1550.82 38.68
213 7.8330 1548.00 1549.99 39.34
214 7.8461 1455.00 1549.19 38.14
215 7.8592 1451.00 1548.37 38.09
216 7.8724 1465.00 1547.55 38.28
217 7.8855 1451.00 1546.74 38.09
218 7.8986 1590.00 1545.94 39.87
219 7.9118 1501.00 1545.14 38.74
220 7.9249 1534.00 1544.34 39.17
221 7.9380 1487.00 1543.56 38.56
222 7.9511 1532.00 1542.79 39.14
223 7.9643 1507.00 1542.02 38.82
224 7.9774 1510.00 1541.27 38.86
225 7.9905 1601.00 1540.54 40.01
226 8.0037 1534.00 1539.82 39.17
227 8.0168 1421.00 1539.11 37.70
228 8.0299 1489.00 1538.43 38.59
229 8.0431 1520.00 1537.77 38.99
230 8.0562 1478.00 1537.13 38.44
231 8.0693 1466.00 1536.53 38.29
232 8.0824 1499.00 1535.95 38.72
233 8.0956 1458.00 1535.42 38.18
234 8.1087 1497.00 1534.92 38.69
235 8.1218 1504.00 1534.48 38.78
236 8.1350 1504.00 1534.09 38.78
237 8.1481 1529.00 1533.76 39.10
238 8.1612 1557.00 1533.51 39.46
239 8.1744 1475.00 1534.30 38.41
240 8.1875 1529.00 1534.25 39.10
241 8.2006 1493.00 1534.80 38.64
242 8.2137 1446.00 1535.02 38.03
243 8.2269 1521.00 1535.40 39.00
244 8.2400 1517.00 1535.97 38.95
245 8.2531 1462.00 1536.78 38.24
246 8.2663 1541.00 1537.89 39.26
247 8.2794 1482.00 1539.37 38.50
248 8.2925 1518.00 1541.38 38.96
249 8.3057 1586.00 1544.21 39.82
250 8.3188 1524.00 1548.41 39.04
251 8.3319 1571.00 1555.05 39.64
252 8.3450 1596.00 1566.16 39.95
253 8.3582 1607.00 1585.21 40.09
254 8.3713 1725.00 1617.67 41.53
255 8.3844 1690.00 1671.29 41.11
256 8.3976 1798.00 1755.56 42.40
257 8.4107 1927.00 1880.08 43.90
258 8.4238 2155.00 2051.49 46.42
259 8.4370 2252.00 2269.58 47.46
260 8.4501 2535.00 2523.52 50.35
261 8.4632 2748.00 2789.59 52.42
262 8.4763 3163.00 3031.51 56.24
263 8.4895 3421.00 3205.54 58.49
264 8.5026 3517.00 3273.22 59.30
265 8.5157 3638.00 3218.48 60.32
266 8.5289 3235.00 3055.20 56.88
267 8.5420 2835.00 2819.30 53.24
268 8.5551 2516.00 2553.64 50.16
269 8.5683 2124.00 2295.53 46.09
270 8.5814 1889.00 2070.41 43.46
271 8.5945 1649.00 1890.72 40.61
272 8.6076 1606.00 1758.01 40.07
273 8.6208 1588.00 1666.43 39.85
274 8.6339 1607.00 1606.77 40.09
275 8.6470 1523.00 1569.54 39.03
276 8.6602 1541.00 1546.76 39.26
277 8.6733 1616.00 1532.68 40.20
278 8.6864 1562.00 1523.55 39.52
279 8.6996 1531.00 1517.16 39.13
280 8.7127 1524.00 1512.30 39.04
281 8.7258 1493.00 1508.35 38.64
282 8.7389 1416.00 1504.98 37.63
283 8.7521 1482.00 1502.02 38.50
284 8.7652 1514.00 1499.38 38.91
285 8.7783 1470.00 1496.99 38.34
286 8.7915 1401.00 1494.82 37.43
287 8.8046 1529.00 1492.83 39.10
288 8.8177 1498.00 1491.00 38.70
289 8.8309 1492.00 1489.31 38.63
290 8.8440 1440.00 1487.73 37.95
291 8.8571 1505.00 1486.26 38.79
292 8.8702 1468.00 1484.89 38.31
293 8.8834 1402.00 1483.62 37.44
294 8.8965 1443.00 1482.42 37.99
295 8.9096 1391.00 1481.31 37.30
296 8.9228 1416.00 1480.27 37.63
297 8.9359 1532.00 1479.31 39.14
298 8.9490 1445.00 1478.42 38.01
299 8.9622 1417.00 1477.61 37.64
300 8.9753 1491.00 1476.89 38.61
301 8.9884 1430.00 1476.25 37.82
302 9.0015 1421.00 1475.72 37.70
303 9.0147 1462.00 1475.31 38.24
304 9.0278 1484.00 1475.07 38.52
305 9.0409 1444.00 1475.10 38.00
306 9.0541 1509.00 1475.57 38.85
307 9.0672 1502.00 1476.79 38.76
308 9.0803 1401.00 1479.27 37.43
309 9.0935 1472.00 1483.76 38.37
310 9.1066 1520.00 1491.26 38.99
311 9.1197 1508.00 1502.85 38.83
312 9.1328 1552.00 1519.46 39.40
313 9.1460 1571.00 1541.43 39.64
314 9.1591 1562.00 1568.07 39.52
315 9.1722 1533.00 1597.33 39.15
316 9.1854 1547.00 1625.66 39.33
317 9.1985 1645.00 1648.36 40.56
318 9.2116 1526.00 1660.70 39.06
319 9.2248 1581.00 1659.89 39.76
320 9.2379 1583.00 1646.44 39.79
321 9.2510 1581.00 1623.72 39.76
322 9.2641 1465.00 1596.48 38.28
323 9.2773 1567.00 1569.22 39.59
324 9.2904 1521.00 1545.25 39.00
325 9.3035 1510.00 1526.43 38.86
326 9.3167 1471.00 1513.33 38.35
327 9.3298 1531.00 1505.61 39.13
328 9.3429 1492.00 1502.46 38.63
329 9.3561 1512.00 1503.09 38.88
330 9.3692 1478.00 1507.00 38.44
331 9.3823 1502.00 1514.35 38.76
332 9.3954 1618.00 1526.35 40.22
333 9.4086 1616.00 1545.93 40.20
334 9.4217 1736.00 1578.65 41.67
335 9.4348 1693.00 1633.87 41.15
336 9.4480 1844.00 1725.57 42.94
337 9.4611 1979.00 1872.08 44.49
338 9.4742 2153.00 2093.64 46.40
339 9.4874 2384.00 2407.26 48.83
340 9.5005 2692.00 2818.94 51.88
341 9.5136 3197.00 3315.49 56.54
342 9.5267 3707.00 3857.91 60.89
343 9.5399 4273.00 4379.20 65.37
344 9.5530 4826.00 4790.45 69.47
345 9.5661 5203.00 5003.07 72.13
346 9.5793 5052.00 4966.70 71.08
347 9.5924 4737.00 4693.02 68.83
348 9.6055 4217.00 4246.26 64.94
349 9.6187 3661.00 3714.41 60.51
350 9.6318 2894.00 3180.13 53.80
351 9.6449 2513.00 2702.95 50.13
352 9.6580 2217.00 2314.78 47.08
353 9.6712 1922.00 2023.35 43.84
354 9.6843 1807.00 1819.39 42.51
355 9.6974 1751.00 1684.97 41.85
356 9.7106 1601.00 1600.39 40.01
357 9.7237 1671.00 1548.51 40.88
358 9.7368 1529.00 1516.61 39.10
359 9.7500 1630.00 1496.24 40.37
360 9.7631 1545.00 1482.33 39.31
361 9.7762 1497.00 1472.05 38.69
362 9.7893 1517.00 1463.91 38.95
363 9.8025 1511.00 1457.15 38.87
364 9.8156 1571.00 1451.37 39.64
365 9.8287 1549.00 1446.31 39.36
366 9.8419 1461.00 1441.85 38.22
367 9.8550 1433.00 1437.87 37.85
368 9.8681 1392.00 1434.30 37.31
369 9.8813 1434.00 1431.06 37.87
370 9.8944 1418.00 1428.11 37.66
371 9.9075 1442.00 1424.99 37.97
372 9.9206 1461.00 1422.51 38.22
373 9.9338 1522.00 1420.01 39.01
374 9.9469 1475.00 1417.88 38.41
375 9.9600 1483.00 1415.90 38.51
376 9.9732 1416.00 1414.03 37.63
377 9.9863 1459.00 1412.28 38.20
378 9.9994 1423.00 1410.63 37.72
379 10.0126 1428.00 1409.06 37.79
380 10.0257 1419.00 1407.57 37.67
381 10.0388 1454.00 1406.15 38.13
382 10.0519 1455.00 1404.79 38.14
383 10.0651 1401.00 1403.49 37.43
384 10.0782 1450.00 1402.35 38.08
385 10.0913 1454.00 1401.16 38.13
386 10.1045 1389.00 1400.06 37.27
387 10.1176 1432.00 1398.94 37.84
388 10.1307 1412.00 1397.86 37.58
389 10.1439 1421.00 1396.82 37.70
390 10.1570 1442.00 1396.36 37.97
391 10.1701 1404.00 1395.39 37.47
392 10.1832 1431.00 1394.71 37.83
393 10.1964 1456.00 1393.80 38.16
394 10.2095 1392.00 1392.91 37.31
395 10.2226 1374.00 1392.04 37.07
396 10.2358 1426.00 1391.19 37.76
397 10.2489 1421.00 1390.37 37.70
398 10.2620 1419.00 1389.56 37.67
399 10.2752 1454.00 1388.77 38.13
400 10.2883 1409.00 1388.00 37.54
401 10.3014 1431.00 1387.25 37.83
402 10.3145 1455.00 1386.51 38.14
403 10.3277 1426.00 1385.79 37.76
404 10.3408 1469.00 1385.08 38.33
405 10.3539 1458.00 1384.39 38.18
406 10.3671 1388.00 1383.71 37.26
407 10.3802 1434.00 1383.04 37.87
408 10.3933 1449.00 1382.39 38.07
409 10.4065 1395.00 1381.74 37.35
410 10.4196 1412.00 1381.12 37.58
411 10.4327 1413.00 1380.50 37.59
412 10.4458 1465.00 1379.90 38.28
413 10.4590 1426.00 1379.30 37.76
414 10.4721 1440.00 1378.72 37.95
415 10.4852 1442.00 1378.15 37.97
416 10.4984 1403.00 1377.59 37.46
417 10.5115 1356.00 1377.05 36.82
418 10.5246 1449.00 1376.51 38.07
419 10.5378 1382.00 1375.98 37.18
420 10.5509 1422.00 1375.47 37.71
421 10.5640 1391.00 1374.97 37.30
422 10.5771 1391.00 1374.47 37.30
423 10.5903 1413.00 1373.99 37.59
424 10.6034 1340.00 1373.52 36.61
425 10.6165 1492.00 1373.01 38.63
426 10.6297 1432.00 1372.54 37.84
427 10.6428 1430.00 1372.11 37.82
428 10.6559 1462.00 1371.69 38.24
429 10.6691 1462.00 1371.28 38.24
430 10.6822 1404.00 1370.88 37.47
431 10.6953 1477.00 1370.50 38.43
432 10.7084 1392.00 1370.13 37.31
433 10.7216 1385.00 1369.78 37.22
434 10.7347 1419.00 1369.44 37.67
435 10.7478 1406.00 1369.12 37.50
436 10.7610 1353.00 1368.82 36.78
437 10.7741 1351.00 1368.55 36.76
438 10.7872 1427.00 1368.30 37.78
439 10.8004 1412.00 1368.11 37.58
440 10.8135 1479.00 1368.00 38.46
441 10.8266 1482.00 1368.01 38.50
442 10.8397 1417.00 1368.21 37.64
443 10.8529 1433.00 1368.69 37.85
444 10.8660 1537.00 1369.54 39.20
445 10.8791 1508.00 1370.85 38.83
446 10.8923 1529.00 1372.63 39.10
447 10.9054 1603.00 1374.81 40.04
448 10.9185 1588.00 1377.20 39.85
449 10.9317 1647.00 1379.46 40.58
450 10.9448 1723.00 1381.14 41.51
451 10.9579 1727.00 1380.87 41.56
452 10.9710 1739.00 1380.45 41.70
453 10.9842 1705.00 1378.52 41.29
454 10.9973 1660.00 1376.38 40.74
455 11.0104 1584.00 1373.97 39.80
456 11.0236 1562.00 1371.66 39.52
457 11.0367 1476.00 1369.70 38.42
458 11.0498 1443.00 1368.21 37.99
459 11.0630 1348.00 1367.22 36.72
460 11.0761 1462.00 1366.66 38.24
461 11.0892 1470.00 1366.47 38.34
462 11.1023 1561.00 1366.56 39.51
463 11.1155 1416.00 1366.86 37.63
464 11.1286 1410.00 1367.33 37.55
465 11.1417 1382.00 1367.95 37.18
466 11.1549 1396.00 1368.71 37.36
467 11.1680 1489.00 1369.62 38.59
468 11.1811 1410.00 1370.70 37.55
469 11.1943 1403.00 1371.97 37.46
470 11.2074 1472.00 1373.46 38.37
471 11.2205 1480.00 1375.22 38.47
472 11.2336 1462.00 1377.31 38.24
473 11.2468 1469.00 1379.83 38.33
474 11.2599 1443.00 1382.97 37.99
475 11.2730 1450.00 1387.03 38.08
476 11.2862 1488.00 1392.54 38.57
477 11.2993 1495.00 1400.41 38.67
478 11.3124 1574.00 1412.02 39.67
479 11.3256 1516.00 1429.32 38.94
480 11.3387 1625.00 1454.81 40.31
481 11.3518 1661.00 1491.36 40.76
482 11.3649 1654.00 1541.97 40.67
483 11.3781 1712.00 1609.47 41.38
484 11.3912 1870.00 1696.38 43.24
485 11.4043 2011.00 1804.64 44.84
486 11.4175 2193.00 1935.32 46.83
487 11.4306 2390.00 2088.78 48.89
488 11.4437 2401.00 2265.52 49.00
489 11.4569 2547.00 2464.46 50.47
490 11.4700 2687.00 2677.88 51.84
491 11.4831 2807.00 2886.49 52.98
492 11.4962 2758.00 3057.05 52.52
493 11.5094 2871.00 3149.01 53.58
494 11.5225 2836.00 3133.44 53.25
495 11.5356 2795.00 3008.89 52.87
496 11.5488 2553.00 2799.05 50.53
497 11.5619 2478.00 2542.09 49.78
498 11.5750 2163.00 2278.13 46.51
499 11.5882 1925.00 2038.14 43.87
500 11.6013 1729.00 1839.73 41.58
501 11.6144 1626.00 1688.21 40.32
502 11.6275 1515.00 1580.23 38.92
503 11.6407 1454.00 1507.69 38.13
504 11.6538 1499.00 1461.11 38.72
505 11.6669 1438.00 1431.96 37.92
506 11.6801 1401.00 1413.70 37.43
507 11.6932 1442.00 1401.87 37.97
508 11.7063 1416.00 1393.75 37.63
509 11.7195 1462.00 1387.77 38.24
510 11.7326 1470.00 1383.10 38.34
511 11.7457 1415.00 1379.28 37.62
512 11.7588 1380.00 1376.08 37.15
513 11.7720 1375.00 1373.35 37.08
514 11.7851 1418.00 1370.99 37.66
515 11.7982 1327.00 1368.94 36.43
516 11.8114 1386.00 1367.16 37.23
517 11.8245 1378.00 1365.59 37.12
518 11.8376 1383.00 1364.21 37.19
519 11.8508 1416.00 1362.98 37.63
520 11.8639 1420.00 1361.90 37.68
521 11.8770 1381.00 1360.93 37.16
522 11.8901 1416.00 1360.07 37.63
523 11.9033 1418.00 1359.30 37.66
524 11.9164 1412.00 1358.61 37.58
525 11.9295 1387.00 1358.00 37.24
526 11.9427 1453.00 1357.45 38.12
527 11.9558 1384.00 1356.95 37.20
528 11.9689 1405.00 1356.51 37.48
529 11.9821 1396.00 1356.11 37.36
530 11.9952 1398.00 1355.75 37.39
531 12.0083 1430.00 1355.43 37.82
532 12.0214 1408.00 1355.15 37.52
533 12.0346 1480.00 1354.90 38.47
534 12.0477 1342.00 1354.68 36.63
535 12.0608 1436.00 1354.49 37.89
536 12.0740 1349.00 1354.32 36.73
537 12.0871 1361.00 1354.17 36.89
538 12.1002 1455.00 1354.05 38.14
539 12.1134 1388.00 1353.94 37.26
540 12.1265 1405.00 1353.86 37.48
541 12.1396 1429.00 1353.79 37.80
542 12.1527 1422.00 1353.74 37.71
543 12.1659 1392.00 1354.79 37.31
544 12.1790 1358.00 1354.79 36.85
545 12.1921 1391.00 1354.81 37.30
546 12.2053 1421.00 1355.38 37.70
547 12.2184 1377.00 1355.44 37.11
548 12.2315 1467.00 1356.02 38.30
549 12.2447 1379.00 1356.11 37.13
550 12.2578 1432.00 1356.21 37.84
551 12.2709 1456.00 1356.59 38.16
552 12.2840 1437.00 1356.72 37.91
553 12.2972 1422.00 1356.87 37.71
554 12.3103 1356.00 1357.02 36.82
555 12.3234 1330.00 1357.19 36.47
556 12.3366 1403.00 1357.37 37.46
557 12.3497 1342.00 1357.55 36.63
558 12.3628 1326.00 1357.75 36.41
559 12.3760 1317.00 1357.97 36.29
560 12.3891 1342.00 1358.19 36.63
561 12.4022 1355.00 1358.42 36.81
562 12.4153 1299.00 1358.66 36.04
563 12.4285 1432.00 1358.92 37.84
564 12.4416 1409.00 1359.18 37.54
565 12.4547 1443.00 1359.46 37.99
566 12.4679 1377.00 1359.74 37.11
567 12.4810 1423.00 1360.04 37.72
568 12.4941 1420.00 1360.34 37.68
569 12.5073 1379.00 1360.66 37.13
570 12.5204 1418.00 1360.98 37.66
571 12.5335 1373.00 1361.32 37.05
572 12.5466 1367.00 1361.66 36.97
573 12.5598 1446.00 1362.02 38.03
574 12.5729 1374.00 1362.39 37.07
575 12.5860 1334.00 1362.77 36.52
576 12.5992 1439.00 1363.16 37.93
577 12.6123 1374.00 1363.57 37.07
578 12.6254 1389.00 1363.98 37.27
579 12.6386 1418.00 1364.41 37.66
580 12.6517 1377.00 1364.85 37.11
581 12.6648 1404.00 1365.30 37.47
582 12.6779 1452.00 1365.77 38.11
583 12.6911 1330.00 1366.25 36.47
584 12.7042 1323.00 1366.75 36.37
585 12.7173 1394.00 1367.26 37.34
586 12.7305 1370.00 1367.78 37.01
587 12.7436 1368.00 1368.32 36.99
588 12.7567 1377.00 1368.88 37.11
589 12.7699 1318.00 1369.46 36.30
590 12.7830 1371.00 1370.05 37.03
591 12.7961 1363.00 1370.55 36.92
592 12.8092 1451.00 1371.19 38.09
593 12.8224 1372.00 1371.79 37.04
594 12.8355 1406.00 1372.47 37.50
595 12.8486 1434.00 1373.18 37.87
596 12.8618 1366.00 1373.91 36.96
597 12.8749 1430.00 1374.10 37.82
598 12.8880 1417.00 1374.89 37.64
599 12.9012 1456.00 1375.43 38.16
600 12.9143 1327.00 1376.30 36.43
601 12.9274 1396.00 1377.20 37.36
602 12.9405 1426.00 1378.14 37.76
603 12.9537 1382.00 1379.12 37.18
604 12.9668 1423.00 1380.15 37.72
605 12.9799 1383.00 1381.22 37.19
606 12.9931 1428.00 1382.35 37.79
607 13.0062 1413.00 1383.53 37.59
608 13.0193 1422.00 1384.78 37.71
609 13.0325 1436.00 1386.09 37.89
610 13.0456 1415.00 1387.49 37.62
611 13.0587 1484.00 1388.97 38.52
612 13.0718 1380.00 1390.54 37.15
613 13.0850 1407.00 1392.22 37.51
614 13.0981 1432.00 1394.11 37.84
615 13.1112 1458.00 1396.05 38.18
616 13.1244 1385.00 1398.13 37.22
617 13.1375 1396.00 1400.43 37.36
618 13.1506 1469.00 1402.87 38.33
619 13.1638 1418.00 1405.54 37.66
620 13.1769 1458.00 1408.45 38.18
621 13.1900 1414.00 1411.66 37.60
622 13.2031 1431.00 1415.20 37.83
623 13.2163 1452.00 1419.14 38.11
624 13.2294 1472.00 1423.54 38.37
625 13.2425 1462.00 1428.49 38.24
626 13.2557 1472.00 1434.10 38.37
627 13.2688 1493.00 1440.49 38.64
628 13.2819 1468.00 1447.84 38.31
629 13.2951 1474.00 1456.43 38.39
630 13.3082 1530.00 1466.64 39.12
631 13.3213 1546.00 1479.18 39.32
632 13.3344 1541.00 1495.32 39.26
633 13.3476 1639.00 1517.47 40.48
634 13.3607 1594.00 1549.91 39.92
635 13.3738 1705.00 1599.80 41.29
636 13.3870 1831.00 1678.08 42.79
637 13.4001 1855.00 1799.45 43.07
638 13.4132 2140.00 1981.08 46.26
639 13.4264 2231.00 2238.87 47.23
640 13.4395 2651.00 2582.05 51.49
641 13.4526 3076.00 3006.62 55.46
642 13.4657 3470.00 3488.69 58.91
643 13.4789 3975.00 3979.67 63.05
644 13.4920 4358.00 4408.33 66.02
645 13.5051 4670.00 4705.08 68.34
646 13.5183 4978.00 4837.03 70.55
647 13.5314 4920.00 4811.71 70.14
648 13.5445 4745.00 4654.79 68.88
649 13.5577 4628.00 4396.89 68.03
650 13.5708 4247.00 4067.07 65.17
651 13.5839 3840.00 3693.82 61.97
652 13.5970 3394.00 3308.67 58.26
653 13.6102 3038.00 2932.25 55.12
654 13.6233 2603.00 2588.63 51.02
655 13.6364 2325.00 2296.52 48.22
656 13.6496 2075.00 2060.07 45.55
657 13.6627 1905.00 1879.49 43.65
658 13.6758 1675.00 1748.30 40.93
659 13.6890 1635.00 1656.90 40.44
660 13.7021 1587.00 1595.23 39.84
661 13.7152 1557.00 1554.32 39.46
662 13.7283 1525.00 1528.29 39.05
663 13.7415 1507.00 1509.73 38.82
664 13.7546 1500.00 1496.49 38.73
665 13.7677 1597.00 1487.16 39.96
666 13.7809 1468.00 1479.38 38.31
667 13.7940 1469.00 1473.08 38.33
668 13.8071 1427.00 1467.88 37.78
669 13.8203 1521.00 1463.52 39.00
670 13.8334 1374.00 1459.86 37.07
671 13.8465 1551.00 1456.77 39.38
672 13.8596 1513.00 1454.16 38.90
673 13.8728 1481.00 1451.97 38.48
674 13.8859 1460.00 1450.13 38.21
675 13.8990 1511.00 1448.60 38.87
676 13.9122 1510.00 1447.34 38.86
677 13.9253 1421.00 1446.31 37.70
678 13.9384 1339.00 1445.49 36.59
679 13.9516 1433.00 1444.85 37.85
680 13.9647 1356.00 1444.39 36.82
681 13.9778 1407.00 1444.07 37.51
682 13.9909 1440.00 1443.88 37.95
683 14.0041 1467.00 1443.83 38.30
684 14.0172 1376.00 1443.89 37.09
685 14.0303 1423.00 1444.05 37.72
686 14.0435 1467.00 1444.32 38.30
687 14.0566 1398.00 1444.68 37.39
688 14.0697 1366.00 1445.14 36.96
689 14.0829 1360.00 1445.69 36.88
690 14.0960 1468.00 1446.32 38.31
691 14.1091 1422.00 1447.04 37.71
692 14.1222 1453.00 1447.85 38.12
693 14.1354 1394.00 1448.74 37.34
694 14.1485 1436.00 1449.73 37.89
695 14.1616 1424.00 1450.81 37.74
696 14.1748 1433.00 1451.99 37.85
697 14.1879 1485.00 1453.28 38.54
698 14.2010 1419.00 1454.69 37.67
699 14.2142 1457.00 1456.23 38.17
700 14.2273 1414.00 1457.93 37.60
701 14.2404 1462.00 1459.82 38.24
702 14.2535 1488.00 1461.96 38.57
703 14.2667 1394.00 1464.47 37.34
704 14.2798 1453.00 1467.56 38.12
705 14.2929 1435.00 1471.61 37.88
706 14.3061 1417.00 1477.23 37.64
707 14.3192 1446.00 1485.31 38.03
708 14.3323 1478.00 1497.03 38.44
709 14.3455 1467.00 1513.63 38.30
710 14.3586 1508.00 1536.14 38.83
711 14.3717 1500.00 1564.80 38.73
712 14.3848 1539.00 1598.59 39.23
713 14.3980 1545.00 1634.71 39.31
714 14.4111 1527.00 1668.16 39.08
715 14.4242 1586.00 1692.59 39.82
716 14.4374 1533.00 1702.96 39.15
717 14.4505 1505.00 1698.28 38.79
718 14.4636 1518.00 1681.02 38.96
719 14.4768 1516.00 1655.31 38.94
720 14.4899 1556.00 1626.28 39.45
721 14.5030 1527.00 1598.70 39.08
722 14.5161 1529.00 1575.72 39.10
723 14.5293 1524.00 1558.69 39.04
724 14.5424 1534.00 1547.65 39.17
725 14.5555 1490.00 1541.83 38.60
726 14.5687 1494.00 1540.17 38.65
727 14.5818 1494.00 1541.64 38.65
728 14.5949 1527.00 1545.42 39.08
729 14.6081 1482.00 1550.95 38.50
730 14.6212 1537.00 1557.93 39.20
731 14.6343 1551.00 1566.24 39.38
732 14.6474 1471.00 1575.91 38.35
733 14.6606 1602.00 1587.07 40.03
734 14.6737 1621.00 1599.94 40.26
735 14.6868 1608.00 1614.82 40.10
736 14.7000 1649.00 1632.12 40.61
737 14.7131 1661.00 1652.43 40.76
738 14.7262 1674.00 1676.63 40.91
739 14.7394 1720.00 1706.21 41.47
740 14.7525 1776.00 1743.88 42.14
741 14.7656 1848.00 1794.61 42.99
742 14.7787 2021.00 1867.47 44.96
743 14.7919 2069.00 1977.90 45.49
744 14.8050 2326.00 2150.04 48.23
745 14.8181 2572.00 2417.63 50.71
746 14.8313 2974.00 2821.15 54.53
747 14.8444 3425.00 3399.12 58.52
748 14.8575 4150.00 4178.76 64.42
749 14.8707 5044.00 5151.99 71.02
750 14.8838 5853.00 6264.05 76.50
751 14.8969 6841.00 7392.25 82.71
752 14.9100 7934.00 8348.88 89.07
753 14.9232 8824.00 8936.18 93.94
754 14.9363 8939.00 9049.34 94.55
755 14.9494 8824.00 8722.69 93.94
756 14.9626 8245.00 8075.34 90.80
757 14.9757 7348.00 7269.80 85.72
758 14.9888 6444.00 6481.39 80.27
759 15.0020 5732.00 5846.57 75.71
760 15.0151 5414.00 5425.11 73.58
761 15.0282 5114.00 5197.15 71.51
762 15.0413 4940.00 5079.54 70.29
763 15.0545 4962.00 4963.02 70.44
764 15.0676 4911.00 4768.11 70.08
765 15.0807 4677.00 4471.14 68.39
766 15.0939 4299.00 4085.12 65.57
767 15.1070 3711.00 3645.90 60.92
768 15.1201 3190.00 3203.80 56.48
769 15.1333 2711.00 2803.95 52.07
770 15.1464 2447.00 2472.07 49.47
771 15.1595 2147.00 2215.15 46.34
772 15.1726 2062.00 2027.40 45.41
773 15.1858 1865.00 1896.23 43.19
774 15.1989 1784.00 1807.26 42.24
775 15.2120 1711.00 1747.44 41.36
776 15.2252 1667.00 1706.56 40.83
777 15.2383 1660.00 1677.54 40.74
778 15.2514 1668.00 1655.86 40.84
779 15.2646 1618.00 1638.83 40.22
780 15.2777 1547.00 1624.92 39.33
781 15.2908 1519.00 1613.25 38.97
782 15.3039 1501.00 1603.30 38.74
783 15.3171 1535.00 1594.73 39.18
784 15.3302 1571.00 1587.28 39.64
785 15.3433 1518.00 1580.79 38.96
786 15.3565 1500.00 1575.11 38.73
787 15.3696 1505.00 1570.11 38.79
788 15.3827 1470.00 1565.71 38.34
789 15.3959 1493.00 1561.83 38.64
790 15.4090 1518.00 1558.39 38.96
791 15.4221 1584.00 1555.35 39.80
792 15.4352 1547.00 1552.65 39.33
793 15.4484 1533.00 1550.26 39.15
794 15.4615 1494.00 1548.13 38.65
795 15.4746 1543.00 1546.25 39.28
796 15.4878 1518.00 1544.59 38.96
797 15.5009 1418.00 1543.11 37.66
798 15.5140 1455.00 1541.82 38.14
799 15.5272 1469.00 1540.67 38.33
800 15.5403 1444.00 1539.67 38.00
801 15.5534 1455.00 1538.80 38.14
802 15.5665 1464.00 1538.04 38.26
803 15.5797 1350.00 1537.39 36.74
804 15.5928 1476.00 1536.84 38.42
805 15.6059 1490.00 1536.37 38.60
806 15.6191 1464.00 1535.99 38.26
807 15.6322 1400.00 1535.68 37.42
808 15.6453 1422.00 1535.44 37.71
809 15.6585 1407.00 1535.27 37.51
810 15.6716 1497.00 1535.15 38.69
811 15.6847 1428.00 1535.09 37.79
812 15.6978 1499.00 1535.08 38.72
813 15.7110 1409.00 1535.11 37.54
814 15.7241 1460.00 1536.52 38.21
815 15.7372 1406.00 1536.67 37.50
816 15.7504 1551.00 1536.85 39.38
817 15.7635 1425.00 1537.64 37.75
818 15.7766 1457.00 1537.90 38.17
819 15.7898 1411.00 1538.20 37.56
820 15.8029 1446.00 1538.49 38.03
821 15.8160 1447.00 1538.85 38.04
822 15.8291 1428.00 1542.51 37.79
823 15.8423 1445.00 1542.99 38.01
824 15.8554 1474.00 1543.49 38.39
825 15.8685 1439.00 1544.02 37.93
826 15.8817 1406.00 1546.23 37.50
827 15.8948 1456.00 1546.84 38.16
828 15.9079 1475.00 1547.47 38.41
829 15.9211 1448.00 1548.12 38.05
830 15.9342 1509.00 1548.80 38.85
831 15.9473 1467.00 1549.49 38.30
832 15.9604 1410.00 1550.21 37.55
833 15.9736 1408.00 1550.95 37.52
834 15.9867 1430.00 1551.70 37.82
835 15.9998 1432.00 1552.47 37.84
836 16.0130 1474.00 1553.27 38.39
837 16.0261 1389.00 1554.08 37.27
838 16.0392 1471.00 1554.91 38.35
839 16.0524 1525.00 1555.76 39.05
840 16.0655 1487.00 1556.63 38.56
841 16.0786 1417.00 1557.51 37.64
842 16.0917 1498.00 1558.42 38.70
843 16.1049 1425.00 1559.34 37.75
844 16.1180 1442.00 1560.28 37.97
845 16.1311 1430.00 1561.24 37.82
846 16.1443 1410.00 1562.22 37.55
847 16.1574 1416.00 1563.22 37.63
848 16.1705 1452.00 1564.24 38.11
849 16.1837 1361.00 1565.29 36.89
850 16.1968 1440.00 1566.35 37.95
851 16.2099 1436.00 1567.43 37.89
852 16.2230 1421.00 1568.54 37.70
853 16.2362 1476.00 1569.67 38.42
854 16.2493 1452.00 1568.34 38.11
855 16.2624 1471.00 1568.73 38.35
856 16.2756 1543.00 1570.00 39.28
857 16.2887 1481.00 1570.05 38.48
858 16.3018 1489.00 1570.98 38.59
859 16.3150 1491.00 1572.37 38.61
860 16.3281 1488.00 1573.78 38.57
861 16.3412 1491.00 1575.23 38.61
862 16.3543 1464.00 1576.71 38.26
863 16.3675 1444.00 1578.23 38.00
864 16.3806 1522.00 1578.53 39.01
865 16.3937 1489.00 1580.15 38.59
866 16.4069 1539.00 1581.82 39.23
867 16.4200 1506.00 1582.91 38.81
868 16.4331 1508.00 1584.69 38.83
869 16.4463 1455.00 1586.52 38.14
870 16.4594 1469.00 1588.41 38.33
871 16.4725 1489.00 1590.36 38.59
872 16.4856 1479.00 1592.39 38.46
873 16.4988 1430.00 1594.49 37.82
874 16.5119 1487.00 1596.67 38.56
875 16.5250 1478.00 1598.94 38.44
876 16.5382 1544.00 1601.31 39.29
877 16.5513 1506.00 1603.79 38.81
878 16.5644 1446.00 1606.38 38.03
879 16.5776 1489.00 1609.10 38.59
880 16.5907 1520.00 1611.97 38.99
881 16.6038 1554.00 1615.00 39.42
882 16.6169 1539.00 1618.20 39.23
883 16.6301 1529.00 1621.59 39.10
884 16.6432 1520.00 1625.20 38.99
885 16.6563 1553.00 1629.05 39.41
886 16.6695 1563.00 1633.18 39.53
887 16.6826 1541.00 1637.61 39.26
888 16.6957 1504.00 1642.38 38.78
889 16.7089 1535.00 1647.55 39.18
890 16.7220 1595.00 1653.16 39.94
891 16.7351 1532.00 1660.29 39.14
892 16.7482 1565.00 1667.02 39.56
893 16.7614 1631.00 1674.43 40.39
894 16.7745 1519.00 1682.62 38.97
895 16.7876 1533.00 1692.25 39.15
896 16.8008 1620.00 1702.47 40.25
897 16.8139 1534.00 1713.98 39.17
898 16.8270 1594.00 1727.05 39.92
899 16.8402 1618.00 1742.05 40.22
900 16.8533 1640.00 1759.49 40.50
901 16.8664 1642.00 1780.24 40.52
902 16.8795 1679.00 1805.73 40.98
903 16.8927 1742.00 1838.52 41.74
904 16.9058 1763.00 1882.97 41.99
905 16.9189 1819.00 1946.14 42.65
906 16.9321 1860.00 2038.40 43.13
907 16.9452 2056.00 2173.38 45.34
908 16.9583 2159.00 2366.23 46.47
909 16.9715 2521.00 2630.48 50.21
910 16.9846 2734.00 2973.08 52.29
911 16.9977 3131.00 3388.92 55.96
912 17.0108 3740.00 3855.52 61.16
913 17.0240 4269.00 4328.58 65.34
914 17.0371 4752.00 4750.84 68.93
915 17.0502 5146.00 5088.45 71.74
916 17.0634 5560.00 5367.41 74.57
917 17.0765 5773.00 5652.84 75.98
918 17.0896 6024.00 6006.73 77.61
919 17.1028 6172.00 6473.56 78.56
920 17.1159 7072.00 7063.36 84.10
921 17.1290 7596.00 7715.50 87.15
922 17.1421 8333.00 8282.49 91.29
923 17.1553 8919.00 8581.43 94.44
924 17.1684 9000.00 8504.20 94.87
925 17.1815 8922.00 8076.85 94.46
926 17.1947 8078.00 7381.77 89.88
927 17.2078 6723.00 6500.12 81.99
928 17.2209 5613.00 5549.19 74.92
929 17.2341 4484.00 4649.93 66.96
930 17.2472 3633.00 3880.84 60.27
931 17.2603 2920.00 3271.98 54.04
932 17.2734 2605.00 2818.70 51.04
933 17.2866 2316.00 2497.88 48.12
934 17.2997 2099.00 2279.26 45.81
935 17.3128 2037.00 2133.54 45.13
936 17.3260 1977.00 2036.41 44.46
937 17.3391 1908.00 1970.13 43.68
938 17.3522 1887.00 1922.90 43.44
939 17.3654 1799.00 1887.50 42.41
940 17.3785 1792.00 1859.70 42.33
941 17.3916 1879.00 1837.11 43.35
942 17.4047 1761.00 1818.34 41.96
943 17.4179 1695.00 1802.51 41.17
944 17.4310 1783.00 1789.06 42.23
945 17.4441 1687.00 1777.55 41.07
946 17.4573 1709.00 1767.66 41.34
947 17.4704 1665.00 1759.15 40.80
948 17.4835 1701.00 1751.81 41.24
949 17.4967 1644.00 1745.48 40.55
950 17.5098 1680.00 1740.01 40.99
951 17.5229 1680.00 1735.30 40.99
952 17.5360 1646.00 1731.25 40.57
953 17.5492 1641.00 1727.80 40.51
954 17.5623 1692.00 1724.88 41.13
955 17.5754 1721.00 1722.43 41.48
956 17.5886 1645.00 1720.41 40.56
957 17.6017 1670.00 1718.79 40.87
958 17.6148 1676.00 1717.54 40.94
959 17.6280 1677.00 1716.63 40.95
960 17.6411 1683.00 1716.04 41.02
961 17.6542 1657.00 1715.77 40.71
962 17.6673 1664.00 1715.80 40.79
963 17.6805 1658.00 1718.76 40.72
964 17.6936 1668.00 1719.44 40.84
965 17.7067 1583.00 1720.42 39.79
966 17.7199 1687.00 1721.71 41.07
967 17.7330 1594.00 1724.66 39.92
968 17.7461 1646.00 1726.65 40.57
969 17.7593 1738.00 1729.02 41.69
970 17.7724 1769.00 1731.90 42.06
971 17.7855 1690.00 1735.12 41.11
972 17.7986 1760.00 1738.86 41.95
973 17.8118 1750.00 1744.00 41.83
974 17.8249 1717.00 1749.00 41.44
975 17.8380 1729.00 1755.16 41.58
976 17.8512 1717.00 1761.89 41.44
977 17.8643 1752.00 1770.46 41.86
978 17.8774 1798.00 1779.92 42.40
979 17.8906 1763.00 1791.53 41.99
980 17.9037 1847.00 1806.39 42.98
981 17.9168 1850.00 1826.76 43.01
982 17.9299 1923.00 1856.82 43.85
983 17.9431 1992.00 1899.30 44.63
984 17.9562 2025.00 1963.24 45.00
985 17.9693 2065.00 2058.26 45.44
986 17.9825 2238.00 2195.10 47.31
987 17.9956 2314.00 2380.07 48.10
988 18.0087 2557.00 2615.42 50.57
989 18.0219 2824.00 2891.96 53.14
990 18.0350 3089.00 3184.44 55.58
991 18.0481 3403.00 3447.70 58.34
992 18.0612 3323.00 3625.43 57.65
993 18.0744 3612.00 3682.22 60.10
994 18.0875 3582.00 3621.21 59.85
995 18.1006 3389.00 3469.22 58.22
996 18.1138 3342.00 3251.75 57.81
997 18.1269 2889.00 2999.59 53.75
998 18.1400 2754.00 2748.10 52.48
999 18.1532 2531.00 2526.26 50.31
1000 18.1663 2294.00 2348.15 47.90
1001 18.1794 2207.00 2216.05 46.98
1002 18.1925 2230.00 2125.42 47.22
1003 18.2057 2136.00 2068.65 46.22
1004 18.2188 2053.00 2037.68 45.31
1005 18.2319 2058.00 2025.53 45.37
1006 18.2451 2118.00 2027.03 46.02
1007 18.2582 2141.00 2039.04 46.27
1008 18.2713 2152.00 2059.74 46.39
1009 18.2845 2189.00 2089.14 46.79
1010 18.2976 2312.00 2128.63 48.08
1011 18.3107 2443.00 2181.67 49.43
1012 18.3238 2560.00 2254.82 50.60
1013 18.3370 2579.00 2360.24 50.78
1014 18.3501 2885.00 2518.33 53.71
1015 18.3632 3152.00 2760.49 56.14
1016 18.3764 3628.00 3128.64 60.23
1017 18.3895 3994.00 3676.94 63.20
1018 18.4026 4681.00 4454.00 68.42
1019 18.4158 5634.00 5490.70 75.06
1020 18.4289 6544.00 6781.72 80.89
1021 18.4420 7819.00 8254.24 88.43
1022 18.4551 9282.00 9744.15 96.34
1023 18.4683 10650.00 10986.10 103.20
1024 18.4814 11652.00 11696.70 107.94
1025 18.4945 11791.00 11761.60 108.59
1026 18.5077 11645.00 11258.10 107.91
1027 18.5208 10793.00 10324.30 103.89
1028 18.5339 9336.00 9091.31 96.62
1029 18.5471 7921.00 7720.51 89.00
1030 18.5602 6432.00 6392.79 80.20
1031 18.5733 5205.00 5237.50 72.15
1032 18.5864 4172.00 4309.66 64.59
1033 18.5996 3379.00 3609.94 58.13
1034 18.6127 2935.00 3108.51 54.18
1035 18.6258 2663.00 2763.60 51.60
1036 18.6390 2463.00 2532.69 49.63
1037 18.6521 2387.00 2379.60 48.86
1038 18.6652 2274.00 2276.96 47.69
1039 18.6784 2098.00 2206.14 45.80
1040 18.6915 2159.00 2155.39 46.47
1041 18.7046 2087.00 2117.81 45.68
1042 18.7177 2143.00 2089.44 46.29
1043 18.7309 2036.00 2068.06 45.12
1044 18.7440 2055.00 2052.38 45.33
1045 18.7571 2037.00 2041.63 45.13
1046 18.7703 2062.00 2035.35 45.41
1047 18.7834 2005.00 2033.31 44.78
1048 18.7965 2027.00 2035.51 45.02
1049 18.8097 2044.00 2042.14 45.21
1050 18.8228 2097.00 2053.74 45.79
1051 18.8359 2028.00 2071.36 45.03
1052 18.8490 2185.00 2096.98 46.74
1053 18.8622 2207.00 2134.29 46.98
1054 18.8753 2264.00 2189.74 47.58
1055 18.8884 2350.00 2273.99 48.48
1056 18.9016 2508.00 2402.87 50.08
1057 18.9147 2694.00 2597.60 51.90
1058 18.9278 2963.00 2882.54 54.43
1059 18.9410 3290.00 3279.92 57.36
1060 18.9541 3739.00 3802.11 61.15
1061 18.9672 4353.00 4442.22 65.98
1062 18.9803 5136.00 5161.45 71.67
1063 18.9935 5819.00 5877.10 76.28
1064 19.0066 6454.00 6464.00 80.34
1065 19.0197 6788.00 6808.78 82.39
1066 19.0329 6988.00 6889.42 83.59
1067 19.0460 7124.00 6767.58 84.40
1068 19.0591 6940.00 6509.74 83.31
1069 19.0723 6392.00 6167.48 79.95
1070 19.0854 6013.00 5802.02 77.54
1071 19.0985 5648.00 5468.78 75.15
1072 19.1116 5203.00 5190.29 72.13
1073 19.1248 5071.00 4966.01 71.21
1074 19.1379 4922.00 4800.23 70.16
1075 19.1510 4829.00 4703.34 69.49
1076 19.1642 4882.00 4675.99 69.87
1077 19.1773 4713.00 4707.33 68.65
1078 19.1904 4845.00 4783.37 69.61
1079 19.2036 4874.00 4893.88 69.81
1080 19.2167 5102.00 5035.69 71.43
1081 19.2298 5204.00 5197.03 72.14
1082 19.2429 5442.00 5335.00 73.77
1083 19.2561 5448.00 5383.58 73.81
1084 19.2692 5356.00 5297.99 73.18
1085 19.2823 5280.00 5090.58 72.66
1086 19.2955 5001.00 4807.86 70.72
1087 19.3086 4564.00 4489.92 67.56
1088 19.3217 4250.00 4169.28 65.19
1089 19.3349 3910.00 3889.58 62.53
1090 19.3480 3649.00 3691.00 60.41
1091 19.3611 3501.00 3591.72 59.17
1092 19.3742 3463.00 3581.64 58.85
1093 19.3874 3483.00 3625.83 59.02
1094 19.4005 3544.00 3668.74 59.53
1095 19.4136 3424.00 3661.33 58.51
1096 19.4268 3481.00 3583.57 59.00
1097 19.4399 3332.00 3445.67 57.72
1098 19.4530 3078.00 3263.29 55.48
1099 19.4662 2984.00 3048.90 54.63
1100 19.4793 2748.00 2824.02 52.42
1101 19.4924 2604.00 2614.21 51.03
1102 19.5055 2458.00 2437.88 49.58
1103 19.5187 2357.00 2302.61 48.55
1104 19.5318 2117.00 2208.27 46.01
1105 19.5449 2173.00 2149.95 46.62
1106 19.5581 2007.00 2120.03 44.80
1107 19.5712 2014.00 2109.10 44.88
1108 19.5843 1988.00 2106.47 44.59
1109 19.5975 1985.00 2101.80 44.55
1110 19.6106 1895.00 2088.82 43.53
1111 19.6237 1955.00 2067.07 44.22
1112 19.6368 1895.00 2038.59 43.53
1113 19.6500 1876.00 2005.10 43.31
1114 19.6631 1861.00 1968.78 43.14
1115 19.6762 1958.00 1932.97 44.25
1116 19.6894 1854.00 1900.67 43.06
1117 19.7025 1908.00 1873.49 43.68
1118 19.7156 1881.00 1851.69 43.37
1119 19.7288 1888.00 1834.79 43.45
1120 19.7419 1814.00 1821.94 42.59
1121 19.7550 1863.00 1812.23 43.16
1122 19.7681 1852.00 1804.79 43.03
1123 19.7813 1822.00 1798.95 42.68
1124 19.7944 1794.00 1794.22 42.36
1125 19.8075 1852.00 1788.32 43.03
1126 19.8207 1931.00 1781.13 43.94
1127 19.8338 1863.00 1778.24 43.16
1128 19.8469 1809.00 1775.68 42.53
1129 19.8601 1848.00 1770.52 42.99
1130 19.8732 1794.00 1768.54 42.36
1131 19.8863 1957.00 1766.76 44.24
1132 19.8994 1872.00 1765.16 43.27
1133 19.9126 1793.00 1763.73 42.34
1134 19.9257 1840.00 1762.46 42.90
1135 19.9388 1808.00 1761.33 42.52
1136 19.9520 1845.00 1760.32 42.95
1137 19.9651 1882.00 1759.44 43.38
1138 19.9782 1907.00 1758.68 43.67
1139 19.9914 1825.00 1758.04 42.72
1140 20.0045 1851.00 1757.52 43.02
1141 20.0176 1895.00 1757.12 43.53
1142 20.0307 1899.00 1756.84 43.58
1143 20.0439 1879.00 1756.71 43.35
1144 20.0570 1836.00 1756.76 42.85
1145 20.0701 1819.00 1757.05 42.65
1146 20.0833 1789.00 1757.69 42.30
1147 20.0964 1817.00 1758.85 42.63
1148 20.1095 1861.00 1760.80 43.14
1149 20.1227 1913.00 1763.90 43.74
1150 20.1358 1827.00 1769.27 42.74
1151 20.1489 1814.00 1775.96 42.59
1152 20.1620 1847.00 1784.91 42.98
1153 20.1752 1849.00 1796.08 43.00
1154 20.1883 1861.00 1809.22 43.14
1155 20.2014 1843.00 1822.28 42.93
1156 20.2146 1869.00 1833.55 43.23
1157 20.2277 1859.00 1840.17 43.12
1158 20.2408 1946.00 1841.30 44.11
1159 20.2540 1773.00 1837.82 42.11
1160 20.2671 1872.00 1831.14 43.27
1161 20.2802 1964.00 1821.92 44.32
1162 20.2933 1901.00 1811.25 43.60
1163 20.3065 1932.00 1800.56 43.95
1164 20.3196 1882.00 1791.11 43.38
1165 20.3327 1979.00 1783.58 44.49
1166 20.3459 1824.00 1778.14 42.71
1167 20.3590 1821.00 1771.93 42.67
1168 20.3721 1851.00 1770.99 43.02
1169 20.3853 1818.00 1770.76 42.64
1170 20.3984 1840.00 1770.40 42.90
1171 20.4115 1909.00 1772.60 43.69
1172 20.4246 1807.00 1776.32 42.51
1173 20.4378 1815.00 1780.72 42.60
1174 20.4509 1882.00 1785.67 43.38
1175 20.4640 1834.00 1792.70 42.83
1176 20.4772 1919.00 1800.95 43.81
1177 20.4903 1948.00 1810.49 44.14
1178 20.5034 1923.00 1821.00 43.85
1179 20.5166 1954.00 1834.12 44.20
1180 20.5297 1985.00 1850.88 44.55
1181 20.5428 1983.00 1876.19 44.53
1182 20.5559 1987.00 1913.97 44.58
1183 20.5691 2082.00 1969.65 45.63
1184 20.5822 2060.00 2048.37 45.39
1185 20.5953 2144.00 2153.30 46.30
1186 20.6085 2368.00 2287.47 48.66
1187 20.6216 2486.00 2443.37 49.86
1188 20.6347 2682.00 2607.03 51.79
1189 20.6479 2727.00 2747.70 52.22
1190 20.6610 2695.00 2836.85 51.91
1191 20.6741 2891.00 2857.17 53.77
1192 20.6872 2851.00 2817.72 53.39
1193 20.7004 2755.00 2734.02 52.49
1194 20.7135 2586.00 2617.93 50.85
1195 20.7266 2512.00 2479.65 50.12
1196 20.7398 2405.00 2335.45 49.04
1197 20.7529 2254.00 2200.90 47.48
1198 20.7660 2128.00 2087.89 46.13
1199 20.7792 2070.00 1998.49 45.50
1200 20.7923 2090.00 1930.90 45.72
1201 20.8054 2053.00 1882.61 45.31
1202 20.8185 1976.00 1848.96 44.45
1203 20.8317 1958.00 1825.92 44.25
1204 20.8448 1932.00 1810.14 43.95
1205 20.8579 1941.00 1799.13 44.06
1206 20.8711 1950.00 1791.17 44.16
1207 20.8842 1939.00 1785.18 44.03
1208 20.8973 1928.00 1780.51 43.91
1209 20.9105 1932.00 1776.76 43.95
1210 20.9236 1913.00 1773.71 43.74
1211 20.9367 1879.00 1771.06 43.35
1212 20.9498 1876.00 1769.00 43.31
1213 20.9630 1848.00 1767.31 42.99
1214 20.9761 1960.00 1765.95 44.27
1215 20.9892 1886.00 1764.78 43.43
1216 21.0024 1905.00 1763.92 43.65
1217 21.0155 1836.00 1763.27 42.85
1218 21.0286 1882.00 1762.83 43.38
1219 21.0418 1860.00 1762.55 43.13
1220 21.0549 1926.00 1762.45 43.89
1221 21.0680 1860.00 1762.50 43.13
1222 21.0811 2000.00 1762.71 44.72
1223 21.0943 1778.00 1763.07 42.17
1224 21.1074 1857.00 1763.59 43.09
1225 21.1205 1938.00 1764.27 44.02
1226 21.1337 1817.00 1765.11 42.63
1227 21.1468 1833.00 1766.13 42.81
1228 21.1599 1904.00 1767.34 43.63
1229 21.1731 1848.00 1768.75 42.99
1230 21.1862 1860.00 1770.69 43.13
1231 21.1993 1972.00 1772.73 44.41
1232 21.2124 1919.00 1774.91 43.81
1233 21.2256 1947.00 1777.43 44.12
1234 21.2387 1889.00 1780.32 43.46
1235 21.2518 1946.00 1783.66 44.11
1236 21.2650 1888.00 1787.52 43.45
1237 21.2781 1898.00 1792.02 43.57
1238 21.2912 2023.00 1797.32 44.98
1239 21.3044 1869.00 1803.63 43.23
1240 21.3175 1957.00 1811.33 44.24
1241 21.3306 1955.00 1821.04 44.22
1242 21.3437 1893.00 1833.82 43.51
1243 21.3569 1975.00 1851.40 44.44
1244 21.3700 1968.00 1876.49 44.36
1245 21.3831 1959.00 1912.87 44.26
1246 21.3963 1970.00 1965.31 44.38
1247 21.4094 2115.00 2038.95 45.99
1248 21.4225 2291.00 2138.19 47.86
1249 21.4357 2247.00 2265.02 47.40
1250 21.4488 2430.00 2417.01 49.29
1251 21.4619 2540.00 2584.48 50.40
1252 21.4750 2624.00 2747.58 51.22
1253 21.4882 2746.00 2878.18 52.40
1254 21.5013 2868.00 2954.42 53.55
1255 21.5144 2856.00 2976.92 53.44
1256 21.5276 2922.00 2961.47 54.06
1257 21.5407 2825.00 2918.90 53.15
1258 21.5538 2916.00 2851.01 54.00
1259 21.5670 2840.00 2760.46 53.29
1260 21.5801 2801.00 2656.22 52.92
1261 21.5932 2720.00 2550.75 52.15
1262 21.6063 2662.00 2457.10 51.59
1263 21.6195 2518.00 2383.74 50.18
1264 21.6326 2423.00 2335.16 49.22
1265 21.6457 2365.00 2316.28 48.63
1266 21.6589 2486.00 2332.78 49.86
1267 21.6720 2375.00 2389.87 48.73
1268 21.6851 2432.00 2487.66 49.32
1269 21.6983 2630.00 2619.94 51.28
1270 21.7114 2649.00 2770.90 51.47
1271 21.7245 2820.00 2912.96 53.10
1272 21.7376 2856.00 3011.17 53.44
1273 21.7508 2951.00 3043.12 54.32
1274 21.7639 2962.00 3011.99 54.42
1275 21.7770 2884.00 2936.75 53.70
1276 21.7902 2764.00 2830.26 52.57
1277 21.8033 2594.00 2700.17 50.93
1278 21.8164 2552.00 2559.06 50.52
1279 21.8296 2386.00 2425.16 48.85
1280 21.8427 2309.00 2313.14 48.05
1281 21.8558 2296.00 2231.08 47.92
1282 21.8689 2232.00 2183.09 47.24
1283 21.8821 2220.00 2172.22 47.12
1284 21.8952 2207.00 2202.57 46.98
1285 21.9083 2257.00 2280.07 47.51
1286 21.9215 2400.00 2411.73 48.99
1287 21.9346 2543.00 2603.44 50.43
1288 21.9477 2698.00 2856.41 51.94
1289 21.9609 3008.00 3162.59 54.85
1290 21.9740 3464.00 3498.13 58.86
1291 21.9871 3641.00 3816.87 60.34
1292 22.0002 3929.00 4053.64 62.68
1293 22.0134 4086.00 4155.35 63.92
1294 22.0265 3992.00 4122.78 63.18
1295 22.0396 3965.00 3988.66 62.97
1296 22.0528 3712.00 3785.13 60.93
1297 22.0659 3446.00 3526.41 58.70
1298 22.0790 3123.00 3234.02 55.88
1299 22.0922 2848.00 2939.16 53.37
1300 22.1053 2643.00 2672.51 51.41
1301 22.1184 2371.00 2449.82 48.69
1302 22.1315 2254.00 2274.49 47.48
1303 22.1447 2141.00 2142.63 46.27
1304 22.1578 2089.00 2047.01 45.71
1305 22.1709 2006.00 1979.44 44.79
1306 22.1841 2083.00 1932.31 45.64
1307 22.1972 1874.00 1899.29 43.29
1308 22.2103 2023.00 1875.72 44.98
1309 22.2235 1972.00 1858.43 44.41
1310 22.2366 1894.00 1845.45 43.52
1311 22.2497 1818.00 1835.60 42.64
1312 22.2628 1934.00 1828.25 43.98
1313 22.2760 1961.00 1823.01 44.28
1314 22.2891 1948.00 1819.63 44.14
1315 22.3022 1991.00 1817.86 44.62
1316 22.3154 1985.00 1817.41 44.55
1317 22.3285 1816.00 1817.65 42.61
1318 22.3416 1898.00 1818.01 43.57
1319 22.3548 1862.00 1818.09 43.15
1320 22.3679 1851.00 1818.12 43.02
1321 22.3810 1898.00 1818.88 43.57
1322 22.3941 1933.00 1821.39 43.97
1323 22.4073 1881.00 1826.93 43.37
1324 22.4204 1900.00 1837.19 43.59
1325 22.4335 1989.00 1854.34 44.60
1326 22.4467 1988.00 1880.52 44.59
1327 22.4598 1976.00 1917.22 44.45
1328 22.4729 2029.00 1964.70 45.04
1329 22.4861 2032.00 2021.03 45.08
1330 22.4992 2182.00 2081.10 46.71
1331 22.5123 2145.00 2135.52 46.31
1332 22.5254 2251.00 2172.43 47.44
1333 22.5386 2208.00 2184.23 46.99
1334 22.5517 2204.00 2172.95 46.95
1335 22.5648 2141.00 2145.68 46.27
1336 22.5780 2150.00 2107.18 46.37
1337 22.5911 2091.00 2059.62 45.73
1338 22.6042 2092.00 2006.68 45.74
1339 22.6174 2031.00 1954.31 45.07
1340 22.6305 1969.00 1907.52 44.37
1341 22.6436 1999.00 1868.83 44.71
1342 22.6567 1958.00 1838.64 44.25
1343 22.6699 1953.00 1816.23 44.19
1344 22.6830 2050.00 1800.29 45.28
1345 22.6961 1878.00 1789.41 43.34
1346 22.7093 1836.00 1782.28 42.85
1347 22.7224 1891.00 1777.85 43.49
1348 22.7355 1849.00 1775.34 43.00
1349 22.7487 1864.00 1774.24 43.17
1350 22.7618 1848.00 1774.27 42.99
1351 22.7749 1846.00 1775.31 42.97
1352 22.7880 1849.00 1777.38 43.00
1353 22.8012 1835.00 1780.63 42.84
1354 22.8143 1892.00 1785.41 43.50
1355 22.8274 1915.00 1792.33 43.76
1356 22.8406 1896.00 1802.42 43.54
1357 22.8537 1942.00 1817.16 44.07
1358 22.8668 2024.00 1837.89 44.99
1359 22.8800 2007.00 1868.46 44.80
1360 22.8931 2079.00 1910.65 45.60
1361 22.9062 2102.00 1966.40 45.85
1362 22.9193 2202.00 2036.02 46.93
1363 22.9325 2355.00 2118.44 48.53
1364 22.9456 2397.00 2207.52 48.96
1365 22.9587 2504.00 2293.12 50.04
1366 22.9719 2567.00 2361.53 50.67
1367 22.9850 2739.00 2404.34 52.34
1368 22.9981 2701.00 2424.46 51.97
1369 23.0113 2618.00 2431.78 51.17
1370 23.0244 2604.00 2433.27 51.03
1371 23.0375 2596.00 2431.40 50.95
1372 23.0506 2507.00 2428.38 50.07
1373 23.0638 2587.00 2429.34 50.86
1374 23.0769 2433.00 2441.43 49.33
1375 23.0900 2419.00 2469.89 49.18
1376 23.1032 2340.00 2513.04 48.37
1377 23.1163 2398.00 2559.05 48.97
1378 23.1294 2327.00 2591.47 48.24
1379 23.1426 2455.00 2593.58 49.55
1380 23.1557 2414.00 2562.78 49.13
1381 23.1688 2282.00 2508.48 47.77
1382 23.1819 2344.00 2441.42 48.41
1383 23.1951 2242.00 2364.85 47.35
1384 23.2082 2205.00 2281.21 46.96
1385 23.2213 2184.00 2197.14 46.73
1386 23.2345 2113.00 2121.38 45.97
1387 23.2476 2123.00 2060.23 46.08
1388 23.2607 2071.00 2016.81 45.51
1389 23.2739 2034.00 1992.59 45.10
1390 23.2870 2034.00 1989.02 45.10
1391 23.3001 2077.00 2008.65 45.57
1392 23.3132 2194.00 2055.81 46.84
1393 23.3264 2206.00 2136.48 46.97
1394 23.3395 2352.00 2257.23 48.50
1395 23.3526 2473.00 2423.45 49.73
1396 23.3658 2613.00 2636.35 51.12
1397 23.3789 2902.00 2887.89 53.87
1398 23.3920 3163.00 3162.20 56.24
1399 23.4052 3454.00 3420.60 58.77
1400 23.4183 3516.00 3611.44 59.30
1401 23.4314 3646.00 3694.11 60.38
1402 23.4445 3616.00 3667.54 60.13
1403 23.4577 3649.00 3564.34 60.41
1404 23.4708 3328.00 3410.22 57.69
1405 23.4839 3220.00 3214.79 56.74
1406 23.4971 2883.00 2987.68 53.69
1407 23.5102 2814.00 2750.76 53.05
1408 23.5233 2631.00 2529.00 51.29
1409 23.5365 2478.00 2338.26 49.78
1410 23.5496 2332.00 2184.07 48.29
1411 23.5627 2226.00 2065.76 47.18
1412 23.5758 2229.00 1977.62 47.21
1413 23.5890 2097.00 1914.36 45.79
1414 23.6021 2072.00 1870.20 45.52
1415 23.6152 2097.00 1840.12 45.79
1416 23.6284 1976.00 1820.58 44.45
1417 23.6415 1892.00 1808.24 43.50
1418 23.6546 1906.00 1801.57 43.66
1419 23.6678 1901.00 1799.21 43.60
1420 23.6809 1898.00 1799.95 43.57
1421 23.6940 1924.00 1802.30 43.86
1422 23.7071 1803.00 1804.26 42.46
1423 23.7203 1866.00 1804.13 43.20
1424 23.7334 1825.00 1799.97 42.72
1425 23.7465 1823.00 1792.80 42.70
1426 23.7597 1741.00 1783.78 41.73
1427 23.7728 1787.00 1773.50 42.27
1428 23.7859 1710.00 1762.37 41.35
1429 23.7991 1824.00 1750.42 42.71
1430 23.8122 1853.00 1738.73 43.05
1431 23.8253 1787.00 1728.12 42.27
1432 23.8384 1752.00 1718.97 41.86
1433 23.8516 1809.00 1711.37 42.53
1434 23.8647 1757.00 1705.17 41.92
1435 23.8778 1706.00 1700.22 41.30
1436 23.8910 1709.00 1696.18 41.34
1437 23.9041 1751.00 1692.86 41.85
1438 23.9172 1727.00 1689.77 41.56
1439 23.9304 1720.00 1687.40 41.47
1440 23.9435 1655.00 1685.28 40.68
1441 23.9566 1783.00 1683.37 42.23
1442 23.9697 1689.00 1681.45 41.10
1443 23.9829 1765.00 1679.82 42.01
1444 23.9960 1711.00 1678.28 41.36
1445 24.0091 1736.00 1677.79 41.67
1446 24.0223 1641.00 1676.44 40.51
1447 24.0354 1787.00 1675.15 42.27
1448 24.0485 1706.00 1673.93 41.30
1449 24.0617 1610.00 1672.76 40.12
1450 24.0748 1685.00 1672.12 41.05
1451 24.0879 1649.00 1671.05 40.61
1452 24.1010 1623.00 1670.03 40.29
1453 24.1142 1685.00 1669.04 41.05
1454 24.1273 1827.00 1668.09 42.74
1455 24.1404 1745.00 1667.17 41.77
1456 24.1536 1601.00 1666.29 40.01
1457 24.1667 1605.00 1665.43 40.06
1458 24.1798 1678.00 1665.34 40.96
1459 24.1930 1650.00 1664.55 40.62
1460 24.2061 1736.00 1663.78 41.67
1461 24.2192 1621.00 1663.04 40.26
1462 24.2323 1754.00 1662.33 41.88
1463 24.2455 1768.00 1662.12 42.05
1464 24.2586 1758.00 1661.46 41.93
1465 24.2717 1729.00 1660.82 41.58
1466 24.2849 1672.00 1660.26 40.89
1467 24.2980 1730.00 1659.66 41.59
1468 24.3111 1688.00 1659.09 41.09
1469 24.3243 1665.00 1658.55 40.80
1470 24.3374 1651.00 1658.02 40.63
1471 24.3505 1689.00 1657.52 41.10
1472 24.3636 1640.00 1657.05 40.50
1473 24.3768 1729.00 1656.28 41.58
1474 24.3899 1678.00 1655.78 40.96
1475 24.4030 1623.00 1655.39 40.29
1476 24.4162 1620.00 1655.03 40.25
1477 24.4293 1733.00 1654.56 41.63
1478 24.4424 1714.00 1654.22 41.40
1479 24.4556 1675.00 1653.83 40.93
1480 24.4687 1652.00 1653.60 40.64
1481 24.4818 1673.00 1653.42 40.90
1482 24.4949 1687.00 1653.29 41.07
1483 24.5081 1596.00 1653.20 39.95
1484 24.5212 1608.00 1653.09 40.10
1485 24.5343 1638.00 1653.67 40.47
1486 24.5475 1631.00 1653.27 40.39
1487 24.5606 1568.00 1653.43 39.60
1488 24.5737 1708.00 1653.67 41.33
1489 24.5869 1755.00 1653.98 41.89
1490 24.6000 1615.00 1654.44 40.19
1491 24.6131 1608.00 1654.97 40.10
1492 24.6262 1572.00 1655.63 39.65
1493 24.6394 1636.00 1656.43 40.45
1494 24.6525 1603.00 1657.42 40.04
1495 24.6656 1714.00 1658.63 41.40
1496 24.6788 1717.00 1660.11 41.44
1497 24.6919 1667.00 1661.95 40.83
1498 24.7050 1660.00 1664.22 40.74
1499 24.7182 1688.00 1667.05 41.09
1500 24.7313 1714.00 1670.57 41.40
1501 24.7444 1704.00 1674.95 41.28
1502 24.7575 1733.00 1680.35 41.63
1503 24.7707 1637.00 1686.93 40.46
1504 24.7838 1628.00 1694.80 40.35
1505 24.7969 1714.00 1704.06 41.40
1506 24.8101 1739.00 1714.88 41.70
1507 24.8232 1787.00 1727.43 42.27
1508 24.8363 1744.00 1740.28 41.76
1509 24.8495 1757.00 1756.05 41.92
1510 24.8626 1790.00 1773.21 42.31
1511 24.8757 1790.00 1792.83 42.31
1512 24.8888 1855.00 1816.98 43.07
1513 24.9020 1868.00 1851.04 43.22
1514 24.9151 1987.00 1898.14 44.58
1515 24.9282 2007.00 1961.23 44.80
1516 24.9414 2017.00 2041.88 44.91
1517 24.9545 2054.00 2139.52 45.32
1518 24.9676 2250.00 2249.54 47.43
1519 24.9808 2245.00 2360.81 47.38
1520 24.9939 2285.00 2455.14 47.80
1521 25.0070 2456.00 2513.48 49.56
1522 25.0201 2493.00 2529.06 49.93
1523 25.0333 2475.00 2511.81 49.75
1524 25.0464 2401.00 2476.91 49.00
1525 25.0595 2482.00 2433.41 49.82
1526 25.0727 2328.00 2384.95 48.25
1527 25.0858 2310.00 2337.47 48.06
1528 25.0989 2304.00 2301.23 48.00
1529 25.1121 2269.00 2285.34 47.63
1530 25.1252 2263.00 2292.72 47.57
1531 25.1383 2219.00 2318.51 47.11
1532 25.1514 2323.00 2350.46 48.20
1533 25.1646 2302.00 2371.75 47.98
1534 25.1777 2318.00 2370.04 48.15
1535 25.1908 2266.00 2345.35 47.60
1536 25.2040 2169.00 2305.98 46.57
1537 25.2171 2139.00 2258.54 46.25
1538 25.2302 2245.00 2204.38 47.38
1539 25.2434 2028.00 2144.35 45.03
1540 25.2565 2127.00 2083.23 46.12
1541 25.2696 1976.00 2028.02 44.45
1542 25.2827 1962.00 1983.98 44.29
1543 25.2959 1972.00 1953.27 44.41
1544 25.3090 1859.00 1935.76 43.12
1545 25.3221 1933.00 1930.66 43.97
1546 25.3353 1985.00 1938.36 44.55
1547 25.3484 2011.00 1961.50 44.84
1548 25.3615 2114.00 2004.29 45.98
1549 25.3747 2079.00 2071.02 45.60
1550 25.3878 2217.00 2165.03 47.08
1551 25.4009 2365.00 2287.84 48.63
1552 25.4140 2528.00 2437.82 50.28
1553 25.4272 2652.00 2607.15 51.50
1554 25.4403 2721.00 2778.25 52.16
1555 25.4534 2981.00 2922.59 54.60
1556 25.4666 3155.00 3010.51 56.17
1557 25.4797 3100.00 3030.92 55.68
1558 25.4928 3120.00 2998.68 55.86
1559 25.5060 3079.00 2936.75 55.49
1560 25.5191 3076.00 2859.27 55.46
1561 25.5322 2888.00 2771.48 53.74
1562 25.5453 2780.00 2681.76 52.73
1563 25.5585 2665.00 2606.83 51.62
1564 25.5716 2576.00 2563.85 50.75
1565 25.5847 2554.00 2563.00 50.54
1566 25.5979 2580.00 2604.81 50.79
1567 25.6110 2615.00 2679.45 51.14
1568 25.6241 2683.00 2766.87 51.80
1569 25.6373 2676.00 2839.01 51.73
1570 25.6504 2693.00 2871.86 51.89
1571 25.6635 2705.00 2859.36 52.01
1572 25.6766 2707.00 2810.75 52.03
1573 25.6898 2633.00 2736.01 51.31
1574 25.7029 2443.00 2639.23 49.43
1575 25.7160 2369.00 2522.86 48.67
1576 25.7292 2364.00 2394.37 48.62
1577 25.7423 2221.00 2265.11 47.13
1578 25.7554 2064.00 2144.93 45.43
1579 25.7686 2021.00 2039.98 44.96
1580 25.7817 1899.00 1953.18 43.58
1581 25.7948 1897.00 1884.89 43.55
1582 25.8079 1887.00 1833.79 43.44
1583 25.8211 1743.00 1797.57 41.75
1584 25.8342 1787.00 1773.84 42.27
1585 25.8473 1809.00 1760.51 42.53
1586 25.8605 1833.00 1756.14 42.81
1587 25.8736 1794.00 1760.17 42.36
1588 25.8867 1779.00 1772.58 42.18
1589 25.8999 1783.00 1794.70 42.23
1590 25.9130 1899.00 1828.56 43.58
1591 25.9261 1857.00 1876.75 43.09
1592 25.9392 2017.00 1941.09 44.91
1593 25.9524 2136.00 2021.56 46.22
1594 25.9655 2131.00 2114.98 46.16
1595 25.9786 2235.00 2213.56 47.28
1596 25.9918 2411.00 2303.30 49.10
1597 26.0049 2458.00 2366.14 49.58
1598 26.0180 2490.00 2389.22 49.90
1599 26.0312 2400.00 2374.24 48.99
1600 26.0443 2370.00 2333.42 48.68
1601 26.0574 2336.00 2277.11 48.33
1602 26.0705 2291.00 2208.43 47.86
1603 26.0837 2259.00 2127.87 47.53
1604 26.0968 2040.00 2039.90 45.17
1605 26.1099 1967.00 1952.71 44.35
1606 26.1231 1865.00 1873.56 43.19
1607 26.1362 1762.00 1806.25 41.98
1608 26.1493 1831.00 1751.61 42.79
1609 26.1625 1624.00 1708.81 40.30
1610 26.1756 1634.00 1676.19 40.42
1611 26.1887 1627.00 1651.77 40.34
1612 26.2018 1692.00 1633.61 41.13
1613 26.2150 1524.00 1620.03 39.04
1614 26.2281 1538.00 1609.67 39.22
1615 26.2412 1575.00 1601.52 39.69
1616 26.2544 1599.00 1595.18 39.99
1617 26.2675 1533.00 1589.64 39.15
1618 26.2806 1619.00 1584.87 40.24
1619 26.2938 1509.00 1580.70 38.85
1620 26.3069 1504.00 1576.99 38.78
1621 26.3200 1582.00 1574.21 39.77
1622 26.3331 1562.00 1571.25 39.52
1623 26.3463 1553.00 1568.57 39.41
1624 26.3594 1587.00 1566.47 39.84
1625 26.3725 1522.00 1564.27 39.01
1626 26.3857 1567.00 1562.29 39.59
1627 26.3988 1525.00 1560.57 39.05
1628 26.4119 1541.00 1558.90 39.26
1629 26.4251 1427.00 1557.27 37.78
1630 26.4382 1579.00 1555.67 39.74
1631 26.4513 1622.00 1554.07 40.27
1632 26.4644 1555.00 1552.27 39.43
1633 26.4776 1484.00 1550.75 38.52
1634 26.4907 1571.00 1549.28 39.64
1635 26.5038 1525.00 1547.85 39.05
1636 26.5170 1537.00 1546.15 39.20
1637 26.5301 1540.00 1545.34 39.24
1638 26.5432 1524.00 1544.10 39.04
1639 26.5564 1499.00 1542.94 38.72
1640 26.5695 1485.00 1541.86 38.54
1641 26.5826 1513.00 1541.02 38.90
1642 26.5957 1563.00 1540.10 39.53
1643 26.6089 1477.00 1539.26 38.43
1644 26.6220 1503.00 1538.02 38.77
1645 26.6351 1531.00 1537.33 39.13
1646 26.6483 1524.00 1536.71 39.04
1647 26.6614 1463.00 1536.16 38.25
1648 26.6745 1520.00 1535.68 38.99
1649 26.6877 1457.00 1535.05 38.17
1650 26.7008 1549.00 1534.74 39.36
1651 26.7139 1449.00 1534.53 38.07
1652 26.7270 1433.00 1534.42 37.85
1653 26.7402 1413.00 1534.43 37.59
1654 26.7533 1440.00 1534.58 37.95
1655 26.7664 1351.00 1534.88 36.76
1656 26.7796 1502.00 1535.32 38.76
1657 26.7927 1541.00 1536.04 39.26
1658 26.8058 1503.00 1537.05 38.77
1659 26.8190 1483.00 1538.45 38.51
1660 26.8321 1504.00 1540.39 38.78
1661 26.8452 1476.00 1543.06 38.42
1662 26.8583 1478.00 1546.86 38.44
1663 26.8715 1516.00 1552.27 38.94
1664 26.8846 1468.00 1559.94 38.31
1665 26.8977 1522.00 1570.63 39.01
1666 26.9109 1606.00 1585.19 40.07
1667 26.9240 1562.00 1604.34 39.52
1668 26.9371 1565.00 1627.53 39.56
1669 26.9503 1512.00 1656.71 38.88
1670 26.9634 1643.00 1689.86 40.53
1671 26.9765 1601.00 1724.62 40.01
1672 26.9896 1713.00 1756.95 41.39
1673 27.0028 1657.00 1781.80 40.71
1674 27.0159 1719.00 1797.97 41.46
1675 27.0290 1826.00 1807.06 42.73
1676 27.0422 1787.00 1813.42 42.27
1677 27.0553 1831.00 1820.08 42.79
1678 27.0684 1749.00 1827.40 41.82
1679 27.0816 1848.00 1834.21 42.99
1680 27.0947 1765.00 1839.17 42.01
1681 27.1078 1820.00 1840.97 42.66
1682 27.1209 1908.00 1837.93 43.68
1683 27.1341 1887.00 1832.50 43.44
1684 27.1472 1785.00 1825.84 42.25
1685 27.1603 1760.00 1818.72 41.95
1686 27.1735 1774.00 1809.48 42.12
1687 27.1866 1785.00 1794.60 42.25
1688 27.1997 1735.00 1774.03 41.65
1689 27.2129 1648.00 1749.78 40.60
1690 27.2260 1708.00 1725.53 41.33
1691 27.2391 1676.00 1703.83 40.94
1692 27.2522 1687.00 1685.43 41.07
1693 27.2654 1624.00 1670.57 40.30
1694 27.2785 1622.00 1659.86 40.27
1695 27.2916 1567.00 1653.95 39.59
1696 27.3048 1528.00 1652.77 39.09
1697 27.3179 1569.00 1655.13 39.61
1698 27.3310 1552.00 1659.00 39.40
1699 27.3442 1587.00 1661.55 39.84
1700 27.3573 1589.00 1660.68 39.86
1701 27.3704 1521.00 1655.50 39.00
1702 27.3835 1479.00 1646.82 38.46
1703 27.3967 1549.00 1636.25 39.36
1704 27.4098 1520.00 1624.09 38.99
1705 27.4229 1459.00 1610.83 38.20
1706 27.4361 1541.00 1596.69 39.26
1707 27.4492 1465.00 1582.37 38.28
1708 27.4623 1547.00 1568.97 39.33
1709 27.4755 1451.00 1557.34 38.09
1710 27.4886 1510.00 1547.27 38.86
1711 27.5017 1488.00 1540.12 38.57
1712 27.5148 1495.00 1535.03 38.67
1713 27.5280 1560.00 1531.82 39.50
1714 27.5411 1543.00 1530.27 39.28
1715 27.5542 1472.00 1530.17 38.37
1716 27.5674 1483.00 1531.10 38.51
1717 27.5805 1460.00 1533.55 38.21
1718 27.5936 1555.00 1537.25 39.43
1719 27.6068 1521.00 1542.30 39.00
1720 27.6199 1596.00 1548.93 39.95
1721 27.6330 1455.00 1557.49 38.14
1722 27.6461 1545.00 1568.51 39.31
1723 27.6593 1593.00 1582.78 39.91
1724 27.6724 1583.00 1601.47 39.79
1725 27.6855 1631.00 1626.26 40.39
1726 27.6987 1665.00 1659.44 40.80
1727 27.7118 1754.00 1703.68 41.88
1728 27.7249 1704.00 1761.62 41.28
1729 27.7381 1814.00 1835.31 42.59
1730 27.7512 1877.00 1925.53 43.32
1731 27.7643 2060.00 2031.12 45.39
1732 27.7774 2114.00 2146.06 45.98
1733 27.7906 2192.00 2262.06 46.82
1734 27.8037 2305.00 2369.17 48.01
1735 27.8168 2348.00 2458.89 48.46
1736 27.8300 2549.00 2524.14 50.49
1737 27.8431 2568.00 2559.74 50.68
1738 27.8562 2579.00 2564.08 50.78
1739 27.8694 2547.00 2541.91 50.47
1740 27.8825 2550.00 2500.38 50.50
1741 27.8956 2489.00 2447.52 49.89
1742 27.9087 2430.00 2391.22 49.29
1743 27.9219 2303.00 2338.92 47.99
1744 27.9350 2266.00 2298.51 47.60
1745 27.9481 2374.00 2275.98 48.72
1746 27.9613 2308.00 2273.89 48.04
1747 27.9744 2394.00 2290.48 48.93
1748 27.9875 2402.00 2319.04 49.01
1749 28.0007 2334.00 2348.71 48.31
1750 28.0138 2369.00 2370.95 48.67
1751 28.0269 2373.00 2383.46 48.71
1752 28.0400 2388.00 2387.02 48.87
1753 28.0532 2442.00 2378.70 49.42
1754 28.0663 2256.00 2351.18 47.50
1755 28.0794 2108.00 2299.74 45.91
1756 28.0926 2130.00 2228.26 46.15
1757 28.1057 2008.00 2146.53 44.81
1758 28.1188 2007.00 2062.86 44.80
1759 28.1320 1922.00 1980.82 43.84
1760 28.1451 1849.00 1901.22 43.00
1761 28.1582 1753.00 1825.72 41.87
1762 28.1713 1692.00 1757.09 41.13
1763 28.1845 1652.00 1697.67 40.64
1764 28.1976 1530.00 1648.24 39.12
1765 28.2107 1555.00 1608.33 39.43
1766 28.2239 1534.00 1577.11 39.17
1767 28.2370 1546.00 1552.53 39.32
1768 28.2501 1487.00 1533.50 38.56
1769 28.2633 1443.00 1518.77 37.99
1770 28.2764 1458.00 1507.26 38.18
1771 28.2895 1473.00 1498.12 38.38
1772 28.3026 1351.00 1490.88 36.76
1773 28.3158 1381.00 1484.72 37.16
1774 28.3289 1424.00 1479.50 37.74
1775 28.3420 1412.00 1474.99 37.58
1776 28.3552 1440.00 1471.03 37.95
1777 28.3683 1403.00 1467.53 37.46
1778 28.3814 1376.00 1464.42 37.09
1779 28.3946 1466.00 1461.64 38.29
1780 28.4077 1368.00 1459.14 36.99
1781 28.4208 1471.00 1456.90 38.35
1782 28.4339 1340.00 1454.90 36.61
1783 28.4471 1374.00 1453.12 37.07
1784 28.4602 1396.00 1451.55 37.36
1785 28.4733 1393.00 1450.16 37.32
1786 28.4865 1327.00 1448.97 36.43
1787 28.4996 1405.00 1447.98 37.48
1788 28.5127 1298.00 1447.20 36.03
1789 28.5259 1434.00 1446.47 37.87
1790 28.5390 1397.00 1446.25 37.38
1791 28.5521 1343.00 1446.39 36.65
1792 28.5652 1380.00 1446.99 37.15
1793 28.5784 1370.00 1448.23 37.01
1794 28.5915 1454.00 1450.21 38.13
1795 28.6046 1421.00 1453.34 37.70
1796 28.6178 1444.00 1457.76 38.00
1797 28.6309 1423.00 1463.64 37.72
1798 28.6440 1422.00 1470.91 37.71
1799 28.6572 1465.00 1479.77 38.28
1800 28.6703 1414.00 1489.69 37.60
1801 28.6834 1499.00 1499.87 38.72
1802 28.6965 1476.00 1509.04 38.42
1803 28.7097 1545.00 1515.65 39.31
1804 28.7228 1519.00 1519.45 38.97
1805 28.7359 1471.00 1520.83 38.35
1806 28.7491 1502.00 1521.26 38.76
1807 28.7622 1577.00 1522.11 39.71
1808 28.7753 1547.00 1524.28 39.33
1809 28.7885 1472.00 1528.51 38.37
1810 28.8016 1520.00 1536.15 38.99
1811 28.8147 1561.00 1548.52 39.51
1812 28.8278 1508.00 1567.99 38.83
1813 28.8410 1560.00 1593.78 39.50
1814 28.8541 1653.00 1626.59 40.66
1815 28.8672 1695.00 1664.98 41.17
1816 28.8804 1706.00 1705.55 41.30
1817 28.8935 1729.00 1742.56 41.58
1818 28.9066 1781.00 1770.91 42.20
1819 28.9198 1769.00 1782.56 42.06
1820 28.9329 1783.00 1779.54 42.23
1821 28.9460 1790.00 1766.46 42.31
1822 28.9591 1710.00 1748.42 41.35
1823 28.9723 1764.00 1726.32 42.00
1824 28.9854 1716.00 1700.69 41.42
1825 28.9985 1678.00 1671.92 40.96
1826 29.0117 1748.00 1642.23 41.81
1827 29.0248 1716.00 1614.67 41.42
1828 29.0379 1611.00 1591.52 40.14
1829 29.0511 1617.00 1573.60 40.21
1830 29.0642 1551.00 1560.46 39.38
1831 29.0773 1574.00 1550.73 39.67
1832 29.0904 1571.00 1542.79 39.64
1833 29.1036 1537.00 1535.57 39.20
1834 29.1167 1516.00 1528.99 38.94
1835 29.1298 1509.00 1523.44 38.85
1836 29.1430 1500.00 1519.15 38.73
1837 29.1561 1468.00 1516.00 38.31
1838 29.1692 1451.00 1513.79 38.09
1839 29.1824 1445.00 1512.72 38.01
1840 29.1955 1461.00 1513.44 38.22
1841 29.2086 1477.00 1516.82 38.43
1842 29.2217 1462.00 1523.80 38.24
1843 29.2349 1447.00 1535.58 38.04
1844 29.2480 1522.00 1553.70 39.01
1845 29.2611 1537.00 1580.07 39.20
1846 29.2743 1527.00 1616.65 39.08
1847 29.2874 1664.00 1665.07 40.79
1848 29.3005 1681.00 1726.22 41.00
1849 29.3137 1762.00 1799.86 41.98
1850 29.3268 1880.00 1883.88 43.36
1851 29.3399 1905.00 1972.46 43.65
1852 29.3530 1928.00 2057.15 43.91
1853 29.3662 2005.00 2126.32 44.78
1854 29.3793 2113.00 2172.02 45.97
1855 29.3924 2145.00 2194.35 46.31
1856 29.4056 2084.00 2200.70 45.65
1857 29.4187 2208.00 2196.64 46.99
1858 29.4318 2097.00 2183.83 45.79
1859 29.4450 2037.00 2162.46 45.13
1860 29.4581 2021.00 2134.17 44.96
1861 29.4712 2083.00 2104.23 45.64
1862 29.4843 1977.00 2076.94 44.46
1863 29.4975 2005.00 2052.67 44.78
1864 29.5106 1959.00 2027.67 44.26
1865 29.5237 1913.00 1997.14 43.74
1866 29.5369 1904.00 1958.72 43.63
1867 29.5500 1830.00 1914.38 42.78
1868 29.5631 1831.00 1867.74 42.79
1869 29.5763 1801.00 1822.67 42.44
1870 29.5894 1704.00 1779.13 41.28
1871 29.6025 1734.00 1735.92 41.64
1872 29.6156 1619.00 1692.57 40.24
1873 29.6288 1594.00 1649.86 39.92
1874 29.6419 1610.00 1611.06 40.12
1875 29.6550 1499.00 1577.52 38.72
1876 29.6682 1434.00 1550.31 37.87
1877 29.6813 1508.00 1529.71 38.83
1878 29.6944 1557.00 1515.69 39.46
1879 29.7076 1498.00 1508.66 38.70
1880 29.7207 1454.00 1508.64 38.13
1881 29.7338 1473.00 1516.04 38.38
1882 29.7469 1491.00 1531.28 38.61
1883 29.7601 1488.00 1554.85 38.57
1884 29.7732 1518.00 1586.95 38.96
1885 29.7863 1563.00 1627.18 39.53
1886 29.7995 1640.00 1674.09 40.50
1887 29.8126 1748.00 1724.49 41.81
1888 29.8257 1738.00 1772.83 41.69
1889 29.8389 1822.00 1811.69 42.68
1890 29.8520 1854.00 1833.65 43.06
1891 29.8651 1826.00 1836.81 42.73
1892 29.8782 1800.00 1824.94 42.43
1893 29.8914 1839.00 1803.98 42.88
1894 29.9045 1732.00 1777.77 41.62
1895 29.9176 1672.00 1747.04 40.89
1896 29.9308 1673.00 1711.00 40.90
1897 29.9439 1657.00 1670.73 40.71
1898 29.9570 1720.00 1629.23 41.47
1899 29.9702 1598.00 1590.07 39.97
1900 29.9833 1563.00 1555.71 39.53
1901 29.9964 1455.00 1527.32 38.14
1902 30.0095 1485.00 1505.07 38.54
1903 30.0227 1567.00 1488.66 39.59
1904 30.0358 1394.00 1477.46 37.34
1905 30.0489 1441.00 1470.72 37.96
1906 30.0621 1468.00 1467.57 38.31
1907 30.0752 1446.00 1467.04 38.03
1908 30.0883 1467.00 1468.11 38.30
1909 30.1015 1536.00 1469.93 39.19
1910 30.1146 1440.00 1472.05 37.95
1911 30.1277 1479.00 1474.50 38.46
1912 30.1408 1418.00 1477.50 37.66
1913 30.1540 1469.00 1481.39 38.33
1914 30.1671 1451.00 1485.21 38.09
1915 30.1802 1440.00 1488.79 37.95
1916 30.1934 1464.00 1491.84 38.26
1917 30.2065 1408.00 1494.62 37.52
1918 30.2196 1466.00 1497.88 38.29
1919 30.2328 1488.00 1502.73 38.57
1920 30.2459 1502.00 1509.76 38.76
1921 30.2590 1535.00 1519.52 39.18
1922 30.2721 1567.00 1532.80 39.59
1923 30.2853 1584.00 1550.42 39.80
1924 30.2984 1523.00 1573.40 39.03
1925 30.3115 1687.00 1603.17 41.07
1926 30.3247 1686.00 1640.80 41.06
1927 30.3378 1718.00 1687.62 41.45
1928 30.3509 1708.00 1744.78 41.33
1929 30.3641 1830.00 1813.41 42.78
1930 30.3772 1900.00 1894.82 43.59
1931 30.3903 1937.00 1991.82 44.01
1932 30.4034 2081.00 2109.07 45.62
1933 30.4166 2246.00 2252.32 47.39
1934 30.4297 2419.00 2425.80 49.18
1935 30.4428 2594.00 2629.58 50.93
1936 30.4560 2863.00 2856.98 53.51
1937 30.4691 3026.00 3094.14 55.01
1938 30.4822 3378.00 3320.72 58.12
1939 30.4954 3559.00 3519.14 59.66
1940 30.5085 3735.00 3679.16 61.11
1941 30.5216 3731.00 3795.50 61.08
1942 30.5347 3833.00 3856.98 61.91
1943 30.5479 3784.00 3849.53 61.51
1944 30.5610 3683.00 3768.10 60.69
1945 30.5741 3597.00 3625.33 59.97
1946 30.5873 3477.00 3443.98 58.97
1947 30.6004 3131.00 3244.25 55.96
1948 30.6135 2975.00 3036.23 54.54
1949 30.6267 2735.00 2822.58 52.30
1950 30.6398 2503.00 2608.26 50.03
1951 30.6529 2419.00 2402.48 49.18
1952 30.6660 2186.00 2215.35 46.75
1953 30.6792 2017.00 2053.14 44.91
1954 30.6923 1864.00 1918.15 43.17
1955 30.7054 1822.00 1808.48 42.68
1956 30.7186 1732.00 1721.63 41.62
1957 30.7317 1669.00 1654.06 40.85
1958 30.7448 1527.00 1602.20 39.08
1959 30.7580 1536.00 1562.71 39.19
1960 30.7711 1494.00 1532.83 38.65
1961 30.7842 1521.00 1509.97 39.00
1962 30.7973 1524.00 1492.46 39.04
1963 30.8105 1469.00 1479.01 38.33
1964 30.8236 1438.00 1468.78 37.92
1965 30.8367 1434.00 1461.29 37.87
1966 30.8499 1507.00 1456.36 38.82
1967 30.8630 1471.00 1454.02 38.35
1968 30.8761 1486.00 1454.46 38.55
1969 30.8893 1479.00 1458.04 38.46
1970 30.9024 1574.00 1465.15 39.67
1971 30.9155 1490.00 1476.55 38.60
1972 30.9286 1551.00 1491.80 39.38
1973 30.9418 1544.00 1511.33 39.29
1974 30.9549 1612.00 1534.86 40.15
1975 30.9680 1619.00 1561.44 40.24
1976 30.9812 1717.00 1588.81 41.44
1977 30.9943 1764.00 1615.93 42.00
1978 31.0074 1746.00 1640.04 41.79
1979 31.0206 1706.00 1661.58 41.30
1980 31.0337 1750.00 1682.57 41.83
1981 31.0468 1784.00 1705.21 42.24
1982 31.0599 1751.00 1729.55 41.85
1983 31.0731 1758.00 1754.17 41.93
1984 31.0862 1776.00 1775.20 42.14
1985 31.0993 1808.00 1789.25 42.52
1986 31.1125 1825.00 1795.04 42.72
1987 31.1256 1746.00 1793.54 41.79
1988 31.1387 1793.00 1786.40 42.34
1989 31.1519 1676.00 1773.89 40.94
1990 31.1650 1698.00 1755.15 41.21
1991 31.1781 1736.00 1729.56 41.67
1992 31.1912 1631.00 1698.42 40.39
1993 31.2044 1606.00 1664.43 40.07
1994 31.2175 1599.00 1630.29 39.99
1995 31.2306 1653.00 1597.62 40.66
1996 31.2438 1527.00 1567.15 39.08
1997 31.2569 1495.00 1539.43 38.67
1998 31.2700 1489.00 1515.35 38.59
1999 31.2832 1477.00 1495.82 38.43
2000 31.2963 1514.00 1481.33 38.91
2001 31.3094 1456.00 1471.75 38.16
2002 31.3225 1516.00 1466.38 38.94
2003 31.3357 1586.00 1464.04 39.82
2004 31.3488 1441.00 1463.23 37.96
2005 31.3619 1470.00 1462.60 38.34
2006 31.3751 1546.00 1462.22 39.32
2007 31.3882 1480.00 1461.31 38.47
2008 31.4013 1489.00 1461.59 38.59
2009 31.4145 1385.00 1464.12 37.22
2010 31.4276 1370.00 1469.62 37.01
2011 31.4407 1474.00 1478.52 38.39
2012 31.4538 1522.00 1491.56 39.01
2013 31.4670 1462.00 1508.76 38.24
2014 31.4801 1525.00 1530.06 39.05
2015 31.4932 1607.00 1555.77 40.09
2016 31.5064 1478.00 1583.74 38.44
2017 31.5195 1607.00 1610.58 40.09
2018 31.5326 1578.00 1631.74 39.72
2019 31.5458 1638.00 1643.26 40.47
2020 31.5589 1643.00 1643.57 40.53
2021 31.5720 1572.00 1635.22 39.65
2022 31.5851 1705.00 1621.55 41.29
2023 31.5983 1585.00 1605.03 39.81
2024 31.6114 1561.00 1586.29 39.51
2025 31.6245 1566.00 1564.93 39.57
2026 31.6377 1513.00 1541.05 38.90
2027 31.6508 1502.00 1516.07 38.76
2028 31.6639 1488.00 1492.09 38.57
2029 31.6771 1485.00 1470.99 38.54
2030 31.6902 1507.00 1453.98 38.82
2031 31.7033 1513.00 1441.77 38.90
2032 31.7164 1510.00 1434.80 38.86
2033 31.7296 1422.00 1433.47 37.71
2034 31.7427 1421.00 1438.20 37.70
2035 31.7558 1419.00 1449.78 37.67
2036 31.7690 1471.00 1468.32 38.35
2037 31.7821 1470.00 1494.55 38.34
2038 31.7952 1546.00 1528.76 39.32
2039 31.8084 1595.00 1570.81 39.94
2040 31.8215 1656.00 1619.73 40.69
2041 31.8346 1737.00 1673.25 41.68
2042 31.8477 1767.00 1727.87 42.04
2043 31.8609 1798.00 1776.52 42.40
2044 31.8740 1882.00 1814.01 43.38
2045 31.8871 1886.00 1836.63 43.43
2046 31.9003 1876.00 1846.42 43.31
2047 31.9134 1924.00 1847.98 43.86
2048 31.9265 1970.00 1844.98 44.38
2049 31.9397 1916.00 1837.74 43.77
2050 31.9528 1845.00 1823.91 42.95
2051 31.9659 1886.00 1801.02 43.43
2052 31.9790 1866.00 1769.40 43.20
2053 31.9922 1779.00 1732.68 42.18
2054 32.0053 1788.00 1695.69 42.28
2055 32.0184 1679.00 1662.14 40.98
2056 32.0316 1680.00 1633.83 40.99
2057 32.0447 1575.00 1611.09 39.69
2058 32.0578 1621.00 1594.05 40.26
2059 32.0709 1623.00 1582.84 40.29
2060 32.0841 1476.00 1578.00 38.42
2061 32.0972 1603.00 1580.04 40.04
2062 32.1103 1583.00 1589.31 39.79
2063 32.1235 1536.00 1606.09 39.19
2064 32.1366 1620.00 1630.47 40.25
2065 32.1497 1629.00 1660.70 40.36
2066 32.1629 1641.00 1696.44 40.51
2067 32.1760 1683.00 1732.86 41.02
2068 32.1891 1693.00 1764.59 41.15
2069 32.2022 1816.00 1786.68 42.61
2070 32.2154 1808.00 1795.95 42.52
2071 32.2285 1825.00 1797.34 42.72
2072 32.2416 1727.00 1794.23 41.56
2073 32.2548 1815.00 1792.16 42.60
2074 32.2679 1828.00 1793.05 42.76
2075 32.2810 1786.00 1797.32 42.26
2076 32.2942 1768.00 1804.28 42.05
2077 32.3073 1758.00 1815.80 41.93
2078 32.3204 1765.00 1832.14 42.01
2079 32.3335 1818.00 1852.98 42.64
2080 32.3467 1799.00 1876.06 42.41
2081 32.3598 1825.00 1898.34 42.72
2082 32.3729 1775.00 1918.41 42.13
2083 32.3861 1931.00 1936.99 43.94
2084 32.3992 1880.00 1954.95 43.36
2085 32.4123 1818.00 1970.76 42.64
2086 32.4255 1863.00 1979.59 43.16
2087 32.4386 1900.00 1976.01 43.59
2088 32.4517 1963.00 1956.27 44.31
2089 32.4648 1836.00 1923.33 42.85
2090 32.4780 1895.00 1883.17 43.53
2091 32.4911 1791.00 1841.65 42.32
2092 32.5042 1696.00 1801.41 41.18
2093 32.5174 1750.00 1763.50 41.83
2094 32.5305 1707.00 1728.29 41.32
2095 32.5436 1622.00 1697.44 40.27
2096 32.5568 1564.00 1673.87 39.55
2097 32.5699 1705.00 1660.67 41.29
2098 32.5830 1644.00 1660.17 40.55
2099 32.5961 1639.00 1673.64 40.48
2100 32.6093 1688.00 1701.46 41.09
2101 32.6224 1723.00 1742.31 41.51
2102 32.6355 1708.00 1793.89 41.33
2103 32.6487 1792.00 1851.69 42.33
2104 32.6618 1837.00 1908.92 42.86
2105 32.6749 1894.00 1957.70 43.52
2106 32.6881 2022.00 1991.94 44.97
2107 32.7012 1935.00 2010.19 43.99
2108 32.7143 2060.00 2014.62 45.39
2109 32.7274 2070.00 2007.93 45.50
2110 32.7406 2030.00 1991.12 45.06
2111 32.7537 2018.00 1964.22 44.92
2112 32.7668 1986.00 1928.10 44.56
2113 32.7800 2020.00 1885.59 44.94
2114 32.7931 1844.00 1841.02 42.94
2115 32.8062 1829.00 1798.74 42.77
2116 32.8194 1787.00 1761.61 42.27
2117 32.8325 1862.00 1730.98 43.15
2118 32.8456 1690.00 1707.89 41.11
2119 32.8587 1757.00 1692.59 41.92
2120 32.8719 1747.00 1684.55 41.80
2121 32.8850 1723.00 1681.46 41.51
2122 32.8981 1639.00 1679.82 40.48
2123 32.9113 1612.00 1677.38 40.15
2124 32.9244 1712.00 1669.69 41.38
2125 32.9375 1656.00 1658.50 40.69
2126 32.9507 1660.00 1645.91 40.74
2127 32.9638 1575.00 1633.89 39.69
2128 32.9769 1651.00 1623.28 40.63
2129 32.9900 1588.00 1614.54 39.85
2130 33.0032 1523.00 1608.39 39.03
2131 33.0163 1629.00 1606.28 40.36
2132 33.0294 1603.00 1610.91 40.04
2133 33.0426 1555.00 1625.23 39.43
2134 33.0557 1626.00 1651.74 40.32
2135 33.0688 1598.00 1692.15 39.97
2136 33.0820 1646.00 1747.36 40.57
2137 33.0951 1824.00 1816.74 42.71
2138 33.1082 1851.00 1897.99 43.02
2139 33.1213 2064.00 1986.36 45.43
2140 33.1345 2184.00 2073.84 46.73
2141 33.1476 2329.00 2149.67 48.26
2142 33.1607 2389.00 2203.59 48.88
2143 33.1739 2392.00 2230.87 48.91
2144 33.1870 2334.00 2234.78 48.31
2145 33.2001 2398.00 2223.40 48.97
2146 33.2133 2276.00 2203.61 47.71
2147 33.2264 2247.00 2177.20 47.40
2148 33.2395 2180.00 2141.78 46.69
2149 33.2526 2152.00 2093.84 46.39
2150 33.2658 2144.00 2032.66 46.30
2151 33.2789 2057.00 1962.74 45.35
2152 33.2920 1936.00 1890.19 44.00
2153 33.3052 1740.00 1821.14 41.71
2154 33.3183 1737.00 1758.01 41.68
2155 33.3314 1678.00 1702.30 40.96
2156 33.3446 1572.00 1653.74 39.65
2157 33.3577 1605.00 1611.53 40.06
2158 33.3708 1564.00 1575.64 39.55
2159 33.3839 1556.00 1546.58 39.45
2160 33.3971 1503.00 1524.36 38.77
2161 33.4102 1519.00 1509.54 38.97
2162 33.4233 1499.00 1502.47 38.72
2163 33.4365 1488.00 1503.62 38.57
2164 33.4496 1541.00 1513.69 39.26
2165 33.4627 1543.00 1533.64 39.28
2166 33.4759 1578.00 1564.64 39.72
2167 33.4890 1599.00 1607.54 39.99
2168 33.5021 1624.00 1663.20 40.30
2169 33.5152 1758.00 1731.75 41.93
2170 33.5284 1798.00 1812.17 42.40
2171 33.5415 1813.00 1901.68 42.58
2172 33.5546 1959.00 1995.25 44.26
2173 33.5678 2072.00 2086.03 45.52
2174 33.5809 2078.00 2166.25 45.59
2175 33.5940 2169.00 2228.87 46.57
2176 33.6072 2291.00 2268.24 47.86
2177 33.6203 2292.00 2283.18 47.87
2178 33.6334 2384.00 2274.63 48.83
2179 33.6465 2267.00 2247.03 47.61
2180 33.6597 2149.00 2204.44 46.36
2181 33.6728 2085.00 2149.56 45.66
2182 33.6859 2167.00 2084.39 46.55
2183 33.6991 1982.00 2010.83 44.52
2184 33.7122 2003.00 1932.26 44.75
2185 33.7253 1823.00 1852.40 42.70
2186 33.7385 1773.00 1775.17 42.11
2187 33.7516 1634.00 1703.46 40.42
2188 33.7647 1658.00 1639.04 40.72
2189 33.7778 1628.00 1582.80 40.35
2190 33.7910 1559.00 1534.98 39.48
2191 33.8041 1599.00 1495.50 39.99
2192 33.8172 1538.00 1463.56 39.22
2193 33.8304 1435.00 1438.20 37.88
2194 33.8435 1322.00 1418.25 36.36
2195 33.8566 1476.00 1402.70 38.42
2196 33.8698 1434.00 1390.51 37.87
2197 33.8829 1376.00 1380.91 37.09
2198 33.8960 1399.00 1373.33 37.40
2199 33.9091 1452.00 1367.35 38.11
2200 33.9223 1433.00 1362.68 37.85
2201 33.9354 1410.00 1359.32 37.55
2202 33.9485 1381.00 1356.24 37.16
2203 33.9617 1362.00 1354.21 36.91
2204 33.9748 1374.00 1352.87 37.07
2205 33.9879 1353.00 1352.24 36.78
2206 34.0011 1302.00 1352.38 36.08
2207 34.0142 1417.00 1353.52 37.64
2208 34.0273 1375.00 1355.52 37.08
2209 34.0404 1436.00 1358.57 37.89
2210 34.0536 1422.00 1363.27 37.71
2211 34.0667 1429.00 1369.88 37.80
2212 34.0798 1458.00 1378.95 38.18
2213 34.0930 1441.00 1391.14 37.96
2214 34.1061 1516.00 1407.25 38.94
2215 34.1192 1464.00 1427.90 38.26
2216 34.1324 1522.00 1454.54 39.01
2217 34.1455 1591.00 1487.54 39.89
2218 34.1586 1692.00 1527.37 41.13
2219 34.1717 1738.00 1573.89 41.69
2220 34.1849 1743.00 1626.27 41.75
2221 34.1980 1856.00 1682.42 43.08
2222 34.2111 1919.00 1740.59 43.81
2223 34.2243 1921.00 1797.12 43.83
2224 34.2374 1951.00 1845.16 44.17
2225 34.2505 1952.00 1879.77 44.18
2226 34.2637 2040.00 1896.36 45.17
2227 34.2768 1968.00 1895.98 44.36
2228 34.2899 1961.00 1882.04 44.28
2229 34.3031 1932.00 1860.61 43.95
2230 34.3162 1878.00 1835.41 43.34
2231 34.3293 1869.00 1807.88 43.23
2232 34.3424 1804.00 1778.06 42.47
2233 34.3556 1757.00 1746.66 41.92
2234 34.3687 1727.00 1715.11 41.56
2235 34.3818 1618.00 1686.44 40.22
2236 34.3950 1664.00 1663.53 40.79
2237 34.4081 1658.00 1648.14 40.72
2238 34.4212 1603.00 1640.17 40.04
2239 34.4343 1610.00 1638.82 40.12
2240 34.4475 1607.00 1641.63 40.09
2241 34.4606 1620.00 1645.29 40.25
2242 34.4737 1690.00 1647.86 41.11
2243 34.4869 1617.00 1647.68 40.21
2244 34.5000 1646.00 1645.31 40.57
2245 34.5131 1658.00 1642.76 40.72
2246 34.5263 1566.00 1642.60 39.57
2247 34.5394 1691.00 1646.32 41.12
2248 34.5525 1628.00 1655.39 40.35
2249 34.5657 1773.00 1670.64 42.11
2250 34.5788 1668.00 1693.87 40.84
2251 34.5919 1697.00 1727.90 41.19
2252 34.6050 1746.00 1775.39 41.79
2253 34.6182 1821.00 1838.75 42.67
2254 34.6313 1880.00 1918.33 43.36
2255 34.6444 2008.00 2013.32 44.81
2256 34.6576 2060.00 2120.21 45.39
2257 34.6707 2225.00 2232.33 47.17
2258 34.6838 2420.00 2339.55 49.19
2259 34.6969 2502.00 2430.18 50.02
2260 34.7101 2542.00 2494.56 50.42
2261 34.7232 2655.00 2529.49 51.53
2262 34.7363 2626.00 2538.01 51.24
2263 34.7495 2647.00 2525.43 51.45
2264 34.7626 2558.00 2495.79 50.58
2265 34.7757 2505.00 2451.19 50.05
2266 34.7889 2442.00 2393.36 49.42
2267 34.8020 2310.00 2323.84 48.06
2268 34.8151 2315.00 2246.56 48.11
2269 34.8283 2133.00 2166.49 46.18
2270 34.8414 2109.00 2088.04 45.92
2271 34.8545 2037.00 2013.29 45.13
2272 34.8676 1922.00 1943.80 43.84
2273 34.8808 1939.00 1880.23 44.03
2274 34.8939 1804.00 1823.14 42.47
2275 34.9070 1804.00 1773.20 42.47
2276 34.9202 1690.00 1731.23 41.11
2277 34.9333 1749.00 1697.82 41.82
2278 34.9464 1754.00 1672.53 41.88
2279 34.9595 1699.00 1653.81 41.22
2280 34.9727 1732.00 1641.73 41.62
2281 34.9858 1751.00 1634.52 41.85
2282 34.9989 1685.00 1631.91 41.05
2283 35.0121 1711.00 1634.52 41.36
2284 35.0252 1710.00 1643.54 41.35
2285 35.0383 1803.00 1660.40 42.46
2286 35.0515 1743.00 1685.53 41.75
2287 35.0646 1749.00 1719.96 41.82
2288 35.0777 1832.00 1763.05 42.80
2289 35.0909 1915.00 1813.14 43.76
2290 35.1040 1925.00 1867.52 43.87
2291 35.1171 2069.00 1922.93 45.49
2292 35.1302 2039.00 1974.40 45.16
2293 35.1434 2070.00 2017.58 45.50
2294 35.1565 2050.00 2047.87 45.28
2295 35.1696 2040.00 2063.33 45.17
2296 35.1828 2052.00 2065.60 45.30
2297 35.1959 1994.00 2058.24 44.65
2298 35.2090 2022.00 2046.20 44.97
2299 35.2221 2032.00 2032.51 45.08
2300 35.2353 2015.00 2017.88 44.89
2301 35.2484 2050.00 2001.21 45.28
2302 35.2615 2073.00 1980.78 45.53
2303 35.2747 2020.00 1955.40 44.94
2304 35.2878 2000.00 1924.03 44.72
2305 35.3009 1922.00 1887.11 43.84
2306 35.3141 1953.00 1845.93 44.19
2307 35.3272 1868.00 1803.25 43.22
2308 35.3403 1879.00 1761.96 43.35
2309 35.3535 1764.00 1723.98 42.00
2310 35.3666 1723.00 1689.81 41.51
2311 35.3797 1762.00 1658.96 41.98
2312 35.3928 1675.00 1630.80 40.93
2313 35.4060 1594.00 1605.42 39.92
2314 35.4191 1671.00 1583.78 40.88
2315 35.4322 1662.00 1566.70 40.77
2316 35.4454 1556.00 1556.56 39.45
2317 35.4585 1624.00 1552.98 40.30
2318 35.4716 1583.00 1556.26 39.79
2319 35.4847 1611.00 1565.79 40.14
2320 35.4979 1714.00 1581.29 41.40
2321 35.5110 1698.00 1600.28 41.21
2322 35.5241 1698.00 1619.17 41.21
2323 35.5373 1690.00 1635.64 41.11
2324 35.5504 1698.00 1646.72 41.21
2325 35.5635 1737.00 1649.68 41.68
2326 35.5767 1656.00 1645.55 40.69
2327 35.5898 1742.00 1636.14 41.74
2328 35.6029 1697.00 1623.99 41.19
2329 35.6161 1659.00 1610.19 40.73
2330 35.6292 1650.00 1594.99 40.62
2331 35.6423 1653.00 1578.25 40.66
2332 35.6554 1589.00 1559.98 39.86
2333 35.6686 1600.00 1541.03 40.00
2334 35.6817 1571.00 1522.89 39.64
2335 35.6948 1482.00 1507.20 38.50
2336 35.7080 1473.00 1495.30 38.38
2337 35.7211 1526.00 1488.20 39.06
2338 35.7342 1487.00 1486.61 38.56
2339 35.7473 1471.00 1491.05 38.35
2340 35.7605 1536.00 1502.18 39.19
2341 35.7736 1490.00 1519.52 38.60
2342 35.7867 1526.00 1543.29 39.06
2343 35.7999 1571.00 1573.07 39.64
2344 35.8130 1629.00 1607.90 40.36
2345 35.8261 1662.00 1646.16 40.77
2346 35.8393 1665.00 1685.21 40.80
2347 35.8524 1644.00 1721.62 40.55
2348 35.8655 1734.00 1751.05 41.64
2349 35.8787 1730.00 1770.72 41.59
2350 35.8918 1770.00 1780.15 42.07
2351 35.9049 1744.00 1781.61 41.76
2352 35.9180 1728.00 1778.67 41.57
2353 35.9312 1739.00 1774.53 41.70
2354 35.9443 1784.00 1771.14 42.24
2355 35.9574 1719.00 1769.46 41.46
2356 35.9706 1813.00 1770.31 42.58
2357 35.9837 1792.00 1775.32 42.33
2358 35.9968 1700.00 1787.22 41.23
2359 36.0099 1819.00 1809.20 42.65
2360 36.0231 1902.00 1843.84 43.61
2361 36.0362 1859.00 1892.98 43.12
2362 36.0493 1897.00 1957.11 43.55
2363 36.0625 1980.00 2035.24 44.50
2364 36.0756 2006.00 2124.74 44.79
2365 36.0887 2131.00 2220.85 46.16
2366 36.1019 2329.00 2317.02 48.26
2367 36.1150 2493.00 2404.03 49.93
2368 36.1281 2451.00 2476.31 49.51
2369 36.1413 2631.00 2531.30 51.29
2370 36.1544 2643.00 2572.01 51.41
2371 36.1675 2731.00 2605.10 52.26
2372 36.1806 2769.00 2636.04 52.62
2373 36.1938 2771.00 2666.34 52.64
2374 36.2069 2775.00 2692.64 52.68
2375 36.2200 2807.00 2709.23 52.98
2376 36.2332 2772.00 2709.89 52.65
2377 36.2463 2820.00 2692.30 53.10
2378 36.2594 2591.00 2659.05 50.90
2379 36.2725 2733.00 2616.18 52.28
2380 36.2857 2667.00 2570.07 51.64
2381 36.2988 2702.00 2525.00 51.98
2382 36.3119 2599.00 2482.48 50.98
2383 36.3251 2434.00 2442.08 49.34
2384 36.3382 2453.00 2403.27 49.53
2385 36.3513 2421.00 2366.62 49.20
2386 36.3645 2337.00 2334.60 48.34
2387 36.3776 2320.00 2309.21 48.17
2388 36.3907 2333.00 2291.54 48.30
2389 36.4039 2361.00 2280.96 48.59
2390 36.4170 2308.00 2275.25 48.04
2391 36.4301 2238.00 2271.01 47.31
2392 36.4432 2289.00 2264.74 47.84
2393 36.4564 2379.00 2254.42 48.78
2394 36.4695 2409.00 2239.19 49.08
2395 36.4826 2246.00 2220.41 47.39
2396 36.4958 2282.00 2200.20 47.77
2397 36.5089 2243.00 2180.51 47.36
2398 36.5220 2271.00 2162.56 47.65
2399 36.5351 2189.00 2147.00 46.79
2400 36.5483 2222.00 2134.23 47.14
2401 36.5614 2167.00 2124.86 46.55
2402 36.5745 2115.00 2119.24 45.99
2403 36.5877 2136.00 2117.20 46.22
2404 36.6008 2140.00 2121.51 46.26
2405 36.6139 2153.00 2132.06 46.40
2406 36.6271 2202.00 2150.45 46.93
2407 36.6402 2144.00 2177.08 46.30
2408 36.6533 2325.00 2210.13 48.22
2409 36.6665 2306.00 2246.26 48.02
2410 36.6796 2269.00 2278.25 47.63
2411 36.6927 2318.00 2299.40 48.15
2412 36.7058 2348.00 2305.79 48.46
2413 36.7190 2280.00 2296.89 47.75
2414 36.7321 2275.00 2276.21 47.70
2415 36.7452 2273.00 2249.31 47.68
2416 36.7584 2122.00 2221.17 46.07
2417 36.7715 2145.00 2194.13 46.31
2418 36.7846 2061.00 2166.06 45.40
2419 36.7977 2024.00 2136.55 44.99
2420 36.8109 2047.00 2104.12 45.24
2421 36.8240 2088.00 2068.29 45.69
2422 36.8371 1939.00 2029.24 44.03
2423 36.8503 1981.00 1987.85 44.51
2424 36.8634 1847.00 1945.30 42.98
2425 36.8765 1820.00 1903.97 42.66
2426 36.8897 1748.00 1866.48 41.81
2427 36.9028 1801.00 1834.81 42.44
2428 36.9159 1749.00 1809.87 41.82
2429 36.9291 1769.00 1791.71 42.06
2430 36.9422 1729.00 1779.97 41.58
2431 36.9553 1712.00 1774.54 41.38
2432 36.9684 1744.00 1775.78 41.76
2433 36.9816 1732.00 1784.32 41.62
2434 36.9947 1748.00 1800.54 41.81
2435 37.0078 1799.00 1824.05 42.41
2436 37.0210 1860.00 1853.65 43.13
2437 37.0341 1874.00 1886.69 43.29
2438 37.0472 1871.00 1920.37 43.26
2439 37.0603 1910.00 1951.67 43.70
2440 37.0735 1961.00 1978.07 44.28
2441 37.0866 1973.00 2000.09 44.42
2442 37.0997 2013.00 2018.71 44.87
2443 37.1129 1968.00 2036.45 44.36
2444 37.1260 2038.00 2055.46 45.14
2445 37.1391 2006.00 2076.74 44.79
2446 37.1523 2016.00 2099.53 44.90
2447 37.1654 2143.00 2121.58 46.29
2448 37.1785 2136.00 2140.44 46.22
2449 37.1917 2140.00 2152.96 46.26
2450 37.2048 2054.00 2157.18 45.32
2451 37.2179 2161.00 2153.11 46.49
2452 37.2310 2031.00 2144.10 45.07
2453 37.2442 2083.00 2134.16 45.64
2454 37.2573 2173.00 2127.87 46.62
2455 37.2704 2087.00 2128.42 45.68
2456 37.2836 2087.00 2137.36 45.68
2457 37.2967 2131.00 2155.00 46.16
2458 37.3098 2124.00 2181.27 46.09
2459 37.3229 2145.00 2217.08 46.31
2460 37.3361 2282.00 2263.52 47.77
2461 37.3492 2345.00 2322.36 48.43
2462 37.3623 2436.00 2394.86 49.36
2463 37.3755 2482.00 2481.29 49.82
2464 37.3886 2618.00 2580.48 51.17
2465 37.4017 2603.00 2690.23 51.02
2466 37.4149 2762.00 2807.36 52.55
2467 37.4280 2935.00 2927.50 54.18
2468 37.4411 2940.00 3044.31 54.22
2469 37.4543 3104.00 3150.11 55.71
2470 37.4674 3209.00 3237.82 56.65
2471 37.4805 3412.00 3303.00 58.41
2472 37.4936 3403.00 3343.83 58.34
2473 37.5068 3420.00 3361.01 58.48
2474 37.5199 3493.00 3354.22 59.10
2475 37.5330 3361.00 3323.56 57.97
2476 37.5462 3300.00 3268.84 57.45
2477 37.5593 3194.00 3190.85 56.52
2478 37.5724 2998.00 3092.52 54.75
2479 37.5855 2989.00 2978.64 54.67
2480 37.5987 2874.00 2855.92 53.61
2481 37.6118 2788.00 2728.94 52.80
2482 37.6249 2639.00 2602.61 51.37
2483 37.6381 2477.00 2480.19 49.77
2484 37.6512 2342.00 2364.39 48.39
2485 37.6643 2194.00 2257.68 46.84
2486 37.6775 2123.00 2162.39 46.08
2487 37.6906 1965.00 2080.52 44.33
2488 37.7037 2036.00 2013.71 45.12
2489 37.7169 1925.00 1962.51 43.87
2490 37.7300 1910.00 1926.92 43.70
2491 37.7431 1921.00 1906.07 43.83
2492 37.7562 1887.00 1898.06 43.44
2493 37.7694 1947.00 1900.37 44.12
2494 37.7825 1887.00 1909.52 43.44
2495 37.7956 1897.00 1921.06 43.55
2496 37.8088 1972.00 1930.04 44.41
2497 37.8219 1960.00 1932.31 44.27
2498 37.8350 1889.00 1925.53 43.46
2499 37.8481 1938.00 1911.03 44.02
2500 37.8613 1857.00 1890.91 43.09
2501 37.8744 1914.00 1867.84 43.75
2502 37.8875 1811.00 1843.51 42.56
2503 37.9007 1758.00 1818.36 41.93
2504 37.9138 1727.00 1792.16 41.56
2505 37.9269 1811.00 1764.69 42.56
2506 37.9401 1815.00 1737.11 42.60
2507 37.9532 1616.00 1711.25 40.20
2508 37.9663 1715.00 1688.89 41.41
2509 37.9795 1678.00 1672.17 40.96
2510 37.9926 1660.00 1662.53 40.74
2511 38.0057 1697.00 1660.85 41.19
2512 38.0188 1614.00 1667.52 40.17
2513 38.0320 1671.00 1682.35 40.88
2514 38.0451 1732.00 1704.65 41.62
2515 38.0582 1735.00 1732.97 41.65
2516 38.0714 1880.00 1765.29 43.36
2517 38.0845 1921.00 1798.65 43.83
2518 38.0976 1882.00 1828.89 43.38
2519 38.1107 1920.00 1853.79 43.82
2520 38.1239 1880.00 1869.51 43.36
2521 38.1370 2044.00 1874.40 45.21
2522 38.1501 1897.00 1868.92 43.55
2523 38.1633 2002.00 1855.27 44.74
2524 38.1764 1930.00 1835.95 43.93
2525 38.1895 1927.00 1813.13 43.90
2526 38.2027 1794.00 1787.29 42.36
2527 38.2158 1811.00 1758.99 42.56
2528 38.2289 1738.00 1728.51 41.69
2529 38.2421 1795.00 1696.15 42.37
2530 38.2552 1679.00 1662.95 40.98
2531 38.2683 1614.00 1630.26 40.17
2532 38.2814 1647.00 1599.76 40.58
2533 38.2946 1610.00 1572.38 40.12
2534 38.3077 1574.00 1548.47 39.67
2535 38.3208 1531.00 1528.27 39.13
2536 38.3340 1492.00 1511.92 38.63
2537 38.3471 1555.00 1499.52 39.43
2538 38.3602 1498.00 1490.22 38.70
2539 38.3733 1559.00 1484.19 39.48
2540 38.3865 1464.00 1481.15 38.26
2541 38.3996 1472.00 1481.04 38.37
2542 38.4127 1530.00 1483.79 39.12
2543 38.4259 1486.00 1489.42 38.55
2544 38.4390 1572.00 1498.51 39.65
2545 38.4521 1553.00 1510.96 39.41
2546 38.4653 1650.00 1527.48 40.62
2547 38.4784 1576.00 1548.24 39.70
2548 38.4915 1669.00 1573.50 40.85
2549 38.5047 1746.00 1603.34 41.79
2550 38.5178 1779.00 1637.90 42.18
2551 38.5309 1751.00 1676.66 41.85
2552 38.5440 1865.00 1719.09 43.19
2553 38.5572 1976.00 1763.87 44.45
2554 38.5703 1990.00 1809.99 44.61
2555 38.5834 2040.00 1856.65 45.17
2556 38.5966 2054.00 1904.02 45.32
2557 38.6097 2161.00 1953.56 46.49
2558 38.6228 2035.00 2006.92 45.11
2559 38.6359 2168.00 2065.34 46.56
2560 38.6491 2126.00 2129.01 46.11
2561 38.6622 2259.00 2196.89 47.53
2562 38.6753 2237.00 2266.95 47.30
2563 38.6885 2429.00 2337.13 49.28
2564 38.7016 2308.00 2406.30 48.04
2565 38.7147 2387.00 2474.70 48.86
2566 38.7279 2522.00 2543.56 50.22
2567 38.7410 2549.00 2612.32 50.49
2568 38.7541 2607.00 2679.16 51.06
2569 38.7673 2562.00 2740.48 50.62
2570 38.7804 2745.00 2790.98 52.39
2571 38.7935 2755.00 2824.69 52.49
2572 38.8066 2844.00 2837.00 53.33
2573 38.8198 2750.00 2826.57 52.44
2574 38.8329 2718.00 2796.77 52.13
2575 38.8460 2653.00 2752.81 51.51
2576 38.8592 2667.00 2699.77 51.64
2577 38.8723 2532.00 2641.28 50.32
2578 38.8854 2571.00 2577.97 50.71
2579 38.8985 2537.00 2509.36 50.37
2580 38.9117 2361.00 2434.98 48.59
2581 38.9248 2330.00 2356.21 48.27
2582 38.9379 2233.00 2275.45 47.25
2583 38.9511 2124.00 2196.02 46.09
2584 38.9642 2122.00 2120.59 46.07
2585 38.9773 2085.00 2051.27 45.66
2586 38.9905 1907.00 1989.20 43.67
2587 39.0036 1877.00 1935.05 43.32
2588 39.0167 1859.00 1889.04 43.12
2589 39.0299 1836.00 1850.84 42.85
2590 39.0430 1791.00 1819.52 42.32
2591 39.0561 1864.00 1793.29 43.17
2592 39.0692 1798.00 1770.49 42.40
2593 39.0824 1673.00 1748.71 40.90
2594 39.0955 1738.00 1726.86 41.69
2595 39.1086 1660.00 1704.09 40.74
2596 39.1218 1623.00 1681.34 40.29
2597 39.1349 1608.00 1658.81 40.10
2598 39.1480 1626.00 1637.33 40.32
2599 39.1611 1576.00 1617.19 39.70
2600 39.1743 1545.00 1598.17 39.31
2601 39.1874 1555.00 1580.06 39.43
2602 39.2005 1548.00 1562.57 39.34
2603 39.2137 1521.00 1545.70 39.00
2604 39.2268 1500.00 1530.31 38.73
2605 39.2399 1484.00 1516.53 38.52
2606 39.2531 1512.00 1505.27 38.88
2607 39.2662 1504.00 1496.88 38.78
2608 39.2793 1451.00 1491.65 38.09
2609 39.2924 1405.00 1489.96 37.48
2610 39.3056 1449.00 1491.20 38.07
2611 39.3187 1443.00 1495.49 37.99
2612 39.3318 1469.00 1502.49 38.33
2613 39.3450 1498.00 1511.62 38.70
2614 39.3581 1465.00 1522.18 38.28
2615 39.3712 1559.00 1533.10 39.48
2616 39.3844 1527.00 1543.06 39.08
2617 39.3975 1540.00 1551.15 39.24
2618 39.4106 1614.00 1556.57 40.17
2619 39.4237 1558.00 1559.25 39.47
2620 39.4369 1556.00 1559.92 39.45
2621 39.4500 1491.00 1558.42 38.61
2622 39.4631 1586.00 1556.17 39.82
2623 39.4763 1591.00 1553.49 39.89
2624 39.4894 1570.00 1550.87 39.62
2625 39.5025 1539.00 1548.47 39.23
2626 39.5157 1558.00 1546.63 39.47
2627 39.5288 1504.00 1547.15 38.78
2628 39.5419 1624.00 1550.25 40.30
2629 39.5550 1550.00 1557.12 39.37
2630 39.5682 1560.00 1568.20 39.50
2631 39.5813 1580.00 1585.10 39.75
2632 39.5944 1611.00 1607.39 40.14
2633 39.6076 1648.00 1635.84 40.60
2634 39.6207 1660.00 1669.82 40.74
2635 39.6338 1688.00 1708.93 41.09
2636 39.6470 1742.00 1751.86 41.74
2637 39.6601 1818.00 1795.97 42.64
2638 39.6732 1836.00 1838.57 42.85
2639 39.6863 1892.00 1876.38 43.50
2640 39.6995 1918.00 1906.34 43.79
2641 39.7126 1986.00 1928.20 44.56
2642 39.7257 1983.00 1942.91 44.53
2643 39.7389 1962.00 1952.63 44.29
2644 39.7520 1898.00 1959.64 43.57
2645 39.7651 2025.00 1964.51 45.00
2646 39.7783 1919.00 1966.70 43.81
2647 39.7914 1976.00 1964.70 44.45
2648 39.8045 1965.00 1957.05 44.33
2649 39.8176 1929.00 1943.25 43.92
2650 39.8308 1903.00 1923.86 43.62
2651 39.8439 1850.00 1900.01 43.01
2652 39.8570 1808.00 1872.91 42.52
2653 39.8702 1821.00 1843.65 42.67
2654 39.8833 1764.00 1813.35 42.00
2655 39.8964 1731.00 1782.77 41.61
2656 39.9096 1606.00 1753.77 40.07
2657 39.9227 1756.00 1726.94 41.90
2658 39.9358 1578.00 1702.95 39.72
2659 39.9489 1616.00 1682.15 40.20
2660 39.9621 1563.00 1664.64 39.53
2661 39.9752 1592.00 1650.46 39.90
2662 39.9883 1641.00 1639.64 40.51
2663 40.0015 1594.00 1632.33 39.92
2664 40.0146 1622.00 1627.96 40.27
2665 40.0277 1542.00 1626.03 39.27
2666 40.0409 1672.00 1625.40 40.89
2667 40.0540 1585.00 1624.69 39.81
2668 40.0671 1603.00 1622.39 40.04
2669 40.0802 1580.00 1617.75 39.75
2670 40.0934 1604.00 1610.77 40.05
2671 40.1065 1598.00 1602.12 39.97
2672 40.1196 1525.00 1592.75 39.05
2673 40.1328 1624.00 1583.46 40.30
2674 40.1459 1554.00 1574.70 39.42
2675 40.1590 1583.00 1566.33 39.79
2676 40.1722 1548.00 1558.32 39.34
2677 40.1853 1595.00 1550.63 39.94
2678 40.1984 1572.00 1543.73 39.65
2679 40.2115 1608.00 1538.12 40.10
2680 40.2247 1578.00 1534.06 39.72
2681 40.2378 1600.00 1532.66 40.00
2682 40.2509 1624.00 1533.84 40.30
2683 40.2641 1524.00 1537.41 39.04
2684 40.2772 1559.00 1543.11 39.48
2685 40.2903 1583.00 1550.21 39.79
2686 40.3035 1630.00 1558.27 40.37
2687 40.3166 1620.00 1566.73 40.25
2688 40.3297 1687.00 1575.42 41.07
2689 40.3428 1663.00 1585.04 40.78
2690 40.3560 1643.00 1596.10 40.53
2691 40.3691 1712.00 1609.31 41.38
2692 40.3822 1649.00 1625.04 40.61
2693 40.3954 1717.00 1643.50 41.44
2694 40.4085 1784.00 1664.66 42.24
2695 40.4216 1627.00 1688.36 40.34
2696 40.4348 1681.00 1714.30 41.00
2697 40.4479 1765.00 1741.87 42.01
2698 40.4610 1737.00 1769.95 41.68
2699 40.4741 1709.00 1796.96 41.34
2700 40.4873 1755.00 1820.01 41.89
2701 40.5004 1779.00 1836.46 42.18
2702 40.5135 1764.00 1844.46 42.00
2703 40.5267 1738.00 1843.54 41.69
2704 40.5398 1849.00 1834.65 43.00
2705 40.5529 1785.00 1819.94 42.25
2706 40.5661 1777.00 1801.57 42.15
2707 40.5792 1709.00 1781.02 41.34
2708 40.5923 1750.00 1758.84 41.83
2709 40.6054 1654.00 1734.91 40.67
2710 40.6186 1652.00 1708.93 40.64
2711 40.6317 1638.00 1681.21 40.47
2712 40.6448 1591.00 1652.03 39.89
2713 40.6580 1485.00 1622.76 38.54
2714 40.6711 1554.00 1594.77 39.42
2715 40.6842 1481.00 1568.97 38.48
2716 40.6974 1463.00 1546.07 38.25
2717 40.7105 1503.00 1526.82 38.77
2718 40.7236 1440.00 1511.15 37.95
2719 40.7367 1517.00 1499.14 38.95
2720 40.7499 1450.00 1490.52 38.08
2721 40.7630 1408.00 1485.04 37.52
2722 40.7761 1413.00 1482.42 37.59
2723 40.7893 1443.00 1482.26 37.99
2724 40.8024 1432.00 1484.02 37.84
2725 40.8155 1421.00 1487.32 37.70
2726 40.8287 1437.00 1491.09 37.91
2727 40.8418 1482.00 1495.40 38.50
2728 40.8549 1425.00 1499.06 37.75
2729 40.8680 1499.00 1501.97 38.72
2730 40.8812 1487.00 1503.87 38.56
2731 40.8943 1437.00 1505.65 37.91
2732 40.9074 1507.00 1507.69 38.82
2733 40.9206 1428.00 1510.56 37.79
2734 40.9337 1521.00 1514.50 39.00
2735 40.9468 1457.00 1519.45 38.17
2736 40.9600 1507.00 1526.79 38.82
2737 40.9731 1524.00 1535.99 39.04
2738 40.9862 1607.00 1547.18 40.09
2739 40.9993 1529.00 1560.79 39.10
2740 41.0125 1557.00 1576.92 39.46
2741 41.0256 1628.00 1595.58 40.35
2742 41.0387 1665.00 1616.19 40.80
2743 41.0519 1695.00 1638.10 41.17
2744 41.0650 1678.00 1660.92 40.96
2745 41.0781 1751.00 1683.30 41.85
2746 41.0913 1751.00 1704.46 41.85
2747 41.1044 1720.00 1724.01 41.47
2748 41.1175 1767.00 1742.41 42.04
2749 41.1306 1729.00 1760.42 41.58
2750 41.1438 1915.00 1778.94 43.76
2751 41.1569 1853.00 1798.98 43.05
2752 41.1700 1894.00 1820.88 43.52
2753 41.1832 1947.00 1844.47 44.12
2754 41.1963 1924.00 1869.06 43.86
2755 41.2094 1924.00 1893.65 43.86
2756 41.2226 1969.00 1917.27 44.37
2757 41.2357 1963.00 1938.89 44.31
2758 41.2488 1982.00 1957.49 44.52
2759 41.2619 2012.00 1972.58 44.86
2760 41.2751 2101.00 1983.69 45.84
2761 41.2882 2044.00 1991.28 45.21
2762 41.3013 2051.00 1996.70 45.29
2763 41.3145 2029.00 2001.89 45.04
2764 41.3276 2112.00 2008.83 45.96
2765 41.3407 2100.00 2019.08 45.83
2766 41.3539 1983.00 2033.46 44.53
2767 41.3670 2067.00 2052.19 45.46
2768 41.3801 2097.00 2074.68 45.79
2769 41.3932 2091.00 2099.99 45.73
2770 41.4064 2234.00 2126.90 47.27
2771 41.4195 2039.00 2154.05 45.16
2772 41.4326 2143.00 2180.07 46.29
2773 41.4458 2187.00 2203.62 46.77
2774 41.4589 2128.00 2223.67 46.13
2775 41.4720 2245.00 2239.15 47.38
2776 41.4852 2217.00 2248.86 47.08
2777 41.4983 2216.00 2251.73 47.07
2778 41.5114 2089.00 2247.38 45.71
2779 41.5245 2181.00 2236.60 46.70
2780 41.5377 2158.00 2221.33 46.45
2781 41.5508 2134.00 2203.90 46.20
2782 41.5639 2116.00 2186.62 46.00
2783 41.5771 2042.00 2171.08 45.19
2784 41.5902 2098.00 2158.32 45.80
2785 41.6033 2061.00 2148.40 45.40
2786 41.6165 2099.00 2141.13 45.81
2787 41.6296 2012.00 2136.20 44.86
2788 41.6427 2028.00 2133.39 45.03
2789 41.6558 2057.00 2132.24 45.35
2790 41.6690 2135.00 2131.92 46.21
2791 41.6821 2044.00 2131.51 45.21
2792 41.6952 2098.00 2130.35 45.80
2793 41.7084 2095.00 2127.62 45.77
2794 41.7215 2102.00 2123.45 45.85
2795 41.7346 2092.00 2118.45 45.74
2796 41.7478 2066.00 2113.49 45.45
2797 41.7609 2099.00 2109.12 45.81
2798 41.7740 2045.00 2105.17 45.22
2799 41.7871 2079.00 2100.64 45.60
2800 41.8003 2076.00 2093.87 45.56
2801 41.8134 2167.00 2083.04 46.55
2802 41.8265 2079.00 2067.04 45.60
2803 41.8397 2123.00 2045.46 46.08
2804 41.8528 2087.00 2019.88 45.68
2805 41.8659 2020.00 1992.20 44.94
2806 41.8791 1908.00 1964.88 43.68
2807 41.8922 1882.00 1939.17 43.38
2808 41.9053 1934.00 1916.74 43.98
2809 41.9184 1880.00 1896.99 43.36
2810 41.9316 1897.00 1879.37 43.55
2811 41.9447 1873.00 1863.13 43.28
2812 41.9578 1924.00 1847.57 43.86
2813 41.9710 1936.00 1832.02 44.00
2814 41.9841 1847.00 1815.91 42.98
2815 41.9972 1824.00 1798.69 42.71
2816 42.0104 1812.00 1779.75 42.57
2817 42.0235 1747.00 1759.87 41.80
2818 42.0366 1641.00 1739.44 40.51
2819 42.0497 1726.00 1719.40 41.55
2820 42.0629 1700.00 1700.55 41.23
2821 42.0760 1786.00 1683.48 42.26
2822 42.0891 1581.00 1668.59 39.76
2823 42.1023 1589.00 1655.70 39.86
2824 42.1154 1675.00 1644.78 40.93
2825 42.1285 1679.00 1636.12 40.98
2826 42.1417 1650.00 1630.09 40.62
2827 42.1548 1608.00 1627.28 40.10
2828 42.1679 1675.00 1628.22 40.93
2829 42.1810 1639.00 1633.31 40.48
2830 42.1942 1681.00 1642.72 41.00
2831 42.2073 1706.00 1656.16 41.30
2832 42.2204 1654.00 1672.99 40.67
2833 42.2336 1684.00 1692.26 41.04
2834 42.2467 1742.00 1712.67 41.74
2835 42.2598 1771.00 1732.81 42.08
2836 42.2730 1860.00 1751.12 43.13
2837 42.2861 1863.00 1766.36 43.16
2838 42.2992 1840.00 1777.47 42.90
2839 42.3123 1851.00 1784.00 43.02
2840 42.3255 1820.00 1785.58 42.66
2841 42.3386 1869.00 1782.48 43.23
2842 42.3517 1885.00 1775.53 43.42
2843 42.3649 1771.00 1765.80 42.08
2844 42.3780 1769.00 1754.43 42.06
2845 42.3911 1766.00 1742.18 42.02
2846 42.4043 1695.00 1729.69 41.17
2847 42.4174 1678.00 1717.59 40.96
2848 42.4305 1711.00 1706.20 41.36
2849 42.4436 1684.00 1695.83 41.04
2850 42.4568 1648.00 1686.95 40.60
2851 42.4699 1580.00 1680.04 39.75
2852 42.4830 1635.00 1675.33 40.44
2853 42.4962 1618.00 1672.77 40.22
2854 42.5093 1646.00 1671.89 40.57
2855 42.5224 1538.00 1671.98 39.22
2856 42.5356 1535.00 1672.29 39.18
2857 42.5487 1614.00 1672.25 40.17
2858 42.5618 1639.00 1671.49 40.48
2859 42.5749 1557.00 1670.20 39.46
2860 42.5881 1567.00 1668.56 39.59
2861 42.6012 1635.00 1667.02 40.44
2862 42.6143 1641.00 1666.11 40.51
2863 42.6275 1637.00 1666.32 40.46
2864 42.6406 1629.00 1668.08 40.36
2865 42.6537 1637.00 1671.78 40.46
2866 42.6669 1560.00 1677.69 39.50
2867 42.6800 1564.00 1686.16 39.55
2868 42.6931 1622.00 1697.39 40.27
2869 42.7062 1614.00 1711.37 40.17
2870 42.7194 1698.00 1727.98 41.21
2871 42.7325 1612.00 1746.73 40.15
2872 42.7456 1724.00 1766.62 41.52
2873 42.7588 1749.00 1786.40 41.82
2874 42.7719 1651.00 1804.02 40.63
2875 42.7850 1828.00 1818.58 42.76
2876 42.7982 1748.00 1828.98 41.81
2877 42.8113 1753.00 1835.30 41.87
2878 42.8244 1726.00 1838.71 41.55
2879 42.8375 1737.00 1840.77 41.68
2880 42.8507 1741.00 1842.89 41.73
2881 42.8638 1832.00 1845.88 42.80
2882 42.8769 1762.00 1849.73 41.98
2883 42.8901 1804.00 1854.25 42.47
2884 42.9032 1815.00 1858.46 42.60
2885 42.9163 1921.00 1861.49 43.83
2886 42.9295 1946.00 1862.67 44.11
2887 42.9426 1904.00 1861.23 43.63
2888 42.9557 2030.00 1856.74 45.06
2889 42.9688 1960.00 1848.85 44.27
2890 42.9820 1982.00 1837.60 44.52
2891 42.9951 1963.00 1823.47 44.31
2892 43.0082 1881.00 1807.42 43.37
2893 43.0214 1921.00 1790.66 43.83
2894 43.0345 1798.00 1774.31 42.40
2895 43.0476 1882.00 1759.17 43.38
2896 43.0608 1809.00 1745.49 42.53
2897 43.0739 1872.00 1733.36 43.27
2898 43.0870 1737.00 1722.80 41.68
2899 43.1001 1853.00 1713.60 43.05
2900 43.1133 1769.00 1705.87 42.06
2901 43.1264 1801.00 1699.72 42.44
2902 43.1395 1776.00 1695.06 42.14
2903 43.1527 1704.00 1691.74 41.28
2904 43.1658 1702.00 1689.06 41.26
2905 43.1789 1767.00 1686.14 42.04
2906 43.1921 1856.00 1682.23 43.08
2907 43.2052 1696.00 1676.25 41.18
2908 43.2183 1702.00 1668.06 41.26
2909 43.2314 1784.00 1657.82 42.24
2910 43.2446 1698.00 1645.99 41.21
2911 43.2577 1642.00 1633.13 40.52
2912 43.2708 1678.00 1619.78 40.96
2913 43.2840 1604.00 1606.20 40.05
2914 43.2971 1632.00 1592.46 40.40
2915 43.3102 1619.00 1578.66 40.24
2916 43.3234 1506.00 1564.72 38.81
2917 43.3365 1531.00 1550.77 39.13
2918 43.3496 1475.00 1537.22 38.41
2919 43.3627 1479.00 1524.45 38.46
2920 43.3759 1509.00 1512.78 38.85
2921 43.3890 1511.00 1502.71 38.87
2922 43.4021 1454.00 1494.25 38.13
2923 43.4153 1445.00 1487.44 38.01
2924 43.4284 1433.00 1482.15 37.85
2925 43.4415 1456.00 1478.01 38.16
2926 43.4547 1473.00 1474.58 38.38
2927 43.4678 1457.00 1471.48 38.17
2928 43.4809 1367.00 1468.14 36.97
2929 43.4940 1430.00 1464.37 37.82
2930 43.5072 1424.00 1460.22 37.74
2931 43.5203 1402.00 1455.91 37.44
2932 43.5334 1333.00 1451.32 36.51
2933 43.5466 1470.00 1446.88 38.34
2934 43.5597 1336.00 1442.42 36.55
2935 43.5728 1409.00 1437.88 37.54
2936 43.5860 1383.00 1433.41 37.19
2937 43.5991 1346.00 1428.90 36.69
2938 43.6122 1365.00 1424.36 36.95
2939 43.6253 1347.00 1420.05 36.70
2940 43.6385 1374.00 1415.76 37.07
2941 43.6516 1349.00 1411.90 36.73
2942 43.6647 1356.00 1408.57 36.82
2943 43.6779 1354.00 1406.02 36.80
2944 43.6910 1389.00 1404.01 37.27
2945 43.7041 1419.00 1402.75 37.67
2946 43.7173 1358.00 1402.44 36.85
2947 43.7304 1405.00 1402.87 37.48
2948 43.7435 1355.00 1403.94 36.81
2949 43.7566 1389.00 1405.98 37.27
2950 43.7698 1385.00 1408.72 37.22
2951 43.7829 1330.00 1412.30 36.47
2952 43.7960 1412.00 1416.64 37.58
2953 43.8092 1413.00 1421.76 37.59
2954 43.8223 1406.00 1427.35 37.50
2955 43.8354 1391.00 1434.28 37.30
2956 43.8486 1404.00 1441.89 37.47
2957 43.8617 1412.00 1450.19 37.58
2958 43.8748 1495.00 1459.23 38.67
2959 43.8879 1435.00 1468.66 37.88
2960 43.9011 1385.00 1478.32 37.22
2961 43.9142 1484.00 1487.93 38.52
2962 43.9273 1482.00 1497.37 38.50
2963 43.9405 1454.00 1506.53 38.13
2964 43.9536 1475.00 1515.89 38.41
2965 43.9667 1513.00 1525.71 38.90
2966 43.9799 1528.00 1535.85 39.09
2967 43.9930 1571.00 1546.39 39.64
2968 44.0061 1569.00 1557.56 39.61
2969 44.0192 1567.00 1568.98 39.59
2970 44.0324 1532.00 1580.35 39.14
2971 44.0455 1605.00 1591.09 40.06
2972 44.0586 1536.00 1601.43 39.19
2973 44.0718 1555.00 1610.92 39.43
2974 44.0849 1558.00 1619.63 39.47
2975 44.0980 1545.00 1627.53 39.31
2976 44.1112 1570.00 1635.07 39.62
2977 44.1243 1528.00 1643.01 39.09
2978 44.1374 1559.00 1652.05 39.48
2979 44.1505 1632.00 1662.74 40.40
2980 44.1637 1636.00 1674.97 40.45
2981 44.1768 1644.00 1688.98 40.55
2982 44.1899 1610.00 1704.66 40.12
2983 44.2031 1604.00 1721.29 40.05
2984 44.2162 1609.00 1737.92 40.11
2985 44.2293 1639.00 1753.49 40.48
2986 44.2425 1659.00 1766.87 40.73
2987 44.2556 1711.00 1777.06 41.36
2988 44.2687 1709.00 1783.55 41.34
2989 44.2818 1695.00 1786.07 41.17
2990 44.2950 1727.00 1785.18 41.56
2991 44.3081 1723.00 1781.59 41.51
2992 44.3212 1676.00 1775.95 40.94
2993 44.3344 1727.00 1768.54 41.56
2994 44.3475 1710.00 1759.10 41.35
2995 44.3606 1728.00 1747.03 41.57
2996 44.3738 1667.00 1732.28 40.83
2997 44.3869 1674.00 1714.59 40.91
2998 44.4000 1682.00 1694.42 41.01
2999 44.4131 1597.00 1672.63 39.96
3000 44.4263 1619.00 1650.19 40.24
3001 44.4394 1660.00 1628.02 40.74
3002 44.4525 1621.00 1606.78 40.26
3003 44.4657 1576.00 1586.86 39.70
3004 44.4788 1494.00 1568.35 38.65
3005 44.4919 1539.00 1551.48 39.23
3006 44.5051 1528.00 1536.31 39.09
3007 44.5182 1526.00 1522.90 39.06
3008 44.5313 1468.00 1511.40 38.31
3009 44.5444 1462.00 1501.91 38.24
3010 44.5576 1439.00 1494.44 37.93
3011 44.5707 1532.00 1488.87 39.14
3012 44.5838 1539.00 1485.01 39.23
3013 44.5970 1487.00 1482.58 38.56
3014 44.6101 1556.00 1481.33 39.45
3015 44.6232 1583.00 1480.83 39.79
3016 44.6364 1534.00 1480.94 39.17
3017 44.6495 1496.00 1481.46 38.68
3018 44.6626 1546.00 1483.03 39.32
3019 44.6758 1521.00 1485.09 39.00
3020 44.6889 1553.00 1488.13 39.41
3021 44.7020 1583.00 1492.14 39.79
3022 44.7151 1528.00 1497.48 39.09
3023 44.7283 1606.00 1503.91 40.07
3024 44.7414 1584.00 1511.25 39.80
3025 44.7545 1536.00 1519.25 39.19
3026 44.7677 1638.00 1527.51 40.47
3027 44.7808 1647.00 1535.75 40.58
3028 44.7939 1672.00 1543.47 40.89
3029 44.8070 1631.00 1550.22 40.39
3030 44.8202 1638.00 1555.51 40.47
3031 44.8333 1675.00 1559.31 40.93
3032 44.8464 1729.00 1561.41 41.58
3033 44.8596 1751.00 1561.82 41.85
3034 44.8727 1697.00 1560.51 41.19
3035 44.8858 1729.00 1557.65 41.58
3036 44.8990 1689.00 1553.01 41.10
3037 44.9121 1667.00 1546.95 40.83
3038 44.9252 1696.00 1539.47 41.18
3039 44.9384 1624.00 1531.09 40.30
3040 44.9515 1566.00 1521.93 39.57
3041 44.9646 1619.00 1512.38 40.24
3042 44.9777 1575.00 1502.45 39.69
3043 44.9909 1556.00 1492.53 39.45
3044 45.0040 1584.00 1482.74 39.80
3045 45.0171 1560.00 1473.20 39.50
3046 45.0303 1527.00 1464.13 39.08
3047 45.0434 1526.00 1455.71 39.06
3048 45.0565 1438.00 1448.20 37.92
3049 45.0696 1562.00 1441.74 39.52
3050 45.0828 1426.00 1436.43 37.76
3051 45.0959 1417.00 1432.31 37.64
3052 45.1090 1439.00 1429.46 37.93
3053 45.1222 1499.00 1427.87 38.72
3054 45.1353 1405.00 1427.52 37.48
3055 45.1484 1446.00 1428.36 38.03
3056 45.1616 1392.00 1430.38 37.31
3057 45.1747 1523.00 1433.47 39.03
3058 45.1878 1409.00 1437.51 37.54
3059 45.2010 1458.00 1442.45 38.18
3060 45.2141 1500.00 1447.89 38.73
3061 45.2272 1440.00 1454.13 37.95
3062 45.2403 1436.00 1460.48 37.89
3063 45.2535 1450.00 1466.76 38.08
3064 45.2666 1508.00 1472.69 38.83
3065 45.2797 1483.00 1478.05 38.51
3066 45.2929 1501.00 1482.75 38.74
3067 45.3060 1521.00 1486.79 39.00
3068 45.3191 1510.00 1490.34 38.86
3069 45.3322 1490.00 1493.42 38.60
3070 45.3454 1467.00 1496.53 38.30
3071 45.3585 1484.00 1499.63 38.52
3072 45.3716 1493.00 1502.90 38.64
3073 45.3848 1463.00 1506.74 38.25
3074 45.3979 1543.00 1511.23 39.28
3075 45.4110 1523.00 1516.42 39.03
3076 45.4242 1458.00 1522.88 38.18
3077 45.4373 1513.00 1530.54 38.90
3078 45.4504 1583.00 1539.50 39.79
3079 45.4636 1544.00 1549.75 39.29
3080 45.4767 1551.00 1561.16 39.38
3081 45.4898 1583.00 1573.46 39.79
3082 45.5029 1530.00 1586.32 39.12
3083 45.5161 1627.00 1599.20 40.34
3084 45.5292 1605.00 1611.44 40.06
3085 45.5423 1613.00 1622.68 40.16
3086 45.5555 1590.00 1632.46 39.87
3087 45.5686 1635.00 1640.66 40.44
3088 45.5817 1682.00 1647.28 41.01
3089 45.5948 1755.00 1652.60 41.89
3090 45.6080 1685.00 1656.96 41.05
3091 45.6211 1666.00 1660.87 40.82
3092 45.6342 1671.00 1664.78 40.88
3093 45.6474 1714.00 1668.93 41.40
3094 45.6605 1618.00 1673.98 40.22
3095 45.6736 1679.00 1679.84 40.98
3096 45.6868 1725.00 1686.94 41.53
3097 45.6999 1699.00 1695.53 41.22
3098 45.7130 1691.00 1705.83 41.12
3099 45.7262 1691.00 1718.06 41.12
3100 45.7393 1759.00 1732.50 41.94
3101 45.7524 1690.00 1748.51 41.11
3102 45.7655 1789.00 1765.83 42.30
3103 45.7787 1681.00 1783.77 41.00
3104 45.7918 1761.00 1801.15 41.96
3105 45.8049 1749.00 1816.77 41.82
3106 45.8181 1760.00 1829.60 41.95
3107 45.8312 1731.00 1838.99 41.61
3108 45.8443 1793.00 1844.98 42.34
3109 45.8574 1820.00 1848.27 42.66
3110 45.8706 1856.00 1849.91 43.08
3111 45.8837 1788.00 1850.96 42.28
3112 45.8968 1844.00 1852.25 42.94
3113 45.9100 1760.00 1854.26 41.95
3114 45.9231 1795.00 1857.19 42.37
3115 45.9362 1777.00 1861.06 42.15
3116 45.9494 1823.00 1866.01 42.70
3117 45.9625 1763.00 1872.35 41.99
3118 45.9756 1877.00 1880.58 43.32
3119 45.9888 1876.00 1891.26 43.31
3120 46.0019 1832.00 1904.78 42.80
3121 46.0150 1944.00 1921.21 44.09
3122 46.0281 1960.00 1940.19 44.27
3123 46.0413 1996.00 1960.94 44.68
3124 46.0544 1951.00 1982.40 44.17
3125 46.0675 2064.00 2003.23 45.43
3126 46.0807 2077.00 2022.55 45.57
3127 46.0938 2037.00 2039.77 45.13
3128 46.1069 2018.00 2054.81 44.92
3129 46.1200 2131.00 2067.99 46.16
3130 46.1332 2069.00 2079.70 45.49
3131 46.1463 2147.00 2090.08 46.34
3132 46.1594 2085.00 2098.91 45.66
3133 46.1726 2021.00 2105.66 44.96
3134 46.1857 2183.00 2109.59 46.72
3135 46.1988 2084.00 2110.11 45.65
3136 46.2120 2105.00 2106.80 45.88
3137 46.2251 2049.00 2099.63 45.27
3138 46.2382 2068.00 2088.85 45.48
3139 46.2514 2075.00 2075.04 45.55
3140 46.2645 1984.00 2058.96 44.54
3141 46.2776 1999.00 2041.32 44.71
3142 46.2907 2018.00 2022.92 44.92
3143 46.3039 1898.00 2004.45 43.57
3144 46.3170 1955.00 1986.44 44.22
3145 46.3301 1872.00 1969.20 43.27
3146 46.3433 1958.00 1952.82 44.25
3147 46.3564 1914.00 1937.15 43.75
3148 46.3695 1940.00 1921.97 44.05
3149 46.3826 1978.00 1907.22 44.47
3150 46.3958 1959.00 1892.71 44.26
3151 46.4089 1913.00 1878.88 43.74
3152 46.4220 1892.00 1866.03 43.50
3153 46.4352 1890.00 1854.85 43.47
3154 46.4483 1916.00 1845.72 43.77
3155 46.4614 1825.00 1838.83 42.72
3156 46.4746 1824.00 1834.13 42.71
3157 46.4877 1867.00 1831.41 43.21
3158 46.5008 1978.00 1830.35 44.47
3159 46.5140 1856.00 1830.88 43.08
3160 46.5271 1902.00 1833.15 43.61
3161 46.5402 1864.00 1837.48 43.17
3162 46.5533 1841.00 1844.45 42.91
3163 46.5665 1848.00 1854.41 42.99
3164 46.5796 1855.00 1867.49 43.07
3165 46.5927 1880.00 1883.44 43.36
3166 46.6059 1891.00 1901.64 43.49
3167 46.6190 1909.00 1921.26 43.69
3168 46.6321 1929.00 1941.05 43.92
3169 46.6452 2051.00 1959.87 45.29
3170 46.6584 1910.00 1976.73 43.70
3171 46.6715 2011.00 1991.00 44.84
3172 46.6846 2045.00 2002.27 45.22
3173 46.6978 2040.00 2010.43 45.17
3174 46.7109 2102.00 2015.36 45.85
3175 46.7240 1974.00 2017.02 44.43
3176 46.7372 2002.00 2015.35 44.74
3177 46.7503 2023.00 2010.63 44.98
3178 46.7634 1913.00 2003.36 43.74
3179 46.7766 1988.00 1994.04 44.59
3180 46.7897 1974.00 1983.69 44.43
3181 46.8028 1976.00 1972.70 44.45
3182 46.8159 2025.00 1961.65 45.00
3183 46.8291 1961.00 1950.51 44.28
3184 46.8422 1907.00 1939.19 43.67
3185 46.8553 1939.00 1927.36 44.03
3186 46.8685 1977.00 1914.63 44.46
3187 46.8816 1866.00 1900.69 43.20
3188 46.8947 1874.00 1885.35 43.29
3189 46.9078 1817.00 1868.76 42.63
3190 46.9210 1847.00 1851.20 42.98
3191 46.9341 1851.00 1833.02 43.02
3192 46.9472 1781.00 1814.59 42.20
3193 46.9604 1823.00 1796.32 42.70
3194 46.9735 1746.00 1778.65 41.79
3195 46.9866 1781.00 1761.75 42.20
3196 46.9998 1649.00 1745.87 40.61
3197 47.0129 1727.00 1731.11 41.56
3198 47.0260 1768.00 1717.52 42.05
3199 47.0392 1795.00 1705.26 42.37
3200 47.0523 1729.00 1694.42 41.58
3201 47.0654 1712.00 1685.23 41.38
3202 47.0785 1689.00 1677.92 41.10
3203 47.0917 1632.00 1672.80 40.40
3204 47.1048 1736.00 1670.14 41.67
3205 47.1179 1665.00 1670.34 40.80
3206 47.1311 1660.00 1673.44 40.74
3207 47.1442 1650.00 1679.77 40.62
3208 47.1573 1742.00 1689.28 41.74
3209 47.1704 1705.00 1701.98 41.29
3210 47.1836 1688.00 1717.60 41.09
3211 47.1967 1732.00 1735.86 41.62
3212 47.2098 1788.00 1756.03 42.28
3213 47.2230 1896.00 1777.34 43.54
3214 47.2361 1807.00 1798.79 42.51
3215 47.2492 1904.00 1819.25 43.63
3216 47.2624 1842.00 1837.56 42.92
3217 47.2755 1802.00 1852.72 42.45
3218 47.2886 1870.00 1863.88 43.24
3219 47.3018 1931.00 1870.73 43.94
3220 47.3149 1868.00 1873.53 43.22
3221 47.3280 1920.00 1872.88 43.82
3222 47.3411 1905.00 1869.63 43.65
3223 47.3543 1923.00 1864.64 43.85
3224 47.3674 1811.00 1858.65 42.56
3225 47.3805 1895.00 1852.22 43.53
3226 47.3937 1930.00 1845.57 43.93
3227 47.4068 1852.00 1838.95 43.03
3228 47.4199 1831.00 1832.52 42.79
3229 47.4330 1829.00 1826.50 42.77
3230 47.4462 1885.00 1821.11 43.42
3231 47.4593 1783.00 1816.77 42.23
3232 47.4724 1811.00 1813.49 42.56
3233 47.4856 1822.00 1811.31 42.68
3234 47.4987 1843.00 1809.97 42.93
3235 47.5118 1825.00 1809.22 42.72
3236 47.5250 1865.00 1808.63 43.19
3237 47.5381 1914.00 1807.87 43.75
3238 47.5512 1903.00 1806.71 43.62
3239 47.5644 1911.00 1805.07 43.72
3240 47.5775 1866.00 1802.76 43.20
3241 47.5906 1915.00 1799.84 43.76
3242 47.6037 1947.00 1796.19 44.12
3243 47.6169 1935.00 1791.61 43.99
3244 47.6300 1902.00 1785.82 43.61
3245 47.6431 1861.00 1778.62 43.14
3246 47.6563 1891.00 1769.99 43.49
3247 47.6694 1821.00 1760.08 42.67
3248 47.6825 1786.00 1749.28 42.26
3249 47.6956 1812.00 1738.00 42.57
3250 47.7088 1796.00 1726.76 42.38
3251 47.7219 1823.00 1716.07 42.70
3252 47.7350 1723.00 1706.31 41.51
3253 47.7482 1818.00 1697.76 42.64
3254 47.7613 1791.00 1690.58 42.32
3255 47.7744 1722.00 1685.10 41.50
3256 47.7876 1727.00 1680.84 41.56
3257 47.8007 1743.00 1678.14 41.75
3258 47.8138 1721.00 1676.73 41.48
3259 47.8270 1783.00 1676.58 42.23
3260 47.8401 1692.00 1677.48 41.13
3261 47.8532 1796.00 1679.11 42.38
3262 47.8663 1711.00 1681.10 41.36
3263 47.8795 1759.00 1683.06 41.94
3264 47.8926 1668.00 1684.62 40.84
3265 47.9057 1774.00 1685.54 42.12
3266 47.9189 1800.00 1685.74 42.43
3267 47.9320 1752.00 1685.32 41.86
3268 47.9451 1667.00 1684.43 40.83
3269 47.9582 1721.00 1683.30 41.48
3270 47.9714 1701.00 1682.05 41.24
3271 47.9845 1726.00 1680.91 41.55
3272 47.9976 1704.00 1679.41 41.28
3273 48.0108 1683.00 1677.72 41.02
3274 48.0239 1696.00 1675.38 41.18
3275 48.0370 1611.00 1672.26 40.14
3276 48.0502 1654.00 1668.21 40.67
3277 48.0633 1551.00 1663.19 39.38
3278 48.0764 1603.00 1657.37 40.04
3279 48.0896 1619.00 1651.14 40.24
3280 48.1027 1599.00 1644.64 39.99
3281 48.1158 1634.00 1638.32 40.42
3282 48.1289 1550.00 1632.60 39.37
3283 48.1421 1606.00 1627.74 40.07
3284 48.1552 1572.00 1623.83 39.65
3285 48.1683 1638.00 1621.09 40.47
3286 48.1815 1631.00 1619.52 40.39
3287 48.1946 1616.00 1619.11 40.20
3288 48.2077 1615.00 1619.87 40.19
3289 48.2208 1575.00 1622.05 39.69
3290 48.2340 1579.00 1625.61 39.74
3291 48.2471 1671.00 1630.77 40.88
3292 48.2602 1586.00 1637.69 39.82
3293 48.2734 1627.00 1646.51 40.34
3294 48.2865 1589.00 1657.27 39.86
3295 48.2996 1648.00 1670.06 40.60
3296 48.3128 1689.00 1684.77 41.10
3297 48.3259 1688.00 1701.26 41.09
3298 48.3390 1675.00 1719.32 40.93
3299 48.3521 1708.00 1738.59 41.33
3300 48.3653 1766.00 1758.87 42.02
3301 48.3784 1855.00 1779.78 43.07
3302 48.3915 1802.00 1800.95 42.45
3303 48.4047 1782.00 1821.90 42.21
3304 48.4178 1793.00 1842.02 42.34
3305 48.4309 1835.00 1860.51 42.84
3306 48.4441 1916.00 1876.58 43.77
3307 48.4572 1823.00 1889.37 42.70
3308 48.4703 1890.00 1898.90 43.47
3309 48.4834 1826.00 1904.85 42.73
3310 48.4966 1873.00 1907.52 43.28
3311 48.5097 1872.00 1907.15 43.27
3312 48.5228 1893.00 1904.02 43.51
3313 48.5360 1857.00 1898.34 43.09
3314 48.5491 1922.00 1890.25 43.84
3315 48.5622 1924.00 1879.94 43.86
3316 48.5754 1820.00 1867.69 42.66
3317 48.5885 1914.00 1853.72 43.75
3318 48.6016 1780.00 1838.71 42.19
3319 48.6147 1839.00 1823.00 42.88
3320 48.6279 1828.00 1807.08 42.76
3321 48.6410 1745.00 1791.24 41.77
3322 48.6541 1742.00 1775.66 41.74
3323 48.6673 1785.00 1760.44 42.25
3324 48.6804 1819.00 1745.68 42.65
3325 48.6935 1686.00 1731.48 41.06
3326 48.7067 1664.00 1718.09 40.79
3327 48.7198 1717.00 1705.61 41.44
3328 48.7329 1657.00 1694.42 40.71
3329 48.7460 1672.00 1684.40 40.89
3330 48.7592 1596.00 1676.05 39.95
3331 48.7723 1662.00 1669.04 40.77
3332 48.7854 1669.00 1663.27 40.85
3333 48.7986 1689.00 1658.60 41.10
3334 48.8117 1607.00 1654.86 40.09
3335 48.8248 1647.00 1651.97 40.58
3336 48.8380 1661.00 1649.70 40.76
3337 48.8511 1595.00 1648.31 39.94
3338 48.8642 1668.00 1647.52 40.84
3339 48.8773 1629.00 1647.05 40.36
3340 48.8905 1574.00 1646.90 39.67
3341 48.9036 1632.00 1646.89 40.40
3342 48.9167 1610.00 1646.54 40.12
3343 48.9299 1613.00 1645.74 40.16
3344 48.9430 1624.00 1644.60 40.30
3345 48.9561 1692.00 1643.48 41.13
3346 48.9693 1597.00 1642.52 39.96
3347 48.9824 1602.00 1642.18 40.03
3348 48.9955 1590.00 1642.65 39.87
3349 49.0086 1598.00 1644.16 39.97
3350 49.0218 1645.00 1646.72 40.56
3351 49.0349 1593.00 1650.35 39.91
3352 49.0480 1605.00 1655.09 40.06
3353 49.0612 1620.00 1660.93 40.25
3354 49.0743 1598.00 1667.65 39.97
3355 49.0874 1674.00 1675.51 40.91
3356 49.1006 1640.00 1683.92 40.50
3357 49.1137 1673.00 1692.80 40.90
3358 49.1268 1612.00 1701.74 40.15
3359 49.1399 1735.00 1710.28 41.65
3360 49.1531 1723.00 1717.93 41.51
3361 49.1662 1732.00 1724.22 41.62
3362 49.1793 1726.00 1728.85 41.55
3363 49.1925 1652.00 1731.61 40.64
3364 49.2056 1730.00 1732.73 41.59
3365 49.2187 1677.00 1732.37 40.95
3366 49.2319 1742.00 1730.74 41.74
3367 49.2450 1663.00 1728.06 40.78
3368 49.2581 1656.00 1724.48 40.69
3369 49.2712 1699.00 1720.06 41.22
3370 49.2844 1650.00 1714.81 40.62
3371 49.2975 1705.00 1708.85 41.29
3372 49.3106 1653.00 1702.07 40.66
3373 49.3238 1635.00 1694.54 40.44
3374 49.3369 1677.00 1686.79 40.95
3375 49.3500 1629.00 1678.96 40.36
3376 49.3632 1605.00 1671.27 40.06
3377 49.3763 1652.00 1664.48 40.64
3378 49.3894 1615.00 1658.70 40.19
3379 49.4025 1566.00 1654.08 39.57
3380 49.4157 1637.00 1650.80 40.46
3381 49.4288 1664.00 1648.96 40.79
3382 49.4419 1651.00 1648.40 40.63
3383 49.4551 1634.00 1649.32 40.42
3384 49.4682 1699.00 1651.55 41.22
3385 49.4813 1702.00 1654.93 41.26
3386 49.4945 1680.00 1659.26 40.99
3387 49.5076 1725.00 1664.42 41.53
3388 49.5207 1721.00 1670.19 41.48
3389 49.5338 1628.00 1676.35 40.35
3390 49.5470 1733.00 1682.62 41.63
3391 49.5601 1765.00 1688.86 42.01
3392 49.5732 1764.00 1694.73 42.00
3393 49.5864 1741.00 1700.15 41.73
3394 49.5995 1794.00 1704.73 42.36
3395 49.6126 1734.00 1708.18 41.64
3396 49.6258 1767.00 1710.51 42.04
3397 49.6389 1764.00 1711.69 42.00
3398 49.6520 1775.00 1711.88 42.13
3399 49.6651 1780.00 1711.33 42.19
3400 49.6783 1741.00 1710.43 41.73
3401 49.6914 1739.00 1709.43 41.70
3402 49.7045 1832.00 1708.61 42.80
3403 49.7177 1684.00 1708.16 41.04
3404 49.7308 1817.00 1708.27 42.63
3405 49.7439 1681.00 1708.77 41.00
3406 49.7571 1797.00 1709.93 42.39
3407 49.7702 1723.00 1711.74 41.51
3408 49.7833 1686.00 1714.23 41.06
3409 49.7964 1703.00 1717.46 41.27
3410 49.8096 1728.00 1721.39 41.57
3411 49.8227 1715.00 1726.07 41.41
3412 49.8358 1764.00 1731.25 42.00
3413 49.8490 1670.00 1737.12 40.87
3414 49.8621 1756.00 1743.47 41.90
3415 49.8752 1857.00 1750.47 43.09
3416 49.8884 1719.00 1758.23 41.46
3417 49.9015 1793.00 1766.49 42.34
3418 49.9146 1763.00 1775.17 41.99
3419 49.9277 1797.00 1783.99 42.39
3420 49.9409 1703.00 1792.49 41.27
3421 49.9540 1719.00 1800.22 41.46
3422 49.9671 1764.00 1806.80 42.00
3423 49.9803 1739.00 1811.96 41.70
3424 49.9934 1820.00 1815.76 42.66
3425 50.0065 1841.00 1818.34 42.91
3426 50.0197 1752.00 1820.03 41.86
3427 50.0328 1729.00 1821.29 41.58
loop_
_pd_proc_info_excluded_regions
'from -240 to -246.000'
loop_
_refln_index_h
_refln_index_k
_refln_index_l
_refln_F_squared_calc
_refln_F_squared_meas
_refln_F_squared_sigma
_refln_observed_status
_refln_d_spacing
0 1 0 2983.42 3095.21 80.25 o 10.397797
1 0 0 383.81 250.53 33.03 o 9.594421
0 0 1 7640.40 7469.27 167.23 o 9.240278
0 -1 1 39.67 136.46 210.18 < 8.071840
-1 0 1 998.21 928.58 24.84 o 7.736443
1 -1 0 5171.68 4696.04 119.57 o 7.681912
1 1 0 11640.12 12002.49 264.19 o 6.554056
-1 -1 1 5528.58 5680.42 124.74 o 6.521770
0 1 1 1030.58 479.64 66.55 o 6.134301
-1 1 1 27783.90 27236.08 567.35 o 5.933541
1 0 1 9436.10 9236.35 192.38 o 5.929438
1 -1 1 14084.76 14174.51 299.44 o 5.881137
0 2 0 17351.18 17179.04 364.32 o 5.198898
0 -2 1 43229.52 44151.26 920.76 o 5.165134
1 -2 0 14120.27 13477.24 334.71 o 4.907200
-2 0 1 25984.46 26064.91 538.45 o 4.798489
2 0 0 51718.49 51878.60 1073.75 o 4.797211
0 -1 2 1.90 1.92 0.08 o 4.720834
-1 0 2 38324.82 39266.75 833.77 o 4.663737
2 -1 0 1545.21 1587.66 33.76 o 4.643951
1 1 1 10986.40 11319.40 238.60 o 4.638751
0 0 2 9621.88 9899.57 210.38 o 4.620139
-1 -1 2 21542.95 21949.45 472.30 o 4.604537
1 -2 1 13446.04 13062.33 298.82 o 4.570069
-1 -2 1 1883.25 1622.34 65.77 o 4.526184
-2 1 1 819.62 1056.90 181.85 o 4.387025
-2 -1 1 197.80 220.65 13.53 o 4.327411
1 2 0 10833.27 11025.72 337.65 o 4.295554
-1 2 1 11298.45 11151.86 314.95 o 4.131022
2 1 0 3463.14 3446.70 92.66 o 4.115652
0 2 1 13017.74 12468.33 342.83 o 4.084642
0 -2 2 26750.57 25362.97 599.41 o 4.035920
-1 1 2 261.33 372.71 36.56 o 3.975108
2 -1 1 5.73 6.46 0.48 o 3.946610
1 -1 2 4957.91 5588.98 276.96 o 3.943551
-2 0 2 5045.61 6128.05 200.74 o 3.868222
-1 -2 2 436.12 503.57 16.15 o 3.867533
2 0 1 1481.54 1710.69 54.92 o 3.866213
0 1 2 2329.72 2267.76 67.65 o 3.854028
2 -2 0 8622.34 7847.42 240.04 o 3.840956
1 0 2 25331.39 25413.62 622.05 o 3.794682
-2 -1 2 998.90 1411.64 139.59 o 3.747981
1 -2 2 85.71 94.80 10.94 o 3.588478
0 -3 1 767.31 692.86 33.44 o 3.577886
-2 2 1 12350.71 11579.05 355.30 o 3.558142
2 -2 1 9145.01 8524.48 259.18 o 3.535457
-2 1 2 1061.14 1045.08 31.95 o 3.514228
-2 -2 1 20346.64 21628.69 546.96 o 3.494934
1 2 1 16116.35 15397.35 389.28 o 3.471019
0 3 0 2394.81 2216.74 58.05 o 3.465932
1 -3 0 366.96 385.95 13.67 o 3.437917
1 -3 1 12817.34 13851.63 447.29 o 3.422991
2 1 1 3.50 2.09 4.34 < 3.369139
-3 0 1 4256.50 3614.82 208.22 o 3.299070
-1 -3 1 3213.13 2805.17 141.10 o 3.285954
1 1 2 2250.76 1964.63 102.88 o 3.277553
2 2 0 1.31 1.13 0.29 o 3.277028
-2 -2 2 312.72 196.83 24.40 o 3.260885
-1 -1 3 1909.87 1070.98 121.40 o 3.257401
0 -3 2 179.87 166.33 6.86 o 3.220563
-3 1 1 6822.52 6716.63 186.29 o 3.206827
3 -1 0 10816.49 10797.61 287.67 o 3.202264
3 0 0 2486.04 2487.26 64.52 o 3.198141
0 -1 3 1221.63 1223.45 31.40 o 3.197367
-1 0 3 10111.14 9934.83 257.25 o 3.183545
-1 2 2 7892.36 7536.02 210.37 o 3.176712
1 3 0 1556.65 1305.34 149.28 o 3.106703
-3 -1 1 3613.51 3685.03 179.69 o 3.085827
-1 -3 2 3702.52 3770.01 182.28 o 3.085443
0 0 3 40.71 41.81 2.01 o 3.080093
2 -1 2 0.65 0.66 0.05 o 3.079328
0 2 2 1323.32 1273.33 78.52 o 3.067150
-1 3 1 249.92 215.06 9.96 o 3.052927
2 -3 0 9.86 8.71 0.35 o 3.047189
-1 -2 3 13290.70 11817.25 358.35 o 3.038401
0 -2 3 3522.37 3151.50 91.79 o 3.032732
-3 0 2 5496.18 4895.95 149.86 o 3.023200
1 -3 2 2142.15 1910.41 59.29 o 3.021845
0 3 1 9621.59 8994.86 384.15 o 2.990779
-2 -1 3 119.12 113.03 4.88 o 2.982761
-2 2 2 412.08 363.95 26.80 o 2.966770
-2 0 3 274.10 244.26 18.09 o 2.966228
2 0 2 18.53 15.97 1.63 o 2.964719
2 -3 1 671.70 627.14 42.93 o 2.957810
2 -2 2 1006.09 1002.99 25.00 o 2.940568
3 -2 0 2848.72 2838.39 67.72 o 2.939072
3 1 0 26395.28 25939.48 578.01 o 2.929537
-3 -1 2 35373.81 34724.70 771.69 o 2.924324
-3 1 2 4492.97 4770.15 189.46 o 2.882102
-3 2 1 4079.85 4095.36 153.42 o 2.873592
3 -1 1 1726.74 1726.74 63.67 o 2.872194
-1 1 3 3873.11 3793.82 144.84 o 2.867805
1 -1 3 1825.76 1670.08 93.87 o 2.849984
-2 3 1 7435.90 6910.98 348.52 o 2.833950
3 0 1 11254.24 12453.75 425.64 o 2.805135
2 2 1 4074.67 4399.06 146.82 o 2.797347
-2 -3 1 1181.77 1185.43 40.29 o 2.785985
-2 -2 3 10016.33 9354.53 310.67 o 2.777332
1 -2 3 8183.61 7457.28 221.10 o 2.764398
0 1 3 10187.70 9099.02 276.24 o 2.757666
-2 1 3 13852.21 13700.08 401.77 o 2.737815
3 -2 1 1682.06 1698.45 50.99 o 2.733286
1 0 3 3678.44 3714.29 108.44 o 2.733080
1 2 2 6152.17 6239.58 201.38 o 2.719323
-2 -3 2 631.60 627.35 21.14 o 2.717649
-3 -2 1 66.92 70.78 1.96 o 2.705149
0 -4 1 23388.92 24718.15 659.70 o 2.699252
1 3 1 4652.99 5011.02 134.99 o 2.691624
0 -3 3 925.70 997.74 27.11 o 2.690613
2 1 2 9236.01 9102.89 247.90 o 2.667078
-1 -3 3 17526.13 17252.92 465.98 o 2.664113
1 -4 1 3430.14 3384.12 92.20 o 2.660167
-3 -2 2 229.69 231.80 10.10 o 2.644808
2 -3 2 8.62 11.84 1.01 o 2.632176
2 3 0 1565.93 1825.44 59.66 o 2.619806
1 -4 0 16306.92 18372.51 583.74 o 2.615446
0 4 0 6813.49 6749.43 214.03 o 2.599449
-3 2 2 3765.45 3866.81 96.03 o 2.583182
0 -4 2 26324.54 27067.44 664.06 o 2.582567
-3 0 3 9509.68 9775.05 239.15 o 2.578815
3 1 1 4118.81 4347.86 110.79 o 2.569613
-3 -1 3 1131.72 1201.23 33.21 o 2.562586
3 -3 0 998.21 1063.71 30.15 o 2.560638
-1 3 2 4195.90 4460.67 123.89 o 2.553212
3 2 0 17204.51 18342.40 500.42 o 2.550142
-1 -4 1 9424.29 9946.61 276.75 o 2.540706
1 -3 3 9440.28 10839.48 399.79 o 2.522986
1 -4 2 12911.69 12369.14 404.70 o 2.501070
-1 -4 2 1819.82 1860.35 44.10 o 2.486599
-4 0 1 30083.44 31167.77 726.61 o 2.484100
-1 2 3 16630.58 17275.37 395.35 o 2.476794
1 1 3 5201.04 5403.01 124.23 o 2.475898
-3 3 1 3223.70 3397.84 77.23 o 2.473390
0 3 2 5670.78 5999.24 136.77 o 2.471033
-4 1 1 1963.84 2073.58 47.75 o 2.467448
-1 -1 4 2635.37 2769.39 65.00 o 2.463714
-2 3 2 6350.47 6660.06 156.01 o 2.463666
3 -3 1 8608.10 9059.71 213.73 o 2.461930
-2 -3 3 3259.35 3395.46 80.72 o 2.458977
2 -4 0 6350.48 6556.80 158.24 o 2.453600
-3 1 3 8338.01 8289.48 203.47 o 2.447352
2 -4 1 17194.60 16976.39 417.03 o 2.446294
3 -1 2 9204.87 8804.28 226.33 o 2.437251
2 -1 3 5649.35 5271.46 139.22 o 2.424346
4 -1 0 10584.31 9986.12 261.95 o 2.422548
1 4 0 15759.22 15284.25 377.44 o 2.414564
-2 2 3 1060.57 1025.71 24.96 o 2.413562
-3 -2 3 4238.88 4201.48 96.72 o 2.406395
-1 -2 4 10675.92 10611.08 235.57 o 2.402778
-4 0 2 6916.75 6927.58 153.43 o 2.399245
4 0 0 26606.88 26618.21 588.52 o 2.398605
0 -1 4 15736.40 15710.97 347.75 o 2.396025
-1 4 1 15908.58 15908.52 352.16 o 2.393985
2 -2 3 82.25 82.15 1.92 o 2.392399
-1 0 4 8955.80 8945.34 198.40 o 2.391930
3 -2 2 793.49 795.22 18.00 o 2.387965
0 2 3 126.82 126.55 3.24 o 2.383076
-2 -1 4 17071.23 16732.67 442.94 o 2.376682
-4 -1 1 176.85 181.94 5.35 o 2.367841
0 -2 4 3572.08 3796.77 115.72 o 2.360417
3 0 2 15421.06 16700.65 522.01 o 2.358182
-4 1 2 496.17 561.66 19.34 o 2.347078
0 4 1 197.31 232.54 8.67 o 2.343026
-2 0 4 7941.15 8053.42 209.41 o 2.331869
2 0 3 2188.97 2197.00 55.04 o 2.330842
-4 -1 2 1064.25 1059.02 25.47 o 2.328660
-4 2 1 14484.43 14259.10 335.59 o 2.325310
4 -2 0 9213.11 9007.46 207.68 o 2.321975
2 2 2 2253.00 2184.39 51.11 o 2.319376
2 3 1 10743.14 10381.92 239.08 o 2.318770
0 -4 3 24772.37 23939.44 550.60 o 2.318449
-3 -3 1 6810.08 6518.07 151.77 o 2.313800
0 0 4 4124.00 3935.00 93.98 o 2.310070
-3 -3 2 70.84 67.58 1.64 o 2.309519
-2 4 1 951.64 908.53 24.48 o 2.303029
-2 -2 4 6890.71 6594.40 182.91 o 2.302268
2 -4 2 5600.16 5266.42 257.69 o 2.285035
-1 -4 3 1422.49 1356.45 60.92 o 2.282367
3 2 1 10664.35 10499.44 312.98 o 2.268564
-2 -4 1 9136.61 8995.33 268.25 o 2.268602
-2 -4 2 6202.58 5918.23 175.02 o 2.263092
4 1 0 2811.32 2670.20 78.75 o 2.260324
1 3 2 4918.40 4667.32 138.60 o 2.259503
2 -3 3 1428.25 1293.57 48.96 o 2.248529
-3 3 2 7012.48 6363.92 247.78 o 2.248273
4 -1 1 577.45 583.21 22.35 o 2.236273
-1 -3 4 4527.87 4434.15 165.16 o 2.235113
3 -3 2 1523.55 1470.59 50.83 o 2.231137
1 -4 3 3033.60 2782.53 96.21 o 2.225868
-3 2 3 16673.58 15171.24 527.09 o 2.224721
0 -3 4 6.92 5.90 0.22 o 2.217973
-1 1 4 684.58 583.65 21.64 o 2.217734
1 -1 4 4042.46 3360.98 177.01 o 2.206725
1 -2 4 5546.58 5898.90 187.24 o 2.195379
3 -4 0 3417.18 3638.31 111.97 o 2.193926
-4 2 2 2540.01 2726.69 81.88 o 2.193513
-4 0 3 3872.50 4053.87 110.25 o 2.188388
4 0 1 0.12 0.13 0.04 o 2.187418
-2 1 4 7299.77 7533.01 198.27 o 2.185966
4 -2 1 8803.64 9009.76 234.34 o 2.185145
3 3 0 341.01 348.91 9.01 o 2.184685
3 1 2 464.75 465.53 11.92 o 2.183217
1 2 3 10029.71 9663.23 239.33 o 2.177591
-3 -1 4 4322.59 4141.93 102.96 o 2.176755
1 4 1 14994.49 14231.65 351.43 o 2.174139
-3 -3 3 7340.29 6971.78 171.15 o 2.173923
-4 -2 1 8245.72 7790.69 192.62 o 2.165932
-4 -2 2 15049.25 14201.40 356.49 o 2.163705
-4 -1 3 8.54 8.14 0.41 o 2.162256
3 -4 1 430.78 418.31 10.82 o 2.158571
-3 0 4 12611.52 12229.45 314.46 o 2.157907
0 -5 1 2962.07 2883.86 74.26 o 2.157246
1 -5 1 740.92 738.57 19.92 o 2.152764
2 1 3 10272.00 10438.27 300.14 o 2.149222
2 4 0 241.53 246.95 7.55 o 2.147777
-2 -3 4 355.95 366.75 11.92 o 2.137886
4 -3 0 0.14 0.14 0.03 o 2.136606
0 1 4 7445.30 7653.34 252.89 o 2.136409
-2 -4 3 11593.67 11530.17 389.93 o 2.133834
1 0 4 5855.82 5150.95 176.86 o 2.123697
0 -5 2 919.05 785.58 27.46 o 2.122614
-4 1 3 4247.16 3573.18 125.58 o 2.121276
-1 3 3 276.13 226.78 7.74 o 2.117938
-4 3 1 2272.81 2045.99 63.96 o 2.112246
-3 4 1 16485.82 15088.39 466.89 o 2.111379
-3 -2 4 5222.86 5195.51 156.41 o 2.104242
-1 4 2 11292.40 11519.57 344.32 o 2.102556
1 -5 0 489.65 499.50 15.49 o 2.102283
1 -3 4 2065.83 2377.14 78.16 o 2.093768
-2 3 3 8105.40 9223.35 312.05 o 2.092349
1 -5 2 2470.60 2751.72 98.96 o 2.090995
0 5 0 3825.80 3144.25 215.97 o 2.079560
-2 4 2 579.26 438.42 39.66 o 2.065511
-1 -5 1 3736.48 2998.13 176.58 o 2.059719
4 2 0 436.23 352.62 18.71 o 2.057826
4 1 1 404.06 317.14 16.79 o 2.056176
-3 1 4 43.12 34.14 1.54 o 2.054326
-1 -5 2 1854.45 1468.42 65.96 o 2.054489
4 -3 1 1699.73 1359.46 55.67 o 2.052405
-4 -2 3 5370.12 4298.48 174.12 o 2.052112
2 -5 1 61.32 50.39 1.93 o 2.048078
3 -1 3 762.98 633.66 22.90 o 2.045961
0 3 3 11615.42 9583.56 349.08 o 2.044767
2 -4 3 4687.69 3865.58 141.69 o 2.043961
0 4 2 206.89 170.42 6.47 o 2.042321
3 -2 3 6448.25 5396.08 204.17 o 2.039961
2 -5 0 3287.36 3545.55 174.66 o 2.028519
3 -4 2 5953.51 8690.46 442.95 o 2.020702
0 -4 4 2309.22 3362.74 175.52 o 2.017960
-1 -4 4 2460.26 3592.11 190.33 o 2.017709
2 3 2 3442.64 3334.76 225.08 o 2.001205
-1 2 4 1805.96 1734.11 100.27 o 1.998581
-3 -4 2 6.36 6.23 0.35 o 1.997996
0 -5 3 5826.20 5651.91 229.43 o 1.990293
-4 3 2 1526.58 1470.95 58.63 o 1.989517
4 -1 2 11.67 10.91 0.53 o 1.988280
-5 1 1 4083.66 3819.13 144.59 o 1.988167
-2 2 4 1248.66 1165.84 43.32 o 1.987554
-5 0 1 1268.08 1178.94 40.87 o 1.984357
-4 2 3 0.35 0.32 0.06 o 1.983597
-3 -4 1 16536.49 15526.13 468.90 o 1.978659
-3 3 3 24.72 23.31 0.69 o 1.977847
3 3 1 3860.18 3640.55 109.06 o 1.977687
3 0 3 0.99 0.93 0.09 o 1.976479
1 1 4 2245.34 2133.69 59.45 o 1.974131
4 -2 2 363.06 346.42 9.42 o 1.973305
2 -2 4 111.79 106.85 2.91 o 1.971776
2 -5 2 314.12 300.24 8.05 o 1.971790
1 5 0 5301.10 5070.90 133.68 o 1.968994
2 -1 4 16518.28 15835.67 416.10 o 1.967805
3 2 2 1161.22 1113.23 29.11 o 1.967694
-1 -1 5 1.13 1.09 0.07 o 1.966179
-3 -3 4 9835.23 9588.04 248.90 o 1.964416
-5 0 2 10226.44 10113.82 264.32 o 1.962085
3 -3 3 5749.20 5732.36 150.64 o 1.960379
-1 5 1 188.97 188.42 5.12 o 1.960497
-4 -3 2 3857.97 3836.55 101.11 o 1.956314
-1 -2 5 1436.36 1428.94 37.72 o 1.955441
-1 -5 3 3887.17 3867.09 102.20 o 1.955377
2 4 1 7490.03 7503.69 201.77 o 1.951125
-3 4 2 15691.40 15886.12 431.05 o 1.945119
-5 1 2 413.89 419.03 11.35 o 1.944789
5 -1 0 479.61 482.11 13.10 o 1.942582
1 -5 3 7945.65 7987.15 217.30 o 1.942295
-2 -1 5 8671.64 8716.93 237.23 o 1.942228
-4 -3 1 186.20 185.82 5.25 o 1.937226
-4 -1 4 8765.15 8742.51 247.93 o 1.936052
1 -4 4 3474.16 3464.14 100.89 o 1.934431
-4 0 4 1428.25 1424.13 41.99 o 1.934111
2 2 3 1405.81 1397.55 41.04 o 1.933790
-2 -4 4 278.22 276.59 8.08 o 1.933767
4 0 2 30.09 29.89 0.88 o 1.933107
-3 -4 3 668.14 674.86 21.10 o 1.928055
0 2 4 1007.65 1019.89 31.91 o 1.927014
-5 2 1 2826.99 2913.35 93.11 o 1.922681
0 5 1 4556.61 4778.79 148.10 o 1.920891
-2 5 1 2113.77 2216.84 68.72 o 1.920722
4 -4 0 7867.51 8237.48 259.04 o 1.920478
-2 -2 5 5224.96 5470.66 170.81 o 1.920559
5 0 0 3416.78 3613.81 110.96 o 1.918884
-5 -1 1 602.78 666.05 21.08 o 1.912398
0 -2 5 1430.42 1582.33 49.26 o 1.911575
-5 -1 2 6064.76 6689.26 203.56 o 1.911752
-2 -5 2 163.83 180.70 5.48 o 1.911781
0 -1 5 3335.94 3744.24 115.15 o 1.910465
-1 0 5 3494.47 3948.59 122.90 o 1.909271
2 -3 4 502.81 571.65 18.20 o 1.908076
1 4 2 6581.98 7582.69 243.90 o 1.906881
5 -2 0 446.41 516.27 18.41 o 1.900335
1 3 3 1309.64 1489.99 54.47 o 1.899548
-2 0 5 24.34 26.67 1.02 o 1.898053
-3 2 4 4290.14 4671.43 176.59 o 1.897792
2 0 4 4364.28 4718.07 182.92 o 1.897341
-2 -5 1 1099.31 1162.87 47.11 o 1.895685
4 -3 2 115.23 114.30 5.14 o 1.892655
-4 -3 3 5928.85 5814.99 249.79 o 1.891378
3 -5 0 1423.04 1301.48 50.71 o 1.884776
-4 4 1 115.31 105.13 3.99 o 1.883685
4 2 1 2131.12 1988.18 70.13 o 1.881255
3 -5 1 1546.19 1450.99 50.57 o 1.880612
-1 -3 5 1813.54 1709.14 59.21 o 1.880207
4 -4 1 11465.89 10882.88 369.14 o 1.876925
3 4 0 6847.33 6496.39 220.79 o 1.877241
-4 -2 4 9416.27 8942.36 302.04 o 1.873990
-4 1 4 3762.00 3538.11 124.20 o 1.868724
-5 2 2 2614.61 2446.28 96.78 o 1.864892
-5 0 3 6125.94 5462.93 254.98 o 1.860237
3 1 3 4512.72 3770.91 186.08 o 1.851927
0 -3 5 7743.17 6537.59 320.88 o 1.851076
-2 -5 3 2219.81 1904.81 92.66 o 1.849434
0 0 5 84.34 72.94 3.58 o 1.848056
-3 -1 5 2509.03 2224.37 105.49 o 1.846668
4 3 0 3.98 3.87 0.45 o 1.840954
-2 -3 5 3727.49 3692.46 172.16 o 1.839204
5 1 0 8242.11 8608.90 387.59 o 1.835968
-5 -1 3 1476.76 1561.29 67.62 o 1.834255
3 -4 3 105.76 104.68 4.91 o 1.829978
-5 1 3 5901.24 5781.26 248.13 o 1.828085
2 -5 3 23.42 22.83 1.50 o 1.827470
5 -1 1 1759.27 1652.55 77.15 o 1.824424
4 1 2 9984.07 9290.64 447.72 o 1.823477
-1 4 3 2255.57 2062.82 104.15 o 1.821642
