#------------------------------------------------------------------------------
#$Date: 2020-02-04 05:13:16 +0200 (Tue, 04 Feb 2020) $
#$Revision: 247531 $
#$URL: file:///home/coder/svn-repositories/cod/cif/4/13/39/4133968.cif $
#------------------------------------------------------------------------------
#
# This file is available in the Crystallography Open Database (COD),
# http://www.crystallography.net/
#
# All data on this site have been placed in the public domain by the
# contributors.
#
data_4133968
loop_
_publ_author_name
'Bear, Joseph C.'
'Cockcroft, Jeremy K.'
'Williams, Jeffrey H.'
_publ_section_title
;
 Influence of Solvent in Crystal Engineering: A Significant Change to the
 Order-Disorder Transition in Ferrocene.
;
_journal_issue                   4
_journal_name_full               'Journal of the American Chemical Society'
_journal_page_first              1731
_journal_page_last               1734
_journal_paper_doi               10.1021/jacs.9b11895
_journal_volume                  142
_journal_year                    2020
_chemical_formula_moiety         'C10 H10 Fe, 2(C3 F3)'
_chemical_formula_sum            'C16 H10 F6 Fe'
_chemical_formula_weight         372.09
_chemical_name_systematic        Ferrocene:hexafluorobenzene
_space_group_crystal_system      triclinic
_space_group_IT_number           2
_space_group_name_Hall           '-P 1'
_space_group_name_H-M_alt        'P -1'
_atom_sites_solution_hydrogens   difmap
_atom_sites_solution_primary     dual
_audit_creation_date             2019-04-24
_audit_creation_method
;
Olex2 1.2
(compiled 2018.05.29 svn.r3508 for OlexSys, GUI svn.r5506)
;
_cell_angle_alpha                78.035(5)
_cell_angle_beta                 76.862(6)
_cell_angle_gamma                84.337(5)
_cell_formula_units_Z            2
_cell_length_a                   7.1724(5)
_cell_length_b                   9.0455(5)
_cell_length_c                   11.3389(7)
_cell_measurement_reflns_used    5737
_cell_measurement_temperature    150
_cell_measurement_theta_max      28.9880
_cell_measurement_theta_min      3.5990
_cell_volume                     699.80(8)
_computing_cell_refinement       'CrysAlisPro 1.171.39.46 (Rigaku OD, 2018)'
_computing_data_collection       'CrysAlisPro 1.171.39.46 (Rigaku OD, 2018)'
_computing_data_reduction        'CrysAlisPro 1.171.39.46 (Rigaku OD, 2018)'
_computing_molecular_graphics    'Olex2 (Dolomanov et al., 2009)'
_computing_publication_material  'Olex2 (Dolomanov et al., 2009)'
_computing_structure_refinement  'ShelXL (Sheldrick, 2015)'
_computing_structure_solution    'ShelXT (Sheldrick, 2015)'
_diffrn_ambient_environment      N~2~
_diffrn_ambient_temperature      150
_diffrn_detector                 'CCD plate'
_diffrn_detector_area_resol_mean 5.2031
_diffrn_detector_type            Atlas
_diffrn_measured_fraction_theta_full 0.996
_diffrn_measured_fraction_theta_max 0.961
_diffrn_measurement_details
;
List of Runs (angles in degrees, time in seconds):

  # Type    Start    End  Width  t~exp~   \w     \q     \k     \f   Frames
--------------------------------------------------------------------------
  1  \w    -67.00 -38.00   1.00    2.00    --   -9.99 126.00  59.75   29
  2  \w    -10.00  56.00   1.00    2.00    --   11.17  77.00-150.00   66
  3  \w     -2.00  87.00   1.00    2.00    --   11.17  77.00  90.00   89
  4  \w    -16.00  84.00   1.00    2.00    --   11.17  57.00   0.00  100
  5  \w    -63.00  43.00   1.00    2.00    --   11.17 -72.00  31.65  106
  6  \w    -19.00  52.00   1.00    2.00    --   11.17 -99.00 -60.00   71
  7  \w    -71.00 -34.00   1.00    2.00    --   11.17   0.00  60.00   37
  8  \w     46.00  99.00   1.00    2.00    --   11.17   0.00  60.00   53
  9  \w     18.00  88.00   1.00    2.00    --   11.17-155.00-128.36   70
;
_diffrn_measurement_device       'four-circle diffractometer'
_diffrn_measurement_device_type  'SuperNova, Dual, Cu at home/near, Atlas'
_diffrn_measurement_method       '\w scans'
_diffrn_orient_matrix_type
'CrysAlisPro convention (1999,Acta A55,543-557)'
_diffrn_orient_matrix_UB_11      0.0070529000
_diffrn_orient_matrix_UB_12      0.0786876000
_diffrn_orient_matrix_UB_13      -0.0237365000
_diffrn_orient_matrix_UB_21      -0.0787688000
_diffrn_orient_matrix_UB_22      -0.0002321000
_diffrn_orient_matrix_UB_23      -0.0281056000
_diffrn_orient_matrix_UB_31      -0.0639413000
_diffrn_orient_matrix_UB_32      0.0158742000
_diffrn_orient_matrix_UB_33      0.0541182000
_diffrn_radiation_monochromator  mirror
_diffrn_radiation_probe          x-ray
_diffrn_radiation_type           MoK\a
_diffrn_radiation_wavelength     0.71073
_diffrn_reflns_av_R_equivalents  0.0460
_diffrn_reflns_av_unetI/netI     0.0441
_diffrn_reflns_Laue_measured_fraction_full 0.996
_diffrn_reflns_Laue_measured_fraction_max 0.961
_diffrn_reflns_limit_h_max       9
_diffrn_reflns_limit_h_min       -9
_diffrn_reflns_limit_k_max       12
_diffrn_reflns_limit_k_min       -11
_diffrn_reflns_limit_l_max       14
_diffrn_reflns_limit_l_min       -14
_diffrn_reflns_number            11866
_diffrn_reflns_point_group_measured_fraction_full 0.996
_diffrn_reflns_point_group_measured_fraction_max 0.961
_diffrn_reflns_theta_full        25.242
_diffrn_reflns_theta_max         28.277
_diffrn_reflns_theta_min         3.559
_diffrn_source                   'micro-focus sealed X-ray tube'
_diffrn_source_type              'SuperNova (Mo) X-ray Source'
_exptl_absorpt_coefficient_mu    1.140
_exptl_absorpt_correction_T_max  1.000
_exptl_absorpt_correction_T_min  0.201
_exptl_absorpt_correction_type   gaussian
_exptl_absorpt_process_details
;
CrysAlisPro 1.171.39.46 (Rigaku Oxford Diffraction, 2018)
Numerical absorption correction based on gaussian integration over
			a multifaceted crystal model
Empirical absorption correction using spherical harmonics,
 implemented in SCALE3 ABSPACK scaling algorithm.
;
_exptl_crystal_colour            'clear dark orange'
_exptl_crystal_colour_lustre     clear
_exptl_crystal_colour_modifier   dark
_exptl_crystal_colour_primary    orange
_exptl_crystal_density_diffrn    1.766
_exptl_crystal_description       block
_exptl_crystal_F_000             372
_exptl_crystal_preparation       'Ferrocene dissolved in hot C6F6'
_exptl_crystal_recrystallization_method
'Crystals grown using C6F6 as soilvent in an NMR tube stood in hot water'
_exptl_crystal_size_max          0.722
_exptl_crystal_size_mid          0.389
_exptl_crystal_size_min          0.2
_refine_diff_density_max         0.634
_refine_diff_density_min         -0.457
_refine_diff_density_rms         0.077
_refine_ls_extinction_method     none
_refine_ls_goodness_of_fit_ref   1.084
_refine_ls_hydrogen_treatment    refall
_refine_ls_matrix_type           full
_refine_ls_number_parameters     248
_refine_ls_number_reflns         3334
_refine_ls_number_restraints     0
_refine_ls_restrained_S_all      1.084
_refine_ls_R_factor_all          0.0483
_refine_ls_R_factor_gt           0.0381
_refine_ls_shift/su_max          0.000
_refine_ls_shift/su_mean         0.000
_refine_ls_structure_factor_coef Fsqd
_refine_ls_weighting_details
'w=1/[\s^2^(Fo^2^)+(0.0426P)^2^+0.1062P] where P=(Fo^2^+2Fc^2^)/3'
_refine_ls_weighting_scheme      calc
_refine_ls_wR_factor_gt          0.0875
_refine_ls_wR_factor_ref         0.0962
_reflns_Friedel_coverage         0.000
_reflns_number_gt                2787
_reflns_number_total             3334
_reflns_threshold_expression     'I > 2\s(I)'
_cod_data_source_file            ja9b11895_si_002.cif
_cod_data_source_block           exp_1368
_cod_depositor_comments
'Adding full bibliography for 4133967--4133980.cif.'
_cod_database_code               4133968
_shelx_shelxl_version_number     2014/7
_chemical_oxdiff_formula         'Fe C16 F6 H10'
_chemical_oxdiff_usercomment     'Same crystal as used 13 Dec in capillary'
_shelx_space_group_comment
;
The symmetry employed for this shelxl refinement is uniquely defined
by the following loop, which should always be used as a source of
symmetry information in preference to the above space-group names.
They are only intended as comments.
;
_shelx_estimated_absorpt_t_max   0.804
_shelx_estimated_absorpt_t_min   0.493
_reflns_odcompleteness_completeness 99.79
_reflns_odcompleteness_iscentric 1
_reflns_odcompleteness_theta     26.32
_olex2_refinement_description
;
;
_shelx_res_file
;
    exp_1368.res created by SHELXL-2014/7

TITL exp_1368_a.res in P-1
REM Old TITL exp_1368 in P-1
REM SHELXT solution in P-1
REM R1 0.092, Rweak 0.003, Alpha 0.036, Orientation as input
REM Formula found by SHELXT: C16 F6 Fe
CELL 0.71073 7.1724 9.0455 11.3389 78.035 76.862 84.337
ZERR 2 0.0005 0.0005 0.0007 0.005 0.006 0.005
LATT 1
SFAC C H F Fe
UNIT 32 20 12 2

L.S. 10 0 0
PLAN  1
SIZE 0.2 0.389 0.722
BOND $H
list 4
fmap 2 53
acta
SHEL 50 0.75
OMIT 1 1 3
OMIT 3 0 2
OMIT 4 1 5
REM <olex2.extras>
REM <HklSrc "%.\\exp_1368.hkl">
REM </olex2.extras>

WGHT    0.042600    0.106200
FVAR       0.72722
FE1   4    0.239439    0.496187    0.252433    11.00000    0.02188    0.01774 =
         0.01964   -0.00268   -0.00568    0.00144
C7    1    0.318976    0.680626    0.119440    11.00000    0.03427    0.02505 =
         0.03760    0.00871   -0.00874   -0.00446
H7    2    0.440310    0.719882    0.093683    11.00000    0.05066
C8    1    0.245937    0.572844    0.069460    11.00000    0.03837    0.03111 =
         0.01813   -0.00329   -0.00596    0.00910
H8    2    0.314041    0.527603    0.007682    11.00000    0.04459
C9    1    0.055293    0.548651    0.135239    11.00000    0.03416    0.02742 =
         0.02614   -0.00442   -0.01484    0.00352
H9    2   -0.026202    0.481049    0.124183    11.00000    0.02937
C10   1    0.010644    0.641594    0.225467    11.00000    0.03039    0.02740 =
         0.02893   -0.00441   -0.00895    0.00913
H10   2   -0.108874    0.645839    0.286450    11.00000    0.04535
C11   1    0.173286    0.722890    0.215543    11.00000    0.04601    0.01741 =
         0.03484   -0.00414   -0.01748    0.00425
H11   2    0.189295    0.793840    0.264259    11.00000    0.04558
C12   1    0.475134    0.407694    0.319953    11.00000    0.02404    0.03688 =
         0.03969    0.00193   -0.01220    0.00210
H12   2    0.601660    0.449940    0.291618    11.00000    0.04565
C13   1    0.406823    0.300643    0.267158    11.00000    0.03584    0.02668 =
         0.03034   -0.00389   -0.00560    0.01480
H13   2    0.475501    0.257023    0.200265    11.00000    0.03311
C14   1    0.216848    0.272674    0.330155    11.00000    0.03702    0.01751 =
         0.02866   -0.00260   -0.01139    0.00116
H14   2    0.133776    0.208983    0.314498    11.00000    0.03256
C15   1    0.166156    0.362110    0.422679    11.00000    0.03049    0.02474 =
         0.02203    0.00095   -0.00416    0.00096
H15   2    0.053601    0.368064    0.474162    11.00000    0.03337
C16   1    0.325501    0.446233    0.415908    11.00000    0.04001    0.02769 =
         0.02490   -0.00299   -0.01608    0.00253
H16   2    0.333460    0.516632    0.462534    11.00000    0.03334
F1    3    0.374760    1.001248   -0.115105    11.00000    0.02650    0.04677 =
         0.04865   -0.01204    0.00602   -0.00187
F2    3    0.141653    0.810847   -0.160126    11.00000    0.04635    0.03000 =
         0.03109   -0.01359   -0.00240    0.00608
F3    3   -0.231985    0.808856   -0.044552    11.00000    0.04006    0.04267 =
         0.05334   -0.01879   -0.00796   -0.01147
C1    1    0.188980    1.000895   -0.058966    11.00000    0.02485    0.02525 =
         0.02748   -0.00076    0.00002    0.00236
C2    1    0.071526    0.904182   -0.081259    11.00000    0.03572    0.01943 =
         0.02010   -0.00478   -0.00316    0.00480
C3    1   -0.117887    0.903518   -0.022875    11.00000    0.03044    0.02311 =
         0.03028   -0.00225   -0.00807   -0.00387
F4    3    0.805203    0.151462    0.502194    11.00000    0.03542    0.04996 =
         0.05922   -0.01424   -0.00834   -0.01660
F5    3    0.459073    0.211249    0.643362    11.00000    0.05612    0.03103 =
         0.03811   -0.01695   -0.01074    0.00240
F6    3    0.152097    0.060462    0.640389    11.00000    0.02902    0.04214 =
         0.03592   -0.00428    0.00596    0.00590
C4    1    0.654473    0.076826    0.500972    11.00000    0.02909    0.02392 =
         0.02952    0.00096   -0.00913   -0.00481
C5    1    0.478532    0.106697    0.572970    11.00000    0.03792    0.01858 =
         0.02287   -0.00461   -0.00684    0.00506
C6    1    0.324379    0.030069    0.571703    11.00000    0.02374    0.02579 =
         0.02324    0.00148   -0.00193    0.00368
HKLF 4

REM  exp_1368_a.res in P-1
REM R1 =  0.0381 for    2787 Fo > 4sig(Fo)  and  0.0483 for all    3334 data
REM    248 parameters refined using      0 restraints

END

WGHT      0.0426      0.1060

REM Highest difference peak  0.634,  deepest hole -0.457,  1-sigma level  0.077
Q1    1   0.4157  0.4930  0.2051  11.00000  0.05    0.63
;
_shelx_res_checksum              19670
_shelx_hkl_file
;
   0   0   2   65.56    4.49
   0   0  -2   65.87    5.00
   0   0  -2   55.99    3.52
   0   0   2   58.51    4.89
   0   0   2   61.35    3.49
   0   0  -2   56.56    3.18
   0   0  -2   56.23    4.25
   0   0  -2   57.94    4.22
   0   0   2   63.49    3.51
   0   0  -3    1.81    1.14
   0   0   3    1.67    1.31
   0   0  -3    0.00    0.45
   0   0  -3    0.01    0.36
   0   0   3   -0.54    0.62
   0   0   3    1.37    0.80
   0   0  -3   -0.98    1.21
   0   0  -3    0.28    0.67
   0   0   3   -0.28    0.70
   0   0  -4  113.45    9.13
   0   0   4  139.77    7.12
   0   0   4  115.97    9.90
   0   0  -4  154.99    8.06
   0   0  -4  110.89    8.76
   0   0   4  122.20    8.97
   0   0  -4  157.58    8.81
   0   0   4  140.30    7.62
   0   0  -4  113.76    8.25
   0   0  -5  156.11   12.04
   0   0   5  158.75   13.12
   0   0   5  168.76   11.79
   0   0  -5  159.75    9.50
   0   0  -5  147.04    8.08
   0   0   5  173.09    9.29
   0   0   5  177.77    8.64
   0   0  -5  166.72   11.87
   0   0  -5  163.80   10.79
   0   0  -6  447.89   19.95
   0   0  -6  423.74   15.81
   0   0  -6  428.74   17.79
   0   0   6  457.94   17.46
   0   0   6  443.30   21.90
   0   0  -6  510.46   24.15
   0   0  -6  427.30   21.58
   0   0   7   43.14    5.80
   0   0  -7   44.83    6.59
   0   0  -7   39.29    7.23
   0   0   7   37.86    7.83
   0   0  -7   44.81    5.85
   0   0  -7   34.90    7.02
   0   0   7   45.77    7.62
   0   0  -8  401.34   24.41
   0   0  -8  354.15   19.71
   0   0  -8  339.11   17.63
   0   0   8  357.35   17.21
   0   0  -8  340.41   16.31
   0   0   8  341.54   22.32
   0   0   8  337.04   25.16
   0   0  -8  360.44   22.72
   0   0  -9    1.73    1.06
   0   0  -9    1.06    1.54
   0   0  -9   -0.14    1.19
   0   0  -9   -0.83    1.58
   0   0  -9    2.40    2.48
   0   0   9   -0.13    1.01
   0   0  -9    1.25    1.73
   0   0   9   -0.29    2.95
   0   0   9    1.62    1.05
   0   0  -9    0.13    0.91
   0   0 -10  286.98   16.39
   0   0  10  305.00   17.79
   0   0  10  288.85   23.65
   0   0 -10  331.03   24.76
   0   0 -10  307.01   13.11
   0   0 -10  336.44   18.88
   0   0  11   36.62    6.12
   0   0 -11   38.34    8.62
   0   0 -11   35.13    6.40
   0   0  11   43.83    9.47
   0   0 -11   42.93    5.20
   0   0  12  235.82   16.58
   0   0 -12  256.02   15.40
   0   0 -12  242.61   22.83
   0   0  12  226.01   23.39
   0   0  13   59.98   12.41
   0   0 -13   53.65   10.98
   0   0 -14   -0.22    1.20
   0   0  14    7.08    3.35
   0   0  15    0.85    1.72
   0  -1  14   65.20   13.30
   0  -1  13   17.20    6.67
   0   1 -13   24.24    7.69
   0  -1  13   19.25    5.40
   0   1 -12   71.29    6.89
   0   1 -12   72.52   12.59
   0  -1  12   78.67   13.33
   0  -1  12   75.82    9.40
   0  -1  11    1.56    1.96
   0   1 -11    0.78    1.57
   0  -1  11    5.47    3.40
   0   1 -10  132.85   13.14
   0   1 -10  109.59   14.35
   0   1 -10  145.63   10.11
   0   1 -10  101.14   12.82
   0   1 -10   91.16    4.31
   0  -1  10   98.74    9.91
   0  -1  10   93.51   12.68
   0   1  -9   14.96    2.74
   0   1  -9   16.90    1.84
   0  -1   9   16.18    3.71
   0   1  -9   19.62    5.22
   0  -1   9   15.58    4.89
   0   1  -9   22.85    4.63
   0   1  -9   14.72    4.95
   0  -1   8    6.06    2.41
   0   1  -8    7.54    2.59
   0   1  -8    3.39    1.34
   0   1  -8    2.86    2.06
   0   1  -8    3.99    0.88
   0  -1   8    2.73    1.35
   0  -1   8    4.58    2.60
   0  -1   8    5.96    2.83
   0   1  -8    2.84    2.08
   0  -1   7    0.70    2.15
   0   1  -7    2.69    1.89
   0  -1   7    1.98    2.49
   0  -1   7    6.48    2.96
   0  -1   7    4.64    2.65
   0   1  -7   -2.09    2.43
   0   1  -7    0.81    0.90
   0   1  -6  532.77   19.23
   0  -1   6  563.76   21.55
   0   1  -6  568.15   24.32
   0  -1   6  581.00   24.28
   0   1  -6  589.55   15.96
   0   1  -6  595.01   27.62
   0  -1   6  559.35   20.31
   0   1  -6  574.93   23.26
   0  -1   5   27.61    4.22
   0  -1   5   24.43    4.14
   0   1  -5   25.46    4.34
   0   1  -5   25.43    5.09
   0   1  -5   28.54    3.64
   0   1  -5   26.24    4.32
   0  -1   5   26.19    3.50
   0   1  -4  457.95   18.12
   0   1  -4  472.89   15.46
   0  -1   4  471.63   17.49
   0   1  -4  477.68   21.55
   0  -1   4  496.57   15.54
   0  -1   4  441.16   17.66
   0   1  -4  428.62   17.49
   0  -1   3   -0.38    0.91
   0   1  -3    1.87    1.20
   0  -1   3   -0.70    0.82
   0   1  -3   -0.66    0.91
   0   1  -3   -0.81    1.61
   0  -1   3   -1.03    0.92
   0   1  -3   -0.47    0.65
   0  -1   2 5319.49   96.57
   0  -1   2 5527.81   96.39
   0   1  -2 5400.08  101.38
   0   1  -2 5759.57   97.39
   0  -1   2 5580.36  101.84
   0   1  -2 5709.24  103.90
   0   1   2 4084.62   77.38
   0  -1  -2 4482.40   82.12
   0   1   2 4102.74   72.48
   0  -1  -2 4098.42   71.87
   0   1   2 4118.91   80.31
   0  -1  -2 4377.47   76.57
   0  -1  -3   16.06    1.75
   0  -1  -3   15.17    2.67
   0   1   3   16.44    3.19
   0  -1  -3   14.91    2.11
   0  -1  -3   17.30    2.81
   0   1   3   24.00    2.66
   0   1   3   14.44    1.42
   0   1   3   13.24    2.54
   0  -1  -4 1954.05   46.16
   0   1   4 1928.90   48.37
   0  -1  -4 1921.25   36.92
   0  -1  -4 1891.90   36.80
   0   1   4 1922.93   47.35
   0  -1  -4 1768.49   39.87
   0  -1  -4 1772.22   46.04
   0   1   4 1997.90   40.73
   0  -1  -4 1799.24   38.74
   0  -1  -5  142.95    6.89
   0  -1  -5  131.07    7.12
   0  -1  -5  125.89   10.08
   0  -1  -5  129.65    7.90
   0  -1  -5  130.10   10.93
   0  -1  -5  138.88    6.87
   0   1   5  132.44    8.22
   0  -1  -5  135.03   10.64
   0   1   5  136.78   11.27
   0   1   5  121.20   10.87
   0   1   6 1265.57   42.24
   0  -1  -6 1346.20   41.18
   0  -1  -6 1274.04   29.41
   0  -1  -6 1122.11   31.89
   0   1   6 1171.29   42.10
   0  -1  -6 1338.20   40.63
   0  -1  -6 1340.72   42.93
   0   1   6 1328.02   33.88
   0  -1  -6 1240.75   31.58
   0  -1  -6 1265.51   30.00
   0  -1  -7  662.11   22.43
   0  -1  -7  669.96   31.16
   0  -1  -7  713.49   29.25
   0   1   7  677.80   31.44
   0  -1  -7  675.26   29.60
   0  -1  -7  726.79   20.92
   0   1   7  738.30   24.41
   0  -1  -7  682.43   20.51
   0  -1  -8  789.11   27.46
   0   1   8  884.23   28.57
   0  -1  -8  823.40   24.57
   0  -1  -8  815.33   24.06
   0  -1  -8  780.40   26.46
   0  -1  -8  872.00   34.18
   0  -1  -8  848.44   37.61
   0   1   8  863.36   38.29
   0  -1  -8  854.88   35.81
   0  -1  -9   -0.18    0.58
   0  -1  -9    0.30    1.02
   0  -1  -9    0.47    1.75
   0  -1  -9    1.20    1.18
   0  -1  -9    1.08    0.68
   0  -1  -9    0.19    1.46
   0  -1  -9    2.33    1.27
   0   1   9   -1.96    3.27
   0  -1 -10  155.60   12.32
   0  -1 -10  162.27    9.72
   0  -1 -10  158.66   12.17
   0  -1 -10  154.93   11.85
   0  -1 -10  159.65   16.59
   0   1  10  166.01   18.20
   0  -1 -11   30.97    6.06
   0   1  11   28.99    8.07
   0  -1 -11   32.78    6.46
   0  -1 -11   35.58    8.13
   0  -1 -11   29.88    4.18
   0   1  12   69.64   13.19
   0  -1 -12   75.46   12.20
   0   1  13   62.08   13.02
   0  -1 -13   78.60   12.90
   0  -1 -14   71.77   12.36
   0   1  14   93.73   17.18
   0   2 -13    4.07    3.54
   0  -2  13    8.16    4.20
   0  -2  13    1.48    1.62
   0  -2  12   27.48    7.71
   0   2 -12   28.29    7.95
   0  -2  12   20.69    5.18
   0  -2  11   22.52    5.04
   0   2 -11   15.93    5.90
   0  -2  11   14.99    4.94
   0   2 -10  134.88   16.39
   0  -2  10  149.36   12.51
   0  -2  10  132.89   14.79
   0  -2  10  127.57   11.63
   0  -2   9    1.81    1.51
   0  -2   9    3.12    2.46
   0  -2   9    3.48    2.03
   0   2  -9    2.77    2.41
   0  -2   8  223.28   16.78
   0   2  -8  229.31   19.37
   0  -2   8  214.34   13.63
   0  -2   8  216.95   15.17
   0  -2   7   73.42    7.21
   0   2  -7   66.24    9.72
   0   2  -7   76.02    8.59
   0  -2   7   81.33    9.16
   0  -2   7   66.40   11.06
   0  -2   7   79.24    8.82
   0   2  -6  746.50   32.40
   0  -2   6  688.49   28.00
   0   2  -6  708.28   26.02
   0  -2   6  705.92   23.38
   0  -2   6  666.42   25.68
   0  -2   5    7.43    2.12
   0  -2   5    4.84    1.25
   0  -2   5    5.58    2.33
   0   2  -5    5.01    2.10
   0  -2   4  507.31   17.26
   0  -2   4  508.07   16.82
   0   2  -4  535.61   23.56
   0  -2   4  514.88   21.97
   0   2  -3    2.14    1.21
   0  -2   3    3.14    0.97
   0   2  -3    3.37    2.04
   0  -2   3    2.00    1.36
   0  -2   3    2.90    1.37
   0  -2   2 3764.43   66.18
   0  -2   2 3695.49   78.53
   0  -2   2 3725.62   77.45
   0   2  -2 3919.84   77.10
   0   2  -2 3674.17   72.90
   0   2  -1    1.83    1.14
   0  -2   1   -0.48    0.64
   0  -2   1    0.41    0.87
   0   2   0 1658.00   32.26
   0   2   0 1652.78   33.86
   0  -2   0 1643.83   33.62
   0  -2   0 1582.46   35.37
   0  -2   0 1602.68   33.30
   0   2   1   17.05    2.61
   0   2   1   12.97    1.71
   0  -2  -1   15.39    2.46
   0  -2  -1   12.65    1.68
   0  -2  -1   15.34    2.39
   0   2   2 4697.28   90.90
   0   2   2 4751.28   82.28
   0  -2  -2 4623.48   90.65
   0  -2  -2 4791.99   90.62
   0   2   3    4.49    1.06
   0   2   3    7.70    2.46
   0  -2  -3    7.38    2.49
   0  -2  -3    3.70    0.87
   0   2   3    2.62    1.06
   0  -2  -3    3.99    1.21
   0  -2  -4    7.10    1.74
   0   2   4    7.31    1.35
   0  -2  -4    8.36    1.97
   0  -2  -4    8.95    1.48
   0  -2  -4    6.50    2.50
   0   2   4    3.39    1.52
   0   2   4    5.65    1.24
   0   2   5  233.99    8.24
   0   2   5  243.41   10.29
   0  -2  -5  224.67   15.85
   0  -2  -5  215.51   12.55
   0   2   5  222.14   15.77
   0  -2  -5  229.94    7.97
   0  -2  -5  211.59   11.00
   0   2   6 1957.09   58.24
   0  -2  -6 1987.07   51.89
   0  -2  -6 2024.28   40.56
   0  -2  -6 2015.93   58.32
   0  -2  -6 1994.92   58.82
   0  -2  -6 1940.82   39.15
   0  -2  -7   10.38    3.43
   0  -2  -7   14.34    4.43
   0  -2  -7   11.20    3.43
   0   2   7   18.99    5.27
   0  -2  -7   12.75    2.42
   0  -2  -7   14.40    2.25
   0  -2  -7   19.18    5.88
   0  -2  -8  224.17   13.80
   0  -2  -8  231.24   17.96
   0   2   8  245.57   20.24
   0  -2  -8  246.99   20.22
   0  -2  -8  241.41    9.80
   0  -2  -8  241.56   17.23
   0  -2  -8  221.39   11.67
   0  -2  -9    7.46    1.68
   0  -2  -9    6.93    2.07
   0  -2  -9    8.84    3.11
   0   2   9    8.48    4.53
   0  -2  -9    8.69    2.29
   0  -2 -10   51.78    4.71
   0  -2 -10   46.62    6.86
   0  -2 -10   48.98    6.06
   0  -2 -10   55.31    9.17
   0   2  10   56.28   10.80
   0  -2 -11   19.85    8.02
   0  -2 -11   12.11    4.82
   0   2  11    9.76    4.96
   0   2  12  234.94   25.20
   0  -2 -12  286.29   23.29
   0  -2 -12  310.21   31.44
   0   2  13    1.47    2.64
   0  -2 -13    5.27    5.95
   0  -2 -13    4.04    3.23
   0   2  14   68.13   14.76
   0  -2 -14   66.09   11.72
   0  -2 -15   -3.71    3.46
   0  -3  12   84.24   12.77
   0   3 -12   77.92   13.65
   0  -3  12   78.53   10.15
   0   3 -12   77.81    9.61
   0  -3  11    4.49    2.37
   0  -3  11    1.32    0.81
   0  -3  11    1.21    0.91
   0   3 -11    2.63    2.30
   0  -3  10  225.52   18.70
   0  -3  10  222.98   17.41
   0  -3  10  216.38   15.87
   0   3 -10  216.69   21.14
   0  -3   9   49.74    8.10
   0  -3   9   53.71    7.40
   0   3  -9   59.54   10.60
   0  -3   9   53.63    8.38
   0  -3   8  239.79   18.31
   0  -3   8  256.20   15.22
   0  -3   8  273.73   17.81
   0   3  -8  260.80   21.37
   0  -3   7   16.19    4.66
   0  -3   7   13.22    3.33
   0  -3   7   17.15    4.02
   0   3  -7   20.22    5.60
   0   3  -6   37.01    6.34
   0  -3   6   44.80    5.96
   0  -3   6   57.53   10.16
   0   3  -6   67.13    9.53
   0  -3   6   32.19    4.55
   0  -3   6   38.92    7.35
   0  -3   5    9.54    3.54
   0  -3   5    7.16    2.18
   0   3  -5    7.03    2.78
   0  -3   5    5.57    1.68
   0   3  -5    7.87    3.35
   0   3  -4  757.09   29.95
   0   3  -4  689.66   25.87
   0  -3   4  803.41   26.09
   0  -3   4  740.16   29.98
   0  -3   4  694.10   20.20
   0  -3   3   12.52    3.40
   0   3  -3   12.06    3.18
   0  -3   3    9.61    1.85
   0  -3   3   12.58    3.76
   0  -3   2  104.29    9.34
   0  -3   2   80.16    8.16
   0   3  -2  113.77    8.75
   0  -3   2   94.86    7.70
   0   3  -1    3.00    1.27
   0  -3   1    3.92    1.67
   0   3  -1    4.60    1.32
   0  -3   1    4.18    1.53
   0  -3   0  783.99   22.36
   0  -3   0  789.70   24.25
   0   3   0  827.66   22.45
   0   3   0  818.28   20.19
   0  -3   0  798.66   21.89
   0  -3  -1   61.76    5.98
   0  -3  -1   62.80    5.72
   0   3   1   60.92    4.86
   0  -3  -1   61.28    3.91
   0   3   1   69.43    6.02
   0  -3  -1   59.18    4.75
   0  -3  -2  224.64   12.62
   0  -3  -2  212.52    8.99
   0   3   2  228.47   12.66
   0  -3  -2  216.03   12.39
   0   3   2  220.60    9.34
   0  -3  -3   40.70    5.55
   0  -3  -3   42.08    5.74
   0   3   3   35.68    3.35
   0   3   3   40.57    5.71
   0  -3  -3   37.40    3.47
   0   3   4 1189.84   27.43
   0  -3  -4 1189.58   28.36
   0   3   4 1140.01   38.27
   0  -3  -4 1125.64   26.41
   0  -3  -4 1216.58   38.41
   0   3   5   35.95    5.89
   0   3   5   33.25    6.47
   0   3   5   32.31    3.51
   0  -3  -5   25.68    3.73
   0  -3  -5   28.33    5.30
   0  -3  -5   27.54    2.86
   0   3   6   47.61    8.44
   0  -3  -6   30.20    7.13
   0   3   6   13.61    2.50
   0  -3  -6   12.45    2.19
   0  -3  -6   30.40    4.85
   0  -3  -7   17.88    2.74
   0  -3  -7   19.91    5.78
   0  -3  -7   10.85    4.03
   0  -3  -7   14.44    3.55
   0  -3  -7    8.37    2.71
   0   3   7   18.56    5.16
   0  -3  -7   16.70    5.24
   0  -3  -8  178.95   17.60
   0  -3  -8  206.33    9.12
   0   3   8  199.68   19.03
   0  -3  -8  196.40    9.76
   0  -3  -8  179.18   12.87
   0  -3  -8  199.25   17.75
   0  -3  -8  219.04   15.43
   0  -3  -8  203.57   19.03
   0  -3  -9  311.23   24.51
   0  -3  -9  233.33   15.63
   0  -3  -9  264.89   18.41
   0  -3  -9  287.50   11.38
   0  -3  -9  292.36   13.57
   0   3   9  279.14   24.16
   0   3  10  232.80   23.03
   0  -3 -10  220.83   10.07
   0  -3 -10  225.12   21.95
   0  -3 -10  193.26   11.54
   0  -3 -10  234.93   18.19
   0   3  11   43.07   10.20
   0  -3 -11   46.13   10.98
   0  -3 -11   43.84    8.37
   0   3  12  197.72   23.56
   0  -3 -12  198.19   18.33
   0  -3 -12  212.39   24.88
   0   3  13   18.50    7.77
   0  -3 -13   17.13    5.60
   0  -3 -13   18.72    7.98
   0  -3 -14   31.11   11.40
   0   3  14   22.91    8.71
   0  -3 -14   22.49    6.44
   0   4 -12   21.71    5.38
   0  -4  12   23.42    5.97
   0  -4  12   17.10    5.33
   0   4 -11    9.72    5.11
   0  -4  11    6.38    3.19
   0   4 -11    5.94    2.84
   0  -4  11    9.51    4.37
   0  -4  10  344.14   22.19
   0   4 -10  350.68   27.41
   0   4 -10  315.27   20.04
   0  -4  10  351.80   21.02
   0  -4  10  334.19   23.96
   0   4  -9    0.20    2.02
   0   4  -9    3.54    3.22
   0  -4   9    0.20    1.49
   0  -4   9   -0.41    1.26
   0  -4   9    1.17    1.11
   0  -4   8  124.90   11.21
   0  -4   8  116.02   10.45
   0   4  -8  128.35   15.24
   0  -4   8  132.75   14.75
   0  -4   7   -1.21    0.65
   0  -4   7   -0.24    2.07
   0  -4   7   -0.74    0.90
   0   4  -7    1.37    1.44
   0   4  -6  339.50   20.77
   0  -4   6  324.20   16.79
   0   4  -6  314.04   21.79
   0  -4   6  325.17   15.32
   0  -4   6  332.27   22.51
   0  -4   6  286.40   24.27
   0   4  -5    5.34    2.95
   0  -4   5   -0.21    1.00
   0  -4   5    4.50    2.25
   0  -4   5    2.52    1.72
   0   4  -5    0.73    1.36
   0  -4   5    3.70    1.64
   0   4  -4  341.52   18.84
   0  -4   4  339.78   12.12
   0  -4   4  349.20   21.83
   0  -4   4  392.24   16.95
   0   4  -4  377.01   21.01
   0  -4   4  339.74   22.94
   0  -4   3    6.31    3.08
   0  -4   3    8.19    3.28
   0  -4   3    4.32    1.87
   0   4  -3    5.18    2.08
   0   4  -3    8.14    2.97
   0   4  -3    4.24    0.85
   0   4  -2 1272.37   35.74
   0  -4   2 1247.06   42.29
   0  -4   2 1245.87   40.81
   0   4  -2 1315.76   37.33
   0  -4   2 1290.32   37.53
   0   4  -1    6.74    1.91
   0  -4   1    4.41    1.80
   0   4  -1    6.12    1.98
   0  -4   1    8.05    2.32
   0  -4   1    5.39    1.60
   0  -4   0  864.29   27.09
   0   4   0  977.31   24.18
   0  -4   0  920.98   29.48
   0   4   0  950.81   27.30
   0  -4   0  897.96   26.05
   0   4   1  703.66   22.20
   0  -4  -1  766.44   26.44
   0  -4  -1  716.57   24.14
   0  -4  -1  694.26   20.16
   0  -4  -2 1449.24   35.67
   0  -4  -2 1505.19   41.92
   0  -4  -2 1496.63   42.44
   0   4   2 1502.57   36.35
   0  -4  -2 1528.87   30.41
   0   4   2 1469.12   41.48
   0   4   3  170.87   12.72
   0   4   3  175.50    9.41
   0  -4  -3  170.21   12.70
   0  -4  -3  163.29    8.94
   0  -4  -3  184.92   13.22
   0   4   4   68.34    5.58
   0  -4  -4   65.58    5.24
   0  -4  -4   67.35    8.44
   0   4   4   61.75    8.33
   0  -4  -4   61.93    4.19
   0  -4  -5    6.71    1.69
   0   4   5    5.81    2.84
   0   4   5   10.13    2.25
   0  -4  -5    6.29    1.68
   0  -4  -5    6.47    2.18
   0  -4  -6  285.50   13.30
   0  -4  -6  258.63   19.27
   0   4   6  275.97   20.67
   0   4   6  278.50   12.15
   0   4   6  244.75   15.87
   0  -4  -6  275.52   11.61
   0  -4  -7   48.26    5.39
   0  -4  -7   47.61    7.04
   0   4   7   37.85    8.08
   0  -4  -7   16.28    3.86
   0  -4  -7   26.19    6.69
   0  -4  -7   18.16    5.47
   0  -4  -7   42.75    8.63
   0  -4  -8  596.82   26.68
   0  -4  -8  610.14   19.23
   0  -4  -8  601.53   24.90
   0   4   8  607.64   35.70
   0   4   8  626.30   21.62
   0  -4  -8  568.21   32.85
   0  -4  -9    0.23    0.66
   0   4   9   -0.34    1.27
   0  -4  -9    0.30    0.68
   0  -4  -9    2.63    2.39
   0   4  10  146.45   19.21
   0  -4 -10  141.87    8.57
   0  -4 -10  136.60    9.33
   0  -4 -10  134.44   17.01
   0  -4 -10  144.30   13.21
   0   4  11    8.33    5.20
   0  -4 -11    7.52    3.73
   0  -4 -11    6.95    3.68
   0   4  12   17.68    7.43
   0  -4 -12   10.42    3.93
   0  -4 -13    5.52    4.10
   0   4  13   10.65    5.95
   0  -4 -13    2.31    2.14
   0  -4 -14   80.37   16.85
   0   5 -12   51.41    8.76
   0  -5  12   72.24   11.97
   0   5 -11   -2.19    1.60
   0  -5  11    1.52    2.21
   0   5 -11    0.93    1.28
   0  -5  11    1.92    1.60
   0   5 -10   50.70    8.12
   0  -5  10   51.85   10.24
   0  -5  10   47.27    7.81
   0   5 -10   51.42   10.55
   0   5  -9   -0.77    3.24
   0   5  -9    1.61    1.63
   0  -5   9    2.66    3.16
   0  -5   9    1.89    1.26
   0  -5   9    1.93    1.81
   0  -5   8  319.80   17.19
   0   5  -8  350.78   21.24
   0   5  -8  329.77   25.04
   0  -5   8  328.42   18.81
   0  -5   8  330.07   25.51
   0  -5   7   15.57    5.26
   0   5  -7   20.60    6.27
   0  -5   7   19.27    4.33
   0  -5   7   15.52    3.35
   0   5  -7   15.77    3.88
   0  -5   6  193.10   10.60
   0   5  -6  188.20   17.26
   0   5  -6  189.54   14.47
   0  -5   6  177.53   17.72
   0   5  -5   34.90    6.44
   0   5  -5   37.05    5.99
   0  -5   5   35.44    6.50
   0  -5   5   34.80    3.78
   0   5  -5   33.10    6.87
   0  -5   5   43.21    8.24
   0  -5   5   30.97    7.58
   0   5  -4  694.56   30.32
   0  -5   4  726.03   26.82
   0   5  -4  692.63   27.64
   0  -5   4  655.08   34.65
   0  -5   4  648.33   17.53
   0   5  -4  692.36   30.06
   0  -5   4  684.09   34.03
   0  -5   3   97.26    8.64
   0  -5   3   99.59   11.89
   0   5  -3   89.03    9.00
   0   5  -3  109.75   10.93
   0  -5   3   94.63   11.68
   0   5  -3  103.04   10.00
   0  -5   2  495.00   22.66
   0   5  -2  441.89   20.40
   0  -5   2  470.17   15.94
   0   5  -2  477.99   20.60
   0  -5   2  459.98   24.51
   0  -5   2  464.49   26.12
   0  -5   1   26.07    4.84
   0   5  -1   24.94    4.40
   0  -5   1   19.75    3.23
   0   5  -1   21.87    3.70
   0  -5   1   25.88    4.87
   0  -5   0  153.00   11.85
   0  -5   0  155.31   10.12
   0   5   0  173.37    9.31
   0  -5   0  148.42   10.91
   0   5   0  157.81   10.79
   0  -5  -1  158.35   12.25
   0  -5  -1  145.33   10.73
   0  -5  -1  142.63    9.19
   0   5   1  148.34   10.12
   0   5   2  559.94   20.93
   0   5   2  571.20   24.23
   0  -5  -2  562.32   24.21
   0  -5  -2  566.73   25.26
   0  -5  -2  576.16   17.16
   0   5   3  245.39   16.37
   0  -5  -3  254.01   12.78
   0  -5  -3  258.37   17.01
   0  -5  -3  236.67    7.86
   0   5   3  241.17   12.85
   0  -5  -3  245.20   16.37
   0  -5  -4 1363.29   35.69
   0  -5  -4 1390.45   46.32
   0   5   4 1300.39   45.54
   0   5   4 1454.76   37.42
   0  -5  -5   30.50    6.42
   0  -5  -5   27.12    3.84
   0  -5  -5   34.03    6.81
   0  -5  -5   23.16    2.28
   0   5   5   37.87    7.14
   0   5   5   32.63    6.85
   0   5   5   28.40    4.12
   0  -5  -6  710.89   34.00
   0  -5  -6  665.17   18.80
   0  -5  -6  658.03   21.56
   0  -5  -6  677.22   33.18
   0   5   6  638.49   34.03
   0   5   6  655.42   22.75
   0   5   6  721.43   33.83
   0  -5  -7    1.25    1.15
   0  -5  -7    2.18    1.68
   0   5   7    4.44    3.43
   0  -5  -7    2.91    1.44
   0  -5  -7    2.32    1.91
   0  -5  -7   -0.02    0.92
   0  -5  -7    2.51    1.95
   0   5   8  325.32   16.22
   0   5   8  336.10   15.13
   0  -5  -8  324.50   14.24
   0  -5  -8  325.52   15.74
   0  -5  -8  340.15   25.15
   0   5   8  332.97   27.39
   0  -5  -9    2.11    2.03
   0   5   9    3.48    3.49
   0   5   9   -0.92    0.47
   0  -5  -9    1.55    1.38
   0  -5  -9   -0.03    0.54
   0   5   9   -0.60    1.11
   0  -5 -10    6.92    4.11
   0  -5 -10    2.59    1.33
   0  -5 -10    4.61    2.33
   0   5  10    3.52    4.57
   0  -5 -11   22.55    7.21
   0   5  11   27.82    8.67
   0  -5 -11   30.17    5.82
   0  -5 -12   89.25   10.57
   0   5  12   83.93   16.22
   0  -5 -12   77.84   14.18
   0  -5 -13    3.89    3.59
   0   5  13    8.06    5.07
   0  -5 -14   54.43   13.27
   0   6 -11    5.45    2.44
   0  -6  11    6.46    4.13
   0  -6  10   70.13   12.69
   0   6 -10   51.61    8.79
   0  -6  10   58.69    8.91
   0   6 -10   59.35   11.47
   0   6  -9   14.78    5.67
   0   6  -9   15.36    4.73
   0  -6   9   24.39    7.42
   0  -6   9   26.21    5.56
   0   6  -8  221.92   17.91
   0   6  -8  238.79   21.47
   0  -6   8  254.17   23.87
   0  -6   8  247.87   17.22
   0   6  -7   78.08   11.62
   0  -6   7  106.24   14.93
   0   6  -7   90.93   10.93
   0  -6   7   86.86    6.13
   0  -6   7   82.79    9.93
   0   6  -6  420.17   23.67
   0  -6   6  403.00   28.96
   0  -6   6  332.90   22.41
   0   6  -6  387.03   25.57
   0  -6   6  363.85   12.13
   0   6  -5   13.39    3.71
   0  -6   5   10.81    1.59
   0   6  -5   11.36    3.85
   0  -6   5   14.58    5.27
   0  -6   4   92.47   12.98
   0   6  -4   91.74   10.06
   0  -6   4   88.81    4.62
   0  -6   4   76.31   12.02
   0  -6   4  107.87   10.83
   0   6  -4   96.31   11.13
   0  -6   4   86.98    5.25
   0  -6   3   23.66    6.68
   0  -6   3   15.87    4.95
   0  -6   3   26.49    3.09
   0   6  -3   19.30    4.32
   0  -6   3   22.50    4.81
   0   6  -3   22.30    5.34
   0   6  -3   23.37    4.70
   0  -6   2    1.28    0.69
   0  -6   2    2.85    1.53
   0  -6   2    0.81    1.44
   0   6  -2    4.16    2.24
   0   6  -2    2.50    1.28
   0  -6   2    1.93    1.55
   0   6  -2    2.01    0.56
   0  -6   1   -0.20    1.69
   0  -6   1    0.43    0.83
   0  -6   1   -1.95    3.68
   0   6  -1    1.28    1.48
   0   6  -1    0.62    1.66
   0  -6   1    3.87    2.39
   0   6  -1   -0.32    1.17
   0   6   0  446.55   24.40
   0   6   0  475.87   21.15
   0  -6   0  457.15   19.53
   0  -6   0  428.01   21.46
   0  -6   0  457.09   23.42
   0  -6  -1  243.44   16.71
   0   6   1  231.09   14.24
   0  -6  -1  225.52   14.35
   0  -6  -1  215.24   12.99
   0  -6  -2 1304.61   33.95
   0  -6  -2 1330.14   42.39
   0   6   2 1366.55   39.54
   0  -6  -2 1391.19   45.75
   0  -6  -3  326.45   11.50
   0  -6  -3  382.04   22.38
   0   6   3  375.32   22.61
   0   6   3  358.04   17.80
   0   6   3  371.55   21.66
   0   6   4  712.35   26.15
   0  -6  -4  633.30   24.51
   0  -6  -4  724.59   32.91
   0  -6  -4  699.67   31.90
   0   6   4  670.57   31.90
   0   6   4  664.22   31.91
   0  -6  -5   20.07    3.72
   0   6   5   30.43    6.71
   0   6   5   20.36    5.45
   0  -6  -5   29.42    6.45
   0   6   5   22.59    4.16
   0  -6  -5   26.09    6.14
   0  -6  -6  193.24   17.82
   0   6   6  178.02   17.91
   0  -6  -6  182.67   17.27
   0  -6  -6  154.11   10.76
   0   6   6  173.73   11.99
   0   6   6  161.05   16.31
   0  -6  -7    0.02    0.75
   0  -6  -7    3.20    2.64
   0  -6  -7    0.99    0.75
   0   6   7   -1.41    2.55
   0  -6  -8  109.48   14.39
   0   6   8   98.55   14.92
   0  -6  -8  115.73    6.97
   0   6   8  115.21    9.05
   0  -6  -8  104.76    8.52
   0  -6  -9    1.08    1.17
   0  -6  -9    0.81    0.88
   0  -6  -9    0.68    2.14
   0   6   9   -0.73    0.73
   0   6   9    2.74    2.18
   0   6   9    2.45    2.63
   0  -6 -10  213.90   22.19
   0  -6 -10  264.14   13.97
   0   6  10  235.43   13.62
   0   6  10  249.32   26.54
   0  -6 -11    4.02    2.15
   0   6  11    8.40    4.79
   0   6  12   90.08   17.57
   0  -6 -12  122.55   18.07
   0  -6 -13    1.32    1.26
   0  -7  10   21.15    7.48
   0   7 -10   21.00    6.15
   0  -7  10   21.98    5.42
   0  -7   9    2.56    3.88
   0   7  -9   -0.48    2.24
   0   7  -9    4.05    3.22
   0  -7   9    4.22    2.62
   0  -7   8   69.48   13.07
   0   7  -8   70.02   11.72
   0   7  -8   66.46   10.38
   0  -7   8   62.69    9.23
   0   7  -7    2.44    1.88
   0  -7   7    8.69    5.21
   0  -7   7   -0.50    0.89
   0   7  -7    6.31    3.58
   0   7  -6   93.23   12.40
   0   7  -6   91.70   11.59
   0  -7   6   93.77   13.49
   0  -7   6  112.85   16.43
   0  -7   5   -3.33    3.31
   0  -7   5   -4.02   17.10
   0   7  -5   -1.10    1.78
   0   7  -5    0.84    1.68
   0   7  -4  349.31   21.94
   0  -7   4  342.74   27.78
   0   7  -4  326.15   21.01
   0  -7   4  329.72   22.44
   0  -7   3   94.90   13.51
   0  -7   3   89.41   10.80
   0   7  -3  109.26   11.16
   0   7  -3  108.66   11.47
   0  -7   3  106.19    5.71
   0  -7   3  118.11   15.67
   0  -7   2  235.09   11.40
   0  -7   2  245.54   18.29
   0  -7   2  222.02   19.28
   0   7  -2  237.48   16.69
   0  -7   2  258.15   22.79
   0   7  -2  239.93   15.32
   0  -7   1   30.09    6.48
   0  -7   1   24.92    6.72
   0  -7   1   36.95    4.95
   0  -7   1   35.18    6.52
   0  -7   1   37.47    4.14
   0   7  -1   32.69    5.86
   0  -7   0  254.45   18.38
   0   7   0  255.99   16.57
   0  -7   0  260.15   15.06
   0  -7   0  223.85   16.28
   0  -7  -1   20.07    5.14
   0  -7  -1   12.03    3.21
   0  -7  -1   14.03    3.56
   0   7   1   10.57    3.09
   0  -7  -2  208.88   17.12
   0   7   2  193.63   13.88
   0  -7  -2  169.32   11.07
   0  -7  -3    0.42    0.86
   0  -7  -3   -0.33    0.93
   0   7   3   -1.02    1.02
   0  -7  -3    0.97    1.77
   0   7   4   46.36    8.05
   0  -7  -4   50.68    8.35
   0  -7  -4   49.82    8.73
   0   7   4   59.16    7.62
   0   7   5  222.54   19.52
   0  -7  -5  229.85   19.18
   0   7   5  232.16   15.70
   0  -7  -5  215.59   19.03
   0  -7  -6   52.46    9.57
   0   7   6   46.11    6.78
   0  -7  -6   48.64    6.41
   0   7   6   35.82    8.19
   0   7   7   31.53    8.72
   0  -7  -7   34.28    8.92
   0  -7  -8  462.99   31.64
   0   7   8  445.48   21.00
   0   7   8  387.44   25.67
   0  -7  -8  457.41   20.72
   0   7   8  453.05   33.68
   0  -7  -9   -0.96    2.12
   0   7   9    1.66    2.41
   0   7   9    0.73    0.95
   0   7  10  304.88   30.47
   0   7  10  287.31   15.41
   0  -7 -10  302.31   27.26
   0  -7 -11    2.66    3.19
   0   7  11    2.07    1.74
   0   7  12   52.19   13.53
   0  -7 -12   66.67   13.57
   0  -8   9   11.30    4.08
   0   8  -8    5.69    3.40
   0  -8   8    7.03    3.18
   0   8  -8    5.58    2.49
   0  -8   8    4.48    3.25
   0   8  -7   10.10    4.59
   0   8  -7    4.33    1.42
   0  -8   7    4.77    2.42
   0  -8   7   12.09    5.29
   0   8  -6  234.08   20.31
   0  -8   6  221.84   24.68
   0  -8   6  279.12   27.56
   0   8  -6  238.92   20.01
   0   8  -5   52.80    9.07
   0   8  -5   54.31    8.99
   0  -8   5   73.42   14.15
   0   8  -4  265.83   20.12
   0  -8   4  271.77   26.46
   0   8  -4  286.52   20.13
   0   8  -3    2.14    1.98
   0  -8   3    1.42    1.58
   0   8  -3    1.75    1.74
   0  -8   2  244.27   21.90
   0   8  -2  293.14   20.05
   0  -8   2  291.15   21.34
   0  -8   2  331.23   28.13
   0  -8   2  284.37   12.22
   0  -8   1    0.25    1.34
   0  -8   1   -0.26    1.99
   0  -8   1    3.07    2.38
   0  -8   1    2.00    1.37
   0   8  -1    0.07    1.01
   0  -8   1    1.22    0.82
   0  -8   0   51.26    6.81
   0   8   0   48.49    7.53
   0  -8   0   47.97    8.48
   0  -8   0   32.74    8.12
   0  -8   0   49.13    8.11
   0  -8   0   55.41    6.62
   0  -8  -1    5.62    2.77
   0   8   1    8.99    3.85
   0  -8  -1    4.34    2.12
   0  -8  -1    7.23    2.82
   0  -8  -2   52.28    9.22
   0  -8  -2   47.38    7.77
   0  -8  -2   52.82    6.73
   0  -8  -2   51.89    7.95
   0   8   2   50.16    7.66
   0  -8  -3    2.04    0.65
   0  -8  -3    5.44    3.16
   0  -8  -3    2.33    0.79
   0   8   3    2.90    1.85
   0  -8  -3    3.95    2.08
   0  -8  -4  234.94   19.45
   0  -8  -4  242.38   20.76
   0  -8  -4  244.06   21.00
   0   8   4  232.75   16.67
   0  -8  -5  101.77   13.51
   0   8   5  116.60   11.73
   0   8   6  194.00   15.95
   0  -8  -6  222.26   20.87
   0   8   6  204.86   20.36
   0  -8  -7   -0.04    1.56
   0   8   7    1.84    1.11
   0   8   7    1.65    3.43
   0   8   8  114.84   11.37
   0  -8  -8  138.64   17.63
   0   8   8  121.46   17.54
   0  -8  -9    8.40    4.33
   0   8   9   10.37    5.58
   0   8   9    6.73    2.67
   0  -8 -10   38.46    9.91
   0   8  10   33.18    5.36
   0   8  10   35.04   10.52
   0   8  11   -1.29    3.01
   0  -8 -11   -0.44    2.46
   0  -8 -12   61.47   13.30
   0  -9   8   63.82   10.80
   0   9  -7    0.11    1.98
   0  -9   7    1.28    1.25
   0  -9   6   -1.65    4.21
   0   9  -6    9.04    4.26
   0  -9   6    5.57    3.06
   0   9  -6    3.06    2.01
   0  -9   5   -5.86    4.35
   0   9  -5   -0.23    2.23
   0   9  -5    0.45    2.13
   0  -9   4  220.80   25.67
   0   9  -4  196.30   18.28
   0   9  -3    2.23    2.91
   0  -9   3    1.17    2.54
   0   9  -2  139.10   14.81
   0  -9   2  189.30   23.08
   0  -9   2  171.16   17.42
   0  -9   1   16.00    5.81
   0  -9   1   20.76    6.12
   0  -9   1   26.02    7.48
   0   9  -1   21.42    5.88
   0   9   0   66.78    9.62
   0  -9   0   59.23    9.68
   0  -9   0   63.46   10.45
   0  -9   0   67.57   13.36
   0  -9  -1   63.06   13.12
   0  -9  -1   69.87    9.11
   0  -9  -1   55.67    9.71
   0   9   1   56.29    8.63
   0  -9  -2  542.50   28.08
   0  -9  -2  638.64   41.88
   0  -9  -2  567.26   33.29
   0  -9  -2  593.47   30.60
   0   9   2  527.20   28.00
   0  -9  -3    0.21    1.78
   0   9   3    1.30    2.04
   0  -9  -3    1.59    1.44
   0  -9  -3    1.49    1.09
   0  -9  -4  349.77   26.76
   0  -9  -4  342.93   26.28
   0   9   4  292.89   20.40
   0  -9  -5    1.83    2.21
   0   9   5    1.59    1.93
   0   9   6   12.69    4.52
   0  -9  -6   17.87    6.28
   0   9   7   58.56    9.48
   0  -9  -7   62.58   11.85
   0  -9  -8   34.05    9.07
   0   9   8   29.60    6.59
   0   9   8   30.39    9.24
   0   9   9    3.66    1.70
   0  -9  -9   -1.50    2.75
   0  -9 -10   59.78   12.76
   0   9  10   68.11   14.74
   0 -10   6   39.52   11.73
   0  10  -4   46.70    9.47
   0 -10   3    5.90    5.12
   0  10  -3    3.64    3.56
   0 -10   2   66.25   14.93
   0  10  -2   55.43    9.98
   0 -10   2   61.68   11.10
   0 -10   1    2.41    3.75
   0 -10   1    2.59    2.37
   0  10  -1    0.74    2.25
   0 -10   0  248.45   22.73
   0 -10   0  272.49   29.41
   0  10   0  265.38   21.08
   0 -10  -1  181.74   19.12
   0 -10  -1  205.74   25.51
   0  10   1  138.81   14.92
   0 -10  -2   91.94   13.68
   0 -10  -2   89.19   16.39
   0  10   2   75.37   10.73
   0 -10  -3   87.30   15.96
   0  10   3   59.36    9.51
   0 -10  -3   77.87   13.02
   0  10   4  111.99   13.16
   0 -10  -4  126.45   16.71
   0 -10  -4  118.07   18.84
   0  10   5    4.01    2.54
   0 -10  -5    1.49    2.17
   0  10   6   93.04   12.64
   0 -10  -6  127.74   17.34
   0  10   7   21.52    6.17
   0 -10  -7    3.96    3.81
   0 -10  -8   80.53   14.46
   0  10   8   77.91   11.71
   0 -10  -9    0.67    2.64
   0  11   0    4.41    2.93
   0 -11   0    2.40    2.25
   0 -11   0   -3.92    4.86
   0 -11  -1   -2.84    5.67
   0  11   1    1.41    2.91
   0 -11  -1    1.69    1.27
   0  11   2   37.20    8.17
   0 -11  -2   27.82    8.00
   0  11   3    2.82    2.80
   0 -11  -3    2.82    3.16
   0 -11  -3    3.64    3.71
   0 -11  -4  138.65   18.58
   0  11   4  112.71   14.15
   0 -11  -5   -1.53    2.01
   0  11   5    1.48    1.29
   0 -11  -6   18.62    8.44
   0  11   6   23.17    6.97
   0  11   7   17.47    5.55
   0 -11  -7    2.08    2.77
   0  11   8   89.17   13.18
   0 -12  -5    2.25    4.71
   0  12   5    2.45    2.39
   0 -12  -6   47.42   13.80
   0  12   6   32.63    8.41
   1 -12  -5   36.93   11.57
   1 -12  -4   -3.55    4.02
  -1  11   8    1.92    2.43
  -1  11   7   36.36    9.07
   1 -11  -6    3.38    4.31
  -1  11   6   -1.39    3.23
  -1  11   5   38.35    8.55
   1 -11  -5   49.29   12.87
   1 -11  -4    4.77    4.75
  -1  11   4   12.01    4.50
   1 -11  -4    9.70    4.76
   1 -11  -3   25.75    7.61
   1 -11  -3   35.40   11.20
  -1  11   3   29.37    7.30
  -1  11   2   19.84    5.59
   1 -11  -2   25.44    9.33
   1 -11  -2   10.45    4.91
  -1  11   1   45.35    9.09
   1 -11  -1   40.49    9.74
   1 -11  -1   52.40   13.67
   1 -11   0  131.72   21.95
  -1  11   0   93.89   12.95
  -1  10   9   39.72    8.84
   1 -10  -8    4.46    3.11
  -1  10   8   -1.23    1.35
   1 -10  -7   33.09    8.84
  -1  10   7   24.95    7.13
   1 -10  -7   32.42    8.86
   1 -10  -6    4.17    2.73
   1 -10  -6   -1.48    2.92
  -1  10   6    0.34    1.75
  -1  10   5  175.85   17.24
   1 -10  -5  205.85   23.53
   1 -10  -5  181.64   20.06
  -1  10   4   60.05    9.92
   1 -10  -4   36.22    8.86
   1 -10  -4   33.41    9.26
  -1  10   3  319.88   22.57
   1 -10  -3  369.33   32.93
   1 -10  -3  336.18   27.04
   1 -10  -2    9.80    5.60
  -1  10   2   14.49    4.84
   1 -10  -2   17.43    5.78
   1 -10  -1   70.11   14.47
   1 -10  -1   84.34   13.00
  -1  10   1   72.85   10.49
   1 -10   0   47.79    9.91
  -1  10   0   49.13    8.87
   1 -10   0   29.88    9.15
  -1  10  -1   19.59    5.84
   1 -10   1   14.09    5.36
   1 -10   1   25.00    8.48
   1 -10   2   32.31   10.37
   1 -10   2   30.90    8.00
  -1  10  -2   28.07    7.07
   1 -10   3   77.83   16.46
  -1  10  -3   82.05   12.38
   1 -10   6    7.23    3.98
   1  -9 -10   -1.22    2.26
   1  -9  -9   52.68   10.99
  -1   9   9   57.33    9.21
   1  -9  -8    2.82    2.72
  -1   9   8    2.23    3.21
  -1   9   7  146.80   15.26
   1  -9  -7  148.15   17.71
  -1   9   6    0.35    2.58
   1  -9  -6    3.87    2.43
   1  -9  -6   -1.11    2.26
  -1   9   5  286.04   20.61
   1  -9  -5  299.36   26.10
   1  -9  -5  290.15   24.19
   1  -9  -4   15.66    7.00
   1  -9  -4   18.94    6.21
   1  -9  -3  100.56   13.73
  -1   9   3  106.96   12.05
   1  -9  -3  108.32   13.61
   1  -9  -3  112.11   16.10
   1  -9  -2   13.21    4.35
   1  -9  -2   12.05    4.80
   1  -9  -2    8.73    4.27
  -1   9   2    8.94    3.36
   1  -9  -2    9.79    4.36
   1  -9  -1   52.48    9.44
  -1   9   1   60.33    8.93
   1  -9  -1   57.53   10.30
   1  -9  -1   63.35   12.73
   1  -9   0    3.07    1.74
  -1   9   0    2.37    1.83
   1  -9   0    6.15    2.87
   1  -9   0    8.84    5.32
  -1   9  -1  190.21   16.74
   1  -9   1  215.42   19.92
   1  -9   1  225.18   25.03
  -1   9  -2   14.13    4.38
   1  -9   2   15.59    6.80
   1  -9   2   12.77    4.38
   1  -9   3  343.76   31.74
  -1   9  -3  357.21   24.51
   1  -9   4   13.39    6.27
  -1   9  -4   12.63    4.32
  -1   9  -5   67.38   10.88
   1  -9   5   71.92   14.72
  -1   9  -6   16.74    5.21
   1  -9   6   15.75    6.37
   1  -9   7   25.74    6.80
   1  -8 -11   98.92   15.88
   1  -8 -10    3.04    2.83
  -1   8  10    3.79    2.44
  -1   8   9  132.19   13.16
   1  -8  -9  142.78   17.81
   1  -8  -8    5.70    2.73
  -1   8   8   11.67    4.10
   1  -8  -8    3.73    1.85
  -1   8   7   77.97   10.23
   1  -8  -7   74.96   11.15
   1  -8  -7   63.96   10.98
  -1   8   6   -0.06    1.38
   1  -8  -6    0.63    0.57
   1  -8  -6    0.90    1.73
   1  -8  -6    0.75    2.10
   1  -8  -5    3.42    1.12
  -1   8   5    4.57    2.15
   1  -8  -5    3.91    3.04
   1  -8  -4    2.83    2.69
   1  -8  -4   -0.05    0.83
   1  -8  -4    1.22    1.13
   1  -8  -4    0.93    2.34
  -1   8   3  143.33   12.87
   1  -8  -3  134.41   15.56
   1  -8  -3  144.19   15.52
   1  -8  -3  143.71   14.90
   1  -8  -3  118.26    9.52
   1  -8  -3  159.45   17.56
   1  -8  -2  138.98   15.06
   1  -8  -2  135.19   13.21
  -1   8   2  115.86   11.44
   1  -8  -2  124.14   14.38
   1  -8  -2  160.69   17.93
   1  -8  -2  103.08   10.13
   1  -8  -1  218.37   21.51
   1  -8  -1  205.75   17.95
   1  -8  -1  192.55   15.09
   1  -8  -1  211.78   18.33
  -1   8   1  210.07   15.83
   1  -8  -1  213.24   14.71
   1  -8   0    1.95    1.26
  -1   8   0    5.96    3.25
   1  -8   0    4.25    2.04
   1  -8   0    0.53    2.01
   1  -8   1  440.54   26.89
   1  -8   1  372.02   25.38
  -1   8  -1  434.09   24.22
   1  -8   1  413.71   31.25
  -1   8  -2   68.26    9.40
   1  -8   2   82.67   11.23
   1  -8   2   93.16   14.80
   1  -8   2   65.92   11.02
   1  -8   2   81.25    9.60
   1  -8   3  331.06   18.81
  -1   8  -3  325.92   21.71
   1  -8   3  337.30   28.90
   1  -8   4    0.02    3.05
  -1   8  -4    3.61    2.92
   1  -8   5  114.23   17.20
  -1   8  -5   99.99   12.42
   1  -8   6    3.04    3.24
  -1   8  -6    3.71    2.58
  -1   8  -7   33.52    7.59
   1  -8   7   19.73    5.65
   1  -8   7   18.66    6.42
  -1   8  -8    0.65    2.63
   1  -8   8    2.03    3.89
   1  -8   8   -2.30    2.26
   1  -7 -12    0.39    1.35
   1  -7 -11   49.88   10.87
  -1   7  11   44.03   11.86
  -1   7  10    6.97    2.97
   1  -7 -10    4.92    3.09
  -1   7  10   10.06    5.57
  -1   7   9  173.77   13.99
  -1   7   9  163.81   21.44
   1  -7  -9  165.97   18.65
  -1   7   8   22.32    7.71
   1  -7  -8   10.99    2.48
   1  -7  -8   13.32    3.62
  -1   7   8   19.19    4.58
   1  -7  -8   16.92    4.59
   1  -7  -8   22.95    6.60
   1  -7  -7    3.49    1.45
   1  -7  -7    5.90    2.21
  -1   7   7    2.90    2.57
   1  -7  -7    6.21    3.04
  -1   7   7   10.16    3.38
   1  -7  -7    6.95    3.81
   1  -7  -6    0.58    1.42
   1  -7  -6   -0.46    1.03
   1  -7  -6    0.87    1.60
   1  -7  -6   -0.53    2.83
  -1   7   6   -0.14    1.74
   1  -7  -5  183.74   16.97
   1  -7  -5  182.48    8.06
   1  -7  -5  203.74   17.34
   1  -7  -5  209.59   19.46
   1  -7  -5  176.21   13.34
  -1   7   5  195.59   14.46
   1  -7  -4   16.07    4.96
   1  -7  -4   15.02    4.58
  -1   7   4   17.34    4.42
   1  -7  -4   24.32    5.91
   1  -7  -4   16.25    5.30
   1  -7  -4   15.57    2.44
   1  -7  -4   16.53    4.19
  -1   7   3  483.78   22.88
   1  -7  -3  513.59   29.19
   1  -7  -3  466.10   22.59
   1  -7  -3  480.02   27.17
   1  -7  -3  452.45   17.43
   1  -7  -3  480.80   28.76
   1  -7  -3  484.67   26.43
   1  -7  -2    5.92    3.32
   1  -7  -2    4.12    1.79
   1  -7  -2   10.45    5.20
   1  -7  -2    3.78    2.48
  -1   7   2   16.22    5.20
   1  -7  -2    5.85    3.09
   1  -7  -2    4.59    2.82
   1  -7  -1  252.57   18.76
  -1   7   1  249.62   16.20
   1  -7  -1  250.42   15.59
   1  -7  -1  257.20   15.59
   1  -7  -1  256.70   21.17
   1  -7   0    5.73    3.22
   1  -7   0   11.01    4.03
   1  -7   0   12.29    3.59
  -1   7   0    5.18    2.61
   1  -7   0    7.56    2.25
  -1   7  -1   16.81    4.33
   1  -7   1   10.01    3.17
   1  -7   1   12.05    4.29
   1  -7   1   10.24    4.64
   1  -7   1   10.20    3.45
  -1   7  -2   55.29    7.78
   1  -7   2   62.94    9.29
   1  -7   2   55.14   10.38
   1  -7   2   52.72    9.07
   1  -7   2   59.22    7.81
  -1   7  -3  164.59   14.07
   1  -7   3  165.33   12.57
   1  -7   3  139.54   16.10
   1  -7   3  168.02   18.79
  -1   7  -4    7.96    3.26
   1  -7   4    4.81    2.39
   1  -7   5  229.66   22.84
   1  -7   5  225.59   10.95
  -1   7  -5  196.08   16.33
   1  -7   5  217.51   15.17
  -1   7  -6   29.94    6.67
  -1   7  -6   25.86    5.92
   1  -7   6   24.90    3.86
   1  -7   6   28.38    7.49
   1  -7   6   27.11    7.67
   1  -7   7  200.07   22.06
  -1   7  -7  189.60   17.84
  -1   7  -7  175.89   16.10
   1  -7   7  189.74   15.69
  -1   7  -8   10.11    4.01
   1  -7   8    7.67    3.48
  -1   7  -8    4.71    2.59
   1  -7   8    6.51    3.64
  -1   7  -9   25.99    6.50
  -1   7  -9   35.75    8.29
   1  -7   9   28.85    5.68
   1  -7   9   20.26    7.44
  -1   7 -10    5.92    2.95
   1  -6 -13   45.09   11.50
   1  -6 -12    1.47    2.06
  -1   6  12    4.55    4.40
   1  -6 -11  110.31   15.72
  -1   6  11  112.13   18.68
   1  -6 -10    0.62    1.46
  -1   6  10   -2.73    2.37
  -1   6  10    1.35    1.31
   1  -6 -10    2.36    1.69
   1  -6  -9   86.27   12.95
   1  -6  -9   82.73    8.76
  -1   6   9   95.07   15.64
   1  -6  -9   85.58    7.72
  -1   6   9   90.22    9.48
   1  -6  -9   91.33    9.93
  -1   6   8   43.99    6.31
  -1   6   8   54.16    7.21
   1  -6  -8   43.63    6.44
  -1   6   8   50.04   10.97
   1  -6  -8   48.38    9.29
   1  -6  -8   46.21    6.19
  -1   6   7  438.96   31.21
   1  -6  -7  430.16   20.43
   1  -6  -7  449.25   20.69
  -1   6   7  485.74   22.29
   1  -6  -7  485.48   28.74
   1  -6  -6    3.47    2.35
   1  -6  -6    5.95    2.30
   1  -6  -6    3.08    1.67
  -1   6   6    5.02    1.91
  -1   6   5  693.10   26.36
   1  -6  -5  718.13   36.53
  -1   6   5  605.06   31.39
   1  -6  -5  665.72   34.15
   1  -6  -5  635.60   31.14
   1  -6  -5  636.96   24.86
   1  -6  -4   43.90    8.23
   1  -6  -4   38.44    7.06
   1  -6  -4   38.78    7.35
  -1   6   4   43.45    7.50
   1  -6  -4   39.08    5.71
  -1   6   4   62.71    7.62
   1  -6  -3  535.59   22.56
   1  -6  -3  586.22   28.06
  -1   6   3  536.45   27.71
   1  -6  -3  570.68   27.88
   1  -6  -3  535.78   16.85
  -1   6   3  592.57   23.50
   1  -6  -3  573.82   29.96
   1  -6  -3  597.15   27.99
  -1   6   2    5.42    2.16
   1  -6  -2    3.07    1.20
   1  -6  -2    5.73    2.36
  -1   6   2    3.61    2.49
   1  -6  -2    1.68    0.99
   1  -6  -2    1.08    1.24
   1  -6  -2    3.76    1.42
   1  -6  -1    1.74    1.03
  -1   6   1    3.65    1.74
   1  -6  -1    3.83    2.10
  -1   6   1    2.07    1.24
   1  -6  -1    3.96    1.92
   1  -6  -1    1.94    1.60
   1  -6  -1    5.37    2.76
   1  -6   0   80.48    9.29
   1  -6   0   83.66   10.94
   1  -6   0   69.94    7.96
   1  -6   0   91.06    7.27
  -1   6   0   79.28    8.67
  -1   6   0   85.64   10.34
   1  -6   0   83.97    9.45
   1  -6   1  304.00   18.60
  -1   6  -1  314.69   20.61
  -1   6  -1  324.14   17.71
   1  -6   1  310.03   19.23
   1  -6   1  314.97   18.11
   1  -6   1  330.37   23.32
   1  -6   2  136.92   12.76
  -1   6  -2  135.07   13.50
   1  -6   2  113.40   12.17
  -1   6  -2  116.18   10.51
   1  -6   2  120.65   10.37
   1  -6   2  142.47   15.31
   1  -6   3  304.50   23.52
  -1   6  -3  310.06   18.06
   1  -6   3  312.47   22.28
  -1   6  -4    6.38    3.95
   1  -6   4    4.89    3.41
   1  -6   4    7.59    4.04
  -1   6  -4   14.81    4.25
   1  -6   5  214.97    9.33
  -1   6  -5  206.30   16.09
  -1   6  -5  181.88   14.51
   1  -6   5  192.37   19.51
   1  -6   6   -0.98    2.19
   1  -6   6    1.00    2.46
  -1   6  -6    0.52    1.47
  -1   6  -6    3.95    2.26
   1  -6   6    2.17    1.45
   1  -6   7  120.60    9.86
  -1   6  -7  107.10   11.65
   1  -6   7  136.58   11.97
   1  -6   7  104.61   14.84
  -1   6  -7  128.44   14.23
  -1   6  -8    2.69    2.01
   1  -6   8   -0.18    0.86
   1  -6   8   -2.29    3.25
   1  -6   8    2.49    2.28
  -1   6  -8    1.53    1.96
   1  -6   9   85.33    9.31
  -1   6  -9  102.30   13.60
   1  -6   9   86.09   14.47
  -1   6  -9   80.26   10.67
  -1   6 -10   -2.24    2.61
   1  -6  10   -1.47    2.72
  -1   6 -10    1.53    1.36
   1  -6  10    0.21    1.08
   1  -6  11    2.04    3.22
  -1   6 -11   -0.50    1.33
   1  -5 -14    1.64    2.34
   1  -5 -13  139.74   19.77
  -1   5  13  121.57   20.64
   1  -5 -12    0.48    1.93
   1  -5 -12    1.69    1.76
  -1   5  12    0.74    1.53
  -1   5  11   60.82   13.42
   1  -5 -11   48.05   10.07
   1  -5 -11   47.93    8.60
   1  -5 -10    1.19    2.31
  -1   5  10    6.96    4.56
   1  -5 -10    4.58    2.03
   1  -5  -9  398.42   12.76
   1  -5  -9  414.85   18.60
  -1   5   9  426.56   32.83
  -1   5   9  434.85   21.40
   1  -5  -9  435.96   24.27
   1  -5  -9  406.76   27.43
  -1   5   8   12.30    2.18
   1  -5  -8    7.36    2.90
  -1   5   8    7.08    2.26
   1  -5  -8    7.54    2.28
  -1   5   8   12.28    5.35
   1  -5  -8   12.68    4.56
   1  -5  -7  585.68   30.50
   1  -5  -7  567.77   25.46
   1  -5  -7  598.50   22.66
  -1   5   7  548.06   34.27
  -1   5   7  604.19   24.13
  -1   5   7  569.05   24.03
  -1   5   6   59.77    6.76
  -1   5   6   54.64    8.86
   1  -5  -6   65.06   10.53
  -1   5   6   51.41    9.37
   1  -5  -6   49.24    6.60
   1  -5  -6   53.40    8.51
   1  -5  -6   59.59    6.54
   1  -5  -6   69.14   10.71
   1  -5  -6   71.26    9.23
   1  -5  -5  169.97   14.51
  -1   5   5  173.56   15.31
  -1   5   5  167.03   16.28
  -1   5   5  189.11   11.93
   1  -5  -5  192.45   17.46
   1  -5  -5  165.70   11.07
   1  -5  -5  194.90   17.07
  -1   5   4   44.45    5.57
   1  -5  -4   26.74    4.21
   1  -5  -4   32.58    6.75
   1  -5  -4   37.48    6.51
   1  -5  -4   36.13    6.79
  -1   5   4   45.05    7.30
   1  -5  -3  282.13   17.81
  -1   5   3  295.57   14.46
  -1   5   3  258.31   17.14
   1  -5  -3  263.24   13.75
   1  -5  -3  282.30   17.53
   1  -5  -2   45.87    5.68
   1  -5  -2   38.76    6.52
  -1   5   2   36.83    6.13
   1  -5  -2   40.90    6.34
   1  -5  -2   43.38    6.04
  -1   5   2   41.66    5.21
   1  -5  -2   44.71    4.09
   1  -5  -1 1853.77   42.91
  -1   5   1 1961.69   47.95
   1  -5  -1 1866.41   47.90
   1  -5  -1 1998.15   48.51
   1  -5  -1 1862.26   53.61
   1  -5  -1 1957.91   55.65
   1  -5  -1 2005.96   53.42
   1  -5   0   26.41    4.20
   1  -5   0   25.65    4.72
  -1   5   0   21.34    3.92
   1  -5   0   20.02    4.95
   1  -5   0   25.77    4.92
   1  -5   0   23.62    3.45
   1  -5   1  233.48   15.00
  -1   5  -1  215.37   13.09
   1  -5   1  202.24   13.54
   1  -5   1  194.50   16.10
   1  -5   2   22.74    4.57
  -1   5  -2   17.93    3.74
   1  -5   2   17.52    4.30
   1  -5   2   21.51    5.91
  -1   5  -3 1396.88   39.50
   1  -5   3 1288.47   48.51
   1  -5   3 1232.65   45.25
  -1   5  -3 1331.77   39.47
  -1   5  -3 1314.95   43.80
   1  -5   4    6.10    3.26
  -1   5  -4    1.71    1.22
  -1   5  -4    4.10    2.27
   1  -5   4    4.56    3.50
  -1   5  -4    4.23    2.29
  -1   5  -5  319.69   19.36
   1  -5   5  317.07   10.38
   1  -5   5  298.94   22.87
  -1   5  -5  303.46   17.50
   1  -5   5  295.75   23.68
   1  -5   6    0.85    3.48
  -1   5  -6    3.31    2.10
  -1   5  -6    4.85    2.59
   1  -5   6    6.72    2.46
   1  -5   6    4.94    2.54
  -1   5  -7   53.41    8.89
   1  -5   7   59.80   10.25
   1  -5   7   63.94    7.47
   1  -5   7   58.53    6.87
  -1   5  -7   72.00    8.61
  -1   5  -8   -1.07    1.97
   1  -5   8    1.68    0.85
   1  -5   8   -1.32    2.75
   1  -5   8    2.98    1.66
  -1   5  -8    2.16    1.22
   1  -5   9  104.93   14.35
  -1   5  -9  131.43   15.26
   1  -5   9  107.59   10.13
  -1   5  -9  115.31   11.87
   1  -5   9  104.79   11.07
   1  -5  10    1.60    0.68
  -1   5 -10    5.58    3.25
   1  -5  10    3.92    3.43
  -1   5 -10    3.45    2.06
   1  -5  11   53.55   10.30
  -1   5 -11   53.86   10.42
  -1   5 -11   52.26    8.38
   1  -5  12   15.68    5.60
  -1   5 -12    9.25    3.58
   1  -4 -14   -3.34    2.60
  -1   4  13   98.65   17.92
   1  -4 -13   92.17   13.59
   1  -4 -13   88.52   16.00
   1  -4 -12   15.34    5.73
   1  -4 -12   14.22    5.30
  -1   4  12   18.16    7.57
   1  -4 -11   76.89   11.58
   1  -4 -11   98.39   14.58
  -1   4  11   97.23   16.50
  -1   4  10  192.73   22.07
   1  -4 -10  178.76   11.14
   1  -4 -10  145.00   16.69
   1  -4 -10  177.88   17.17
   1  -4  -9  262.83   19.90
   1  -4  -9  243.99   20.53
  -1   4   9  253.69   24.40
   1  -4  -9  260.85   13.38
   1  -4  -8   58.06    9.62
   1  -4  -8   56.44    8.48
  -1   4   8   59.53    7.54
   1  -4  -8   53.57    3.23
  -1   4   8   75.62   12.49
   1  -4  -8   61.68    6.12
   1  -4  -7   60.88    6.07
   1  -4  -7   55.28    9.69
   1  -4  -7   58.06    8.25
  -1   4   7   62.57    4.08
   1  -4  -7   59.87   10.45
   1  -4  -7   58.06    8.75
  -1   4   7   59.14    7.15
   1  -4  -7   66.69    8.27
  -1   4   7   49.67    9.57
   1  -4  -6  348.64   15.00
   1  -4  -6  315.60   18.39
   1  -4  -6  373.26   24.52
   1  -4  -6  359.79   21.42
   1  -4  -6  406.26   20.34
  -1   4   6  345.27   16.36
  -1   4   6  367.65   16.96
  -1   4   6  382.85   25.38
   1  -4  -6  385.70   25.28
  -1   4   5   59.04    9.23
  -1   4   5   82.80    7.18
   1  -4  -5   74.08    9.85
   1  -4  -5   65.15    5.93
   1  -4  -5   76.99    9.03
  -1   4   4   16.89    5.12
   1  -4  -4   13.64    4.04
   1  -4  -4   31.46    4.82
   1  -4  -4   25.84    5.55
  -1   4   3 2483.14   53.93
   1  -4  -3 2467.00   62.39
   1  -4  -3 2401.33   53.35
   1  -4  -3 2441.06   60.63
   1  -4  -2  332.18   17.11
   1  -4  -2  343.24   17.06
  -1   4   2  350.08   14.43
   1  -4  -2  337.25   19.10
   1  -4  -2  349.63   16.98
   1  -4  -2  313.87   14.32
  -1   4   2  329.16   17.17
  -1   4   1  462.55   17.24
   1  -4  -1  460.11   19.95
   1  -4  -1  435.61   20.55
   1  -4  -1  453.68   20.69
   1  -4  -1  427.11   17.63
   1  -4   0   17.97    4.04
   1  -4   0   14.92    3.18
   1  -4   0   16.79    2.64
   1  -4   0   17.35    2.77
   1  -4   0   12.79    3.01
  -1   4   0   15.18    2.95
  -1   4  -1 1593.69   40.33
   1  -4   1 1542.01   40.90
   1  -4   1 1641.98   43.31
   1  -4   1 1613.35   48.50
   1  -4   2   11.04    3.03
  -1   4  -2   13.04    2.98
   1  -4   2    8.53    2.96
   1  -4   2   15.69    3.99
   1  -4   3 2257.49   62.43
  -1   4  -3 2451.35   56.68
  -1   4  -3 2383.07   55.56
   1  -4   3 2360.52   66.28
   1  -4   4   24.93    5.51
  -1   4  -4   26.51    4.40
   1  -4   4   29.26    2.89
  -1   4  -4   33.61    5.49
   1  -4   4   36.38    7.13
   1  -4   5  111.07    5.79
  -1   4  -5  112.63   10.92
   1  -4   5  107.23   13.07
  -1   4  -5   99.17    9.03
  -1   4  -5   94.57   10.57
   1  -4   5   99.40   11.93
   1  -4   5  141.43   11.68
  -1   4  -6    0.13    1.14
   1  -4   6    3.45    2.48
  -1   4  -6    2.75    2.80
   1  -4   6    0.97    1.58
   1  -4   6   -0.90    0.79
  -1   4  -6    0.07    0.91
   1  -4   6    1.12    1.37
   1  -4   7  327.32   23.32
   1  -4   7  339.85   15.77
   1  -4   7  341.88   18.66
  -1   4  -7  352.18   18.49
  -1   4  -7  347.01   22.13
   1  -4   8    0.23    0.66
  -1   4  -8    0.66    1.20
   1  -4   8    0.92    1.02
  -1   4  -8    2.07    2.41
   1  -4   8    3.84    2.12
  -1   4  -9  381.76   20.77
   1  -4   9  411.78   19.74
   1  -4   9  394.65   26.30
  -1   4  -9  372.43   25.68
   1  -4   9  389.01   22.81
   1  -4  10    9.84    4.01
   1  -4  10   10.19    3.51
  -1   4 -10    9.92    4.72
   1  -4  10    6.53    3.18
  -1   4 -10    9.15    2.83
   1  -4  11   97.42   10.37
  -1   4 -11   92.06   10.46
  -1   4 -11  116.76   15.07
   1  -4  11  114.61   13.67
   1  -4  11  102.07   13.05
  -1   4 -12    1.91    2.29
  -1   4 -12    2.26    1.37
   1  -3 -14   30.84   10.88
   1  -3 -14   13.77    5.67
   1  -3 -13   87.55   16.65
   1  -3 -13   64.24   11.84
  -1   3  13   61.53   13.77
   1  -3 -12   14.49    5.21
  -1   3  12   25.52    8.33
   1  -3 -12   29.99    9.00
  -1   3  11  107.61   16.81
   1  -3 -11  105.84   14.20
   1  -3 -11  102.31   15.02
   1  -3 -10    0.31    0.93
  -1   3  10    0.04    2.45
   1  -3 -10    1.26    1.68
   1  -3 -10   -3.90    3.38
   1  -3  -9    1.73    2.36
  -1   3   9   -0.11    1.84
   1  -3  -9    1.86    1.14
   1  -3  -9    0.93    2.16
   1  -3  -8   72.86    6.20
   1  -3  -8   74.04   10.48
  -1   3   8   59.39   10.61
   1  -3  -8   72.14    8.48
   1  -3  -8   54.82    8.81
  -1   3   7  314.23   16.93
   1  -3  -7  299.37   17.12
   1  -3  -7  301.48   20.01
   1  -3  -7  315.70   13.27
  -1   3   7  311.69   23.13
   1  -3  -7  349.69   24.44
   1  -3  -7  317.23   20.74
   1  -3  -7  329.75   23.05
  -1   3   6   58.11    6.71
   1  -3  -6   52.51    5.02
   1  -3  -6   48.19    6.26
  -1   3   6   55.73    9.03
   1  -3  -6   50.67    7.53
   1  -3  -6   58.02    8.03
   1  -3  -6   57.34    9.11
   1  -3  -5  556.19   24.54
   1  -3  -5  599.11   28.46
  -1   3   5  563.92   20.68
  -1   3   5  549.86   18.50
  -1   3   5  582.89   28.66
   1  -3  -5  553.20   17.98
   1  -3  -4  158.39    8.47
   1  -3  -4  156.24   12.85
  -1   3   4  186.72    9.97
   1  -3  -4  154.78   11.35
  -1   3   4  164.73   12.74
  -1   3   4  160.88   13.62
  -1   3   3  536.50   24.16
   1  -3  -3  511.47   16.58
   1  -3  -3  508.96   20.74
  -1   3   3  525.03   17.35
  -1   3   3  525.08   21.51
   1  -3  -3  526.19   22.81
   1  -3  -2  468.01   18.60
  -1   3   2  433.54   18.04
   1  -3  -2  471.03   21.22
  -1   3   2  507.25   16.16
   1  -3  -2  464.74   19.57
   1  -3  -2  446.10   15.67
   1  -3  -2  449.39   16.88
   1  -3  -1 1401.39   38.84
   1  -3  -1 1436.75   36.02
   1  -3  -1 1378.09   36.84
   1  -3  -1 1474.99   36.84
  -1   3   1 1452.88   33.19
  -1   3   1 1379.76   36.50
   1  -3  -1 1365.24   33.26
  -1   3   0   34.52    4.14
   1  -3   0   33.59    4.29
   1  -3   0   34.04    5.22
  -1   3   0   33.01    4.35
   1  -3   0   29.65    3.26
   1  -3   1  102.98    9.25
   1  -3   1   94.92    6.88
   1  -3   1  108.89    7.97
  -1   3  -1  101.76    7.07
  -1   3  -2    2.75    1.67
   1  -3   2   -0.36    1.04
  -1   3  -2   -0.53    1.19
   1  -3   2    1.10    0.97
  -1   3  -3   31.47    4.56
  -1   3  -3   31.51    4.20
   1  -3   3   30.17    5.73
   1  -3   3   25.72    4.78
   1  -3   3   26.86    2.85
   1  -3   4    5.42    1.10
  -1   3  -4    6.18    2.67
  -1   3  -4    2.76    0.97
   1  -3   4    3.73    2.24
  -1   3  -5 6074.69  111.39
  -1   3  -5 6220.01  125.76
   1  -3   5 6353.70  115.20
  -1   3  -5 6255.26  133.54
   1  -3   5 6191.22  132.16
  -1   3  -5 6159.64  118.52
   1  -3   6   16.07    3.69
   1  -3   6   20.70    5.16
   1  -3   6   22.98    3.66
  -1   3  -6   14.38    3.22
   1  -3   6   15.95    5.53
  -1   3  -6   26.35    6.18
  -1   3  -6   17.56    3.14
  -1   3  -6   11.63    3.75
  -1   3  -7  293.32   19.65
   1  -3   7  295.35   13.80
  -1   3  -7  293.28   15.49
  -1   3  -7  301.18   15.32
   1  -3   7  292.95   19.86
   1  -3   7  314.49   18.20
  -1   3  -8    1.38    1.06
   1  -3   8    6.35    2.78
   1  -3   8    9.92    4.05
   1  -3   8    4.15    1.69
  -1   3  -8    4.54    1.95
  -1   3  -8    3.98    2.55
   1  -3   9  233.48   17.98
   1  -3   9  251.27   14.54
   1  -3   9  236.03   18.06
  -1   3  -9  228.53   14.54
  -1   3  -9  238.08   19.49
   1  -3  10   10.94    4.06
   1  -3  10    9.43    2.87
  -1   3 -10    6.19    2.42
   1  -3  10   10.52    3.55
  -1   3 -10   10.04    4.20
  -1   3 -11  122.65   15.20
  -1   3 -11  106.56   10.42
   1  -3  11   96.04   13.11
   1  -3  11   94.46    9.89
  -1   3 -12    5.65    3.31
   1  -3  12    2.67    2.58
   1  -3  12    2.97    2.41
  -1   3 -12    7.94    2.89
   1  -2 -14    1.37    2.07
   1  -2 -14   -2.09    3.73
  -1   2  14    5.04    3.97
   1  -2 -13  130.97   22.73
  -1   2  13   83.84   15.48
   1  -2 -13   98.74   15.16
   1  -2 -12   82.18   15.72
   1  -2 -12   40.33    9.44
  -1   2  12   66.11   13.30
   1  -2 -11    7.58    3.93
   1  -2 -11   14.58    7.78
  -1   2  11    8.48    4.66
   1  -2 -10  320.38   14.87
   1  -2 -10  385.95   28.01
  -1   2  10  327.65   27.17
   1  -2 -10  316.44   25.00
   1  -2  -9  275.04   22.24
  -1   2   9  262.87   23.01
   1  -2  -9  270.00   13.10
   1  -2  -9  303.59   22.71
  -1   2   8   92.98   12.56
   1  -2  -8   98.49   11.89
   1  -2  -8  103.44   12.73
   1  -2  -8   87.87    9.01
   1  -2  -8  110.75   13.76
   1  -2  -8  113.53   13.12
   1  -2  -8   94.73    7.47
   1  -2  -7  987.92   26.59
   1  -2  -7 1010.49   42.14
   1  -2  -7  840.13   30.30
   1  -2  -7  969.43   39.23
   1  -2  -7  976.69   39.66
  -1   2   7  916.44   39.98
   1  -2  -7  904.90   36.62
   1  -2  -6   84.35    9.54
   1  -2  -6   75.14    9.82
   1  -2  -6   80.02    9.64
   1  -2  -6   83.41   10.51
  -1   2   6   87.35   10.70
   1  -2  -6   86.03    6.35
   1  -2  -6   77.04    7.60
  -1   2   5  381.48   17.40
   1  -2  -5  380.88   19.43
   1  -2  -5  415.31   14.11
   1  -2  -5  429.61   22.85
  -1   2   5  381.88   22.04
   1  -2  -5  395.58   20.66
   1  -2  -4  867.34   33.27
   1  -2  -4  896.00   30.42
  -1   2   4  859.93   33.69
   1  -2  -3    3.26    0.99
  -1   2   3    3.87    1.35
   1  -2  -3    3.34    0.85
   1  -2  -3    1.15    1.39
   1  -2  -3    2.82    1.63
  -1   2   3    0.85    1.42
   1  -2  -2  111.61    8.60
  -1   2   2  133.08    6.98
   1  -2  -2  116.14    6.13
  -1   2   2  117.39    8.53
   1  -2  -2  109.15    7.32
   1  -2  -2  124.21    6.63
  -1   2   2  111.94    7.54
  -1   2   1  278.46   10.09
   1  -2  -1  256.87   12.94
  -1   2   1  258.05   11.05
  -1   2   1  286.61   12.32
   1  -2  -1  273.63   11.35
   1  -2  -1  285.85   12.44
   1  -2  -1  278.28   10.26
   1  -2  -1  273.78   11.23
  -1   2   0    0.21    0.81
   1  -2   0    2.76    1.35
   1  -2   0   -0.01    0.69
  -1   2   0    1.85    0.92
  -1   2   0    1.30    0.72
  -1   2  -1 2718.19   55.78
  -1   2  -1 2755.75   53.88
   1  -2   1 2699.28   54.50
   1  -2   1 2795.74   56.14
   1  -2   1 2823.28   60.45
   1  -2   2   -0.35    0.65
   1  -2   2    1.03    0.79
   1  -2   2   -0.37    0.70
  -1   2  -2    1.19    1.20
   1  -2   2   -0.48    1.12
  -1   2  -2   -1.11    0.80
   1  -2   3 6185.96  122.21
  -1   2  -3 6237.30  112.21
   1  -2   3 6169.88  106.81
  -1   2  -3 6191.51  116.00
   1  -2   4    6.09    1.59
  -1   2  -4    5.70    2.52
  -1   2  -4    3.97    1.49
   1  -2   4    2.19    1.43
   1  -2   4    4.99    1.93
  -1   2  -4    6.43    2.20
   1  -2   5   61.87    7.83
  -1   2  -5   54.04    5.27
  -1   2  -5   52.90    5.24
  -1   2  -5   48.35    7.35
   1  -2   5   60.04    4.60
  -1   2  -5   60.73    7.16
   1  -2   5   60.97    6.58
  -1   2  -6    0.01    1.49
   1  -2   6    1.03    1.17
  -1   2  -6    1.46    0.95
   1  -2   6    1.02    0.94
  -1   2  -6    2.68    1.92
   1  -2   6    2.60    1.77
  -1   2  -6    1.25    1.16
   1  -2   7  130.14   14.98
  -1   2  -7  108.47    9.65
   1  -2   7  101.18   10.35
  -1   2  -7  108.72   11.75
  -1   2  -7  115.06    8.35
   1  -2   7  104.68    7.77
  -1   2  -7  120.08   11.72
   1  -2   7  114.00   10.86
  -1   2  -8   -1.19    1.15
  -1   2  -8    1.57    1.58
   1  -2   8    0.82    1.40
  -1   2  -8    1.52    1.37
  -1   2  -8   -2.03    2.17
   1  -2   8    2.78    1.47
   1  -2   8    2.21    2.20
   1  -2   9  151.87   12.81
   1  -2   9  154.78   14.97
  -1   2  -9  144.92   13.32
  -1   2  -9  153.72   10.71
  -1   2  -9  142.63   14.88
  -1   2  -9  142.74   14.72
   1  -2   9  141.49   10.50
  -1   2 -10   -0.68    0.83
  -1   2 -10    3.65    2.91
  -1   2 -10    1.84    2.19
   1  -2  10    1.56    1.77
   1  -2  10    1.04    1.51
  -1   2 -11  248.70   15.08
  -1   2 -11  253.91   21.75
   1  -2  11  240.15   15.18
   1  -2  11  213.01   20.45
  -1   2 -12   80.94   12.62
  -1   2 -12   78.38    8.46
   1  -2  12   82.67    9.23
   1  -2  12   76.62   12.73
  -1   2 -13   67.02   11.88
  -1   2 -13   68.27    7.57
   1  -2  13   72.30   12.95
  -1   1  14    0.54    1.18
   1  -1 -14   -1.47    1.09
   1  -1 -13   49.41   11.20
  -1   1  13   44.61   11.05
  -1   1  12   14.74    5.80
   1  -1 -12    9.72    5.06
  -1   1  11  546.03   36.28
   1  -1 -11  544.11   35.45
  -1   1  10    7.75    5.07
   1  -1 -10    3.54    2.01
  -1   1  10    7.86    3.52
   1  -1 -10    2.49    2.45
   1  -1  -9  172.66   11.49
   1  -1  -9  195.87   17.07
  -1   1   9  179.61   17.87
   1  -1  -9  176.15   18.09
   1  -1  -9  166.89   10.20
  -1   1   9  175.52   13.80
   1  -1  -8  116.09    9.11
  -1   1   8  125.34   10.77
   1  -1  -8  120.63    7.42
   1  -1  -8  121.53   10.15
   1  -1  -8  138.62   14.95
   1  -1  -8  139.78   15.27
  -1   1   8  138.46   14.77
   1  -1  -8  135.55   13.58
   1  -1  -7  319.54   15.20
   1  -1  -7  352.62   21.18
   1  -1  -7  310.66   11.31
   1  -1  -7  310.56   16.20
  -1   1   7  344.99   22.15
   1  -1  -7  370.56   23.68
  -1   1   7  354.05   17.75
   1  -1  -7  355.08   22.87
  -1   1   6   26.51    5.56
   1  -1  -6   28.25    4.42
   1  -1  -6   29.98    6.18
   1  -1  -6   26.06    2.46
   1  -1  -6   26.91    5.46
   1  -1  -6   28.44    6.09
  -1   1   6   33.07    4.94
   1  -1  -5   20.06    4.45
   1  -1  -5   33.05    3.95
   1  -1  -5   22.35    4.90
  -1   1   5   23.93    3.76
   1  -1  -5   22.00    4.69
  -1   1   5   23.03    4.88
  -1   1   4    6.82    2.77
  -1   1   4    1.66    3.01
   1  -1  -4   -0.84    0.76
   1  -1  -4    0.74    3.20
   1  -1  -4   -0.88    1.52
   1  -1  -3 1134.06   27.22
   1  -1  -3 1181.88   34.77
  -1   1   3 1189.92   35.17
   1  -1  -3 1191.52   30.92
   1  -1  -3 1114.50   34.27
  -1   1   3 1138.93   28.58
  -1   1   3 1209.16   30.50
   1  -1  -2   32.94    4.39
  -1   1   2   31.54    4.33
  -1   1   2   43.02    4.36
  -1   1   2   33.38    3.32
   1  -1  -2   33.43    3.03
  -1   1   2   30.55    3.21
   1  -1  -2   32.42    3.26
  -1   1   1 4945.91   89.44
   1  -1  -1 5060.17   84.66
  -1   1   1 4730.79   84.33
  -1   1   1 4777.12   83.48
   1  -1  -1 4748.62   82.46
  -1   1   1 4882.31   84.59
  -1   1   1 4743.15   84.51
   1  -1   0    1.19    0.56
  -1   1   0    0.93    0.51
  -1   1   0    1.26    0.69
   1  -1   0    3.11    1.21
  -1   1  -1 4699.12   83.43
   1  -1   1 4585.75   81.63
   1  -1   1 4714.46   86.43
  -1   1  -1 4547.87   81.54
   1  -1   1 4663.24   82.29
  -1   1  -2   -0.07    0.38
   1  -1   2    0.90    0.88
   1  -1   2    1.03    0.89
   1  -1   2    0.00    0.56
  -1   1  -2   -0.02    0.46
   1  -1   3 9397.75  169.44
  -1   1  -3 9298.47  160.08
  -1   1  -3 9999.00  168.36
  -1   1  -3 9539.17  172.75
  -1   1  -3 9922.37  162.83
   1  -1   3 9541.20  170.60
  -1   1  -4   -0.31    0.62
   1  -1   4    0.94    0.64
  -1   1  -4   -1.50    1.27
   1  -1   4   -0.83    1.34
   1  -1   4   -0.21    0.77
  -1   1  -4    0.18    0.56
  -1   1  -5  540.63   22.92
   1  -1   5  572.76   20.98
  -1   1  -5  556.99   16.47
  -1   1  -5  482.25   15.53
  -1   1  -5  548.97   21.72
   1  -1   5  522.72   15.51
   1  -1   5  571.21   21.48
  -1   1  -6    4.25    1.31
  -1   1  -6    2.11    0.78
   1  -1   6    2.61    0.87
  -1   1  -6    8.26    3.09
   1  -1   6    2.05    1.20
   1  -1   6    3.88    2.09
  -1   1  -6    3.05    1.48
  -1   1  -6    4.21    1.88
   1  -1   7  538.46   25.47
  -1   1  -7  668.36   21.81
  -1   1  -7  536.17   24.18
   1  -1   7  578.27   31.31
  -1   1  -7  551.49   19.26
   1  -1   7  566.81   19.52
   1  -1   7  620.42   23.54
  -1   1  -7  578.81   26.67
  -1   1  -7  600.39   26.34
  -1   1  -8   65.75    8.85
  -1   1  -8   81.47    9.95
   1  -1   8   66.00   10.92
   1  -1   8   81.31    7.07
  -1   1  -8   77.23    6.64
  -1   1  -8   68.43    6.16
  -1   1  -8   68.17    8.85
   1  -1   8   79.26    9.88
  -1   1  -9   91.61    6.65
  -1   1  -9   90.63    7.33
   1  -1   9   82.13    7.91
  -1   1  -9   90.20   10.93
  -1   1  -9   81.71   10.30
  -1   1  -9   78.85   10.33
   1  -1   9   93.20   11.77
  -1   1 -10   30.55    6.76
  -1   1 -10   34.00    7.07
  -1   1 -10   32.81    4.65
  -1   1 -10   34.37    3.02
   1  -1  10   36.26    5.49
  -1   1 -10   37.83    7.63
   1  -1  10   36.28    7.84
  -1   1 -11  257.95   21.23
  -1   1 -11  276.62   14.59
   1  -1  11  275.29   15.82
  -1   1 -11  277.13   21.27
  -1   1 -11  225.48   12.53
   1  -1  11  277.67   23.69
   1  -1  12   35.81    6.07
  -1   1 -12   29.80    7.29
   1  -1  12   34.21    8.74
  -1   1 -12   32.16    4.89
  -1   1 -12   30.40    4.68
   1  -1  13   22.49    7.63
  -1   1 -13   27.11    7.19
  -1   1 -13   29.25    4.98
   1  -1  14   40.32   10.63
  -1   1 -14   36.11    8.75
  -1   0  14   21.27    7.95
  -1   0  13  255.65   26.02
   1   0 -13  238.45   25.17
  -1   0  13  233.07   18.69
   1   0 -12   -2.68    3.47
  -1   0  12    3.89    2.74
  -1   0  12    0.20    2.44
   1   0 -11   87.31    7.21
   1   0 -11   92.53   14.66
  -1   0  11   77.93   10.19
   1   0 -11  107.54    8.29
  -1   0  11   80.86   13.35
   1   0 -10   -1.62    2.42
   1   0 -10    2.81    1.37
   1   0 -10    5.73    2.63
   1   0 -10    3.61    1.41
  -1   0  10    2.84    1.97
  -1   0  10    2.74    2.27
   1   0  -9   77.64   11.30
   1   0  -9   54.73    5.86
   1   0  -9   63.14    8.89
   1   0  -9   68.16   11.39
  -1   0   9   70.92    8.53
  -1   0   9   68.33   10.72
   1   0  -9   70.32    9.43
   1   0  -8   31.39    5.55
   1   0  -8   24.19    6.26
  -1   0   8   28.64    5.33
   1   0  -8   27.05    6.36
   1   0  -8   31.17    4.94
   1   0  -8   32.91    6.12
  -1   0   8   15.52    5.00
   1   0  -7  423.84   20.84
  -1   0   7  455.22   20.65
  -1   0   7  418.94   23.64
   1   0  -7  383.69   17.57
   1   0  -7  459.70   25.36
   1   0  -7  414.40   26.05
   1   0  -7  438.56   22.35
   1   0  -6   20.98    4.38
   1   0  -6   18.74    4.66
   1   0  -6   16.15    3.51
   1   0  -6   13.30    4.37
  -1   0   6   20.49    4.01
  -1   0   6   23.32    2.90
  -1   0   6   22.84    5.02
  -1   0   5 2745.47   59.61
   1   0  -5 2625.65   58.93
   1   0  -5 2719.66   66.80
  -1   0   5 2654.65   51.85
   1   0  -5 2480.12   55.47
  -1   0   5 2624.68   64.75
  -1   0   5 2605.44   64.47
   1   0  -5 2692.65   69.90
   1   0  -5 2615.44   62.80
  -1   0   4  327.88   16.89
  -1   0   4  348.07   14.51
   1   0  -4  345.46   14.55
   1   0  -4  312.73   18.15
   1   0  -4  303.41   12.59
  -1   0   4  337.36   16.61
   1   0  -4  321.60   15.94
   1   0  -4  336.78   17.31
  -1   0   4  327.26   10.88
   1   0  -3 1679.17   39.76
   1   0  -3 1758.25   38.54
  -1   0   3 1841.65   35.47
  -1   0   3 1882.88   45.79
   1   0  -3 1810.78   47.45
  -1   0   3 1921.91   44.78
  -1   0   3 1825.24   40.68
   1   0  -3 1825.64   44.14
   1   0  -2    4.61    1.63
   1   0  -2    2.36    0.63
   1   0  -2    3.18    0.96
  -1   0   2    4.41    1.28
  -1   0   2    3.70    1.60
   1   0  -1 5180.47   88.51
   1   0  -1 5009.92   89.35
  -1   0   1 5102.40   89.05
  -1   0   1 5204.83   89.03
   1   0   2    0.35    0.38
  -1   0  -2    0.08    0.21
   1   0   2    0.03    0.52
  -1   0  -3  490.71   14.90
   1   0   3  459.24   15.84
  -1   0  -3  497.07   10.89
   1   0   3  463.20   16.21
  -1   0  -3  431.61   16.56
  -1   0  -3  425.45   14.62
  -1   0  -3  422.09   10.34
   1   0   3  447.36   10.59
   1   0   4    7.37    2.46
   1   0   4    9.50    2.19
  -1   0  -4    5.25    2.64
   1   0   4    3.50    1.49
  -1   0  -4   51.57    6.50
  -1   0  -4    2.20    1.24
   1   0   5 1741.73   47.99
   1   0   5 1776.97   36.29
  -1   0  -5 1617.78   41.94
  -1   0  -5 1749.73   43.19
   1   0   5 1740.46   45.24
  -1   0  -5 1705.23   43.01
  -1   0  -5 1657.74   35.12
  -1   0  -6    2.26    0.90
   1   0   6    3.69    2.17
  -1   0  -6    3.95    1.63
  -1   0  -6    3.96    2.14
   1   0   6    5.55    1.57
  -1   0  -6    3.45    1.75
  -1   0  -7  112.04   10.33
   1   0   7  109.43   12.29
  -1   0  -7   99.92    6.93
   1   0   7  103.70   10.86
   1   0   7   97.27    7.14
  -1   0  -7  107.37    9.96
  -1   0  -7  102.07    9.00
  -1   0  -8   18.23    3.28
   1   0   8   14.76    3.26
  -1   0  -8   14.07    2.83
  -1   0  -8   19.24    4.53
  -1   0  -8   16.97    4.64
  -1   0  -8   12.77    3.44
  -1   0  -8   16.70    4.43
   1   0   8   15.68    4.54
   1   0   8   16.11    5.10
  -1   0  -9  267.64   19.95
   1   0   9  277.36   14.61
   1   0   9  262.04   22.72
  -1   0  -9  274.95   17.14
  -1   0  -9  291.08   19.47
  -1   0  -9  257.77   12.10
  -1   0  -9  280.50   18.51
   1   0   9  256.37   20.34
  -1   0 -10   83.06    8.78
  -1   0 -10   84.25   10.45
   1   0  10   78.30   11.96
  -1   0 -10   80.54    9.99
  -1   0 -10   74.88    8.88
  -1   0 -10   85.81   11.84
  -1   0 -10   83.16    7.15
  -1   0 -10   75.38   10.36
  -1   0 -11   45.13    5.01
   1   0  11   48.12   10.03
  -1   0 -11   49.37    5.89
  -1   0 -11   50.28    8.95
  -1   0 -11   45.59    8.02
  -1   0 -11   71.81    9.16
  -1   0 -11   47.23    6.79
  -1   0 -12    0.17    0.69
  -1   0 -12    0.15    0.77
   1   0  12   -0.13    1.68
  -1   0 -12   -2.71    2.83
  -1   0 -13   15.52    4.46
  -1   0 -13   24.55    6.56
   1   0  13   15.40    6.31
  -1   0 -14   35.71    8.90
   1   0  14   28.24    9.01
   1   0  15   33.13   10.23
  -1  -1  14   16.39    5.59
  -1  -1  13    5.74    4.02
  -1  -1  13    2.72    2.11
   1   1 -13    5.69    3.89
   1   1 -12    1.19    1.57
  -1  -1  12   -1.95    3.08
  -1  -1  12    1.15    0.99
   1   1 -11  262.29   25.35
  -1  -1  11  243.29   22.37
  -1  -1  11  259.48   18.88
   1   1 -10   10.79    4.96
  -1  -1  10   20.67    5.05
   1   1 -10   15.08    2.48
  -1  -1   9  279.06   17.96
   1   1  -9  263.67   11.18
  -1  -1   9  297.18   14.84
   1   1  -9  281.58   24.18
   1   1  -9  285.43   18.39
  -1  -1   9  267.13   20.78
   1   1  -8    4.39    2.13
  -1  -1   8    3.29    1.58
   1   1  -8    4.22    1.23
   1   1  -8    0.02    2.34
  -1  -1   8    1.27    0.73
   1   1  -8    5.72    2.07
  -1  -1   8    7.08    2.46
  -1  -1   7  303.88   19.16
  -1  -1   7  306.64   15.31
   1   1  -7  318.18   11.45
   1   1  -7  307.40   16.01
  -1  -1   7  319.94   17.38
   1   1  -7  307.90   17.02
   1   1  -7  317.12   23.00
  -1  -1   6  288.45   17.11
   1   1  -6  273.81   15.17
   1   1  -6  294.57   10.60
   1   1  -6  266.59   19.97
  -1  -1   6  309.51   14.86
  -1  -1   6  292.05   15.57
  -1  -1   5 1391.92   36.92
  -1  -1   5 1457.25   38.23
   1   1  -5 1459.44   30.71
   1   1  -5 1337.45   37.51
  -1  -1   5 1390.52   39.91
  -1  -1   5 1443.04   41.95
   1   1  -5 1464.94   48.25
  -1  -1   4   33.95    4.13
   1   1  -4   38.95    5.03
   1   1  -4   35.90    3.21
  -1  -1   4   37.77    5.12
   1   1  -4   40.97    4.85
  -1  -1   4   30.92    4.80
   1   1  -4   31.78    5.85
  -1  -1   4   36.37    5.47
   1   1  -3   36.64    3.32
  -1  -1   3   30.07    4.36
  -1  -1   3   38.87    4.20
   1   1  -3   32.95    5.31
   1   1  -3   33.63    3.85
  -1  -1   3   29.89    3.78
   1   1  -3   31.94    3.72
  -1  -1   2   -0.34    0.71
  -1  -1   2    0.30    0.46
   1   1  -2   -1.06    1.75
   1   1  -2    0.41    0.49
  -1  -1   1 2750.40   54.53
  -1  -1   1 2763.34   53.29
   1   1  -1 2730.68   59.34
   1   1  -1 2847.73   50.56
   1   1   0   38.59    4.41
  -1  -1   0   37.02    4.59
  -1  -1   0   37.09    2.47
   1   1   0   38.16    2.66
   1   1   1 7262.83  126.41
   1   1   2    2.65    1.19
  -1  -1  -2    5.01    2.64
  -1  -1  -2    5.80    1.88
   1   1   2    6.02    1.80
  -1  -1  -3 4162.10   65.80
   1   1   3 3811.20   55.86
   1   1   4   23.24    3.94
   1   1   4   22.84    3.45
  -1  -1  -4   23.64    2.44
  -1  -1  -4   25.01    3.36
  -1  -1  -4   28.38    4.36
  -1  -1  -4   19.00    2.68
  -1  -1  -5  521.28   21.27
  -1  -1  -5  530.13   11.77
  -1  -1  -5  461.27   14.91
   1   1   5  500.13   21.17
  -1  -1  -5  507.41   17.63
  -1  -1  -5  519.62   18.24
   1   1   5  520.44   22.31
   1   1   6   72.28    8.63
  -1  -1  -6   69.85    4.01
  -1  -1  -6   94.36    7.21
  -1  -1  -6   66.70    6.07
  -1  -1  -6   75.73    7.29
   1   1   6   66.43    8.14
  -1  -1  -6   69.85    5.60
  -1  -1  -6   73.09    7.76
  -1  -1  -7 1796.56   36.62
  -1  -1  -7 1829.19   50.06
  -1  -1  -7 1734.46   42.06
  -1  -1  -7 1851.04   48.36
  -1  -1  -7 1729.09   45.37
  -1  -1  -7 1873.96   43.59
   1   1   7 1830.46   55.22
   1   1   8   -0.65    1.32
  -1  -1  -8    0.14    0.72
  -1  -1  -8    1.06    0.69
  -1  -1  -8    0.66    1.30
   1   1   8   -0.54    2.14
  -1  -1  -8    2.20    1.57
  -1  -1  -8    0.59    1.29
   1   1   9    3.60    2.37
  -1  -1  -9    2.31    2.06
   1   1   9    2.91    2.68
  -1  -1  -9    2.53    1.91
  -1  -1  -9    4.76    2.79
  -1  -1  -9    3.44    1.57
  -1  -1  -9    5.90    2.84
  -1  -1  -9    3.11    1.20
  -1  -1 -10   29.80    6.06
   1   1  10   37.43    8.74
  -1  -1 -10   28.93    6.17
  -1  -1 -10   32.14    3.50
   1   1  10   32.46    8.01
  -1  -1 -10   26.95    5.57
  -1  -1 -10   36.77    5.60
  -1  -1 -10   50.75    8.11
  -1  -1 -11  113.33    6.60
  -1  -1 -11  138.45   13.40
  -1  -1 -11  117.14   12.51
  -1  -1 -11  105.39   11.15
   1   1  11  139.82   17.59
  -1  -1 -11  134.30   13.98
  -1  -1 -12   -2.74    2.58
   1   1  12    0.76    1.62
  -1  -1 -12   -4.43    4.09
  -1  -1 -13  145.62   15.81
   1   1  13  143.74   20.05
  -1  -1 -14   23.22    6.83
   1   1  14   21.49    8.12
   1   1  15   33.23   10.58
  -1  -1 -15   27.14    7.31
  -1  -2  13   65.00   10.14
   1   2 -12   16.02    6.59
  -1  -2  12   12.77    5.17
  -1  -2  12   11.08    4.05
  -1  -2  11  102.75   13.68
   1   2 -11   99.26   15.49
  -1  -2  11   82.55   10.86
   1   2 -10   15.46    5.83
  -1  -2  10   19.36    4.91
  -1  -2  10   10.48    4.23
  -1  -2  10   14.96    3.87
   1   2  -9   26.84    7.59
  -1  -2   9   21.21    4.56
  -1  -2   9   20.48    5.52
  -1  -2   9   22.33    4.99
   1   2  -8  167.03   17.85
  -1  -2   8  216.10   15.13
  -1  -2   8  198.47   15.78
  -1  -2   8  208.89   14.89
   1   2  -7  247.97   20.68
  -1  -2   7  269.42   16.86
  -1  -2   7  241.22   16.21
  -1  -2   7  258.44   15.83
   1   2  -7  282.78   11.24
   1   2  -6   -0.13    0.58
   1   2  -6    1.04    0.55
  -1  -2   6    0.76    1.26
  -1  -2   6    1.24    1.62
  -1  -2   6    1.14    1.27
   1   2  -6   -0.87    2.45
   1   2  -5  185.41    9.71
  -1  -2   5  174.73   12.23
   1   2  -5  188.95   10.25
   1   2  -5  198.41   16.46
  -1  -2   5  193.81   11.54
  -1  -2   5  180.74   12.61
  -1  -2   5  195.92   11.68
   1   2  -4   14.42    4.08
  -1  -2   4   20.88    3.83
   1   2  -4   18.22    2.99
  -1  -2   4   22.96    3.59
   1   2  -4   17.65    2.70
  -1  -2   4   23.66    4.13
  -1  -2   4   18.26    2.98
  -1  -2   3 1563.16   33.67
  -1  -2   3 1549.09   30.25
   1   2  -3 1484.34   44.93
   1   2  -3 1554.03   36.37
   1   2  -3 1393.77   34.69
  -1  -2   3 1449.45   36.27
   1   2  -3 1494.93   31.82
  -1  -2   3 1494.54   37.73
   1   2  -2   14.99    1.53
   1   2  -2   15.67    2.52
  -1  -2   2   14.88    2.69
   1   2  -2   17.52    2.66
   1   2  -2   12.00    2.93
  -1  -2   2   13.52    2.57
   1   2  -1  104.08    7.98
   1   2  -1  101.38    6.16
   1   2  -1  100.66    7.10
  -1  -2   1  102.93    6.10
  -1  -2   1  100.51    8.38
  -1  -2   0   21.27    3.71
   1   2   0   23.15    3.51
   1   2   0   18.19    2.52
  -1  -2   0   18.96    2.44
   1   2   0   22.97    1.87
   1   2   1 4277.70   82.58
  -1  -2  -1 4355.30   83.03
  -1  -2  -1 4312.93   87.09
   1   2   1 4489.87   79.55
   1   2   2   42.97    4.48
  -1  -2  -2   43.23    5.15
   1   2   2   43.89    4.83
  -1  -2  -2   43.13    4.24
   1   2   3 1034.01   20.31
  -1  -2  -3  988.46   28.25
   1   2   3 1022.90   30.03
   1   2   3  986.51   22.05
  -1  -2  -4  337.84   19.51
  -1  -2  -4  320.79   10.42
   1   2   4  341.30   16.08
   1   2   4  342.82   17.03
   1   2   4  306.36   12.30
  -1  -2  -5  986.62   25.60
   1   2   5  971.62   29.49
   1   2   5 1038.10   26.72
  -1  -2  -5 1003.70   38.81
   1   2   5 1011.13   34.88
  -1  -2  -6   83.82    6.42
   1   2   6   81.25    8.45
  -1  -2  -6   90.64    7.15
   1   2   6   97.94   10.52
  -1  -2  -6   80.13    9.88
  -1  -2  -7  175.71   11.26
   1   2   7  168.58   15.25
  -1  -2  -7  148.00    9.50
  -1  -2  -7  179.41    5.27
   1   2   7  177.52   14.12
  -1  -2  -8    0.53    0.44
  -1  -2  -8    2.44    2.38
   1   2   8    0.03    1.63
  -1  -2  -8    1.87    1.85
  -1  -2  -8    1.76    1.09
  -1  -2  -8    0.07    0.85
  -1  -2  -8   -1.72    3.22
  -1  -2  -9  461.37   11.66
  -1  -2  -9  499.11   23.40
  -1  -2  -9  451.34   20.09
   1   2   9  475.61   28.61
   1   2   9  453.06   29.50
  -1  -2  -9  436.67   20.67
  -1  -2  -9  478.81   26.40
   1   2  10   11.39    5.14
  -1  -2 -10    5.15    1.38
  -1  -2 -10    8.88    2.98
  -1  -2 -10    4.84    3.16
   1   2  10    9.27    4.47
  -1  -2 -10    7.40    2.90
  -1  -2 -10    4.39    3.55
   1   2  11  357.47   29.17
  -1  -2 -11  381.46   20.37
  -1  -2 -11  290.61   24.35
  -1  -2 -11  309.84    9.65
  -1  -2 -11  344.05   20.62
  -1  -2 -11  342.52   21.61
  -1  -2 -11  321.29   22.87
   1   2  12   35.87    9.34
  -1  -2 -12   37.17    7.48
  -1  -2 -13  161.23   16.10
  -1  -2 -13  213.76   28.50
   1   2  13  172.93   22.34
  -1  -2 -14   13.31    8.43
   1   2  14    6.84    4.89
  -1  -2 -14    2.45    2.33
  -1  -2 -15   11.63    4.80
  -1  -3  13   -1.00    1.13
   1   3 -12    0.95    1.74
  -1  -3  12   -2.43    2.14
   1   3 -11   57.07   11.96
  -1  -3  11   63.02    9.10
  -1  -3  11   55.69    9.73
  -1  -3  11   58.89    9.27
   1   3 -10   -0.17    2.69
  -1  -3  10    2.90    2.21
  -1  -3  10    2.93    1.56
  -1  -3  10    4.51    2.65
  -1  -3   9  319.85   20.10
  -1  -3   9  336.12   21.41
  -1  -3   9  311.47   20.95
   1   3  -9  303.56   25.83
   1   3  -8   21.03    5.99
  -1  -3   8   26.44    5.41
  -1  -3   8   35.25    6.27
  -1  -3   8   39.09    7.24
  -1  -3   7    6.18    2.41
  -1  -3   7    4.00    2.47
   1   3  -7    1.69    1.80
  -1  -3   7    4.45    1.91
   1   3  -7   10.67    3.87
   1   3  -6    4.79    3.09
  -1  -3   6    3.97    2.26
  -1  -3   6    3.30    1.60
  -1  -3   6    4.21    1.97
   1   3  -6    2.98    1.61
   1   3  -5  283.45   20.44
  -1  -3   5  288.38   15.03
  -1  -3   5  275.19   15.06
   1   3  -5  275.56   15.86
  -1  -3   5  285.63   22.00
  -1  -3   5  270.84   12.79
  -1  -3   5  284.59   17.93
   1   3  -4   86.83    8.02
  -1  -3   4   96.87    9.82
  -1  -3   4   86.06    4.26
  -1  -3   4   80.49    7.60
  -1  -3   4   90.72    5.90
  -1  -3   4   89.88    7.75
   1   3  -4   81.35   10.09
   1   3  -3  610.31   21.69
  -1  -3   3  569.54   20.81
  -1  -3   3  566.89   27.42
  -1  -3   3  646.61   24.87
   1   3  -3  624.02   27.58
   1   3  -2  238.36   15.17
  -1  -3   2  257.10   12.63
  -1  -3   2  230.46   14.89
   1   3  -2  263.87   12.91
  -1  -3   2  226.93   15.32
   1   3  -1 2146.19   48.87
  -1  -3   1 2218.22   48.49
   1   3  -1 2274.27   53.25
   1   3   0  141.26    5.95
  -1  -3   0  145.31    8.83
  -1  -3   0  151.18   10.30
   1   3   0  141.80    8.90
   1   3   0  141.23    8.90
   1   3   1  802.05   25.33
   1   3   1  821.80   21.11
  -1  -3  -1  819.07   25.07
   1   3   1  788.38   21.57
  -1  -3  -1  802.54   20.69
  -1  -3  -1  878.35   28.76
  -1  -3  -2   -0.28    0.73
  -1  -3  -2    0.15    0.51
   1   3   2   -0.60    1.45
   1   3   2   -0.56    0.92
   1   3   2    0.20    0.42
  -1  -3  -3   65.52    6.31
   1   3   3   66.55    4.52
  -1  -3  -3   76.68    8.30
   1   3   3   58.19    6.58
   1   3   4 1077.27   24.91
  -1  -3  -4 1242.13   41.34
   1   3   4 1128.85   24.76
   1   3   4 1179.77   37.08
   1   3   5   91.37    9.99
  -1  -3  -5   93.76    5.04
   1   3   5   92.93    6.87
   1   3   5   75.06    8.23
  -1  -3  -5   79.67   10.53
   1   3   5   82.07    4.30
   1   3   6   97.42    8.55
   1   3   6  105.99    4.88
  -1  -3  -6   99.30   12.47
  -1  -3  -6  100.82    6.60
  -1  -3  -6   99.53    4.19
   1   3   6  103.62   11.62
   1   3   6   93.13    7.83
   1   3   7 1447.47   51.52
  -1  -3  -7 1419.37   26.74
  -1  -3  -7 1312.58   52.86
   1   3   7 1386.30   42.64
  -1  -3  -7 1404.33   35.98
   1   3   7 1363.59   34.91
  -1  -3  -8   64.63    6.66
  -1  -3  -8   68.84    3.24
   1   3   8   56.20    9.74
  -1  -3  -8   73.83    9.87
   1   3   8   53.29    7.99
  -1  -3  -8   61.11    6.91
  -1  -3  -8   72.51   11.81
  -1  -3  -9  468.12   21.06
  -1  -3  -9  405.54   29.93
  -1  -3  -9  422.06   18.64
  -1  -3  -9  460.94   10.84
   1   3   9  497.01   31.97
  -1  -3  -9  439.11   20.60
  -1  -3 -10   -0.39    1.57
  -1  -3 -10    4.53    3.74
  -1  -3 -10    3.59    2.77
  -1  -3 -10    1.66    0.50
   1   3  10    5.90    3.66
  -1  -3 -10    4.08    2.56
  -1  -3 -10    0.37    1.21
  -1  -3 -11  141.75   19.16
  -1  -3 -11  133.92   16.09
  -1  -3 -11  128.15   12.03
  -1  -3 -11  121.92   11.84
   1   3  11  158.58   19.73
  -1  -3 -12    2.13    1.38
   1   3  12    0.47    1.65
  -1  -3 -13   41.20    7.59
  -1  -3 -13   43.18   12.11
   1   3  13   47.01   12.03
  -1  -3 -14    3.40    3.28
   1   3  14   -2.12    1.71
  -1  -3 -14    5.10    3.00
  -1  -4  12    4.61    3.50
  -1  -4  11  103.74   12.83
   1   4 -11  111.71   16.83
  -1  -4  11  123.83   14.27
  -1  -4  10   13.52    4.03
   1   4 -10   21.09    7.39
  -1  -4  10   17.99    5.59
  -1  -4   9   35.36    7.91
   1   4  -9   47.54   10.09
  -1  -4   9   47.31    7.27
  -1  -4   9   40.21    7.28
  -1  -4   8    0.25    1.09
   1   4  -8    0.96    2.26
  -1  -4   8   -0.95    2.29
  -1  -4   8   -0.11    0.61
  -1  -4   7  161.08   12.77
  -1  -4   7  140.52   14.78
   1   4  -7  135.73   16.11
  -1  -4   7  139.38   10.40
  -1  -4   6  136.15   14.12
  -1  -4   6  119.48   10.63
   1   4  -6  136.64   12.49
   1   4  -6  110.20   13.47
  -1  -4   6  117.63    8.18
  -1  -4   5  373.10   13.09
  -1  -4   5  353.72   16.74
   1   4  -5  347.79   23.48
  -1  -4   5  360.37   22.65
   1   4  -5  368.07   19.92
  -1  -4   5  321.24   24.74
  -1  -4   5  371.78   19.29
  -1  -4   4   73.03   10.71
  -1  -4   4   69.78    6.62
  -1  -4   4   68.85    9.41
  -1  -4   4   80.55    6.19
   1   4  -4   72.92    9.75
  -1  -4   4   86.47    9.64
   1   4  -4   79.93    8.64
  -1  -4   3  627.14   30.93
   1   4  -3  596.55   27.85
   1   4  -3  540.18   22.81
  -1  -4   3  527.92   27.91
   1   4  -2    1.95    1.43
  -1  -4   2    0.87    1.43
  -1  -4   2    2.25    1.87
  -1  -4   2    0.63    1.31
   1   4  -2    1.01    0.80
  -1  -4   1  363.65   19.04
   1   4  -1  405.22   19.14
  -1  -4   1  375.84   18.48
   1   4  -1  366.82   17.42
  -1  -4   1  369.16   16.77
   1   4   0  344.43   15.51
  -1  -4   0  340.72   17.99
   1   4   0  335.56   16.71
  -1  -4   0  349.80   16.31
   1   4   0  361.64   11.98
  -1  -4   0  344.94   10.61
   1   4   1  151.30    8.85
  -1  -4  -1  151.57    8.21
  -1  -4  -1  163.86   11.22
  -1  -4  -2    2.81    1.80
  -1  -4  -2    5.51    1.88
   1   4   2    4.30    1.75
   1   4   2    8.04    1.33
  -1  -4  -3 1235.54   39.65
   1   4   3 1233.85   29.49
  -1  -4  -4   66.59    8.65
   1   4   4   51.88    7.20
   1   4   4   69.28    5.53
  -1  -4  -4   57.53    6.98
  -1  -4  -5  670.42   32.07
   1   4   5  668.30   19.29
   1   4   5  690.70   30.79
   1   4   6    3.75    1.03
  -1  -4  -6    2.89    1.85
   1   4   6    4.10    2.24
   1   4   6    1.94    1.63
   1   4   7  354.37   11.49
  -1  -4  -7  339.47   12.74
   1   4   7  337.95   17.36
  -1  -4  -7  351.19   22.14
  -1  -4  -7  327.89   25.00
   1   4   7  355.65   24.73
   1   4   8   41.58    8.63
   1   4   8   41.94    5.15
  -1  -4  -8   48.68    6.95
  -1  -4  -8   39.03    4.58
  -1  -4  -8   34.34    8.37
  -1  -4  -8   50.74    8.54
  -1  -4  -9   42.06    9.42
  -1  -4  -9   34.82    4.89
  -1  -4  -9   38.62    6.22
   1   4   9   51.70   10.32
   1   4  10   13.31    5.98
  -1  -4 -10   10.22    2.85
  -1  -4 -10    8.94    2.75
  -1  -4 -10    7.46    4.93
   1   4  11    9.85    5.71
  -1  -4 -11    8.00    5.38
  -1  -4 -11    8.62    3.14
  -1  -4 -12   -4.94    3.88
  -1  -4 -12   -0.24    1.25
   1   4  12    0.19    2.10
  -1  -4 -13  173.84   14.88
  -1  -4 -13  180.25   24.65
   1   4  13  220.97   26.51
   1   4  14    2.20    2.45
  -1  -4 -14    2.43    2.18
  -1  -5  12    9.28    4.08
   1   5 -12    8.18    3.51
  -1  -5  11   11.10    4.15
  -1  -5  11   29.00    7.56
  -1  -5  10    0.11    1.70
   1   5 -10    0.28    3.17
  -1  -5  10   -2.01    1.98
  -1  -5   9  297.71   20.63
   1   5  -9  291.68   25.99
  -1  -5   9  314.60   25.42
  -1  -5   8   78.90   12.36
   1   5  -8   72.72   12.44
  -1  -5   8   79.57    9.82
  -1  -5   7  301.04   23.78
   1   5  -7  249.57   22.31
  -1  -5   7  298.08   18.87
   1   5  -6    7.35    3.45
  -1  -5   6    3.53    1.71
  -1  -5   6    5.71    2.19
   1   5  -5   22.40    5.61
  -1  -5   5   20.68    2.19
  -1  -5   5   19.17    4.77
  -1  -5   5   13.55    4.74
  -1  -5   5   19.00    3.46
   1   5  -5   19.45    4.56
  -1  -5   4  121.63   14.74
  -1  -5   4  181.33   17.50
   1   5  -4  153.98   14.92
  -1  -5   4  150.32   15.43
  -1  -5   4  160.23    9.71
   1   5  -4  165.74   13.80
  -1  -5   4  183.56   19.47
  -1  -5   3    8.02    2.97
   1   5  -3   13.51    4.38
   1   5  -3    9.76    3.27
  -1  -5   3    6.09    2.43
   1   5  -2    8.56    3.13
  -1  -5   2    3.48    2.11
  -1  -5   2    6.71    2.98
  -1  -5   2    4.28    2.17
   1   5  -2    3.57    1.82
   1   5  -1  643.56   27.20
  -1  -5   1  658.90   27.78
  -1  -5   1  650.63   25.75
   1   5  -1  705.19   27.15
  -1  -5   1  644.25   28.37
  -1  -5   0  320.82   19.60
   1   5   0  351.95   17.11
   1   5   0  369.20   16.59
  -1  -5   0  353.49   18.30
   1   5   0  361.06   19.27
  -1  -5   0  343.60   11.70
   1   5   1 2310.20   53.83
  -1  -5  -1 2150.67   49.08
   1   5   1 2171.81   51.47
  -1  -5  -1 2264.46   58.24
   1   5   2  111.26    8.48
   1   5   2  127.60    5.62
  -1  -5  -2  126.18   11.34
   1   5   2  105.77    9.08
  -1  -5  -2  101.66    8.18
   1   5   3 1105.70   30.76
  -1  -5  -3 1157.63   39.97
   1   5   3 1004.42   34.84
  -1  -5  -3  994.17   32.76
   1   5   4   11.83    2.80
  -1  -5  -4   20.39    4.98
   1   5   4   14.23    3.95
   1   5   5  108.70   11.98
  -1  -5  -5  101.70   12.18
  -1  -5  -5  105.46   10.82
   1   5   5  112.66    8.27
   1   5   6  382.74   15.29
   1   5   6  378.04   24.70
   1   5   6  416.01   25.09
  -1  -5  -6  383.40   25.82
  -1  -5  -6  392.75   22.84
  -1  -5  -7   63.83   10.82
   1   5   7   81.75    5.82
  -1  -5  -7   88.30   11.11
   1   5   7   83.39   12.36
  -1  -5  -8   17.70    6.46
   1   5   8   16.24    2.58
   1   5   8   18.41    6.21
  -1  -5  -9  105.85    7.38
  -1  -5  -9   81.41   13.75
   1   5   9  104.10   15.45
  -1  -5 -10    9.41    2.54
  -1  -5 -10   12.69    5.28
   1   5  10    9.02    4.89
   1   5  11  182.79   22.77
  -1  -5 -11  168.68   21.35
  -1  -5 -11  188.44   12.45
  -1  -5 -12   -2.97    3.33
   1   5  12    2.54    3.14
  -1  -5 -12    0.85    1.21
   1   5  13  109.54   19.48
  -1  -5 -13  104.67   18.48
  -1  -5 -14   -1.99    2.85
  -1  -6  11   54.26    9.95
   1   6 -11   52.88    9.40
  -1  -6  11   58.05   11.76
  -1  -6  10   11.76    5.53
  -1  -6  10    6.43    3.02
   1   6 -10   15.15    4.59
  -1  -6   9   52.48    8.79
   1   6  -9   68.61   10.32
  -1  -6   9   84.12   13.83
   1   6  -9   59.11   11.58
  -1  -6   8    9.36    4.11
  -1  -6   8    6.13    4.06
   1   6  -8    7.93    4.40
   1   6  -7  124.08   16.06
  -1  -6   7  122.58   16.33
  -1  -6   7  116.46   12.81
   1   6  -6    2.13    1.64
  -1  -6   6    1.50    1.80
  -1  -6   6    0.27    1.42
  -1  -6   5  109.63   14.51
  -1  -6   5   84.65    6.83
   1   6  -5  108.92   13.69
  -1  -6   5  108.98   14.46
  -1  -6   4   28.85    7.74
   1   6  -4   39.27    7.80
  -1  -6   4   33.36    4.09
  -1  -6   4   29.44    7.83
   1   6  -3  357.70   21.94
  -1  -6   3  390.19   27.60
  -1  -6   3  344.68   24.85
  -1  -6   3  382.12   26.74
   1   6  -3  391.71   23.28
   1   6  -2  265.66   17.01
  -1  -6   2  246.02   18.09
  -1  -6   2  282.97   18.07
  -1  -6   2  238.27   19.13
   1   6  -2  263.34   18.25
   1   6  -2  252.03   17.40
   1   6  -1  102.72    9.98
   1   6  -1  107.80   10.28
  -1  -6   1  103.32   10.36
  -1  -6   1   93.22   10.69
   1   6  -1   82.62    9.99
   1   6   0   28.01    4.92
   1   6   0   25.09    4.18
   1   6   0   23.83    5.35
  -1  -6   0   33.48    5.81
  -1  -6   0   28.74    3.30
   1   6   1  919.99   25.04
  -1  -6  -1  909.48   34.60
   1   6   1  837.19   29.74
   1   6   1  866.86   35.39
  -1  -6  -1  801.87   25.55
   1   6   2   23.65    4.33
  -1  -6  -2   25.65    4.30
   1   6   2   24.72    5.50
  -1  -6  -2   22.96    5.34
   1   6   2   23.07    4.68
  -1  -6  -3  204.50   16.54
   1   6   3  228.38   17.52
   1   6   3  181.60   14.23
  -1  -6  -3  209.24   13.97
   1   6   3  236.53   13.70
   1   6   4  111.94    9.51
  -1  -6  -4  121.30   13.25
   1   6   4  113.20   12.62
   1   6   4  108.77   11.87
   1   6   5  107.77    9.22
   1   6   5   96.55   12.28
  -1  -6  -5  105.66   13.10
   1   6   5   90.41   11.49
  -1  -6  -5   98.28   10.89
  -1  -6  -6   25.66    6.59
  -1  -6  -6   17.36    4.78
   1   6   6   20.64    3.89
   1   6   6   16.38    5.32
  -1  -6  -7  595.66   35.30
   1   6   7  590.89   21.43
   1   6   7  586.36   35.10
   1   6   7  516.26   31.07
  -1  -6  -8   21.05    6.67
   1   6   8   20.33    3.26
   1   6   8   16.80    4.95
   1   6   8   21.60    6.89
   1   6   9  485.52   23.58
   1   6   9  540.05   17.46
   1   6   9  561.14   38.02
  -1  -6  -9  552.25   36.78
   1   6  10    4.34    2.00
  -1  -6 -10    5.28    3.49
   1   6  10    6.23    4.37
   1   6  11   58.95   13.15
  -1  -6 -11   51.01   11.39
  -1  -6 -12    1.27    2.36
   1   6  12    3.69    3.89
  -1  -6 -13   17.69    7.65
   1   6  13   21.58    8.59
  -1  -7  10   -0.58    1.12
  -1  -7  10   -3.28    3.11
   1   7  -9   41.45    8.45
  -1  -7   9   59.19   12.73
   1   7  -9   48.71   10.65
  -1  -7   9   50.18    8.96
   1   7  -8   12.33    4.55
  -1  -7   8    9.52    5.09
  -1  -7   8   10.03    3.90
   1   7  -8   20.69    6.53
  -1  -7   7   72.39   11.24
   1   7  -7  100.57   12.64
  -1  -7   7   98.24   15.80
   1   7  -7  104.38   14.51
  -1  -7   6  106.61   14.53
   1   7  -6  158.30   15.47
   1   7  -6  171.91   18.15
  -1  -7   6  156.74   19.42
  -1  -7   5  580.32   43.97
   1   7  -5  520.83   28.43
  -1  -7   5  546.19   36.26
   1   7  -5  464.48   29.61
  -1  -7   4   21.05    6.90
   1   7  -4   25.42    5.97
   1   7  -4   25.46    6.56
  -1  -7   3   11.14    4.76
   1   7  -3    8.63    2.69
   1   7  -3    8.60    3.60
  -1  -7   3    9.65    4.10
  -1  -7   3    3.20    2.63
  -1  -7   2    4.11    1.90
  -1  -7   2    3.44    0.95
   1   7  -2    5.00    2.13
   1   7  -2    1.82    1.48
   1   7  -1  131.61   12.31
  -1  -7   1  131.41   12.81
  -1  -7   1  102.42   12.53
   1   7  -1  122.17   10.84
  -1  -7   0   86.00   11.77
   1   7   0   86.78    7.91
   1   7   0   84.02    9.29
  -1  -7   0   85.91    6.31
  -1  -7   0   81.12   10.07
   1   7   1   66.88    8.16
  -1  -7  -1   63.60    9.02
   1   7   1   73.70    6.48
   1   7   1   65.32    9.72
  -1  -7  -1   62.77    6.39
   1   7   2   42.41    6.31
   1   7   2   53.62    8.93
  -1  -7  -2   48.29    8.13
  -1  -7  -2   43.37    5.93
   1   7   3  186.68   13.47
   1   7   3  176.82   14.69
  -1  -7  -3  197.40   17.26
  -1  -7  -4   12.30    3.82
   1   7   4   13.31    3.57
   1   7   4    4.71    2.45
  -1  -7  -4   10.09    3.75
  -1  -7  -5  572.28   32.66
   1   7   5  539.97   24.85
  -1  -7  -5  533.52   27.59
   1   7   5  520.93   29.95
  -1  -7  -6  195.90   16.96
   1   7   6  174.00   13.74
  -1  -7  -6  206.07   20.17
   1   7   6  190.97   18.95
   1   7   7  356.15   18.75
  -1  -7  -7  349.65   27.76
   1   7   7  312.78   26.28
   1   7   8   64.22   10.74
  -1  -7  -8   83.79   13.86
   1   7   8   72.34    7.27
   1   7   8   62.78   12.07
   1   7   9   83.72   11.11
  -1  -7  -9  108.40   16.51
   1   7   9   99.48    7.57
   1   7   9  118.54   17.53
  -1  -7 -10   10.21    5.87
   1   7  10   10.23    2.29
   1   7  10   15.31    6.51
  -1  -7 -11   52.38   12.12
   1   7  11   51.88   12.89
  -1  -7 -12    1.83    4.43
   1   7  12    5.82    5.40
  -1  -8   9   29.89    7.50
  -1  -8   8   10.85    4.48
  -1  -8   8    7.65    4.95
   1   8  -8    4.63    2.77
  -1  -8   7   95.24   16.53
   1   8  -7   85.23   12.42
  -1  -8   7   70.25   11.97
   1   8  -7   92.95   13.80
  -1  -8   6   30.49    8.80
  -1  -8   6   25.82    8.61
   1   8  -6   36.32    7.94
   1   8  -6   16.69    5.76
  -1  -8   5   60.95   12.89
  -1  -8   5   70.39   18.73
   1   8  -5   49.72    9.02
   1   8  -5   43.28    8.66
  -1  -8   4   10.46    5.09
   1   8  -4    9.87    3.99
   1   8  -4   10.42    3.45
   1   8  -3  324.41   21.54
   1   8  -3  312.78   21.91
  -1  -8   3  322.90   28.63
  -1  -8   2   22.96    6.77
   1   8  -2   34.80    6.84
  -1  -8   2   38.94    9.41
   1   8  -2   31.89    6.05
  -1  -8   2   27.42    6.25
   1   8  -1   47.79    7.83
   1   8  -1   40.09    6.22
  -1  -8   1   40.25    8.55
  -1  -8   1   38.21    7.35
  -1  -8   0   31.74    7.60
   1   8   0   25.92    4.58
   1   8   0   28.05    5.86
  -1  -8   0   28.25    6.32
  -1  -8   0   27.58    3.61
  -1  -8  -1  127.72   16.47
   1   8   1  124.96   12.05
  -1  -8  -1  126.28   13.79
  -1  -8  -1  121.73    9.39
  -1  -8  -2   15.25    4.57
   1   8   2    9.16    2.90
  -1  -8  -3  718.25   36.32
   1   8   3  722.25   30.68
  -1  -8  -3  643.28   28.37
   1   8   4  555.73   30.25
  -1  -8  -4  536.48   27.02
   1   8   4  487.39   25.16
  -1  -8  -5    1.46    1.14
   1   8   5    1.69    2.13
  -1  -8  -5    1.42    1.99
   1   8   5    0.49    1.15
   1   8   6    1.97    1.38
   1   8   6    4.26    2.50
   1   8   7   24.45    5.33
  -1  -8  -7   28.38    7.90
   1   8   7   17.06    6.17
  -1  -8  -8    3.81    4.11
   1   8   8    5.30    1.92
   1   8   8    7.03    4.20
   1   8   9  167.02   11.57
  -1  -8  -9  171.56   21.47
   1   8   9  154.26   20.54
  -1  -8 -10    1.60    3.63
   1   8  10    3.84    4.62
  -1  -8 -11   47.66   11.82
   1   8  11   41.71   11.70
  -1  -8 -12   -1.94    4.31
   1   8  12    1.50    2.45
  -1  -9   7   10.98    4.82
   1   9  -7   17.43    5.93
  -1  -9   6    6.62    4.74
   1   9  -6   11.57    5.01
  -1  -9   6   10.05    6.32
   1   9  -6    8.05    3.52
   1   9  -5   92.01   12.80
   1   9  -5   94.00   13.16
  -1  -9   5  106.84   18.39
  -1  -9   4    8.65    7.31
   1   9  -4    3.40    2.51
   1   9  -4   -0.95    2.20
   1   9  -3  221.83   19.39
   1   9  -3  204.20   17.02
  -1  -9   3  215.57   24.98
   1   9  -2    3.89    2.64
   1   9  -2    6.91    3.29
  -1  -9   2    5.51    3.50
  -1  -9   2    0.71    2.25
  -1  -9   1   79.77   14.35
   1   9  -1   64.36    8.06
   1   9  -1   55.03    8.86
  -1  -9   1   71.40   12.03
  -1  -9   1   62.25   10.26
  -1  -9   0   96.19   12.76
   1   9   0   84.08   10.89
   1   9   1  427.68   25.13
  -1  -9  -1  505.68   30.47
  -1  -9  -1  472.85   19.92
  -1  -9  -2   88.68   12.66
   1   9   2   74.60    9.98
  -1  -9  -3   53.45   10.30
  -1  -9  -3   58.05    8.27
   1   9   3   51.12    8.23
  -1  -9  -4   71.08    9.78
   1   9   4   61.52    9.01
  -1  -9  -4   70.18   11.89
  -1  -9  -5   84.25   13.45
   1   9   5   64.48   11.08
   1   9   5   56.00    8.72
   1   9   6   45.20    8.18
   1   9   6   57.44   10.97
  -1  -9  -6   59.68   11.62
  -1  -9  -7   98.79   15.66
   1   9   7   90.38   11.60
   1   9   7  110.67   15.94
   1   9   8   19.14    4.92
  -1  -9  -8   13.76    5.96
   1   9   8   20.24    7.49
  -1  -9  -9   59.01   12.79
   1   9   9   58.96    7.70
   1   9   9   49.84   11.74
  -1  -9 -10    3.84    3.06
   1   9  10    5.13    4.09
   1   9  11   83.53   16.88
   1  10  -6    5.08    3.04
   1  10  -5   33.39    7.98
  -1 -10   5   95.11   29.38
   1  10  -4    8.92    4.25
   1  10  -3   45.51    8.02
   1  10  -3   43.95    8.71
  -1 -10   3   40.88   11.57
   1  10  -2    3.51    2.28
  -1 -10   2    3.36    2.06
  -1 -10   2    5.45    3.67
   1  10  -1  221.36   19.62
  -1 -10   1  236.70   21.65
  -1 -10   1  284.33   30.10
   1  10   0    1.54    2.19
  -1 -10   0    4.12    4.64
  -1 -10   0    2.89    2.63
  -1 -10  -1    8.38    3.93
   1  10   1   14.18    5.09
   1  10   2    4.97    2.36
  -1 -10  -2   16.03    5.83
   1  10   3  382.08   24.90
  -1 -10  -3  366.80   28.79
   1  10   4    0.10    1.63
  -1 -10  -4   -2.52    2.83
   1  10   5  120.41   13.94
  -1 -10  -5  142.58   18.54
  -1 -10  -6   39.73   10.29
   1  10   6   31.18    7.02
   1  10   7   62.93   10.33
   1  10   7   81.18   14.23
  -1 -10  -7   74.11   14.00
   1  10   8    3.01    2.34
   1  10   8    0.13    3.39
  -1 -10  -8   -3.00    3.38
   1  10   9  217.48   25.69
  -1 -10  -9  212.95   25.36
   1  10  10    2.23    3.48
   1  11  -1    7.25    4.04
  -1 -11   1    0.44    2.79
   1  11   0    3.27    3.24
  -1 -11   0    1.34    2.56
  -1 -11   0    7.12    4.04
   1  11   1   45.73    9.04
  -1 -11  -1   46.09   12.61
  -1 -11  -1   56.99   11.33
   1  11   2   18.41    5.74
  -1 -11  -2   17.86    8.41
  -1 -11  -2   20.82    6.97
  -1 -11  -3  128.12   17.73
   1  11   3  128.28   14.96
  -1 -11  -4    6.55    5.01
   1  11   4    8.71    3.96
   1  11   5   70.38   11.21
  -1 -11  -5  100.56   16.66
  -1 -11  -6    1.74    1.93
   1  11   6    2.54    2.86
   1  11   7   57.32   10.48
   1  12   4    2.68    1.98
   1  12   5   13.54    5.33
   1  12   6    7.04    4.06
  -2  11   7   -1.16    1.79
  -2  11   6   48.34   10.09
   2 -11  -5   -2.29    2.65
  -2  11   5    2.22    2.43
  -2  11   4  105.00   13.83
   2 -11  -4  102.89   17.90
   2 -11  -3    2.96    3.31
  -2  11   3    3.71    2.92
  -2  11   2   50.65    9.33
   2 -11  -2   61.93   14.14
   2 -11  -1   52.61   13.54
   2 -11   0   15.31    7.14
  -2  10   9    0.79    1.94
   2 -10  -8   98.89   15.41
  -2  10   8  114.42   15.83
  -2  10   7    6.39    3.67
   2 -10  -7    1.72    1.61
   2 -10  -6  125.88   17.14
   2 -10  -6  122.32   16.62
  -2  10   6  113.87   14.60
   2 -10  -5    5.43    2.82
  -2  10   5   12.56    4.61
   2 -10  -5    7.42    3.57
   2 -10  -4  161.09   18.48
   2 -10  -4  134.75   18.47
  -2  10   4  140.32   15.13
   2 -10  -3    2.80    4.19
  -2  10   3   -0.32    1.23
   2 -10  -3   -1.46    1.85
  -2  10   2   10.03    4.50
   2 -10  -2    7.55    3.63
   2 -10  -2    8.08    5.11
  -2  10   1   31.95    7.29
   2 -10  -1   22.96    8.03
   2 -10  -1   22.81    7.75
  -2  10   0   74.99   11.03
   2 -10   0   80.20   13.02
   2 -10   0   92.42   16.37
  -2  10  -1   17.21    5.42
   2 -10   1   19.03    7.77
   2 -10   1   18.13    6.17
  -2  10  -2  105.43   13.37
   2 -10   2  103.10   17.74
   2 -10   3    0.36    2.82
  -2  10  -3    1.35    2.89
   2  -9 -10  101.43   16.04
  -2   9   9   22.58    6.44
   2  -9  -9   12.85    5.55
  -2   9   8   41.15    8.86
   2  -9  -8   30.03    8.19
  -2   9   7    4.50    3.37
   2  -9  -7    1.00    2.21
   2  -9  -6  112.14   14.70
  -2   9   6  120.86   13.97
   2  -9  -6  121.09   15.62
   2  -9  -5    4.08    2.22
  -2   9   5    3.51    2.56
   2  -9  -5    4.54    2.35
  -2   9   4   75.53   10.25
   2  -9  -4   75.67   12.59
   2  -9  -4   84.65   12.71
  -2   9   3    0.66    0.99
   2  -9  -3    1.42    1.40
   2  -9  -3   -0.03    2.25
  -2   9   2  233.57   18.23
   2  -9  -2  263.07   22.25
   2  -9  -2  252.53   24.23
   2  -9  -1    7.98    4.30
   2  -9  -1   10.52    3.91
  -2   9   0  288.64   20.36
   2  -9   0  278.94   26.53
   2  -9   0  315.74   24.44
  -2   9  -1   51.76    8.54
   2  -9   1   67.01   11.21
   2  -9   1   57.28   12.10
   2  -9   2  292.29   28.13
  -2   9  -2  251.41   19.97
   2  -9   3    5.63    4.95
  -2   9  -3    6.35    3.49
  -2   9  -4   14.22    5.37
   2  -9   4   14.42    5.75
   2  -9   5    5.41    1.54
  -2   9  -5    4.07    2.56
  -2   9  -6   46.38    8.98
   2  -8 -11    1.06    2.77
  -2   8  10   25.94    6.51
   2  -8 -10   28.86    7.99
  -2   8   9    4.38    3.07
   2  -8  -9    0.54    1.33
   2  -8  -8  109.26   15.06
  -2   8   8  115.43   13.98
  -2   8   7   22.60    5.94
   2  -8  -7   19.40    5.26
   2  -8  -7   21.46    6.32
   2  -8  -6   15.57    5.14
  -2   8   6   20.35    5.24
   2  -8  -6   15.52    5.07
  -2   8   5   19.44    4.96
   2  -8  -5   17.74    5.19
   2  -8  -5   17.75    5.82
   2  -8  -4  312.79   15.14
  -2   8   4  334.93   20.76
   2  -8  -4  358.08   25.09
   2  -8  -4  374.96   25.70
  -2   8   3    7.12    2.82
   2  -8  -3    4.40    2.62
   2  -8  -3    3.12    1.17
  -2   8   2  266.50   18.14
   2  -8  -2  244.73   15.45
   2  -8  -2  279.64   21.48
   2  -8  -2  262.33   22.46
   2  -8  -1   22.96    6.51
   2  -8  -1   17.62    4.48
   2  -8  -1   23.32    7.51
   2  -8  -1   29.53    8.59
   2  -8   0  195.06   17.78
  -2   8   0  180.93   15.13
   2  -8   0  172.88   18.88
   2  -8   0  178.65   17.49
   2  -8   0  164.31   14.82
   2  -8   1   12.91    4.56
   2  -8   1    6.37    3.30
   2  -8   1    7.74    4.41
  -2   8  -1    5.09    2.47
   2  -8   1    5.53    2.83
   2  -8   2  114.42   13.67
   2  -8   2   96.60   11.75
  -2   8  -2  107.13   11.92
   2  -8   2  119.50   16.38
  -2   8  -3    0.68    1.53
   2  -8   3    1.64    1.42
  -2   8  -4  281.18   20.39
   2  -8   4  294.29   27.18
   2  -8   4  301.98   16.94
  -2   8  -5   19.60    5.40
   2  -8   5   24.47    8.39
  -2   8  -6  128.90   14.13
   2  -8   6   94.77   15.88
   2  -8   7    3.54    2.01
   2  -8   7    2.60    2.07
  -2   8  -7    5.01    2.72
  -2   8  -8   84.15   11.91
   2  -7 -12    5.21    2.84
   2  -7 -11   38.76    9.74
   2  -7 -10   60.18   11.59
  -2   7  10   69.58   10.58
   2  -7  -9    4.92    3.32
  -2   7   9    5.04    3.40
   2  -7  -8   63.07   10.77
  -2   7   8   78.15   11.06
   2  -7  -8   57.06    8.50
   2  -7  -7   11.52    3.66
  -2   7   7   10.59    3.85
   2  -7  -7   10.42    4.29
   2  -7  -6  180.71   17.10
  -2   7   6  173.79   14.78
   2  -7  -6  185.62   15.12
   2  -7  -5  103.27   12.47
  -2   7   5  101.99   10.77
   2  -7  -5  109.31   11.90
   2  -7  -4  275.95   21.38
   2  -7  -4  274.62   20.35
  -2   7   4  262.90   17.03
   2  -7  -4  254.22   19.03
  -2   7   3   15.17    3.48
   2  -7  -3   12.53    4.50
   2  -7  -3   14.83    4.51
   2  -7  -3   14.42    4.29
   2  -7  -3   14.03    3.07
   2  -7  -3   15.74    5.79
   2  -7  -2   23.93    4.13
  -2   7   2   20.03    4.30
   2  -7  -2   15.48    4.82
   2  -7  -2   20.94    5.31
   2  -7  -2   23.78    6.48
   2  -7  -1   24.22    4.44
  -2   7   1   38.46    6.16
   2  -7  -1   36.83    7.51
   2  -7  -1   35.96    7.74
   2  -7  -1   45.56    7.76
  -2   7   0    6.99    2.96
   2  -7   0    9.74    4.37
   2  -7   0    4.73    1.86
   2  -7   0    5.72    2.98
   2  -7   0    7.96    3.40
   2  -7   1    6.91    3.19
  -2   7  -1   13.40    4.59
   2  -7   1   10.40    4.14
   2  -7   1    5.57    3.83
   2  -7   1    7.12    2.77
  -2   7  -2  595.60   27.50
   2  -7   2  587.19   30.69
   2  -7   2  643.32   36.74
   2  -7   2  670.76   32.01
   2  -7   2  596.83   28.22
   2  -7   3   11.52    5.76
  -2   7  -3    7.74    2.99
  -2   7  -4   75.74    9.76
   2  -7   4   78.76    7.86
   2  -7   4   84.93   13.47
   2  -7   5    4.23    1.77
  -2   7  -5    1.61    1.71
   2  -7   5    2.25    2.70
  -2   7  -6  197.56   16.55
   2  -7   6  195.81   21.63
  -2   7  -7   -0.13    1.09
   2  -7   7    2.16    1.56
   2  -7   7    2.51    1.76
   2  -7   7    1.39    1.46
  -2   7  -8  189.88   16.96
   2  -7   8  213.30   14.49
   2  -7   8  235.82   24.25
  -2   7  -9    3.98    2.72
   2  -7   9    4.02    2.88
  -2   7 -10   16.51    5.08
   2  -6 -13    3.70    2.84
   2  -6 -12   40.39   10.04
   2  -6 -11   -1.80    2.02
  -2   6  10   75.89   10.49
   2  -6 -10   62.58   10.15
   2  -6 -10   97.42   14.22
   2  -6  -9    8.95    3.85
  -2   6   9    2.67    2.72
   2  -6  -9    7.41    3.60
  -2   6   8  274.78   19.26
   2  -6  -8  210.60   17.62
   2  -6  -8  251.94   20.92
   2  -6  -8  201.07    8.73
   2  -6  -7  122.46   11.09
   2  -6  -7  122.52    9.19
  -2   6   7  124.72   12.29
   2  -6  -7  120.25   13.67
  -2   6   6  194.45   14.74
   2  -6  -6  190.59   13.13
   2  -6  -6  174.62   15.97
   2  -6  -6  189.54   13.80
  -2   6   5   15.80    4.94
   2  -6  -5   20.36    5.89
   2  -6  -5   21.12    4.71
  -2   6   5   19.34    4.47
   2  -6  -5   23.44    4.68
   2  -6  -5   19.37    4.92
  -2   6   4   43.59    7.75
  -2   6   4   50.93    6.69
   2  -6  -4   44.24    7.20
   2  -6  -4   44.84    8.02
   2  -6  -4   40.70    7.07
   2  -6  -4   49.51    6.79
   2  -6  -4   48.87    9.30
   2  -6  -3   15.54    4.39
  -2   6   3   13.45    4.06
   2  -6  -3   20.26    5.09
   2  -6  -3   17.21    3.97
  -2   6   3   15.52    3.28
   2  -6  -3   20.22    5.03
   2  -6  -3   16.43    5.24
  -2   6   2  140.37   10.98
   2  -6  -2  124.90   10.92
   2  -6  -2  139.09   13.40
   2  -6  -2  132.84   12.70
  -2   6   2  139.24   13.68
   2  -6  -2  135.26   14.29
  -2   6   1    5.09    2.66
   2  -6  -1    1.94    1.50
   2  -6  -1    9.90    2.75
  -2   6   1   17.16    4.14
   2  -6  -1   13.11    3.39
   2  -6  -1    4.03    1.66
   2  -6  -1   11.62    4.15
   2  -6   0  374.44   24.21
   2  -6   0  355.78   18.04
  -2   6   0  382.99   19.12
   2  -6   0  349.43   19.39
  -2   6   0  367.77   22.83
   2  -6   0  391.70   21.71
   2  -6   0  332.49   20.73
  -2   6  -1   77.91    8.48
   2  -6   1   73.03    8.58
  -2   6  -1   91.26   11.12
   2  -6   1   68.21   10.40
   2  -6   1   86.71    9.99
   2  -6   1   69.49    8.73
  -2   6  -2  122.89   10.96
   2  -6   2  119.77   12.06
   2  -6   2  115.41   13.97
   2  -6   2  123.28   12.41
   2  -6   3   11.12    4.06
   2  -6   3    3.43    2.63
  -2   6  -3    4.79    2.53
   2  -6   4  231.74   12.64
  -2   6  -4  214.49   15.39
   2  -6   4  212.91   20.24
   2  -6   5    0.33    0.73
   2  -6   5   -0.66    1.39
  -2   6  -5   -1.33    2.49
   2  -6   6   17.12    3.38
  -2   6  -6   18.51    4.43
   2  -6   6   24.82    7.47
  -2   6  -7   -0.24    2.21
   2  -6   7    0.37    1.42
   2  -6   8   13.71    4.68
   2  -6   8    9.15    2.96
  -2   6  -8    8.15    3.07
   2  -6   8    8.01    4.05
   2  -6   9    3.82    3.27
  -2   6  -9   -3.62    2.91
   2  -6   9    2.09    2.14
  -2   6 -10  145.95   14.60
   2  -6  10  161.68   18.86
   2  -6  11    1.97    3.95
  -2   6 -11    2.70    1.77
   2  -5 -13    5.46    4.08
   2  -5 -12  134.84   17.79
   2  -5 -12   95.78   14.06
   2  -5 -11   34.40    8.47
   2  -5 -11   39.76    8.88
   2  -5 -10  102.21   13.76
   2  -5 -10   76.79   12.08
  -2   5   9    6.74    2.56
   2  -5  -9    4.86    3.15
   2  -5  -9    8.94    4.08
   2  -5  -9    7.80    2.60
  -2   5   8  357.21   21.87
   2  -5  -8  366.32   18.68
   2  -5  -8  318.71   23.11
   2  -5  -8  385.30   24.94
   2  -5  -7  332.01   10.68
   2  -5  -7  348.01   17.90
  -2   5   7  349.63   20.62
   2  -5  -7  382.76   23.74
  -2   5   7  381.25   13.93
  -2   5   6   22.82    4.86
   2  -5  -6   13.95    2.66
   2  -5  -6   20.41    5.16
   2  -5  -6   24.15    4.32
  -2   5   6   29.43    6.85
  -2   5   5  209.16   14.10
   2  -5  -5  199.51   13.10
   2  -5  -5  236.74   16.26
   2  -5  -5  216.24   12.77
   2  -5  -5  224.44   18.68
   2  -5  -5  204.40   15.59
  -2   5   5  229.65   18.16
   2  -5  -5  214.50   19.63
   2  -5  -4  686.96   32.06
  -2   5   4  630.19   24.87
   2  -5  -4  612.71   24.36
   2  -5  -4  707.42   27.88
   2  -5  -4  668.00   25.46
   2  -5  -4  635.74   28.03
  -2   5   4  614.62   29.28
   2  -5  -4  647.48   34.24
  -2   5   3  167.21   11.38
  -2   5   3  148.96   13.10
   2  -5  -3  170.69   12.84
   2  -5  -3  170.54   13.38
   2  -5  -3  166.07   14.08
   2  -5  -3  151.81   11.35
   2  -5  -3  163.87   15.86
   2  -5  -2 1210.48   37.71
   2  -5  -2 1289.71   41.67
   2  -5  -2 1358.99   41.90
  -2   5   2 1267.55   42.41
   2  -5  -2 1288.50   46.36
  -2   5   2 1268.86   36.17
  -2   5   1  193.21   12.07
   2  -5  -1  170.36   12.20
   2  -5  -1  201.65   13.92
   2  -5  -1  186.18   14.70
  -2   5   1  184.06   14.26
  -2   5   0  250.32   16.97
  -2   5   0  249.67   14.04
   2  -5   0  240.40   17.59
   2  -5   0  255.27   15.85
   2  -5   0  263.18   13.98
   2  -5   1  178.13   12.33
   2  -5   1  202.95   16.63
  -2   5  -1  199.73   12.69
   2  -5   1  231.29   15.20
  -2   5  -1  219.27   15.89
  -2   5  -2  742.51   27.32
   2  -5   2  738.70   29.60
   2  -5   2  752.40   28.97
   2  -5   2  805.39   30.75
  -2   5  -2  760.97   31.92
   2  -5   2  768.69   35.17
   2  -5   3    0.86    1.02
  -2   5  -3    0.39    1.28
   2  -5   3    0.39    2.63
  -2   5  -3    1.89    2.41
  -2   5  -4  145.16   11.58
  -2   5  -4  147.65   14.10
   2  -5   4  164.45   15.55
   2  -5   4  145.18    9.05
   2  -5   4  124.47   14.31
   2  -5   5   -2.88    3.41
  -2   5  -5   -0.63    1.15
   2  -5   5    0.45    1.01
   2  -5   6  277.25   16.15
  -2   5  -6  244.20   15.86
   2  -5   6  187.94   12.60
   2  -5   6  219.65   20.06
  -2   5  -7    2.96    2.24
   2  -5   7   -0.20    0.70
   2  -5   7    3.26    3.20
   2  -5   8  565.66   33.50
  -2   5  -8  533.46   25.61
   2  -5   8  550.24   21.10
   2  -5   8  619.38   31.66
  -2   5  -9    9.08    3.38
   2  -5   9    5.07    2.74
   2  -5   9    7.25    2.37
   2  -5   9    8.74    3.63
   2  -5  10   41.12    8.11
  -2   5 -10   52.90    7.92
   2  -5  10   63.43   11.02
   2  -5  11   -0.54    1.90
  -2   5 -11   -2.17    2.06
   2  -4 -13   -0.79    2.90
   2  -4 -13   -0.23    2.19
   2  -4 -12   85.19   13.97
  -2   4  12  113.09   18.53
   2  -4 -12  110.03   16.07
   2  -4 -11   -3.56    2.77
   2  -4 -11   -0.75    2.39
  -2   4  11    2.84    2.94
   2  -4 -10   98.51   13.32
  -2   4  10   85.94   15.03
   2  -4 -10  120.09   15.45
   2  -4  -9   93.03   12.14
   2  -4  -9   99.92    9.01
  -2   4   9  101.77   15.51
   2  -4  -9   88.41   12.75
  -2   4   8   96.86   11.64
   2  -4  -8  105.25    9.18
   2  -4  -8   88.79   12.28
   2  -4  -8   77.88   10.41
  -2   4   8   90.01   14.20
   2  -4  -7   42.68    7.97
   2  -4  -7   42.34    7.22
   2  -4  -7   49.60    6.08
  -2   4   7   52.52    7.92
   2  -4  -6  788.19   38.02
  -2   4   6  773.19   30.23
   2  -4  -6  781.06   31.17
  -2   4   6  771.32   20.01
   2  -4  -6  768.15   31.88
   2  -4  -6  843.20   40.38
   2  -4  -6  777.12   26.43
   2  -4  -5   25.42    4.26
  -2   4   5   28.75    5.06
   2  -4  -5   30.29    6.44
   2  -4  -5   29.39    5.19
   2  -4  -5   28.24    6.73
   2  -4  -5   31.60    5.68
   2  -4  -5   21.93    2.94
   2  -4  -4 1067.07   40.50
   2  -4  -4 1007.96   31.44
   2  -4  -4 1035.53   29.12
  -2   4   4 1130.53   33.24
   2  -4  -4 1042.27   35.07
  -2   4   3  312.33   14.98
   2  -4  -3  295.03   14.83
   2  -4  -3  302.98   14.98
   2  -4  -3  302.85   16.52
   2  -4  -3  297.09   18.49
  -2   4   2 1149.26   31.78
   2  -4  -2 1130.57   34.79
   2  -4  -2 1142.44   34.97
  -2   4   2 1063.49   34.99
   2  -4  -2 1097.40   33.05
   2  -4  -1   99.33    9.42
   2  -4  -1  104.91   10.06
  -2   4   1   69.52    7.73
  -2   4   1   87.39    8.64
  -2   4   0  116.94    8.33
  -2   4   0  107.55    8.30
   2  -4   0  104.09   10.22
   2  -4   0  109.80    9.12
   2  -4   1   74.70    7.27
  -2   4  -1   66.09    6.51
   2  -4   1   90.58    8.45
   2  -4   1   92.65   10.37
  -2   4  -1   68.57    5.75
  -2   4  -2  793.39   20.25
   2  -4   2  776.88   28.27
  -2   4  -2  788.07   26.22
  -2   4  -2  798.19   30.02
   2  -4   2  815.80   33.71
   2  -4   3   -1.38    1.32
   2  -4   3   -1.11    1.82
  -2   4  -3    1.40    1.25
   2  -4   3    1.74    1.30
   2  -4   3    1.10    0.70
   2  -4   4 1333.03   47.85
  -2   4  -4 1283.62   37.70
   2  -4   4 1300.02   45.32
  -2   4  -4 1322.38   43.85
  -2   4  -4 1365.89   50.13
   2  -4   4 1354.15   32.78
  -2   4  -5    1.46    1.90
  -2   4  -5    2.84    3.30
   2  -4   5    1.70    1.54
   2  -4   5    3.32    2.25
   2  -4   5    1.44    2.84
  -2   4  -5    3.09    2.74
  -2   4  -6 1732.66   47.05
   2  -4   6 1669.57   41.46
   2  -4   6 1680.81   57.90
  -2   4  -7    0.24    0.95
   2  -4   7    0.23    0.61
   2  -4   7   -0.31    1.43
   2  -4   8   50.78    9.40
   2  -4   8   44.29    5.10
  -2   4  -8   48.13    8.28
  -2   4  -8   42.21    6.30
   2  -4   8   51.54    8.95
   2  -4   9    1.37    1.25
   2  -4   9    0.83    0.76
   2  -4   9    1.75    2.42
  -2   4  -9    0.55    0.90
   2  -4  10  102.58   13.17
   2  -4  10  109.18   13.92
   2  -4  10   88.96    8.30
  -2   4 -10  116.26   11.09
  -2   4 -10  114.62   13.83
   2  -4  11    4.74    3.33
  -2   4 -11    1.22    1.47
   2  -4  11    0.27    1.47
  -2   4 -11    0.72    2.02
  -2   4 -12   39.99    8.88
   2  -3 -14   35.67   10.45
   2  -3 -14   27.10    8.47
   2  -3 -13    0.31    2.82
  -2   3  13    2.08    3.01
   2  -3 -12   52.29   11.28
   2  -3 -12   46.52   10.37
  -2   3  12   35.36   10.04
   2  -3 -11   10.55    4.33
   2  -3 -11   10.92    5.09
  -2   3  11   21.57    7.90
   2  -3 -10   13.05    5.11
   2  -3 -10   11.93    3.48
   2  -3 -10   11.26    5.38
  -2   3  10   16.47    6.44
   2  -3  -9  214.71   13.23
   2  -3  -9  242.68   19.40
   2  -3  -9  202.21   20.07
  -2   3   9  235.90   23.01
   2  -3  -8  781.11   39.50
   2  -3  -8  808.55   27.50
   2  -3  -8  826.06   35.43
  -2   3   8  821.10   42.35
  -2   3   7  137.86   12.77
   2  -3  -7  128.62   14.61
   2  -3  -7  152.52   16.66
  -2   3   7  147.24   16.32
   2  -3  -7  154.10   10.59
   2  -3  -7  149.16   13.30
   2  -3  -6  351.66   23.83
  -2   3   6  345.46   19.96
   2  -3  -6  355.13   19.50
   2  -3  -6  358.22   16.13
   2  -3  -6  357.71   24.82
   2  -3  -6  323.10   18.24
   2  -3  -5   16.63    4.96
  -2   3   5   10.86    2.92
   2  -3  -5   19.77    3.25
   2  -3  -5   12.72    3.30
  -2   3   4   33.49    4.96
  -2   3   4   37.35    5.87
   2  -3  -4   37.53    4.60
   2  -3  -4   32.76    2.75
   2  -3  -4   32.16    4.87
   2  -3  -4   48.00    7.58
  -2   3   3    0.71    0.87
  -2   3   3   -0.68    0.88
  -2   3   3    0.63    1.01
   2  -3  -3   -0.54    1.14
   2  -3  -3    0.60    0.68
   2  -3  -3    0.92    0.66
  -2   3   2  162.04   12.08
   2  -3  -2  160.58   10.05
   2  -3  -2  172.23    9.91
   2  -3  -2  163.13    9.54
  -2   3   2  153.17   10.21
  -2   3   2  172.76    9.83
  -2   3   1   29.11    4.65
   2  -3  -1   38.01    4.68
  -2   3   1   31.63    4.49
  -2   3   1   28.27    4.19
   2  -3  -1   36.02    4.94
   2  -3   0 1398.57   39.28
  -2   3   0 1351.40   36.02
  -2   3   0 1351.91   33.39
   2  -3   0 1378.60   35.34
  -2   3   0 1373.50   39.51
  -2   3   0 1313.38   36.22
  -2   3  -1   17.47    3.37
  -2   3  -1   13.90    2.74
   2  -3   1   13.61    3.65
  -2   3  -1   13.07    3.50
   2  -3   1   17.21    3.53
  -2   3  -1   16.26    2.64
   2  -3   2 1498.43   40.56
  -2   3  -2 1493.62   37.02
   2  -3   2 1564.55   36.96
   2  -3   2 1491.08   45.01
  -2   3  -2 1506.15   40.81
   2  -3   3    0.09    0.79
   2  -3   3   -0.82    1.85
  -2   3  -3    1.52    1.12
   2  -3   4 6657.85  139.79
  -2   3  -4 6697.71  127.14
   2  -3   4 6845.02  123.70
   2  -3   5   -0.23    1.24
  -2   3  -5   -0.63    1.44
   2  -3   5   -2.48    2.21
  -2   3  -5    1.75    2.47
   2  -3   5    0.31    1.41
   2  -3   6    0.62    0.88
   2  -3   6    5.82    2.82
  -2   3  -6    6.57    2.64
   2  -3   6    1.31    1.31
  -2   3  -6    6.27    3.07
  -2   3  -6   -0.70    1.75
   2  -3   7   -0.69    1.97
  -2   3  -7   -0.07    0.86
   2  -3   7   -1.10    0.84
  -2   3  -7   -3.33    2.48
  -2   3  -7    1.96    3.02
  -2   3  -7    0.16    0.70
  -2   3  -8  245.96   17.60
   2  -3   8  245.69   18.66
  -2   3  -8  242.11   13.89
  -2   3  -8  240.26   14.29
   2  -3   8  258.40   20.20
   2  -3   8  238.26   11.63
   2  -3   9    3.98    2.69
  -2   3  -9    1.26    1.26
  -2   3  -9    1.86    1.15
   2  -3   9    0.74    1.64
   2  -3   9    2.45    1.63
  -2   3  -9    2.83    1.93
  -2   3 -10  361.52   24.24
  -2   3 -10  357.67   18.40
   2  -3  10  377.65   16.94
   2  -3  10  364.32   26.37
   2  -3  11    4.95    3.02
  -2   3 -11   -0.20    0.72
  -2   3 -11    6.83    3.81
   2  -3  11    2.95    1.33
   2  -3  12   52.92   10.61
  -2   3 -12   54.97   10.25
  -2   3 -12   49.52    6.84
   2  -3  13   -0.99    1.71
   2  -2 -14    6.48    5.93
   2  -2 -14   -9.14    6.41
   2  -2 -13   10.07    5.63
  -2   2  13    6.11    3.79
   2  -2 -13   -0.68    2.25
   2  -2 -12   94.00   10.76
   2  -2 -12   81.47   14.47
   2  -2 -12  112.87   17.32
  -2   2  12  113.41   17.70
   2  -2 -11   41.73    9.46
   2  -2 -11   32.71    8.73
  -2   2  11   44.53   10.57
   2  -2 -10  170.92   12.39
   2  -2 -10  181.85   20.52
  -2   2  10  200.13   21.25
   2  -2 -10  194.45   18.91
   2  -2  -9   41.07    7.79
   2  -2  -9   34.59    8.36
   2  -2  -9   45.36    5.99
  -2   2   9   55.37   10.62
   2  -2  -8    6.59    3.34
   2  -2  -8    1.87    1.21
   2  -2  -8    2.16    3.50
  -2   2   8    9.31    3.79
  -2   2   8    3.80    3.19
   2  -2  -7    5.53    2.44
  -2   2   7    5.05    2.26
   2  -2  -7    8.78    3.70
   2  -2  -7    3.65    1.74
   2  -2  -7    5.57    2.41
   2  -2  -7    3.23    2.46
  -2   2   7    0.68    1.32
   2  -2  -7    6.67    3.59
   2  -2  -6   91.80    8.02
   2  -2  -6   80.87   11.13
  -2   2   6   89.15    8.59
   2  -2  -6   68.50    7.73
   2  -2  -6   86.39    8.91
  -2   2   6   88.30   11.45
   2  -2  -6   89.30   11.57
   2  -2  -6   97.52   11.91
  -2   2   5   -0.70    1.68
   2  -2  -5   -0.20    0.78
   2  -2  -5    0.94    1.09
  -2   2   5    0.06    0.93
   2  -2  -5    0.21    1.09
   2  -2  -4  150.89    9.35
   2  -2  -4  153.10    9.91
  -2   2   4  151.94   10.12
  -2   2   4  154.58   11.29
  -2   2   3  183.43   10.98
   2  -2  -3  189.79   10.10
  -2   2   3  200.17   12.52
   2  -2  -3  177.46   10.02
  -2   2   2 2212.00   48.25
  -2   2   2 2048.63   47.23
  -2   2   2 2082.64   54.30
  -2   2   2 2055.35   44.96
   2  -2  -2 2182.66   46.58
   2  -2  -2 2288.13   42.61
  -2   2   1  422.35   18.16
   2  -2  -1  416.16   14.29
   2  -2  -1  428.35   14.78
   2  -2  -1  421.55   14.44
  -2   2   1  420.75   16.01
  -2   2   1  391.60   14.52
  -2   2   0  949.43   24.07
   2  -2   0  934.32   24.10
  -2   2   0  941.88   28.23
   2  -2   0  910.76   22.58
  -2   2   0  865.77   24.33
   2  -2   0  896.91   25.83
   2  -2   1   17.13    3.10
   2  -2   1   17.86    2.85
   2  -2   1   22.93    3.40
  -2   2  -1   15.34    2.42
  -2   2  -1   18.89    3.68
  -2   2  -1   18.41    2.96
   2  -2   2   25.55    4.35
   2  -2   2   20.53    2.99
  -2   2  -2   18.45    3.23
   2  -2   2   18.90    2.86
  -2   2  -2   16.29    2.61
   2  -2   3    4.44    1.54
  -2   2  -3    3.76    1.41
   2  -2   3    4.85    1.79
   2  -2   3    3.38    2.07
   2  -2   4  306.98   16.71
  -2   2  -4  264.74   12.02
   2  -2   4  283.96   13.29
   2  -2   4  272.43   15.10
  -2   2  -5    1.51    1.46
   2  -2   5    0.37    0.50
   2  -2   5   -1.28    1.81
  -2   2  -5    0.83    0.79
   2  -2   5   -1.75    1.55
  -2   2  -6 2411.86   59.16
  -2   2  -6 2492.94   52.62
   2  -2   6 2245.04   45.84
   2  -2   6 2365.77   59.34
  -2   2  -6 2342.18   67.84
   2  -2   6 2418.28   61.19
   2  -2   7   -0.95    1.44
   2  -2   7   -1.58    0.91
  -2   2  -7    1.27    1.44
  -2   2  -7    0.57    1.77
  -2   2  -7   -1.92    1.79
   2  -2   7    0.53    1.24
   2  -2   7    0.29    0.65
   2  -2   8  427.57   15.77
  -2   2  -8  452.38   23.60
  -2   2  -8  429.69   17.50
   2  -2   8  482.02   27.28
   2  -2   8  503.93   24.00
  -2   2  -8  453.70   27.65
   2  -2   9    1.92    1.94
  -2   2  -9    1.44    0.95
  -2   2  -9    8.15    2.75
   2  -2   9    0.52    1.00
  -2   2  -9    9.16    4.10
  -2   2 -10  188.83   16.40
  -2   2 -10  193.31   11.95
   2  -2  10  184.92   11.06
  -2   2 -10  189.84   15.94
   2  -2  10  189.78   18.93
   2  -2  11   37.90    8.92
  -2   2 -11   30.78    4.95
   2  -2  11   31.63    4.79
  -2   2 -11   27.62    6.75
  -2   2 -12  260.27   21.47
   2  -2  12  231.57   23.36
   2  -2  13    0.22    1.05
  -2   2 -13   -0.08    1.54
  -2   2 -13    2.59    3.22
   2  -2  14   24.20    8.68
   2  -1 -13    4.73    2.79
   2  -1 -13    3.56    3.50
  -2   1  13    6.89    4.75
   2  -1 -12  151.18   20.27
  -2   1  12  157.85   20.36
   2  -1 -11   36.71   10.14
   2  -1 -11   27.53    8.29
  -2   1  11   42.34    8.01
   2  -1 -11   37.55    5.87
  -2   1  11   30.67    8.75
   2  -1 -10    7.32    2.58
   2  -1 -10   11.39    5.55
   2  -1 -10    6.52    4.18
   2  -1 -10    5.29    3.71
  -2   1  10    8.48    3.78
  -2   1  10    3.73    2.54
   2  -1  -9   15.62    5.29
   2  -1  -9   13.25    3.64
   2  -1  -9    9.07    2.82
   2  -1  -9    5.21    2.82
  -2   1   9    6.48    2.92
  -2   1   9    9.82    4.47
   2  -1  -8  234.52   14.85
  -2   1   8  228.51   20.08
   2  -1  -8  237.64   19.62
   2  -1  -8  246.62   22.25
   2  -1  -8  254.48   18.53
  -2   1   8  247.41   16.93
  -2   1   7   62.38    7.76
   2  -1  -7   51.89    9.56
   2  -1  -7   48.19    6.41
   2  -1  -7   64.24    8.32
  -2   1   7   56.01    9.04
   2  -1  -7   47.46    6.18
   2  -1  -7   65.76    9.79
  -2   1   6  970.85   39.13
   2  -1  -6  909.11   30.68
  -2   1   6  976.38   33.09
   2  -1  -6  944.89   30.03
   2  -1  -6  939.69   41.67
   2  -1  -6  994.00   33.06
  -2   1   6  910.03   38.23
   2  -1  -6 1013.23   39.90
   2  -1  -5   22.91    4.02
   2  -1  -5   23.88    4.00
  -2   1   5   25.48    4.30
   2  -1  -5   32.49    6.23
   2  -1  -4  173.97   10.34
   2  -1  -4  179.35   14.02
  -2   1   4  140.22   11.35
   2  -1  -4  167.91    9.89
  -2   1   4  169.47   10.90
   2  -1  -3 1124.45   30.12
   2  -1  -3 1148.33   27.92
  -2   1   3 1211.29   35.33
  -2   1   3 1144.34   31.10
  -2   1   3 1103.71   22.13
   2  -1  -3 1129.89   37.14
  -2   1   2  409.11   16.49
   2  -1  -2  393.60   14.75
  -2   1   2  400.57   15.06
   2  -1  -2  427.17   15.39
  -2   1   2  452.55   15.60
   2  -1  -2  420.42   16.48
  -2   1   2  398.51   11.29
   2  -1  -2  406.75   12.53
  -2   1   2  361.56   13.08
   2  -1  -1   35.62    4.12
  -2   1   1   40.34    3.19
  -2   1   1   38.80    4.03
   2  -1  -1   42.83    4.13
  -2   1   1   36.72    3.33
   2  -1  -1   43.18    3.06
  -2   1   0   17.87    3.03
  -2   1   0   25.23    3.93
   2  -1   0   12.22    1.85
   2  -1   0   28.03    3.48
  -2   1   0   12.93    1.82
  -2   1   0   28.48    3.87
   2  -1   0   15.64    3.07
   2  -1   1    5.84    1.27
   2  -1   1    7.09    1.66
  -2   1  -1   11.91    2.60
  -2   1  -1    8.05    2.50
  -2   1  -1    6.90    2.06
  -2   1  -1    9.09    1.94
  -2   1  -2    1.38    0.57
   2  -1   2    0.97    0.41
   2  -1   2    0.44    0.64
  -2   1  -3    4.81    1.49
  -2   1  -3    5.39    1.39
   2  -1   3    6.47    1.69
   2  -1   3    6.87    2.83
   2  -1   4  419.38   23.71
   2  -1   4  413.36   14.53
  -2   1  -4  382.89   14.28
  -2   1  -4  413.62   13.19
  -2   1  -5    1.91    1.47
  -2   1  -5   -0.17    0.98
   2  -1   5   -0.87    1.74
   2  -1   5    0.86    0.72
  -2   1  -5   -0.81    1.05
   2  -1   6 1097.36   25.06
   2  -1   6 1157.87   35.94
  -2   1  -6 1079.30   29.88
  -2   1  -6 1087.62   39.58
   2  -1   7    7.82    3.21
   2  -1   7    4.96    2.60
  -2   1  -7    6.49    1.63
  -2   1  -7    5.30    2.15
  -2   1  -7    8.51    2.35
   2  -1   7    6.15    1.50
  -2   1  -7    5.98    2.56
  -2   1  -8   64.25    8.05
  -2   1  -8   55.64    5.05
  -2   1  -8   54.25    5.49
   2  -1   8   50.12    4.60
  -2   1  -8   52.67    8.68
   2  -1   8   52.66    9.67
   2  -1   8   48.27    8.29
   2  -1   9   12.32    4.52
  -2   1  -9   13.51    2.82
   2  -1   9   12.87    2.66
  -2   1  -9   16.39    4.53
  -2   1  -9   12.14    4.19
  -2   1  -9   13.33    2.70
  -2   1 -10  416.57   24.13
  -2   1 -10  434.42   15.07
  -2   1 -10  412.45   16.21
  -2   1 -10  399.52   24.80
   2  -1  10  425.91   28.96
   2  -1  11    7.25    3.94
  -2   1 -11    6.57    3.03
  -2   1 -11    6.92    2.00
  -2   1 -11    9.73    3.98
  -2   1 -11   10.15    2.80
   2  -1  12   45.95   10.51
  -2   1 -12   54.13    9.41
  -2   1 -12   41.11    5.82
   2  -1  13   30.92    9.10
  -2   1 -13   29.38    5.30
  -2   1 -13   34.15    7.78
   2  -1  14   28.97    9.18
  -2   1 -14   46.58    9.48
   2  -1  15    2.72    2.63
   2   0 -13   18.52    7.67
  -2   0  13   11.31    4.76
   2   0 -12   51.42   12.01
  -2   0  12   56.31    9.62
  -2   0  12   53.79   11.32
   2   0 -11   15.78    6.75
  -2   0  11   14.54    4.37
  -2   0  11   18.46    6.34
  -2   0  10  491.31   27.17
  -2   0  10  468.78   31.22
   2   0 -10  482.72   20.32
   2   0 -10  454.04   34.34
   2   0  -9   71.89   10.02
   2   0  -9   60.81   11.79
   2   0  -9   93.01   11.99
  -2   0   9   76.32    9.78
   2   0  -9   81.48    4.55
   2   0  -9   71.67    7.18
  -2   0   9   61.18   10.53
   2   0  -8  144.77   17.34
  -2   0   8  146.75   13.19
   2   0  -8  146.69   13.18
  -2   0   8  131.76   14.44
   2   0  -8  144.72   14.23
   2   0  -8  153.94   10.50
   2   0  -7   -0.91    1.13
   2   0  -7   -1.00    0.83
   2   0  -7   -1.19    0.88
   2   0  -7    0.33    0.69
  -2   0   7    0.93    1.43
  -2   0   7   -2.73    2.80
  -2   0   7   -0.09    0.87
   2   0  -7    3.22    2.92
  -2   0   7   -0.34    0.41
  -2   0   6  249.05    9.56
  -2   0   6  234.82   17.14
   2   0  -6  254.62   15.43
  -2   0   6  267.19   16.28
   2   0  -6  229.25   13.31
   2   0  -6  239.83   20.17
   2   0  -6  254.69   12.97
  -2   0   6  253.39   18.52
   2   0  -6  246.70   17.40
   2   0  -5  206.79   12.84
  -2   0   5  205.17    8.61
   2   0  -5  208.24   11.18
   2   0  -5  194.66   17.22
  -2   0   5  201.98   13.18
   2   0  -5  201.96   14.85
   2   0  -4 1238.06   34.87
  -2   0   4 1262.92   36.21
   2   0  -4 1270.76   32.69
   2   0  -4 1272.45   40.08
   2   0  -3    9.58    2.41
   2   0  -3    8.54    2.14
  -2   0   3    8.83    2.53
   2   0  -3    6.28    2.45
   2   0  -2    8.04    1.99
   2   0  -2    9.64    2.32
   2   0  -2   11.50    2.77
  -2   0   2   12.95    2.84
   2   0  -2   11.27    1.61
  -2   0   1   16.62    2.53
  -2   0   1   17.24    3.27
  -2   0   1   10.24    1.98
   2   0  -1   23.70    2.91
   2   0  -1   16.62    2.36
   2   0  -1   21.47    3.30
  -2   0   0 2669.47   53.77
   2   0   0 2555.15   51.62
   2   0   0 2708.48   55.34
  -2   0   0 2607.62   50.00
   2   0   0 2586.49   48.63
   2   0   0 2509.51   49.90
   2   0   1   25.17    2.75
  -2   0  -1   23.22    2.86
   2   0   1   24.99    5.10
  -2   0  -1   24.71    2.21
   2   0   1   22.20    2.00
  -2   0  -1   24.91    3.13
   2   0   1   24.91    2.71
  -2   0  -2    2.25    0.35
   2   0   2    4.06    1.70
  -2   0  -2    6.95    0.93
   2   0   2    4.38    2.36
  -2   0  -2    5.19    1.55
  -2   0  -2    1.62    0.58
  -2   0  -3    2.93    0.81
   2   0   3    2.52    0.88
  -2   0  -3    1.37    0.92
   2   0   3    4.39    2.88
  -2   0  -3    2.70    1.57
  -2   0  -4 1028.58   21.46
   2   0   4 1043.46   31.07
   2   0   4  986.89   35.05
   2   0   4 1015.19   23.02
  -2   0  -4 1028.78   26.46
  -2   0  -5   46.24    4.92
   2   0   5   37.41    6.04
  -2   0  -5   40.20    2.94
   2   0   5   39.68    6.01
  -2   0  -5   37.34    5.49
  -2   0  -5   36.09    2.39
  -2   0  -5   28.36    5.33
  -2   0  -6  508.88   23.24
  -2   0  -6  737.70   16.62
   2   0   6  615.61   26.97
  -2   0  -6  478.18   25.56
  -2   0  -6  586.49   15.38
  -2   0  -6  735.62   21.44
   2   0   7   33.21    6.30
  -2   0  -7   37.11    5.62
   2   0   7   33.89    6.86
  -2   0  -7   32.10    3.03
  -2   0  -7   33.81    3.24
  -2   0  -7   32.70    5.76
  -2   0  -7   34.39    6.42
  -2   0  -7   38.58    4.68
  -2   0  -8   98.91    9.65
   2   0   8  118.30   13.85
  -2   0  -8  103.83    5.88
  -2   0  -8   93.69   11.38
  -2   0  -8  105.45    6.88
  -2   0  -8   91.54   10.64
  -2   0  -8   97.06    7.70
   2   0   8   90.67   11.50
  -2   0  -9   66.60    8.50
  -2   0  -9   62.60    4.70
  -2   0  -9   66.22   10.24
  -2   0  -9   82.38    6.84
   2   0   9   55.65    9.68
  -2   0  -9   61.72    9.17
   2   0   9   61.97   10.88
  -2   0  -9   68.76    6.83
   2   0  10    4.93    2.89
  -2   0 -10    2.62    1.09
  -2   0 -10    2.64    1.73
  -2   0 -10    1.90    0.88
  -2   0 -10    0.05    2.22
  -2   0 -10    3.54    2.29
   2   0  11   -1.74    2.26
  -2   0 -11   -0.05    0.76
  -2   0 -11   -0.67    1.86
  -2   0 -11    1.86    1.61
  -2   0 -12  190.81   17.15
  -2   0 -12  186.00   13.59
   2   0  12  187.33   21.49
   2   0  13   23.69    8.14
  -2   0 -13   14.09    4.21
  -2   0 -13   22.57    6.17
   2   0  14   60.82   13.63
  -2   0 -14   65.57   10.96
   2   0  15    5.88    4.04
  -2  -1  13    1.16    0.83
   2   1 -12  152.08   21.01
  -2  -1  12  191.61   17.82
  -2  -1  11  189.57   17.06
   2   1 -11  160.97   21.01
  -2  -1  11  188.49   19.74
   2   1 -10   54.48   11.44
   2   1 -10   48.88    6.24
  -2  -1  10   56.41   10.11
  -2  -1  10   50.88    8.38
   2   1  -9   80.55   13.79
   2   1  -9   90.67    8.04
  -2  -1   9  101.66    7.88
  -2  -1   9   83.74   10.51
  -2  -1   9   93.34   12.20
   2   1  -9   84.64   10.73
   2   1  -8  114.58   15.70
   2   1  -8  124.01    9.16
  -2  -1   8  126.83   12.47
   2   1  -8  125.64   12.43
  -2  -1   8  124.78    9.16
  -2  -1   8  114.10   12.77
  -2  -1   7   -0.90    1.52
   2   1  -7   -2.43    1.98
  -2  -1   7   -0.13    1.55
   2   1  -7   -0.17    2.49
  -2  -1   7   -0.24    0.95
   2   1  -7    1.65    2.32
   2   1  -7    0.59    0.64
  -2  -1   7    1.22    1.92
   2   1  -7    0.27    1.01
   2   1  -6 1752.32   53.70
   2   1  -6 1579.77   39.55
   2   1  -6 1485.55   42.60
  -2  -1   6 1532.26   51.06
  -2  -1   6 1689.64   41.81
  -2  -1   6 1662.93   47.53
   2   1  -6 1563.28   57.66
   2   1  -6 1567.87   46.93
   2   1  -5   50.92    5.89
  -2  -1   5   58.77    7.06
   2   1  -5   58.34    5.65
  -2  -1   5   48.99    5.30
   2   1  -5   42.49    7.94
   2   1  -5   54.12    6.97
   2   1  -4  190.67   10.64
  -2  -1   4  192.88   12.04
   2   1  -4  183.70   16.01
   2   1  -4  206.60   13.09
  -2  -1   3   82.01    7.09
   2   1  -3   83.65    7.19
   2   1  -3   83.94    7.66
  -2  -1   2  588.78   18.27
   2   1  -2  610.04   21.99
   2   1  -2  583.82   14.60
  -2  -1   2  609.25   19.60
   2   1  -1  218.52   13.82
  -2  -1   1  199.23   10.26
  -2  -1   1  204.14    9.66
   2   1  -1  228.49   10.61
   2   1  -1  197.66    6.21
   2   1   0  864.54   23.55
   2   1   0  936.03   34.98
  -2  -1   0  829.59   27.88
  -2  -1   0  934.23   22.51
  -2  -1   0  929.59   18.74
   2   1   0  776.31   28.09
   2   1   0  902.24   19.20
   2   1   1  197.20    8.75
   2   1   1  218.53   16.79
  -2  -1  -1  221.93    9.00
  -2  -1  -1  204.54   10.20
   2   1   2 2779.45   52.35
   2   1   2 2875.42   70.33
  -2  -1  -3   79.64    4.56
   2   1   3   74.45    3.82
   2   1   3   79.57    8.58
  -2  -1  -3   64.15    8.41
   2   1   3   82.92    6.25
  -2  -1  -3   74.73    8.34
  -2  -1  -4  687.02   15.02
   2   1   4  655.30   22.24
   2   1   4  672.50   14.74
  -2  -1  -4  658.07   29.35
  -2  -1  -4  685.31   25.14
   2   1   4  656.65   20.53
   2   1   5    0.35    0.77
  -2  -1  -5   -0.70    0.38
   2   1   5    1.47    1.55
  -2  -1  -5    3.35    2.42
  -2  -1  -5   -0.67    0.77
   2   1   5    1.67    1.30
  -2  -1  -6  203.19   16.24
   2   1   6  191.26   13.76
  -2  -1  -6  192.92    8.53
  -2  -1  -6  174.33   11.77
   2   1   6  208.76   14.98
  -2  -1  -7   95.89    8.77
  -2  -1  -7   95.81    8.29
  -2  -1  -7  101.11    9.00
  -2  -1  -7   93.33   11.31
  -2  -1  -7  108.46    6.95
   2   1   7  110.66   11.79
  -2  -1  -8  167.99   11.85
  -2  -1  -8  154.10    4.65
  -2  -1  -8  161.51   11.72
  -2  -1  -8  153.42   14.98
   2   1   8  152.95   14.96
  -2  -1  -8  132.38   11.40
  -2  -1  -8  131.12    5.03
  -2  -1  -8  166.66    9.64
   2   1   8  163.32   15.58
  -2  -1  -9    7.02    1.00
  -2  -1  -9    5.17    1.12
  -2  -1  -9   10.17    3.58
   2   1   9    6.57    3.06
   2   1   9    8.31    3.99
  -2  -1  -9   13.51    3.02
  -2  -1  -9    9.33    3.94
  -2  -1  -9    4.76    2.57
  -2  -1  -9   14.26    4.08
  -2  -1 -10  283.71   17.62
  -2  -1 -10  242.54    6.99
  -2  -1 -10  286.71   19.95
  -2  -1 -10  273.56   22.11
   2   1  10  287.29   24.13
   2   1  10  292.09   23.99
  -2  -1 -10  288.94   17.79
   2   1  11    0.42    1.87
  -2  -1 -11    0.87    0.39
  -2  -1 -11    1.28    1.36
  -2  -1 -11    1.50    0.50
  -2  -1 -11   -0.97    2.39
  -2  -1 -11    3.13    2.67
  -2  -1 -11    2.27    1.35
  -2  -1 -11    1.36    1.88
  -2  -1 -12  151.07   14.35
  -2  -1 -12  132.80   14.10
   2   1  12  174.11   20.92
   2   1  13   -0.11    2.35
  -2  -1 -13    0.70    1.27
  -2  -1 -13   -0.28    2.24
   2   1  14   27.05    9.35
  -2  -1 -14   27.01    6.71
  -2  -2  13   18.17    5.73
   2   2 -12   17.37    7.44
  -2  -2  12   17.96    5.34
   2   2 -11    9.65    4.95
  -2  -2  11   11.47    4.06
   2   2 -10  179.68   21.83
  -2  -2  10  186.04   16.93
  -2  -2  10  217.60   14.35
   2   2  -9   71.13   13.05
   2   2  -9   64.12    8.90
  -2  -2   9   63.04    7.94
  -2  -2   9   63.40    9.42
   2   2  -9   63.01    8.64
   2   2  -8  170.29   13.49
   2   2  -8  159.52   13.73
   2   2  -8  159.88   18.93
  -2  -2   8  149.47   13.92
  -2  -2   8  151.30   12.60
  -2  -2   7   39.36    6.31
   2   2  -7   25.07    6.84
  -2  -2   7   38.14    7.13
   2   2  -7   21.48    4.52
  -2  -2   7   32.32    6.13
   2   2  -7   36.71    5.78
   2   2  -6   13.75    3.22
  -2  -2   6   13.76    4.30
   2   2  -6   26.04    5.28
   2   2  -6   17.19    5.56
  -2  -2   6   16.64    4.12
  -2  -2   6   16.81    3.89
   2   2  -6   17.67    4.51
   2   2  -5   31.65    4.53
  -2  -2   5   33.04    5.54
  -2  -2   5   32.57    5.12
   2   2  -5   25.58    4.81
   2   2  -5   23.58    6.10
   2   2  -5   30.10    4.55
  -2  -2   4 1652.12   47.62
  -2  -2   4 1775.97   44.83
   2   2  -4 1532.87   53.51
   2   2  -4 1896.46   53.12
   2   2  -4 1581.20   39.17
   2   2  -4 1533.28   40.21
  -2  -2   3  729.37   24.69
   2   2  -3  745.79   31.57
   2   2  -3  801.21   22.46
   2   2  -3  787.01   33.95
   2   2  -3  806.54   24.10
  -2  -2   3  817.81   22.28
   2   2  -2 2443.71   64.42
   2   2  -2 2339.99   47.75
  -2  -2   2 2323.37   51.93
  -2  -2   2 2249.02   52.04
   2   2  -2 2364.36   49.88
   2   2  -1  166.92   13.67
  -2  -2   1  141.57   11.56
   2   2  -1  140.51    7.06
  -2  -2   1  157.84    7.38
  -2  -2   1  138.47    9.21
  -2  -2   0  505.27   14.90
   2   2   0  508.43   15.68
   2   2   0  507.50   23.58
  -2  -2   0  464.00   24.46
  -2  -2  -1   23.06    5.08
   2   2   1   35.24    5.81
  -2  -2  -1   25.42    3.37
   2   2   1   27.04    3.39
  -2  -2  -2   11.06    2.90
   2   2   2   10.25    2.35
   2   2   2   15.23    4.12
   2   2   3  228.15   15.28
   2   2   3  233.96   15.06
  -2  -2  -3  230.98   15.62
   2   2   4  120.90    4.41
   2   2   4  122.01    7.83
  -2  -2  -4  116.55   11.79
   2   2   4  111.78    9.12
  -2  -2  -4  103.05   12.05
   2   2   4  113.74    9.50
  -2  -2  -5  120.59   12.29
   2   2   5   92.22    7.53
   2   2   5  106.70    8.11
  -2  -2  -5   80.33   11.10
   2   2   5   96.03    9.59
  -2  -2  -6 2496.60   73.21
   2   2   6 2528.84   63.87
   2   2   6 3243.26   62.58
  -2  -2  -6 3239.16   84.96
   2   2   6 2538.37   69.59
  -2  -2  -7  528.31   28.33
  -2  -2  -7  487.28   16.68
   2   2   7  440.22   22.43
  -2  -2  -7  475.54   28.54
   2   2   7  528.57   27.52
  -2  -2  -8  847.28   29.06
  -2  -2  -8  857.20   25.95
  -2  -2  -8  916.20   39.38
  -2  -2  -8  789.26   38.33
   2   2   8  923.83   39.82
   2   2   9    4.87    2.94
   2   2   9    0.03    0.95
  -2  -2  -9   -0.41    1.96
  -2  -2  -9    1.22    1.31
  -2  -2  -9    0.70    1.18
  -2  -2  -9   -2.90    3.96
  -2  -2 -10  124.90   12.13
  -2  -2 -10  147.87   11.95
  -2  -2 -10  133.73   15.27
   2   2  10  147.38   16.37
  -2  -2 -10  129.33   15.52
   2   2  10  149.30   17.44
   2   2  11   43.01    9.89
  -2  -2 -11   39.29    6.72
  -2  -2 -11   52.17    7.17
  -2  -2 -11   29.56    6.94
  -2  -2 -11   35.41    8.29
  -2  -2 -11   41.19    7.65
  -2  -2 -12   93.30   10.74
  -2  -2 -12   58.32   11.30
   2   2  12   93.28   15.64
   2   2  13    0.38    2.39
  -2  -2 -13    4.47    2.91
   2   2  14   19.81    7.82
  -2  -2 -14   23.70    6.02
  -2  -3  12   34.70    7.81
   2   3 -11   -0.13    2.94
  -2  -3  11    7.14    3.53
   2   3 -10   39.72   10.02
  -2  -3  10   52.30    9.13
  -2  -3  10   47.50    8.06
  -2  -3   9   98.50   11.83
   2   3  -9   59.86   12.25
  -2  -3   9   78.92   10.28
   2   3  -8   15.82    5.44
  -2  -3   8   21.48    5.75
  -2  -3   8   23.40    5.64
   2   3  -8   19.41    4.70
   2   3  -7  124.34   11.57
   2   3  -7  136.45   10.18
  -2  -3   7  104.05   10.91
  -2  -3   7  117.43   12.43
  -2  -3   7  117.39   12.58
   2   3  -7  124.04    8.98
   2   3  -7   93.24   14.12
   2   3  -6  460.88   20.18
  -2  -3   6  473.78   22.80
   2   3  -6  398.42   28.17
   2   3  -6  431.69   21.04
  -2  -3   6  451.64   24.01
   2   3  -6  474.73   18.33
   2   3  -5  310.58   16.49
   2   3  -5  309.09   16.21
   2   3  -5  284.50   22.13
  -2  -3   5  307.68   18.81
  -2  -3   5  287.89   16.50
   2   3  -5  311.16   13.11
   2   3  -4 1108.57   26.90
  -2  -3   4 1054.43   33.84
   2   3  -4 1052.90   31.66
   2   3  -4 1033.48   42.72
   2   3  -4 1047.87   34.50
  -2  -3   4 1078.76   27.38
  -2  -3   4 1087.23   36.13
  -2  -3   3   92.10    8.45
   2   3  -3   93.53    9.01
  -2  -3   3  101.47    7.76
   2   3  -3  101.22    7.83
   2   3  -3  100.87    5.64
   2   3  -3   82.83   10.59
  -2  -3   2  204.73   10.83
   2   3  -2  191.56   12.98
  -2  -3   2  174.26   13.61
   2   3  -2  191.00    7.73
   2   3  -2  182.82   10.36
   2   3  -2  167.25   14.04
  -2  -3   2  180.02   12.54
   2   3  -1  121.13   10.35
  -2  -3   1  117.98   13.08
  -2  -3   1  154.11    9.04
   2   3  -1  128.43    8.31
   2   3  -1  122.55   11.04
   2   3   0  222.12   14.86
  -2  -3   0  218.48   16.85
  -2  -3   0  235.76   11.28
   2   3   0  231.75   11.78
   2   3   1    1.46    0.76
  -2  -3  -1    3.43    1.98
   2   3   1    3.59    1.38
  -2  -3  -1    0.99    0.50
   2   3   2  344.78   16.51
   2   3   2  378.47   20.86
  -2  -3  -2  392.78   18.16
   2   3   2  362.30   15.04
  -2  -3  -3 1134.21   38.43
   2   3   3 1082.63   33.67
   2   3   3 1125.67   32.66
  -2  -3  -4 1033.94   40.07
   2   3   4 1078.50   34.22
   2   3   5    5.64    2.47
  -2  -3  -5    8.96    3.32
   2   3   5    7.44    2.19
   2   3   5    9.86    1.37
  -2  -3  -5   11.35    3.76
   2   3   5   10.27    2.23
  -2  -3  -6  967.79   39.88
   2   3   6  910.64   28.80
   2   3   6  980.46   37.79
  -2  -3  -7   71.16   10.35
   2   3   7   57.24    7.03
  -2  -3  -7   67.68   11.61
   2   3   7   59.99    9.06
   2   3   8  186.02   14.78
  -2  -3  -8  230.16   19.93
  -2  -3  -8  240.37   22.30
   2   3   8  231.25   19.81
   2   3   9    3.51    2.63
  -2  -3  -9    4.12    2.58
  -2  -3  -9    7.17    2.23
  -2  -3  -9    8.57    3.94
   2   3  10   64.30   11.82
  -2  -3 -10   69.92   13.26
  -2  -3 -10   70.63   11.49
  -2  -3 -10   65.23    7.60
   2   3  10   76.88   11.15
  -2  -3 -10   67.86    8.10
   2   3  11    2.51    2.91
  -2  -3 -11    0.44    1.95
  -2  -3 -11   -0.83    1.24
   2   3  11    0.30    1.53
  -2  -3 -11    2.87    0.98
  -2  -3 -12  176.17   23.12
   2   3  12  184.44   22.58
   2   3  13    1.23    2.89
  -2  -3 -13    5.74    8.05
  -2  -3 -14  185.46   26.60
   2   3  14  206.93   26.47
  -2  -4  12   26.80    7.41
  -2  -4  11    3.23    3.14
   2   4 -10   96.88   16.22
  -2  -4  10  105.84   13.71
  -2  -4  10  101.53   12.96
   2   4  -9   23.99    7.62
  -2  -4   9   23.35    5.83
  -2  -4   9   18.60    5.53
   2   4  -8  151.40   18.93
  -2  -4   8  164.15   15.15
  -2  -4   8  166.68   16.67
   2   4  -7   62.07   11.58
  -2  -4   7   62.01    8.60
  -2  -4   7   77.28   10.97
   2   4  -7   58.24    8.34
  -2  -4   7   58.41    8.53
   2   4  -6   23.28    6.76
  -2  -4   6   29.32    6.00
  -2  -4   6   28.57    6.29
   2   4  -6   18.86    4.27
   2   4  -5   33.25    7.68
  -2  -4   5   29.97    5.53
  -2  -4   5   30.34    3.55
  -2  -4   5   36.45    6.94
   2   4  -5   26.96    4.95
   2   4  -4   42.57    8.13
  -2  -4   4   44.97    4.84
   2   4  -4   44.60    6.23
  -2  -4   4   38.17    6.38
   2   4  -3    4.05    2.31
  -2  -4   3    1.56    1.27
  -2  -4   3    2.78    2.06
   2   4  -3    4.55    1.72
  -2  -4   2  694.48   37.49
   2   4  -2  707.44   25.93
   2   4  -2  763.48   32.56
   2   4  -1  535.50   21.32
  -2  -4   1  534.89   30.22
  -2  -4   1  558.87   20.99
   2   4  -1  519.15   24.62
  -2  -4   0 2709.74   75.69
  -2  -4   0 2914.71   64.08
   2   4   0 2918.52   68.62
   2   4   0 2851.89   65.60
   2   4   0 2917.49   55.48
  -2  -4  -1  339.71   21.40
   2   4   1  386.44   18.46
  -2  -4  -1  375.80   17.45
   2   4   1  378.04   17.21
   2   4   1  380.20   14.55
   2   4   2  154.53   11.80
  -2  -4  -2  144.76   11.44
   2   4   2  145.19    9.80
  -2  -4  -3   88.30    9.85
   2   4   3   81.32    8.94
   2   4   3   80.70    8.09
   2   4   4  243.86   10.60
  -2  -4  -4  257.00   18.79
   2   4   4  253.13   16.12
   2   4   5   20.03    4.51
  -2  -4  -5   15.95    4.82
   2   4   5   23.17    2.92
   2   4   5   20.50    2.53
  -2  -4  -6   66.28   10.98
   2   4   6   93.22    5.09
   2   4   6   71.18    6.05
  -2  -4  -6   63.88   10.95
   2   4   6   77.49   10.36
   2   4   7   49.90    8.78
  -2  -4  -7   56.35   10.69
   2   4   7   46.72    5.73
  -2  -4  -7   46.18    9.27
  -2  -4  -8  147.80   16.30
   2   4   8  131.13   11.19
   2   4   8  142.32   10.56
  -2  -4  -8  130.12   17.07
   2   4   8  134.30   15.68
  -2  -4  -9  116.86   15.02
  -2  -4  -9  112.72   10.36
   2   4   9   97.42   10.80
   2   4   9  105.26    9.18
  -2  -4  -9  126.05   17.68
   2   4   9  125.19   16.04
  -2  -4 -10  199.55   14.14
  -2  -4 -10  206.61   23.59
   2   4  10  199.19   21.63
   2   4  11   21.09    7.81
  -2  -4 -11   11.29    6.48
  -2  -4 -11   10.60    3.70
  -2  -4 -11   11.22    3.34
  -2  -4 -12  252.87   28.34
   2   4  12  290.48   29.17
   2   4  13    4.44    3.03
  -2  -4 -13    8.01    5.52
   2   4  14   56.59   13.88
  -2  -4 -14   57.94   15.12
  -2  -5  11   -2.81    2.44
  -2  -5  10   33.49    7.67
   2   5 -10   34.42    9.79
  -2  -5  10   41.64    9.21
   2   5  -9   -2.54    3.70
  -2  -5   9    1.43    1.11
  -2  -5   9    1.08    1.93
   2   5  -8   45.26   10.34
  -2  -5   8   53.71    9.02
  -2  -5   8   47.66    9.65
   2   5  -7    0.20    2.20
  -2  -5   7    3.98    2.31
  -2  -5   7    2.65    3.21
  -2  -5   7    3.88    3.03
   2   5  -6  139.94   17.14
  -2  -5   6  165.35   14.78
  -2  -5   6  175.77   17.48
   2   5  -5   11.80    3.90
  -2  -5   5    8.05    3.11
  -2  -5   5   18.33    2.75
  -2  -5   5    9.42    3.14
   2   5  -5   16.38    4.53
  -2  -5   4  104.70    9.70
   2   5  -4  102.74   13.01
  -2  -5   4   90.82   11.51
   2   5  -4  108.17   10.82
   2   5  -3  108.53   12.75
  -2  -5   3  125.80   16.54
   2   5  -3  110.69   10.70
   2   5  -2  920.65   37.94
  -2  -5   2 1010.07   51.21
  -2  -5   2 1021.97   33.95
   2   5  -2  942.46   33.80
   2   5  -1   25.45    5.58
   2   5  -1   20.45    4.56
  -2  -5   1   23.26    6.09
  -2  -5   1   21.84    4.81
   2   5   0  217.68   14.75
   2   5   0  209.93    8.91
   2   5   0  215.73   14.71
  -2  -5   0  214.63   13.86
   2   5   1  110.61   10.54
   2   5   1  109.41    9.32
  -2  -5  -1  108.72   10.03
   2   5   1  110.68    7.76
   2   5   2 1373.37   35.33
  -2  -5  -2 1425.62   43.87
   2   5   2 1313.19   43.13
   2   5   2 1329.56   37.69
   2   5   3   84.08    9.98
   2   5   3   92.95    5.82
   2   5   3   91.58    7.49
  -2  -5  -3   92.62   10.56
   2   5   3   86.60    8.88
   2   5   4   11.84    3.55
  -2  -5  -4   11.82    4.29
   2   5   4   10.88    2.47
   2   5   4    6.77    2.54
   2   5   5    2.72    2.68
  -2  -5  -5    1.15    2.11
   2   5   5    3.73    1.61
  -2  -5  -6  337.64   25.81
   2   5   6  400.37   15.69
   2   5   6  371.22   25.63
  -2  -5  -6  342.88   25.92
   2   5   6  312.32   22.42
  -2  -5  -7  132.83   16.19
   2   5   7  149.88    7.32
   2   5   7  149.64   14.67
  -2  -5  -7  136.26   17.14
   2   5   7  152.66   16.24
   2   5   8  663.38   14.62
   2   5   8  637.73   28.09
   2   5   8  666.00   37.71
  -2  -5  -8  645.33   39.71
  -2  -5  -9  261.45   25.79
   2   5   9  286.54   16.27
   2   5   9  271.63   24.99
  -2  -5 -10   54.73   11.98
   2   5  10   67.72   13.04
   2   5  10   54.33    6.75
   2   5  11    5.04    4.34
  -2  -5 -11   -2.18    4.38
   2   5  12   22.73    8.66
  -2  -5 -12   15.95    7.33
   2   5  13    8.75    5.74
  -2  -5 -13    2.57    3.16
  -2  -6  10   59.96   11.91
  -2  -6  10   51.88    9.98
  -2  -6   9   -0.87    1.00
   2   6  -9    0.92    2.16
  -2  -6   9    0.77    1.11
   2   6  -8   73.43   13.29
  -2  -6   8   67.78   12.46
  -2  -6   8   61.90   10.04
   2   6  -7   41.22    9.46
  -2  -6   7   55.11   11.04
  -2  -6   7   39.60    7.78
   2   6  -6   83.76   13.22
  -2  -6   6   92.24   13.94
  -2  -6   6   69.41   10.51
   2   6  -5    6.34    3.35
  -2  -6   5   10.84    4.46
  -2  -6   5   12.53    3.80
  -2  -6   5    5.42    2.25
  -2  -6   5    6.85    1.92
  -2  -6   4  222.13   19.85
   2   6  -4  264.36   21.89
  -2  -6   4  304.00   26.35
   2   6  -4  259.64   18.67
   2   6  -3    2.11    1.94
  -2  -6   3    6.75    4.88
   2   6  -3    4.55    1.84
   2   6  -2    0.57    0.99
  -2  -6   2    4.96    2.78
   2   6  -2    6.13    3.06
   2   6  -1   23.91    5.29
  -2  -6   1   23.33    4.77
   2   6  -1   27.41    5.57
  -2  -6   0  889.43   41.09
  -2  -6   0  928.63   34.13
   2   6   0  912.31   36.16
   2   6   0  945.59   34.41
   2   6   1    7.85    3.14
   2   6   1    6.49    2.47
  -2  -6  -1    6.34    3.60
  -2  -6  -1    8.08    3.37
   2   6   1    8.50    2.23
  -2  -6  -2  335.73   20.48
  -2  -6  -2  318.84   24.06
   2   6   2  306.90   20.24
   2   6   2  325.38   17.11
   2   6   2  352.37   15.04
   2   6   2  309.60   16.53
   2   6   3    2.13    1.71
   2   6   3    0.90    0.85
   2   6   3    0.44    0.89
  -2  -6  -3   -1.76    2.32
   2   6   3    0.84    0.78
  -2  -6  -3   -0.93    1.57
  -2  -6  -4  332.92   24.87
   2   6   4  319.58   16.13
  -2  -6  -4  362.71   24.11
   2   6   4  316.06   22.08
   2   6   4  285.45   19.23
   2   6   5   18.66    5.05
  -2  -6  -5   21.80    7.13
  -2  -6  -5   21.01    4.68
   2   6   5   23.17    5.98
   2   6   5   12.80    3.08
  -2  -6  -5   10.14    4.41
   2   6   6 1297.43   37.17
  -2  -6  -6 1219.94   53.18
   2   6   6 1144.48   47.64
  -2  -6  -6 1207.20   42.46
   2   6   7   81.70    7.56
  -2  -6  -7   78.47   13.13
   2   6   7   66.91   11.10
   2   6   7   82.89   12.62
  -2  -6  -7   90.45   11.02
   2   6   8  120.82    6.89
   2   6   8  105.89   12.92
  -2  -6  -8  128.47   17.54
   2   6   8  151.69   18.07
   2   6   9   64.33    3.84
  -2  -6  -9   56.83   12.43
   2   6   9   71.43    9.09
   2   6   9   80.75   13.94
   2   6  10   32.12    9.25
  -2  -6 -10   47.02   11.67
   2   6  10   33.11    5.54
   2   6  11   26.42    9.01
  -2  -6 -11   15.70    6.50
  -2  -6 -12   87.61   17.03
   2   6  12  105.76   18.41
  -2  -6 -13    5.56    4.71
   2   6  13    8.93    6.95
  -2  -7   9   11.52    4.81
  -2  -7   9   23.48    7.91
   2   7  -8   24.07    7.57
  -2  -7   8   21.38    6.14
  -2  -7   8   31.68    9.31
   2   7  -7  113.17   16.33
  -2  -7   7   90.35   13.31
  -2  -7   7  113.59   17.16
   2   7  -6   81.55   13.26
  -2  -7   6  101.01   15.80
  -2  -7   5   32.26    8.41
   2   7  -5   34.15    8.36
  -2  -7   5   42.72   10.03
  -2  -7   5   32.60    5.35
  -2  -7   4   96.86   19.15
   2   7  -4   73.98   11.71
  -2  -7   4   82.08   13.41
  -2  -7   4   67.28   15.53
  -2  -7   4   76.92    8.17
   2   7  -3    2.88    1.79
  -2  -7   2  153.28   22.01
   2   7  -2  122.60   13.55
  -2  -7   2  135.15   13.30
   2   7  -1   11.49    3.69
  -2  -7   1   11.65    3.77
  -2  -7   1    5.66    3.07
  -2  -7   0  136.40   16.16
   2   7   0  149.46   12.43
  -2  -7   0  145.28   13.47
   2   7   0  136.89   14.08
   2   7   1    5.65    2.35
   2   7   1    9.21    3.52
   2   7   1    4.38    2.25
  -2  -7  -1    6.02    4.10
  -2  -7  -1    9.32    3.70
  -2  -7  -2  206.19   20.64
   2   7   2  252.68   12.15
   2   7   2  243.98   15.74
  -2  -7  -2  215.78   17.59
   2   7   2  235.31   18.80
   2   7   2  202.89   14.24
   2   7   3   60.06    4.05
  -2  -7  -3   68.10   11.61
   2   7   3   63.47    7.64
  -2  -7  -3   56.32    9.32
   2   7   3   54.18    7.81
   2   7   4  506.37   23.01
  -2  -7  -4  573.83   32.22
   2   7   4  507.45   26.93
   2   7   5  176.97   13.32
  -2  -7  -5  223.75   21.19
   2   7   5  203.97   17.86
  -2  -7  -5  214.67   15.83
  -2  -7  -6   20.02    6.37
  -2  -7  -6   13.80    4.25
   2   7   6   12.47    3.37
   2   7   6   10.26    4.48
   2   7   7  296.96   17.44
   2   7   7  308.54   25.25
  -2  -7  -7  308.65   27.34
   2   7   8  413.03   17.58
  -2  -7  -8  386.58   31.89
   2   7   8  359.60   29.14
  -2  -7  -9    5.60    2.51
   2   7   9    5.24    1.60
   2   7   9    5.46    3.87
   2   7  10  200.28   23.91
  -2  -7 -10  168.26   22.34
  -2  -7 -11    6.68    5.03
   2   7  11   16.79    6.99
  -2  -7 -12   71.88   15.51
   2   7  12   79.72   16.60
  -2  -8   8   14.41    5.99
  -2  -8   8   18.54    7.69
  -2  -8   7   14.87    5.63
  -2  -8   7   24.71    8.68
   2   8  -7   20.20    6.89
   2   8  -7   30.48    8.76
   2   8  -6   27.39    6.82
  -2  -8   6   37.33   10.39
  -2  -8   6   13.10    5.83
   2   8  -6   34.65    8.78
   2   8  -5   31.46    7.85
  -2  -8   5   10.54    4.23
   2   8  -5   36.01    8.07
  -2  -8   5   33.78    9.30
   2   8  -4  103.58   12.95
   2   8  -4  103.69   13.79
  -2  -8   4  138.82   19.07
   2   8  -3   13.00    4.61
  -2  -8   3    7.20   11.37
   2   8  -3    6.64    1.39
  -2  -8   2  193.91   26.40
   2   8  -2  142.74   14.71
   2   8  -2  146.55   14.73
  -2  -8   2  153.75   15.34
  -2  -8   1  257.32   19.58
  -2  -8   1  221.22   23.93
   2   8  -1  243.80   17.81
   2   8  -1  261.26   19.32
   2   8   0   12.84    3.72
  -2  -8   0   20.17    6.47
  -2  -8   0    9.29    3.72
   2   8   0   14.31    3.85
   2   8   1  249.78   17.97
   2   8   1  269.76   14.87
  -2  -8  -1  297.01   21.43
   2   8   2  566.03   19.22
   2   8   2  508.41   25.84
  -2  -8  -2  545.73   30.71
   2   8   3   23.06    5.27
   2   8   3   24.40    5.44
  -2  -8  -3   22.51    5.88
   2   8   4   19.03    4.25
  -2  -8  -4   19.09    5.64
   2   8   4   13.50    4.53
   2   8   5    1.80    2.02
  -2  -8  -5    2.19    3.11
   2   8   5    3.07    1.74
   2   8   6  134.98   12.97
  -2  -8  -6  162.47   19.35
   2   8   6  138.44   16.31
  -2  -8  -7   38.37    9.93
   2   8   7   39.13    7.07
   2   8   7   30.65    7.97
   2   8   8  208.02   14.62
  -2  -8  -8  153.39   20.95
   2   8   8  171.29   20.29
  -2  -8  -9   16.63    7.18
   2   8   9   18.13    3.35
   2   8   9   19.71    7.33
  -2  -8 -10   53.47   12.89
   2   8  10   63.06   13.73
  -2  -8 -11   -0.62    2.23
   2   8  11   -0.52    2.33
   2   8  12  130.36   21.65
  -2  -9   6   -2.35    2.88
  -2  -9   6    6.82    4.88
   2   9  -6    6.03    3.67
   2   9  -5   31.42    7.89
  -2  -9   5   38.64   11.06
  -2  -9   5   30.38   12.11
   2   9  -5   30.35    7.81
   2   9  -4   63.07   10.72
  -2  -9   4   66.31   14.21
   2   9  -4   85.08   12.45
   2   9  -3   10.21    4.07
  -2  -9   3   12.54    5.62
   2   9  -3   13.76    4.80
   2   9  -2   56.47    8.96
  -2  -9   2   56.89   10.01
   2   9  -2   44.93    8.53
   2   9  -1   88.90   10.42
   2   9  -1  101.13   12.57
  -2  -9   1   87.65   12.14
   2   9   0  252.97   16.00
   2   9   0  246.61   19.39
  -2  -9   0  250.16   20.85
   2   9   1    3.67    3.04
   2   9   1    1.31    1.62
  -2  -9  -1   -0.44    1.71
   2   9   2   22.44    5.35
  -2  -9  -2   31.42    7.63
   2   9   3   50.46    8.05
  -2  -9  -3   60.08   10.89
   2   9   4  151.89   14.31
  -2  -9  -4  176.17   19.42
   2   9   4  176.56   17.35
   2   9   5   38.19    7.25
  -2  -9  -5   50.46   10.82
   2   9   5   44.73    9.19
   2   9   6   41.48    7.67
   2   9   6   35.99    8.71
  -2  -9  -6   33.27    9.07
   2   9   7   69.51    9.98
  -2  -9  -7   90.67   15.48
   2   9   7   65.69   12.26
   2   9   8  102.45   16.31
   2   9   8  115.77   12.21
  -2  -9  -8  129.32   19.30
  -2  -9  -9    2.98    3.01
   2   9   9    2.11    2.70
  -2  -9 -10   33.13    9.87
   2   9  10   42.33   11.71
   2   9  11   39.79   11.71
   2  10  -5   13.32    5.61
   2  10  -4   28.82    7.07
   2  10  -3    3.14    2.31
  -2 -10   3   -2.32    5.01
   2  10  -3    3.07    2.40
   2  10  -2  101.16   11.84
   2  10  -2   77.16   12.03
  -2 -10   2  110.82   18.97
  -2 -10   2  105.47   14.51
   2  10  -1   40.35    8.18
   2  10  -1   36.44    6.43
  -2 -10   1   48.31    9.68
   2  10   0   18.78    5.38
   2  10   0   16.46    4.16
  -2 -10   0   18.79    6.21
   2  10   1  202.11   18.19
  -2 -10  -1  221.66   21.18
   2  10   2  205.91   18.11
  -2 -10  -2  243.48   22.71
   2  10   3   24.98    6.29
  -2 -10  -3   29.62    8.62
   2  10   4  163.72   15.98
  -2 -10  -4  208.39   22.43
   2  10   5   11.20    4.20
  -2 -10  -5   20.29    7.13
   2  10   5   21.43    6.62
   2  10   6   51.84    9.09
  -2 -10  -6   63.12   13.24
   2  10   6   54.50   11.47
   2  10   7    1.89    2.50
   2  10   7   -2.19    1.02
  -2 -10  -7    1.29    3.26
   2  10   8   75.49   10.85
   2  10   8   78.41   14.33
  -2 -10  -8   91.61   16.66
   2  10   9    0.06    2.70
  -2 -10  -9   -0.94    4.07
   2  10  10   37.67   11.05
  -2 -11   1    1.72    2.12
   2  11   0   67.12   11.17
  -2 -11   0   75.74   13.11
   2  11   1   -1.77    2.43
  -2 -11  -1    4.43    3.01
   2  11   2   75.05   11.68
  -2 -11  -2   83.50   14.11
   2  11   3   11.36    4.54
  -2 -11  -3   29.38    8.39
   2  11   4   43.77    8.91
  -2 -11  -4   53.29   11.64
   2  11   5    0.41    1.84
  -2 -11  -5    3.47    4.49
   2  11   6   57.09   10.18
  -2 -11  -6   70.52   14.34
   2  11   7    1.21    1.42
   2  11   7    1.86    3.05
   2  11   8  141.84   20.73
   2  11   9    5.58    5.39
   2  12   3    3.19    2.70
   2  12   4   62.51   11.25
   2  12   5    1.85    1.35
   2  12   6   22.99    6.68
   3 -11  -3   28.05    8.66
   3 -11  -2    5.18    3.31
   3 -11  -1    2.65    3.21
  -3  10   8   -8.34    4.69
  -3  10   7   15.22    6.26
   3 -10  -7   16.82    6.51
  -3  10   6    2.06    1.68
   3 -10  -6    2.53    3.63
  -3  10   5  103.22   13.88
   3 -10  -5  111.18   15.65
  -3  10   4    3.79    2.64
   3 -10  -4    4.67    3.61
   3 -10  -4   -2.85    3.27
  -3  10   3   26.12    6.46
   3 -10  -3   24.87    7.90
   3 -10  -3   23.79    7.02
  -3  10   2    3.97    3.11
   3 -10  -2    0.31    2.32
   3 -10  -2    1.07    1.78
   3 -10  -1  109.80   15.25
  -3  10   1  102.40   12.52
   3 -10  -1  116.13   17.53
  -3  10   0    1.24    2.05
   3 -10   0   -1.70    1.17
   3 -10   0   -1.54    2.46
  -3  10  -1   89.34   11.99
   3 -10   1   77.26   14.64
   3 -10   2   -1.26    2.12
   3 -10   2    2.01    2.64
  -3   9   9   81.56   14.48
   3  -9  -9   55.34   11.58
  -3   9   8    7.98    3.81
   3  -9  -8    2.02    1.61
  -3   9   7   82.55   12.74
   3  -9  -7   90.49   13.84
  -3   9   6    9.77    4.04
   3  -9  -6   15.95    5.91
  -3   9   5  115.37   13.81
   3  -9  -5   97.99   13.72
   3  -9  -5  112.57   15.11
  -3   9   4   30.91    6.85
   3  -9  -4   30.58    8.05
   3  -9  -4   23.08    6.36
   3  -9  -3  256.60   22.05
  -3   9   3  244.25   19.02
   3  -9  -3  234.02   22.14
  -3   9   2   35.72    6.97
   3  -9  -2   26.34    7.38
   3  -9  -2   44.18    8.84
  -3   9   1  147.52   14.31
   3  -9  -1  151.00   16.81
   3  -9  -1  145.36   18.02
   3  -9   0    0.05    2.28
  -3   9   0   11.89    4.70
   3  -9   0    6.45    4.32
  -3   9  -1   99.48   12.20
   3  -9   1  118.23   14.90
   3  -9   1  107.56   16.23
  -3   9  -2    6.50    3.39
   3  -9   2    8.12    4.35
   3  -9   3   24.74    5.72
  -3   9  -3   36.35    7.64
   3  -9   3   31.71    9.42
  -3   9  -4    1.83    2.57
   3  -9   4    3.14    4.58
  -3   9  -5  103.78   13.11
  -3   8  10    2.24    1.87
   3  -8 -10    7.10    4.12
  -3   8   9  165.18   18.99
   3  -8  -9  150.36   18.39
  -3   8   8    3.96    2.29
   3  -8  -8    3.24    2.06
  -3   8   7  124.97   15.53
   3  -8  -7  108.11   14.48
  -3   8   6   28.12    6.53
   3  -8  -6   25.30    5.82
   3  -8  -6   22.64    6.49
  -3   8   5  217.99   18.01
   3  -8  -5  218.46   18.19
   3  -8  -5  202.90   18.98
  -3   8   4    1.98    1.38
   3  -8  -4   -0.57    1.03
   3  -8  -3  242.30   20.12
  -3   8   3  229.25   17.30
   3  -8  -3  231.54   20.21
   3  -8  -2   90.79    9.68
  -3   8   2   90.05   10.54
   3  -8  -2  116.72   13.67
   3  -8  -2   98.47   13.40
  -3   8   1   53.89    8.15
   3  -8  -1   39.69    6.74
   3  -8  -1   37.33    8.41
   3  -8  -1   44.01    8.44
  -3   8   0   -0.44    1.06
   3  -8   0    1.03    1.09
   3  -8   0   -0.39    1.63
  -3   8  -1  313.71   20.19
   3  -8   1  291.84   22.19
   3  -8   1  281.97   24.81
   3  -8   2   -0.56    2.11
  -3   8  -2    0.18    2.10
  -3   8  -3  355.75   22.66
   3  -8   3  359.09   20.93
   3  -8   3  362.50   29.51
   3  -8   4    7.63    4.11
   3  -8   4    6.47    2.40
  -3   8  -4    2.82    1.77
  -3   8  -5   63.63    9.65
   3  -8   5   55.82   11.46
   3  -8   5   68.35    7.93
  -3   8  -6    5.23    2.69
   3  -8   6    5.09    3.71
  -3   8  -7  228.31   19.06
   3  -8   7  257.48   26.37
  -3   8  -8    4.11    3.10
   3  -7 -11   13.42    5.55
  -3   7  10   12.69    4.85
   3  -7 -10   15.48    5.31
  -3   7   9  139.88   16.70
   3  -7  -9  136.46   16.79
  -3   7   8   55.58   10.25
   3  -7  -8   58.72   10.43
  -3   7   7   63.53   10.76
   3  -7  -7   58.41   10.15
   3  -7  -6   42.87    6.31
  -3   7   6   38.30    7.50
   3  -7  -6   39.14    7.93
  -3   7   5  121.00   12.64
   3  -7  -5  133.99   12.36
   3  -7  -5  132.80   14.36
  -3   7   4  231.61   16.55
   3  -7  -4  196.03   16.27
   3  -7  -4  238.47   18.93
   3  -7  -3   20.10    5.48
  -3   7   3   22.42    4.77
   3  -7  -3   28.04    6.35
  -3   7   2   -0.04    1.04
   3  -7  -2    2.50    2.42
   3  -7  -2    1.57    1.69
   3  -7  -1  193.71   14.24
  -3   7   1  209.03   14.93
   3  -7  -1  240.56   18.33
   3  -7  -1  232.41   19.70
  -3   7   0   -0.26    1.33
   3  -7   0    0.10    0.70
   3  -7   0   -0.59    2.50
   3  -7   0    0.75    1.08
   3  -7   0    1.21    1.81
  -3   7  -1  461.14   23.62
   3  -7   1  449.64   25.08
   3  -7   1  482.20   26.79
   3  -7   1  471.23   30.22
  -3   7  -2   31.38    6.18
   3  -7   2   38.00    8.63
  -3   7  -3  192.18   15.31
   3  -7   3  206.90   14.56
   3  -7   3  202.78   20.58
   3  -7   4   22.60    4.53
  -3   7  -4   21.40    5.38
   3  -7   4   36.36    8.73
  -3   7  -5  133.33   13.06
   3  -7   5  141.48   11.17
   3  -7   5  153.09   18.64
   3  -7   6    0.47    2.15
   3  -7   6    1.29    1.59
  -3   7  -6   -0.65    1.27
  -3   7  -7  240.33   18.36
   3  -7   7  251.71   24.67
  -3   7  -8    3.42    3.23
   3  -7   8    6.28    4.54
  -3   7  -9  103.24   12.34
  -3   7 -10   -1.07    1.76
   3  -6 -11    5.09    2.41
   3  -6 -10    3.51    2.73
  -3   6  10    2.86    1.00
  -3   6   9   49.46    9.68
   3  -6  -9   61.22   10.65
   3  -6  -9   45.15    9.48
  -3   6   8    9.84    4.87
   3  -6  -8    4.72    1.67
  -3   6   7   85.91   11.57
   3  -6  -7   71.71   10.51
  -3   6   6    9.91    4.30
   3  -6  -6   10.90    2.62
   3  -6  -6   12.06    4.15
  -3   6   5    1.35    3.95
   3  -6  -5    3.19    1.93
   3  -6  -5    0.41    2.26
  -3   6   4  499.30   24.13
   3  -6  -4  529.76   24.12
   3  -6  -4  518.31   26.76
  -3   6   4  519.78   29.64
  -3   6   3  632.75   32.11
  -3   6   3  622.63   26.29
   3  -6  -3  623.58   28.30
   3  -6  -3  641.23   29.40
  -3   6   2   82.48    8.68
   3  -6  -2  103.61   11.30
   3  -6  -2   90.30   10.24
  -3   6   2   90.50   11.44
   3  -6  -2   80.31   11.67
  -3   6   1  205.12   13.78
   3  -6  -1  187.26   16.19
   3  -6  -1  194.83   15.15
  -3   6   1  195.05   17.13
   3  -6  -1  180.54   16.90
  -3   6   0    2.24    1.30
   3  -6   0   -0.41    1.48
   3  -6   0    5.26    2.69
   3  -6   0    3.59    1.87
  -3   6   0    0.58    0.85
  -3   6  -1   91.81   11.48
   3  -6   1   82.16    9.70
  -3   6  -1   87.90    9.23
   3  -6   1   79.90   11.23
   3  -6   1   92.40   10.48
   3  -6   2   35.72    5.97
  -3   6  -2   46.04    6.91
   3  -6   2   46.03    7.93
   3  -6   2   41.71    8.15
  -3   6  -3  101.28   10.34
   3  -6   3  100.04    9.56
   3  -6   3  101.26   13.53
   3  -6   4   10.23    2.73
  -3   6  -4    5.91    2.96
   3  -6   4   12.32    4.86
  -3   6  -5    0.28    0.97
   3  -6   5    4.20    3.63
   3  -6   5    2.48    2.04
  -3   6  -6    0.88    1.05
   3  -6   6    0.65    2.70
   3  -6   6    0.46    1.48
   3  -6   7  120.48    9.48
  -3   6  -7  105.30   11.31
   3  -6   7   95.75   12.64
   3  -6   7  133.84   16.63
  -3   6  -8    1.11    1.80
   3  -6   8    6.67    4.90
  -3   6  -9  966.85   38.57
   3  -6   9  974.23   47.84
   3  -6   9 1043.96   55.02
  -3   6 -10    5.26    2.95
   3  -6  10    6.02    3.92
  -3   6 -11    3.14    2.51
   3  -5 -11   32.57    8.31
   3  -5 -11   41.38    9.93
   3  -5 -10   -0.66    2.09
   3  -5 -10    0.96    0.93
   3  -5  -9   68.99   12.04
  -3   5   9   63.54   10.64
   3  -5  -9   73.37   11.32
   3  -5  -8   -0.80    2.03
  -3   5   8    0.06    2.20
   3  -5  -8   -1.17    2.65
  -3   5   7  183.17   18.61
   3  -5  -7  103.25   12.47
  -3   5   6  332.62   21.27
   3  -5  -6  310.33   20.16
  -3   5   5  625.42   28.68
   3  -5  -5  593.49   27.60
   3  -5  -5  575.79   18.87
  -3   5   5  614.59   32.56
  -3   5   4    8.36    3.23
  -3   5   4    9.70    2.96
   3  -5  -4    8.08    2.31
   3  -5  -4   10.62    2.97
   3  -5  -4    5.37    2.15
  -3   5   3  260.87   15.57
   3  -5  -3  266.95   16.46
   3  -5  -3  269.04   16.41
   3  -5  -3  272.88   15.69
   3  -5  -3  257.42   16.51
  -3   5   3  268.06   18.55
   3  -5  -3  240.95   20.62
  -3   5   2   31.50    6.12
  -3   5   2   27.88    4.78
  -3   5   2   20.93    4.85
   3  -5  -2   31.90    5.19
   3  -5  -2   26.72    5.31
   3  -5  -2   28.29    5.19
   3  -5  -2   33.30    7.26
   3  -5  -2   26.85    5.18
  -3   5   1   26.33    5.52
  -3   5   1   25.79    4.39
   3  -5  -1   23.18    5.19
  -3   5   1   21.87    4.78
   3  -5  -1   28.68    5.16
   3  -5  -1   32.29    5.77
  -3   5   0   16.77    4.10
  -3   5   0   23.66    4.69
   3  -5   0   24.23    5.14
   3  -5   0   25.32    5.55
   3  -5   0   17.31    4.22
  -3   5   0   15.22    4.04
  -3   5  -1   16.87    4.49
  -3   5  -1   17.65    3.63
  -3   5  -1   23.86    4.32
   3  -5   1   22.45    4.84
   3  -5   1   19.09    5.53
   3  -5   1   19.76    4.82
   3  -5   1   22.71    4.69
   3  -5   2    0.71    1.93
  -3   5  -2   37.58    6.44
   3  -5   2   11.93    4.10
  -3   5  -2   13.32    5.32
  -3   5  -2    0.55    1.95
   3  -5   2   39.20    8.36
   3  -5   2    5.37    3.40
  -3   5  -2    0.82    3.77
   3  -5   3  567.86   22.51
  -3   5  -3  535.21   23.30
   3  -5   3  534.81   27.75
   3  -5   3  536.31   26.05
  -3   5  -3  541.66   17.41
   3  -5   3  553.43   30.35
  -3   5  -3  568.81   28.93
  -3   5  -3  571.03   32.84
   3  -5   4    0.40    0.65
  -3   5  -4    1.05    1.76
   3  -5   4    0.94    2.30
  -3   5  -5   30.35    5.33
   3  -5   5   19.76    5.49
   3  -5   5   24.65    4.50
  -3   5  -6   -0.13    1.48
   3  -5   6    0.57    1.50
   3  -5   6    1.64    2.32
   3  -5   7   65.33    5.96
  -3   5  -7   69.38    8.41
   3  -5   7   72.23   12.21
   3  -5   7   76.19   12.02
   3  -5   8    1.19    1.10
   3  -5   8    0.94    2.67
  -3   5  -8    3.76    2.34
   3  -5   9   11.37    5.15
   3  -5   9    7.18    4.53
  -3   5  -9    6.27    2.81
   3  -5  10   -2.15    1.03
   3  -5  10    1.62    2.60
  -3   5 -10   -0.43    1.05
  -3   5 -11  125.71   12.35
   3  -4 -12    8.06    4.51
   3  -4 -12    5.76    2.94
   3  -4 -12    6.68    4.43
   3  -4 -11   37.92    8.73
   3  -4 -11   33.10    9.23
   3  -4 -10   11.97    4.79
   3  -4 -10    4.54    3.68
   3  -4  -9  219.04   22.56
   3  -4  -9  259.84   20.78
   3  -4  -8    1.58    1.34
  -3   4   8   -2.16    3.45
   3  -4  -8    1.09    1.28
  -3   4   7  790.05   37.46
   3  -4  -7  762.81   33.28
   3  -4  -6   -0.61    1.58
   3  -4  -6    1.72    0.99
  -3   4   6    0.10    1.70
   3  -4  -5    3.95    2.14
   3  -4  -5    0.66    1.41
  -3   4   4   54.51    7.16
   3  -4  -4   45.88    6.21
   3  -4  -4   57.95    7.32
   3  -4  -4   49.24    6.55
  -3   4   4   46.42    8.14
   3  -4  -4   44.31    8.62
   3  -4  -3  268.42   15.58
  -3   4   3  267.17   15.36
   3  -4  -3  270.99   15.36
   3  -4  -3  268.82   12.56
   3  -4  -3  257.53   14.90
   3  -4  -3  270.97   20.90
  -3   4   3  252.65   18.76
  -3   4   2   74.64    7.47
   3  -4  -2   79.13    8.16
   3  -4  -2   72.54    7.10
   3  -4  -2   80.69    7.80
  -3   4   2   64.93    8.83
   3  -4  -2   83.93    8.03
   3  -4  -2   82.14   10.70
   3  -4  -1  807.60   27.37
   3  -4  -1  819.58   26.37
  -3   4   1  783.37   26.35
  -3   4   1  758.08   30.68
   3  -4  -1  799.74   28.58
  -3   4   0   41.44    5.19
  -3   4   0   45.71    6.57
   3  -4   0   48.37    6.92
   3  -4   0   51.44    6.24
  -3   4  -1  789.81   28.00
  -3   4  -1  786.39   26.26
   3  -4   1  836.87   29.72
   3  -4   1  845.27   28.89
   3  -4   1  792.45   31.72
  -3   4  -1  807.55   34.27
   3  -4   2  127.27   11.81
  -3   4  -2  154.94   10.58
   3  -4   2  135.80   11.39
   3  -4   2  131.66   12.54
  -3   4  -2  129.55   11.78
  -3   4  -2  133.92   13.86
   3  -4   2  133.48   10.15
  -3   4  -2  125.80    9.31
   3  -4   3  974.28   36.39
  -3   4  -3  920.07   29.93
   3  -4   3  911.75   33.08
  -3   4  -3  993.93   41.95
  -3   4  -3  878.95   34.53
   3  -4   3  914.77   37.12
   3  -4   3  946.22   29.35
   3  -4   4   -0.86    1.08
  -3   4  -4    1.06    0.83
  -3   4  -4    0.23    1.38
   3  -4   4   -0.07    1.40
  -3   4  -4   -0.74    2.07
   3  -4   4    0.10    1.49
   3  -4   4   -0.17    0.93
  -3   4  -5   82.28   10.48
  -3   4  -5   94.32    8.77
   3  -4   5   83.55    8.80
   3  -4   5   82.75   10.94
  -3   4  -6    1.43    0.75
   3  -4   6   -0.55    0.58
   3  -4   6    0.87    1.65
  -3   4  -7  130.56   10.76
   3  -4   7  155.46   19.02
   3  -4   7  146.05    7.63
   3  -4   7  159.04   15.59
  -3   4  -8    0.40    0.53
   3  -4   8    1.47    2.11
   3  -4   8    1.00    0.91
   3  -4   8    1.52    2.78
  -3   4  -8    3.47    2.86
  -3   4  -9  312.56   17.46
   3  -4   9  266.31   11.91
   3  -4   9  317.04   23.47
   3  -4   9  259.83   27.18
   3  -4  10   -2.97    3.79
  -3   4 -10    2.66    1.75
   3  -4  11   73.41   14.30
  -3   4 -11   73.84    8.64
   3  -4  12   -5.60    3.99
   3  -3 -13   19.66    7.82
   3  -3 -12    7.67    4.63
   3  -3 -12    0.44    1.37
   3  -3 -12    3.32    3.76
   3  -3 -11  118.77   18.18
   3  -3 -11  159.80   17.83
   3  -3 -11  128.41   14.14
   3  -3 -10   20.09    5.81
   3  -3 -10    8.97    3.19
   3  -3 -10    8.59    4.06
   3  -3  -9  145.28   18.87
   3  -3  -9  133.13   14.32
   3  -3  -8   44.84    7.80
   3  -3  -8   30.92    8.32
   3  -3  -7   64.72    7.54
  -3   3   7   45.93    7.76
   3  -3  -7   58.03    8.03
  -3   3   6   89.09   11.53
   3  -3  -6   97.93    9.25
   3  -3  -6  107.15   10.24
  -3   3   6   78.92   11.61
  -3   3   5  698.05   31.66
   3  -3  -5  657.53   25.13
   3  -3  -5  646.20   25.48
   3  -3  -5  620.45   26.69
  -3   3   5  593.35   32.59
   3  -3  -5  625.82   34.25
  -3   3   4   66.44    4.16
  -3   3   4   58.04    7.57
   3  -3  -4   54.91    6.46
   3  -3  -4   54.02    6.94
  -3   3   4   50.29    8.50
   3  -3  -4   53.43    6.13
  -3   3   4   66.48    8.56
   3  -3  -4   56.99    9.45
  -3   3   3 1238.48   37.75
   3  -3  -3 1213.75   35.62
   3  -3  -3 1195.75   36.44
  -3   3   3 1218.40   43.99
   3  -3  -3 1245.41   34.07
  -3   3   3 1220.53   37.76
  -3   3   2   15.89    3.32
  -3   3   2   14.35    3.07
  -3   3   2   19.44    4.83
  -3   3   2   14.38    3.03
   3  -3  -2   13.66    2.80
   3  -3  -2   17.91    3.56
  -3   3   1  947.15   34.54
  -3   3   1  983.46   29.35
   3  -3  -1  972.20   28.65
   3  -3  -1 1069.73   34.60
   3  -3  -1  972.28   27.86
  -3   3   1  979.83   32.59
   3  -3  -1 1025.55   28.68
  -3   3   1  946.09   29.86
  -3   3   0  485.61   19.89
  -3   3   0  469.05   18.28
  -3   3   0  430.96   21.68
   3  -3   0  511.53   21.51
   3  -3   0  466.97   17.15
   3  -3   0  487.69   19.75
   3  -3   0  499.25   18.63
  -3   3  -1  535.56   21.80
  -3   3  -1  514.20   18.96
   3  -3   1  538.93   17.24
   3  -3   1  550.01   22.61
   3  -3   1  533.44   21.08
   3  -3   2   22.57    4.04
   3  -3   2   25.25    4.88
   3  -3   3  499.45   24.35
  -3   3  -3  513.20   19.32
   3  -3   3  539.94   20.61
   3  -3   3  553.22   24.80
  -3   3  -4   -1.02    1.69
   3  -3   4    0.86    0.81
   3  -3   4    1.54    2.40
  -3   3  -4    1.13    0.85
   3  -3   4    2.90    2.10
   3  -3   4    4.09    2.73
  -3   3  -5 1118.98   32.67
   3  -3   5 1181.09   44.75
   3  -3   5 1095.66   37.36
   3  -3   5 1095.73   39.86
  -3   3  -5 1161.08   41.03
   3  -3   5 1232.42   41.74
  -3   3  -5 1177.68   47.13
  -3   3  -6   -0.03    1.06
   3  -3   6    1.23    0.66
   3  -3   6    3.09    2.89
  -3   3  -6   -0.96    0.88
   3  -3   6    2.55    3.03
  -3   3  -6   -0.54    1.44
   3  -3   6    0.99    0.90
  -3   3  -7  155.69   10.73
   3  -3   7  138.18    6.40
   3  -3   7  139.23   13.45
   3  -3   8    1.06    2.37
   3  -3   8   -0.29    0.75
  -3   3  -8    1.72    1.68
  -3   3  -9  192.87   12.38
   3  -3   9  155.77    7.80
  -3   3  -9  174.03   12.96
   3  -3   9  152.56   19.70
   3  -3  10    0.02    2.53
  -3   3 -10    0.95    1.53
  -3   3 -11   73.31    7.97
   3  -3  11   86.29   15.57
   3  -3  12    3.26    3.80
   3  -3  13   42.15   11.40
  -3   3 -13   42.75    7.01
  -3   3 -14    2.62    1.90
   3  -2 -13   58.08   13.55
   3  -2 -12   16.77    6.48
   3  -2 -12    7.09    4.56
   3  -2 -11   21.07    5.26
   3  -2 -11   21.70    6.31
   3  -2 -11   26.31    8.74
   3  -2 -10   24.17    5.41
   3  -2 -10   27.24    6.66
   3  -2 -10   15.68    6.47
   3  -2  -9    7.11    2.71
   3  -2  -9    0.87    2.31
  -3   2   9    5.32    3.27
   3  -2  -9    7.53    4.73
   3  -2  -8  120.93   12.23
   3  -2  -8   96.52   10.69
  -3   2   8  116.57   12.14
   3  -2  -8   80.03   13.84
   3  -2  -7 1090.89   36.31
  -3   2   7 1006.38   37.50
   3  -2  -7  975.69   36.65
   3  -2  -7  947.87   48.26
   3  -2  -7 1033.70   36.35
  -3   2   7  920.83   44.09
   3  -2  -6  275.69   15.85
   3  -2  -6  278.62   17.92
  -3   2   6  277.94   17.58
  -3   2   6  281.01   22.29
   3  -2  -6  292.03   16.37
   3  -2  -6  294.35   22.94
  -3   2   5  189.31   16.52
   3  -2  -5  196.35   12.81
  -3   2   5  186.57   17.21
   3  -2  -5  174.02   13.54
  -3   2   5  187.39   13.34
   3  -2  -5  194.29   17.83
   3  -2  -5  177.96   11.54
   3  -2  -5  183.88   13.39
  -3   2   4   73.92    7.76
  -3   2   4   63.20    8.16
   3  -2  -4   75.98    7.58
   3  -2  -4   77.58    8.70
   3  -2  -4   83.08    7.02
   3  -2  -4   77.66   10.71
   3  -2  -3   37.83    5.66
   3  -2  -3   39.71    5.36
  -3   2   3   32.29    4.81
  -3   2   3   35.65    5.65
   3  -2  -3   36.20    5.23
  -3   2   3   27.54    3.45
   3  -2  -3   32.57    3.80
  -3   2   3   26.59    3.45
  -3   2   3   29.42    4.94
  -3   2   2  212.77   15.56
   3  -2  -2  218.39   12.32
  -3   2   2  225.67   13.28
   3  -2  -2  213.44   13.60
  -3   2   2  227.31   12.18
  -3   2   2  233.45    8.89
  -3   2   2  204.36   11.07
   3  -2  -2  214.92    9.63
  -3   2   2  209.34   11.10
  -3   2   1 2404.44   53.71
   3  -2  -1 2372.75   52.54
   3  -2  -1 2463.87   56.73
   3  -2  -1 2322.18   48.08
  -3   2   1 2284.46   54.58
  -3   2   1 2318.21   50.38
  -3   2   0  213.30   12.28
   3  -2   0  211.18   10.43
   3  -2   0  205.01   11.97
  -3   2   0  213.74   13.17
  -3   2   0  204.54   10.55
   3  -2   0  212.57    9.90
  -3   2  -1  204.67   10.40
   3  -2   1  228.97   12.25
   3  -2   1  219.05    9.62
  -3   2  -1  202.64   11.05
  -3   2  -1  200.91   13.55
  -3   2  -2   19.83    3.25
   3  -2   2   15.69    2.17
   3  -2   2   18.85    3.57
  -3   2  -2   14.62    3.16
   3  -2   2   18.22    3.59
  -3   2  -3 1289.05   32.19
   3  -2   3 1326.66   36.86
   3  -2   3 1286.06   38.08
   3  -2   3 1302.05   26.70
  -3   2  -3 1302.31   37.53
  -3   2  -4   22.48    3.78
   3  -2   4   23.06    3.89
   3  -2   4   22.59    1.79
  -3   2  -4   20.16    3.05
   3  -2   4   22.41    5.03
  -3   2  -5  884.37   25.29
  -3   2  -5  804.68   25.79
   3  -2   5  831.94   38.50
  -3   2  -6   15.62    2.99
  -3   2  -6   18.57    3.20
  -3   2  -6   19.21    5.29
   3  -2   6   15.87    6.07
   3  -2   6   18.56    5.35
  -3   2  -7  592.69   19.99
   3  -2   7  682.77   35.14
   3  -2   7  588.57   33.74
   3  -2   7  473.86   11.41
  -3   2  -7  521.85   18.52
  -3   2  -7  569.25   31.30
  -3   2  -8    6.18    1.61
   3  -2   8    8.08    3.83
  -3   2  -8    6.37    2.00
  -3   2  -9  308.22   14.53
   3  -2   9  238.53   23.73
   3  -2  10    2.17    2.41
  -3   2 -10    3.94    1.89
  -3   2 -11  259.52   13.71
  -3   2 -11  242.37   15.50
   3  -2  11  271.86   27.49
   3  -2  12   13.00    6.12
  -3   2 -12    9.12    3.38
   3  -2  13   10.31    5.60
  -3   2 -13   11.70    3.70
   3  -2  14   -3.96    3.96
  -3   2 -14    4.83    2.40
   3  -1 -12    3.86    1.86
  -3   1  12    0.90    2.72
   3  -1 -11   65.39   12.12
   3  -1 -11   62.09   13.51
  -3   1  11   67.92   10.58
   3  -1 -11   51.97    7.56
   3  -1 -10   19.92    4.67
   3  -1 -10   25.09    8.31
   3  -1 -10   20.83    6.06
  -3   1  10   19.15    5.40
  -3   1   9  155.53   15.08
   3  -1  -9  147.45   12.39
   3  -1  -9  163.51   15.69
  -3   1   8  170.66   15.08
   3  -1  -8  150.22   12.25
   3  -1  -8  117.35   17.04
   3  -1  -8  164.40   14.33
   3  -1  -7   11.24    4.31
   3  -1  -7   11.41    3.22
   3  -1  -7   10.83    2.92
   3  -1  -7   15.02    4.03
  -3   1   7   12.82    3.31
  -3   1   7    8.53    4.53
   3  -1  -7   18.73    6.88
  -3   1   6   71.02   10.92
   3  -1  -6   72.03    8.05
   3  -1  -6   54.93    7.05
   3  -1  -6   64.52    7.62
  -3   1   6   68.48    8.56
   3  -1  -6   76.41    7.94
   3  -1  -6   78.18   11.23
   3  -1  -5  208.37   13.25
  -3   1   5  212.62   18.33
  -3   1   5  222.79   15.03
   3  -1  -5  225.36   14.11
   3  -1  -5  207.22   13.55
   3  -1  -5  222.04   12.19
   3  -1  -5  227.33   18.45
   3  -1  -4   61.25    6.84
  -3   1   4   66.26    7.42
  -3   1   4   44.68    6.84
   3  -1  -4   58.44    6.79
  -3   1   4   53.60    3.46
   3  -1  -4   49.78    4.71
   3  -1  -4   71.85    9.80
  -3   1   3  745.01   30.64
   3  -1  -3  793.78   26.91
  -3   1   3  782.23   19.44
  -3   1   3  764.19   26.66
   3  -1  -3  789.89   20.27
   3  -1  -3  767.86   32.28
  -3   1   2    2.60    1.08
   3  -1  -2    1.85    1.34
  -3   1   2    1.79    1.20
  -3   1   2    0.99    1.87
  -3   1   2    1.41    1.09
   3  -1  -2    3.06    1.11
   3  -1  -2    0.60    0.46
   3  -1  -1   15.04    3.19
  -3   1   1   16.14    2.03
  -3   1   1   17.56    3.59
  -3   1   1   18.96    2.90
  -3   1   1   16.50    2.98
  -3   1   1   18.83    3.07
   3  -1  -1   23.17    3.48
   3  -1  -1   14.97    1.75
   3  -1   0   81.83    7.24
  -3   1   0   67.42    5.50
  -3   1   0   72.75    6.46
   3  -1   0   72.03    5.50
  -3   1   0   75.64    6.24
  -3   1   0   72.54    4.79
  -3   1   0   83.87    5.81
  -3   1  -1 1238.76   31.18
   3  -1   1 1277.39   32.72
   3  -1   1 1312.02   35.96
  -3   1  -1 1212.78   28.30
  -3   1  -1 1271.66   30.15
  -3   1  -1 1291.26   30.25
  -3   1  -1 1193.14   33.23
   3  -1   1 1313.45   28.68
  -3   1  -2  393.80   14.18
   3  -1   2  393.98   15.75
   3  -1   2  356.47   18.48
   3  -1   2  403.99   11.14
  -3   1  -2  395.82   16.77
  -3   1  -2  411.11   14.78
  -3   1  -3  610.87   18.16
   3  -1   3  628.94   21.07
   3  -1   3  593.28   27.38
  -3   1  -3  629.75   21.89
   3  -1   3  628.34   12.69
  -3   1  -4   75.35    5.36
   3  -1   4   70.18    6.45
  -3   1  -4   75.30    6.98
   3  -1   4   60.51   10.02
  -3   1  -5 1404.44   32.20
   3  -1   5 1343.48   36.07
  -3   1  -5 1368.13   37.30
  -3   1  -6   13.09    2.20
   3  -1   6   14.15    2.86
   3  -1   6   10.80    4.18
  -3   1  -6   13.93    4.56
   3  -1   6   14.44    4.53
  -3   1  -6   17.80    3.63
   3  -1   7  126.43   14.17
  -3   1  -7  151.89    8.26
   3  -1   7  153.29   16.12
  -3   1  -7  146.90   10.25
  -3   1  -7  113.59   12.81
   3  -1   8   17.82    5.97
   3  -1   8   16.95    5.63
  -3   1  -8   21.27    3.16
  -3   1  -8   29.10    6.74
  -3   1  -8   27.86    4.75
  -3   1  -8   22.47    4.09
  -3   1  -9   98.03    8.30
  -3   1  -9   98.13    9.03
   3  -1   9   78.97   12.86
   3  -1  10    5.82    4.39
  -3   1 -10    3.92    1.56
  -3   1 -10    5.90    2.75
  -3   1 -10    4.53    1.81
  -3   1 -11  229.47   14.81
  -3   1 -11  244.82   11.60
   3  -1  11  247.73   25.64
   3  -1  12   14.60    6.92
  -3   1 -12   17.31    4.40
  -3   1 -13  171.47   13.88
   3  -1  13  220.24   26.56
   3  -1  14   -3.67    3.71
  -3   1 -14   -0.73    1.00
  -3   0  12   12.97    5.34
   3   0 -12    7.11    4.40
   3   0 -11   83.09   15.88
  -3   0  11   80.41   11.77
   3   0 -10  118.12   11.15
   3   0 -10   97.67   16.95
  -3   0  10  132.75   14.84
   3   0  -9   28.81    9.08
  -3   0   9   23.95    6.04
   3   0  -9   24.91    5.05
   3   0  -8   43.60    8.94
   3   0  -8   35.86    5.84
  -3   0   8   35.15    8.48
  -3   0   8   38.42    7.04
   3   0  -8   29.70    8.59
   3   0  -7  544.61   26.83
   3   0  -7  454.78   33.59
  -3   0   7  485.35   25.87
  -3   0   7  431.87   28.46
   3   0  -7  484.23   21.55
   3   0  -7  396.72   11.31
  -3   0   7  490.45   12.19
   3   0  -7  491.52   28.93
   3   0  -6  126.21   10.21
   3   0  -6  129.62   11.38
  -3   0   6  119.18   14.06
  -3   0   6  127.06   12.10
   3   0  -6  106.44    9.65
   3   0  -6  120.79    6.18
  -3   0   6  127.97    6.61
   3   0  -6  106.03   15.24
   3   0  -6  127.79   13.78
   3   0  -5  436.75   20.65
  -3   0   5  456.42   22.51
  -3   0   5  400.45   25.45
   3   0  -5  450.94   19.78
   3   0  -5  388.07   18.50
   3   0  -5  415.53   13.86
   3   0  -5  438.61   17.47
   3   0  -5  463.17   25.67
   3   0  -4  139.53   10.68
   3   0  -4  143.80   10.44
   3   0  -4  133.00    7.27
  -3   0   4  144.80   11.48
   3   0  -4  149.73    8.18
   3   0  -4  135.55   13.09
  -3   0   3  227.91   13.81
   3   0  -3  261.29   14.22
   3   0  -3  261.26    8.80
   3   0  -3  217.52    9.64
   3   0  -3  247.67   16.52
  -3   0   2   11.15    3.54
   3   0  -2    4.45    1.64
   3   0  -2    3.57    1.34
   3   0  -2    7.68    3.24
  -3   0   1  751.36   28.13
   3   0  -1  807.63   27.85
  -3   0   1  808.10   24.65
   3   0  -1  793.00   22.51
   3   0  -1  813.81   21.66
  -3   0   0  915.63   28.91
   3   0   0  934.84   23.76
  -3   0   0  896.30   25.00
   3   0   0  957.96   31.60
  -3   0   0  938.59   18.64
  -3   0   0  824.49   33.65
   3   0   0 1006.95   24.79
  -3   0  -1 2542.48   54.39
   3   0   1 2414.08   52.61
   3   0   1 2545.43   48.71
   3   0   1 2388.11   64.45
  -3   0  -1 2522.82   50.02
  -3   0  -1 2440.23   58.46
  -3   0  -2  348.23   13.04
   3   0   2  308.60   12.23
  -3   0  -2  343.74   15.66
  -3   0  -3  601.79   17.40
   3   0   3  637.34   18.99
   3   0   3  638.85   33.81
  -3   0  -3  613.99   13.70
  -3   0  -3  612.30   24.23
  -3   0  -3  618.71   21.02
  -3   0  -4   77.77    4.98
   3   0   4   76.65    6.10
   3   0   4   81.07   11.98
  -3   0  -4   68.37    8.02
  -3   0  -4   73.48    6.52
  -3   0  -5  117.51    6.00
   3   0   5  128.89   14.16
   3   0   5  116.54    7.43
  -3   0  -5  112.23   10.96
  -3   0  -5  122.36    8.84
  -3   0  -6   62.49    4.18
   3   0   6   58.22    8.72
   3   0   6   54.79    5.08
  -3   0  -6   62.71    8.55
  -3   0  -6   53.09    7.49
   3   0   6   50.21    8.87
  -3   0  -6   66.63    6.63
  -3   0  -7   45.18    3.58
   3   0   7   53.47    8.93
   3   0   7   56.91    9.42
  -3   0  -7   38.33    6.80
  -3   0  -7   42.17    5.73
  -3   0  -7   40.13    7.38
   3   0   8   -0.66    2.52
   3   0   8    2.49    2.69
  -3   0  -8   -0.49    0.56
  -3   0  -8    1.14    1.90
  -3   0  -8    2.51    2.12
  -3   0  -8   -1.12    1.08
  -3   0  -9  462.77   13.31
  -3   0  -9  312.88   22.34
  -3   0  -9  272.00   21.18
  -3   0  -9  501.09   21.03
   3   0   9  322.32   25.88
   3   0  10   19.87    6.95
  -3   0 -10   19.57    2.40
  -3   0 -10   20.31    4.38
  -3   0 -10   20.67    5.61
  -3   0 -11  289.10    9.99
  -3   0 -11  299.76   17.74
   3   0  11  310.97   28.34
   3   0  12    3.86    2.37
  -3   0 -12    3.80    2.21
   3   0  13   63.09   14.05
  -3   0 -13   52.53    8.39
   3   0  14   -0.89    2.08
  -3   0 -14   -2.05    3.18
  -3  -1  12   37.52    8.30
   3   1 -11  101.39   18.00
  -3  -1  11  109.02   14.21
   3   1 -10   10.81    5.27
  -3  -1  10   17.52    5.70
   3   1  -9  110.62   11.42
  -3  -1   9  125.98   14.29
   3   1  -9  129.62   19.14
  -3  -1   9  151.39    8.66
   3   1  -8   16.01    5.00
   3   1  -8   10.48    4.71
  -3  -1   8   10.18    4.38
  -3  -1   8   18.89    3.35
   3   1  -8   11.33    3.64
  -3  -1   8   19.80    5.42
   3   1  -7   75.81    8.66
  -3  -1   7   82.18   10.52
   3   1  -7   79.04   13.93
  -3  -1   7   79.80    7.31
   3   1  -7   77.94   10.49
  -3  -1   7   79.96   11.90
   3   1  -6    2.41    1.44
   3   1  -6    4.70    3.03
  -3  -1   6    3.22    1.48
   3   1  -6    0.31    2.62
  -3  -1   6    2.01    2.09
   3   1  -6   -0.02    1.14
  -3  -1   6    3.00    1.67
   3   1  -5  381.14   21.54
  -3  -1   5  359.88   23.54
   3   1  -5  350.10   18.68
  -3  -1   5  365.28   20.52
   3   1  -5  336.14   17.72
   3   1  -5  389.67   28.86
   3   1  -5  361.16   21.38
   3   1  -4   26.69    5.10
  -3  -1   4   27.90    5.17
   3   1  -4   29.52    3.26
   3   1  -4   33.03    6.03
   3   1  -4   32.66    5.43
  -3  -1   4   25.65    5.88
   3   1  -3 1161.02   37.53
  -3  -1   3 1166.43   35.42
   3   1  -3 1145.03   24.56
   3   1  -3 1151.30   37.97
   3   1  -2  484.44   10.93
   3   1  -2  494.78   24.10
  -3  -1   2  497.87   19.68
  -3  -1   2  490.33   19.23
   3   1  -1  412.36   22.77
  -3  -1   1  376.35   16.65
   3   1  -1  426.26   16.68
  -3  -1   1  380.39   15.71
   3   1  -1  338.44   17.78
   3   1   0  171.57   16.18
  -3  -1   0  176.43    9.28
  -3  -1   0  186.12    5.74
   3   1   0  173.04   11.51
  -3  -1  -1   16.70    2.95
   3   1   1   19.33    2.99
  -3  -1  -1   16.77    2.63
   3   1   1   14.59    5.93
   3   1   1   16.95    3.29
  -3  -1  -2  232.75   12.28
   3   1   2  267.72   11.30
  -3  -1  -2  264.39    9.73
  -3  -1  -2  245.90   19.33
  -3  -1  -3  683.82   21.03
   3   1   3  638.02   18.59
   3   1   3  691.35   35.19
  -3  -1  -3  742.89   17.83
  -3  -1  -3  638.29   29.93
  -3  -1  -4   -0.09    0.51
   3   1   4    1.00    0.89
  -3  -1  -4    1.21    1.26
  -3  -1  -4    1.65    1.41
  -3  -1  -5 1695.96   33.80
   3   1   5 1413.96   45.16
   3   1   5 1651.35   54.83
   3   1   5 1585.30   34.11
  -3  -1  -5 1391.51   53.48
  -3  -1  -5 1570.64   47.13
  -3  -1  -6  364.94   10.44
   3   1   6  354.83   23.44
   3   1   6  325.15   11.16
  -3  -1  -6  358.37   10.34
  -3  -1  -6  354.17   19.86
  -3  -1  -7  634.52   14.59
   3   1   7  694.62   32.44
  -3  -1  -7  565.46   33.94
  -3  -1  -7  765.92   18.46
  -3  -1  -7  567.69   26.73
  -3  -1  -7  641.84   27.70
   3   1   7  727.93   33.73
  -3  -1  -8   23.06    2.92
   3   1   8   19.02    5.61
   3   1   8    8.19    3.40
  -3  -1  -8   14.62    4.23
  -3  -1  -8   10.87    4.48
  -3  -1  -8   18.42    4.46
  -3  -1  -9   66.58    9.39
  -3  -1  -9   95.70   14.33
   3   1   9   92.59   13.24
   3   1   9   96.75   13.69
  -3  -1 -10  102.56    7.59
  -3  -1 -10   72.60    9.71
  -3  -1 -10   65.52   12.31
   3   1  10   93.74   14.47
   3   1  11   57.64   11.98
  -3  -1 -11   47.08   10.98
  -3  -1 -11   38.74    7.32
   3   1  12   -0.40    3.16
  -3  -1 -12  -15.50    5.09
   3   1  13   27.33    8.80
  -3  -1 -13   16.00    5.53
   3   1  14   10.98    6.66
  -3  -1 -14   -2.72    2.70
   3   2 -11   13.35    6.19
  -3  -2  11   15.95    5.50
  -3  -2  10  106.55   13.91
   3   2 -10  103.85   17.99
   3   2  -9   81.19   15.40
  -3  -2   9   76.50   11.16
  -3  -2   9   88.52    9.12
   3   2  -9   54.64    9.80
   3   2  -8  142.72   12.20
  -3  -2   8  130.61   15.60
   3   2  -8   90.86   12.02
  -3  -2   8  121.58   13.61
  -3  -2   8  157.24   12.60
   3   2  -8  159.39   14.79
   3   2  -8  114.00   17.84
   3   2  -7  264.30   20.08
  -3  -2   7  335.51   21.85
  -3  -2   7  317.20   24.04
   3   2  -7  340.31   29.53
  -3  -2   7  344.09   19.07
   3   2  -7  338.24   20.68
   3   2  -7  347.74   17.92
   3   2  -6   30.15    5.74
  -3  -2   6   26.91    5.42
   3   2  -6   29.48    4.58
   3   2  -6   21.08    6.87
  -3  -2   6   25.29    4.85
  -3  -2   6   31.00    6.94
   3   2  -6   23.68    5.82
  -3  -2   5  679.11   32.93
   3   2  -5  605.71   31.28
  -3  -2   5  669.85   28.77
   3   2  -5  693.34   23.01
   3   2  -5  797.48   32.20
   3   2  -5  751.04   41.47
   3   2  -5  714.35   29.00
  -3  -2   4   29.50    4.52
  -3  -2   4   27.74    4.93
   3   2  -4   26.18    3.49
   3   2  -4   21.52    5.13
   3   2  -4   33.23    5.62
   3   2  -4   27.33    7.47
  -3  -2   3  210.86   11.93
   3   2  -3  185.17   17.31
  -3  -2   3  198.85   12.85
   3   2  -3  201.13    9.36
   3   2  -3  218.91   13.68
  -3  -2   2   43.22    5.33
   3   2  -2   49.51    4.00
   3   2  -2   33.72    6.57
  -3  -2   2   53.93    6.14
   3   2  -1    6.63    1.40
   3   2  -1    2.59    3.56
  -3  -2   1   12.27    2.96
  -3  -2   1   10.72    1.77
  -3  -2   1   15.74    3.68
   3   2   0  460.73   29.01
  -3  -2   0  447.04   17.20
  -3  -2   0  444.78   13.34
   3   2   0  429.53   13.82
   3   2   1  301.77   22.73
  -3  -2  -1  337.21   14.50
  -3  -2  -1  306.22   12.70
   3   2   2  609.63   31.97
  -3  -2  -2  615.34   25.04
   3   2   3 2054.21   43.38
   3   2   3 2138.52   64.24
  -3  -2  -3 2073.21   58.16
   3   2   4  151.40    7.09
   3   2   4  147.99   14.43
  -3  -2  -4  131.25   15.67
  -3  -2  -4  154.09   13.75
   3   2   5  696.57   16.61
   3   2   5  755.37   34.73
  -3  -2  -5  706.05   38.16
  -3  -2  -5  705.59   38.63
   3   2   6   73.37   10.53
   3   2   6   43.84    6.69
   3   2   6   55.32    2.89
  -3  -2  -6   54.04   10.20
   3   2   6   61.72    6.71
  -3  -2  -6   41.35    8.00
   3   2   6   69.86    9.30
  -3  -2  -7  568.60   35.22
  -3  -2  -7  573.69   34.49
  -3  -2  -7  537.03   16.59
   3   2   7  606.83   30.54
   3   2   8    4.14    2.56
   3   2   8    5.20    2.86
  -3  -2  -8    6.98    3.89
  -3  -2  -8    4.36    1.57
  -3  -2  -8    1.43    1.36
   3   2   9   52.96   10.15
  -3  -2  -9   51.93    7.97
   3   2   9   61.38   10.03
  -3  -2  -9   66.04    6.36
  -3  -2  -9   67.36   12.43
  -3  -2  -9   62.28   11.56
   3   2  10   33.99    8.71
  -3  -2 -10   33.42    8.79
   3   2  10   33.31    8.04
  -3  -2 -10   39.74    5.59
  -3  -2 -10   30.67    6.63
  -3  -2 -10   30.68    7.45
  -3  -2 -11  117.90   17.44
  -3  -2 -11   88.37   14.02
   3   2  11  141.07   18.73
   3   2  12   30.01    9.01
  -3  -2 -12    6.44    2.52
  -3  -2 -13   94.10   15.65
   3   2  13  143.52   21.14
   3   2  14   11.50    6.49
  -3  -2 -14    6.49    3.76
  -3  -3  11  102.92   14.44
   3   3 -10   57.39   13.50
  -3  -3  10   44.17    9.02
   3   3  -9   86.05   16.10
  -3  -3   9   90.47   11.15
  -3  -3   9   79.72   11.68
   3   3  -8  239.22   16.75
   3   3  -8  281.43   21.78
   3   3  -8  205.76   24.28
  -3  -3   8  251.70   18.75
  -3  -3   8  201.79   19.39
  -3  -3   8  229.59   19.16
  -3  -3   7   59.97   10.18
  -3  -3   7   54.92    8.69
   3   3  -7   48.28    6.90
  -3  -3   7   58.39    8.65
   3   3  -7   35.37    7.48
   3   3  -7   65.41   13.04
   3   3  -7   52.97    7.34
   3   3  -6   -0.14    1.04
   3   3  -6    4.30    4.03
  -3  -3   6   -1.75    2.28
  -3  -3   6   -0.04    1.92
   3   3  -6    1.05    2.37
  -3  -3   6   -1.39    2.24
   3   3  -6   -0.79    1.25
  -3  -3   5  144.45   14.50
   3   3  -5  140.84   14.66
   3   3  -5  129.15   16.97
  -3  -3   5  136.24   12.32
   3   3  -5  138.17   10.18
   3   3  -5  145.22   10.71
  -3  -3   4   35.35    4.79
  -3  -3   4   31.62    5.50
   3   3  -4   34.72    4.70
   3   3  -4   26.10    6.36
   3   3  -4   34.89    8.36
   3   3  -4   37.73    5.17
   3   3  -3  823.12   37.86
  -3  -3   3  783.55   27.36
  -3  -3   3  766.00   29.16
   3   3  -3  854.22   25.68
   3   3  -3  975.80   44.68
   3   3  -3  918.39   28.22
   3   3  -2  204.92   17.57
   3   3  -2  181.39    9.93
  -3  -3   2  191.25   12.68
   3   3  -1  519.32   28.77
  -3  -3   1  548.52   18.11
  -3  -3   1  562.94   22.86
   3   3  -1  501.98   18.05
   3   3   0  327.09   22.21
  -3  -3   0  313.35   23.53
  -3  -3   0  349.14   13.97
   3   3   0  346.19   14.74
   3   3   1  796.22   35.61
  -3  -3  -1  843.94   25.66
   3   3   1  827.51   25.85
  -3  -3  -2   35.30    5.31
   3   3   2   26.27    4.25
   3   3   2   18.36    5.07
   3   3   3  194.22   16.71
  -3  -3  -3  150.81   13.38
  -3  -3  -4    3.22    1.58
   3   3   4    5.52    1.39
   3   3   4    6.77    4.08
   3   3   5 1311.41   28.25
  -3  -3  -5 1457.01   57.47
   3   3   5 1275.16   41.60
  -3  -3  -5 1354.34   51.07
   3   3   5 1477.19   44.92
   3   3   6   74.35    3.15
   3   3   6   65.90    7.52
  -3  -3  -6   89.20   13.48
   3   3   6   97.79    9.27
  -3  -3  -6   75.45   11.64
   3   3   6   84.57   10.29
  -3  -3  -7  180.80   19.77
   3   3   7  189.81   14.01
   3   3   7  173.44   12.28
  -3  -3  -7  196.58   20.07
   3   3   7  165.80   15.81
  -3  -3  -8   85.73   13.73
  -3  -3  -8   84.40    6.95
  -3  -3  -8   77.93   12.68
   3   3   8   87.29   12.22
  -3  -3  -9  188.84   21.62
   3   3   9  222.83   18.00
  -3  -3  -9  237.84   23.69
   3   3   9  226.76   21.30
   3   3  10   43.87    9.82
  -3  -3 -10   55.92   11.75
   3   3  10   40.75    8.28
  -3  -3 -10   36.83    7.29
  -3  -3 -10   39.43    9.44
   3   3  11  434.61   30.19
  -3  -3 -11  554.28   23.80
  -3  -3 -11  505.39   36.95
   3   3  11  507.68   36.38
   3   3  12   -0.93    2.88
  -3  -3 -12    1.01    1.82
  -3  -3 -13  114.68   19.16
   3   3  13  136.07   20.78
   3   3  14   -1.23    3.20
  -3  -3 -14    7.18    4.91
   3   4 -10   -2.46    4.44
  -3  -4  10   -0.13    2.57
   3   4  -9   40.20   11.02
  -3  -4   9   37.23    8.18
  -3  -4   9   38.32    8.09
   3   4  -8   63.89   13.31
  -3  -4   8   38.05    8.29
  -3  -4   8   50.00    9.10
  -3  -4   8   34.33    7.53
   3   4  -7  244.79   16.64
  -3  -4   7  225.56   19.73
  -3  -4   7  203.83   17.65
   3   4  -7  200.06   23.60
   3   4  -7  210.12   15.83
  -3  -4   7  230.55   19.35
   3   4  -6   16.51    6.79
  -3  -4   6   15.38    4.50
   3   4  -6   15.79    4.42
  -3  -4   6   21.54    5.92
  -3  -4   6   26.98    6.16
   3   4  -6   18.81    4.47
   3   4  -6   31.76    4.23
  -3  -4   5  320.44   21.72
   3   4  -5  351.21   21.35
  -3  -4   5  296.28   19.44
   3   4  -5  333.63   27.85
   3   4  -5  311.79   17.65
  -3  -4   5  326.43   15.55
   3   4  -5  378.99   14.21
   3   4  -4   75.03    9.63
  -3  -4   4   66.82    7.05
  -3  -4   4   74.99    9.11
   3   4  -4   85.04   13.04
   3   4  -4   73.60    7.94
   3   4  -4   93.05    6.13
   3   4  -3  112.81   12.22
  -3  -4   3  119.40   10.88
   3   4  -3  117.62   14.80
   3   4  -3   97.07    8.73
  -3  -4   3  111.75   10.85
   3   4  -3  123.95    7.11
   3   4  -2  512.20   26.86
  -3  -4   2  528.56   21.20
   3   4  -2  564.84   32.30
   3   4  -2  489.33   20.44
  -3  -4   2  514.73   25.09
   3   4  -2  560.67   17.70
   3   4  -1 1209.13   44.87
  -3  -4   1 1304.71   36.19
   3   4  -1 1196.98   35.94
   3   4   0   19.63    3.72
   3   4   0   19.38    4.90
  -3  -4   0   19.46    3.77
   3   4   1    0.99    0.53
   3   4   1    1.35    1.59
  -3  -4  -1    0.65    0.66
   3   4   2  141.46   14.20
  -3  -4  -2  124.38   10.75
   3   4   2  116.96   10.26
   3   4   2  118.43    9.14
   3   4   3  520.15   28.88
  -3  -4  -3  486.30   24.99
   3   4   3  431.76   21.61
   3   4   3  460.28   20.51
  -3  -4  -4   74.32   10.59
   3   4   4   73.90    8.52
   3   4   5   61.49    9.59
  -3  -4  -5   62.19   10.35
   3   4   5   71.90    9.25
   3   4   6    1.12    1.69
  -3  -4  -6    0.40    2.23
   3   4   6    0.07    0.47
   3   4   6    1.74    0.95
  -3  -4  -6    2.71    2.76
   3   4   6    1.00    0.91
   3   4   6    2.75    1.47
  -3  -4  -7  358.18   28.11
  -3  -4  -7  380.09   29.77
   3   4   7  367.77   17.95
   3   4   7  374.65   19.85
   3   4   7  377.16   25.18
  -3  -4  -8   59.93   11.59
  -3  -4  -8   77.39   13.37
   3   4   8   71.88    8.50
   3   4   8   78.61    8.33
   3   4   8   64.62   10.74
  -3  -4  -9  443.03   20.25
  -3  -4  -9  435.76   33.87
   3   4   9  371.97   28.62
  -3  -4 -10  298.07   16.64
  -3  -4 -10  296.71   28.85
   3   4  10  300.50   26.83
   3   4  11   35.82    9.70
  -3  -4 -11   27.51    5.08
  -3  -4 -11   34.98   10.09
   3   4  11   33.44    7.65
  -3  -4 -12   98.07   17.78
   3   4  12  119.44   18.75
  -3  -4 -13   97.33   18.47
   3   4  13  108.77   19.11
   3   4  14    2.92    2.55
  -3  -5  10   -0.61    2.24
   3   5  -9   76.84   15.55
  -3  -5   9   88.93   13.19
  -3  -5   9   94.89   14.02
   3   5  -8   -0.70    2.96
  -3  -5   8   -2.08    3.24
  -3  -5   8    0.71    2.66
  -3  -5   8    0.75    1.30
   3   5  -7   45.07   11.05
  -3  -5   7   63.71   10.21
  -3  -5   7   53.74    9.26
  -3  -5   7   53.55   10.16
   3   5  -6   12.10    5.49
  -3  -5   6   17.02    5.10
  -3  -5   6   15.64    4.82
  -3  -5   6   12.49    4.45
   3   5  -6   15.77    4.32
  -3  -5   5  147.02   14.47
   3   5  -5  160.71   19.55
  -3  -5   5  157.10   10.38
   3   5  -5  142.66   12.87
  -3  -5   5  152.75   14.70
   3   5  -4    7.22    3.87
  -3  -5   4    3.18    1.06
   3   5  -4    7.16    2.78
  -3  -5   4    2.99    1.71
  -3  -5   3  290.88   20.76
   3   5  -3  308.29   24.68
   3   5  -3  300.91   17.87
   3   5  -2  138.29   13.48
  -3  -5   2  145.73   15.39
  -3  -5   2  129.60   11.05
   3   5  -2  115.72   14.03
   3   5  -2  127.22   11.02
  -3  -5   1  199.88   13.38
   3   5  -1  171.78   16.29
   3   5  -1  173.84   13.02
   3   5  -1  180.25    7.23
   3   5   0    1.79    0.95
   3   5   0    4.26    1.38
  -3  -5   0    2.13    4.32
   3   5   0    5.98    2.96
  -3  -5   0    2.89    1.11
  -3  -5  -1  809.23   43.46
  -3  -5  -1  850.97   30.83
   3   5   1  929.15   36.20
   3   5   1  816.82   31.60
   3   5   1  877.81   26.66
   3   5   2   10.44    2.84
   3   5   2   14.72    3.77
  -3  -5  -2    3.27    3.25
  -3  -5  -2    9.99    3.08
  -3  -5  -3  132.89   17.10
  -3  -5  -3  161.56   14.52
   3   5   3  154.91   13.68
   3   5   3  155.63   12.13
  -3  -5  -4  239.53   22.62
  -3  -5  -4  235.96   19.55
   3   5   4  231.90   17.27
   3   5   4  244.67   16.67
  -3  -5  -5  188.53   20.12
   3   5   5  160.64   17.35
  -3  -5  -5  176.70   18.06
   3   5   5  190.84   15.75
  -3  -5  -6  123.66   16.46
   3   5   6  134.35    8.07
   3   5   6  108.06    7.64
   3   5   6  111.96   13.71
  -3  -5  -6  116.49   15.50
   3   5   6  129.69   13.85
   3   5   7  742.59   21.63
   3   5   7  788.52   24.45
  -3  -5  -7  719.45   41.82
   3   5   7  740.02   34.52
   3   5   7  798.48   38.38
   3   5   8  134.60   10.29
   3   5   8  155.64   13.54
  -3  -5  -8  137.07   18.32
   3   5   8  158.16   17.53
   3   5   9   15.05    5.72
  -3  -5  -9   15.22    5.84
   3   5   9   19.03    4.28
   3   5  10    4.43    4.10
  -3  -5 -10    0.69    2.24
   3   5  10    2.83    2.69
  -3  -5 -10    1.65    1.84
  -3  -5 -11   88.48   16.48
   3   5  11   97.86   16.40
   3   5  12   12.00    6.18
  -3  -5 -12    4.20    4.18
  -3  -5 -13   94.11   18.73
   3   5  13  104.71   19.04
  -3  -6   9    2.75    3.30
  -3  -6   9    2.23    2.22
  -3  -6   8   68.67   11.78
   3   6  -8   56.22   13.37
  -3  -6   8   75.49   13.20
   3   6  -7  126.10   18.72
  -3  -6   7  117.11   14.91
  -3  -6   7  123.53   16.76
  -3  -6   7  118.98   13.73
   3   6  -6   12.24    5.91
  -3  -6   6   15.38    5.37
  -3  -6   6   12.07    4.74
  -3  -6   6   14.10    4.58
  -3  -6   5  147.21   14.36
  -3  -6   5  120.12    9.44
   3   6  -5  142.26   18.46
  -3  -6   5  123.22   14.95
   3   6  -4   24.00    6.73
  -3  -6   4   29.63    7.26
   3   6  -4   35.77    6.77
  -3  -6   3  221.92   21.72
   3   6  -3  187.83   19.63
   3   6  -3  211.22   16.32
   3   6  -2    3.64    2.65
  -3  -6   2    3.71    5.11
  -3  -6   2    5.91    2.51
   3   6  -2    3.73    2.19
  -3  -6   1  156.76   22.39
   3   6  -1  128.34   14.44
  -3  -6   1  127.75   11.73
   3   6  -1  142.75   12.99
   3   6   0    1.14    1.47
   3   6   0    0.36    1.93
  -3  -6   0   -1.05    3.64
  -3  -6   0   -1.91    2.20
   3   6   0    0.31    0.51
  -3  -6  -1  697.04   41.40
   3   6   1  710.89   30.83
  -3  -6  -1  727.90   30.46
   3   6   1  687.62   30.84
   3   6   1  748.04   24.64
  -3  -6  -2   71.11    9.27
   3   6   2   64.28    7.98
  -3  -6  -2   55.98   11.11
   3   6   2   67.28    9.29
   3   6   2   66.91    7.47
  -3  -6  -3   94.72   15.00
   3   6   3  102.03    9.06
  -3  -6  -3  110.10   12.39
   3   6   3  101.30   11.94
   3   6   3   93.22    9.86
  -3  -6  -4  236.29   23.11
   3   6   4  213.63   11.48
  -3  -6  -4  245.51   20.56
   3   6   4  246.72   19.32
   3   6   4  209.32   16.35
   3   6   5  827.25   28.01
   3   6   5  824.22   22.05
  -3  -6  -5  876.54   43.36
   3   6   5  948.68   40.11
   3   6   5  844.60   37.03
   3   6   6   25.47    6.40
  -3  -6  -6   30.29    8.19
   3   6   6   21.58    3.92
   3   6   6   28.43    7.92
   3   6   7   54.32   10.11
  -3  -6  -7   51.35   10.97
   3   6   7   47.04    5.66
   3   6   7   39.03    8.54
   3   6   8   34.02    8.51
  -3  -6  -8   37.29    9.84
   3   6   8   26.80    3.02
  -3  -6  -9  218.30   24.67
   3   6   9  234.80   23.52
  -3  -6 -10  114.73   18.50
   3   6  10  115.73   17.31
   3   6  11   58.11   13.35
  -3  -6 -11   65.48   14.23
   3   6  12   34.90   10.61
  -3  -6 -12   36.33   10.78
  -3  -6 -13   69.13   15.92
   3   6  13   97.85   19.28
  -3  -7   9   65.19   13.40
  -3  -7   8   14.14    5.98
  -3  -7   8    9.43    4.73
   3   7  -7    6.06    3.59
  -3  -7   7   13.27    5.74
  -3  -7   7    2.66    4.25
   3   7  -6    0.24    1.52
  -3  -7   6    2.17    3.03
  -3  -7   6    2.14    2.77
  -3  -7   5  246.39   18.63
   3   7  -5  222.86   23.54
  -3  -7   5  183.96   20.65
  -3  -7   5  256.26   25.39
   3   7  -4    0.52    1.33
  -3  -7   4   -1.29    2.55
   3   7  -3  100.09   14.18
  -3  -7   3  142.29   21.66
  -3  -7   3   93.73   19.17
   3   7  -2   79.05   11.92
  -3  -7   2   98.79   11.50
  -3  -7   1  233.97   29.60
   3   7  -1  239.21   19.78
  -3  -7   1  244.17   18.04
   3   7  -1  201.39   17.15
   3   7   0   72.99    9.92
  -3  -7   0   93.83   10.85
  -3  -7   0   76.48   15.07
   3   7   0   79.00   10.46
  -3  -7  -1   77.51   14.53
   3   7   1   66.36    8.94
  -3  -7  -1   76.20    9.99
   3   7   1   82.13    7.55
   3   7   1   86.17   11.00
   3   7   2   30.01    5.37
   3   7   2   33.82    7.23
   3   7   2   29.39    5.30
  -3  -7  -2   23.52    7.67
  -3  -7  -2   28.12    6.22
  -3  -7  -3  606.17   32.13
   3   7   3  584.07   22.26
   3   7   3  589.11   27.27
   3   7   4  231.50   15.34
   3   7   4  226.93   10.06
  -3  -7  -4  263.12   21.88
   3   7   4  237.93   17.96
  -3  -7  -5    5.39    3.97
   3   7   5   -0.53    0.95
   3   7   5    5.43    2.92
   3   7   6   83.44    8.81
  -3  -7  -6  102.76   15.56
   3   7   6  106.97   13.68
   3   7   7  484.61   23.03
  -3  -7  -7  534.43   37.75
   3   7   7  561.28   34.48
   3   7   8    5.70    3.71
  -3  -7  -8    5.28    2.90
   3   7   8    7.31    2.67
   3   7   9  258.87    9.36
  -3  -7  -9  190.83   23.77
   3   7   9  184.81   21.63
   3   7  10   25.42    8.77
  -3  -7 -10   38.18   10.90
  -3  -7 -11   90.27   17.30
   3   7  11  115.23   18.85
   3   7  12    7.80    5.76
  -3  -7 -12    8.75    6.00
   3   8  -7   52.89   12.23
  -3  -8   7   48.56   12.07
   3   8  -6  164.47   20.91
  -3  -8   6  202.22   24.34
   3   8  -5    0.65    1.56
  -3  -8   5    0.45    3.48
  -3  -8   5    1.27    1.77
   3   8  -4   33.17    8.64
  -3  -8   4   32.95   11.36
   3   8  -3  173.45   18.94
  -3  -8   3  329.82   42.98
   3   8  -2   32.99    7.83
  -3  -8   2   60.04   19.66
  -3  -8   2   46.69    8.68
  -3  -8   1   91.36   11.83
   3   8  -1   80.72   11.50
  -3  -8   1  103.03   20.80
   3   8   0   65.58    9.47
  -3  -8   0   66.00    9.90
   3   8   1  193.60   15.14
  -3  -8  -1  200.39   17.74
   3   8   2   80.73    9.90
   3   8   2   82.30    8.46
  -3  -8  -2   89.55   12.15
   3   8   2  103.21   10.43
   3   8   3   18.32    4.70
  -3  -8  -3   21.79    6.39
   3   8   3   16.92    3.23
   3   8   3   16.39    4.54
   3   8   4   83.62    4.09
   3   8   4   80.51    9.61
  -3  -8  -4   85.04   12.93
   3   8   4   94.80   11.99
   3   8   5  113.54   11.31
  -3  -8  -5  125.12   16.69
   3   8   5  120.66   14.31
   3   8   6    6.91    3.65
   3   8   6    1.64    1.01
  -3  -8  -6    3.22    4.16
   3   8   7  186.83   15.12
  -3  -8  -7  217.40   24.63
   3   8   7  218.71   21.89
   3   8   8    8.39    4.61
  -3  -8  -8    6.32    4.34
   3   8   8    6.82    2.87
  -3  -8  -9   87.71   16.79
   3   8   9  106.28   16.92
   3   8  10   -3.07    3.99
  -3  -8 -10    0.22    2.77
   3   8  11   33.70   10.37
  -3  -8 -11   36.94   11.38
   3   8  12    3.51    4.69
   3   9  -6   11.00    6.08
   3   9  -5    3.55    3.00
  -3  -9   5   11.03    6.89
   3   9  -4   16.63    5.92
  -3  -9   4   16.06    7.34
   3   9  -3  103.39   14.32
  -3  -9   3  227.02   44.73
   3   9  -2   30.11    7.29
   3   9  -2   28.44    7.18
  -3  -9   2   28.47    7.23
   3   9  -1   38.76    7.81
   3   9  -1   46.14    8.50
  -3  -9   1   46.07    8.93
   3   9   0   87.68   11.67
   3   9   0   93.53   10.98
  -3  -9   0   85.88   12.12
  -3  -9  -1   89.05   12.49
   3   9   1  108.73   10.74
   3   9   1   78.50   10.91
   3   9   2  240.98   13.95
   3   9   2  222.63   18.15
  -3  -9  -2  231.19   21.06
   3   9   3  162.52    8.88
   3   9   3  139.92   13.96
  -3  -9  -3  181.92   19.28
   3   9   3  191.08   16.59
   3   9   4    2.81    1.66
  -3  -9  -4    4.28    2.96
   3   9   4    5.11    2.92
   3   9   5   43.56    7.42
  -3  -9  -5   67.96   12.97
   3   9   5   52.25    9.81
   3   9   6   -0.34    0.96
  -3  -9  -6    1.26    1.33
   3   9   7   10.60    3.58
   3   9   7   24.41    7.41
  -3  -9  -7   13.15    6.18
  -3  -9  -8   -0.59    3.71
   3   9   8    2.44    1.55
   3   9   8    4.05    3.63
  -3  -9  -9   51.87   13.27
   3   9   9   56.20   12.57
  -3  -9 -10    2.66    2.18
   3   9  10    2.35    2.09
   3   9  11   23.87    9.76
   3  10  -5   23.74    7.69
   3  10  -4    6.99    3.90
   3  10  -3    5.27    2.97
   3  10  -2    0.11    1.74
  -3 -10   2    1.27    2.12
   3  10  -2    1.19    2.02
   3  10  -1  112.78   12.96
   3  10  -1  102.98   13.86
  -3 -10   1  115.20   15.32
   3  10   0  123.61   14.95
  -3 -10   0  126.42   16.01
   3  10   1   46.26    8.84
  -3 -10  -1   48.32    9.83
   3  10   2   64.49   10.35
  -3 -10  -2   70.24   12.18
   3  10   3   65.59   10.08
  -3 -10  -3   85.78   13.85
   3  10   4    3.54    2.45
  -3 -10  -4    7.04    3.86
   3  10   5   14.43    4.64
  -3 -10  -5   20.63    7.25
   3  10   5   25.96    7.03
   3  10   6    2.50    2.07
  -3 -10  -6    3.94    1.43
   3  10   6    3.78    2.78
   3  10   7   84.63   11.27
   3  10   7  106.64   16.72
  -3 -10  -7   98.13   17.60
   3  10   8   -0.89    2.25
  -3 -10  -8    4.40    4.95
   3  10   9   64.67   14.12
   3  10  10   53.37   13.36
  -3 -11   1   21.69    6.95
  -3 -11   0    2.98    1.28
   3  11   1   37.85    8.39
  -3 -11  -1   37.65    9.27
   3  11   2    5.10    3.36
  -3 -11  -2   -3.77    2.47
   3  11   3   52.23    9.65
  -3 -11  -3   57.60   12.17
   3  11   4   18.43    5.25
  -3 -11  -4   27.13    8.67
   3  11   5   89.89   12.45
  -3 -11  -5   98.77   17.15
   3  11   6    2.32    2.10
  -3 -11  -6   12.67    6.13
   3  11   8   17.51    7.05
   3  11   9  101.54   18.14
   3  12   4    9.68    4.23
   3  12   5    6.73    3.55
   4 -10  -6   27.01    7.83
   4 -10  -5   -3.48    3.28
   4 -10  -4   62.49   11.67
   4 -10  -3   28.80    7.79
   4 -10  -3   42.32    9.61
   4 -10  -2   31.36    8.23
   4 -10  -2   41.28    9.29
   4 -10  -1   67.75   12.46
   4 -10  -1   48.17   10.07
   4 -10   0   36.43    8.33
   4 -10   0   49.35   11.01
   4 -10   1   33.13    7.84
   4 -10   1   24.26    7.64
   4 -10   2    6.14    3.27
   4  -9  -8   65.95   12.45
  -4   9   7    7.98    4.48
   4  -9  -7   29.70    8.04
  -4   9   6   58.23   11.12
   4  -9  -6   44.18    9.54
  -4   9   5    8.43    3.74
   4  -9  -5    2.43    2.45
  -4   9   4   88.44   11.97
   4  -9  -4   95.37   13.51
   4  -9  -4   81.62   11.82
  -4   9   3    4.24    2.73
   4  -9  -3   -1.75    1.71
   4  -9  -3    4.23    2.86
  -4   9   2   64.49    9.91
   4  -9  -2   64.09   11.11
   4  -9  -2   46.43    9.71
  -4   9   1    0.73    2.00
   4  -9  -1    2.23    2.78
   4  -9  -1    0.62    1.09
   4  -9   0    9.85    4.26
  -4   9   0   14.18    4.50
   4  -9   0   11.60    4.89
   4  -9   0   16.96    5.64
   4  -9   1   47.57    9.26
  -4   9  -1   64.56    9.74
   4  -9   1   62.01   11.85
  -4   9  -2  120.08   13.53
   4  -9   2  135.69   18.18
   4  -9   2  119.77   13.49
   4  -9   3    1.83    1.58
  -4   9  -3   -0.01    2.01
   4  -9   3    5.26    4.41
  -4   8   9    5.17    3.83
  -4   8   8  117.80   17.41
   4  -8  -8  108.39   15.10
  -4   8   7   -1.05    2.11
   4  -8  -7    4.23    2.97
  -4   8   6   73.32   11.92
   4  -8  -6   68.34   11.34
  -4   8   5   40.95    8.16
   4  -8  -5   40.83    8.56
  -4   8   4  165.81   15.79
   4  -8  -4  164.52   16.85
   4  -8  -4  175.04   15.59
  -4   8   3   64.57    9.43
   4  -8  -3   64.87   10.28
   4  -8  -3   73.94   10.92
  -4   8   2   57.57    9.12
   4  -8  -2   49.61    9.53
   4  -8  -2   46.01    9.04
  -4   8   1  195.30   15.99
   4  -8  -1  187.80   17.54
   4  -8  -1  172.68   17.85
   4  -8   0  354.29   25.26
  -4   8   0  382.46   22.91
   4  -8   0  427.51   26.80
   4  -8   0  395.35   28.32
   4  -8   1    5.70    2.64
  -4   8  -1   10.79    3.87
   4  -8   1    4.02    3.16
  -4   8  -2  214.96   17.25
   4  -8   2  212.04   21.56
   4  -8   2  212.99   17.23
   4  -8   3    3.87    2.48
  -4   8  -3    3.43    1.11
   4  -8   4   32.09    6.29
  -4   8  -4   39.09    7.47
   4  -8   4   29.00    8.56
  -4   8  -5    8.49    4.14
   4  -8   5    9.49    5.53
  -4   8  -6   88.70   11.68
   4  -8   6  110.58   16.50
  -4   8  -7    1.09    1.57
  -4   7  10   30.94    8.66
  -4   7   9    7.47    3.40
   4  -7  -9   22.37    6.43
  -4   7   8  133.91   18.14
   4  -7  -8  153.18   17.16
  -4   7   7    5.85    3.46
   4  -7  -7    3.83    2.90
  -4   7   6   59.07   10.58
   4  -7  -6   63.73   10.14
  -4   7   5    2.75    2.88
   4  -7  -5    2.67    1.93
   4  -7  -5    2.94    2.19
  -4   7   4  222.30   17.92
   4  -7  -4  214.02   15.26
   4  -7  -4  206.28   17.50
  -4   7   3   -0.76    1.60
   4  -7  -3    1.79    2.15
   4  -7  -3   -2.41    2.89
  -4   7   2  556.97   26.96
   4  -7  -2  554.29   28.76
   4  -7  -2  577.30   29.83
  -4   7   1   59.58    8.08
   4  -7  -1   66.78    9.68
   4  -7  -1   61.16    9.82
  -4   7   0   72.84    8.99
   4  -7   0   70.82    9.84
   4  -7   0   67.48   10.00
   4  -7   0   78.76   11.34
   4  -7   1   38.08    7.03
  -4   7  -1   30.19    5.85
   4  -7   1   34.94    7.85
  -4   7  -2  195.20   15.31
   4  -7   2  183.68   15.29
   4  -7   2  174.58   18.30
   4  -7   3    2.02    1.60
  -4   7  -3    6.62    3.46
   4  -7   3    5.68    3.30
  -4   7  -4  162.90   14.34
   4  -7   4  149.11   13.05
   4  -7   4  149.86   17.70
  -4   7  -5    3.97    2.74
   4  -7   5    2.27    3.01
   4  -7   5    1.03    1.61
  -4   7  -6  223.86   17.52
   4  -7   6  251.01   18.84
   4  -7   6  226.32   22.40
  -4   7  -7    1.49    1.96
   4  -7   7    1.08    2.09
  -4   7  -8  350.58   22.40
  -4   7  -9   -0.45    1.50
  -4   7 -10   76.19   10.59
  -4   6   9   34.08    8.99
   4  -6  -9   15.91    6.36
   4  -6  -9   25.07    6.93
  -4   6   8   34.47    8.87
   4  -6  -8   39.78    8.15
  -4   6   7   33.79    8.37
   4  -6  -7   30.33    6.96
  -4   6   6  100.19   13.32
   4  -6  -6  109.40   12.51
  -4   6   6  117.39    6.63
  -4   6   5   57.56   11.25
  -4   6   5   40.76    7.71
   4  -6  -5   45.77    7.72
  -4   6   4  332.70   21.08
   4  -6  -4  378.31   17.63
   4  -6  -4  343.72   21.17
  -4   6   4  348.22   26.43
  -4   6   3   12.01    4.83
  -4   6   3   11.52    3.98
   4  -6  -3   10.23    3.04
   4  -6  -3    5.21    2.51
  -4   6   2   21.25    6.12
  -4   6   2    7.18    2.84
   4  -6  -2   12.01    3.91
   4  -6  -2   10.90    3.68
  -4   6   1   19.02    5.74
   4  -6  -1   15.49    4.52
  -4   6   1   18.19    4.26
   4  -6  -1   17.31    4.74
  -4   6   1   16.33    4.63
   4  -6  -1   21.93    5.14
  -4   6   0   90.16    9.52
   4  -6   0   89.08    9.08
   4  -6   0  107.15   12.02
   4  -6   0   83.91    9.89
   4  -6   0   87.20   11.03
  -4   6   0   73.98    9.64
   4  -6   1   -0.22    1.09
  -4   6  -1   -0.52    1.63
  -4   6  -1    1.08    0.58
   4  -6   1    2.74    2.86
  -4   6  -2  407.41   21.49
   4  -6   2  425.36   22.57
   4  -6   2  403.89   26.14
  -4   6  -2  433.66   20.42
   4  -6   3    0.65    1.23
  -4   6  -3   -0.18    0.87
  -4   6  -4  261.19   17.35
   4  -6   4  280.28   17.63
   4  -6   4  256.70   21.57
  -4   6  -5   35.58    6.77
   4  -6   5   19.79    6.52
   4  -6   5   20.14    5.11
  -4   6  -6  127.23   12.70
   4  -6   6  136.87   14.21
   4  -6   6  134.80   16.60
  -4   6  -7    1.66    2.63
   4  -6   7    1.19    1.29
   4  -6   7    1.19    2.65
  -4   6  -8  372.51   21.88
   4  -6   8  436.64   30.26
  -4   6  -9    0.20    1.86
   4  -6   9    4.05    2.85
  -4   6 -10   69.22    9.30
   4  -5 -11    9.50    4.11
   4  -5 -11   16.59    6.79
   4  -5 -10   -0.04    2.40
   4  -5 -10   -0.29    2.94
   4  -5  -9    2.99    1.41
  -4   5   9    0.02    2.00
   4  -5  -9    2.40    3.78
   4  -5  -9    6.35    3.33
  -4   5   8  207.98   21.63
   4  -5  -8  236.16   19.22
  -4   5   7   23.57    6.71
   4  -5  -7   15.10    4.38
  -4   5   6   27.12    6.77
  -4   5   6   19.81    3.33
   4  -5  -6   16.01    4.53
  -4   5   5  114.19   12.85
   4  -5  -5  106.68   11.00
  -4   5   5  126.61    6.96
  -4   5   5  125.80   15.79
  -4   5   4    4.84    3.11
  -4   5   4    0.07    1.06
  -4   5   4    7.87    4.37
   4  -5  -4    3.00    2.34
  -4   5   3   35.79    7.25
  -4   5   3   32.91    7.47
  -4   5   3   32.23    5.95
   4  -5  -3   32.45    5.50
  -4   5   2  559.10   25.13
   4  -5  -2  567.43   25.03
   4  -5  -2  571.25   29.63
   4  -5  -2  547.59   24.07
   4  -5  -2  604.88   23.72
  -4   5   2  532.65   29.79
  -4   5   2  539.99   28.63
  -4   5   1   12.10    3.97
   4  -5  -1   17.73    4.59
   4  -5  -1   14.52    3.61
  -4   5   1   14.31    3.62
  -4   5   1    9.96    3.60
   4  -5  -1   13.76    3.69
   4  -5  -1   12.77    3.62
  -4   5   0  183.71   12.98
  -4   5   0  177.78   15.19
   4  -5   0  184.62   15.10
   4  -5   0  200.20   14.03
   4  -5   0  200.55   12.96
  -4   5   0  190.27   17.06
  -4   5   0  185.07   16.03
   4  -5   0  183.96   14.38
   4  -5   1    0.85    0.89
  -4   5  -1    4.90    2.59
   4  -5   1    2.42    1.58
   4  -5   1    4.55    3.09
  -4   5  -1    2.27    1.81
  -4   5  -1    2.98    2.02
  -4   5  -1    0.21    0.83
  -4   5  -2   97.87    9.58
  -4   5  -2  112.18   10.60
   4  -5   2  117.55    8.97
   4  -5   2  111.14   10.67
   4  -5   2  113.37   12.48
  -4   5  -2  113.84   12.69
  -4   5  -3   90.61    8.88
  -4   5  -3  102.55    9.69
   4  -5   3   98.17    9.89
   4  -5   3  113.04   12.78
  -4   5  -4  197.27   12.06
  -4   5  -4  204.54   14.18
   4  -5   4  225.64   15.58
   4  -5   4  203.14   18.13
  -4   5  -5   14.49    3.83
   4  -5   5   10.43    4.41
  -4   5  -5    6.43    1.80
   4  -5   5   10.61    4.01
  -4   5  -6    1.68    1.03
   4  -5   6    2.30    1.84
   4  -5   6    2.54    2.63
   4  -5   7   -0.11    2.49
  -4   5  -7   -0.25    1.12
   4  -5   7    0.06    0.43
   4  -5   7    2.15    2.64
  -4   5  -8  208.07   15.33
   4  -5   8  256.55   21.82
  -4   5  -9    2.78    1.91
  -4   5 -10  291.59   18.46
   4  -5  10  380.68   41.63
   4  -5  11    2.47    3.39
   4  -4 -12   16.35    5.23
   4  -4 -12   11.25    5.62
   4  -4 -11   11.13    4.47
   4  -4 -11    3.08    3.00
   4  -4 -10   86.61   12.36
   4  -4 -10   71.73   14.65
   4  -4  -9   16.08    4.89
   4  -4  -9   19.59    5.91
   4  -4  -9   18.20    7.35
  -4   4   8   77.38   12.71
   4  -4  -8   89.10   12.11
   4  -4  -7   15.47    4.77
  -4   4   7   13.74    4.22
   4  -4  -7   18.18    4.89
  -4   4   6   37.27    8.67
   4  -4  -6   32.37    6.95
  -4   4   6   43.08    8.59
   4  -4  -6   48.25    6.99
  -4   4   5  121.53   13.30
   4  -4  -5  128.24   14.11
   4  -4  -5  130.05   11.01
  -4   4   5  134.14   15.99
  -4   4   5  102.71    8.67
  -4   4   4  536.94   32.40
   4  -4  -4  590.86   30.32
   4  -4  -4  559.88   23.58
  -4   4   4  636.61   18.62
  -4   4   3  200.37   14.83
  -4   4   3  183.92   17.45
   4  -4  -3  189.10   16.31
   4  -4  -3  198.75   12.58
   4  -4  -3  188.07   13.84
  -4   4   2  177.39   13.10
  -4   4   2  160.01   15.63
   4  -4  -2  180.11   12.87
   4  -4  -2  178.45   14.97
   4  -4  -2  176.62   11.53
   4  -4  -1   21.33    4.91
  -4   4   1   20.66    4.29
   4  -4  -1   28.95    5.48
  -4   4   1   21.86    5.60
   4  -4  -1   15.44    3.66
   4  -4  -1   20.79    3.88
   4  -4   0   26.60    4.83
   4  -4   0   19.82    4.59
  -4   4   0   27.03    5.74
  -4   4   0   20.15    3.96
   4  -4   0   17.08    4.15
   4  -4   0   20.34    3.63
  -4   4   0   20.13    5.14
   4  -4   0   21.36    4.07
  -4   4  -1  128.18   10.04
   4  -4   1  138.56   12.67
   4  -4   1  137.05    9.40
   4  -4   1  137.21   11.66
   4  -4   1  141.70   11.85
  -4   4  -1  128.23   13.78
  -4   4  -1  128.31   12.08
  -4   4  -1  120.96   11.62
  -4   4  -2  321.60   16.33
   4  -4   2  315.46   19.84
   4  -4   2  323.98   14.24
   4  -4   2  338.80   18.32
   4  -4   2  343.03   19.64
  -4   4  -2  319.70   19.81
  -4   4  -2  337.94   23.77
   4  -4   3   19.91    4.34
  -4   4  -3   22.35    4.66
   4  -4   3   21.87    5.65
   4  -4   3   21.52    3.20
   4  -4   3   19.95    4.76
  -4   4  -3   24.79    6.53
   4  -4   3   24.28    5.90
  -4   4  -3   20.41    4.97
  -4   4  -4   81.83    8.15
   4  -4   4   76.40    9.74
   4  -4   4   95.15   10.11
   4  -4   4   95.97    6.38
   4  -4   4   93.07   10.93
  -4   4  -4   92.65   10.99
   4  -4   5    4.96    3.00
  -4   4  -5    2.45    1.61
   4  -4   5    1.83    2.29
   4  -4   5    1.96    2.32
  -4   4  -6   66.64    7.62
   4  -4   6   74.58    4.80
   4  -4   6   89.20   11.37
   4  -4   6   61.56   10.60
  -4   4  -7    1.03    1.53
   4  -4   7   -0.23    0.25
   4  -4   7    4.03    4.63
  -4   4  -8   51.92    6.84
   4  -4   8   48.77   12.07
  -4   4  -9    1.39    1.18
  -4   4 -10  148.89   12.11
   4  -4  10  199.61   29.48
   4  -4  11   -3.78    4.19
  -4   4 -11    1.24    1.84
   4  -4  12   26.52   11.03
   4  -3 -12   32.56   10.48
   4  -3 -11    1.28    1.48
   4  -3 -11   -1.96    3.91
   4  -3 -10   53.02    9.02
   4  -3 -10   39.98   10.99
   4  -3  -9   -0.06    2.00
   4  -3  -9    0.33    1.22
   4  -3  -9    1.23    2.41
   4  -3  -8  214.41   17.98
   4  -3  -8  244.22   18.04
   4  -3  -7   -0.52    1.30
   4  -3  -7    0.22    2.09
  -4   3   7    0.14    1.78
  -4   3   6  490.19   31.30
   4  -3  -6  504.95   27.10
  -4   3   6  502.72   33.42
   4  -3  -6  562.02   23.82
  -4   3   5  466.25   28.08
   4  -3  -5  451.66   24.84
  -4   3   5  426.83   29.23
   4  -3  -5  438.22   19.29
   4  -3  -4    3.66    1.89
  -4   3   4    0.48    2.80
  -4   3   4    6.39    4.73
  -4   3   4    3.57    1.48
   4  -3  -4    2.82    1.62
   4  -3  -3    0.48    1.51
  -4   3   3    4.60    2.30
  -4   3   3    2.47    2.10
   4  -3  -3   -0.41    1.40
   4  -3  -3    2.79    2.08
  -4   3   3    5.19    3.18
  -4   3   3    0.75    1.06
  -4   3   3    4.03    1.70
   4  -3  -3    2.42    1.32
   4  -3  -3    2.46    2.05
  -4   3   2  684.32   33.51
  -4   3   2  727.61   28.54
   4  -3  -2  725.71   28.23
   4  -3  -2  699.21   26.82
   4  -3  -2  746.14   30.39
   4  -3  -2  714.75   22.69
  -4   3   2  707.96   27.44
  -4   3   2  770.40   27.57
  -4   3   2  752.71   21.16
  -4   3   1   39.84    7.39
  -4   3   1   43.99    6.01
   4  -3  -1   44.37    6.35
   4  -3  -1   40.85    5.50
   4  -3  -1   51.90    7.15
   4  -3  -1   45.82    5.09
  -4   3   1   46.20    6.03
   4  -3   0 1080.92   35.70
  -4   3   0  987.99   31.62
   4  -3   0 1103.82   35.88
   4  -3   0 1068.54   31.10
  -4   3   0  946.54   32.32
   4  -3   1   -0.02    0.95
  -4   3  -1   -0.57    1.54
   4  -3   1    0.84    1.50
   4  -3   1    0.03    0.85
  -4   3  -1   -1.34    1.35
  -4   3  -1   -0.45    1.17
   4  -3   2   11.48    3.44
  -4   3  -2    8.82    2.73
   4  -3   2    6.20    2.57
   4  -3   2    8.63    2.03
  -4   3  -2   11.91    3.96
  -4   3  -3    3.41    2.09
   4  -3   3    0.44    1.79
   4  -3   3    1.69    0.85
  -4   3  -3    1.67    2.37
  -4   3  -3    1.73    1.45
   4  -3   3    3.76    2.05
   4  -3   4  403.54   25.07
  -4   3  -4  424.83   18.34
   4  -3   4  438.45   22.78
   4  -3   4  449.24   24.27
   4  -3   4  460.17   13.62
  -4   3  -4  458.47   24.08
  -4   3  -4  445.73   27.67
  -4   3  -5   79.50    7.49
   4  -3   5   60.84    8.33
   4  -3   5   69.81   10.76
  -4   3  -5   81.67   10.31
   4  -3   5   79.10    4.02
  -4   3  -6  205.44   12.64
   4  -3   6  175.15   15.08
   4  -3   6  192.06   20.08
  -4   3  -7    6.74    2.18
   4  -3   7   10.86    6.73
  -4   3  -8  181.88   12.14
   4  -3   8  180.45   22.09
  -4   3  -9   -2.17    1.30
   4  -3   9    1.01    2.88
   4  -3  10   90.52   18.94
  -4   3 -10   76.40    7.85
   4  -3  11    5.95    5.63
  -4   3 -11    3.21    1.63
   4  -3  12   19.08    9.51
  -4   3 -12   24.55    5.86
   4  -3  13   -1.49    2.04
  -4   3 -13    4.56    2.89
   4  -2 -12   40.44   12.34
   4  -2 -11   -0.93    1.35
   4  -2 -11    1.17    3.21
   4  -2 -10   42.10    7.53
   4  -2 -10   53.29   13.45
   4  -2  -9   38.42    7.17
   4  -2  -9   41.26    7.68
  -4   2   9   46.30    8.56
  -4   2   8  147.26   14.92
   4  -2  -8  127.83   12.94
   4  -2  -8  108.45   17.81
   4  -2  -8  160.56   13.85
  -4   2   8  134.86   17.94
  -4   2   7  345.77   22.24
   4  -2  -7  350.56   21.48
   4  -2  -7  396.08   20.34
  -4   2   6  168.79   14.51
   4  -2  -6  171.91   14.44
  -4   2   6  181.40   19.45
   4  -2  -6  184.67   12.26
  -4   2   5   42.44    9.11
   4  -2  -5   40.64    6.97
  -4   2   5   32.11    6.80
  -4   2   5   39.61    6.64
   4  -2  -5   46.81    5.33
  -4   2   4  637.63   32.13
   4  -2  -4  711.72   27.74
  -4   2   4  609.76   34.02
  -4   2   4  627.83   26.86
   4  -2  -4  606.96   25.91
   4  -2  -4  626.99   27.55
  -4   2   4  572.17   19.00
   4  -2  -4  636.02   19.55
   4  -2  -4  600.13   33.34
  -4   2   3   83.37   11.55
  -4   2   3   95.75   10.73
   4  -2  -3  101.14    9.51
  -4   2   3   95.54    9.22
   4  -2  -3   95.63    9.28
   4  -2  -3  105.62   10.37
   4  -2  -3   88.79    5.81
  -4   2   3   91.00    7.73
  -4   2   3   86.64   10.27
   4  -2  -3   95.43   12.21
  -4   2   2  693.25   27.98
   4  -2  -2  667.29   26.01
  -4   2   2  620.55   24.05
   4  -2  -2  651.26   26.87
   4  -2  -2  640.50   24.67
   4  -2  -2  650.85   18.35
  -4   2   2  626.17   23.98
  -4   2   2  662.22   24.30
  -4   2   2  676.52   23.06
  -4   2   2  626.86   31.15
  -4   2   1    0.46    0.50
   4  -2  -1   -0.16    0.87
  -4   2   1    4.63    2.36
   4  -2  -1    1.51    1.66
  -4   2   1    2.19    1.78
  -4   2   1    0.78    1.30
  -4   2   0  149.37   10.64
   4  -2   0  159.22   10.07
   4  -2   0  160.32   12.02
  -4   2   0  153.11    9.62
  -4   2   0  156.35    9.04
   4  -2   1    2.64    1.75
  -4   2  -1    0.45    1.51
   4  -2   1    0.69    0.78
  -4   2  -1    1.57    1.03
  -4   2  -1   -0.57    1.04
   4  -2   1    3.68    2.72
  -4   2  -2  850.81   26.62
   4  -2   2  890.43   30.86
   4  -2   2  909.62   32.66
   4  -2   2  883.08   23.24
  -4   2  -2  845.91   33.59
  -4   2  -2  862.00   28.55
  -4   2  -3  264.79   13.16
   4  -2   3  274.99   16.25
   4  -2   3  254.38   17.95
   4  -2   3  290.70    9.94
  -4   2  -3  266.68   18.85
  -4   2  -4  609.04   21.33
   4  -2   4  553.41   24.94
   4  -2   4  565.60   30.46
  -4   2  -4  604.55   25.95
   4  -2   4  656.04   13.77
  -4   2  -4  632.82   25.80
  -4   2  -4  607.49   30.40
  -4   2  -5   -0.77    1.22
   4  -2   5    4.06    2.86
   4  -2   5    4.49    2.72
  -4   2  -5    0.46    2.07
   4  -2   5    1.66    1.69
  -4   2  -6  190.12   10.96
   4  -2   6  172.69   13.65
   4  -2   6  204.51   21.75
  -4   2  -6  179.58   12.54
  -4   2  -7   11.99    3.25
  -4   2  -7   15.12    3.09
   4  -2   7    8.82    2.83
   4  -2   7    2.93    3.51
  -4   2  -8   86.65    7.36
   4  -2   8   97.70   15.16
  -4   2  -8   72.56    7.51
  -4   2  -9    0.06    0.88
  -4   2  -9    0.17    0.68
   4  -2   9    3.36    3.62
  -4   2  -9    0.09    1.40
  -4   2 -10  274.11   13.90
  -4   2 -10  247.77   16.74
   4  -2  10  243.05   28.97
   4  -2  11   14.34    7.69
  -4   2 -11   15.46    3.20
  -4   2 -11    8.20    2.99
   4  -2  12  104.90   20.79
  -4   2 -12  150.90   13.46
   4  -2  13    0.12    1.91
  -4   2 -13   -0.45    1.47
   4  -2  14   17.29    8.70
  -4   2 -14   33.52    7.02
   4  -1 -11   36.76   11.25
  -4   1  11   41.87    9.01
  -4   1  10   44.53    9.12
   4  -1 -10   42.22   11.69
   4  -1 -10   39.76    7.65
   4  -1  -9    4.00    1.89
   4  -1  -9    2.89    1.83
  -4   1   9    3.32    2.50
   4  -1  -9    5.46    4.22
  -4   1   8  160.56   15.97
   4  -1  -8  152.31   13.84
   4  -1  -8  165.62   22.53
   4  -1  -8  183.93   14.72
  -4   1   8  151.28   18.95
   4  -1  -7    0.62    1.67
   4  -1  -7   -0.96    1.82
  -4   1   7   -0.84    1.56
  -4   1   7    1.65    1.69
  -4   1   6  219.19   21.51
  -4   1   6  239.12   17.92
   4  -1  -6  253.46   17.07
   4  -1  -6  278.61   14.42
  -4   1   5   81.39   12.58
  -4   1   5   86.19    9.94
   4  -1  -5   92.94    9.91
  -4   1   5   85.70    5.04
   4  -1  -5   99.94    6.97
   4  -1  -5  102.60   13.64
   4  -1  -4   17.20    4.62
  -4   1   4   12.57    4.84
  -4   1   4   14.80    4.71
   4  -1  -4   23.25    4.67
  -4   1   4   17.35    2.89
   4  -1  -4   11.78    1.91
   4  -1  -4   14.67    4.75
  -4   1   3  318.07   21.17
   4  -1  -3  318.98   17.42
   4  -1  -3  368.19   19.65
  -4   1   3  343.76   18.56
   4  -1  -3  339.19   17.07
   4  -1  -3  337.86    9.04
  -4   1   3  360.02   14.07
   4  -1  -3  363.01   23.25
  -4   1   3  330.69   23.00
  -4   1   2  318.39   19.51
   4  -1  -2  338.84   18.63
  -4   1   2  322.56   16.86
   4  -1  -2  318.28   15.99
  -4   1   2  322.78   13.91
  -4   1   2  278.99   21.71
  -4   1   1   15.59    3.79
   4  -1  -1   23.45    3.85
  -4   1   1   20.84    3.95
  -4   1   1   21.61    3.64
  -4   1   1   23.02    2.52
  -4   1   1   12.80    2.73
   4  -1  -1   24.77    5.06
  -4   1   0 2517.07   59.54
   4  -1   0 2626.31   64.09
  -4   1   0 2572.16   55.96
   4  -1   0 2569.66   54.12
  -4   1   0 2339.65   56.63
  -4   1   0 2502.21   50.09
  -4   1   0 2420.43   58.75
  -4   1  -1  460.52   19.10
   4  -1   1  474.12   23.72
  -4   1  -1  509.08   17.43
   4  -1   1  499.10   16.01
  -4   1  -1  495.38   16.79
  -4   1  -1  487.16   19.09
  -4   1  -2  771.67   25.27
  -4   1  -2  838.77   22.00
   4  -1   2  833.56   20.72
  -4   1  -2  803.39   29.63
  -4   1  -2  808.78   25.16
  -4   1  -2  847.80   26.32
  -4   1  -3   24.20    4.52
  -4   1  -3   51.61    6.48
   4  -1   3   22.84    2.22
  -4   1  -3   22.19    4.85
  -4   1  -3   47.98    6.53
   4  -1   3   20.82    6.28
  -4   1  -4    1.84    1.54
  -4   1  -4    2.75    1.70
   4  -1   4    2.53    4.49
  -4   1  -4    3.45    2.10
  -4   1  -5   71.30    5.89
   4  -1   5   54.71    6.62
   4  -1   5   64.74   12.19
  -4   1  -5   79.05    7.59
  -4   1  -5   66.74    7.60
  -4   1  -6   87.07    6.50
   4  -1   6   79.30   11.46
   4  -1   6  103.42   15.15
   4  -1   6   72.93    7.78
  -4   1  -6   84.72    8.48
  -4   1  -6   64.82    9.80
  -4   1  -6   85.10    8.50
  -4   1  -7   39.60    4.46
  -4   1  -7   34.67    5.50
   4  -1   7   31.46    5.32
   4  -1   7   45.99    9.72
  -4   1  -7   41.94    6.08
  -4   1  -8  491.21   17.17
  -4   1  -8  448.80   21.03
  -4   1  -8  439.30   21.69
  -4   1  -9   70.27    5.96
  -4   1  -9   75.81    8.20
   4  -1   9   71.71   12.80
  -4   1  -9   72.58    8.62
  -4   1 -10  396.69   15.18
  -4   1 -10  384.20   19.14
  -4   1 -10  379.68   20.83
   4  -1  10  398.55   35.19
   4  -1  11    8.84    4.76
  -4   1 -11   15.93    4.42
  -4   1 -12  228.52   16.90
   4  -1  12  140.65   23.18
   4  -1  13   -1.20    2.50
  -4   1 -13    0.91    1.28
   4  -1  14   25.49   10.89
  -4   1 -14   17.36    4.85
   4   0 -11    5.59    4.47
  -4   0  11   -0.98    2.80
   4   0 -10   93.98   11.89
  -4   0  10   96.85   13.46
   4   0 -10   86.06   17.58
   4   0  -9    8.00    3.32
  -4   0   9    9.56    4.99
  -4   0   9   10.63    4.53
   4   0  -9    7.13    4.58
   4   0  -9    6.88    4.22
  -4   0   8   15.05    6.71
   4   0  -8   16.62    4.49
  -4   0   8   17.24    5.44
   4   0  -8   19.19    8.17
   4   0  -8   20.59    5.52
   4   0  -7    5.73    2.67
  -4   0   7    8.25    4.50
  -4   0   7    5.52    2.20
   4   0  -7    0.90    3.05
   4   0  -7    1.95    1.19
  -4   0   6  178.61   19.31
   4   0  -6  187.87   15.04
  -4   0   6  182.00   16.08
   4   0  -6  194.54   11.92
   4   0  -6  165.22   17.46
  -4   0   5  225.08   20.63
   4   0  -5  218.43   15.97
  -4   0   5  219.60   16.80
   4   0  -5  227.20   10.71
   4   0  -5  218.96    8.58
   4   0  -5  219.55   19.41
   4   0  -4  488.92   24.09
  -4   0   4  447.67   23.31
   4   0  -4  471.37   21.04
   4   0  -4  422.16   11.01
   4   0  -4  453.40   12.03
   4   0  -4  441.80   15.64
   4   0  -4  478.72   27.34
  -4   0   4  448.51   28.39
   4   0  -3  397.72   19.56
   4   0  -3  387.23   21.65
  -4   0   3  426.98   21.54
   4   0  -3  416.37   18.84
   4   0  -3  426.31   14.37
   4   0  -2  304.02   18.55
  -4   0   2  278.20   16.08
   4   0  -2  290.28   14.69
   4   0  -2  296.88   12.00
   4   0  -1   15.18    3.03
  -4   0   1   13.16    3.34
  -4   0   1   15.01    3.45
   4   0  -1   16.32    2.74
   4   0  -1   18.61    4.68
  -4   0   0  177.17   12.99
   4   0   0  188.22   15.40
  -4   0   0  184.47   11.11
   4   0   0  187.57    9.97
  -4   0  -1    3.61    1.46
  -4   0  -1    5.84    2.20
   4   0   1    4.43    1.79
  -4   0  -1    2.40    1.51
   4   0   1    4.37    3.61
  -4   0  -2  511.37   19.76
   4   0   2  495.87   31.09
  -4   0  -2  524.11   16.87
  -4   0  -2  454.92   22.97
  -4   0  -3   10.91    1.92
  -4   0  -3    9.97    3.00
   4   0   3    6.36    2.10
   4   0   3    1.51    2.87
  -4   0  -3   15.44    4.84
  -4   0  -3    8.25    3.20
  -4   0  -4  832.84   24.08
   4   0   4  823.43   26.06
   4   0   4  860.31   46.08
  -4   0  -4  775.31   32.10
  -4   0  -4  851.05   17.89
  -4   0  -4  820.40   29.42
  -4   0  -5  336.41   13.26
   4   0   5  293.33   14.49
   4   0   5  323.75   27.08
  -4   0  -5  322.29   19.09
  -4   0  -5  353.67   18.14
  -4   0  -6  519.86   16.46
   4   0   6  474.96   27.88
   4   0   6  536.09   34.34
   4   0   6  426.86   18.55
  -4   0  -6  507.69   25.38
  -4   0  -6  547.18   27.24
  -4   0  -6  513.84   23.17
  -4   0  -7   79.26    5.58
   4   0   7   71.97   11.50
   4   0   7   60.45    6.67
  -4   0  -7   75.61    9.65
  -4   0  -7   66.92    9.90
   4   0   7   63.94   11.58
  -4   0  -7   73.91    8.55
  -4   0  -8   20.98    2.85
   4   0   8   21.10    6.73
  -4   0  -8   20.45    5.02
  -4   0  -8   16.75    4.89
   4   0   8   20.47    6.69
   4   0   9   25.12    7.47
  -4   0  -9   18.91    2.56
  -4   0  -9   22.63    4.94
  -4   0  -9   17.05    5.03
  -4   0 -10  208.59    8.66
  -4   0 -10  241.79   18.49
  -4   0 -10  218.58   16.44
   4   0  10  214.84   24.27
   4   0  11   29.68    9.43
  -4   0 -11   37.03    7.04
   4   0  12   75.95   16.54
  -4   0 -12  139.66   14.31
   4   0  13   40.58   13.06
  -4   0 -13   27.67    6.66
   4   0  14   42.59   13.65
  -4   0 -14   27.56    7.14
   4   1 -10   31.13   10.92
  -4  -1  10   21.87    6.65
   4   1  -9   46.43    8.96
  -4  -1   9   45.52   10.50
  -4  -1   9   35.81    8.11
   4   1  -9   35.76   10.76
   4   1  -9   31.52    7.61
   4   1  -8  221.40   19.13
  -4  -1   8  283.60   22.30
  -4  -1   8  265.13   12.60
   4   1  -8  265.96   29.88
  -4  -1   8  264.66   24.95
   4   1  -7   15.98    5.16
  -4  -1   7   15.55    6.22
  -4  -1   7   16.31    5.23
  -4  -1   7   13.06    3.12
   4   1  -7   18.58    7.72
   4   1  -7   11.26    2.80
   4   1  -7   11.93    2.84
   4   1  -7   13.02    4.75
  -4  -1   6  186.89   19.47
   4   1  -6  190.68   16.62
  -4  -1   6  175.13   15.87
   4   1  -6  180.67   10.02
   4   1  -6  195.75   24.02
   4   1  -6  170.53   12.44
   4   1  -6  189.42   17.78
  -4  -1   5   31.61    7.49
  -4  -1   5   27.92    5.74
   4   1  -5   38.08    3.72
   4   1  -5   26.24    4.78
   4   1  -5   30.17    3.86
   4   1  -5   37.40    7.44
   4   1  -5   39.86    7.81
  -4  -1   4   37.71    6.45
   4   1  -4   34.68    5.78
   4   1  -4   35.94    2.84
   4   1  -4   38.29    8.07
   4   1  -4   36.63    3.27
   4   1  -4   34.30    7.32
   4   1  -4   39.92    7.53
   4   1  -3    8.00    2.56
  -4  -1   3    9.54    2.82
   4   1  -3   12.78    3.28
   4   1  -3    4.22    1.12
   4   1  -3    9.49    3.99
   4   1  -3    6.73    3.00
   4   1  -2   57.72    9.65
  -4  -1   2   65.31    7.52
  -4  -1   2   64.23    7.62
   4   1  -2   65.52    7.15
   4   1  -2   62.15    7.12
  -4  -1   1    7.81    2.95
  -4  -1   1    9.15    2.79
   4   1  -1    8.02    2.63
   4   1  -1    7.65    2.43
   4   1  -1    7.59    3.57
   4   1   0  738.37   38.88
  -4  -1   0  771.44   25.08
   4   1   0  750.69   25.27
  -4  -1  -1   71.60    6.22
   4   1   1   71.59    6.83
  -4  -1  -1   55.91    5.40
   4   1   1   60.51   10.77
  -4  -1  -2  687.78   26.21
   4   1   2  721.69   23.34
   4   1   2  784.76   44.23
  -4  -1  -2  804.59   21.98
  -4  -1  -2  667.44   37.98
   4   1   2  804.41   25.67
  -4  -1  -3  602.18   23.35
   4   1   3  647.25   21.02
   4   1   3  759.57   42.84
  -4  -1  -3  692.61   18.32
  -4  -1  -3  577.06   32.54
  -4  -1  -4 1852.65   44.85
   4   1   4 1715.06   41.80
   4   1   4 1935.89   71.38
  -4  -1  -4 1801.91   58.37
  -4  -1  -4 2018.30   37.55
  -4  -1  -4 1655.81   57.96
  -4  -1  -5   27.13    2.52
  -4  -1  -5   30.98    7.58
  -4  -1  -6    0.64    1.03
  -4  -1  -6    5.46    0.84
   4   1   6    4.56    2.28
   4   1   6    2.55    1.65
   4   1   6    3.61    2.65
  -4  -1  -6   -1.11    3.07
  -4  -1  -7   -0.66    0.82
   4   1   7   -3.41    3.10
   4   1   7    1.47    1.04
  -4  -1  -7    0.71    1.99
  -4  -1  -7   -5.10    4.33
   4   1   7    1.67    2.32
  -4  -1  -7    1.33    1.98
  -4  -1  -8  193.46    8.04
   4   1   8  212.82   21.64
   4   1   8  190.08   19.80
  -4  -1  -8  192.09   19.76
  -4  -1  -8  205.03   17.52
   4   1   8  220.06   20.72
   4   1   9    4.89    3.75
  -4  -1  -9    1.91    1.55
  -4  -1  -9    1.80    1.82
  -4  -1 -10   78.88   12.94
  -4  -1 -10   60.78    9.88
   4   1  10   78.78   14.06
   4   1  11    1.76    3.05
  -4  -1 -11   -4.59    4.44
  -4  -1 -11    3.21    3.70
  -4  -1 -12  115.57   14.76
   4   1  12  100.15   18.21
   4   1  13   38.63   11.96
  -4  -1 -13   14.44    5.31
   4   1  14   75.75   17.42
  -4  -1 -14   56.40   11.59
   4   2 -10   72.46   16.59
  -4  -2  10   72.55   12.20
   4   2  -9   49.16   13.60
  -4  -2   9   36.23    8.29
  -4  -2   9   45.61   10.47
  -4  -2   8    9.87    4.51
   4   2  -8   17.53    8.17
  -4  -2   8   11.09    5.25
  -4  -2   8   12.18    3.50
   4   2  -8   10.21    4.32
  -4  -2   7    0.57    1.70
   4   2  -7    4.20    2.84
  -4  -2   7   -0.49    1.08
  -4  -2   7    1.06    1.23
   4   2  -7   -1.90    3.14
   4   2  -7    0.91    0.88
  -4  -2   6   74.76   12.33
  -4  -2   6   71.69   10.22
   4   2  -6   69.02    6.56
   4   2  -6   82.07   16.02
   4   2  -6   45.88    9.36
   4   2  -6   86.34   11.28
  -4  -2   5   39.06    8.14
  -4  -2   5   30.79    6.21
   4   2  -5   45.14    4.78
   4   2  -5   26.82    7.61
   4   2  -5   50.51    8.29
   4   2  -5   47.53   11.63
  -4  -2   4  419.90   22.86
   4   2  -4  405.91   13.90
   4   2  -4  463.34   24.86
   4   2  -3   66.43    8.77
  -4  -2   3   66.36    7.76
   4   2  -3   68.86    4.45
  -4  -2   3   62.83    7.92
   4   2  -3   57.83   11.04
   4   2  -3   82.71    9.56
   4   2  -2  470.36   33.04
  -4  -2   2  512.97   22.95
  -4  -2   2  514.82   22.60
   4   2  -2  461.76   27.18
   4   2  -2  529.44   13.27
  -4  -2   1    5.90    2.51
  -4  -2   1    4.49    1.79
   4   2  -1    6.08    3.70
   4   2  -1    3.33    1.60
   4   2   0    7.80    2.43
  -4  -2   0    9.49    2.82
   4   2   0   12.43    6.47
   4   2   0    4.15    1.73
  -4  -2   0    8.97    1.63
  -4  -2   0    8.39    3.33
  -4  -2  -1   15.08    2.59
  -4  -2  -1   18.09    3.27
   4   2   1   15.27    7.16
   4   2   1   16.68    4.04
   4   2   2  879.94   26.65
   4   2   2 1033.38   50.15
  -4  -2  -2  967.97   26.54
   4   2   2  863.17   31.56
  -4  -2  -2  834.20   30.13
  -4  -2  -3    7.98    3.76
   4   2   3    8.17    2.18
  -4  -2  -3    8.19    2.13
   4   2   3    4.73    3.10
   4   2   4  200.95    9.88
   4   2   4  196.99   19.79
  -4  -2  -4  171.02   19.73
  -4  -2  -4  203.35   15.75
   4   2   5    8.08    1.88
   4   2   5    0.03    2.66
  -4  -2  -5    2.80    5.05
  -4  -2  -5    8.51    5.04
   4   2   6 1208.98   28.10
   4   2   6 1262.16   52.34
  -4  -2  -6 1078.88   53.66
  -4  -2  -6 1087.87   53.35
   4   2   6 1262.20   38.29
   4   2   7    2.40    1.11
   4   2   7    1.14    2.71
  -4  -2  -7    1.43    2.52
  -4  -2  -7   -0.65    3.64
   4   2   7    4.02    1.84
  -4  -2  -8   68.07    5.03
  -4  -2  -8   57.38   12.26
  -4  -2  -8   42.38    9.64
   4   2   8   53.42    9.67
   4   2   8   70.64   11.37
   4   2   9    5.66    3.25
   4   2   9    8.61    4.44
  -4  -2  -9   10.53    2.33
  -4  -2  -9    4.86    4.52
  -4  -2  -9   -4.51    4.63
  -4  -2 -10  157.45   21.46
  -4  -2 -10  144.84   19.18
   4   2  10  186.97   21.38
   4   2  11   11.84    5.74
  -4  -2 -11    2.93    2.71
  -4  -2 -12  307.61   28.90
   4   2  12  308.00   31.51
   4   2  13   88.17   17.47
  -4  -2 -13   45.10   11.86
   4   2  14   -5.26    5.42
  -4  -2 -14    0.59    4.01
  -4  -3  10    1.30    1.75
   4   3  -9   54.43   14.49
  -4  -3   9   45.45    9.39
  -4  -3   9   54.25   11.56
  -4  -3   8  171.16   17.90
  -4  -3   8  177.77   20.18
   4   3  -8  176.40   25.08
  -4  -3   8  187.89   16.15
  -4  -3   7   53.06    9.53
   4   3  -7   63.47   14.91
  -4  -3   7   54.24    8.51
   4   3  -7   52.49   10.73
  -4  -3   7   53.01   10.66
  -4  -3   6  252.25   22.46
   4   3  -6  214.64   21.78
  -4  -3   6  213.71   18.21
   4   3  -6  245.75   14.29
   4   3  -6  284.70   30.61
   4   3  -6  299.47   19.73
   4   3  -5    0.88    0.87
  -4  -3   5   -0.22    1.54
   4   3  -5    0.14    3.66
   4   3  -5   -3.14    4.57
   4   3  -5    2.16    1.38
  -4  -3   5   -1.73    1.93
  -4  -3   4   24.27    5.42
  -4  -3   4   18.33    4.15
   4   3  -4   25.67    8.00
   4   3  -4   32.65    9.64
   4   3  -4   14.29    2.82
   4   3  -4   22.97    4.84
   4   3  -3  208.08   21.68
  -4  -3   3  236.83   15.79
  -4  -3   3  235.72   16.09
   4   3  -3  256.29   11.77
   4   3  -3  283.57   17.17
   4   3  -2  114.93   15.86
  -4  -3   2  102.39   10.87
  -4  -3   2  105.43   10.10
   4   3  -2  111.04    7.37
   4   3  -1   21.70    3.14
  -4  -3   1   21.71    4.15
   4   3  -1   13.64    6.06
  -4  -3   1   16.90    2.70
  -4  -3   1   18.22    4.71
   4   3   0  663.84   38.81
  -4  -3   0  619.66   32.93
  -4  -3   0  697.19   25.61
  -4  -3   0  696.36   21.02
   4   3   0  619.52   34.47
   4   3   0  624.49   20.88
  -4  -3  -1   -0.68    1.19
   4   3   1    2.23    3.32
   4   3   1   -1.06    3.09
  -4  -3  -1    2.90    2.96
  -4  -3  -1    0.11    0.84
  -4  -3  -2   22.86    4.58
   4   3   2   18.24    5.89
   4   3   2   17.97    5.08
  -4  -3  -3   -4.56    2.36
   4   3   3   -0.65    1.12
   4   3   3   -0.14    1.75
   4   3   4  650.77   20.55
   4   3   4  738.28   38.51
  -4  -3  -4  665.59   32.91
   4   3   5   70.35    5.31
   4   3   5   64.85   11.39
  -4  -3  -5   54.94   12.54
   4   3   5   77.27    8.83
  -4  -3  -5   63.59   10.18
   4   3   6  482.06   14.31
   4   3   6  547.02   33.69
  -4  -3  -6  538.20   39.55
   4   3   6  553.42   23.68
  -4  -3  -6  506.00   30.49
   4   3   6  549.95   28.45
   4   3   7   15.64    4.94
  -4  -3  -7   13.14    5.09
   4   3   7   11.92    1.59
  -4  -3  -7   12.14    5.56
   4   3   7   12.23    3.50
   4   3   8  101.33   12.57
  -4  -3  -8  129.32   20.00
  -4  -3  -8  128.05   16.80
   4   3   8  137.47   16.03
   4   3   9   46.25    9.29
   4   3   9   57.73   11.12
  -4  -3  -9   67.07    6.07
  -4  -3  -9   69.84   12.93
   4   3  10  483.18   32.35
  -4  -3 -10  619.12   22.27
  -4  -3 -10  574.12   38.20
   4   3  10  537.53   37.14
   4   3  11   14.14    6.83
  -4  -3 -11   20.59    7.82
   4   3  12   30.54    9.59
  -4  -3 -12   57.59   12.92
   4   3  13   60.00   14.40
  -4  -3 -13   51.99   12.53
   4   4  -9   45.50   12.90
  -4  -4   9   52.24   10.93
  -4  -4   9   50.21   10.75
   4   4  -8   63.81   15.54
  -4  -4   8   62.66   11.12
  -4  -4   8   61.03   11.68
  -4  -4   8   72.70   11.22
   4   4  -7   13.62    6.82
  -4  -4   7    5.29    3.20
   4   4  -7   -4.34    2.32
  -4  -4   7    6.19    3.39
  -4  -4   7    0.71    1.43
  -4  -4   6   28.91    7.78
   4   4  -6   37.56   11.22
  -4  -4   6   31.15    6.96
   4   4  -6   24.98    7.07
   4   4  -5  215.61   20.38
  -4  -4   5  181.10   16.34
  -4  -4   5  204.41   14.42
   4   4  -5  217.97   26.39
   4   4  -5  206.08   13.58
   4   4  -5  257.79   15.36
  -4  -4   5  189.81   18.37
   4   4  -4  245.47   21.87
  -4  -4   4  240.46   15.52
  -4  -4   4  197.10   16.30
   4   4  -4  290.12   29.94
   4   4  -4  228.52   13.71
   4   4  -4  279.28   15.70
   4   4  -3  192.04   19.07
  -4  -4   3  193.36   14.86
  -4  -4   3  182.32   14.67
   4   4  -3  240.15   26.07
   4   4  -3  182.57   11.66
   4   4  -3  204.24   13.29
   4   4  -2   97.81   13.46
  -4  -4   2   71.46   10.08
  -4  -4   2  104.25   10.74
   4   4  -2   92.56    8.05
  -4  -4   1   55.80    7.60
  -4  -4   1   48.92    5.79
   4   4  -1   66.91   10.98
   4   4  -1   56.43    6.24
  -4  -4   1   37.15    8.11
   4   4   0  344.02   25.63
  -4  -4   0  320.79   26.54
  -4  -4   0  386.30   20.66
  -4  -4   0  354.21   16.48
   4   4   0  342.90   16.92
   4   4   1   32.94    7.99
  -4  -4  -1   41.25    5.57
   4   4   1   38.13    5.61
  -4  -4  -1   33.91    8.86
   4   4   2  103.99   13.96
  -4  -4  -2   89.95    9.21
   4   4   2   70.19   11.64
  -4  -4  -2   62.84   13.03
   4   4   2   86.13    8.61
   4   4   3  238.80   21.77
  -4  -4  -3  178.05   22.62
  -4  -4  -3  183.16   15.41
   4   4   3  197.99   19.79
   4   4   4  332.20   15.27
   4   4   4  401.34   28.44
  -4  -4  -4  344.63   31.22
   4   4   4  355.75   24.74
  -4  -4  -4  335.99   23.25
   4   4   5  225.00   10.97
   4   4   5  276.61   23.73
  -4  -4  -5  266.43   27.82
   4   4   5  245.67   18.54
  -4  -4  -5  224.12   20.23
   4   4   5  256.35   18.40
   4   4   6  111.79    6.41
  -4  -4  -6  140.00   20.45
   4   4   6  115.86   11.75
  -4  -4  -6  110.24   14.64
   4   4   6  122.46   13.32
   4   4   7   12.30    5.02
  -4  -4  -7   11.93    4.26
   4   4   7   15.46    1.78
   4   4   7   12.38    3.66
   4   4   7   16.50    4.09
  -4  -4  -8  434.33   31.95
   4   4   8  384.05   27.90
   4   4   9   17.25    6.07
   4   4   9   15.64    4.94
  -4  -4  -9   26.07    8.18
   4   4  10   -1.46    3.04
  -4  -4 -10    1.22    2.73
   4   4  10    0.55    0.76
  -4  -4 -10    2.62    1.71
   4   4  11   32.91    9.82
  -4  -4 -11   33.95   10.01
   4   4  11   18.85    5.97
  -4  -4 -12  345.52   34.35
   4   4  12  388.88   35.12
   4   4  13    1.41    2.85
  -4  -4 -13    0.72    2.13
   4   5  -8   32.01   10.70
  -4  -5   8   31.84    8.59
  -4  -5   8   34.54    8.36
  -4  -5   8   35.87    8.78
  -4  -5   7  165.54   18.58
  -4  -5   7  163.06   17.77
   4   5  -7  185.27   25.83
  -4  -5   7  203.46   20.26
  -4  -5   6  454.26   30.16
   4   5  -6  539.27   31.58
   4   5  -6  483.84   40.95
  -4  -5   5    9.29    2.98
   4   5  -5    4.15    4.01
   4   5  -5    4.01    2.31
  -4  -5   5    6.78    3.34
  -4  -5   5    9.63    4.26
   4   5  -5    7.01    2.85
  -4  -5   4   10.65    3.46
   4   5  -4   13.36    2.10
   4   5  -4   15.90    5.69
  -4  -5   4   10.61    3.90
   4   5  -4    9.70    5.70
   4   5  -4   10.74    3.31
   4   5  -3    3.31    1.82
   4   5  -3    3.06    1.06
   4   5  -3    1.04    1.32
  -4  -5   3    0.37    1.39
   4   5  -3    2.19    4.17
  -4  -5   3    1.54    1.42
   4   5  -2  256.78   21.28
  -4  -5   2  181.35   18.59
  -4  -5   2  236.15   18.15
   4   5  -2  299.34   28.55
   4   5  -2  232.86   14.96
   4   5  -2  274.13   13.10
   4   5  -1  160.95   17.06
  -4  -5   1  145.57   19.06
  -4  -5   1  191.82   16.31
  -4  -5   1  159.56   12.41
   4   5  -1  207.43   22.87
   4   5  -1  156.19   12.17
   4   5   0   46.87    9.17
  -4  -5   0   46.70    6.44
   4   5   0   41.25    6.29
  -4  -5   0   59.81   12.44
   4   5   1  245.58   21.69
  -4  -5  -1  247.02   26.41
  -4  -5  -1  276.42   16.61
   4   5   1  271.77   17.05
   4   5   2  608.78   35.12
  -4  -5  -2  505.64   38.37
  -4  -5  -2  573.16   26.21
   4   5   2  562.08   26.27
   4   5   2  584.22   23.82
   4   5   3  419.54   29.25
  -4  -5  -3  399.12   33.90
  -4  -5  -3  407.79   24.08
   4   5   3  384.02   22.23
   4   5   3  404.95   20.74
  -4  -5  -4   10.76    4.17
   4   5   4   12.43    4.03
  -4  -5  -4   18.11    7.24
   4   5   4    2.79    3.31
   4   5   5   81.03   12.19
  -4  -5  -5   86.68   12.96
   4   5   5   90.46   10.88
   4   5   6  550.49   19.02
  -4  -5  -6  569.08   35.67
   4   5   7  137.48    6.94
   4   5   7  110.32   10.02
   4   5   7  119.23    7.77
  -4  -5  -7  133.18   17.42
   4   5   7  149.56   16.45
   4   5   8    8.37    4.79
  -4  -5  -8    1.99    1.93
   4   5   8    2.25    0.51
   4   5   8    5.54    1.04
   4   5   8    8.85    2.74
   4   5   9  124.47   12.09
  -4  -5  -9  147.36   19.64
   4   5   9  122.64   16.97
  -4  -5 -10  106.21   17.53
   4   5  10  124.63   17.92
   4   5  11   24.82    8.89
  -4  -5 -11   29.67    9.67
  -4  -5 -12  105.78   18.90
   4   5  12  134.63   20.67
   4   5  13   -1.65    4.00
  -4  -5 -13   -5.28    4.14
  -4  -6   8   70.49   13.12
  -4  -6   7    5.31    3.35
   4   6  -7    6.95    4.51
  -4  -6   7    0.33    2.28
  -4  -6   7    4.28    3.01
   4   6  -6   19.87    8.66
  -4  -6   6   23.69    6.60
  -4  -6   6   21.78    6.37
  -4  -6   6   23.35    7.28
   4   6  -5    7.84    4.54
  -4  -6   5    8.05    3.60
  -4  -6   5   11.90    4.43
  -4  -6   4  512.51   30.91
   4   6  -4  567.18   27.60
  -4  -6   3  111.68   14.54
  -4  -6   3  158.57   16.74
   4   6  -3  166.88   21.32
   4   6  -3  146.40   13.33
   4   6  -2    3.60    2.17
   4   6  -2   -1.29    3.64
  -4  -6   2    5.95    4.20
  -4  -6   2    0.77    0.66
  -4  -6   2    5.28    4.27
  -4  -6   1  134.62   16.41
  -4  -6   1   98.84   10.77
   4   6  -1   78.58   13.59
   4   6  -1   89.97   10.09
  -4  -6   1  100.56   17.77
   4   6  -1   98.17    6.07
  -4  -6   0  223.99   27.54
  -4  -6   0  208.30   15.54
   4   6   0  240.45   22.79
   4   6   0  205.45   15.66
   4   6   0  218.33   11.71
   4   6   1    4.53    1.79
   4   6   1    4.81    2.02
  -4  -6  -1    6.80    5.80
   4   6   1    1.89    2.03
  -4  -6  -1    8.46    3.36
  -4  -6  -2  160.34   14.33
   4   6   2  151.73   14.32
   4   6   2  137.64   11.36
   4   6   3    6.81    2.85
   4   6   3    7.94    3.63
  -4  -6  -3   11.45    3.97
  -4  -6  -4  256.71   21.52
   4   6   4  276.06   20.30
   4   6   4  262.86   18.54
  -4  -6  -5   39.50    8.91
   4   6   5   50.09    8.43
  -4  -6  -6   81.49   13.79
   4   6   6   99.57   12.72
   4   6   7  348.35   15.59
   4   6   7  305.07   15.18
  -4  -6  -7  316.29   28.23
   4   6   7  366.13   26.63
   4   6   8  274.03   12.64
   4   6   8  274.80   14.39
  -4  -6  -8  245.10   25.28
   4   6   8  228.24   22.45
   4   6   9    2.40    2.65
  -4  -6  -9    4.65    2.91
   4   6  10   50.28   11.83
  -4  -6 -10   29.68    9.08
   4   6  11   12.70    6.15
  -4  -6 -11   13.48    6.32
   4   6  12   64.57   14.50
  -4  -6 -12   54.99   13.92
   4   6  13   -3.92    3.89
  -4  -7   8    4.70    3.68
   4   7  -7   34.06   10.97
  -4  -7   7   46.91   11.33
   4   7  -6   87.93   17.44
  -4  -7   6  113.89   16.29
  -4  -7   6  141.64   19.31
   4   7  -5   91.92   17.11
  -4  -7   5   73.74   12.94
  -4  -7   5   78.92   11.66
   4   7  -4   82.88   15.75
  -4  -7   4   54.58   10.92
   4   7  -3   21.30    7.17
  -4  -7   3   33.06    8.60
  -4  -7   2  147.70   24.31
  -4  -7   2  222.72   23.63
   4   7  -2  158.96   19.80
  -4  -7   2  185.86   16.93
   4   7  -1   10.00    3.71
   4   7  -1   10.51    4.62
  -4  -7   1   15.75    4.83
   4   7   0  128.54   15.84
  -4  -7   0  156.87   14.66
   4   7   0  124.23   13.19
   4   7   0  138.66    8.37
   4   7   1    4.28    1.72
   4   7   1    3.68    2.81
   4   7   1    2.35    1.19
  -4  -7  -1    8.90    3.39
   4   7   2   77.90   10.60
  -4  -7  -2   69.89   10.11
   4   7   2   63.10    9.61
   4   7   2   62.19    7.88
   4   7   3   12.61    3.81
   4   7   3    6.87    3.02
  -4  -7  -3   12.59    4.51
   4   7   4  175.08   13.59
  -4  -7  -4  169.34   17.94
   4   7   4  169.89   15.23
   4   7   5  342.59   17.23
  -4  -7  -5  303.98   26.23
   4   7   5  322.51   22.82
   4   7   6  251.24   10.46
   4   7   6  261.94   16.00
   4   7   6  278.37   13.00
  -4  -7  -6  277.87   26.41
   4   7   6  278.96   22.47
   4   7   7   12.23    4.79
  -4  -7  -7   13.39    6.17
   4   7   7   12.35    3.24
   4   7   7   14.49    1.95
   4   7   8  174.27   12.10
  -4  -7  -8  216.71   24.64
   4   7   8  251.42   23.70
   4   7   9    7.66    4.72
  -4  -7  -9   13.95    6.74
   4   7  10   18.33    6.71
  -4  -7 -10   15.59    6.33
   4   7  11    9.99    6.22
  -4  -7 -11    6.27    4.92
  -4  -7 -12  116.73   20.42
   4   7  12  128.86   21.22
   4   8  -6   -1.66    2.60
  -4  -8   6    0.09    3.10
   4   8  -5   -1.05    3.77
  -4  -8   5   -9.63    5.28
   4   8  -4  106.10   17.26
  -4  -8   4   88.56   15.69
   4   8  -3   41.17   10.52
  -4  -8   3   51.61   13.06
   4   8  -2  264.20   25.30
  -4  -8   2  301.05   23.61
   4   8  -1   36.80    8.65
  -4  -8   1   50.53    9.24
   4   8   0   12.26    4.76
  -4  -8   0    8.52    3.51
   4   8   1    0.92    1.67
  -4  -8  -1    2.32    0.92
   4   8   1    2.17    1.45
   4   8   2  269.19   19.46
  -4  -8  -2  246.51   20.89
   4   8   2  313.97   19.21
   4   8   3   -0.61    1.78
   4   8   3    1.44    0.97
  -4  -8  -3   -1.43    1.78
   4   8   4   62.10    8.57
   4   8   4   60.04    6.96
   4   8   4   66.18    9.95
  -4  -8  -4   52.15   10.38
   4   8   5    3.96    3.27
   4   8   5    0.59    0.50
   4   8   5    0.74    1.36
  -4  -8  -5    3.22    2.93
   4   8   6  100.83   10.53
   4   8   6  112.34   14.69
  -4  -8  -6   70.90   13.64
  -4  -8  -7    6.93    4.57
   4   8   7    6.29    3.29
   4   8   7    4.08    1.70
   4   8   8   69.81   13.03
  -4  -8  -8   84.57   16.09
   4   8   8   44.24    6.78
   4   8   9    3.49    2.88
  -4  -8  -9   10.41    6.57
  -4  -8 -10  140.21   21.82
   4   8  10  115.01   18.51
   4   8  11   -1.60    2.39
  -4  -8 -11    1.67    2.25
   4   8  12   94.47   18.47
   4   9  -5   34.40   10.81
   4   9  -4   48.67   11.64
   4   9  -3    2.30    2.65
  -4  -9   3   27.93   10.36
   4   9  -2   27.49    7.83
  -4  -9   2   62.90   16.98
   4   9  -1   52.67    9.98
  -4  -9   1   73.70   11.97
   4   9   0  153.33   16.47
  -4  -9   0  162.28   17.58
   4   9   1   89.75   11.42
  -4  -9  -1   97.48   13.61
   4   9   2   21.66    4.83
   4   9   2   15.57    4.94
  -4  -9  -2   29.77    7.31
   4   9   3   -0.53    1.93
  -4  -9  -3   -1.18    1.63
   4   9   3    1.75    1.29
   4   9   4   71.22    9.99
  -4  -9  -4   91.54   14.44
   4   9   5    8.89    3.55
  -4  -9  -5    7.21    3.77
   4   9   5   11.07    4.64
   4   9   6   50.23    7.88
   4   9   6   72.68   12.35
  -4  -9  -6   58.90   12.89
   4   9   7   14.99    5.79
   4   9   7   15.83    4.77
  -4  -9  -7   16.73    6.75
  -4  -9  -8  122.26   20.17
   4   9   8  134.46   18.54
   4   9   9   11.65    5.73
  -4  -9  -9   12.57    6.70
   4   9  10    5.71    3.97
  -4  -9 -10   11.07    6.40
   4   9  11   31.04   10.46
   4  10  -3   11.85    4.90
   4  10  -2   43.00    9.47
   4  10  -1   28.37    7.41
  -4 -10   1   31.19    8.28
   4  10   0   29.17    7.24
  -4 -10   0   30.20    8.24
   4  10   1   18.54    5.43
  -4 -10  -1   20.33    6.66
   4  10   2   62.89   10.47
  -4 -10  -2   66.67   12.21
   4  10   3    1.02    1.99
  -4 -10  -3    1.95    3.18
   4  10   4   71.82   10.47
  -4 -10  -4   85.62   15.14
   4  10   5   27.26    6.16
  -4 -10  -5   26.48    8.33
   4  10   6   36.31    7.34
  -4 -10  -6   47.52   12.07
   4  10   6   47.96   10.72
   4  10   7   20.03    5.24
  -4 -10  -7   18.79    7.94
   4  10   7   27.27    8.68
  -4 -10  -8   18.87    7.92
   4  10   8   20.56    7.46
   4  10   9    5.03    3.63
   4  10  10   56.13   13.30
  -4 -11   0   35.09    9.37
  -4 -11  -1    0.31    1.23
   4  11   2   23.41    6.91
  -4 -11  -2   14.12    6.14
   4  11   3   31.30    7.62
  -4 -11  -3   11.12    4.91
   4  11   4   18.00    5.58
  -4 -11  -4   26.78    8.86
   4  11   5   26.38    6.39
  -4 -11  -5   45.22   11.98
   4  11   6   17.48    4.95
   5 -10  -1   27.24    7.76
   5  -9  -4    2.66    1.71
   5  -9  -3   28.47    7.38
   5  -9  -2   58.20   10.93
   5  -9  -2   56.88   10.23
   5  -9  -2   55.17    9.88
   5  -9  -1   14.74    5.85
   5  -9  -1   10.36    4.85
   5  -9   0   61.82   10.93
   5  -9   0   67.69   11.79
   5  -9   1  163.19   17.03
   5  -9   1  176.25   19.47
   5  -9   2   17.00    5.39
   5  -9   2   19.96    6.86
   5  -9   3    1.13    1.87
  -5   8   6   12.82    5.63
  -5   8   5   26.95    7.20
   5  -8  -5   29.46    7.25
   5  -8  -4   -0.92    1.83
  -5   8   4    3.58    3.27
   5  -8  -4    0.17    1.21
  -5   8   3  140.93   14.93
   5  -8  -3  126.36   16.55
   5  -8  -3  151.94   15.72
   5  -8  -2   12.42    4.67
  -5   8   2   16.52    5.12
   5  -8  -2   16.80    4.91
   5  -8  -2   13.28    4.64
  -5   8   1   97.66   11.84
   5  -8  -1   67.07   11.56
   5  -8  -1   85.83   11.71
   5  -8  -1   84.46   11.84
   5  -8   0   43.75    8.66
  -5   8   0   41.84    7.59
   5  -8   0   44.49    8.88
   5  -8   1    6.18    3.36
  -5   8  -1    4.27    3.51
   5  -8   1    5.75    3.87
   5  -8   2    4.29    2.17
  -5   8  -2    4.16    1.95
   5  -8   2    7.33    3.83
  -5   8  -3   88.50   11.32
   5  -8   3   70.09   10.34
   5  -8   3   88.15   13.59
  -5   8  -4    1.16    1.66
   5  -8   4    3.12    3.46
   5  -8   4    2.71    2.86
  -5   8  -5   45.66    8.26
  -5   7   8    9.57    6.95
  -5   7   7   23.56    7.95
   5  -7  -6    0.50    1.43
  -5   7   6    1.26    2.92
   5  -7  -6   -0.48    2.18
  -5   7   5  202.92   19.40
   5  -7  -5  235.60   22.32
   5  -7  -5  232.72   18.41
   5  -7  -4   -1.77    3.46
  -5   7   4    2.00    3.57
   5  -7  -4    2.54    2.18
  -5   7   3  163.95   15.42
   5  -7  -3  184.73   19.02
   5  -7  -3  171.55   15.41
  -5   7   2    2.09    1.23
   5  -7  -2    1.38    1.51
   5  -7  -1    7.99    3.49
  -5   7   1   21.67    5.80
   5  -7  -1   12.71    4.52
   5  -7  -1   14.03    4.49
   5  -7   0    1.04    1.29
  -5   7   0    1.88    1.70
   5  -7   0    3.02    2.79
  -5   7  -1  385.17   22.76
   5  -7   1  368.88   24.01
   5  -7   1  354.17   24.67
   5  -7   2   22.05    5.58
  -5   7  -2   26.60    5.91
   5  -7   2   25.68    6.76
  -5   7  -3  186.83   15.67
   5  -7   3  212.27   17.65
   5  -7   3  212.11   19.75
  -5   7  -4   -0.28    1.27
   5  -7   4   -0.87    2.60
   5  -7   4    0.25    1.30
  -5   7  -5   36.36    6.86
   5  -7   5   35.23    9.12
   5  -7   5   34.88    7.68
  -5   7  -6   13.38    4.40
   5  -7   6   18.58    6.02
  -5   7  -7  142.42   14.10
  -5   7  -8    3.87    2.85
  -5   7  -9   26.04    5.87
  -5   6   9    3.98    4.40
   5  -6  -8   13.28    5.41
  -5   6   8   22.83    9.82
  -5   6   7  118.55   17.58
   5  -6  -7  100.61   14.84
   5  -6  -6   13.63    5.15
  -5   6   6   12.77    5.46
   5  -6  -6   21.65    5.31
   5  -6  -5   45.76    9.73
  -5   6   5   53.92   10.17
   5  -6  -5   45.23    7.32
   5  -6  -4    0.52    2.20
  -5   6   4    4.22    3.09
  -5   6   4    5.72    2.06
   5  -6  -4    1.19    1.30
  -5   6   3  197.87   16.48
   5  -6  -3  189.10   18.25
   5  -6  -3  194.57   15.00
  -5   6   3  168.84   18.60
  -5   6   2   64.84   11.62
  -5   6   2   49.64    7.72
  -5   6   2   47.26    9.26
   5  -6  -2   71.77   10.71
   5  -6  -2   61.20    8.39
   5  -6  -1  496.80   28.99
   5  -6  -1  496.97   25.11
  -5   6   1  466.62   29.67
  -5   6   0   97.66   10.64
   5  -6   0  125.75   13.56
  -5   6   0  112.48   13.38
  -5   6  -1   81.63    9.78
   5  -6   1   65.66    7.87
   5  -6   1   78.62   10.35
  -5   6  -1   59.66    9.35
   5  -6   1   77.89   10.31
   5  -6   2    1.34    1.23
  -5   6  -2    1.23    0.93
  -5   6  -2   -1.06    1.10
   5  -6   2   -0.17    1.24
   5  -6   2    2.15    3.22
  -5   6  -3  230.60   16.84
  -5   6  -3  208.25   15.53
   5  -6   3  233.41   18.05
   5  -6   3  269.98   21.02
  -5   6  -4   12.93    4.07
   5  -6   4   11.28    4.85
   5  -6   4    6.88    3.35
  -5   6  -5  249.45   17.48
   5  -6   5  256.85   20.84
   5  -6   5  293.84   23.34
  -5   6  -6    3.68    1.17
   5  -6   6    2.59    2.30
   5  -6   6    1.81    2.32
  -5   6  -7   85.25   10.29
  -5   6  -8    2.08    1.68
  -5   6  -9  169.00   14.60
  -5   6 -10    0.94    1.18
   5  -5 -10   32.65   10.59
   5  -5  -9   83.91   13.01
   5  -5  -9   61.74   13.70
   5  -5  -8    1.51    2.48
  -5   5   8   -1.82    5.39
   5  -5  -7   59.70   10.30
  -5   5   7   44.28   10.74
   5  -5  -6   -0.15    2.29
  -5   5   6    3.01    3.60
  -5   5   6   -0.14    1.32
   5  -5  -6    2.04    1.48
   5  -5  -5   43.52    8.80
  -5   5   5   49.74    9.61
   5  -5  -5   40.24    6.13
  -5   5   5   34.06    5.51
  -5   5   5   31.82    8.70
   5  -5  -4    0.43    1.70
  -5   5   4   -0.95    1.76
  -5   5   4   -0.83    2.15
  -5   5   4    4.73    3.12
  -5   5   4    1.18    1.13
   5  -5  -4    1.01    0.70
  -5   5   3  323.73   21.22
   5  -5  -3  345.85   24.13
  -5   5   3  290.94   24.75
   5  -5  -3  321.14   17.86
  -5   5   3  313.21   14.32
  -5   5   3  385.16   27.08
  -5   5   2  377.87   21.76
  -5   5   2  334.44   25.92
   5  -5  -2  383.30   24.46
   5  -5  -2  392.83   19.68
  -5   5   1   18.12    5.57
   5  -5  -1   13.08    4.39
  -5   5   1   20.10    4.83
  -5   5   1   18.85    5.36
  -5   5   1   20.26    6.00
   5  -5   0   15.77    4.37
  -5   5   0   17.15    4.24
   5  -5   0   16.60    3.95
  -5   5   0   17.64    5.40
  -5   5   0   18.23    5.38
  -5   5   0   13.36    4.93
  -5   5  -1  206.53   17.77
  -5   5  -1  206.64   14.74
   5  -5   1  196.21   13.25
   5  -5   1  178.82   15.39
  -5   5  -1  184.97   17.40
   5  -5   2   -0.54    1.32
  -5   5  -2    2.13    1.75
  -5   5  -2    0.69    0.81
   5  -5   2    0.36    0.73
  -5   5  -2   -0.25    0.85
  -5   5  -3  502.39   23.71
   5  -5   3  508.74   27.12
   5  -5   3  502.63   20.01
  -5   5  -3  507.09   25.96
  -5   5  -4    2.48    1.60
   5  -5   4    4.78    1.67
  -5   5  -5   57.83    7.73
   5  -5   5   60.15   10.29
  -5   5  -6    0.82    1.01
   5  -5   6   11.70    5.45
  -5   5  -7  193.95   14.55
   5  -5   7  174.68   21.71
  -5   5  -8   14.75    3.94
  -5   5  -9  176.51   14.22
  -5   5 -10   -1.39    1.76
   5  -5  11   86.63   21.42
   5  -4 -11   26.49    9.82
   5  -4 -10    7.29    3.38
   5  -4 -10    2.08    1.81
   5  -4  -9   57.41   10.11
   5  -4  -9   56.45   13.61
   5  -4  -8    1.85    2.52
  -5   4   7   59.52   12.55
   5  -4  -7   63.11   10.37
  -5   4   7   69.67   13.44
   5  -4  -6   36.95    7.74
  -5   4   6   46.00   10.13
  -5   4   6   49.95   11.08
   5  -4  -6   43.64    6.10
   5  -4  -5   42.72    8.07
  -5   4   5   38.86    8.64
   5  -4  -5   36.36    5.27
  -5   4   5   43.95   10.00
   5  -4  -4   37.63    7.57
  -5   4   4   37.77    7.62
  -5   4   4   26.15    7.44
   5  -4  -4   34.82    4.98
  -5   4   4   30.98    5.48
  -5   4   3   67.33    9.37
   5  -4  -3   69.07    9.82
   5  -4  -3   61.46    6.61
  -5   4   3   68.62    6.91
  -5   4   3   57.30   11.08
   5  -4  -2   15.78    4.93
  -5   4   2   23.53    5.80
  -5   4   2   13.71    5.13
  -5   4   2   16.01    4.79
  -5   4   2   14.00    2.77
   5  -4  -2   12.61    3.23
  -5   4   1  340.27   25.18
   5  -4  -1  371.88   19.72
  -5   4   1  387.30   24.31
   5  -4  -1  395.21   23.41
  -5   4   1  400.72   16.92
   5  -4   0   10.17    3.74
  -5   4   0    8.37    3.97
  -5   4   0    9.07    3.21
   5  -4   0    7.71    2.63
  -5   4   0    8.80    3.73
   5  -4   1   28.07    5.92
  -5   4  -1   41.80    7.05
   5  -4   1   29.47    4.74
  -5   4  -1   23.63    6.44
  -5   4  -1   26.20    6.06
  -5   4  -2   57.83    7.21
   5  -4   2   65.38    9.05
   5  -4   2   65.55    6.63
  -5   4  -2   69.81    9.72
  -5   4  -3   31.30    5.25
   5  -4   3   31.12    4.22
  -5   4  -3   30.58    6.52
   5  -4   3   25.78    6.16
  -5   4  -4    4.14    1.93
   5  -4   4    5.28    1.42
   5  -4   4    6.75    3.71
  -5   4  -5  555.75   24.01
   5  -4   5  551.45   32.88
   5  -4   5  540.42   15.70
  -5   4  -6   62.26    7.58
   5  -4   6   64.97   12.57
  -5   4  -7  166.24   12.64
   5  -4   7  150.42   20.85
  -5   4  -8   -0.43    1.37
   5  -4   8    0.92    2.07
  -5   4  -9  109.88   10.33
  -5   4 -10    0.50    1.25
   5  -4  11   30.81   12.69
   5  -4  12    4.64    5.27
   5  -3 -11   25.44    6.94
   5  -3 -10   22.99    6.31
   5  -3 -10   14.19    6.46
   5  -3  -9   36.60    8.05
   5  -3  -9   29.13    9.55
   5  -3  -8   75.67   10.98
  -5   3   8   76.72   14.47
   5  -3  -7  115.12   13.40
  -5   3   7  105.69   16.67
   5  -3  -6    8.71    3.21
  -5   3   6    6.19    1.68
  -5   3   6    9.61    5.15
   5  -3  -6    7.35    2.32
  -5   3   5  173.50   18.80
  -5   3   5  177.37   20.38
   5  -3  -5  196.66   16.95
   5  -3  -5  175.63   10.14
  -5   3   4  102.45   13.19
  -5   3   4   98.77   14.68
   5  -3  -4  116.87   12.79
   5  -3  -4  109.99    7.52
  -5   3   4  103.16    8.82
  -5   3   3  164.06   15.30
  -5   3   3  122.64   15.62
   5  -3  -3  153.49   14.41
   5  -3  -3  163.48    9.24
  -5   3   3  139.48   11.75
  -5   3   3  151.76   13.96
  -5   3   3  150.65   13.31
  -5   3   2   51.71    7.82
  -5   3   2   47.05    9.19
   5  -3  -2   59.10    8.67
   5  -3  -2   54.31    7.26
  -5   3   2   61.09    6.97
  -5   3   2   63.63    7.93
  -5   3   1   96.78   10.22
   5  -3  -1   79.89   10.24
   5  -3  -1   83.73    8.77
  -5   3   1   86.22   10.65
  -5   3   1   96.07    9.62
  -5   3   1   93.36    7.96
  -5   3   1   76.26   11.32
  -5   3   0  164.79   12.52
   5  -3   0  173.01   14.65
   5  -3   0  159.35   11.33
  -5   3   0  177.34   15.83
  -5   3   0  122.50   11.13
  -5   3   0  168.24   10.65
  -5   3  -1   76.98    8.41
   5  -3   1   84.44   10.37
   5  -3   1   72.70    7.12
  -5   3  -1   80.57   10.92
  -5   3  -1   81.51    7.63
  -5   3  -2   51.60    6.31
   5  -3   2   53.55    8.21
   5  -3   2   53.31    8.23
   5  -3   2   52.00    5.45
  -5   3  -2   54.62    9.27
  -5   3  -3  366.97   17.97
   5  -3   3  368.37   22.23
   5  -3   3  331.44   23.27
   5  -3   3  379.11   14.18
  -5   3  -3  351.71   20.89
  -5   3  -4   51.76    6.38
   5  -3   4   51.65    4.00
   5  -3   4   41.77    7.28
  -5   3  -4   52.26    8.15
   5  -3   4   44.67    9.05
  -5   3  -5  187.25   12.58
   5  -3   5  159.15   14.58
   5  -3   5  163.51   18.55
   5  -3   5  142.95    4.61
  -5   3  -5  183.65   16.07
  -5   3  -6    3.53    2.39
   5  -3   6    3.37    2.01
  -5   3  -7  127.76   10.22
   5  -3   7  106.60   17.56
   5  -3   7  100.69   12.41
  -5   3  -8    7.19    2.72
   5  -3   8    0.13    2.89
  -5   3  -9  114.28    9.93
   5  -3   9   82.19   15.34
  -5   3  -9  104.21   11.76
  -5   3 -10    5.06    2.19
  -5   3 -10   11.96    4.20
   5  -3  11   72.02   18.52
  -5   3 -11  115.74   13.02
   5  -3  12    6.15    5.72
   5  -3  13   15.92    8.24
   5  -2 -10   25.21    9.61
   5  -2 -10   22.25    6.41
   5  -2  -9   53.09    9.40
  -5   2   9   67.83   14.31
   5  -2  -9   42.95   12.36
   5  -2  -8   -0.53    1.07
  -5   2   8    1.55    2.34
  -5   2   8    0.64    2.43
  -5   2   7  185.10   17.25
   5  -2  -7  167.19   15.82
  -5   2   7  148.73   19.93
   5  -2  -6   44.98    7.86
  -5   2   6   52.98   11.51
  -5   2   6   53.68    8.93
   5  -2  -6   44.49    4.45
   5  -2  -5   29.85    6.30
  -5   2   5   26.21    5.90
   5  -2  -5   21.69    2.74
  -5   2   5   25.15    3.13
  -5   2   5   26.16    7.80
   5  -2  -4   18.95    4.99
  -5   2   4   14.93    5.07
  -5   2   4   10.83    4.31
  -5   2   4   18.02    4.80
   5  -2  -4   16.06    2.05
  -5   2   4   17.82    3.50
  -5   2   3  292.19   24.17
  -5   2   3  286.32   21.31
  -5   2   3  293.22   18.07
   5  -2  -3  292.30   19.80
  -5   2   3  263.24   15.71
   5  -2  -2    4.01    3.20
  -5   2   2    2.34    1.74
  -5   2   2    0.32    1.49
   5  -2  -2   -0.19    0.65
  -5   2   2    1.69    1.67
  -5   2   2   -1.28    2.18
  -5   2   1  911.68   36.01
   5  -2  -1  784.84   34.00
   5  -2  -1  806.50   28.69
  -5   2   1  902.49   27.11
  -5   2   1  884.21   34.09
  -5   2   0   36.64    6.35
   5  -2   0   36.80    6.08
   5  -2   0   34.27    4.93
  -5   2   0   32.68    6.16
  -5   2   0   30.48    4.58
  -5   2   0   37.14    5.49
   5  -2   0   26.63    6.25
  -5   2  -1  300.80   16.74
   5  -2   1  276.12   17.19
   5  -2   1  230.12   18.26
   5  -2   1  277.41   13.23
  -5   2  -1  255.18   18.35
  -5   2  -1  208.17   13.32
  -5   2  -1  306.44   15.68
  -5   2  -2    2.57    1.97
   5  -2   2   -1.34    1.90
   5  -2   2   -0.45    0.59
  -5   2  -2    0.55    1.54
  -5   2  -2    0.21    0.87
  -5   2  -2   -0.73    1.75
   5  -2   2    1.06    1.90
  -5   2  -3    1.90    1.32
   5  -2   3    5.41    2.67
   5  -2   3    0.98    0.69
  -5   2  -3    2.61    2.44
  -5   2  -3    1.01    0.81
   5  -2   3    1.50    2.48
  -5   2  -4   69.42    7.13
   5  -2   4   64.25    8.51
   5  -2   4   65.43    3.77
  -5   2  -4   73.57    9.52
  -5   2  -4   59.80    8.35
  -5   2  -4   80.96    8.43
   5  -2   4   54.95   10.39
  -5   2  -5   93.77    8.28
   5  -2   5   88.97   10.21
  -5   2  -5   92.84   10.64
  -5   2  -5   86.44   10.46
  -5   2  -5  112.96   10.44
   5  -2   5   87.59   15.00
  -5   2  -6   -1.22    1.79
  -5   2  -6    0.56    1.32
   5  -2   6   -0.28    1.29
   5  -2   6    0.33    2.04
  -5   2  -6    5.26    3.14
  -5   2  -7  365.96   16.90
   5  -2   7  374.84   32.61
  -5   2  -7  327.97   19.93
  -5   2  -7  409.92   22.08
  -5   2  -8   49.62    5.99
  -5   2  -8   42.25    6.71
   5  -2   8   37.56    7.30
   5  -2   8   51.38   11.80
  -5   2  -8   54.66    7.99
  -5   2  -9  533.35   21.15
  -5   2  -9  546.94   27.01
  -5   2 -10    3.51    1.95
   5  -2  10    1.66    1.95
  -5   2 -10    4.27    3.02
   5  -2  11   32.57   11.75
  -5   2 -11   38.09    7.36
   5  -2  12    2.35    4.32
  -5   2 -12   10.53    4.24
   5  -2  13    6.07    2.26
   5  -1 -10    8.41    5.65
   5  -1 -10    6.33    3.71
  -5   1   9   77.80   15.36
   5  -1  -9   92.72   12.87
  -5   1   9   84.74   13.20
   5  -1  -9   81.16   17.55
  -5   1   8   10.96    4.18
   5  -1  -8    5.02    4.06
  -5   1   8   12.63    5.76
   5  -1  -8    6.98    3.65
  -5   1   7   39.73   10.41
  -5   1   7   38.31    8.06
   5  -1  -7   34.36    7.22
  -5   1   6  242.17   24.54
   5  -1  -6  244.50   19.35
  -5   1   6  239.33   19.06
   5  -1  -6  191.02    7.72
  -5   1   5  418.85   31.59
   5  -1  -5  462.41   26.39
  -5   1   5  444.25   25.31
  -5   1   5  392.61   15.43
  -5   1   4  198.53   20.60
   5  -1  -4  187.20   16.28
  -5   1   4  199.98   16.04
  -5   1   4  182.34   11.08
  -5   1   3  170.34   16.59
   5  -1  -3  188.61   16.36
  -5   1   3  198.02   15.07
  -5   1   3  176.66   11.37
  -5   1   2   39.16    7.11
  -5   1   2   34.29    6.09
   5  -1  -2   28.33    4.79
  -5   1   2   37.85    5.36
   5  -1  -2   36.61    7.01
  -5   1   1  117.73   12.11
   5  -1  -1  113.95   10.59
   5  -1  -1  122.54   12.91
  -5   1   1  122.43   10.52
   5  -1  -1  125.94    9.63
  -5   1   1  122.07   15.69
   5  -1   0   40.04    5.92
  -5   1   0   36.68    5.79
  -5   1   0   45.56    6.00
   5  -1   0   38.97    4.91
  -5   1   0   41.45    6.14
  -5   1   0   45.38    4.22
  -5   1   0   22.78    5.36
   5  -1   0   39.39    7.42
  -5   1  -1  335.63   18.18
   5  -1   1  331.50   17.83
   5  -1   1  295.59   21.96
   5  -1   1  306.35   13.52
  -5   1  -1  312.74   20.87
  -5   1  -1  315.47   18.31
  -5   1  -1  278.01   13.23
  -5   1  -1  330.89   19.68
  -5   1  -2   25.62    5.51
  -5   1  -2   24.94    4.74
   5  -1   2   27.58    4.87
   5  -1   2   26.66    3.37
  -5   1  -2   26.55    3.86
  -5   1  -2   25.44    4.09
  -5   1  -2   22.49    5.06
  -5   1  -2   24.82    4.91
   5  -1   2   21.69    6.29
  -5   1  -3  402.21   18.54
   5  -1   3  431.11   20.77
   5  -1   3  391.57   28.67
  -5   1  -3  432.62   23.04
   5  -1   3  444.09   14.15
  -5   1  -3  368.07   18.10
  -5   1  -3  409.02   23.55
  -5   1  -3  442.33   21.14
  -5   1  -4    2.05    1.16
  -5   1  -4    4.54    2.25
   5  -1   4    3.09    1.78
  -5   1  -4    2.59    1.82
   5  -1   4    1.59    2.22
  -5   1  -4    6.72    2.66
  -5   1  -5   78.66    7.31
   5  -1   5   73.18    8.41
  -5   1  -5   75.71    9.11
  -5   1  -5   73.73    8.72
   5  -1   5   64.61   12.84
  -5   1  -6   89.23    7.61
   5  -1   6   74.95    8.74
  -5   1  -6   91.43    9.98
   5  -1   6   83.53   15.54
  -5   1  -6  113.85   11.07
  -5   1  -7  312.54   18.97
  -5   1  -7  325.91   14.98
   5  -1   7  293.68   28.28
  -5   1  -7  362.65   20.84
  -5   1  -8   -0.11    1.36
  -5   1  -8   16.63    3.37
   5  -1   8    3.25    2.18
  -5   1  -8   13.53    4.56
  -5   1  -9  111.11    8.34
   5  -1   9  109.52   17.37
  -5   1  -9  111.26   11.19
  -5   1  -9  106.34   11.88
  -5   1 -10    0.13    0.56
  -5   1 -10    2.26    2.31
  -5   1 -11  234.62   18.94
   5  -1  11  231.34   29.76
   5  -1  12    1.73    2.67
  -5   1 -12   10.16    4.99
   5  -1  13   22.19   10.26
  -5   1 -13   31.58    7.37
   5   0 -10   21.42   10.21
   5   0  -9   81.48   12.73
  -5   0   9   84.61   13.22
  -5   0   9   75.10   14.96
   5   0  -9   93.64   19.19
  -5   0   8   41.57    8.87
  -5   0   8   39.80   10.91
   5   0  -8   40.85   12.59
   5   0  -8   45.52    9.50
  -5   0   7  177.47   21.62
   5   0  -7  150.94   16.54
  -5   0   7  160.54   16.90
   5   0  -7  176.49   25.11
  -5   0   6   32.17    6.98
  -5   0   6   33.59    9.09
   5   0  -6   32.35    7.31
  -5   0   5   13.56    5.61
  -5   0   5   11.06    4.15
   5   0  -5   13.71    4.91
   5   0  -4  251.00   20.58
  -5   0   4  253.34   18.59
   5   0  -4  272.89   22.04
  -5   0   4  267.04   23.95
   5   0  -3  168.97   16.44
  -5   0   3  173.59   14.56
  -5   0   2   -0.23    1.79
   5   0  -2   -1.56    1.14
   5   0  -2    0.36    2.62
  -5   0   1  712.00   28.28
   5   0  -1  683.96   36.23
   5   0  -1  734.53   26.16
  -5   0   1  718.75   32.34
  -5   0   0  145.64   13.20
   5   0   0  162.82   11.85
   5   0   0  148.16   16.39
  -5   0   0  159.86   11.62
   5   0   0  171.49   10.85
  -5   0   0  155.83   13.83
  -5   0   0  141.42   17.99
  -5   0  -1  600.01   26.55
   5   0   1  601.21   24.09
   5   0   1  561.75   34.41
  -5   0  -1  634.93   23.51
  -5   0  -1  644.36   28.74
   5   0   1  644.33   21.86
  -5   0  -1  607.60   17.57
  -5   0  -1  528.11   34.59
  -5   0  -2  289.43   16.60
   5   0   2  278.31   15.59
   5   0   2  252.87   24.67
  -5   0  -2  273.47   18.51
  -5   0  -2  256.98   20.68
  -5   0  -3   91.28    8.96
   5   0   3  114.93    9.52
   5   0   3   89.78   20.49
  -5   0  -3  134.03    8.50
  -5   0  -3  118.91   11.98
  -5   0  -3  101.61   11.83
  -5   0  -4   45.64    5.74
  -5   0  -4   56.86    4.54
  -5   0  -4   47.88    7.52
  -5   0  -4   55.39    9.28
   5   0   4   46.70   11.55
  -5   0  -4   40.77    7.07
  -5   0  -5  273.40   14.11
   5   0   5  310.21   29.54
  -5   0  -5  295.46   19.50
  -5   0  -5  328.67   22.26
  -5   0  -5  277.19   19.16
  -5   0  -6    6.67    2.17
   5   0   6    1.38    2.82
  -5   0  -6    0.36    1.58
  -5   0  -6    4.76    2.70
  -5   0  -7    1.60    1.14
   5   0   7    2.93    2.18
  -5   0  -7    0.56    2.26
  -5   0  -8   52.65    5.66
   5   0   8   18.12    3.99
   5   0   8   14.82    5.52
  -5   0  -8   47.09    8.60
  -5   0  -8   25.23    5.92
  -5   0  -9  399.54   15.24
  -5   0  -9  386.48   23.70
  -5   0  -9  356.93   24.51
   5   0  10    4.27    4.17
  -5   0 -10    2.74    1.31
   5   0  10    1.53    3.28
  -5   0 -10    0.33    2.35
  -5   0 -11   97.94   13.08
   5   0  11  134.67   21.50
   5   0  12   18.75    8.66
  -5   0 -12    8.79    4.54
   5   0  13   32.55   12.50
  -5   0 -13   28.23    7.37
  -5   0 -14   -1.40    2.77
  -5  -1  10   34.21   10.14
  -5  -1   9   43.10   11.06
  -5  -1   9   26.27    7.13
   5   1  -9   47.80   14.25
  -5  -1   8   -2.76    3.13
  -5  -1   8    4.98    3.51
   5   1  -8    4.26    2.96
   5   1  -8    8.73    4.99
  -5  -1   7   34.39    8.01
   5   1  -7   26.17   10.13
   5   1  -7   20.48    6.45
  -5  -1   7   32.83    9.35
  -5  -1   6   -0.18    2.24
  -5  -1   6   -0.20    2.99
   5   1  -6    0.12    1.71
  -5  -1   5  305.54   26.58
   5   1  -5  287.41   24.67
  -5  -1   5  332.71   22.89
   5   1  -5  342.91   15.06
   5   1  -5  323.90   25.03
   5   1  -4   84.99   13.38
  -5  -1   4   84.47   10.91
   5   1  -4   91.85    7.64
   5   1  -4   96.80   12.67
   5   1  -3  449.30   31.30
  -5  -1   3  450.27   24.51
   5   1  -3  481.27   18.84
  -5  -1   2   15.18    4.43
  -5  -1   2   12.87    3.85
   5   1  -2   22.00    4.64
   5   1  -2   14.51    3.10
   5   1  -2   14.27    5.86
   5   1  -1   79.68    8.55
  -5  -1   1   73.27    8.17
  -5  -1   1   70.34    9.19
   5   1  -1   98.81    9.77
   5   1  -1   77.38    7.16
   5   1  -1   84.74   13.75
   5   1   0  149.80   11.18
   5   1   0  137.19   18.32
  -5  -1   0  151.83   13.33
  -5  -1   0  147.89   11.32
   5   1   0  158.88   10.41
   5   1   1  192.50   12.37
   5   1   1  167.99   21.29
  -5  -1  -1  180.73   14.91
  -5  -1  -1  193.58   12.06
  -5  -1  -1  165.15    8.45
   5   1   1  203.50   12.08
   5   1   2  315.73   16.01
   5   1   2  351.85   32.10
  -5  -1  -2  373.87   22.40
  -5  -1  -2  363.79   15.77
  -5  -1  -2  300.85   27.37
   5   1   2  346.67   16.75
  -5  -1  -2  332.71   17.03
  -5  -1  -3  714.52   28.68
   5   1   3  787.12   26.52
   5   1   3  833.70   50.91
  -5  -1  -3  870.00   36.12
  -5  -1  -3  901.23   25.03
  -5  -1  -3  666.42   40.48
   5   1   3  830.12   28.53
  -5  -1  -4   43.49    5.82
  -5  -1  -4   46.98    8.42
  -5  -1  -4   63.72    5.19
   5   1   4   62.36   13.62
  -5  -1  -4   39.30    8.84
  -5  -1  -5  124.01    9.97
   5   1   5  142.83   19.56
  -5  -1  -5  155.48   15.45
  -5  -1  -5  161.28    7.56
  -5  -1  -5  116.67   14.77
  -5  -1  -6    0.75    0.63
   5   1   6    2.57    1.36
  -5  -1  -6    3.34    0.79
   5   1   6    3.22    4.04
  -5  -1  -6   -1.31    1.79
  -5  -1  -7   96.32    7.83
   5   1   7  140.66   18.55
   5   1   7  103.80    8.43
  -5  -1  -7  116.93   14.09
  -5  -1  -7  103.26   14.00
  -5  -1  -8   43.73    4.78
   5   1   8   59.56    6.57
   5   1   8   42.46   10.23
  -5  -1  -8   41.68    9.29
  -5  -1  -8   48.25    9.51
   5   1   9   97.98   16.29
  -5  -1  -9   64.67   11.94
   5   1  10    9.15    3.64
  -5  -1 -10    5.97    3.71
   5   1  11   65.56   14.24
  -5  -1 -11   53.98   10.82
   5   1  12   56.82   14.14
  -5  -1 -12   60.16   11.83
   5   1  13   76.80   17.86
  -5  -1 -13   50.48   11.81
  -5  -1 -14    8.92    3.15
  -5  -2  10   -1.80    1.40
  -5  -2   9   67.88   13.79
   5   2  -9   67.07   17.05
  -5  -2   9   60.26   11.59
  -5  -2   8    6.93    4.46
  -5  -2   8    4.21    3.19
   5   2  -8   10.58    7.40
   5   2  -8    1.45    3.34
  -5  -2   7  179.57   21.62
   5   2  -7  121.30   17.98
  -5  -2   7  169.54   18.06
  -5  -2   7  177.26   13.95
   5   2  -7  188.32   27.45
  -5  -2   6    2.72    2.61
  -5  -2   6   13.39    5.20
   5   2  -6    4.48    2.08
   5   2  -6    8.02    5.41
   5   2  -6    9.36    4.13
  -5  -2   5   22.37    7.01
  -5  -2   5   17.42    4.86
   5   2  -5   16.73    1.84
   5   2  -5   16.57    2.04
   5   2  -5   19.07    4.58
   5   2  -5   14.37    6.03
   5   2  -5   24.87    6.72
  -5  -2   4    3.85    2.29
   5   2  -4    0.87    1.10
   5   2  -4   -0.31    3.66
   5   2  -4    0.42    1.12
  -5  -2   3   28.44    6.14
  -5  -2   3   27.26    5.77
   5   2  -3   25.99    8.53
   5   2  -3   23.99    5.30
   5   2  -3   34.47    6.91
   5   2  -2  240.63   26.26
  -5  -2   2  258.88   17.13
  -5  -2   2  251.07   17.82
   5   2  -2  235.04   17.02
   5   2  -1  841.07   51.41
  -5  -2   1  855.81   35.38
  -5  -2   1  877.98   32.77
  -5  -2   0   20.21    5.44
   5   2   0   21.80    4.32
  -5  -2   0   25.25    4.49
   5   2   0   21.57    9.55
   5   2   0   24.65    5.01
   5   2   1  208.97   13.38
   5   2   1  251.04   27.91
  -5  -2  -1  217.91   17.77
  -5  -2  -1  243.11   13.67
  -5  -2  -1  253.17   10.73
   5   2   1  216.20   14.55
  -5  -2  -2   23.25    4.29
   5   2   2   25.28    4.24
  -5  -2  -2   27.59    4.10
   5   2   2   28.53    9.17
   5   2   2   28.02    5.00
  -5  -2  -2   25.06    6.39
   5   2   3  305.81   15.20
   5   2   3  381.51   33.09
  -5  -2  -3  358.97   24.95
  -5  -2  -3  388.38   15.31
   5   2   3  372.02   18.37
  -5  -2  -3  334.06   20.31
  -5  -2  -4    8.72    3.44
  -5  -2  -4    5.86    1.46
   5   2   4    0.45    3.33
   5   2   4    6.65    2.39
  -5  -2  -4    5.64    3.62
   5   2   5  306.06   13.75
   5   2   5  309.42   28.00
  -5  -2  -5  329.56   25.59
  -5  -2  -5  360.52   12.78
  -5  -2  -5  249.42   25.93
   5   2   5  317.87   17.34
  -5  -2  -5  295.43   20.45
   5   2   6   35.85    4.24
  -5  -2  -6   43.35    3.77
   5   2   6   42.61   10.45
  -5  -2  -6   27.12    6.85
  -5  -2  -6   38.56    9.26
   5   2   7  328.92   22.48
   5   2   7  274.64   25.71
   5   2   7  210.27   11.01
  -5  -2  -7  284.49    9.48
  -5  -2  -7  195.90   23.16
   5   2   8  238.31   24.49
   5   2   8  203.25   20.12
   5   2   8  242.18   11.79
  -5  -2  -8  278.99    9.19
  -5  -2  -8  259.07    8.16
  -5  -2  -8  213.02   24.86
   5   2   9   57.32   11.41
  -5  -2  -9   38.97    9.93
   5   2  10   38.46    9.78
  -5  -2 -10   27.12    8.47
  -5  -2 -11  249.24   27.93
   5   2  11  331.59   31.53
   5   2  12    5.47    4.59
  -5  -2 -12   -4.54    6.78
   5   2  13    4.52    3.94
  -5  -2 -13  -16.57    7.35
  -5  -2 -14    7.75    3.75
  -5  -3  10   -3.97    3.49
  -5  -3   9   40.88   10.87
  -5  -3   8   56.27   12.15
   5   3  -8   70.79   17.79
  -5  -3   8   43.61    9.56
  -5  -3   7    7.45    3.76
   5   3  -7   23.45    9.97
  -5  -3   7   10.15    5.00
   5   3  -7   15.92    6.66
  -5  -3   7   11.84    3.45
  -5  -3   6   -0.06    2.01
  -5  -3   6    0.10    2.25
   5   3  -6    0.04    2.00
   5   3  -6    5.71    4.20
  -5  -3   5   24.04    6.25
   5   3  -5   13.69    5.44
   5   3  -5    8.07    3.41
   5   3  -5   24.82    9.46
  -5  -3   5   11.07    5.01
   5   3  -5   20.21    5.60
   5   3  -4  284.17   27.96
  -5  -3   4  349.89   23.01
  -5  -3   4  325.42   21.31
   5   3  -4  359.47   12.93
   5   3  -4  350.98   29.36
   5   3  -4  377.57   23.76
   5   3  -3  373.00   32.61
  -5  -3   3  364.15   22.45
  -5  -3   3  390.58   22.86
   5   3  -3  359.83   29.10
   5   3  -3  419.51   13.16
   5   3  -3  380.16   23.39
  -5  -3   2   32.94    6.36
  -5  -3   2   23.54    5.15
   5   3  -2   22.90    7.66
   5   3  -2   33.42    8.36
  -5  -3   1   37.96    7.39
  -5  -3   1   42.52    6.43
   5   3  -1   31.63    9.96
   5   3  -1   33.32    8.18
   5   3   0  162.09   13.35
   5   3   0  135.91   19.40
  -5  -3   0  143.67   14.95
  -5  -3   0  156.56   11.84
  -5  -3   0  114.06    7.32
   5   3   0  143.54   15.34
   5   3   1  787.95   29.98
   5   3   1  844.23   49.74
  -5  -3  -1  764.25   38.88
  -5  -3  -1  808.31   28.65
   5   3   1  722.72   35.27
   5   3   2   31.12    5.10
  -5  -3  -2   42.13    5.50
   5   3   2   45.22   10.89
  -5  -3  -2   35.23    5.42
   5   3   2   41.67    7.32
  -5  -3  -2   37.17    8.77
  -5  -3  -3   40.29    6.93
   5   3   3   46.44    5.71
  -5  -3  -3   52.67    6.08
   5   3   3   38.97    9.57
   5   3   3   52.29    7.72
  -5  -3  -3   54.37   10.54
   5   3   4  157.58   19.54
  -5  -3  -4  131.26   17.68
  -5  -3  -4  182.96   11.20
   5   3   4  175.87   13.67
  -5  -3  -4  143.13   14.54
   5   3   5  654.00   21.09
   5   3   5  733.67   42.74
  -5  -3  -5  642.17   33.62
   5   3   6    2.41    1.22
   5   3   6    0.35    2.37
   5   3   7   94.46   15.20
   5   3   7   70.38    5.20
  -5  -3  -7   71.58   11.48
   5   3   8    2.61    3.00
  -5  -3  -8    0.40    1.30
   5   3   8    2.47    0.95
   5   3   8    0.41    2.38
   5   3   8    0.74    1.57
  -5  -3  -9  384.18   14.25
  -5  -3  -9  374.83   29.62
   5   3   9  315.85   27.05
   5   3  10   19.92    6.94
  -5  -3 -10   18.65    7.12
   5   3  11   61.71   13.34
  -5  -3 -11   75.66   14.14
   5   3  12   30.67   10.26
  -5  -3 -12   37.59   10.36
  -5  -3 -13  126.38   19.26
   5   3  13  124.55   21.72
  -5  -4   9   13.70    5.94
  -5  -4   8   11.03    4.96
   5   4  -8   19.42    9.57
  -5  -4   8   19.77    6.59
  -5  -4   7  104.62   16.16
  -5  -4   7  108.05   14.98
   5   4  -7  143.61   25.41
  -5  -4   7   96.69   12.86
  -5  -4   6   81.08   13.71
  -5  -4   6   68.91   11.43
   5   4  -6  111.35   22.01
   5   4  -6   75.55   13.93
   5   4  -5  109.79   16.18
  -5  -4   5  110.50   13.71
   5   4  -5  131.75   24.37
  -5  -4   4    3.55    2.24
  -5  -4   4   14.28    4.46
   5   4  -4   10.18    4.41
   5   4  -4    7.05    5.03
   5   4  -4    7.69    3.26
  -5  -4   3   38.01    7.33
  -5  -4   3   41.25    7.16
   5   4  -3   27.53    7.54
   5   4  -3   39.10    4.89
   5   4  -3   54.94    7.97
  -5  -4   2   48.66    8.55
  -5  -4   2   64.31    8.77
   5   4  -2   52.43   11.17
   5   4  -2   61.39    6.30
   5   4  -1  646.87   41.07
  -5  -4   1  705.02   29.98
   5   4  -1  764.78   46.61
   5   4  -1  690.00   24.50
   5   4   0  242.10   24.55
  -5  -4   0  276.24   23.20
  -5  -4   0  297.71   17.90
  -5  -4   0  255.37   14.09
   5   4   0  275.83   26.54
   5   4   0  301.59   15.31
   5   4   1   84.67   10.23
  -5  -4  -1   79.55    8.83
   5   4   1   83.21   14.46
  -5  -4  -1  101.76    8.95
   5   4   1   66.76   12.35
  -5  -4  -1   64.77   11.99
   5   4   2   45.64    7.08
  -5  -4  -2   59.84    7.63
   5   4   2   50.98   11.02
  -5  -4  -2   46.52    6.64
   5   4   2   34.27    8.18
  -5  -4  -2   43.83   11.63
   5   4   3  412.42   20.31
   5   4   3  422.17   32.26
  -5  -4  -3  359.72   22.34
  -5  -4  -4    0.48    2.15
   5   4   4    1.53    1.30
   5   4   4    1.03    2.75
   5   4   5  148.47   18.93
  -5  -4  -5  123.08   14.83
   5   4   6   79.31    6.14
   5   4   6   91.92   14.86
  -5  -4  -6   79.37   12.08
   5   4   6   94.48   12.14
   5   4   7  228.50    9.71
   5   4   7  253.97   25.70
  -5  -4  -7  226.52   21.64
   5   4   7  227.42   20.30
   5   4   8   34.39    8.18
  -5  -4  -8   41.89    9.71
   5   4   8   36.30    2.92
   5   4   8   19.25    5.37
   5   4   9   36.99    9.25
  -5  -4  -9   27.85    8.01
   5   4   9   26.88    7.18
   5   4  10  151.48   17.92
  -5  -4 -10  185.74   22.26
   5   4  10  162.08   20.92
  -5  -4 -11  351.13   32.22
   5   4  11  375.46   33.73
   5   4  12    3.54    4.18
  -5  -4 -12    7.31    4.93
   5   4  13  103.06   19.07
  -5  -4 -13   98.19   18.05
  -5  -5   8    6.29    3.43
   5   5  -7   95.84   21.41
  -5  -5   7   63.08   12.07
  -5  -5   7   83.74   13.05
  -5  -5   7   65.60   12.67
  -5  -5   6   -1.71    2.02
   5   5  -6    1.68    2.58
  -5  -5   6    3.29    1.79
  -5  -5   5   39.44    8.54
   5   5  -5   54.34   15.67
   5   5  -5   35.12    8.93
   5   5  -4   87.26   14.10
  -5  -5   4   73.59   11.02
   5   5  -4   78.49   18.24
   5   5  -3  143.15   17.93
  -5  -5   3  109.79   13.10
  -5  -5   3  138.65   14.52
  -5  -5   2  545.43   28.59
   5   5  -2  535.38   23.19
   5   5  -2  561.50   24.39
   5   5  -1   11.50    3.32
  -5  -5   1   15.94    4.87
   5   5  -1    3.63    3.50
  -5  -5   1    6.23    2.49
   5   5   0   15.08    3.86
  -5  -5   0   14.84    4.48
   5   5   0   17.46    6.13
  -5  -5   0   15.68    4.14
   5   5   1  330.99   27.99
  -5  -5  -1  393.71   22.43
  -5  -5  -1  380.23   20.52
   5   5   1  327.73   19.57
   5   5   2   55.48   11.21
  -5  -5  -2   48.26    7.35
   5   5   2   49.46    7.52
   5   5   3  312.85   19.25
   5   5   3  301.96   26.71
  -5  -5  -3  332.68   21.73
   5   5   4  156.06   12.32
   5   5   4  187.83   21.46
  -5  -5  -4  147.12   15.94
   5   5   4  185.36   15.56
  -5  -5  -5   46.04    9.46
   5   5   5   55.96   11.28
   5   5   5   53.25    8.69
  -5  -5  -6   -0.17    2.73
   5   5   6    2.11    2.39
   5   5   7  162.42    8.56
  -5  -5  -7  164.62   19.16
   5   5   7  163.23   17.38
   5   5   8   15.63    5.42
  -5  -5  -8   15.21    6.14
   5   5   8   14.23    1.91
   5   5   8   15.97    4.40
   5   5   9   65.37   12.38
  -5  -5  -9   57.90   12.06
   5   5   9   58.58    9.33
   5   5  10   -0.10    2.79
  -5  -5 -10    4.42    3.83
  -5  -5 -11   98.44   17.21
   5   5  11   86.24   15.89
   5   5  12    1.78    2.60
  -5  -5 -12    1.71    3.02
  -5  -5 -13   19.60    7.83
  -5  -6   7   37.87    9.70
  -5  -6   7   30.23    8.68
  -5  -6   6   14.34    5.65
   5   6  -6   30.03   11.87
  -5  -6   6   19.13    6.42
  -5  -6   5   96.92   14.05
   5   6  -5  216.06   30.75
   5   6  -4   31.60   10.77
   5   6  -4   40.35   10.07
  -5  -6   4   21.65    6.48
   5   6  -3   17.15    6.82
  -5  -6   3   15.66    4.34
   5   6  -3   22.24    9.45
   5   6  -2   -1.92    2.46
  -5  -6   2    4.14    3.28
   5   6  -2    3.62    4.58
   5   6  -1   21.62    5.02
   5   6  -1   22.82    7.35
  -5  -6   1   33.18    7.12
   5   6  -1   33.77   11.37
  -5  -6   1   22.97    5.62
   5   6  -1   24.17    3.89
   5   6   0  113.74   16.20
  -5  -6   0  149.43   15.18
  -5  -6   0  141.77   13.57
   5   6   0  117.93   12.00
   5   6   0  136.07    9.98
   5   6   1  206.83   22.00
  -5  -6  -1  277.27   21.21
  -5  -6  -1  267.48   18.71
   5   6   1  225.94   17.27
   5   6   1  234.11   14.51
   5   6   2   32.00    6.74
   5   6   2   34.36    9.00
  -5  -6  -2   34.78    6.86
   5   6   2   33.89    5.92
   5   6   3   15.07    4.49
   5   6   3   21.42    5.50
  -5  -6  -3   14.35    4.85
  -5  -6  -4  165.12   17.34
   5   6   4  186.64   15.91
  -5  -6  -5  296.12   25.77
   5   6   5  368.86   24.07
  -5  -6  -6  176.44   20.31
   5   6   6  195.24   18.65
   5   6   7   53.10   10.10
  -5  -6  -7   61.71   12.32
   5   6   7   50.15    5.37
   5   6   8   -0.12    1.19
  -5  -6  -8    3.60    4.00
   5   6   8    2.57    1.45
   5   6   9   35.04    9.10
  -5  -6  -9   41.87   10.56
   5   6  10   -1.70    3.78
  -5  -6 -10  -13.59    6.22
   5   6  11   26.53    8.69
  -5  -6 -11   14.83    6.62
   5   6  12    1.64    1.14
  -5  -6 -12   -2.11    4.18
  -5  -7   6    7.17    4.36
   5   7  -5   49.04   14.22
  -5  -7   5   32.98    8.57
  -5  -7   5   48.13   10.10
   5   7  -4    6.66    5.72
  -5  -7   4   -1.92    2.58
  -5  -7   3  141.20   17.09
   5   7  -3  119.51   21.73
  -5  -7   2   99.05   14.13
   5   7  -2   62.06   14.66
  -5  -7   1  129.32   15.77
  -5  -7   1   95.28   12.40
   5   7  -1  110.22   18.78
   5   7   0    1.12    0.53
  -5  -7   0    0.85    4.23
   5   7   0   -1.35    1.39
  -5  -7   0    1.64    1.25
   5   7   1    3.72    2.03
   5   7   1    0.82    0.78
   5   7   1   -1.43    2.73
  -5  -7  -1    3.76    2.38
   5   7   2    8.04    3.17
   5   7   2    4.04    3.04
   5   7   2    9.01    3.84
  -5  -7  -2    5.86    3.32
  -5  -7  -3  260.38   21.47
   5   7   3  262.87   18.73
  -5  -7  -4  107.16   14.50
   5   7   4  127.87   13.69
   5   7   5   18.47    5.34
  -5  -7  -5   16.18    6.25
  -5  -7  -6   81.33   14.86
   5   7   6   77.24   12.01
   5   7   7  121.51   10.48
  -5  -7  -7  148.14   20.04
   5   7   7  136.20   16.73
   5   7   8   -1.25    3.28
  -5  -7  -8    1.62    3.44
   5   7   8   -0.50    0.92
   5   7   9   66.90   13.13
  -5  -7  -9   63.27   13.90
   5   7  10   16.80    6.62
  -5  -7 -10   14.19    6.74
  -5  -7 -11  106.70   19.18
   5   7  11   96.31   17.39
   5   7  12    9.06    6.25
   5   8  -5   29.53   11.22
   5   8  -4    4.26    5.76
   5   8  -3   97.34   19.06
  -5  -8   3  114.02   16.63
   5   8  -2    8.64    5.20
  -5  -8   2    8.76    4.66
   5   8  -1   40.51   11.12
  -5  -8   1   37.63    9.76
  -5  -8   1   24.44    6.93
   5   8   0   48.11   11.30
  -5  -8   0   59.83   10.50
  -5  -8   0   83.01   14.49
   5   8   1   64.02   11.89
  -5  -8  -1   73.03   11.53
   5   8   2    2.85    1.84
   5   8   2    4.68    3.58
  -5  -8  -2    5.28    3.63
   5   8   3   62.74   10.45
  -5  -8  -3   63.41   11.25
   5   8   3   69.73    9.87
   5   8   4    0.54    2.18
   5   8   4   -5.06    2.68
  -5  -8  -4   -1.55    2.83
   5   8   5  114.51   11.60
  -5  -8  -5   78.14   13.77
   5   8   5  111.06   13.97
   5   8   6    0.96    1.25
   5   8   6    3.13    1.57
  -5  -8  -7   83.44   15.77
   5   8   7   69.71    8.48
   5   8   7   97.39   14.73
  -5  -8  -8   53.97   13.03
   5   8   8   58.32   12.22
   5   8   9   54.25   12.20
  -5  -8  -9   52.78   12.92
   5   8  10   24.56    8.56
  -5  -8 -10   17.03    7.38
   5   8  11   27.96   10.03
  -5  -8 -11   20.68    7.70
   5   9  -4   19.60    7.75
   5   9  -3   17.47    7.52
   5   9  -2   44.46   11.14
   5   9  -1   62.19   12.71
  -5  -9   1   71.00   12.66
  -5  -9   1   93.98   16.69
   5   9   0    4.37    2.89
  -5  -9   0   22.63    9.40
  -5  -9   0   14.57    5.51
   5   9   1   87.20   13.23
  -5  -9  -1   98.97   14.44
   5   9   2    4.34    2.37
  -5  -9  -2   -2.57    2.88
  -5  -9  -3   74.62   12.88
  -5  -9  -4   16.76    5.99
   5   9   5   52.47    8.35
   5   9   5   66.46   11.29
  -5  -9  -5   50.32   11.54
   5   9   6   39.04    8.80
   5   9   6   40.25    7.15
  -5  -9  -6   34.83    9.46
   5   9   7   32.35    8.70
   5   9   7   34.83    6.29
  -5  -9  -7   30.23    9.26
  -5  -9  -8   17.03    7.53
   5   9   8   15.72    6.40
  -5  -9  -9   35.21   10.88
   5   9   9   37.37   10.45
   5   9  10   -2.47    2.94
  -5 -10   1   76.54   14.13
  -5 -10   0   11.18    5.10
  -5 -10  -1   15.19    5.83
   5  10   2   22.41    6.45
  -5 -10  -2   25.97    7.92
   5  10   3   33.58    7.52
  -5 -10  -3   20.44    6.97
   5  10   4   46.61    8.85
  -5 -10  -4   64.26   13.21
   5  10   5   71.79   10.36
  -5 -10  -5   63.34   13.53
   5  10   6   21.20    5.47
  -5 -10  -6   29.67    9.42
  -5 -10  -7   39.79   11.40
   5  10   8   -1.22    1.20
  -5 -10  -8   -2.34    3.04
   5  10   9   62.06   13.76
   5  10  10   22.16    8.77
  -5 -11  -1    9.56    4.86
  -5 -11  -2   -0.93    1.77
   5  11   3   47.96    9.69
  -5 -11  -3   20.00    7.64
   5  11   4    6.31    3.79
  -5 -11  -4    2.94    4.35
   5  11   5   19.46    5.90
   6  -8  -1    5.04    3.65
   6  -8   0    7.38    3.95
   6  -8   1    2.96    2.01
   6  -8   2  149.34   16.94
   6  -8   3   35.35    8.50
   6  -8   4    1.52    2.93
  -6   7   4   80.37   12.35
   6  -7  -3   -0.43    1.43
  -6   7   3   -0.24    1.44
  -6   7   2   75.27   10.95
   6  -7  -2   85.24   12.82
   6  -7  -1    0.40    1.94
  -6   7   1    0.99    0.97
  -6   7   1    0.15    0.86
  -6   7   0   52.14    9.80
  -6   7   0   63.89    9.69
   6  -7   0   73.18   11.40
   6  -7   1   51.86    9.81
  -6   7  -1   72.20   10.04
   6  -7   2   23.47    6.62
  -6   7  -2   29.00    6.55
  -6   7  -3    0.49    2.08
   6  -7   3    2.48    2.61
  -6   7  -4   84.27   10.97
   6  -7   4   54.00   10.49
  -6   7  -5    1.10    2.41
   6  -7   5    0.68    1.38
  -6   7  -6   31.89    7.07
  -6   6   6   57.01   12.16
   6  -6  -5   14.03    5.34
  -6   6   5   31.35    8.03
  -6   6   4   82.33   12.37
   6  -6  -4  101.45   14.32
  -6   6   4   81.15   14.52
  -6   6   3   80.87   11.48
   6  -6  -3   65.61   11.26
  -6   6   3   75.98   13.67
  -6   6   3   78.52    7.96
  -6   6   2  157.10   15.41
   6  -6  -2  168.66   17.70
  -6   6   2  132.38   17.59
  -6   6   2  128.76   10.39
  -6   6   1   76.20   10.44
   6  -6  -1   77.77   11.64
  -6   6   1   77.43   12.93
  -6   6   0   59.32    8.87
  -6   6   0   57.75   10.77
   6  -6   0   60.93   10.42
  -6   6  -1   57.12    8.53
  -6   6  -1   61.02   10.66
   6  -6   1   66.62   10.64
  -6   6  -2  295.69   19.88
  -6   6  -2  237.18   20.28
   6  -6   2  279.79   22.25
  -6   6  -3    9.38    3.55
   6  -6   3   10.29    4.10
  -6   6  -4   88.12   10.92
   6  -6   4   89.68   13.49
  -6   6  -5    6.85    2.94
   6  -6   5    1.39    2.75
  -6   6  -6    6.65    3.13
   6  -6   6    5.78    3.92
  -6   6  -7   -1.68    2.44
  -6   6  -8  111.72   12.22
  -6   6  -9    7.91    3.48
   6  -5  -7   38.14    9.15
  -6   5   7   35.39   10.57
   6  -5  -6   39.09    8.88
  -6   5   6   35.77   10.15
  -6   5   6   37.24   10.18
   6  -5  -5   47.94    9.61
  -6   5   5   43.90   10.91
  -6   5   5   61.54   11.61
  -6   5   4   85.48   12.72
   6  -5  -4  107.34   14.03
  -6   5   4  105.35   16.62
   6  -5  -3   27.90    7.37
  -6   5   3   25.10    6.39
  -6   5   3   20.59    7.02
  -6   5   3   28.59    5.13
  -6   5   2  220.06   17.96
  -6   5   2  209.15   22.36
   6  -5  -2  249.48   21.09
  -6   5   2  227.79   14.04
   6  -5  -1   20.11    5.94
  -6   5   1   25.90    6.22
  -6   5   1   17.02    6.24
  -6   5   1   24.94    4.61
  -6   5   0   70.36   11.89
  -6   5   0   90.94   10.89
  -6   5   0   97.85   14.29
   6  -5   0   91.16   12.36
  -6   5   0  107.36    9.70
  -6   5  -1    8.28    4.24
  -6   5  -1   11.63    4.02
  -6   5  -1    4.32    2.88
   6  -5   1    7.23    3.28
  -6   5  -2  109.21   14.34
  -6   5  -2  139.72   12.97
   6  -5   2  108.76   13.63
  -6   5  -3    2.78    1.75
   6  -5   3    2.87    3.30
  -6   5  -3    1.76    1.23
  -6   5  -4  263.05   17.89
   6  -5   4  253.31   22.82
  -6   5  -5   10.92    3.61
   6  -5   5    5.97    3.54
  -6   5  -6  197.92   15.52
   6  -5   6  161.05   22.00
  -6   5  -7    3.92    2.06
   6  -5   7    0.12    4.20
  -6   5  -8   19.33    4.70
  -6   5  -9    2.45    1.61
   6  -4  -9   14.28    7.10
   6  -4  -8   53.07   10.30
   6  -4  -7   16.03    5.33
  -6   4   7   20.13    7.41
   6  -4  -6   52.40    9.93
  -6   4   6   55.00   12.85
  -6   4   6   49.93   11.78
   6  -4  -5   10.83    4.47
  -6   4   5   16.24    6.22
  -6   4   5    5.80    4.35
  -6   4   4  119.63   15.09
  -6   4   4  102.05   16.67
   6  -4  -4  130.91   15.15
  -6   4   4   72.21   12.38
   6  -4  -3    2.57    3.53
  -6   4   3    4.92    3.44
  -6   4   3    0.77    2.35
   6  -4  -2   25.00    6.48
  -6   4   2   29.97    6.49
  -6   4   2   32.49    8.74
  -6   4   2   30.03    6.87
  -6   4   2   29.51    5.44
  -6   4   1  216.98   21.84
  -6   4   1  211.30   16.80
   6  -4  -1  225.21   19.52
  -6   4   1  252.52   20.83
  -6   4   1  229.54   14.63
  -6   4   0  155.29   13.80
   6  -4   0  176.35   17.19
   6  -4   0  154.04   12.33
  -6   4   0  156.48   16.20
  -6   4   0  165.90   12.16
  -6   4   0  150.22   17.61
  -6   4  -1  131.56   12.34
   6  -4   1  143.65   15.90
   6  -4   1  135.74   10.85
  -6   4  -1   99.94   12.73
  -6   4  -1  138.45   11.28
   6  -4   2  211.60   19.59
   6  -4   2  215.34   13.05
  -6   4  -2  225.02   19.01
  -6   4  -2  272.21   16.42
  -6   4  -3    4.95    2.52
  -6   4  -3   13.54    3.86
  -6   4  -3    9.22    4.14
   6  -4   3   10.04    4.35
  -6   4  -4  275.06   17.45
   6  -4   4  270.55   24.25
  -6   4  -4  296.97   18.76
  -6   4  -5   11.86    3.38
  -6   4  -5   13.77    4.43
   6  -4   5    7.82    5.91
  -6   4  -6  106.42   10.71
  -6   4  -6  120.61   12.70
   6  -4   6   89.54   16.72
  -6   4  -7    0.30    1.71
   6  -4   7    3.87    3.82
  -6   4  -7    2.76    2.24
  -6   4  -8   81.35    9.37
   6  -4   8   85.89   16.72
  -6   4  -8   95.51   11.77
  -6   4  -9    3.15    2.23
  -6   4  -9   -0.45    2.07
   6  -3  -9    5.57    4.91
   6  -3  -9    1.19    2.79
   6  -3  -8   18.55    6.66
   6  -3  -7   -0.77    3.63
  -6   3   7    5.85    5.49
   6  -3  -6  110.68   14.36
  -6   3   6  104.89   17.47
   6  -3  -5    1.53    1.78
  -6   3   5    1.76    2.38
  -6   3   5    1.10    1.34
   6  -3  -4   51.32    9.39
  -6   3   4   39.05    8.45
  -6   3   4   48.35   11.37
   6  -3  -3    0.91    2.35
  -6   3   3    0.72    1.68
  -6   3   3    2.00    3.21
  -6   3   2  351.01   28.88
  -6   3   2  325.97   22.92
   6  -3  -2  408.70   26.46
  -6   3   2  339.03   22.44
  -6   3   2  306.48   23.22
  -6   3   2  364.06   20.23
  -6   3   1   36.07    6.90
  -6   3   1   40.50    7.87
  -6   3   1   55.64    7.96
  -6   3   1   33.30    6.07
  -6   3   1   35.26    8.79
   6  -3  -1   40.06    8.45
  -6   3   0   66.26    9.11
   6  -3   0   52.80    9.84
   6  -3   0   66.97    7.58
  -6   3   0   70.16   10.90
  -6   3   0   61.13    8.84
  -6   3   0   64.97    8.09
  -6   3  -1  130.92   12.17
   6  -3   1  136.02   15.22
   6  -3   1  140.61   10.32
  -6   3  -1  140.81   11.62
  -6   3  -2   48.64    7.51
   6  -3   2   26.51    4.02
  -6   3  -2   43.51    6.55
   6  -3   2   28.74    7.38
  -6   3  -2   19.94    5.01
  -6   3  -3    2.27    1.71
   6  -3   3   -0.37    0.98
  -6   3  -3    3.83    2.39
   6  -3   3    2.12    3.33
  -6   3  -3    3.00    1.99
  -6   3  -4  192.85   13.94
   6  -3   4  167.83   20.38
   6  -3   4  177.15    8.02
  -6   3  -4  179.17   16.01
  -6   3  -4  220.03   15.66
  -6   3  -5   30.59    5.57
  -6   3  -5   38.29    6.68
   6  -3   5   23.17    8.01
  -6   3  -6  376.50   19.87
   6  -3   6  285.72   30.83
  -6   3  -7   41.91    6.53
   6  -3   7   46.61   12.71
  -6   3  -7   53.23    8.86
  -6   3  -8  154.40   12.40
   6  -3   8  138.03   21.26
  -6   3  -8  161.53   15.47
  -6   3  -9   15.95    4.09
   6  -3   9   10.29    6.15
  -6   3  -9   22.05    5.94
  -6   3 -10   61.34   10.13
   6  -2  -9    0.61    1.80
  -6   2   8   57.80   14.23
   6  -2  -8   62.37   11.50
  -6   2   7    5.89    4.47
  -6   2   7    4.11    2.71
   6  -2  -7    5.57    4.47
  -6   2   6   70.25   14.55
   6  -2  -6   63.58   11.06
  -6   2   6   70.93   10.90
  -6   2   5   67.16   10.64
  -6   2   5   62.89   13.30
   6  -2  -5   60.73   10.45
  -6   2   4  150.21   17.75
  -6   2   4  172.54   21.24
   6  -2  -4  198.04   18.79
  -6   2   4  156.34   14.99
  -6   2   3   32.72    8.73
  -6   2   3   24.33    6.73
  -6   2   3   35.79    6.76
   6  -2  -3   37.12    8.09
  -6   2   2    1.25    2.82
  -6   2   2    4.46    2.06
  -6   2   2    7.72    3.01
   6  -2  -2    6.89    3.73
  -6   2   1   -1.67    1.18
  -6   2   1   -0.32    2.47
   6  -2  -1    0.88    1.10
  -6   2   1   -0.56    1.52
  -6   2   1    1.77    2.38
   6  -2  -1   -1.81    2.33
  -6   2   0  140.79   13.28
   6  -2   0  145.44   16.48
   6  -2   0  149.43   10.93
  -6   2   0  141.01   14.41
  -6   2   0  120.77   13.47
  -6   2  -1    0.34    2.05
   6  -2   1    0.62    0.73
  -6   2  -1    1.82    2.48
  -6   2  -1    1.41    2.00
   6  -2   1    2.55    2.32
  -6   2  -1    1.02    0.40
  -6   2  -2  500.79   23.39
   6  -2   2  311.86   25.63
   6  -2   2  303.99   14.17
  -6   2  -2  331.15   18.97
  -6   2  -2  545.55   25.32
  -6   2  -3    2.36    2.13
   6  -2   3    1.07    0.78
  -6   2  -3    2.17    2.03
   6  -2   3   -0.65    2.22
  -6   2  -4  138.44   11.66
   6  -2   4  120.46   18.11
  -6   2  -4  126.23   12.61
  -6   2  -4  156.53   13.58
  -6   2  -5   28.73    5.07
   6  -2   5   20.46    8.06
  -6   2  -5   27.14    6.04
  -6   2  -5   18.32    5.07
  -6   2  -6  147.14   11.73
   6  -2   6  135.77   21.34
  -6   2  -6  155.49   14.27
  -6   2  -7   59.23    7.17
   6  -2   7   56.85   13.33
  -6   2  -7   56.84    9.26
  -6   2  -8  366.66   18.75
  -6   2  -8  400.76   24.82
  -6   2  -9    3.62    2.28
  -6   2  -9    4.66    2.80
   6  -2  10   41.26   11.28
  -6   2 -10   44.91    9.07
  -6   2 -11    2.71    2.33
   6  -2  12   56.80   16.33
   6  -1  -9   41.16   10.09
  -6   1   8   25.58    7.28
  -6   1   8   10.03    5.42
   6  -1  -8   26.59    9.41
   6  -1  -8   22.37    7.46
  -6   1   7   23.59    8.66
  -6   1   7   20.52    6.36
   6  -1  -7   13.02    5.57
  -6   1   6    8.65    3.90
  -6   1   6   11.89    6.37
   6  -1  -6   20.68    6.79
  -6   1   5   38.88   10.18
  -6   1   5   25.48    6.23
   6  -1  -5   28.50    7.48
  -6   1   4   76.32   14.29
   6  -1  -4   70.23   11.69
  -6   1   4   57.46    9.02
  -6   1   4   57.95    7.08
  -6   1   3    2.35    1.85
   6  -1  -3    5.00    3.53
  -6   1   2  299.97   23.09
   6  -1  -2  369.27   26.89
  -6   1   2  359.40   21.48
  -6   1   2  337.82   19.27
  -6   1   1    5.55    3.09
  -6   1   1    3.84    2.89
   6  -1  -1    2.02    1.50
  -6   1   1    3.67    2.07
   6  -1  -1    4.36    3.24
  -6   1   0  191.24   16.24
   6  -1   0  170.55   19.50
  -6   1   0  209.62   14.86
   6  -1   0  206.37   12.88
  -6   1   0  187.24   15.33
  -6   1   0  163.11   20.15
  -6   1  -1    2.92    1.49
  -6   1  -1    8.30    2.80
   6  -1   1   14.27    2.94
  -6   1  -1   12.25    4.02
  -6   1  -1    3.06    2.17
   6  -1   1   19.24    7.04
  -6   1  -1    7.67    2.14
  -6   1  -2   41.81    8.10
   6  -1   2   24.71    3.88
  -6   1  -2   33.81    5.27
  -6   1  -2   15.52    4.66
   6  -1   2   22.84    7.38
  -6   1  -2   21.81    4.10
  -6   1  -3   15.60    4.23
   6  -1   3    8.51    3.14
  -6   1  -3    9.23    4.08
   6  -1   3    1.94    2.99
  -6   1  -3    5.88    2.33
  -6   1  -4  138.93   11.48
   6  -1   4  132.23   12.15
   6  -1   4  119.29   18.74
  -6   1  -4  137.16   11.89
  -6   1  -4  125.06   13.51
  -6   1  -5    3.57    2.21
   6  -1   5    1.42    1.53
   6  -1   5    1.04    2.75
  -6   1  -5    5.59    3.80
  -6   1  -6  192.96   13.28
   6  -1   6  171.11   14.19
   6  -1   6  193.85   25.76
  -6   1  -6  201.84   17.50
  -6   1  -7    5.91    2.43
   6  -1   7    5.32    2.69
   6  -1   7    5.11    4.66
  -6   1  -7    8.39    4.22
  -6   1  -8  198.83   13.03
   6  -1   8  203.81   25.10
   6  -1   8  183.89   15.08
  -6   1  -8  191.38   18.03
  -6   1  -9   13.08    3.46
   6  -1   9    1.82    3.43
  -6   1  -9    9.25    4.25
   6  -1  10  231.30   27.08
  -6   1 -10  228.72   21.55
   6  -1  11    1.37    2.37
   6  -1  11   -2.56    4.76
  -6   1 -11   10.09    4.62
   6  -1  12   38.74   12.30
  -6   1 -12   40.15    9.64
   6   0  -9   40.53   10.81
  -6   0   8   40.58    9.56
  -6   0   8   33.05   10.27
   6   0  -8   46.26   14.03
   6   0  -8   27.43    8.54
  -6   0   7    0.26    1.98
  -6   0   7    3.08    2.91
   6   0  -7    2.65    1.36
  -6   0   6  130.81   19.74
   6   0  -6  150.11   19.28
  -6   0   6  144.51   16.43
  -6   0   5   42.05   10.60
  -6   0   5   31.97    7.44
   6   0  -5   40.28    9.88
   6   0  -4  266.08   24.97
  -6   0   4  245.40   19.64
  -6   0   4  254.82   25.72
   6   0  -3  148.81   18.91
  -6   0   3  131.34   13.62
  -6   0   2   44.82    7.28
   6   0  -2   41.67   10.39
  -6   0   1    7.20    3.04
   6   0  -1    5.34    2.53
   6   0  -1    2.06    3.30
  -6   0   0    5.57    2.64
   6   0   0    1.92    1.58
   6   0   0    8.98    5.21
  -6   0  -1  486.24   26.28
   6   0   1  464.43   36.67
  -6   0  -1  601.42   24.94
   6   0   1  585.51   23.33
  -6   0  -1  442.39   14.35
  -6   0  -1  485.94   36.57
  -6   0  -1  512.22   16.50
  -6   0  -2  573.38   27.79
   6   0   2  604.06   25.13
   6   0   2  435.41   35.76
  -6   0  -2  565.63   23.30
  -6   0  -2  425.55   17.64
  -6   0  -2  633.32   39.09
  -6   0  -3   -0.56    1.70
   6   0   3   -0.09    0.81
  -6   0  -3    1.36    1.35
   6   0   3   -3.46    7.76
  -6   0  -3    0.61    2.99
  -6   0  -4  111.78   10.98
   6   0   4  109.90   10.31
   6   0   4  112.40   19.07
  -6   0  -4  100.74   14.01
  -6   0  -5   26.60    5.01
   6   0   5   25.45    4.92
   6   0   5   17.76    7.93
  -6   0  -5   13.00    3.90
  -6   0  -6  101.91    9.58
   6   0   6  108.00   10.26
   6   0   6  117.83   19.07
  -6   0  -6  107.09   14.10
  -6   0  -7    2.10    1.56
   6   0   7    2.86    1.06
   6   0   7    6.22    5.18
  -6   0  -7    0.59    3.28
  -6   0  -8  121.90    9.94
   6   0   8  131.51   20.00
   6   0   8  115.01   10.82
  -6   0  -8  110.67   15.03
  -6   0  -9    5.04    2.03
   6   0   9    4.86    4.17
  -6   0  -9    1.54    1.64
   6   0  10  182.56   24.18
  -6   0 -10  185.24   20.82
   6   0  11    3.45    3.86
  -6   0 -11    2.59    2.23
   6   0  12   33.02   11.38
  -6   0 -12   24.53    7.84
  -6  -1   8  125.63   20.05
   6   1  -8  111.60   22.30
   6   1  -8   63.53   14.19
  -6  -1   7   14.46    5.66
   6   1  -7    1.67    2.01
  -6  -1   7    8.47    4.88
   6   1  -7    9.82    7.27
  -6  -1   6   38.30   10.56
  -6  -1   6   46.06    9.64
   6   1  -6   38.26   10.69
  -6  -1   5  101.70   16.72
  -6  -1   5   92.67   12.66
   6   1  -5   85.01   15.80
  -6  -1   4   35.96    7.67
   6   1  -4   42.84    5.28
   6   1  -4   39.52   10.97
  -6  -1   3   14.44    4.18
   6   1  -3   23.70    3.94
   6   1  -3   23.58    7.91
   6   1  -2  278.32   28.63
  -6  -1   2  239.97   18.09
   6   1  -2  254.93   13.57
  -6  -1   1  388.58   21.93
   6   1  -1  396.61   17.59
   6   1   0  368.85   34.37
  -6  -1   0  421.38   21.82
   6   1   0  428.70   18.81
  -6  -1  -1   -1.25    1.30
   6   1   1   -4.86    7.26
   6   1   1   -1.52    1.52
  -6  -1  -2    5.24    2.50
   6   1   2   17.15    3.84
  -6  -1  -2    8.16    2.67
   6   1   2   10.81    4.44
   6   1   3   41.43    5.96
  -6  -1  -3   47.44    5.87
   6   1   3   42.10   13.08
  -6  -1  -3   27.84    8.06
  -6  -1  -3   41.66    6.25
   6   1   4  419.64   19.73
   6   1   4  422.52   37.87
  -6  -1  -4  377.96   32.72
   6   1   5   51.28    6.46
  -6  -1  -5   80.20    6.65
   6   1   5   60.81   14.30
  -6  -1  -5   48.88   10.93
   6   1   6   37.43    5.39
  -6  -1  -6   50.65    3.94
   6   1   6   43.69   11.55
  -6  -1  -6   27.50    8.58
   6   1   7  185.47   23.20
  -6  -1  -7  172.83   21.37
   6   1   8  140.21   20.02
  -6  -1  -8  160.17   20.63
   6   1   9   32.86    9.64
  -6  -1  -9   14.16    5.77
   6   1  10   87.24   16.47
  -6  -1 -10   61.72   13.33
   6   1  11    6.77    4.50
  -6  -1 -11   -6.19    4.60
   6   1  12   76.20   16.76
  -6  -1 -12   36.42   10.67
  -6  -1 -13  -10.02    5.74
  -6  -2   8   25.55    9.10
  -6  -2   7   44.30   10.05
  -6  -2   7   53.35   13.12
   6   2  -7   35.81   11.19
   6   2  -7   68.97   17.74
  -6  -2   6   32.47    9.68
  -6  -2   6   35.43    8.67
   6   2  -6   25.87    9.02
   6   2  -6   28.88   10.82
  -6  -2   5    5.87    3.77
   6   2  -5    3.60    2.12
   6   2  -4  134.41   21.14
  -6  -2   4  153.05   16.09
   6   2  -4  171.54   12.91
  -6  -2   3  126.15   13.78
   6   2  -3  118.87   10.73
   6   2  -3  125.04   20.42
   6   2  -3  124.38   14.71
   6   2  -2  396.98   37.68
  -6  -2   2  437.36   25.12
   6   2  -2  434.76   21.11
  -6  -2   1  123.65   12.27
   6   2  -1  118.43   10.41
   6   2  -1   93.04   17.84
  -6  -2   0   17.32    4.15
   6   2   0   22.87   10.21
   6   2   0   17.55    3.79
  -6  -2  -1   67.12    7.80
   6   2   1   77.62   17.02
   6   2   1   62.48    7.31
   6   2   2  487.80   42.49
  -6  -2  -2  468.78   20.94
   6   2   3  609.39   23.87
   6   2   3  626.38   46.50
  -6  -2  -3  709.37   24.51
  -6  -2  -3  630.34   28.10
  -6  -2  -4    1.17    1.87
   6   2   4    1.69    1.04
  -6  -2  -4    5.41    1.86
   6   2   4    0.41    4.63
  -6  -2  -5   10.85    3.97
   6   2   5    6.91    2.38
  -6  -2  -5   11.79    2.89
   6   2   5    6.58    5.18
   6   2   6  254.23   13.60
   6   2   6  276.57   28.64
  -6  -2  -6  325.29   12.56
  -6  -2  -6  225.65   26.90
  -6  -2  -6  255.71   19.80
  -6  -2  -7   58.45    4.38
   6   2   7   38.83   10.46
  -6  -2  -7   31.01    9.58
   6   2   8   69.25    6.61
   6   2   8   84.91   15.35
  -6  -2  -8   60.98   13.64
   6   2   9   74.87   15.01
  -6  -2  -9   61.90   14.41
   6   2  10  159.38   22.79
  -6  -2 -10   97.38   19.03
   6   2  10  145.39   19.70
   6   2  11   -3.28    3.22
  -6  -2 -11   -7.11    7.31
   6   2  12   15.17    7.26
  -6  -2 -12   -3.77    5.12
  -6  -2 -13   30.39   10.87
  -6  -3   8   20.81    7.78
  -6  -3   7   10.55    5.06
  -6  -3   7   22.88    8.30
   6   3  -7   29.72   12.56
  -6  -3   6   42.73   11.03
  -6  -3   6   45.27    9.52
   6   3  -6   39.64   11.22
   6   3  -6   55.38   15.80
  -6  -3   5    0.58    1.42
   6   3  -5    6.91    3.40
   6   3  -5    3.14    4.31
  -6  -3   5    2.51    2.78
  -6  -3   4   47.03    8.91
   6   3  -4   33.37   10.52
  -6  -3   3    2.54    2.08
   6   3  -3    1.05    1.63
   6   3  -3    2.43    2.86
   6   3  -2  134.16   21.24
  -6  -3   2  135.03   13.68
   6   3  -2  104.36   13.33
  -6  -3   1   29.65    5.93
   6   3  -1   16.56    7.30
   6   3   0  803.34   54.08
  -6  -3   0  810.89   32.21
   6   3   1  174.33   24.33
  -6  -3  -1  180.74   13.29
  -6  -3  -1  161.21    9.34
  -6  -3  -2    6.42    2.55
   6   3   2    4.20    3.43
  -6  -3  -2    6.47    2.54
  -6  -3  -3   29.62    5.86
   6   3   3   26.54    4.64
  -6  -3  -3   29.13    4.72
   6   3   3   24.20    9.65
   6   3   4  134.09   10.09
   6   3   4  150.93   21.62
  -6  -3  -4  157.34   10.53
  -6  -3  -4  130.36   13.78
  -6  -3  -5    0.69    2.37
   6   3   5    0.50    0.68
  -6  -3  -5   -0.66    1.17
   6   3   5    0.08    2.55
   6   3   6  201.70   24.12
  -6  -3  -6  233.08   11.49
  -6  -3  -6  181.34   17.74
  -6  -3  -7   26.41    6.76
  -6  -3  -7   19.35    3.09
   6   3   7   15.83    6.42
  -6  -3  -8   40.92    9.23
   6   3   8   50.14    4.92
  -6  -3  -8   53.11    4.64
   6   3   8   49.99   11.73
   6   3   9  135.55   20.63
  -6  -3  -9  128.89   16.95
   6   3   9  128.28   17.37
  -6  -3 -10  166.14   20.32
   6   3  10  175.85   21.56
  -6  -3 -11   94.43   16.24
   6   3  11  109.36   18.09
   6   3  12   92.83   17.59
  -6  -3 -12   88.08   16.01
  -6  -4   8   39.95   11.07
  -6  -4   7    1.80    1.11
  -6  -4   6   35.46   10.09
  -6  -4   6   43.74    9.36
   6   4  -6   43.06   10.70
   6   4  -6   64.76   18.04
  -6  -4   5   49.92   10.24
   6   4  -5   47.25   11.67
   6   4  -5   65.77   17.89
  -6  -4   4   32.53    7.56
   6   4  -4   29.20    9.31
   6   4  -4   45.48   14.22
  -6  -4   3   74.16   10.98
   6   4  -3   39.76   10.76
  -6  -4   2   93.61   11.67
   6   4  -2   57.71   13.22
  -6  -4   1   43.99    7.61
   6   4  -1   29.60   10.04
   6   4   0  149.15   21.42
  -6  -4   0  152.15   13.30
  -6  -4   0   99.91    7.50
  -6  -4  -1  101.54   10.15
  -6  -4  -1  106.37    9.40
   6   4   1   82.27   15.97
   6   4   2  380.91   34.19
  -6  -4  -2  366.70   19.51
  -6  -4  -2  389.48   20.35
   6   4   3  145.11   12.02
   6   4   3  178.05   23.06
  -6  -4  -3  161.66   12.07
  -6  -4  -3  147.31   13.78
   6   4   4  191.80   12.54
   6   4   4  226.08   25.47
  -6  -4  -4  223.55   13.88
  -6  -4  -4  185.11   17.16
  -6  -4  -5    3.29    3.01
   6   4   5    3.25    1.50
  -6  -4  -5    0.26    1.34
   6   4   5    6.50    4.84
  -6  -4  -6   10.67    4.34
   6   4   6   14.68    3.06
   6   4   6   10.52    5.81
  -6  -4  -6   14.77    3.55
  -6  -4  -7    7.89    3.44
   6   4   7    4.59    4.51
   6   4   8  201.88   17.07
   6   4   8  279.47   29.33
  -6  -4  -8  227.49   22.22
   6   4   8  237.50   23.07
  -6  -4  -9   88.54   14.53
   6   4   9  100.81   15.39
  -6  -4 -10   63.65   12.96
   6   4  10   87.17   15.33
   6   4  11   18.63    7.65
  -6  -4 -11   24.22    8.49
   6   4  12   96.71   18.02
  -6  -4 -12  103.22   17.79
  -6  -5   7   40.38   10.67
  -6  -5   6   28.98    9.06
  -6  -5   5    4.25    3.05
   6   5  -5    6.12    4.58
   6   5  -5   -0.45    2.06
  -6  -5   4   19.01    6.11
   6   5  -4   16.38    6.35
   6   5  -4   18.94    7.86
  -6  -5   3   44.82    8.83
   6   5  -3   42.12   10.62
   6   5  -3   44.80   15.03
  -6  -5   2   41.35    7.92
   6   5  -2   31.84    8.99
  -6  -5   1   20.41    5.29
   6   5  -1   15.18    6.56
   6   5   0  107.63   17.03
  -6  -5   0  150.52   13.81
  -6  -5   0  108.93   10.28
  -6  -5  -1   96.50   10.63
  -6  -5  -1   96.67   10.49
   6   5   1   79.25   14.86
   6   5   2  376.62   33.09
  -6  -5  -2  404.98   22.08
  -6  -5  -2  451.30   24.16
  -6  -5  -3   24.47    4.91
   6   5   3   13.92    6.71
  -6  -5  -3   14.31    4.63
  -6  -5  -4   10.50    3.83
   6   5   4   21.08    4.60
   6   5   4   22.81    8.49
  -6  -5  -4   19.62    4.75
  -6  -5  -5   22.54    6.64
   6   5   5   26.29    4.47
   6   5   5   23.72    8.20
   6   5   6  214.54   12.42
   6   5   6  277.90   28.66
  -6  -5  -6  234.17   22.34
   6   5   6  270.26   22.18
   6   5   7    0.99    2.60
  -6  -5  -7    2.79    3.01
   6   5   8   23.93    7.48
  -6  -5  -8   21.43    7.23
   6   5   8   22.68    5.38
   6   5   9   -1.37    2.59
  -6  -5  -9    0.50    2.99
  -6  -5 -10   97.74   16.18
   6   5  10  115.61   17.68
   6   5  11    7.89    5.61
  -6  -5 -11    1.31    2.47
   6   5  12   77.54   16.14
  -6  -5 -12   92.44   16.98
  -6  -6   6   11.23    5.78
   6   6  -5   13.57    8.44
  -6  -6   5   10.41    5.16
   6   6  -4   96.73   16.30
  -6  -6   4  111.11   15.00
  -6  -6   3   45.77    9.23
   6   6  -3   38.18   10.10
   6   6  -3   64.71   17.53
  -6  -6   2   44.91    8.67
   6   6  -2   35.16    9.83
   6   6  -2   48.63   15.55
   6   6  -1   22.77    7.10
  -6  -6   1   21.36    5.58
   6   6  -1   29.59   11.02
  -6  -6   0   79.22   10.52
  -6  -6   0   56.82    8.71
   6   6   0   58.15   12.78
   6   6   1   18.95    6.98
  -6  -6  -1   18.53    5.16
  -6  -6  -1   23.26    5.85
  -6  -6  -2   58.39    9.02
   6   6   2   48.64   11.96
  -6  -6  -2   57.61    9.29
   6   6   3  159.90   21.46
  -6  -6  -3  170.26   15.33
  -6  -6  -3  143.99   15.21
   6   6   3  161.44   14.79
   6   6   4  177.69   22.76
  -6  -6  -4  128.90   15.53
   6   6   4  150.45   15.01
   6   6   5   68.10    8.43
  -6  -6  -5   71.17   12.47
   6   6   5   63.53   10.15
   6   6   6   69.43    7.57
  -6  -6  -6   68.63   12.73
   6   6   6   79.72   12.14
  -6  -6  -7   -0.59    2.30
   6   6   7    0.28    1.11
  -6  -6  -8  121.85   17.49
   6   6   8  125.22   16.87
   6   6   9    0.16    1.52
  -6  -6  -9    4.89    3.77
   6   6  10   52.12   12.40
  -6  -6 -10   64.60   13.50
   6   6  11   33.65   10.28
  -6  -6 -11   39.42   10.92
  -6  -6 -12   51.52   13.28
  -6  -7   5   11.30    5.48
   6   7  -4   11.16    7.52
   6   7  -3    0.29    3.79
  -6  -7   3    1.14    1.95
  -6  -7   2   41.89    8.93
   6   7  -2   50.59   15.59
  -6  -7   1   72.72   11.48
   6   7  -1   86.43   19.79
  -6  -7   0   17.18    5.48
   6   7   0   18.44    8.68
  -6  -7   0   22.19    6.42
  -6  -7  -1   43.46    8.20
   6   7   1   42.87   12.75
  -6  -7  -1   50.09    9.30
  -6  -7  -2   67.81   10.45
  -6  -7  -2   72.82   11.33
   6   7   2   62.42    8.62
   6   7   3   10.25    3.76
  -6  -7  -3    7.23    4.09
  -6  -7  -4  132.61   16.35
   6   7   4  146.32   15.11
   6   7   5    6.48    3.14
  -6  -7  -5    8.78    4.02
  -6  -7  -6   31.21    9.06
   6   7   6   46.24    9.44
  -6  -7  -7   22.90    7.67
   6   7   7   21.59    6.99
  -6  -7  -8   49.32   11.81
   6   7   8   49.41   11.11
   6   7   9   49.22   11.51
  -6  -7  -9   47.42   11.57
   6   7  10   50.39   11.77
  -6  -7 -10   43.40   11.03
   6   7  11   13.86    6.54
  -6  -7 -11   22.07    8.56
   6   8  -3   61.75   17.55
   6   8  -2   39.55   12.65
   6   8  -1    8.20    5.64
  -6  -8   1   11.59    5.30
   6   8   0   64.19   15.16
  -6  -8   0   57.72   10.64
  -6  -8   0   47.15    9.82
  -6  -8  -1    6.25    4.32
   6   8   1    5.69    3.43
  -6  -8  -1   -5.72    3.44
  -6  -8  -2   99.54   14.39
  -6  -8  -2   80.96   12.84
   6   8   2  101.29   17.40
   6   8   3   21.02    7.06
  -6  -8  -3   25.20    7.26
   6   8   4   12.42    4.71
   6   8   4   12.98    5.72
  -6  -8  -4   11.83    4.99
   6   8   5   24.70    6.59
  -6  -8  -5   23.94    7.64
   6   8   6   15.09    4.92
  -6  -8  -6   17.05    6.42
  -6  -8  -7    2.70    2.90
   6   8   7    8.03    4.13
  -6  -8  -8   42.64   11.61
   6   8   8   56.95   12.20
  -6  -8  -9    9.99    4.97
   6   8   9    6.94    4.42
   6   8  10   43.19   11.43
  -6  -8 -10   41.46   11.45
   6   9  -2   24.71    9.88
   6   9  -1   20.90    8.31
   6   9   0   34.29   10.48
  -6  -9  -1   24.58    7.71
  -6  -9  -2   29.44    8.78
  -6  -9  -2   10.63    5.46
  -6  -9  -3   47.34   10.52
  -6  -9  -4   34.51    9.35
  -6  -9  -5   12.27    5.39
   6   9   6   78.37   10.30
  -6  -9  -6   68.37   14.22
   6   9   7    5.14    3.05
  -6  -9  -7    3.11    2.72
   6   9   8    4.37    3.97
  -6  -9  -8   12.74    6.36
  -6  -9  -9   -3.94    3.72
   6   9   9    4.22    3.78
   6   9  10   48.19   12.39
  -6 -10  -3   52.20   11.78
   6  10   4   51.32    9.49
  -6 -10  -4   48.25   11.29
   6  10   5   19.01    5.41
  -6 -10  -5   20.09    7.94
  -6 -10  -6   12.13    6.22
  -6 -10  -7    7.95    4.96
  -7   7   2    5.81    3.72
  -7   7   0   15.39    4.49
  -7   7  -1   43.94    7.54
  -7   7  -2   15.30    4.66
   7  -7   2   17.00    6.56
   7  -7   3   27.50    8.14
   7  -7   4   28.69    9.33
   7  -7   5    5.81    5.99
  -7   6   4    2.28    2.64
  -7   6   3   42.21   11.14
  -7   6   2    4.10    4.00
  -7   6   1   60.15   10.25
   7  -6  -1   76.84   13.18
  -7   6   1   56.51   12.03
  -7   6   1   73.53    9.18
  -7   6   0    8.70    4.48
  -7   6   0   11.97    4.42
  -7   6   0   13.20    3.93
   7  -6   0   13.76    5.75
  -7   6  -1   12.47    5.47
  -7   6  -1   21.66    5.82
  -7   6  -1   23.19    5.26
   7  -6   1   33.75    9.05
  -7   6  -2    3.46    2.08
  -7   6  -2    1.75    2.00
   7  -6   2    2.21    3.27
  -7   6  -3  100.99   12.38
   7  -6   3  102.18   16.07
  -7   6  -3  112.23   12.21
  -7   6  -4    1.59    2.26
  -7   6  -4   10.21    3.98
   7  -6   4    6.70    5.87
  -7   6  -5   35.88    7.24
   7  -6   5   26.06    8.91
  -7   6  -6    9.30    3.65
   7  -6   6    8.52    4.50
  -7   5   4   -0.96    4.73
  -7   5   3   78.59   12.50
   7  -5  -3   97.56   14.76
  -7   5   3   85.58   16.31
  -7   5   2   56.08   12.63
  -7   5   2   50.48    9.45
  -7   5   2   42.36    7.99
   7  -5  -2   49.04   10.07
  -7   5   1   52.44    9.24
  -7   5   1   44.32   10.81
  -7   5   1   48.22    7.66
   7  -5  -1   46.63   10.67
  -7   5   0   28.76    6.78
  -7   5   0   34.04    9.27
  -7   5   0   37.27    6.56
   7  -5   0   38.83    9.67
  -7   5  -1  190.54   21.55
  -7   5  -1  186.30   16.82
   7  -5   1  173.24   19.70
  -7   5  -1  179.69   14.72
  -7   5  -2   13.74    5.85
  -7   5  -2   25.43    6.01
  -7   5  -2   24.66    5.29
   7  -5   2   25.46    7.89
  -7   5  -3   59.39   11.02
  -7   5  -3   65.77    9.53
  -7   5  -3   67.99    9.27
   7  -5   3   62.95   12.67
  -7   5  -4    2.76    2.06
  -7   5  -4   -1.91    1.34
   7  -5   4    1.35    3.98
  -7   5  -5   53.97    8.80
  -7   5  -5   48.81    8.53
  -7   5  -6    1.89    2.12
   7  -5   6   -1.61    2.04
  -7   5  -6    1.04    1.71
  -7   5  -7   22.51    5.56
   7  -5   7   23.84   10.77
  -7   5  -8    4.02    2.34
  -7   4   5  109.64   17.71
   7  -4  -5  135.91   17.67
  -7   4   5  131.22   20.73
  -7   4   4   25.59    8.86
  -7   4   4   11.88    5.95
   7  -4  -4   25.95    7.70
  -7   4   3   48.78   10.19
  -7   4   3   62.85   13.67
   7  -4  -3   67.73   12.40
  -7   4   2  168.89   17.48
  -7   4   2  128.06   19.24
   7  -4  -2  118.36   16.35
  -7   4   2  144.14   17.25
  -7   4   1  108.60   13.48
  -7   4   1  104.29   16.85
   7  -4  -1  136.53   17.18
  -7   4   1   85.23   11.65
  -7   4   0   58.53   12.28
  -7   4   0   68.30   10.17
   7  -4   0   84.17   13.91
  -7   4   0   70.27    9.77
  -7   4  -1   17.45    5.16
  -7   4  -1   12.04    3.72
  -7   4  -1   12.77    5.48
   7  -4   1    9.60    4.84
  -7   4  -2    2.08    2.35
  -7   4  -2    1.11    1.96
   7  -4   2    2.54    4.59
  -7   4  -3  156.44   14.58
   7  -4   3  146.25   19.53
  -7   4  -3  138.60   13.47
  -7   4  -4    4.78    2.66
  -7   4  -4    2.81    2.66
   7  -4   4    9.23    6.41
  -7   4  -5  217.50   16.86
  -7   4  -5  238.15   18.68
  -7   4  -6    9.01    3.37
  -7   4  -6   10.40    4.17
  -7   4  -7   47.89    7.88
   7  -4   7   24.49   10.60
  -7   4  -7   44.40    8.92
  -7   4  -8   -0.39    0.91
   7  -4   8   -0.18    1.84
  -7   4  -9   16.21    4.54
   7  -3  -6   62.64   12.31
  -7   3   5   39.09   11.62
   7  -3  -5   53.63   11.23
  -7   3   4   27.77    8.08
   7  -3  -4   37.55    9.58
  -7   3   3   27.63    7.95
  -7   3   3   34.62    9.92
   7  -3  -3   37.67    9.50
  -7   3   2    7.70    5.34
  -7   3   2   -1.78    3.16
  -7   3   2    1.07    4.37
  -7   3   1   61.72   10.38
  -7   3   1   58.48   11.10
   7  -3  -1   69.63   12.31
  -7   3   1   65.51   13.33
  -7   3   0  111.69   12.93
   7  -3   0   99.72   15.56
  -7   3   0   80.48   11.87
  -7   3  -1  303.73   20.93
   7  -3   1  305.06   27.66
  -7   3  -1  285.22   21.26
  -7   3  -2   38.16    7.12
  -7   3  -2   31.63    6.69
   7  -3   2   36.82    9.39
  -7   3  -3  133.05   13.18
   7  -3   3  131.36   19.14
  -7   3  -3  147.26   14.44
  -7   3  -4   11.90    4.26
  -7   3  -4    9.96    4.26
   7  -3   4   10.36    5.51
  -7   3  -5   53.43    8.29
  -7   3  -5   48.61    8.40
  -7   3  -6  146.61   13.41
  -7   3  -6  187.07   17.33
   7  -3   6  127.49   22.94
  -7   3  -7  137.48   12.88
   7  -3   7  136.38   24.52
  -7   3  -7  180.01   17.44
  -7   3  -8    4.28    2.47
   7  -3   8   -1.02    3.24
  -7   3  -8    5.45    3.35
  -7   3  -9   34.01    6.40
   7  -3   9   26.61    9.63
   7  -2  -7    8.96    5.44
  -7   2   6    3.67    2.99
   7  -2  -6   14.04    6.54
  -7   2   5   59.56   14.17
   7  -2  -5   55.19   11.88
  -7   2   4    5.41    4.60
   7  -2  -4    2.07    2.98
  -7   2   3  198.04   24.26
  -7   2   3  162.56   18.73
   7  -2  -3  175.64   20.83
  -7   2   2    1.72    1.97
  -7   2   2    2.47    3.52
   7  -2  -2    3.38    4.35
  -7   2   1  122.33   14.92
   7  -2  -1  146.71   19.50
  -7   2   1  124.82   19.39
  -7   2   0   91.10   11.87
   7  -2   0   89.16   15.02
  -7   2   0   72.82   13.06
  -7   2  -1   58.30    9.13
   7  -2   1   58.08    6.78
  -7   2  -1   45.39    9.14
   7  -2   1   70.38   13.63
  -7   2  -2   -3.99    2.84
  -7   2  -2   -5.09    4.87
   7  -2   2    0.10    3.73
  -7   2  -3   92.50   10.98
  -7   2  -3   81.49   10.18
  -7   2  -3   61.73   10.11
   7  -2   3   64.77   14.45
  -7   2  -4  115.72   11.86
  -7   2  -4  100.33   11.58
  -7   2  -4  124.41   14.71
   7  -2   4   93.75   17.87
  -7   2  -5  382.27   22.06
  -7   2  -5  444.67   28.27
  -7   2  -6   31.73    6.09
   7  -2   6   40.59   13.06
  -7   2  -6   37.90    7.93
  -7   2  -7   57.81    8.32
   7  -2   7   65.71   16.31
  -7   2  -7   73.30   11.90
  -7   2  -8    6.16    2.89
   7  -2   8   -0.54    3.51
  -7   2  -8    1.89    1.36
  -7   2  -9  106.93   11.09
   7  -2   9   87.65   17.84
  -7   2  -9  125.23   16.56
   7  -2  10    9.47    6.10
   7  -1  -8   20.71    8.52
   7  -1  -7   47.81   12.39
  -7   1   6    1.90    2.52
  -7   1   6    3.30    3.62
   7  -1  -6    4.90    5.15
  -7   1   5   80.42   12.28
  -7   1   5   91.69   17.57
   7  -1  -5   75.70   14.75
  -7   1   4    7.69    5.24
  -7   1   4    6.99    3.41
   7  -1  -4   14.40    7.27
  -7   1   3   35.96    7.32
   7  -1  -3   42.07   11.35
  -7   1   3   30.23    9.57
  -7   1   2   23.24    5.96
   7  -1  -2   29.63   10.26
  -7   1   1   -0.92    2.99
  -7   1   1    3.75    2.29
   7  -1  -1    3.41    1.60
  -7   1   0   -0.28    2.10
  -7   1   0   -1.43    1.39
  -7   1  -1  125.78   14.05
   7  -1   1  130.85   19.72
   7  -1   1  152.74   11.74
  -7   1  -1  129.43   19.02
  -7   1  -2  109.64   12.61
   7  -1   2  115.78   19.20
  -7   1  -2   81.57    8.57
  -7   1  -2  132.43   18.08
  -7   1  -3  477.98   26.26
   7  -1   3  450.77   40.33
  -7   1  -3  465.50   22.41
  -7   1  -3  411.87   30.75
  -7   1  -4  122.82   12.44
  -7   1  -4  126.03   12.01
  -7   1  -4  110.93   15.37
   7  -1   4  115.41   21.01
   7  -1   5   21.28    9.59
  -7   1  -5   18.07    5.24
  -7   1  -6    9.91    3.56
   7  -1   6    9.93    6.11
  -7   1  -6    7.65    4.19
  -7   1  -7  224.70   16.39
   7  -1   7  173.98   25.63
  -7   1  -7  236.57   23.55
  -7   1  -8   57.10    8.17
   7  -1   8   40.74   11.67
  -7   1  -8   60.12   12.17
  -7   1  -9   78.23    9.17
   7  -1   9   71.05   15.36
  -7   1  -9   63.43   12.78
   7  -1  10   -3.19    2.38
  -7   1 -10    2.21    2.08
   7  -1  11   46.16   12.31
   7   0  -8   -4.24    4.12
   7   0  -7    5.77    5.30
  -7   0   6    0.79    2.50
  -7   0   6    2.91    4.33
   7   0  -6    2.99    5.10
  -7   0   5   34.75   10.39
  -7   0   5   24.18    7.12
   7   0  -5   13.88    6.85
  -7   0   4   68.19   14.50
  -7   0   4   59.83   10.14
   7   0  -4   51.14   12.76
  -7   0   3   60.20    9.92
   7   0  -3   79.29   16.15
  -7   0   2    3.30    2.49
  -7   0   2    5.49    2.71
   7   0  -2   -2.68    2.73
  -7   0   1  104.31   12.00
   7   0  -1   79.30   16.39
  -7   0   0   76.07    9.88
   7   0   0   72.02   15.10
  -7   0  -1   72.93    9.24
   7   0   1   61.61   14.44
  -7   0  -2   20.28    3.57
  -7   0  -2    9.46    2.43
  -7   0  -2   18.34    6.53
   7   0   2   10.32    7.06
  -7   0  -2   14.54    2.79
  -7   0  -3   27.61    6.05
  -7   0  -3   35.61    5.20
   7   0   3   26.45    9.26
  -7   0  -3   26.31    7.61
  -7   0  -4   -0.37    2.22
  -7   0  -4    2.32    2.32
  -7   0  -4    3.70    3.14
  -7   0  -5  701.47   31.81
  -7   0  -5  795.48   46.99
  -7   0  -6   77.22    9.97
   7   0   6   97.12   18.90
  -7   0  -6   88.33   15.85
  -7   0  -7   14.52    3.89
   7   0   7   20.32    8.51
  -7   0  -7    5.53    4.09
  -7   0  -8   -4.96    2.77
   7   0   8    0.92    2.25
  -7   0  -8   -4.95    6.02
   7   0   9  146.12   22.10
  -7   0  -9  126.95   19.94
   7   0  10   15.48    7.09
  -7   0 -10   14.85    7.65
   7   0  11   59.98   14.43
  -7   0 -11   42.87   12.24
   7   1  -7   46.85   14.16
  -7  -1   6   11.52    5.72
  -7  -1   6   11.08    5.00
   7   1  -6    9.82    4.88
  -7  -1   5   51.28   13.11
  -7  -1   5   37.30    8.57
   7   1  -5   38.47   12.64
  -7  -1   4   19.51    5.48
   7   1  -4   21.96    9.30
  -7  -1   3  115.73   13.80
   7   1  -3   95.12   19.37
  -7  -1   2    6.47    3.16
   7   1  -2   -3.57    4.42
  -7  -1   1   64.12    9.59
   7   1  -1   38.35   12.09
  -7  -1   0   24.25    5.72
   7   1   0   14.53    7.41
  -7  -1  -1    1.45    1.48
   7   1   1   -3.55    6.57
   7   1   2  177.03   26.95
  -7  -1  -2  160.45    8.75
   7   1   3  248.31   31.49
  -7  -1  -3  299.38   17.27
  -7  -1  -3  239.46   12.91
  -7  -1  -3  271.52   16.48
  -7  -1  -4  125.22   10.59
   7   1   4   74.17   16.96
  -7  -1  -4   79.76   15.66
  -7  -1  -4  102.87   10.62
   7   1   5   58.07   14.79
  -7  -1  -5   40.82   10.63
  -7  -1  -5   59.11    8.70
  -7  -1  -6   37.81    4.12
   7   1   6   26.36    5.04
   7   1   6   27.67    9.87
  -7  -1  -6   28.72    9.31
   7   1   7  183.04   12.98
   7   1   7  191.53   25.66
  -7  -1  -7  167.74   23.93
   7   1   8   47.39   12.51
  -7  -1  -8   18.66    7.10
   7   1   9  101.94   17.96
  -7  -1  -9   87.45   18.07
   7   1  10    3.11    4.82
  -7  -1 -10    7.19    2.79
   7   1  11   48.04   12.40
   7   1  11   30.53   10.83
  -7  -1 -11   13.99    7.72
   7   2  -7   15.79    8.00
  -7  -2   6   15.06    7.18
   7   2  -6   13.50    8.70
  -7  -2   5   79.23   16.11
  -7  -2   5   55.72   10.91
   7   2  -5   58.71   15.96
  -7  -2   4    2.69    2.17
   7   2  -4    0.47    3.79
  -7  -2   3   93.80   12.83
   7   2  -3  100.85   21.08
  -7  -2   2   95.09   12.37
   7   2  -2  100.54   20.82
   7   2  -1  171.91   27.23
  -7  -2   1  141.86   14.37
  -7  -2   0   43.98    7.60
   7   2   0   39.78   12.03
  -7  -2  -1   25.04    5.14
   7   2   1   31.82   11.86
   7   2   2  160.51   25.33
  -7  -2  -2  162.18   12.88
  -7  -2  -2  146.24    8.00
  -7  -2  -3    0.40    1.09
  -7  -2  -3    1.67    1.71
   7   2   3   -2.56    4.44
  -7  -2  -4    0.89    1.40
  -7  -2  -4    3.77    1.50
   7   2   4    2.12    2.70
   7   2   5  232.80   14.61
   7   2   5  194.77   26.90
  -7  -2  -5  240.78   13.62
  -7  -2  -5  226.18   18.17
   7   2   6  128.23   10.37
   7   2   6  155.93   22.77
  -7  -2  -6  133.16   14.36
   7   2   7  191.25   12.41
   7   2   7  203.85   26.07
  -7  -2  -7  189.85   18.07
   7   2   8   63.22   14.30
  -7  -2  -8   47.12   12.94
  -7  -2  -8   65.76   11.25
  -7  -2  -9   26.67    8.03
   7   2   9   24.83    9.25
  -7  -2  -9    8.09    3.40
  -7  -2 -10    9.07    4.91
   7   2  10    6.13    4.91
  -7  -2 -10    7.36    4.27
  -7  -2 -11   70.92   17.84
  -7  -2 -11  118.37   17.92
   7   2  11  105.20   18.01
  -7  -2 -12    7.20    4.93
  -7  -3   6    5.40    3.69
   7   3  -6   11.05    6.96
  -7  -3   5   35.90    9.04
   7   3  -5   21.56    8.49
   7   3  -5   34.35   12.73
  -7  -3   5   27.95    9.76
  -7  -3   4   66.00   11.60
   7   3  -4   55.06   14.71
  -7  -3   3   44.57    9.01
   7   3  -3   45.04   13.47
  -7  -3   2   -0.74    3.10
   7   3  -2   -2.64    5.72
  -7  -3   1   59.07    9.13
   7   3  -1   62.39   14.99
  -7  -3   0   12.43    3.82
   7   3   0    7.76    5.44
  -7  -3  -1  147.08   13.34
   7   3   1  121.65   21.84
  -7  -3  -2   35.64    6.14
   7   3   2   33.65   10.81
  -7  -3  -2   24.91    3.91
  -7  -3  -3   26.49    5.36
  -7  -3  -3   28.73    5.29
   7   3   3   28.48    9.72
  -7  -3  -4  119.31   10.12
   7   3   4   90.68   17.87
  -7  -3  -4  100.16   11.79
   7   3   5   95.53    8.83
  -7  -3  -5  116.64    9.46
   7   3   5   94.82   18.37
  -7  -3  -5   97.48   12.32
  -7  -3  -6    0.23    2.23
   7   3   6    1.61    1.10
  -7  -3  -6    2.88    1.46
   7   3   6    0.43    3.93
  -7  -3  -7   26.68    6.82
  -7  -3  -7   25.87    3.79
   7   3   7   27.59    9.72
   7   3   8  133.20   20.87
  -7  -3  -8  108.16   14.67
   7   3   9  150.54   22.45
  -7  -3  -9  137.11   17.56
   7   3  10   89.34   17.78
  -7  -3 -10   73.86   13.79
   7   3  10   88.62   15.67
   7   3  11   17.63    7.03
  -7  -3 -11   20.94    7.56
  -7  -3 -12    3.40    4.15
   7   4  -5   20.60    8.12
  -7  -4   5   26.04    9.13
  -7  -4   4    5.07    3.54
   7   4  -4    4.63    2.41
   7   4  -4   12.01    6.47
  -7  -4   3   32.18    7.90
   7   4  -3   21.82    8.34
  -7  -4   2   39.02    8.39
   7   4  -2   18.09    8.38
   7   4  -1  145.54   22.92
  -7  -4   1  174.02   16.35
  -7  -4   0   21.75    5.42
   7   4   0    3.65    3.32
  -7  -4  -1  119.68   12.25
   7   4   1   80.58   17.09
  -7  -4  -2    5.95    2.63
   7   4   2    4.10    3.51
  -7  -4  -2    4.11    1.78
  -7  -4  -3   63.71    8.01
   7   4   3   59.10   14.14
  -7  -4  -3   61.16    8.50
  -7  -4  -4    7.01    3.34
  -7  -4  -4   16.59    4.33
   7   4   4   15.20    7.65
  -7  -4  -5    5.32    3.68
  -7  -4  -5    4.25    1.79
   7   4   5    6.23    4.32
  -7  -4  -6   23.23    6.58
  -7  -4  -6   16.99    3.68
   7   4   6   25.66    9.21
   7   4   7  144.08   21.90
  -7  -4  -7  129.72    9.59
  -7  -4  -7  112.45   14.89
  -7  -4  -8   23.72    7.23
   7   4   8   42.05   12.06
   7   4   9   51.64   11.52
  -7  -4  -9   43.23    9.97
   7   4   9   51.02   13.50
   7   4  10   25.29    8.42
  -7  -4 -10   13.06    5.84
   7   4  11   80.03   15.71
  -7  -4 -11   77.79   14.99
  -7  -4 -12   10.48    5.75
  -7  -5   5   27.19    9.39
   7   5  -4    5.86    4.86
   7   5  -4    8.86    6.98
  -7  -5   3  152.13   17.38
   7   5  -3  101.16   17.50
   7   5  -3  168.60   29.76
  -7  -5   2   27.39    7.10
   7   5  -2   20.74    8.70
  -7  -5   1   25.14    6.23
   7   5  -1   24.53    9.04
  -7  -5   0    1.05    1.29
   7   5   0    0.12    4.75
  -7  -5  -1   69.13    9.51
   7   5   1   74.43   15.82
   7   5   2  114.32   19.42
  -7  -5  -2  101.58   11.05
  -7  -5  -2  111.56   11.81
  -7  -5  -3   73.86    9.11
   7   5   3   67.03   14.36
  -7  -5  -3   59.76    9.14
  -7  -5  -4   32.72    5.96
   7   5   4   29.38   10.21
  -7  -5  -4   27.12    6.60
  -7  -5  -5   71.92    8.58
   7   5   5   67.90   15.19
  -7  -5  -5   63.91   11.22
  -7  -5  -6   -3.06    2.56
   7   5   6    0.38    2.77
  -7  -5  -6   -1.03    1.13
   7   5   7  122.14   20.38
  -7  -5  -7  150.32   11.95
  -7  -5  -7  150.30   18.13
   7   5   7  135.26   17.17
   7   5   8    3.76    3.26
  -7  -5  -8    2.90    2.45
  -7  -5  -8    2.66    2.10
   7   5   9   57.62   11.95
  -7  -5  -9   38.60    9.39
   7   5  10   31.08    9.31
  -7  -5 -10   30.64    8.76
  -7  -5 -11   25.94    8.74
   7   6  -3   30.10   10.09
   7   6  -3   58.18   19.79
  -7  -6   2   44.29    9.22
   7   6  -2   23.59    8.64
   7   6  -2   42.01   14.95
  -7  -6   1   53.21    9.43
   7   6  -1   39.64   11.16
   7   6  -1   58.15   17.27
  -7  -6   0   76.87   10.84
   7   6   0   49.22   12.64
  -7  -6  -1   63.83    9.48
   7   6   1   43.63   11.79
   7   6   2    2.67    1.93
  -7  -6  -2    6.98    3.07
  -7  -6  -3   97.65   11.09
   7   6   3   85.54   17.34
  -7  -6  -3   96.67   12.69
   7   6   4   18.60    7.95
  -7  -6  -4   13.56    4.24
  -7  -6  -4    9.32    4.50
   7   6   5  132.86   21.58
  -7  -6  -5  123.87   12.45
  -7  -6  -5  119.90   15.93
   7   6   5  129.01   15.45
  -7  -6  -6   19.10    6.41
   7   6   6   30.59    8.00
   7   6   6   24.44    9.54
  -7  -6  -6   28.05    6.02
  -7  -6  -7   21.16    7.26
   7   6   7   31.69    8.41
  -7  -6  -7   29.36    6.05
  -7  -6  -8   49.94   11.06
   7   6   8   56.44   11.73
   7   6   9   53.45   11.96
  -7  -6  -9   42.19   10.39
   7   6  10   21.48    8.35
  -7  -6 -10   21.56    8.74
  -7  -6 -11   60.59   13.21
   7   7  -2    3.31    3.91
   7   7  -2   20.67   11.60
  -7  -7   1   98.71   13.41
   7   7  -1   92.79   17.34
   7   7  -1   92.20   22.63
   7   7   0    1.33    2.72
  -7  -7   0    7.27    3.68
   7   7   0    8.47    6.86
  -7  -7  -1   57.56    9.57
   7   7   1   52.90   13.86
   7   7   2   38.22   11.48
  -7  -7  -2   32.26    7.01
   7   7   3   41.07    7.95
   7   7   3   48.20   12.93
  -7  -7  -3   43.60    7.90
   7   7   4   40.79    8.17
  -7  -7  -4   34.31    7.55
  -7  -7  -4   28.13    7.44
   7   7   5   23.64    6.44
  -7  -7  -5   25.40    6.31
  -7  -7  -5   14.96    5.92
   7   7   6    8.50    4.22
  -7  -7  -6   14.27    5.02
  -7  -7  -6    2.49    1.44
  -7  -7  -7   31.31    9.18
   7   7   7   41.81    9.67
  -7  -7  -8   38.34   10.30
   7   7   8   36.44    9.68
  -7  -7  -9  117.44   18.38
   7   7   9   98.02   16.71
   7   7  10   18.22    6.86
  -7  -7 -10   11.85    5.85
   7   8  -1   52.24   16.61
   7   8   0   28.72   12.08
  -7  -8  -1    2.66    2.42
   7   8   1   19.07    9.83
  -7  -8  -2   11.02    4.23
   7   8   2   11.28    7.13
  -7  -8  -3   50.78    9.41
   7   8   3   60.88   14.18
  -7  -8  -4    8.35    4.11
  -7  -8  -5   33.92    7.80
  -7  -8  -5   20.70    7.14
   7   8   6    2.11    2.22
  -7  -8  -6   -4.80    3.64
   7   8   7   45.48   10.58
  -7  -8  -7   45.99   10.98
  -7  -8  -8    5.36    4.37
   7   8   8   -0.93    1.82
  -7  -8  -9   17.71    7.37
   7   8   9   26.78    9.04
  -7  -9  -6   14.02    6.66
  -7  -9  -7    1.90    2.55
  -7  -9  -8   14.00    6.65
  -8   6  -1    4.60    2.49
  -8   6  -2   46.38    8.61
  -8   5   2    3.55    3.45
  -8   5   1   10.28    6.07
  -8   5   0   30.55    9.49
  -8   5   0   21.33    6.50
  -8   5  -1   18.20    7.60
  -8   5  -1   15.39    5.53
  -8   5  -2   38.94   10.57
  -8   5  -2   38.04    8.00
  -8   5  -3    0.12    1.09
   8  -5   3   -0.55    2.22
  -8   5  -4   87.82   12.47
   8  -5   4   70.31   16.69
   8  -5   5    3.92    3.69
   8  -5   6   11.89    5.79
  -8   4   2   35.83   10.82
  -8   4   1    6.47    4.69
  -8   4   0  102.71   17.64
  -8   4   0   90.46   13.15
   8  -4   0  100.97   18.10
  -8   4   0   65.81   12.37
  -8   4  -1   10.69    4.20
  -8   4  -1   11.35    4.32
   8  -4   1   12.45    8.37
  -8   4  -1    0.63    1.79
  -8   4  -2   62.69   10.50
  -8   4  -2   56.32   10.45
   8  -4   2   56.42   14.12
  -8   4  -3    3.70    2.54
  -8   4  -3    4.97    3.23
   8  -4   3   11.17    8.17
  -8   4  -4    3.13    2.86
  -8   4  -4    5.57    3.01
   8  -4   4    5.30    6.26
  -8   4  -5    6.59    3.46
   8  -4   5   -8.59    6.41
  -8   4  -5   -4.88    3.71
  -8   4  -6   22.99    6.19
   8  -4   6   10.59    2.70
  -8   4  -7   10.04    4.12
   8  -4   7   20.29   10.27
  -8   4  -8  106.17   12.79
   8  -4   8  103.23   21.65
  -8   3   3   16.66    7.48
  -8   3   2   65.79   15.27
  -8   3   2   51.40   10.77
   8  -3  -2   65.96   14.80
  -8   3   1   26.86    9.52
  -8   3   1   15.88    5.79
  -8   3   1   10.50    7.10
   8  -3  -1   30.59   10.38
  -8   3   0   33.34    7.69
  -8   3   0   34.82   10.37
   8  -3   0   37.30   11.08
  -8   3  -1  105.28   13.86
  -8   3  -1   88.02   14.45
   8  -3   1   80.85   16.61
  -8   3  -2   32.44    7.40
  -8   3  -2   20.32    6.30
   8  -3   2   31.67   11.01
  -8   3  -3    0.34    1.70
  -8   3  -3   -8.44    4.41
  -8   3  -4   42.55    8.36
  -8   3  -4   31.20    8.31
  -8   3  -5  128.26   13.98
  -8   3  -5  113.06   15.95
   8  -3   5   92.21   20.68
  -8   3  -6   77.09   10.81
  -8   3  -6   89.82   14.18
   8  -3   6   47.21   15.75
  -8   3  -7    1.90    1.38
   8  -3   7    5.67    5.83
  -8   3  -8   10.10    3.98
   8  -3   8   15.70    6.26
  -8   2   3   39.10   11.86
   8  -2  -3   40.19   12.30
  -8   2   2   47.80   12.65
   8  -2  -2   40.71   12.01
  -8   2   1   42.04    8.64
   8  -2  -1   52.71   13.44
  -8   2   0   57.48   10.97
  -8   2   0   50.17   12.11
   8  -2   0   75.65   17.20
  -8   2  -1   18.64    5.60
  -8   2  -1   11.93    5.53
   8  -2   1   18.54    9.72
  -8   2  -2  187.34   18.39
   8  -2   2  155.79   24.79
  -8   2  -2  143.29   20.06
  -8   2  -3   23.88    6.31
  -8   2  -3   10.47    5.15
   8  -2   3   14.34    9.18
  -8   2  -4   54.80    9.43
   8  -2   4   47.49   15.63
  -8   2  -4   38.23    9.18
  -8   2  -5   -1.44    1.23
  -8   2  -5   -0.95    3.33
  -8   2  -6   -0.76    1.89
  -8   2  -6   -1.89    2.68
  -8   2  -7  101.16   12.45
   8  -2   7   73.54   18.93
  -8   2  -7  107.89   17.28
  -8   2  -8  147.28   14.96
   8  -2   8   97.60   20.67
   8  -2   9    9.46    6.19
  -8   1   4   73.98   12.00
   8  -1  -4   66.66   16.43
  -8   1   3   28.65   10.11
  -8   1   3   30.65    7.46
   8  -1  -3   26.21   10.39
  -8   1   2   26.09    6.96
   8  -1  -2   25.03   10.47
  -8   1   1    9.84    3.91
   8  -1  -1   14.61    8.34
  -8   1   0  111.15   12.95
   8  -1   0   66.05   16.45
  -8   1  -1    0.22    2.82
   8  -1   1   14.14    8.21
  -8   1  -2  115.24   14.61
  -8   1  -2   97.04   17.74
   8  -1   2  116.25   22.24
  -8   1  -3   -2.10    3.74
  -8   1  -3   -6.65    6.95
   8  -1   3    4.00    2.59
  -8   1  -4   72.65   11.11
   8  -1   4   77.03   18.38
  -8   1  -4   81.72   15.93
  -8   1  -5   40.73    7.98
   8  -1   5   61.83   17.05
  -8   1  -5   59.98   13.71
  -8   1  -6   77.07   11.50
   8  -1   6   70.42   18.41
  -8   1  -6   69.20   14.26
  -8   1  -7   93.52   12.06
   8  -1   7   77.59   18.21
  -8   1  -7  101.03   17.91
  -8   1  -8   -1.08    2.39
   8  -1   8   -1.06    2.77
  -8   1  -8   -2.41    6.06
   8  -1   9   -0.36    3.86
   8  -1  10   40.48   12.50
  -8   0   4    6.36    3.58
   8   0  -4   11.48    7.69
  -8   0   3   31.25    7.25
   8   0  -3   35.37   13.81
  -8   0   2   65.89   10.63
   8   0  -2   61.15   15.75
  -8   0   1   -0.64    0.96
   8   0  -1   -2.15    4.20
  -8   0   0   46.40    8.26
   8   0   0   28.97   10.06
  -8   0  -1   98.85   11.73
   8   0   1   60.78   16.27
  -8   0  -2  145.36   13.97
   8   0   2   82.63   19.67
  -8   0  -3   -2.95    2.20
   8   0   3    4.33    5.28
   8   0   4  198.98   29.66
  -8   0  -4  166.49   24.28
  -8   0  -5   -4.55    3.81
   8   0   5    9.57    6.21
  -8   0  -6   24.73    6.12
   8   0   6   13.78    7.80
  -8   0  -6   23.55    8.77
  -8   0  -7   -2.95    2.96
   8   0   7    0.72    5.28
  -8   0  -7   -1.93    4.36
   8   0   8   49.50   13.79
  -8   0  -8  188.27   26.96
   8   0   9   12.80    6.75
   8   0  10   46.46   12.99
   8   0  11   -5.00    4.29
   8   1  -5   19.83   10.41
  -8  -1   4   90.45   13.63
   8   1  -4   83.58   21.41
  -8  -1   3    1.95    2.05
   8   1  -3   -0.29    4.07
  -8  -1   2   31.90    7.65
   8   1  -2   29.58   12.32
  -8  -1   1   49.17    8.96
   8   1  -1   31.72   12.24
  -8  -1   0   21.67    5.64
   8   1   0   19.28    9.86
  -8  -1  -1    3.64    1.93
   8   1   1    6.55    4.06
  -8  -1  -2   37.03    6.87
   8   1   2   32.40   12.91
  -8  -1  -3   16.81    4.41
   8   1   3    8.23    4.73
   8   1   4  190.86   29.15
  -8  -1  -4  268.27   17.48
  -8  -1  -5   -0.59    1.35
   8   1   5   -1.82    2.78
   8   1   6  167.25   25.74
  -8  -1  -6  150.48   23.52
  -8  -1  -6  155.23   15.15
  -8  -1  -7   41.64    8.32
   8   1   7   28.20   10.95
  -8  -1  -7   26.77    8.96
   8   1   8   78.46   17.10
  -8  -1  -8   52.09   14.84
   8   1   9    4.38    2.18
  -8  -1  -9    2.35    3.40
   8   1  10    1.61    2.70
   8   1  11    4.21    4.06
   8   2  -5    0.57    3.28
   8   2  -4   17.30    9.15
  -8  -2   3   12.52    4.80
   8   2  -3   28.69   12.40
  -8  -2   2   21.68    6.37
   8   2  -2   20.04   10.59
  -8  -2   1    9.06    4.01
   8   2  -1   32.19   12.92
  -8  -2   0   35.57    7.48
   8   2   0   48.14   15.80
  -8  -2  -1   55.78    8.54
   8   2   1   43.74   15.49
  -8  -2  -2   91.85   10.73
   8   2   2   78.64   18.85
  -8  -2  -3   50.53    7.59
   8   2   3   37.23   13.53
  -8  -2  -4   71.01    8.57
   8   2   4   69.95   17.09
  -8  -2  -5    4.23    1.61
   8   2   5    1.66    2.36
   8   2   6  109.57   20.73
  -8  -2  -6  141.01   14.92
  -8  -2  -7   37.36    8.19
   8   2   7   14.51    7.94
  -8  -2  -8   44.34    9.32
   8   2   8   37.93   11.26
  -8  -2  -9   26.50    7.79
   8   2   9   30.84   11.21
  -8  -2 -10   62.27   12.58
   8   2  10   66.98   15.76
  -8  -2 -11    2.32    1.87
   8   2  11   -0.22    2.61
   8   3  -5   19.50    9.41
   8   3  -4   26.56   11.30
  -8  -3   3   65.67   11.87
   8   3  -3   56.86   16.01
  -8  -3   2   24.81    7.06
   8   3  -2    6.57    6.56
  -8  -3   1    1.13    1.70
   8   3  -1    9.49    6.77
  -8  -3   0   88.56   11.87
   8   3   0   83.57   19.77
  -8  -3  -1   27.87    6.33
   8   3   1   44.20   14.02
  -8  -3  -2   24.71    5.70
   8   3   2   26.40   11.37
  -8  -3  -3   16.20    4.42
   8   3   3    7.95    5.77
  -8  -3  -4   39.64    6.47
   8   3   4   33.09   12.58
  -8  -3  -5   74.96    8.34
   8   3   5   68.00   16.72
   8   3   6   60.02   14.98
  -8  -3  -6   68.81   10.56
  -8  -3  -7   41.12    8.41
   8   3   7   35.89   12.04
   8   3   8   74.15   17.26
  -8  -3  -8   94.05   13.77
  -8  -3  -9    8.04    4.21
   8   3   9   18.06    7.70
  -8  -3 -10   53.56   11.42
   8   3  10   42.26   13.62
  -8  -3 -11    0.14    1.15
   8   4  -4   16.78    7.15
   8   4  -3  -14.72    7.73
  -8  -4   2   23.13    6.43
   8   4  -2    6.61    5.82
  -8  -4   1   36.18    8.17
   8   4  -1   20.04    8.43
  -8  -4   0   -1.90    1.49
   8   4   0    0.12    3.96
  -8  -4  -1   34.95    7.28
   8   4   1   28.53   10.99
  -8  -4  -2   39.50    7.43
   8   4   2   43.30   13.61
  -8  -4  -3   66.83    9.09
   8   4   3   56.66   15.98
  -8  -4  -4   65.46    8.48
   8   4   4   50.89   14.75
  -8  -4  -5    2.91    1.87
   8   4   5    3.58    2.29
   8   4   6   44.16   13.19
  -8  -4  -6   69.26   11.07
  -8  -4  -7    9.64    3.88
   8   4   7   11.29    7.05
  -8  -4  -8   53.53   10.53
   8   4   8   63.47   15.78
   8   4   9   30.68    8.88
  -8  -4  -9   19.32    6.61
   8   4   9   17.53    7.24
  -8  -4 -10   12.98    5.54
  -8  -4 -11    7.00    3.98
   8   5  -3   35.36   11.04
   8   5  -2    1.89    3.08
  -8  -5   1   47.39    9.32
   8   5  -1   32.74   10.86
  -8  -5   0   12.35    4.91
   8   5   0    9.46    5.81
  -8  -5  -1    2.61    2.74
   8   5   1    0.51    3.78
  -8  -5  -2   43.08    7.76
   8   5   2   29.41   11.54
  -8  -5  -3    9.04    3.37
   8   5   3    7.55    4.08
  -8  -5  -4   53.27    7.99
   8   5   4   46.42   13.91
  -8  -5  -5   25.19    5.50
   8   5   5   41.68   13.11
  -8  -5  -6   29.35    5.51
   8   5   6   15.60    7.90
  -8  -5  -7   25.46    7.35
   8   5   7   46.78   13.43
  -8  -5  -8   27.72    7.87
   8   5   8   28.26    8.53
   8   5   8   12.33    7.56
   8   5   9   10.55    5.00
  -8  -5  -9   12.45    5.36
  -8  -5 -10   23.43    7.46
  -8  -5 -11   -3.26    3.10
   8   6  -2  108.71   19.87
   8   6  -1    3.58    3.05
  -8  -6   0   14.66    5.23
   8   6   0    9.42    5.74
  -8  -6  -1   55.56    9.47
   8   6   1   50.02   13.83
  -8  -6  -2   21.91    5.76
   8   6   2   15.93    7.12
  -8  -6  -3   45.82    7.99
   8   6   3   42.80   12.81
   8   6   4   13.39    7.56
  -8  -6  -4   13.27    4.42
   8   6   5   17.78    8.60
  -8  -6  -5   11.76    3.94
  -8  -6  -6   61.70    8.44
   8   6   6   65.03   12.06
   8   6   7   44.51   10.60
  -8  -6  -8   37.66    9.52
   8   6   8   32.05    9.38
  -8  -6  -9   26.51    8.38
  -8  -6 -10   37.93    9.94
   8   7   0   48.39   14.78
  -8  -7  -2    4.78    2.29
  -8  -7  -3    9.36    3.48
  -8  -7  -4   71.74   10.28
   8   7   5   25.58    7.56
  -8  -7  -5   27.17    6.03
   8   7   6   21.03    7.02
  -8  -7  -6   24.00    5.84
   8   7   7   28.44    8.33
   8   7   8   67.73   13.62
  -8  -8  -4   32.73    7.81
  -8  -8  -5   -0.26    2.20
  -8  -8  -6   36.84    7.97
  -9   4  -2  -12.79    6.27
  -9   3  -1   14.96    7.79
  -9   3  -2   -3.93    3.85
  -9   3  -3   22.55    8.62
  -9   3  -6    4.02    3.94
  -9   2  -2   -3.42    3.16
  -9   2  -2    2.18    5.69
  -9   2  -3   27.91    7.69
  -9   2  -3   26.55   10.61
  -9   2  -4   38.27    9.15
  -9   2  -4   30.88   10.09
  -9   2  -5    3.49    3.13
  -9   2  -6   31.71    7.96
  -9   2  -7   22.77    6.57
  -9   1  -3   10.56    4.66
  -9   1  -4    0.06    1.30
  -9   1  -4   -9.06    6.24
  -9   1  -5    3.05    1.52
  -9   1  -5   10.73    7.93
  -9   1  -6   29.70    7.71
  -9   0   2   -0.34    3.01
  -9   0   1   13.74    4.74
  -9   0   0   20.55    5.60
  -9   0  -1   42.16    8.22
  -9   0  -5   47.92   12.71
  -9  -1   2   11.67    5.13
  -9  -1   1   58.49   10.31
  -9  -1   0   25.30    6.45
  -9  -1  -1   56.16    9.39
  -9  -1  -2    7.58    3.34
   9   1   3   81.52   20.88
   9   1   4    0.18    3.15
  -9  -2   1   19.88    5.65
  -9  -2   0   -0.34    2.69
  -9  -2  -1  111.39   13.44
  -9  -2  -2   28.84    6.58
  -9  -3   1   12.57    4.74
  -9  -3   0   50.59    9.58
  -9  -3  -1   33.62    7.24
  -9  -3  -2   22.82    5.86
  -9  -3  -3  106.71   12.31
  -9  -4   0   21.69    6.39
  -9  -4  -1   59.80   10.28
  -9  -4  -2    0.47    1.51
  -9  -4  -3   71.21   10.13
  -9  -5  -1   -0.53    2.66
  -9  -5  -2   59.97   10.24
  -9  -5  -3   47.78    8.63
  -9  -6  -3    4.56    2.83
   9   6   6   56.58   11.96
   0   0   0    0.00    0.00


TITL exp_1368 in P-1
REM P-1 (#2 in standard setting)
CELL 0.71073   7.172433   9.045547  11.338864  78.0353  76.8624  84.3374
ZERR    2.00   0.000528   0.000517   0.000713   0.0051   0.0058   0.0053
LATT  1
SFAC C H F Fe
UNIT 32.00 20.00 12.00 2.00
TREF
HKLF 4
END
_computing_structure_solution     'SHELXT 2014/5 (Sheldrick, 2014)'
;
_shelx_hkl_checksum              4099
_olex2_date_sample_data_collection 2018-12-21
_olex2_exptl_crystal_mounting_method 'Inside 0.5mm X-ray capillary'
_olex2_submission_special_instructions 'No special instructions were received'
_oxdiff_exptl_absorpt_empirical_details
;
Empirical correction (ABSPACK) includes:
- Absorption correction using spherical harmonics
- Frame scaling
;
_oxdiff_exptl_absorpt_empirical_full_max 39.749
_oxdiff_exptl_absorpt_empirical_full_min 0.440
loop_
_space_group_symop_operation_xyz
'x, y, z'
'-x, -y, -z'
loop_
_atom_site_label
_atom_site_type_symbol
_atom_site_fract_x
_atom_site_fract_y
_atom_site_fract_z
_atom_site_U_iso_or_equiv
_atom_site_adp_type
_atom_site_occupancy
_atom_site_site_symmetry_order
_atom_site_calc_flag
Fe1 Fe 0.23944(4) 0.49619(3) 0.25243(2) 0.01985(12) Uani 1 1 d
C7 C 0.3190(4) 0.6806(3) 0.1194(2) 0.0341(5) Uani 1 1 d
H7 H 0.440(4) 0.720(3) 0.094(2) 0.051(8) Uiso 1 1 d
C8 C 0.2459(3) 0.5728(3) 0.06946(19) 0.0302(5) Uani 1 1 d
H8 H 0.314(4) 0.528(3) 0.008(2) 0.045(7) Uiso 1 1 d
C9 C 0.0553(3) 0.5487(3) 0.1352(2) 0.0283(5) Uani 1 1 d
H9 H -0.026(3) 0.481(3) 0.124(2) 0.029(6) Uiso 1 1 d
C10 C 0.0106(3) 0.6416(2) 0.2255(2) 0.0294(5) Uani 1 1 d
H10 H -0.109(4) 0.646(3) 0.286(2) 0.045(7) Uiso 1 1 d
C11 C 0.1733(4) 0.7229(2) 0.2155(2) 0.0318(5) Uani 1 1 d
H11 H 0.189(4) 0.794(3) 0.264(2) 0.046(7) Uiso 1 1 d
C12 C 0.4751(3) 0.4077(3) 0.3200(2) 0.0343(5) Uani 1 1 d
H12 H 0.602(4) 0.450(3) 0.292(2) 0.046(7) Uiso 1 1 d
C13 C 0.4068(3) 0.3006(3) 0.2672(2) 0.0326(5) Uani 1 1 d
H13 H 0.476(3) 0.257(3) 0.200(2) 0.033(6) Uiso 1 1 d
C14 C 0.2168(3) 0.2727(2) 0.3302(2) 0.0275(5) Uani 1 1 d
H14 H 0.134(3) 0.209(3) 0.314(2) 0.033(6) Uiso 1 1 d
C15 C 0.1662(3) 0.3621(2) 0.42268(19) 0.0270(5) Uani 1 1 d
H15 H 0.054(4) 0.368(3) 0.474(2) 0.033(6) Uiso 1 1 d
C16 C 0.3255(3) 0.4462(3) 0.4159(2) 0.0300(5) Uani 1 1 d
H16 H 0.333(3) 0.517(3) 0.463(2) 0.033(6) Uiso 1 1 d
F1 F 0.37476(19) 1.00125(16) -0.11511(13) 0.0425(4) Uani 1 1 d
F2 F 0.1417(2) 0.81085(14) -0.16013(11) 0.0362(3) Uani 1 1 d
F3 F -0.2320(2) 0.80886(16) -0.04455(14) 0.0436(4) Uani 1 1 d
C1 C 0.1890(3) 1.0009(2) -0.05897(19) 0.0277(5) Uani 1 1 d
C2 C 0.0715(3) 0.9042(2) -0.08126(18) 0.0258(5) Uani 1 1 d
C3 C -0.1179(3) 0.9035(2) -0.0229(2) 0.0279(5) Uani 1 1 d
F4 F 0.8052(2) 0.15146(17) 0.50219(14) 0.0469(4) Uani 1 1 d
F5 F 0.4591(2) 0.21125(15) 0.64336(12) 0.0404(4) Uani 1 1 d
F6 F 0.15210(18) 0.06046(15) 0.64039(12) 0.0388(4) Uani 1 1 d
C4 C 0.6545(3) 0.0768(2) 0.5010(2) 0.0277(5) Uani 1 1 d
C5 C 0.4785(3) 0.1067(2) 0.57297(19) 0.0268(5) Uani 1 1 d
C6 C 0.3244(3) 0.0301(2) 0.57170(18) 0.0260(5) Uani 1 1 d
loop_
_atom_site_aniso_label
_atom_site_aniso_U_11
_atom_site_aniso_U_22
_atom_site_aniso_U_33
_atom_site_aniso_U_23
_atom_site_aniso_U_13
_atom_site_aniso_U_12
Fe1 0.02188(19) 0.01774(17) 0.01964(18) -0.00268(12) -0.00568(12) 0.00144(12)
C7 0.0343(13) 0.0250(12) 0.0376(13) 0.0087(10) -0.0087(11) -0.0045(10)
C8 0.0384(13) 0.0311(12) 0.0181(10) -0.0033(9) -0.0060(9) 0.0091(10)
C9 0.0342(13) 0.0274(11) 0.0261(11) -0.0044(9) -0.0148(10) 0.0035(9)
C10 0.0304(12) 0.0274(11) 0.0289(11) -0.0044(9) -0.0089(10) 0.0091(9)
C11 0.0460(14) 0.0174(10) 0.0348(12) -0.0041(9) -0.0175(11) 0.0043(9)
C12 0.0240(12) 0.0369(13) 0.0397(13) 0.0019(10) -0.0122(10) 0.0021(10)
C13 0.0358(13) 0.0267(12) 0.0303(11) -0.0039(9) -0.0056(10) 0.0148(10)
C14 0.0370(13) 0.0175(10) 0.0287(11) -0.0026(8) -0.0114(10) 0.0012(9)
C15 0.0305(12) 0.0247(11) 0.0220(10) 0.0009(8) -0.0042(9) 0.0010(9)
C16 0.0400(14) 0.0277(11) 0.0249(11) -0.0030(9) -0.0161(10) 0.0025(10)
F1 0.0265(7) 0.0468(9) 0.0486(8) -0.0120(7) 0.0060(6) -0.0019(6)
F2 0.0464(8) 0.0300(7) 0.0311(7) -0.0136(5) -0.0024(6) 0.0061(6)
F3 0.0401(8) 0.0427(8) 0.0533(9) -0.0188(7) -0.0080(7) -0.0115(6)
C1 0.0248(11) 0.0252(11) 0.0275(11) -0.0008(9) 0.0000(9) 0.0024(9)
C2 0.0357(12) 0.0194(10) 0.0201(10) -0.0048(8) -0.0032(9) 0.0048(9)
C3 0.0304(12) 0.0231(11) 0.0303(11) -0.0022(9) -0.0081(9) -0.0039(9)
F4 0.0354(8) 0.0500(9) 0.0592(9) -0.0142(7) -0.0083(7) -0.0166(7)
F5 0.0561(9) 0.0310(7) 0.0381(7) -0.0169(6) -0.0107(7) 0.0024(6)
F6 0.0290(7) 0.0421(8) 0.0359(7) -0.0043(6) 0.0060(6) 0.0059(6)
C4 0.0291(12) 0.0239(11) 0.0295(11) 0.0010(9) -0.0091(9) -0.0048(9)
C5 0.0379(13) 0.0186(10) 0.0229(10) -0.0046(8) -0.0068(9) 0.0051(9)
C6 0.0237(11) 0.0258(11) 0.0232(10) 0.0015(8) -0.0019(8) 0.0037(8)
loop_
_atom_type_symbol
_atom_type_description
_atom_type_scat_dispersion_real
_atom_type_scat_dispersion_imag
_atom_type_scat_source
C C 0.0033 0.0016 'International Tables Vol C Tables 4.2.6.8 and 6.1.1.4'
H H 0.0000 0.0000 'International Tables Vol C Tables 4.2.6.8 and 6.1.1.4'
F F 0.0171 0.0103 'International Tables Vol C Tables 4.2.6.8 and 6.1.1.4'
Fe Fe 0.3463 0.8444 'International Tables Vol C Tables 4.2.6.8 and 6.1.1.4'
loop_
_exptl_crystal_face_index_h
_exptl_crystal_face_index_k
_exptl_crystal_face_index_l
_exptl_crystal_face_perp_dist
-9 1 -10 0.1688
-2 12 2 0.3527
-8 -8 -8 0.1016
9 5 9 0.1000
2 -12 1 0.1527
-9 -5 -9 0.1000
-1 -8 10 0.1653
1 4 -13 0.2091
-3 10 -7 0.2361
3 -4 13 0.1401
7 -8 6 0.1415
-6 7 -8 0.2332
-5 -10 3 0.1680
-1 2 -15 0.2066
8 7 9 0.1120
5 11 1 0.2141
1 11 -4 0.2285
2 9 -7 0.2201
-3 -6 11 0.1646
7 -8 -3 0.2193
-2 -12 -6 0.1666
loop_
_geom_angle_atom_site_label_1
_geom_angle_atom_site_label_2
_geom_angle_atom_site_label_3
_geom_angle
_geom_angle_site_symmetry_1
_geom_angle_site_symmetry_3
C7 Fe1 C8 40.76(10) . .
C7 Fe1 C9 68.41(10) . .
C7 Fe1 C10 68.35(10) . .
C7 Fe1 C11 40.68(10) . .
C7 Fe1 C12 107.66(10) . .
C7 Fe1 C13 122.07(10) . .
C7 Fe1 C14 157.49(10) . .
C7 Fe1 C15 160.42(10) . .
C7 Fe1 C16 123.93(10) . .
C8 Fe1 C15 157.53(10) . .
C9 Fe1 C8 40.63(9) . .
C9 Fe1 C10 40.73(9) . .
C9 Fe1 C12 159.65(10) . .
C9 Fe1 C14 107.28(10) . .
C9 Fe1 C15 122.11(10) . .
C10 Fe1 C8 68.46(9) . .
C10 Fe1 C12 158.23(11) . .
C10 Fe1 C14 123.73(10) . .
C10 Fe1 C15 107.85(9) . .
C11 Fe1 C8 68.49(9) . .
C11 Fe1 C9 68.37(10) . .
C11 Fe1 C10 40.51(10) . .
C11 Fe1 C12 122.55(10) . .
C11 Fe1 C14 160.25(10) . .
C11 Fe1 C15 124.04(9) . .
C12 Fe1 C8 123.42(10) . .
C12 Fe1 C14 68.26(10) . .
C12 Fe1 C15 68.32(9) . .
C13 Fe1 C8 107.13(9) . .
C13 Fe1 C9 123.17(10) . .
C13 Fe1 C10 159.76(11) . .
C13 Fe1 C11 158.11(10) . .
C13 Fe1 C12 40.66(10) . .
C13 Fe1 C14 40.43(9) . .
C13 Fe1 C15 68.24(9) . .
C14 Fe1 C8 121.61(9) . .
C14 Fe1 C15 40.65(9) . .
C16 Fe1 C8 160.19(10) . .
C16 Fe1 C9 157.98(10) . .
C16 Fe1 C10 122.40(9) . .
C16 Fe1 C11 108.00(10) . .
C16 Fe1 C12 40.75(10) . .
C16 Fe1 C13 68.44(9) . .
C16 Fe1 C14 68.38(9) . .
C16 Fe1 C15 40.59(9) . .
Fe1 C7 H7 127.1(17) . .
C8 C7 Fe1 69.78(12) . .
C8 C7 H7 127.1(17) . .
C11 C7 Fe1 69.77(13) . .
C11 C7 H7 124.8(17) . .
C11 C7 C8 108.1(2) . .
Fe1 C8 H8 125.1(16) . .
C7 C8 Fe1 69.46(13) . .
C7 C8 H8 124.3(17) . .
C9 C8 Fe1 69.63(12) . .
C9 C8 C7 107.8(2) . .
C9 C8 H8 127.9(17) . .
Fe1 C9 H9 124.4(14) . .
C8 C9 Fe1 69.73(13) . .
C8 C9 H9 126.6(14) . .
C8 C9 C10 108.1(2) . .
C10 C9 Fe1 69.67(13) . .
C10 C9 H9 125.3(14) . .
Fe1 C10 H10 124.2(15) . .
C9 C10 Fe1 69.60(12) . .
C9 C10 H10 126.5(15) . .
C11 C10 Fe1 69.71(12) . .
C11 C10 C9 108.0(2) . .
C11 C10 H10 125.5(15) . .
Fe1 C11 H11 125.4(15) . .
C7 C11 Fe1 69.55(12) . .
C7 C11 H11 123.6(16) . .
C10 C11 Fe1 69.78(12) . .
C10 C11 C7 108.1(2) . .
C10 C11 H11 128.3(16) . .
Fe1 C12 H12 124.3(15) . .
C13 C12 Fe1 69.63(13) . .
C13 C12 H12 125.2(15) . .
C13 C12 C16 107.8(2) . .
C16 C12 Fe1 69.51(13) . .
C16 C12 H12 126.9(15) . .
Fe1 C13 H13 125.2(14) . .
C12 C13 Fe1 69.71(13) . .
C12 C13 H13 126.0(15) . .
C14 C13 Fe1 69.82(12) . .
C14 C13 C12 108.2(2) . .
C14 C13 H13 125.8(15) . .
Fe1 C14 H14 124.8(14) . .
C13 C14 Fe1 69.75(12) . .
C13 C14 H14 127.7(14) . .
C13 C14 C15 108.1(2) . .
C15 C14 Fe1 69.82(12) . .
C15 C14 H14 124.2(14) . .
Fe1 C15 H15 124.7(15) . .
C14 C15 Fe1 69.52(12) . .
C14 C15 H15 126.8(16) . .
C16 C15 Fe1 69.44(12) . .
C16 C15 C14 107.9(2) . .
C16 C15 H15 125.3(16) . .
Fe1 C16 H16 124.3(15) . .
C12 C16 Fe1 69.75(13) . .
C12 C16 H16 124.4(15) . .
C15 C16 Fe1 69.97(13) . .
C15 C16 C12 108.0(2) . .
C15 C16 H16 127.6(15) . .
F1 C1 C2 120.08(19) . .
F1 C1 C3 119.6(2) . 2_575
C2 C1 C3 120.3(2) . 2_575
F2 C2 C1 120.03(19) . .
F2 C2 C3 120.2(2) . .
C1 C2 C3 119.81(19) . .
F3 C3 C1 120.4(2) . 2_575
F3 C3 C2 119.7(2) . .
C2 C3 C1 119.9(2) . 2_575
F4 C4 C5 119.9(2) . .
F4 C4 C6 119.94(19) . 2_656
C6 C4 C5 120.1(2) 2_656 .
F5 C5 C4 119.8(2) . .
F5 C5 C6 120.40(19) . .
C6 C5 C4 119.8(2) . .
F6 C6 C4 120.0(2) . 2_656
F6 C6 C5 120.0(2) . .
C5 C6 C4 120.02(19) . 2_656
loop_
_geom_bond_atom_site_label_1
_geom_bond_atom_site_label_2
_geom_bond_distance
_geom_bond_site_symmetry_2
Fe1 C7 2.034(2) .
Fe1 C8 2.038(2) .
Fe1 C9 2.037(2) .
Fe1 C10 2.038(2) .
Fe1 C11 2.037(2) .
Fe1 C12 2.038(2) .
Fe1 C13 2.037(2) .
Fe1 C14 2.038(2) .
Fe1 C15 2.041(2) .
Fe1 C16 2.034(2) .
C7 H7 0.93(3) .
C7 C8 1.418(4) .
C7 C11 1.415(3) .
C8 H8 0.91(3) .
C8 C9 1.415(3) .
C9 H9 0.93(2) .
C9 C10 1.418(3) .
C10 H10 0.97(3) .
C10 C11 1.411(3) .
C11 H11 0.96(3) .
C12 H12 0.98(3) .
C12 C13 1.415(4) .
C12 C16 1.418(3) .
C13 H13 0.94(2) .
C13 C14 1.408(3) .
C14 H14 0.94(2) .
C14 C15 1.417(3) .
C15 H15 0.89(2) .
C15 C16 1.414(3) .
C16 H16 0.92(2) .
F1 C1 1.340(2) .
F2 C2 1.338(2) .
F3 C3 1.334(3) .
C1 C2 1.369(3) .
C1 C3 1.378(3) 2_575
C2 C3 1.369(3) .
C3 C1 1.378(3) 2_575
F4 C4 1.334(3) .
F5 C5 1.337(2) .
F6 C6 1.339(2) .
C4 C5 1.374(3) .
C4 C6 1.372(3) 2_656
C5 C6 1.366(3) .
C6 C4 1.372(3) 2_656
loop_
_exptl_oxdiff_crystal_face_indexfrac_h
_exptl_oxdiff_crystal_face_indexfrac_k
_exptl_oxdiff_crystal_face_indexfrac_l
_exptl_oxdiff_crystal_face_x
_exptl_oxdiff_crystal_face_y
_exptl_oxdiff_crystal_face_z
-8.6453 0.6000 -10.3798 0.2326 0.9726 0.0006
-1.8388 12.2465 1.8946 0.9057 0.0887 0.4145
-8.2873 -7.8350 -7.6606 -0.4931 0.8699 -0.0090
9.0362 4.5984 9.4955 0.2002 -0.9797 0.0091
1.7749 -11.8980 1.4585 -0.9583 -0.1780 -0.2234
-9.0362 -4.5984 -9.4955 -0.2002 0.9797 -0.0091
-1.4383 -7.7546 9.7762 -0.8524 -0.1597 0.4979
1.2362 3.5378 -13.3732 0.6045 0.2777 -0.7466
-2.9213 9.8059 -6.6747 0.9094 0.4154 -0.0188
2.9341 -4.3194 13.4504 -0.6385 -0.6081 0.4717
6.5227 -7.8501 5.5674 -0.7039 -0.6684 -0.2404
-5.9448 7.3542 -7.8459 0.7230 0.6871 0.0723
-5.4844 -9.7292 2.7060 -0.8685 0.3582 0.3427
-0.5947 1.7507 -14.8828 0.4868 0.4647 -0.7396
8.2769 6.9659 9.4599 0.3820 -0.9195 0.0933
5.2558 11.1219 0.9396 0.8899 -0.4430 -0.1087
0.9864 11.4165 -3.8109 0.9958 0.0268 -0.0881
2.1908 9.4507 -7.0858 0.9273 0.0244 -0.3735
-3.0036 -5.5570 10.8973 -0.7171 -0.0684 0.6936
6.9934 -7.7531 -3.2472 -0.4837 -0.4578 -0.7460
-2.0962 -12.4523 -6.4300 -0.8420 0.3487 -0.4116
