#------------------------------------------------------------------------------
#$Date: 2019-11-26 08:28:48 +0200 (Tue, 26 Nov 2019) $
#$Revision: 243066 $
#$URL: file:///home/coder/svn-repositories/cod/cif/4/13/32/4133230.cif $
#------------------------------------------------------------------------------
#
# This file is available in the Crystallography Open Database (COD),
# http://www.crystallography.net/
#
# All data on this site have been placed in the public domain by the
# contributors.
#
data_4133230
loop_
_publ_author_name
'X\'emard, Mathieu'
'Zimmer, S\'ebastien'
'Cordier, Marie'
'Goudy, Violaine'
'Ricard, Louis'
'Clavagu\'era, Carine'
'Nocton, Gr\'egory'
_publ_section_title
;
 Lanthanidocenes: Synthesis, Structure, and Bonding of Linear Sandwich
 Complexes of Lanthanides.
;
_journal_issue                   43
_journal_name_full               'Journal of the American Chemical Society'
_journal_page_first              14433
_journal_page_last               14439
_journal_paper_doi               10.1021/jacs.8b09081
_journal_volume                  140
_journal_year                    2018
_chemical_formula_moiety         'C18 H18 Yb'
_chemical_formula_sum            'C18 H18 Yb'
_chemical_formula_weight         407.36
_space_group_crystal_system      monoclinic
_space_group_IT_number           14
_space_group_name_Hall           '-P 2yn'
_space_group_name_H-M_alt        'P 1 21/n 1'
_atom_sites_solution_hydrogens   geom
_audit_creation_method           SHELXL-2014/7
_cell_angle_alpha                90
_cell_angle_beta                 99.998(2)
_cell_angle_gamma                90
_cell_formula_units_Z            2
_cell_length_a                   7.3832(5)
_cell_length_b                   8.9146(6)
_cell_length_c                   11.0651(8)
_cell_measurement_reflns_used    9992
_cell_measurement_temperature    150.0(1)
_cell_measurement_theta_max      29.9982
_cell_measurement_theta_min      2.9522
_cell_volume                     717.23(9)
_computing_cell_refinement       'Bruker SAINT'
_computing_data_collection       'Bruker APEX2'
_computing_data_reduction        'Bruker SAINT'
_computing_molecular_graphics    'PLATON (Spek, 2009)'
_computing_structure_refinement  'SHELXL-2014/7 (Sheldrick, 2014)'
_computing_structure_solution    SHELXT(Sheldrick,2014)
_diffrn_ambient_temperature      150(2)
_diffrn_measured_fraction_theta_full 0.998
_diffrn_measured_fraction_theta_max 0.997
_diffrn_measurement_device_type  'Kappa APEX II'
_diffrn_measurement_method       'phi and omega scans'
_diffrn_radiation_type           MoK\a
_diffrn_radiation_wavelength     0.71069
_diffrn_reflns_av_unetI/netI     0.0224
_diffrn_reflns_Laue_measured_fraction_full 0.998
_diffrn_reflns_Laue_measured_fraction_max 0.997
_diffrn_reflns_limit_h_max       11
_diffrn_reflns_limit_h_min       -11
_diffrn_reflns_limit_k_max       13
_diffrn_reflns_limit_k_min       -13
_diffrn_reflns_limit_l_max       17
_diffrn_reflns_limit_l_min       -4
_diffrn_reflns_number            31319
_diffrn_reflns_point_group_measured_fraction_full 0.998
_diffrn_reflns_point_group_measured_fraction_max 0.997
_diffrn_reflns_theta_full        25.240
_diffrn_reflns_theta_max         33.845
_diffrn_reflns_theta_min         3.616
_exptl_absorpt_coefficient_mu    6.502
_exptl_absorpt_correction_T_max  0.7467
_exptl_absorpt_correction_T_min  0.5157
_exptl_absorpt_correction_type   multi-scan
_exptl_absorpt_process_details   SADABS
_exptl_crystal_colour            yellow
_exptl_crystal_density_diffrn    1.886
_exptl_crystal_description       block
_exptl_crystal_F_000             392
_exptl_crystal_size_max          0.220
_exptl_crystal_size_mid          0.060
_exptl_crystal_size_min          0.060
_refine_diff_density_max         2.034
_refine_diff_density_min         -1.512
_refine_diff_density_rms         0.160
_refine_ls_extinction_method     none
_refine_ls_goodness_of_fit_ref   1.368
_refine_ls_hydrogen_treatment    constr
_refine_ls_matrix_type           full
_refine_ls_number_parameters     170
_refine_ls_number_reflns         2886
_refine_ls_number_restraints     108
_refine_ls_restrained_S_all      1.351
_refine_ls_R_factor_all          0.0550
_refine_ls_R_factor_gt           0.0401
_refine_ls_shift/su_max          0.000
_refine_ls_shift/su_mean         0.000
_refine_ls_structure_factor_coef Fsqd
_refine_ls_weighting_details
'w=1/[\s^2^(Fo^2^)+(0.0179P)^2^+7.3443P] where P=(Fo^2^+2Fc^2^)/3'
_refine_ls_weighting_scheme      calc
_refine_ls_wR_factor_gt          0.1127
_refine_ls_wR_factor_ref         0.1182
_reflns_Friedel_coverage         0.000
_reflns_number_gt                2100
_reflns_number_total             2886
_reflns_threshold_expression     'I > 2\s(I)'
_cod_data_source_file            ja8b09081_si_002.cif
_cod_data_source_block           1
_cod_original_sg_symbol_H-M      'P 21/n'
_cod_database_code               4133230
_shelx_shelxl_version_number     2014/7
_shelx_space_group_comment
;
The symmetry employed for this shelxl refinement is uniquely defined
by the following loop, which should always be used as a source of
symmetry information in preference to the above space-group names.
They are only intended as comments.
;
_shelx_estimated_absorpt_t_min   0.509
_shelx_estimated_absorpt_t_max   0.624
_shelx_res_file
;

    mx598_b_tw.res created by SHELXL-2014/7


TITL mx598_b.res in P2(1)/n
REM Old TITL  mx598no
REM SHELXT solution in P2(1)/n
REM R1 0.219,  Rweak 0.007,  Alpha 0.084,  Orientation as input
REM Formula found by SHELXT:  C24 Yb
CELL  0.71069   7.3832   8.9146  11.0651   90.000   99.998   90.000
ZERR    2.000   0.0005   0.0006   0.0008    0.000    0.002    0.000
LATT   1
SYMM     0.50000 - X ,    0.50000 + Y ,    0.50000 - Z
SFAC  C   H   YB
UNIT   36   36   2
L.S. 20
FMAP 2
PLAN -20
ACTA
LIST  4
SIZE 0.12 0.10 0.08
RIGU  C1 > C9
RIGU  C10 > C18
TEMP -123
BOND $H
CONF
CONN  36
WGHT    0.017900    7.344300
BASF   0.14385
FVAR      10.54867
RESI 0
YB1   3    0.000000    0.000000    0.000000    10.50000    0.02548    0.02024 =
         0.01644   -0.00283   -0.00021   -0.00255
PART 1 10.5
C1    1    0.143301    0.009364    0.249095    10.50000    0.04488    0.04472 =
         0.02663   -0.00847    0.00023   -0.00225
AFIX  43
H1    2    0.170200   -0.059890    0.315026    10.50000   -1.20000
AFIX   0
C2    1    0.291121    0.019320    0.192014    10.50000    0.03769    0.05575 =
         0.03224   -0.00717   -0.00480   -0.00548
AFIX  43
H2    2    0.382162   -0.050206    0.228147    10.50000   -1.20000
AFIX   0
C3    1    0.354549    0.095999    0.099294    10.50000    0.02920    0.04667 =
         0.03880   -0.00740   -0.00433   -0.00251
AFIX  43
H3    2    0.478301    0.069055    0.096686    10.50000   -1.20000
AFIX   0
C4    1    0.290517    0.202979    0.006686    10.50000    0.02321    0.03769 =
         0.03868   -0.01399    0.00697   -0.00357
AFIX  43
H4    2    0.381808    0.221950   -0.042227    10.50000   -1.20000
AFIX   0
C5    1    0.140404    0.284872   -0.032206    10.50000    0.02689    0.03024 =
         0.02262   -0.00521    0.01725   -0.00593
AFIX  43
H5    2    0.155020    0.342688   -0.101992    10.50000   -1.20000
AFIX   0
C6    1   -0.029234    0.310049   -0.000820    10.50000    0.02370    0.02189 =
         0.02894   -0.00549    0.01033   -0.00447
AFIX  43
H6    2   -0.087021    0.386753   -0.053453    10.50000   -1.20000
AFIX   0
C7    1   -0.152109    0.269003    0.077017    10.50000    0.02208    0.03048 =
         0.02201   -0.00721    0.00969   -0.00138
AFIX  43
H7    2   -0.265134    0.321787    0.057098    10.50000   -1.20000
AFIX   0
C8    1   -0.153485    0.170715    0.176773    10.50000    0.03418    0.03536 =
         0.02137   -0.00771    0.01125   -0.00881
AFIX  43
H8    2   -0.266404    0.177308    0.206554    10.50000   -1.20000
AFIX   0
C9    1   -0.033376    0.064419    0.245415    10.50000    0.04725    0.04611 =
         0.02026   -0.00221    0.00758   -0.00105
AFIX  43
H9    2   -0.090669    0.017770    0.306167    10.50000   -1.20000
AFIX   0
PART 2  10.5
C10   1   -0.222197    0.026825   -0.231609    10.50000    0.03620    0.05874 =
         0.02284   -0.00073    0.00164   -0.00137
AFIX  43
H10   2   -0.276756    0.109738   -0.278225    10.50000   -1.20000
AFIX   0
C11   1   -0.340443   -0.031940   -0.156110    10.50000    0.02403    0.04191 =
         0.02416   -0.00844    0.00060   -0.00228
AFIX  43
H11   2   -0.457920    0.014078   -0.175833    10.50000   -1.20000
AFIX   0
C12   1   -0.340832   -0.137589   -0.060177    10.50000    0.03213    0.03914 =
         0.02877   -0.00859    0.00834   -0.00445
AFIX  43
H12   2   -0.457253   -0.135462   -0.034732    10.50000   -1.20000
AFIX   0
C13   1   -0.233699   -0.239141    0.006760    10.50000    0.03659    0.03786 =
         0.03617   -0.00115    0.00649   -0.00457
AFIX  43
H13   2   -0.297549   -0.280526    0.066438    10.50000   -1.20000
AFIX   0
C14   1   -0.066467   -0.302406    0.018176    10.50000    0.03753    0.02218 =
         0.07247   -0.00476    0.01103   -0.00441
AFIX  43
H14   2   -0.051869   -0.376345    0.080947    10.50000   -1.20000
AFIX   0
C15   1    0.092088   -0.293031   -0.033626    10.50000    0.02131    0.03222 =
         0.05479   -0.01334   -0.00442   -0.00347
AFIX  43
H15   2    0.185553   -0.357199    0.007639    10.50000   -1.20000
AFIX   0
C16   1    0.153919   -0.214330   -0.131142    10.50000    0.03677    0.04298 =
         0.05309   -0.01359    0.00200   -0.00478
AFIX  43
H16   2    0.270542   -0.252103   -0.141551    10.50000   -1.20000
AFIX   0
C17   1    0.099473   -0.098728   -0.217570    10.50000    0.03852    0.04720 =
         0.04376   -0.01575    0.00394   -0.00589
AFIX  43
H17   2    0.193309   -0.079512   -0.264400    10.50000   -1.20000
AFIX   0
C18   1   -0.055193   -0.002013   -0.255450    10.50000    0.03675    0.04794 =
         0.01645   -0.01169    0.00393   -0.00721
AFIX  43
H18   2   -0.029998    0.063039   -0.318488    10.50000   -1.20000
PART  0
AFIX   0
HKLF 5

REM  mx598_b.res in P2(1)/n
REM R1 =  0.0401 for    2100 Fo > 4sig(Fo)  and  0.0550 for all    2886 data
REM    170 parameters refined using    108 restraints

END

WGHT      0.0000      6.1425

REM Highest difference peak  2.034,  deepest hole -1.512,  1-sigma level  0.160
Q1    1   0.2523 -0.0022  0.0007  11.00000  0.05    2.03
Q2    1   0.5000  0.0000  0.0000  10.50000  0.05    1.76
Q3    1   0.0776 -0.0065 -0.0397  11.00000  0.05    1.26
Q4    1   0.0177 -0.0793  0.0214  11.00000  0.05    1.06
Q5    1   0.0786  0.0002  0.0915  11.00000  0.05    0.82
Q6    1   0.0221  0.1382  0.2084  11.00000  0.05    0.79
Q7    1   0.4271  0.0114  0.0623  11.00000  0.05    0.70
Q8    1   0.0451  0.5019  0.0470  11.00000  0.05    0.67
Q9    1   0.0011 -0.2890  0.0394  11.00000  0.05    0.61
Q10   1   0.5900  0.0115  0.0623  11.00000  0.05    0.61
Q11   1   0.3235 -0.0021  0.0783  11.00000  0.05    0.61
Q12   1   0.2922  0.0020 -0.0738  11.00000  0.05    0.57
Q13   1   0.1715  0.0319 -0.0594  11.00000  0.05    0.55
Q14   1   0.1002 -0.2991 -0.0741  11.00000  0.05    0.53
Q15   1  -0.4060  0.2781  0.0367  11.00000  0.05    0.52
Q16   1   0.2678  0.1409  0.1180  11.00000  0.05    0.50
Q17   1  -0.0043 -0.0454 -0.1476  11.00000  0.05    0.49
Q18   1  -0.3441  0.2789 -0.0373  11.00000  0.05    0.47
Q19   1   0.1525 -0.1308 -0.2090  11.00000  0.05    0.47
Q20   1   0.2076  0.0097  0.0744  11.00000  0.05    0.45
;
_shelx_res_checksum              91865
_shelx_hkl_file
;
   2   0   0 1028756   19324   1
  -4   0   2  776427   20328  -2
   4   0   0  776427   20328   1
   6   0   0  475655    9401   1
  -8   0   4  178699    5287  -2
   8   0   0  178699    5287   1
  10   0   0   50818    4026   1
   1   1   0 1835300   21577   1
  -2  -1   1  289453    3802  -2
   2   1   0  289453    3802   1
   3   1   0 1383961   19936   1
  -4  -1   2   10011     391  -2
   4   1   0   10011     391   1
   5   1   0  509741    7329   1
  -6  -1   3   63634    1969  -2
   6   1   0   63634    1969   1
   7   1   0  220393    3951   1
  -8  -1   4    2631     981  -2
   8   1   0    2631     981   1
   9   1   0  103534    2605   1
 -10  -1   5    5069    1507  -2
  10   1   0    5069    1507   1
  11   1   0   38341    2710   1
   0  -2   0 1416958   18191  -2
   0   2   0 1416958   18191   1
   1   2   0    5423     155   1
  -2  -2   1 1466545   16317  -2
   2   2   0 1466545   16317   1
   3   2   0    5531     224   1
  -4  -2   2  957113   13331  -2
   4   2   0  957113   13331   1
   5   2   0    1773     214   1
  -6  -2   3  342285    5309  -2
   6   2   0  342285    5309   1
   7   2   0    1287     587   1
  -8  -2   4  165950    3319  -2
   8   2   0  165950    3319   1
   9   2   0    2800    1062   1
 -10  -2   5   60073    2945  -2
  10   2   0   60073    2945   1
  11   2   0    1621    2426   1
   1   3   0 1965324   19131   1
  -2  -3   1  309845    4259  -2
   2   3   0  309845    4259   1
   3   3   0  959648   11017   1
  -4  -3   2     612     267  -2
   4   3   0     612     267   1
   5   3   0  452858    7169   1
  -6  -3   3   55822    4177  -2
   6   3   0   55822    4177   1
   7   3   0  193712    3521   1
  -8  -3   4     592     933  -2
   8   3   0     592     933   1
   9   3   0   98629    2950   1
 -10  -3   5    3626    1470  -2
  10   3   0    3626    1470   1
  11   3   0   30016    2635   1
   0  -4   0 2138531   39172  -2
   0   4   0 2138531   39172   1
   1   4   0    -193     193   1
  -2  -4   1  743690    7991  -2
   2   4   0  743690    7991   1
   3   4   0      98     235   1
  -4  -4   2  683780    9315  -2
   4   4   0  683780    9315   1
   5   4   0   18253     829   1
  -6  -4   3  275528    4703  -2
   6   4   0  275528    4703   1
   7   4   0    1210     753   1
  -8  -4   4  136187    3162  -2
   8   4   0  136187    3162   1
   9   4   0    1182    1176   1
 -10  -4   5   50888    2873  -2
  10   4   0   50888    2873   1
   1   5   0  623321    6908   1
  -2  -5   1  117093    2163  -2
   2   5   0  117093    2163   1
   3   5   0  539547    6732   1
  -4  -5   2     991     336  -2
   4   5   0     991     336   1
   5   5   0  345631    5690   1
  -6  -5   3   23984    2848  -2
   6   5   0   23984    2848   1
   7   5   0  208293    3901   1
  -8  -5   4    -144    1057  -2
   8   5   0    -144    1057   1
   9   5   0   57717    2565   1
 -10  -5   5     129    1886  -2
  10   5   0     129    1886   1
   0  -6   0  900095   16104  -2
   0   6   0  900095   16104   1
   1   6   0    -254     324   1
  -2  -6   1  598753    7950  -2
   2   6   0  598753    7950   1
   3   6   0    1449     429   1
  -4  -6   2  460521    6265  -2
   4   6   0  460521    6265   1
   5   6   0     334     572   1
  -6  -6   3  207880    3674  -2
   6   6   0  207880    3674   1
   7   6   0    1427     876   1
  -8  -6   4   95572    2571  -2
   8   6   0   95572    2571   1
   9   6   0     760    1398   1
 -10  -6   5   37665    2771  -2
  10   6   0   37665    2771   1
   1   7   0  586491    7856   1
  -2  -7   1   93004    3398  -2
   2   7   0   93004    3398   1
   3   7   0  344768    5207   1
  -4  -7   2      44     509  -2
   4   7   0      44     509   1
   5   7   0  196052    3299   1
  -6  -7   3   29256    1799  -2
   6   7   0   29256    1799   1
   7   7   0  114530    2691   1
  -8  -7   4    -647    1120  -2
   8   7   0    -647    1120   1
   9   7   0   54764    2964   1
   0  -8   0  440905    9886  -2
   0   8   0  440905    9886   1
   1   8   0    -117     532   1
  -2  -8   1  261162    3803  -2
   2   8   0  261162    3803   1
   3   8   0    -466     563   1
  -4  -8   2  245860    3961  -2
   4   8   0  245860    3961   1
   5   8   0    2604     967   1
  -6  -8   3  128586    2875  -2
   6   8   0  128586    2875   1
   7   8   0    -722    1191   1
  -8  -8   4   70607    2852  -2
   8   8   0   70607    2852   1
   9   8   0    1297    1903   1
   1   9   0  237551    3577   1
  -2  -9   1   48083    1966  -2
   2   9   0   48083    1966   1
   3   9   0  239111    3932   1
  -4  -9   2    -294     854  -2
   4   9   0    -294     854   1
   5   9   0  128758    2604   1
  -6  -9   3    9860    1332  -2
   6   9   0    9860    1332   1
   7   9   0   61345    2776   1
  -8  -9   4    -477    1576  -2
   8   9   0    -477    1576   1
   0 -10   0  334684    7368  -2
   0  10   0  334684    7368   1
   1  10   0      85     742   1
  -2 -10   1  207045    3432  -2
   2  10   0  207045    3432   1
   3  10   0    -284     847   1
  -4 -10   2  129518    2752  -2
   4  10   0  129518    2752   1
   5  10   0    1156    1130   1
  -6 -10   3   58875    2682  -2
   6  10   0   58875    2682   1
   7  10   0   -1589    1589   1
   1  11   0  147245    2731   1
  -2 -11   1   21070    1266  -2
   2  11   0   21070    1266   1
   3  11   0   88815    2427   1
  -4 -11   2   -1011    1173  -2
   4  11   0   -1011    1173   1
   5  11   0   66174    2679   1
  -6 -11   3    9667    1967  -2
   6  11   0    9667    1967   1
   7  11   0   35301    3575   1
   0 -12   0  102359    6598  -2
   0  12   0  102359    6598   1
   1  12   0     902    1374   1
  -2 -12   1   91034    2743  -2
   2  12   0   91034    2743   1
   3  12   0   -1196    1452   1
  -4 -12   2   80419    3283  -2
   4  12   0   80419    3283   1
   5  12   0    1600    2061   1
   1  13   0   87520    4510   1
  -2 -13   1   10727    1878  -2
   2  13   0   10727    1878   1
   3  13   0   62274    3543   1
  -4 -13   2   -2055    2055  -2
   4  13   0   -2055    2055   1
 -11   0   1   40529    4045   1
  -9   0   1  103688    4787   1
  -7   0   1  285028    6565   1
  -5   0   1  504079   11805   1
  -3   0   1 1005730   22551   1
   1   0   1 1954678   45802   1
   3   0   1 1439701   25315   1
   5   0   1  424765    7289   1
   7   0   1  235450    7356   1
   9   0   1  100648    4108   1
  11   0   1   35545    3528   1
 -11   1   1    2374    2098   1
  10  -1  -4   62544    2708  -2
 -10   1   1   62544    2708   1
  -9   1   1    3555    1297   1
   8  -1  -3  160194    3279  -2
  -8   1   1  160194    3279   1
  -7   1   1     732     477   1
   6  -1  -2  457303    6675  -2
  -6   1   1  457303    6675   1
  -5   1   1     939     258   1
   4  -1  -1  951376   12770  -2
  -4   1   1  951376   12770   1
  -3   1   1    2750     236   1
   2  -1   0  834019   10732  -2
  -2   1   1  834019   10732   1
  -1   1   1    1601     100   1
   1   1   1   92152     920   1
  -2  -1   2 1355175   17374  -2
   2   1   1 1355175   17374   1
   3   1   1   22754     558   1
  -4  -1   3  784626   10605  -2
   4   1   1  784626   10605   1
   5   1   1    -119     271   1
  -6  -1   4  392718    5587  -2
   6   1   1  392718    5587   1
   7   1   1     496     817   1
  -8  -1   5  191384    3973  -2
   8   1   1  191384    3973   1
   9   1   1    3082    1066   1
  10   1   1   52949    2509   1
  11   1   1    -907    1833   1
 -11   2   1   32482    3150   1
  10  -2  -4    2942    1582  -2
 -10   2   1    2942    1582   1
  -9   2   1  118331    2894   1
   8  -2  -3    1963     816  -2
  -8   2   1    1963     816   1
  -7   2   1  220770    5192   1
   6  -2  -2   60087    4357  -2
  -6   2   1   60087    4357   1
  -5   2   1  473321    6325   1
   4  -2  -1   30363     644  -2
  -4   2   1   30363     644   1
  -3   2   1 1276196   16406   1
   2  -2   0  297933    4007  -2
  -2   2   1  297933    4007   1
  -1   2   1 1723225   16205   1
   0  -2   1  179627    1808  -2
   0   2   1  179627    1808   1
   1   2   1  179972    1827   1
  -2  -2   2  302648    4185  -2
   2   2   1  302648    4185   1
   3   2   1 1186737   16447   1
  -4  -2   3     190     343  -2
   4   2   1     190     343   1
   5   2   1  625247    8926   1
  -6  -2   4   62999    4202  -2
   6   2   1   62999    4202   1
   7   2   1  171885    3457   1
  -8  -2   5    1885     963  -2
   8   2   1    1885     963   1
   9   2   1   98262    2751   1
  10   2   1    4366    1581   1
  11   2   1   42124    3546   1
 -11   3   1   -1883    1967   1
  10  -3  -4   60354    2966  -2
 -10   3   1   60354    2966   1
  -9   3   1    2954    1523   1
   8  -3  -3  172816    3835  -2
  -8   3   1  172816    3835   1
  -7   3   1    2848     715   1
   6  -3  -2  278886    4212  -2
  -6   3   1  278886    4212   1
  -5   3   1    5402     391   1
   4  -3  -1  772101   10436  -2
  -4   3   1  772101   10436   1
  -3   3   1    3118     212   1
   2  -3   0 1666339   18067  -2
  -2   3   1 1666339   18067   1
  -1   3   1     681     151   1
   0  -3   1 1908075   20440  -2
   0   3   1 1908075   20440   1
   1   3   1    2242     199   1
  -2  -3   2 1167618   13386  -2
   2   3   1 1167618   13386   1
   3   3   1   32022     697   1
  -4  -3   3  731604    9578  -2
   4   3   1  731604    9578   1
   5   3   1   19675     919   1
  -6  -3   4  292316    4891  -2
   6   3   1  292316    4891   1
   7   3   1    -100     633   1
  -8  -3   5  146004    3458  -2
   8   3   1  146004    3458   1
   9   3   1     372    1224   1
 -10  -3   6   55461    2680  -2
  10   3   1   55461    2680   1
 -11   4   1   24368    5359   1
  10  -4  -4    5034    1852  -2
 -10   4   1    5034    1852   1
  -9   4   1   68903    3393   1
   8  -4  -3    1363     933  -2
  -8   4   1    1363     933   1
  -7   4   1  227970    5666   1
   6  -4  -2   43804    3548  -2
  -6   4   1   43804    3548   1
  -5   4   1  428058    5768   1
   4  -4  -1    4039     263  -2
  -4   4   1    4039     263   1
  -3   4   1  643438    7281   1
   2  -4   0  136236    1784  -2
  -2   4   1  136236    1784   1
  -1   4   1 1461328   15174   1
   0  -4   1    1246     186  -2
   0   4   1    1246     186   1
   1   4   1 1032039   11017   1
  -2  -4   2  150142    2600  -2
   2   4   1  150142    2600   1
   3   4   1  562658    6772   1
  -4  -4   3    5277     394  -2
   4   4   1    5277     394   1
   5   4   1  352548    5755   1
  -6  -4   4   40144    4264  -2
   6   4   1   40144    4264   1
   7   4   1  222445    4077   1
  -8  -4   5    1736    1055  -2
   8   4   1    1736    1055   1
   9   4   1   78875    2672   1
 -10  -4   6    4863    1800  -2
  10   4   1    4863    1800   1
  10  -5  -4   48826    3015  -2
 -10   5   1   48826    3015   1
  -9   5   1    2012    1214   1
   8  -5  -3  115984    2690  -2
  -8   5   1  115984    2690   1
  -7   5   1     -15     857   1
   6  -5  -2  237797    4177  -2
  -6   5   1  237797    4177   1
  -5   5   1    1271     379   1
   4  -5  -1  760231    9387  -2
  -4   5   1  760231    9387   1
  -3   5   1    8646     380   1
   2  -5   0  631712    7368  -2
  -2   5   1  631712    7368   1
  -1   5   1    -252     252   1
   0  -5   1  735916    8125  -2
   0   5   1  735916    8125   1
   1   5   1    2553     271   1
  -2  -5   2  429563    4959  -2
   2   5   1  429563    4959   1
   3   5   1     574     327   1
  -4  -5   3  531538    7118  -2
   4   5   1  531538    7118   1
   5   5   1     632     502   1
  -6  -5   4  252024    4448  -2
   6   5   1  252024    4448   1
   7   5   1    1123     857   1
  -8  -5   5  118005    2980  -2
   8   5   1  118005    2980   1
   9   5   1    1826    1281   1
 -10  -5   6   41312    2646  -2
  10   5   1   41312    2646   1
  10  -6  -4    3235    2035  -2
 -10   6   1    3235    2035   1
  -9   6   1   58386    2714   1
   8  -6  -3     447    1046  -2
  -8   6   1     447    1046   1
  -7   6   1  146321    3222   1
   6  -6  -2   26347    2214  -2
  -6   6   1   26347    2214   1
  -5   6   1  281735    4549   1
   4  -6  -1    -195     376  -2
  -4   6   1    -195     376   1
  -3   6   1  601372    8009   1
   2  -6   0  107770    2465  -2
  -2   6   1  107770    2465   1
  -1   6   1  769807    9792   1
   0  -6   1    -176     334  -2
   0   6   1    -176     334   1
   1   6   1  566706    7075   1
  -2  -6   2  123680    2965  -2
   2   6   1  123680    2965   1
   3   6   1  502322    6533   1
  -4  -6   3      35     385  -2
   4   6   1      35     385   1
   5   6   1  226287    3651   1
  -6  -6   4   24622    1676  -2
   6   6   1   24622    1676   1
   7   6   1  137225    2817   1
  -8  -6   5     -45    1090  -2
   8   6   1     -45    1090   1
   9   6   1   62361    2919   1
 -10  -6   6    1662    2076  -2
  10   6   1    1662    2076   1
  -9   7   1    1075    1558   1
   8  -7  -3   90235    2654  -2
  -8   7   1   90235    2654   1
  -7   7   1    1792    1142   1
   6  -7  -2  176755    3470  -2
  -6   7   1  176755    3470   1
  -5   7   1    1566     592   1
   4  -7  -1  322214    4742  -2
  -4   7   1  322214    4742   1
  -3   7   1     450     470   1
   2  -7   0  524015    7074  -2
  -2   7   1  524015    7074   1
  -1   7   1    -447     447   1
   0  -7   1  733378   10044  -2
   0   7   1  733378   10044   1
   1   7   1    -335     380   1
  -2  -7   2  449714    5926  -2
   2   7   1  449714    5926   1
   3   7   1    -400     400   1
  -4  -7   3  240185    3524  -2
   4   7   1  240185    3524   1
   5   7   1    3039     701   1
  -6  -7   4  153123    2976  -2
   6   7   1  153123    2976   1
   7   7   1     453    1016   1
  -8  -7   5   79653    3616  -2
   8   7   1   79653    3616   1
   9   7   1    -411    2029   1
  -9   8   1   38325    2453   1
   8  -8  -3    1450    1280  -2
  -8   8   1    1450    1280   1
  -7   8   1   97729    2892   1
   6  -8  -2   22137    1455  -2
  -6   8   1   22137    1455   1
  -5   8   1  191643    3676   1
   4  -8  -1     259     641  -2
  -4   8   1     259     641   1
  -3   8   1  270628    4356   1
   2  -8   0   47808    2060  -2
  -2   8   1   47808    2060   1
  -1   8   1  351626    5144   1
   0  -8   1    -437     437  -2
   0   8   1    -437     437   1
   1   8   1  252619    3818   1
  -2  -8   2   50392    2151  -2
   2   8   1   50392    2151   1
   3   8   1  224596    3499   1
  -4  -8   3    -661     661  -2
   4   8   1    -661     661   1
   5   8   1  179908    3307   1
  -6  -8   4   18122    1247  -2
   6   8   1   18122    1247   1
   7   8   1   77390    2573   1
  -8  -8   5    1413    1651  -2
   8   8   1    1413    1651   1
   9   8   1   43204    3156   1
   8  -9  -3   55842    2678  -2
  -8   9   1   55842    2678   1
  -7   9   1     177    1240   1
   6  -9  -2   91594    2490  -2
  -6   9   1   91594    2490   1
  -5   9   1     -96     810   1
   4  -9  -1  229763    3887  -2
  -4   9   1  229763    3887   1
  -3   9   1     383     694   1
   2  -9   0  250700    4326  -2
  -2   9   1  250700    4326   1
  -1   9   1     555     694   1
   0  -9   1  315952    4566  -2
   0   9   1  315952    4566   1
   1   9   1    -387     661   1
  -2  -9   2  197118    3183  -2
   2   9   1  197118    3183   1
   3   9   1       0     678   1
  -4  -9   3  223628    3783  -2
   4   9   1  223628    3783   1
   5   9   1    3000    1503   1
  -6  -9   4   91039    3208  -2
   6   9   1   91039    3208   1
   7   9   1    -124    1433   1
  -8  -9   5   47055    2857  -2
   8   9   1   47055    2857   1
   8 -10  -3   -1012    1729  -2
  -8  10   1   -1012    1729   1
  -7  10   1   56622    2632   1
   6 -10  -2   10414    1580  -2
  -6  10   1   10414    1580   1
  -5  10   1   83735    2226   1
   4 -10  -1     213     914  -2
  -4  10   1     213     914   1
  -3  10   1  171668    2989   1
   2 -10   0   35155    1311  -2
  -2  10   1   35155    1311   1
  -1  10   1  245797    3911   1
   0 -10   1     115     680  -2
   0  10   1     115     680   1
   1  10   1  224749    3771   1
  -2 -10   2   29578    1365  -2
   2  10   1   29578    1365   1
   3  10   1  158576    3744   1
  -4 -10   3     160    1069  -2
   4  10   1     160    1069   1
   5  10   1   82147    3104   1
  -6 -10   4    8627    1895  -2
   6  10   1    8627    1895   1
   7  10   1   50782    3132   1
  -7  11   1     241    1898   1
   6 -11  -2   58068    2892  -2
  -6  11   1   58068    2892   1
  -5  11   1    3483    1627   1
   4 -11  -1   92237    2688  -2
  -4  11   1   92237    2688   1
  -3  11   1     373     937   1
   2 -11   0  114881    2545  -2
  -2  11   1  114881    2545   1
  -1  11   1     904     901   1
   0 -11   1  162434    2864  -2
   0  11   1  162434    2864   1
   1  11   1    -512     853   1
  -2 -11   2  113025    2701  -2
   2  11   1  113025    2701   1
   3  11   1    -401    1042   1
  -4 -11   3   91378    2997  -2
   4  11   1   91378    2997   1
   5  11   1     714    1819   1
  -6 -11   4   56209    3329  -2
   6  11   1   56209    3329   1
  -5  12   1   58438    3056   1
   4 -12  -1     120    1422  -2
  -4  12   1     120    1422   1
  -3  12   1   85804    3311   1
   2 -12   0   13214    1447  -2
  -2  12   1   13214    1447   1
  -1  12   1   90924    2828   1
   0 -12   1      -9    1053  -2
   0  12   1      -9    1053   1
   1  12   1   84691    2579   1
  -2 -12   2   15243    1574  -2
   2  12   1   15243    1574   1
   3  12   1   75696    3586   1
  -4 -12   3   -1693    1693  -2
   4  12   1   -1693    1693   1
   5  12   1   58427    3077   1
   4 -13  -1   52733    3805  -2
  -4  13   1   52733    3805   1
  -3  13   1     440    1794   1
   2 -13   0   80545    3414  -2
  -2  13   1   80545    3414   1
  -1  13   1     239    1362   1
   0 -13   1   93622    3946  -2
   0  13   1   93622    3946   1
   1  13   1     415    1533   1
  -2 -13   2   63354    2815  -2
   2  13   1   63354    2815   1
   3  13   1     681    1751   1
 -10   0   2   68264    4542   1
   8   0  -2  126431    3231  -2
  -8   0   2  126431    3231   1
  -6   0   2  447742    8895   1
   4   0   0 1074475   23179  -2
  -4   0   2 1074475   23179   1
  -2   0   2  419479    7044   1
   0   0   2 2047092   28787  -2
   0   0   2 2047092   28787   1
   2   0   2 2467562   35505   1
  -4   0   4  678341   12995  -2
   4   0   2  678341   12995   1
   6   0   2  293365    6047   1
   8   0   2  212621    6136   1
  10   0   2   57690    8298   1
 -11   1   2   39995    3107   1
  10  -1  -3    6192    1894  -2
 -10   1   2    6192    1894   1
  -9   1   2  101128    3061   1
   8  -1  -2     475     775  -2
  -8   1   2     475     775   1
  -7   1   2  266840    3878   1
   6  -1  -1   92236    2715  -2
  -6   1   2   92236    2715   1
  -5   1   2  491018    6547   1
   4  -1   0   16585     533  -2
  -4   1   2   16585     533   1
  -3   1   2 1086073   13555   1
   2  -1   1  251778    4139  -2
  -2   1   2  251778    4139   1
  -1   1   2 1020539    9098   1
   0  -1   2  182376    1770  -2
   0   1   2  182376    1770   1
   1   1   2  353369    3709   1
  -2  -1   3  214333    3375  -2
   2   1   2  214333    3375   1
   3   1   2 1065029   14797   1
  -4  -1   4    6962     373  -2
   4   1   2    6962     373   1
   5   1   2  593610    8161   1
  -6  -1   5   42909    4164  -2
   6   1   2   42909    4164   1
   7   1   2  213917    4468   1
   8   1   2     340    1078   1
   9   1   2   93307    2785   1
  10   1   2    3435    1570   1
  11   1   2   43561    3109   1
 -11   2   2    2223    2408   1
  10  -2  -3   61518    3183  -2
 -10   2   2   61518    3183   1
  -9   2   2    2755    1147   1
   8  -2  -2  176711    3403  -2
  -8   2   2  176711    3403   1
  -7   2   2    -281     444   1
   6  -2  -1  338800    4876  -2
  -6   2   2  338800    4876   1
  -5   2   2     224     325   1
   4  -2   0  818959   10682  -2
  -4   2   2  818959   10682   1
  -3   2   2     289     205   1
   2  -2   1 1594887   17257  -2
  -2   2   2 1594887   17257   1
  -1   2   2   59275     720   1
   0  -2   2  130932    1642  -2
   0   2   2  130932    1642   1
   1   2   2   62966     973   1
  -2  -2   3 1133443   12937  -2
   2   2   2 1133443   12937   1
   3   2   2    5898     344   1
  -4  -2   4  738455   10426  -2
   4   2   2  738455   10426   1
   5   2   2    1171     399   1
  -6  -2   5  376745    6573  -2
   6   2   2  376745    6573   1
   7   2   2     408     772   1
   8   2   2  153709    3384   1
   9   2   2    1857    1189   1
  10   2   2   53826    2764   1
 -11   3   2   28648    2962   1
  10  -3  -3    5721    2123  -2
 -10   3   2    5721    2123   1
  -9   3   2   93451    3522   1
   8  -3  -2    1923     868  -2
  -8   3   2    1923     868   1
  -7   3   2  236409    4662   1
   6  -3  -1   50053    2726  -2
  -6   3   2   50053    2726   1
  -5   3   2  437753    5871   1
   4  -3   0     985     284  -2
  -4   3   2     985     284   1
  -3   3   2  658368    7624   1
   2  -3   1  205017    3263  -2
  -2   3   2  205017    3263   1
  -1   3   2 1787317   18501   1
   0  -3   2    2962     232  -2
   0   3   2    2962     232   1
   1   3   2 1351830   15444   1
  -2  -3   3  200658    3007  -2
   2   3   2  200658    3007   1
   3   3   2  698778    9155   1
  -4  -3   4     374     211  -2
   4   3   2     374     211   1
   5   3   2  486430    8708   1
  -6  -3   5   43130    2881  -2
   6   3   2   43130    2881   1
   7   3   2  201968    4217   1
   8   3   2    2098     978   1
   9   3   2   81741    2846   1
  10   3   2     851    1548   1
 -11   4   2   -1956    1956   1
  10  -4  -3   56518    3002  -2
 -10   4   2   56518    3002   1
  -9   4   2    1282    1266   1
   8  -4  -2  145262    3068  -2
  -8   4   2  145262    3068   1
  -7   4   2     208     782   1
   6  -4  -1  245097    3664  -2
  -6   4   2  245097    3664   1
  -5   4   2    1004     371   1
   4  -4   0  678166    8627  -2
  -4   4   2  678166    8627   1
  -3   4   2    1422     244   1
   2  -4   1  807209    9092  -2
  -2   4   2  807209    9092   1
  -1   4   2     -36     201   1
   0  -4   2 1178530   12835  -2
   0   4   2 1178530   12835   1
   1   4   2   20479     432   1
  -2  -4   3  880675    9899  -2
   2   4   2  880675    9899   1
   3   4   2   13293     485   1
  -4  -4   4  558937    7706  -2
   4   4   2  558937    7706   1
   5   4   2     -56     559   1
  -6  -4   5  255541    4467  -2
   6   4   2  255541    4467   1
   7   4   2    5027     855   1
   8   4   2  141436    3279   1
   9   4   2    2027    1300   1
  10   4   2   45313    2394   1
  10  -5  -3    3029    1848  -2
 -10   5   2    3029    1848   1
  -9   5   2   63020    2453   1
   8  -5  -2     417    1005  -2
  -8   5   2     417    1005   1
  -7   5   2  165900    3282   1
   6  -5  -1   41610    3195  -2
  -6   5   2   41610    3195   1
  -5   5   2  363071    5001   1
   4  -5   0    -197     258  -2
  -4   5   2    -197     258   1
  -3   5   2  606309    7735   1
   2  -5   1   80402    1358  -2
  -2   5   2   80402    1358   1
  -1   5   2  553611    6175   1
   0  -5   2     879     206  -2
   0   5   2     879     206   1
   1   5   2  514953    6068   1
  -2  -5   3  110880    2231  -2
   2   5   2  110880    2231   1
   3   5   2  570059    7328   1
  -4  -5   4    4996     550  -2
   4   5   2    4996     550   1
   5   5   2  283209    4390   1
  -6  -5   5   27716    2257  -2
   6   5   2   27716    2257   1
   7   5   2  180151    3369   1
  -8  -5   6      27    1018  -2
   8   5   2      27    1018   1
   9   5   2   78734    2866   1
  10   5   2    3200    2058   1
  10  -6  -3   44615    3086  -2
 -10   6   2   44615    3086   1
  -9   6   2    2592    1333   1
   8  -6  -2  101669    2799  -2
  -8   6   2  101669    2799   1
  -7   6   2    -144     956   1
   6  -6  -1  169199    3219  -2
  -6   6   2  169199    3219   1
  -5   6   2    2270     574   1
   4  -6   0  470224    6151  -2
  -4   6   2  470224    6151   1
  -3   6   2    1186     379   1
   2  -6   1  695004    8379  -2
  -2   6   2  695004    8379   1
  -1   6   2     -39     340   1
   0  -6   2  630540    7189  -2
   0   6   2  630540    7189   1
   1   6   2    -195     195   1
  -2  -6   3  632809    7421  -2
   2   6   2  632809    7421   1
   3   6   2    5564     440   1
  -4  -6   4  395223    5422  -2
   4   6   2  395223    5422   1
   5   6   2     545     619   1
  -6  -6   5  183068    3349  -2
   6   6   2  183068    3349   1
   7   6   2     733     868   1
  -8  -6   6   86693    2614  -2
   8   6   2   86693    2614   1
   9   6   2     921    1524   1
  10  -7  -3    -459    4655  -2
 -10   7   2    -459    4655   1
  -9   7   2   52771    2763   1
   8  -7  -2    -536    1244  -2
  -8   7   2    -536    1244   1
  -7   7   2  111026    3016   1
   6  -7  -1   29968    2725  -2
  -6   7   2   29968    2725   1
  -5   7   2  220996    3624   1
   4  -7   0    2489     513  -2
  -4   7   2    2489     513   1
  -3   7   2  321355    4549   1
   2  -7   1   79573    2373  -2
  -2   7   2   79573    2373   1
  -1   7   2  540828    6835   1
   0  -7   2    -305     330  -2
   0   7   2    -305     330   1
   1   7   2  526240    6867   1
  -2  -7   3   65898    1618  -2
   2   7   2   65898    1618   1
   3   7   2  365870    4924   1
  -4  -7   4    1612     538  -2
   4   7   2    1612     538   1
   5   7   2  201975    3562   1
  -6  -7   5   23907    1607  -2
   6   7   2   23907    1607   1
   7   7   2   94576    2658   1
  -8  -7   6    -168    1501  -2
   8   7   2    -168    1501   1
   9   7   2   52006    3173   1
  -9   8   2    -534    1628   1
   8  -8  -2   70274    2492  -2
  -8   8   2   70274    2492   1
  -7   8   2     161    1121   1
   6  -8  -1  144039    3318  -2
  -6   8   2  144039    3318   1
  -5   8   2     969     686   1
   4  -8   0  263342    3925  -2
  -4   8   2  263342    3925   1
  -3   8   2      57     562   1
   2  -8   1  268772    4859  -2
  -2   8   2  268772    4859   1
  -1   8   2    -374     537   1
   0  -8   2  357979    5026  -2
   0   8   2  357979    5026   1
   1   8   2    1217     537   1
  -2  -8   3  269092    3877  -2
   2   8   2  269092    3877   1
   3   8   2      70     571   1
  -4  -8   4  242309    3963  -2
   4   8   2  242309    3963   1
   5   8   2    7054    1447   1
  -6  -8   5  129621    3124  -2
   6   8   2  129621    3124   1
   7   8   2     966    1288   1
  -8  -8   6   68752    3435  -2
   8   8   2   68752    3435   1
   9   8   2    -839    4900   1
   8  -9  -2    -171    1430  -2
  -8   9   2    -171    1430   1
  -7   9   2   67197    2452   1
   6  -9  -1   13075    1338  -2
  -6   9   2   13075    1338   1
  -5   9   2  131255    2698   1
   4  -9   0     456     778  -2
  -4   9   2     456     778   1
  -3   9   2  237791    3774   1
   2  -9   1   35895    1296  -2
  -2   9   2   35895    1296   1
  -1   9   2  241657    3788   1
   0  -9   2    -560     560  -2
   0   9   2    -560     560   1
   1   9   2  202864    3584   1
  -2  -9   3   37100    2147  -2
   2   9   2   37100    2147   1
   3   9   2  219079    3829   1
  -4  -9   4    3502     923  -2
   4   9   2    3502     923   1
   5   9   2  151288    3398   1
  -6  -9   5    7944    1372  -2
   6   9   2    7944    1372   1
   7   9   2   67249    2933   1
  -8  -9   6     862    2535  -2
   8   9   2     862    2535   1
   8 -10  -2   40180    2448  -2
  -8  10   2   40180    2448   1
  -7  10   2    -676    1414   1
   6 -10  -1   74260    3080  -2
  -6  10   2   74260    3080   1
  -5  10   2    1384     987   1
   4 -10   0  137231    2883  -2
  -4  10   2  137231    2883   1
  -3  10   2    1926     756   1
   2 -10   1  183661    3616  -2
  -2  10   2  183661    3616   1
  -1  10   2     509     727   1
   0 -10   2  264672    4067  -2
   0  10   2  264672    4067   1
   1  10   2    1705     919   1
  -2 -10   3  214738    3842  -2
   2  10   2  214738    3842   1
   3  10   2     511     923   1
  -4 -10   4  139221    3337  -2
   4  10   2  139221    3337   1
   5  10   2    -116    1742   1
  -6 -10   5   65441    3348  -2
   6  10   2   65441    3348   1
   7  10   2    1435    2065   1
  -7  11   2   35449    2570   1
   6 -11  -1   10210    2080  -2
  -6  11   2   10210    2080   1
  -5  11   2   74567    2832   1
   4 -11   0    -554    1173  -2
  -4  11   2    -554    1173   1
  -3  11   2   94646    2571   1
   2 -11   1   21616    1309  -2
  -2  11   2   21616    1309   1
  -1  11   2  113379    2623   1
   0 -11   2    -831     831  -2
   0  11   2    -831     831   1
   1  11   2  130407    3173   1
  -2 -11   3   16978    1311  -2
   2  11   2   16978    1311   1
   3  11   2  100750    2863   1
  -4 -11   4      38    1415  -2
   4  11   2      38    1415   1
   5  11   2   66141    3425   1
  -6 -11   5    5077    2159  -2
   6  11   2    5077    2159   1
  -5  12   2     513    1891   1
   4 -12   0   82372    3170  -2
  -4  12   2   82372    3170   1
  -3  12   2      -1    1538   1
   2 -12   1   91679    2778  -2
  -2  12   2   91679    2778   1
  -1  12   2    2463    1300   1
   0 -12   2   84576    3132  -2
   0  12   2   84576    3132   1
   1  12   2    1103    1182   1
  -2 -12   3   73995    2741  -2
   2  12   2   73995    2741   1
   3  12   2    -329    1501   1
  -4 -12   4   72967    3562  -2
   4  12   2   72967    3562   1
   5  12   2    1040    2183   1
   4 -13   0   -1499    1930  -2
  -4  13   2   -1499    1930   1
  -3  13   2   57685    3161   1
   2 -13   1   12077    2013  -2
  -2  13   2   12077    2013   1
  -1  13   2   72779    2955   1
   0 -13   2     815    1701  -2
   0  13   2     815    1701   1
   1  13   2   73879    4155   1
  -2 -13   3    9770    1709  -2
   2  13   2    9770    1709   1
   3  13   2   60980    2823   1
 -11   0   3   40150    4194   1
  -9   0   3   95150    4236   1
  -7   0   3  244272    4551   1
  -5   0   3  499311    9105   1
  -3   0   3 1192663   21047   1
  -1   0   3 1417787   17061   1
   1   0   3 2400867   34533   1
   3   0   3  950719   15044   1
   5   0   3  490621    9585   1
   7   0   3  199905    4995   1
   9   0   3   85789    4236   1
 -11   1   3    2178    2061   1
  10  -1  -2   72018    3258  -2
 -10   1   3   72018    3258   1
  -9   1   3    6092    2035   1
   8  -1  -1  149738    2708  -2
  -8   1   3  149738    2708   1
  -7   1   3    -180     452   1
   6  -1   0  333834    4634  -2
  -6   1   3  333834    4634   1
  -5   1   3    1427     230   1
   4  -1   1 1019493   13211  -2
  -4   1   3 1019493   13211   1
  -3   1   3    3372     254   1
   2  -1   2 1109981   11765  -2
  -2   1   3 1109981   11765   1
  -1   1   3  144189    1918   1
   0  -1   3  899992    9129  -2
   0   1   3  899992    9129   1
   1   1   3   25217     393   1
  -2  -1   4 1514303   17292  -2
   2   1   3 1514303   17292   1
   3   1   3    3250     195   1
  -4  -1   5  727386   10252  -2
   4   1   3  727386   10252   1
   5   1   3    2352     383   1
   6   1   3  294511    4496   1
   7   1   3     808     654   1
   8   1   3  180775    3826   1
   9   1   3      70    1118   1
  10   1   3   59762    2735   1
 -11   2   3   35405    3343   1
  10  -2  -2    6150    2256  -2
 -10   2   3    6150    2256   1
  -9   2   3   92850    3128   1
   8  -2  -1    1328     759  -2
  -8   2   3    1328     759   1
  -7   2   3  235069    3607   1
   6  -2   0   62906    3012  -2
  -6   2   3   62906    3012   1
  -5   2   3  473900    6349   1
   4  -2   1    1149     267  -2
  -4   2   3    1149     267   1
  -3   2   3  836648    9621   1
   2  -2   2  228990    2814  -2
  -2   2   3  228990    2814   1
  -1   2   3 1279446   15017   1
   0  -2   3    5762     280  -2
   0   2   3    5762     280   1
   1   2   3 1086528   11828   1
  -2  -2   4  257040    4041  -2
   2   2   3  257040    4041   1
   3   2   3  514913    6369   1
  -4  -2   5    2531     427  -2
   4   2   3    2531     427   1
   5   2   3  607469    8720   1
   6   2   3   24571    4168   1
   7   2   3  218170    4303   1
   8   2   3    2267     988   1
   9   2   3   75080    2783   1
  10   2   3    2934    1755   1
 -11   3   3    1121    2094   1
  10  -3  -2   52435    2796  -2
 -10   3   3   52435    2796   1
  -9   3   3    6239    1997   1
   8  -3  -1  162274    3364  -2
  -8   3   3  162274    3364   1
  -7   3   3    1373     543   1
   6  -3   0  306690    4421  -2
  -6   3   3  306690    4421   1
  -5   3   3     678     277   1
   4  -3   1  565301    7236  -2
  -4   3   3  565301    7236   1
  -3   3   3     569     242   1
   2  -3   2 1098274   11973  -2
  -2   3   3 1098274   11973   1
  -1   3   3    2664     262   1
   0  -3   3 1590499   17285  -2
   0   3   3 1590499   17285   1
   1   3   3  150488    2029   1
  -2  -3   4 1388374   16322  -2
   2   3   3 1388374   16322   1
   3   3   3   16198     437   1
  -4  -3   5  615953    8441  -2
   4   3   3  615953    8441   1
   5   3   3    -119     583   1
   6   3   3  265153    4771   1
   7   3   3    7041    1208   1
   8   3   3  137115    3364   1
   9   3   3    1017    1308   1
  10   3   3   44927    2396   1
 -11   4   3   31706    2654   1
  10  -4  -2    5252    1812  -2
 -10   4   3    5252    1812   1
  -9   4   3   64352    3038   1
   8  -4  -1    2384     995  -2
  -8   4   3    2384     995   1
  -7   4   3  184747    3405   1
   6  -4   0   51608    2497  -2
  -6   4   3   51608    2497   1
  -5   4   3  457096    6181   1
   4  -4   1    2273     294  -2
  -4   4   3    2273     294   1
  -3   4   3  484242    6038   1
   2  -4   2  160281    3349  -2
  -2   4   3  160281    3349   1
  -1   4   3  659424    7887   1
   0  -4   3    2726     287  -2
   0   4   3    2726     287   1
   1   4   3 1620213   19044   1
  -2  -4   4  121892    2713  -2
   2   4   3  121892    2713   1
   3   4   3  635906    7865   1
  -4  -4   5    6156     481  -2
   4   4   3    6156     481   1
   5   4   3  302989    4866   1
  -6  -4   6   25885    2630  -2
   6   4   3   25885    2630   1
   7   4   3  177008    3540   1
   8   4   3    2426    1105   1
   9   4   3   76828    2603   1
  10   4   3    2151    1669   1
  10  -5  -2   51942    3050  -2
 -10   5   3   51942    3050   1
  -9   5   3    5567    1388   1
   8  -5  -1  126166    3057  -2
  -8   5   3  126166    3057   1
  -7   5   3    3051     946   1
   6  -5   0  165403    2684  -2
  -6   5   3  165403    2684   1
  -5   5   3    2062     385   1
   4  -5   1  523735    6571  -2
  -4   5   3  523735    6571   1
  -3   5   3    1732     344   1
   2  -5   2  606651    7308  -2
  -2   5   3  606651    7308   1
  -1   5   3     291     294   1
   0  -5   3  575107    6938  -2
   0   5   3  575107    6938   1
   1   5   3     -24     299   1
  -2  -5   4  531084    6624  -2
   2   5   3  531084    6624   1
   3   5   3   16709     532   1
  -4  -5   5  534106    7745  -2
   4   5   3  534106    7745   1
   5   5   3    1610     639   1
  -6  -5   6  218555    3824  -2
   6   5   3  218555    3824   1
   7   5   3    2105     900   1
   8   5   3  105391    2687   1
   9   5   3    1194    1521   1
  10   5   3   40102    2557   1
  10  -6  -2    2758    2116  -2
 -10   6   3    2758    2116   1
  -9   6   3   57365    2665   1
   8  -6  -1     244    1099  -2
  -8   6   3     244    1099   1
  -7   6   3  129192    3021   1
   6  -6   0   32093    2384  -2
  -6   6   3   32093    2384   1
  -5   6   3  216200    3458   1
   4  -6   1    1098     364  -2
  -4   6   3    1098     364   1
  -3   6   3  450722    5404   1
   2  -6   2  117273    2360  -2
  -2   6   3  117273    2360   1
  -1   6   3  569535    7372   1
   0  -6   3    3248     410  -2
   0   6   3    3248     410   1
   1   6   3  623072    7796   1
  -2  -6   4  102041    3019  -2
   2   6   3  102041    3019   1
   3   6   3  525344    7353   1
  -4  -6   5     646     319  -2
   4   6   3     646     319   1
   5   6   3  267781    4452   1
  -6  -6   6   25301    1174  -2
   6   6   3   25301    1174   1
   7   6   3  108209    2629   1
   8   6   3    -607    1278   1
   9   6   3   55040    2708   1
  10  -7  -2   28809    6162  -2
 -10   7   3   28809    6162   1
  -9   7   3    3965    1736   1
   8  -7  -1   80214    2910  -2
  -8   7   3   80214    2910   1
  -7   7   3     856    1168   1
   6  -7   0  158082    3348  -2
  -6   7   3  158082    3348   1
  -5   7   3     656     564   1
   4  -7   1  230768    3322  -2
  -4   7   3  230768    3322   1
  -3   7   3     -69     437   1
   2  -7   2  352561    4915  -2
  -2   7   3  352561    4915   1
  -1   7   3    -255     350   1
   0  -7   3  613923    7701  -2
   0   7   3  613923    7701   1
   1   7   3    1503     387   1
  -2  -7   4  560881    7321  -2
   2   7   3  560881    7321   1
   3   7   3    1832     537   1
  -4  -7   5  271835    4287  -2
   4   7   3  271835    4287   1
   5   7   3    3438     869   1
  -6  -7   6  146522    3125  -2
   6   7   3  146522    3125   1
   7   7   3    2329    1154   1
   8   7   3   71944    3063   1
   9   7   3   -1168    2213   1
  -9   8   3   36527    2400   1
   8  -8  -1   -1318    1318  -2
  -8   8   3   -1318    1318   1
  -7   8   3   79761    2634   1
   6  -8   0   18137    1587  -2
  -6   8   3   18137    1587   1
  -5   8   3  177203    3029   1
   4  -8   1    1170     629  -2
  -4   8   3    1170     629   1
  -3   8   3  206442    3279   1
   2  -8   2   54009    1862  -2
  -2   8   3   54009    1862   1
  -1   8   3  261810    3995   1
   0  -8   3    -597     597  -2
   0   8   3    -597     597   1
   1   8   3  303722    4513   1
  -2  -8   4   39263    1675  -2
   2   8   3   39263    1675   1
   3   8   3  210537    3494   1
  -4  -8   5    1432     673  -2
   4   8   3    1432     673   1
   5   8   3  188143    3888   1
  -6  -8   6   11635    1273  -2
   6   8   3   11635    1273   1
   7   8   3   88224    3109   1
   8   8   3    1722    1819   1
   8  -9  -1   47579    2238  -2
  -8   9   3   47579    2238   1
  -7   9   3   -1193    1193   1
   6  -9   0   85587    2592  -2
  -6   9   3   85587    2592   1
  -5   9   3    1720    1006   1
   4  -9   1  202971    3516  -2
  -4   9   3  202971    3516   1
  -3   9   3    -635     635   1
   2  -9   2  203232    3441  -2
  -2   9   3  203232    3441   1
  -1   9   3    -369     650   1
   0  -9   3  282385    4324  -2
   0   9   3  282385    4324   1
   1   9   3    1093     827   1
  -2  -9   4  221680    3862  -2
   2   9   3  221680    3862   1
   3   9   3     971     848   1
  -4  -9   5  206016    4079  -2
   4   9   3  206016    4079   1
   5   9   3    1315    1163   1
  -6  -9   6   88353    3049  -2
   6   9   3   88353    3049   1
   7   9   3    3289    1563   1
   8   9   3   47700    3712   1
   8 -10  -1    -782    1666  -2
  -8  10   3    -782    1666   1
  -7  10   3   50604    2513   1
   6 -10   0    9707    2541  -2
  -6  10   3    9707    2541   1
  -5  10   3   82479    2933   1
   4 -10   1    -938     938  -2
  -4  10   3    -938     938   1
  -3  10   3  146143    2782   1
   2 -10   2   38435    2261  -2
  -2  10   3   38435    2261   1
  -1  10   3  192289    3432   1
   0 -10   3    -768     821  -2
   0  10   3    -768     821   1
   1  10   3  232549    4265   1
  -2 -10   4   28061    1411  -2
   2  10   3   28061    1411   1
   3  10   3  173408    3651   1
  -4 -10   5    1502    1223  -2
   4  10   3    1502    1223   1
   5  10   3   80495    3465   1
  -6 -10   6   10173    1966  -2
   6  10   3   10173    1966   1
   7  10   3   52392    3294   1
  -7  11   3    -274    1832   1
   6 -11   0   51558    2582  -2
  -6  11   3   51558    2582   1
  -5  11   3    1791    1306   1
   4 -11   1   92563    2968  -2
  -4  11   3   92563    2968   1
  -3  11   3    -984    1428   1
   2 -11   2  105837    2924  -2
  -2  11   3  105837    2924   1
  -1  11   3     535     996   1
   0 -11   3  136011    2877  -2
   0  11   3  136011    2877   1
   1  11   3    -528    1007   1
  -2 -11   4  126231    3025  -2
   2  11   3  126231    3025   1
   3  11   3    -900    1073   1
  -4 -11   5   82687    3686  -2
   4  11   3   82687    3686   1
   5  11   3    -934    1974   1
  -6 -11   6   51838    3226  -2
   6  11   3   51838    3226   1
  -5  12   3   57407    4423   1
   4 -12   1   -1324    1657  -2
  -4  12   3   -1324    1657   1
  -3  12   3   85153    4053   1
   2 -12   2   12697    1502  -2
  -2  12   3   12697    1502   1
  -1  12   3   84580    3339   1
   0 -12   3    -260    1142  -2
   0  12   3    -260    1142   1
   1  12   3   83086    2706   1
  -2 -12   4   15443    1666  -2
   2  12   3   15443    1666   1
   3  12   3   69266    2972   1
  -4 -12   5    2172    1813  -2
   4  12   3    2172    1813   1
   5  12   3   51527    3329   1
   4 -13   1   54945    4409  -2
  -4  13   3   54945    4409   1
  -3  13   3    1070    1767   1
   2 -13   2   66796    3164  -2
  -2  13   3   66796    3164   1
  -1  13   3    1306    1583   1
   0 -13   3   97766    3919  -2
   0  13   3   97766    3919   1
   1  13   3    2144    1476   1
  -2 -13   4   59466    2504  -2
   2  13   3   59466    2504   1
   3  13   3    1057    2173   1
 -10   0   4   69328    4589   1
   8   0   0  154355    3749  -2
  -8   0   4  154355    3749   1
  -6   0   4  267186    4847   1
   4   0   2 1036438   16443  -2
  -4   0   4 1036438   16443   1
  -2   0   4 1186307   17028   1
   0   0   4 3086268   48616  -2
   0   0   4 3086268   48616   1
   2   0   4 1353669   20320   1
   4   0   4  866005   15445   1
   6   0   4  195333    5264   1
   8   0   4  136939    5088   1
  10   0   4   59931    4165   1
 -11   1   4   31959    3112   1
  10  -1  -1    6795    1778  -2
 -10   1   4    6795    1778   1
  -9   1   4   95486    2959   1
   8  -1   0    2335     639  -2
  -8   1   4    2335     639   1
  -7   1   4  224811    3324   1
   6  -1   1   75276    1950  -2
  -6   1   4   75276    1950   1
  -5   1   4  431772    5610   1
   4  -1   2    6574     358  -2
  -4   1   4    6574     358   1
  -3   1   4  951711   11921   1
   2  -1   3  267751    4712  -2
  -2   1   4  267751    4712   1
  -1   1   4 1744987   19894   1
   0  -1   4    5040     214  -2
   0   1   4    5040     214   1
   1   1   4 1554645   17682   1
  -2  -1   5  182027    3563  -2
   2   1   4  182027    3563   1
   3   1   4  577743    6726   1
   4   1   4    7105     330   1
   5   1   4  473054    7162   1
   6   1   4   27592    3431   1
   7   1   4  224854    4077   1
   8   1   4     839    1062   1
   9   1   4   76007    2705   1
  10   1   4    2751    1518   1
 -11   2   4     651    2115   1
  10  -2  -1   53415    3167  -2
 -10   2   4   53415    3167   1
  -9   2   4    7464    2941   1
   8  -2   0  156654    3074  -2
  -8   2   4  156654    3074   1
  -7   2   4    3154     551   1
   6  -2   1  325317    4359  -2
  -6   2   4  325317    4359   1
  -5   2   4     825     369   1
   4  -2   2  671090    8504  -2
  -4   2   4  671090    8504   1
  -3   2   4   17877     465   1
   2  -2   3 1398907   15581  -2
  -2   2   4 1398907   15581   1
  -1   2   4   12604     351   1
   0  -2   4 1379071   16174  -2
   0   2   4 1379071   16174   1
   1   2   4   24455     483   1
  -2  -2   5  717522    8529  -2
   2   2   4  717522    8529   1
   3   2   4     730     245   1
  -4  -2   6  624650    7981  -2
   4   2   4  624650    7981   1
   5   2   4    1344     476   1
   6   2   4  288440    4657   1
   7   2   4    2227     747   1
   8   2   4  133937    3191   1
   9   2   4    -592    1261   1
  10   2   4   45259    2555   1
 -11   3   4   32340    3042   1
  10  -3  -1    5883    1712  -2
 -10   3   4    5883    1712   1
  -9   3   4   71729    3001   1
   8  -3   0      90     891  -2
  -8   3   4      90     891   1
  -7   3   4  180924    3143   1
   6  -3   1   52747    2853  -2
  -6   3   4   52747    2853   1
  -5   3   4  543189    7516   1
   4  -3   2    1268     237  -2
  -4   3   4    1268     237   1
  -3   3   4  601487    7016   1
   2  -3   3  234944    3406  -2
  -2   3   4  234944    3406   1
  -1   3   4  959637   11685   1
   0  -3   4    4374     299  -2
   0   3   4    4374     299   1
   1   3   4 2070360   24972   1
  -2  -3   5  165741    5075  -2
   2   3   4  165741    5075   1
   3   3   4  590301    7543   1
  -4  -3   6    1468     424  -2
   4   3   4    1468     424   1
   5   3   4  327989    5185   1
   6   3   4   20956    2732   1
   7   3   4  182601    3747   1
   8   3   4     -56    1201   1
   9   3   4   71775    2733   1
  10   3   4     392    1662   1
 -11   4   4   -1187    2254   1
  10  -4  -1   47335    2764  -2
 -10   4   4   47335    2764   1
  -9   4   4    4377    1975   1
   8  -4   0  141742    3213  -2
  -8   4   4  141742    3213   1
  -7   4   4    2005     661   1
   6  -4   1  252809    3803  -2
  -6   4   4  252809    3803   1
  -5   4   4    4157     405   1
   4  -4   2  564443    6825  -2
  -4   4   4  564443    6825   1
  -3   4   4    4943     333   1
   2  -4   3  653341    7379  -2
  -2   4   4  653341    7379   1
  -1   4   4   23222     652   1
   0  -4   4 1278900   14317  -2
   0   4   4 1278900   14317   1
   1   4   4   23289     645   1
  -2  -4   5  650493    8048  -2
   2   4   4  650493    8048   1
   3   4   4   11121     551   1
  -4  -4   6  574968    8299  -2
   4   4   4  574968    8299   1
   5   4   4     344     604   1
   6   4   4  186346    3292   1
   7   4   4     588     919   1
   8   4   4  112499    2851   1
   9   4   4    1785    1455   1
  10   4   4   40326    2579   1
  10  -5  -1    4363    1903  -2
 -10   5   4    4363    1903   1
  -9   5   4   59047    2515   1
   8  -5   0     919    1058  -2
  -8   5   4     919    1058   1
  -7   5   4  156000    3139   1
   6  -5   1   43252    2358  -2
  -6   5   4   43252    2358   1
  -5   5   4  286141    4207   1
   4  -5   2    1895     391  -2
  -4   5   4    1895     391   1
  -3   5   4  571095    7125   1
   2  -5   3   96303    1860  -2
  -2   5   4   96303    1860   1
  -1   5   4  496015    6475   1
   0  -5   4      35     239  -2
   0   5   4      35     239   1
   1   5   4  485790    6329   1
  -2  -5   5  112110    2644  -2
   2   5   4  112110    2644   1
   3   5   4  448800    5885   1
  -4  -5   6    6512     755  -2
   4   5   4    6512     755   1
   5   5   4  277942    4816   1
   6   5   4   22331    1342   1
   7   5   4  143288    3318   1
   8   5   4     266    1221   1
   9   5   4   52709    2677   1
  10  -6  -1   31176    2877  -2
 -10   6   4   31176    2877   1
  -9   6   4    1797    1408   1
   8  -6   0  104392    2840  -2
  -8   6   4  104392    2840   1
  -7   6   4     389     906   1
   6  -6   1  172343    3289  -2
  -6   6   4  172343    3289   1
  -5   6   4     664     607   1
   4  -6   2  317261    4325  -2
  -4   6   4  317261    4325   1
  -3   6   4     451     397   1
   2  -6   3  571007    7407  -2
  -2   6   4  571007    7407   1
  -1   6   4    -378     378   1
   0  -6   4  706617    9058  -2
   0   6   4  706617    9058   1
   1   6   4     528     387   1
  -2  -6   5  409713    5427  -2
   2   6   4  409713    5427   1
   3   6   4    7552     580   1
  -4  -6   6  359721    5706  -2
   4   6   4  359721    5706   1
   5   6   4     214     794   1
   6   6   4  178233    3697   1
   7   6   4     810     961   1
   8   6   4   68262    2749   1
   9   6   4      38    1771   1
  -9   7   4   45470    2599   1
   8  -7   0    -843    1292  -2
  -8   7   4    -843    1292   1
  -7   7   4  102228    2997   1
   6  -7   1   23015    1648  -2
  -6   7   4   23015    1648   1
  -5   7   4  202957    3271   1
   4  -7   2    1327     475  -2
  -4   7   4    1327     475   1
  -3   7   4  248858    3628   1
   2  -7   3  102329    2934  -2
  -2   7   4  102329    2934   1
  -1   7   4  418940    5588   1
   0  -7   4    5534     513  -2
   0   7   4    5534     513   1
   1   7   4  537062    7024   1
  -2  -7   5   58946    1786  -2
   2   7   4   58946    1786   1
   3   7   4  287973    4332   1
  -4  -7   6    -584     584  -2
   4   7   4    -584     584   1
   5   7   4  184419    3585   1
   6   7   4   22367    1582   1
   7   7   4   88443    2982   1
   8   7   4    2691    1731   1
   9   7   4   40071    2899   1
  -9   8   4    1616    1629   1
   8  -8   0   52846    2229  -2
  -8   8   4   52846    2229   1
  -7   8   4   -1109    1125   1
   6  -8   1  113350    2414  -2
  -6   8   4  113350    2414   1
  -5   8   4     772     832   1
   4  -8   2  246925    3866  -2
  -4   8   4  246925    3866   1
  -3   8   4    2653     741   1
   2  -8   3  216993    3414  -2
  -2   8   4  216993    3414   1
  -1   8   4    -430     558   1
   0  -8   4  353318    5216  -2
   0   8   4  353318    5216   1
   1   8   4     264     601   1
  -2  -8   5  227820    3877  -2
   2   8   4  227820    3877   1
   3   8   4    -267     687   1
  -4  -8   6  191600    3600  -2
   4   8   4  191600    3600   1
   5   8   4    4626    1195   1
  -6  -8   7  102209    2966  -2
   6   8   4  102209    2966   1
   7   8   4    -422    1420   1
   8   8   4   61388    3249   1
   8  -9   0   -1661    1661  -2
  -8   9   4   -1661    1661   1
  -7   9   4   60458    2518   1
   6  -9   1   12010    1353  -2
  -6   9   4   12010    1353   1
  -5   9   4  102264    2536   1
   4  -9   2    -184     836  -2
  -4   9   4    -184     836   1
  -3   9   4  208182    3743   1
   2  -9   3   39859    1894  -2
  -2   9   4   39859    1894   1
  -1   9   4  249392    3820   1
   0  -9   4    -771     771  -2
   0   9   4    -771     771   1
   1   9   4  213551    3928   1
  -2  -9   5   39166    3070  -2
   2   9   4   39166    3070   1
   3   9   4  152858    3268   1
  -4  -9   6    2491     942  -2
   4   9   4    2491     942   1
   5   9   4  120922    3408   1
  -6  -9   7    5621    1555  -2
   6   9   4    5621    1555   1
   7   9   4   68447    3182   1
  -7  10   4    -493    1716   1
   6 -10   1   62525    2990  -2
  -6  10   4   62525    2990   1
  -5  10   4    -417    1152   1
   4 -10   2  118887    2800  -2
  -4  10   4  118887    2800   1
  -3  10   4     415     866   1
   2 -10   3  166563    3570  -2
  -2  10   4  166563    3570   1
  -1  10   4     627     881   1
   0 -10   4  250266    4230  -2
   0  10   4  250266    4230   1
   1  10   4    -249     915   1
  -2 -10   5  178288    3744  -2
   2  10   4  178288    3744   1
   3  10   4    2936    1074   1
  -4 -10   6  126428    3839  -2
   4  10   4  126428    3839   1
   5  10   4   -1201    1826   1
  -6 -10   7   50014    2764  -2
   6  10   4   50014    2764   1
   7  10   4    2498    2213   1
   6 -11   1   11853    2147  -2
  -6  11   4   11853    2147   1
  -5  11   4   66270    3636   1
   4 -11   2    -705    1369  -2
  -4  11   4    -705    1369   1
  -3  11   4   89451    2816   1
   2 -11   3   21695    1441  -2
  -2  11   4   21695    1441   1
  -1  11   4  119568    4558   1
   0 -11   4    -868    1063  -2
   0  11   4    -868    1063   1
   1  11   4  119748    2777   1
  -2 -11   5   14754    1414  -2
   2  11   4   14754    1414   1
   3  11   4   90696    2952   1
  -4 -11   6    -405    1864  -2
   4  11   4    -405    1864   1
   5  11   4   53860    3216   1
  -6 -11   7    6901    2380  -2
   6  11   4    6901    2380   1
  -5  12   4    -809    1769   1
   4 -12   2   75712    3594  -2
  -4  12   4   75712    3594   1
  -3  12   4    -672    1816   1
   2 -12   3   92440    3494  -2
  -2  12   4   92440    3494   1
  -1  12   4    1410    1276   1
   0 -12   4  104327    3192  -2
   0  12   4  104327    3192   1
   1  12   4     947    1297   1
  -2 -12   5   69023    2722  -2
   2  12   4   69023    2722   1
   3  12   4     853    1796   1
  -4 -12   6   57439    3265  -2
   4  12   4   57439    3265   1
  -3  13   4   54696    2915   1
   2 -13   3    9808    1907  -2
  -2  13   4    9808    1907   1
  -1  13   4   74974    3360   1
   0 -13   4    -192    1438  -2
   0  13   4    -192    1438   1
   1  13   4   74137    3253   1
  -2 -13   5    9676    1921  -2
   2  13   4    9676    1921   1
 -11   0   5   32059    3779   1
  -9   0   5   89133    4233   1
  -7   0   5  255262    5118   1
  -5   0   5  386178    6365   1
  -3   0   5  743037   11845   1
  -1   0   5 1525687   21879   1
   1   0   5 1251871   19707   1
   3   0   5  810946   14512   1
   5   0   5  358068    7279   1
   7   0   5  183066    7522   1
   9   0   5   71532    3515   1
 -11   1   5    -514    2355   1
  10  -1   0   64685    3135  -2
 -10   1   5   64685    3135   1
  -9   1   5    5947    2032   1
   8  -1   1  162519    2920  -2
  -8   1   5  162519    2920   1
  -7   1   5      64     449   1
   6  -1   2  282567    3848  -2
  -6   1   5  282567    3848   1
  -5   1   5     461     372   1
   4  -1   3  676134    8584  -2
  -4   1   5  676134    8584   1
  -3   1   5   23924     530   1
   2  -1   4  992599   10811  -2
  -2   1   5  992599   10811   1
  -1   1   5   15086     345   1
   0  -1   5 1397963   16613  -2
   0   1   5 1397963   16613   1
   1   1   5    2678     251   1
  -2  -1   6  541795    6152  -2
   2   1   5  541795    6152   1
   3   1   5     603     262   1
   4   1   5  683344    8213   1
   5   1   5     984     441   1
   6   1   5  259936    4527   1
   7   1   5     609     726   1
   8   1   5  122842    2890   1
   9   1   5    -629    1276   1
  10   1   5   48135    2338   1
 -11   2   5   37016    3351   1
  10  -2   0    6305    2203  -2
 -10   2   5    6305    2203   1
  -9   2   5   84187    2693   1
   8  -2   1     829     883  -2
  -8   2   5     829     883   1
  -7   2   5  184163    3226   1
   6  -2   2   62149    3275  -2
  -6   2   5   62149    3275   1
  -5   2   5  447472    6508   1
   4  -2   3     465     335  -2
  -4   2   5     465     335   1
  -3   2   5  747248    9157   1
   2  -2   4  129111    1743  -2
  -2   2   5  129111    1743   1
  -1   2   5  948834   10918   1
   0  -2   5    2249     214  -2
   0   2   5    2249     214   1
   1   2   5  685664    8150   1
  -2  -2   6  138736    3879  -2
   2   2   5  138736    3879   1
   3   2   5  527872    6958   1
   4   2   5     460     329   1
   5   2   5  310380    4921   1
   6   2   5   18632    2089   1
   7   2   5  211998    3783   1
   8   2   5     525    1186   1
   9   2   5   68596    2668   1
  10   2   5    3164    1797   1
 -11   3   5     109    2146   1
  10  -3   0   45338    2744  -2
 -10   3   5   45338    2744   1
  -9   3   5    3235    1372   1
   8  -3   1  139129    3329  -2
  -8   3   5  139129    3329   1
  -7   3   5     838     607   1
   6  -3   2  283865    4591  -2
  -6   3   5  283865    4591   1
  -5   3   5    1740     500   1
   4  -3   3  577382    7430  -2
  -4   3   5  577382    7430   1
  -3   3   5      83     233   1
   2  -3   4  895297   12459  -2
  -2   3   5  895297   12459   1
  -1   3   5   49503     809   1
   0  -3   5 1124618   13695  -2
   0   3   5 1124618   13695   1
   1   3   5   13750     445   1
  -2  -3   6  666240    8750  -2
   2   3   5  666240    8750   1
   3   3   5    1139     315   1
   4   3   5  561396    7784   1
   5   3   5     793     536   1
   6   3   5  208595    3602   1
   7   3   5    -653     761   1
   8   3   5  105926    2953   1
   9   3   5    1349    1499   1
  10   3   5   41751    2628   1
  10  -4   0    5531    1901  -2
 -10   4   5    5531    1901   1
  -9   4   5   74930    3792   1
   8  -4   1     829     939  -2
  -8   4   5     829     939   1
  -7   4   5  140220    2546   1
   6  -4   2   37392    2720  -2
  -6   4   5   37392    2720   1
  -5   4   5  400507    6195   1
   4  -4   3    3001     401  -2
  -4   4   5    3001     401   1
  -3   4   5  656214    8128   1
   2  -4   4  111701    1593  -2
  -2   4   5  111701    1593   1
  -1   4   5  550310    7300   1
   0  -4   5    1440     267  -2
   0   4   5    1440     267   1
   1   4   5  646543    8265   1
  -2  -4   6   93239    2129  -2
   2   4   5   93239    2129   1
   3   4   5  591877    8165   1
  -4  -4   7    6387     556  -2
   4   4   5    6387     556   1
   5   4   5  229581    3849   1
   6   4   5   22648    1681   1
   7   4   5  134066    3065   1
   8   4   5    -287    1257   1
   9   4   5   65374    2880   1
  10  -5   0   34235    2545  -2
 -10   5   5   34235    2545   1
  -9   5   5    3379    1399   1
   8  -5   1  128432    3334  -2
  -8   5   5  128432    3334   1
  -7   5   5    1974     713   1
   6  -5   2  195445    3401  -2
  -6   5   5  195445    3401   1
  -5   5   5    2650     592   1
   4  -5   3  460913    6492  -2
  -4   5   5  460913    6492   1
  -3   5   5    1967     256   1
   2  -5   4  611026    9207  -2
  -2   5   5  611026    9207   1
  -1   5   5    1196     342   1
   0  -5   5  701426    8667  -2
   0   5   5  701426    8667   1
   1   5   5   20419     649   1
  -2  -5   6  190006    2631  -2
   2   5   5  190006    2631   1
   3   5   5    8004     547   1
  -4  -5   7  390887    6141  -2
   4   5   5  390887    6141   1
   5   5   5    3948     808   1
   6   5   5  215772    4052   1
   7   5   5      21    1102   1
   8   5   5   88560    3203   1
   9   5   5     438    1768   1
  10  -6   0    3249    2184  -2
 -10   6   5    3249    2184   1
  -9   6   5   46406    2654   1
   8  -6   1    1475    1303  -2
  -8   6   5    1475    1303   1
  -7   6   5  149743    3283   1
   6  -6   2   26967    2480  -2
  -6   6   5   26967    2480   1
  -5   6   5  220896    3463   1
   4  -6   3     813     485  -2
  -4   6   5     813     485   1
  -3   6   5  434689    6149   1
   2  -6   4   81108    2012  -2
  -2   6   5   81108    2012   1
  -1   6   5  582121    8677   1
   0  -6   5    9735     631  -2
   0   6   5    9735     631   1
   1   6   5  370320    4971   1
  -2  -6   6   66153    2154  -2
   2   6   5   66153    2154   1
   3   6   5  331120    4696   1
  -4  -6   7    2559     740  -2
   4   6   5    2559     740   1
   5   6   5  208008    3906   1
   6   6   5   20976    2306   1
   7   6   5  104167    3057   1
   8   6   5   -1128    1576   1
   9   6   5   41929    2920   1
  -9   7   5    4402    1703   1
   8  -7   1   71403    2816  -2
  -8   7   5   71403    2816   1
  -7   7   5    1054    1093   1
   6  -7   2  162727    3309  -2
  -6   7   5  162727    3309   1
  -5   7   5    1285     649   1
   4  -7   3  273527    4128  -2
  -4   7   5  273527    4128   1
  -3   7   5     -21     553   1
   2  -7   4  314014    4462  -2
  -2   7   5  314014    4462   1
  -1   7   5    -321     475   1
   0  -7   5  484497    6875  -2
   0   7   5  484497    6875   1
   1   7   5    1397     501   1
  -2  -7   6  376994    5507  -2
   2   7   5  376994    5507   1
   3   7   5     952     672   1
  -4  -7   7  218869    4242  -2
   4   7   5  218869    4242   1
   5   7   5    2288    1003   1
   6   7   5  112464    3092   1
   7   7   5     267    1611   1
   8   7   5   67226    3737   1
  -9   8   5   36993    2554   1
   8  -8   1      24    1629  -2
  -8   8   5      24    1629   1
  -7   8   5   72358    2637   1
   6  -8   2   17680    1401  -2
  -6   8   5   17680    1401   1
  -5   8   5  157697    3048   1
   4  -8   3    -453     727  -2
  -4   8   5    -453     727   1
  -3   8   5  239853    3905   1
   2  -8   4   45959    1808  -2
  -2   8   5   45959    1808   1
  -1   8   5  254826    3684   1
   0  -8   5     109     588  -2
   0   8   5     109     588   1
   1   8   5  216328    3460   1
  -2  -8   6   39014    1821  -2
   2   8   5   39014    1821   1
   3   8   5  159125    3007   1
  -4  -8   7     898     865  -2
   4   8   5     898     865   1
   5   8   5  126339    3193   1
   6   8   5    7599    1391   1
   7   8   5   72252    3347   1
   8   8   5     706    1853   1
   8  -9   1   47232    2784  -2
  -8   9   5   47232    2784   1
  -7   9   5   -1401    1401   1
   6  -9   2   70396    2236  -2
  -6   9   5   70396    2236   1
  -5   9   5    -254    1044   1
   4  -9   3  193213    3427  -2
  -4   9   5  193213    3427   1
  -3   9   5    1312     806   1
   2  -9   4  217540    4068  -2
  -2   9   5  217540    4068   1
  -1   9   5     182     737   1
   0  -9   5  258259    4409  -2
   0   9   5  258259    4409   1
   1   9   5    -521     786   1
  -2  -9   6  142066    3124  -2
   2   9   5  142066    3124   1
   3   9   5     188     941   1
  -4  -9   7  166102    3823  -2
   4   9   5  166102    3823   1
   5   9   5    1725    1266   1
   6   9   5   70962    3104   1
   7   9   5    1522    1975   1
  -7  10   5   53519    3097   1
   6 -10   2    7549    1740  -2
  -6  10   5    7549    1740   1
  -5  10   5   68456    2376   1
   4 -10   3    -994     994  -2
  -4  10   5    -994     994   1
  -3  10   5  126074    3348   1
   2 -10   4   32301    2322  -2
  -2  10   5   32301    2322   1
  -1  10   5  186353    4282   1
   0 -10   5    1426     888  -2
   0  10   5    1426     888   1
   1  10   5  169640    3424   1
  -2 -10   6   23835    1937  -2
   2  10   5   23835    1937   1
   3  10   5  132678    3123   1
  -4 -10   7     741    1557  -2
   4  10   5     741    1557   1
   5  10   5   73052    3198   1
   6  10   5    7222    1904   1
   6 -11   2   52063    3509  -2
  -6  11   5   52063    3509   1
  -5  11   5    1025    1516   1
   4 -11   3   83544    3043  -2
  -4  11   5   83544    3043   1
  -3  11   5    1565    1291   1
   2 -11   4   97844    2802  -2
  -2  11   5   97844    2802   1
  -1  11   5     479     990   1
   0 -11   5  120275    2817  -2
   0  11   5  120275    2817   1
   1  11   5    2772    1233   1
  -2 -11   6  101145    3136  -2
   2  11   5  101145    3136   1
   3  11   5       9    1373   1
  -4 -11   7   77073    3728  -2
   4  11   5   77073    3728   1
   5  11   5    1309    2067   1
  -5  12   5   47853    3221   1
   4 -12   3    -111    1903  -2
  -4  12   5    -111    1903   1
  -3  12   5   71080    3317   1
   2 -12   4   12777    1883  -2
  -2  12   5   12777    1883   1
  -1  12   5   82915    3418   1
   0 -12   5    -332    1353  -2
   0  12   5    -332    1353   1
   1  12   5   67762    2654   1
  -2 -12   6    9622    1593  -2
   2  12   5    9622    1593   1
   3  12   5   55158    3254   1
  -4 -12   7   -1652    2070  -2
   4  12   5   -1652    2070   1
  -3  13   5    5435    2022   1
   2 -13   4   59810    3009  -2
  -2  13   5   59810    3009   1
  -1  13   5    1959    1574   1
   0 -13   5   83387    3671  -2
   0  13   5   83387    3671   1
   1  13   5    4226    1724   1
 -10   0   6   63649    4408   1
  -8   0   6  157503    3898   1
  -6   0   6  290039    5644   1
  -4   0   6  695161   11757   1
  -2   0   6  529705    8943   1
   0   0   6 1076083   15516  -2
   0   0   6 1076083   15516   1
   2   0   6  777884   14807   1
   4   0   6  633916   10869   1
   6   0   6  226021    6892   1
   8   0   6   95790    3506   1
 -11   1   6   36198    3362   1
 -10   1   6    6583    1991   1
  -9   1   6   81165    2858   1
  -8   1   6    1002     734   1
  -7   1   6  224763    3396   1
  -6   1   6   42586    2435   1
  -5   1   6  367104    4843   1
  -4   1   6    1446     270   1
  -3   1   6  546093    6213   1
   2  -1   5   94061    1227  -2
  -2   1   6   94061    1227   1
  -1   1   6  727082    8902   1
   0  -1   6     116     262  -2
   0   1   6     116     262   1
   1   1   6  561029    6697   1
  -2  -1   7   96603    2367  -2
   2   1   6   96603    2367   1
   3   1   6  659658    7517   1
   4   1   6     289     346   1
   5   1   6  291642    4311   1
   6   1   6   15334    1448   1
   7   1   6  180491    3354   1
   8   1   6     -97    1133   1
   9   1   6   71648    2470   1
 -11   2   6     522    2252   1
 -10   2   6   49390    3384   1
  -9   2   6    5433    1256   1
  -8   2   6  141125    2904   1
  -7   2   6    1537     718   1
  -6   2   6  273781    4420   1
  -5   2   6   17527     803   1
   4  -2   4  500429    6682  -2
  -4   2   6  500429    6682   1
  -3   2   6     629     192   1
   2  -2   5  771527    9188  -2
  -2   2   6  771527    9188   1
  -1   2   6    4024     293   1
   0  -2   6  574182    7084  -2
   0   2   6  574182    7084   1
   1   2   6    -244     244   1
  -2  -2   7  537876    6888  -2
   2   2   6  537876    6888   1
   3   2   6     944     324   1
   4   2   6  420943    5547   1
   5   2   6    1024     610   1
   6   2   6  264399    4639   1
   7   2   6     535     782   1
   8   2   6  103408    3034   1
   9   2   6    2364    1525   1
 -11   3   6   25803    2862   1
  10  -3   1    7574    1883  -2
 -10   3   6    7574    1883   1
  -9   3   6   89808    3085   1
  -8   3   6     238     936   1
  -7   3   6  122066    2418   1
  -6   3   6   37339    3110   1
  -5   3   6  354644    5326   1
   4  -3   4    3649     425  -2
  -4   3   6    3649     425   1
  -3   3   6  629160    8035   1
   2  -3   5  113144    1551  -2
  -2   3   6  113144    1551   1
  -1   3   6  574444    6898   1
   0  -3   6    4291     325  -2
   0   3   6    4291     325   1
   1   3   6  601017    7948   1
  -2  -3   7  105460    2266  -2
   2   3   6  105460    2266   1
   3   3   6  728043    9297   1
   4   3   6     262     447   1
   5   3   6  244682    3860   1
   6   3   6   20224    1823   1
   7   3   6  126417    2803   1
   8   3   6     545    1296   1
   9   3   6   66185    2927   1
  10  -4   1   35484    2533  -2
 -10   4   6   35484    2533   1
  -9   4   6    4312    1638   1
  -8   4   6  121620    2716   1
  -7   4   6     128     655   1
   6  -4   3  199200    3303  -2
  -6   4   6  199200    3303   1
  -5   4   6    1708     555   1
   4  -4   4  470619    6342  -2
  -4   4   6  470619    6342   1
  -3   4   6    4433     421   1
   2  -4   5  503885    6729  -2
  -2   4   6  503885    6729   1
  -1   4   6    1091     370   1
   0  -4   6  776295   10188  -2
   0   4   6  776295   10188   1
   1   4   6    1910     326   1
  -2  -4   7  456380    6178  -2
   2   4   6  456380    6178   1
   3   4   6    1760     314   1
   4   4   6  397807    5691   1
   5   4   6    5613     791   1
   6   4   6  194156    3488   1
   7   4   6    -970     970   1
   8   4   6   89632    3246   1
   9   4   6     479    1701   1
  10  -5   1    1093    1990  -2
 -10   5   6    1093    1990   1
  -9   5   6   55575    3053   1
   8  -5   2     129    1301  -2
  -8   5   6     129    1301   1
  -7   5   6  123116    2550   1
   6  -5   3   29341    2582  -2
  -6   5   6   29341    2582   1
  -5   5   6  210868    3581   1
   4  -5   4    1164     422  -2
  -4   5   6    1164     422   1
  -3   5   6  455110    6166   1
   2  -5   5   30826     870  -2
  -2   5   6   30826     870   1
  -1   5   6  511050    6450   1
   0  -5   6   10872     510  -2
   0   5   6   10872     510   1
   1   5   6  278366    3692   1
  -2  -5   7   53569    1976  -2
   2   5   6   53569    1976   1
   3   5   6  357020    5014   1
   4   5   6     813     612   1
   5   5   6  219726    4070   1
   6   5   6   16710    1232   1
   7   5   6  128408    3436   1
   8   5   6     259    1553   1
   9   5   6   48141    2877   1
  10  -6   1   28445    2631  -2
 -10   6   6   28445    2631   1
  -9   6   6    1766    1501   1
   8  -6   2   79159    3231  -2
  -8   6   6   79159    3231   1
  -7   6   6    -161     919   1
   6  -6   3  178527    3249  -2
  -6   6   6  178527    3249   1
  -5   6   6    1910     635   1
   4  -6   4  298313    4618  -2
  -4   6   6  298313    4618   1
  -3   6   6     849     592   1
   2  -6   5  374119    5193  -2
  -2   6   6  374119    5193   1
  -1   6   6    5021     487   1
   0  -6   6  563436    7335  -2
   0   6   6  563436    7335   1
   1   6   6    -435     435   1
  -2  -6   7  405006    5426  -2
   2   6   6  405006    5426   1
   3   6   6    1757     647   1
  -4  -6   8  225566    4100  -2
   4   6   6  225566    4100   1
   5   6   6     931     920   1
   6   6   6  156262    3538   1
   7   6   6    -765    1467   1
   8   6   6   66770    3073   1
  -9   7   6   45907    3203   1
   8  -7   2     461    1405  -2
  -8   7   6     461    1405   1
  -7   7   6   87622    2599   1
   6  -7   3   19087    1822  -2
  -6   7   6   19087    1822   1
  -5   7   6  177873    3251   1
   4  -7   4    1623     637  -2
  -4   7   6    1623     637   1
  -3   7   6  234421    4353   1
   2  -7   5   65655    1912  -2
  -2   7   6   65655    1912   1
  -1   7   6  314218    4526   1
   0  -7   6    1752     555  -2
   0   7   6    1752     555   1
   1   7   6  346877    4933   1
  -2  -7   7   54402    1625  -2
   2   7   6   54402    1625   1
   3   7   6  302886    4990   1
  -4  -7   8    -827     827  -2
   4   7   6    -827     827   1
   5   7   6  144378    3258   1
   6   7   6    7687    1477   1
   7   7   6   66438    3205   1
   8   7   6    4707    1879   1
  -9   8   6     786    1980   1
   8  -8   2   58135    3115  -2
  -8   8   6   58135    3115   1
  -7   8   6     -52    1289   1
   6  -8   3   84371    2724  -2
  -6   8   6   84371    2724   1
  -5   8   6    2250     912   1
   4  -8   4  221181    3725  -2
  -4   8   6  221181    3725   1
  -3   8   6    1122     724   1
   2  -8   5  214629    4578  -2
  -2   8   6  214629    4578   1
  -1   8   6    1105     661   1
   0  -8   6  216039    3464  -2
   0   8   6  216039    3464   1
   1   8   6     182     667   1
  -2  -8   7  203356    3467  -2
   2   8   6  203356    3467   1
   3   8   6     691     825   1
  -4  -8   8  180441    4005  -2
   4   8   6  180441    4005   1
   5   8   6    7123    1287   1
   6   8   6   80254    3065   1
   7   8   6   -1609    1804   1
   8  -9   2    -535    1922  -2
  -8   9   6    -535    1922   1
  -7   9   6   63014    3185   1
   6  -9   3   12603    1553  -2
  -6   9   6   12603    1553   1
  -5   9   6   87594    2580   1
   4  -9   4    -144     936  -2
  -4   9   6    -144     936   1
  -3   9   6  169877    4378   1
   2  -9   5   26987    1956  -2
  -2   9   6   26987    1956   1
  -1   9   6  214566    3576   1
   0  -9   6    -209     750  -2
   0   9   6    -209     750   1
   1   9   6  166760    3317   1
  -2  -9   7   27537    1413  -2
   2   9   6   27537    1413   1
   3   9   6  140103    3462   1
  -4  -9   8    2415    1314  -2
   4   9   6    2415    1314   1
   5   9   6  101859    3577   1
   6   9   6    3377    1699   1
   7   9   6   58235    3527   1
  -7  10   6   -1117    2085   1
   6 -10   3   60587    2854  -2
  -6  10   6   60587    2854   1
  -5  10   6    2111    1589   1
   4 -10   4  106514    2866  -2
  -4  10   6  106514    2866   1
  -3  10   6     826    1112   1
   2 -10   5  121664    2713  -2
  -2  10   6  121664    2713   1
  -1  10   6    1476    1011   1
   0 -10   6  192950    3540  -2
   0  10   6  192950    3540   1
   1  10   6     641    1036   1
  -2 -10   7  138767    3253  -2
   2  10   6  138767    3253   1
   3  10   6    2081    1176   1
  -4 -10   8  119404    4245  -2
   4  10   6  119404    4245   1
   5  10   6    1949    1671   1
   6  10   6   50999    3117   1
   6 -11   3    4325    2128  -2
  -6  11   6    4325    2128   1
  -5  11   6   64827    3647   1
   4 -11   4    -321    1407  -2
  -4  11   6    -321    1407   1
  -3  11   6   73724    2749   1
   2 -11   5   15424    1444  -2
  -2  11   6   15424    1444   1
  -1  11   6   86472    2732   1
   0 -11   6     675    1148  -2
   0  11   6     675    1148   1
   1  11   6   91262    2872   1
  -2 -11   7   13392    1834  -2
   2  11   6   13392    1834   1
   3  11   6   81416    3396   1
  -4 -11   8    -400    2333  -2
   4  11   6    -400    2333   1
   5  11   6   53649    3828   1
   4 -12   4   62408    3156  -2
  -4  12   6   62408    3156   1
  -3  12   6    -585    1747   1
   2 -12   5   70804    3180  -2
  -2  12   6   70804    3180   1
  -1  12   6    1090    1441   1
   0 -12   6   79733    5309  -2
   0  12   6   79733    5309   1
   1  12   6    1723    1766   1
  -2 -12   7   56891    2710  -2
   2  12   6   56891    2710   1
   3  12   6    1409    2224   1
   2 -13   5    9423    3180  -2
  -2  13   6    9423    3180   1
  -1  13   6   53312    2936   1
   0 -13   6    1033    1813  -2
   0  13   6    1033    1813   1
 -11   0   7   36211    5051   1
  -9   0   7   64032    3476   1
  -7   0   7  202609    5174   1
  -5   0   7  378898    7106   1
  -3   0   7  521394   10094   1
  -1   0   7  645085    9830   1
   1   0   7  907289   15208   1
   3   0   7  630320   10242   1
   5   0   7  290651    6168   1
   7   0   7  122669    3650   1
   9   0   7   57762    4138   1
 -11   1   7      57    2354   1
 -10   1   7   52336    3426   1
  -9   1   7    1751    1071   1
  -8   1   7  124859    2587   1
  -7   1   7    1128     580   1
  -6   1   7  236182    3660   1
  -5   1   7    1192     364   1
  -4   1   7  588353    7322   1
  -3   1   7    1402     275   1
   2  -1   6  552146    6826  -2
  -2   1   7  552146    6826   1
  -1   1   7   12191     475   1
   0  -1   7  741088    9389  -2
   0   1   7  741088    9389   1
   1   1   7     -10     279   1
  -2  -1   8  689037    8758  -2
   2   1   7  689037    8758   1
   3   1   7     682     320   1
   4   1   7  371864    4953   1
   5   1   7     443     550   1
   6   1   7  237427    4268   1
   7   1   7     550     864   1
   8   1   7   98787    3095   1
   9   1   7     966    1324   1
 -11   2   7   27066    2950   1
 -10   2   7    5575    2066   1
  -9   2   7   79284    3019   1
  -8   2   7     -79     873   1
  -7   2   7  153079    2839   1
  -6   2   7   42636    3479   1
  -5   2   7  311025    4802   1
  -4   2   7    3566     407   1
  -3   2   7  537733    6316   1
   2  -2   6   97481    1805  -2
  -2   2   7   97481    1805   1
  -1   2   7  619296    7922   1
   0  -2   7    -321     321  -2
   0   2   7    -321     321   1
   1   2   7  541558    7420   1
  -2  -2   8  113674    3234  -2
   2   2   7  113674    3234   1
   3   2   7  442622    5810   1
   4   2   7    -413     413   1
   5   2   7  264198    4188   1
   6   2   7   13142     963   1
   7   2   7  128837    2857   1
   8   2   7     425    1411   1
   9   2   7   62881    2635   1
 -10   3   7   36104    2638   1
  -9   3   7    4701    1191   1
  -8   3   7  117137    2621   1
  -7   3   7     177     723   1
  -6   3   7  209087    3548   1
  -5   3   7     918     505   1
  -4   3   7  409535    5578   1
  -3   3   7   10927     509   1
   2  -3   6  585581    7066  -2
  -2   3   7  585581    7066   1
  -1   3   7    -102     304   1
   0  -3   7  756273    9925  -2
   0   3   7  756273    9925   1
   1   3   7    5292     402   1
  -2  -3   8  748197    9955  -2
   2   3   7  748197    9955   1
   3   3   7     610     391   1
   4   3   7  347723    4873   1
   5   3   7     693     614   1
   6   3   7  200403    4003   1
   7   3   7    -566     898   1
   8   3   7   82284    3215   1
   9   3   7     417    1824   1
 -10   4   7    2986    1764   1
  -9   4   7   72821    3317   1
  -8   4   7    1235     941   1
  -7   4   7  118047    2425   1
  -6   4   7   25837    2279   1
  -5   4   7  206650    3349   1
   4  -4   5    3272     530  -2
  -4   4   7    3272     530   1
  -3   4   7  412502    5826   1
   2  -4   6   84390    1807  -2
  -2   4   7   84390    1807   1
  -1   4   7  496384    7656   1
   0  -4   7   14066     586  -2
   0   4   7   14066     586   1
   1   4   7  533311    7148   1
  -2  -4   8   60365    1935  -2
   2   4   7   60365    1935   1
   3   4   7  438169    6001   1
   4   4   7     -81     596   1
   5   4   7  239850    3920   1
   6   4   7   14351    1617   1
   7   4   7   89836    2863   1
   8   4   7    2437    1695   1
   9   4   7   49001    2802   1
 -10   5   7   26883    2465   1
  -9   5   7    3880    1747   1
  -8   5   7   84747    2596   1
  -7   5   7    1391     835   1
  -6   5   7  148819    2672   1
  -5   5   7     440     592   1
   4  -5   5  314207    4775  -2
  -4   5   7  314207    4775   1
  -3   5   7     185     447   1
   2  -5   6  302147    4419  -2
  -2   5   7  302147    4419   1
  -1   5   7   22727     729   1
   0  -5   7  609103    8170  -2
   0   5   7  609103    8170   1
   1   5   7    -395     411   1
  -2  -5   8  386404    5384  -2
   2   5   7  386404    5384   1
   3   5   7     414     461   1
   4   5   7  224701    3866   1
   5   5   7    3415     852   1
   6   5   7  161052    3318   1
   7   5   7    1609    1415   1
   8   5   7   79729    3296   1
 -10   6   7    1464    3215   1
  -9   6   7   37566    2655   1
  -8   6   7     859    1435   1
  -7   6   7   91419    3332   1
  -6   6   7   22915    1908   1
  -5   6   7  164940    3200   1
   4  -6   5    3354     669  -2
  -4   6   7    3354     669   1
  -3   6   7  231516    3564   1
   2  -6   6   67402    1553  -2
  -2   6   7   67402    1553   1
  -1   6   7  378922    5306   1
   0  -6   7    -480     480  -2
   0   6   7    -480     480   1
   1   6   7  406188    5307   1
  -2  -6   8   63645    2228  -2
   2   6   7   63645    2228   1
   3   6   7  298295    4696   1
   4   6   7    -146     796   1
   5   6   7  165948    3577   1
   6   6   7    6962    1290   1
   7   6   7   78591    3181   1
   8   6   7    2152    1931   1
  -9   7   7     773    1854   1
  -8   7   7   48272    2794   1
  -7   7   7    -792    1262   1
  -6   7   7   99239    2445   1
  -5   7   7     188     806   1
   4  -7   5  200840    3583  -2
  -4   7   7  200840    3583   1
  -3   7   7    -663     663   1
   2  -7   6  213907    3398  -2
  -2   7   7  213907    3398   1
  -1   7   7     355     561   1
   0  -7   7  291124    4423  -2
   0   7   7  291124    4423   1
   1   7   7    2786     639   1
  -2  -7   8  404212    5924  -2
   2   7   7  404212    5924   1
   3   7   7    2425     768   1
   4   7   7  207754    3942   1
   5   7   7    3681    1159   1
   6   7   7   84694    2959   1
   7   7   7     631    1716   1
  -8   8   7    -616    1943   1
  -7   8   7   61229    2952   1
   6  -8   4   14026    1864  -2
  -6   8   7   14026    1864   1
  -5   8   7  101398    2455   1
   4  -8   5    -767     783  -2
  -4   8   7    -767     783   1
  -3   8   7  157577    3149   1
   2  -8   6   37519    1364  -2
  -2   8   7   37519    1364   1
  -1   8   7  200394    3323   1
   0  -8   7    -623     623  -2
   0   8   7    -623     623   1
   1   8   7  191254    3442   1
  -2  -8   8   33671    1257  -2
   2   8   7   33671    1257   1
   3   8   7  146744    3073   1
  -4  -8   9    5997    1261  -2
   4   8   7    5997    1261   1
   5   8   7  113891    3348   1
   6   8   7    4472    1593   1
   7   8   7   46186    3209   1
  -8   9   7   39278    2902   1
  -7   9   7   -2014    2014   1
   6  -9   4   55573    2600  -2
  -6   9   7   55573    2600   1
  -5   9   7     319    1463   1
   4  -9   5  130157    3120  -2
  -4   9   7  130157    3120   1
  -3   9   7   -1038    1038   1
   2  -9   6  157361    3130  -2
  -2   9   7  157361    3130   1
  -1   9   7     323     793   1
   0  -9   7  220789    3876  -2
   0   9   7  220789    3876   1
   1   9   7    -764     900   1
  -2  -9   8  133523    3060  -2
   2   9   7  133523    3060   1
   3   9   7    -785    1035   1
  -4  -9   9  133593    4259  -2
   4   9   7  133593    4259   1
   5   9   7    2885    1778   1
   6   9   7   61122    3257   1
  -7  10   7   38141    3195   1
   6 -10   4    6516    1978  -2
  -6  10   7    6516    1978   1
  -5  10   7   69282    2804   1
   4 -10   5   -1219    1219  -2
  -4  10   7   -1219    1219   1
  -3  10   7   89427    2754   1
   2 -10   6   24952    1589  -2
  -2  10   7   24952    1589   1
  -1  10   7  121929    2877   1
   0 -10   7     223     976  -2
   0  10   7     223     976   1
   1  10   7  157672    3706   1
  -2 -10   8   20700    1646  -2
   2  10   7   20700    1646   1
   3  10   7  130024    4659   1
  -4 -10   9      85    2001  -2
   4  10   7      85    2001   1
   5  10   7   55051    3061   1
   6 -11   4   40735    3240  -2
  -6  11   7   40735    3240   1
  -5  11   7    -524    1661   1
   4 -11   5   74866    3004  -2
  -4  11   7   74866    3004   1
  -3  11   7     170    1499   1
   2 -11   6   75009    2919  -2
  -2  11   7   75009    2919   1
  -1  11   7    1637    1337   1
   0 -11   7   93588    3076  -2
   0  11   7   93588    3076   1
   1  11   7     853    1395   1
  -2 -11   8   92188    4520  -2
   2  11   7   92188    4520   1
   3  11   7    2263    1866   1
  -4 -11   9   59912    3659  -2
   4  11   7   59912    3659   1
   4 -12   5    -839    1695  -2
  -4  12   7    -839    1695   1
  -3  12   7   55441    2767   1
   2 -12   6   11471    1853  -2
  -2  12   7   11471    1853   1
  -1  12   7   66428    3507   1
   0 -12   7     284    1738  -2
   0  12   7     284    1738   1
   1  12   7   63733    3445   1
  -2 -12   8   10514    2014  -2
   2  12   7   10514    2014   1
 -10   0   8   43586    5375   1
  -8   0   8  106356    3639   1
  -6   0   8  165795    3508   1
  -4   0   8  618323   11970   1
  -2   0   8  566858    8735   1
   0   0   8  923233   15487  -2
   0   0   8  923233   15487   1
   2   0   8  620322   10555   1
   4   0   8  391032    7431   1
   6   0   8  160703    4310   1
   8   0   8   79277    5442   1
 -10   1   8    4577    2550   1
  -9   1   8   53251    2311   1
  -8   1   8    1334     921   1
  -7   1   8  145706    2653   1
  -6   1   8   30803    2927   1
  -5   1   8  301617    4113   1
  -4   1   8    3360     404   1
  -3   1   8  507701    6204   1
   2  -1   7  116440    1659  -2
  -2   1   8  116440    1659   1
  -1   1   8  701658    8657   1
   0  -1   8    4976     454  -2
   0   1   8    4976     454   1
   1   1   8  673031    8803   1
  -2  -1   9   82416    1752  -2
   2   1   8   82416    1752   1
   3   1   8  329462    4321   1
   4   1   8     261     466   1
   5   1   8  266809    4248   1
   6   1   8   14386    1340   1
   7   1   8  104130    2708   1
   8   1   8      58    1368   1
   9   1   8   47149    2776   1
 -10   2   8   37425    2808   1
  -9   2   8   -1073    1073   1
  -8   2   8  108144    2523   1
  -7   2   8    2179     713   1
  -6   2   8  212765    3359   1
  -5   2   8      45     398   1
  -4   2   8  388224    4994   1
  -3   2   8     316     216   1
   2  -2   7  630807    8369  -2
  -2   2   8  630807    8369   1
  -1   2   8    -323     323   1
   0  -2   8  714278    9737  -2
   0   2   8  714278    9737   1
   1   2   8     228     342   1
  -2  -2   9  469316    6510  -2
   2   2   8  469316    6510   1
   3   2   8    1217     460   1
   4   2   8  253321    4014   1
   5   2   8     506     706   1
   6   2   8  166238    3710   1
   7   2   8     298    1061   1
   8   2   8   92825    3444   1
   9   2   8    -658    1688   1
 -10   3   8    3197    1940   1
  -9   3   8   66718    2400   1
  -8   3   8     132     855   1
  -7   3   8  124893    2449   1
  -6   3   8   26434    2602   1
  -5   3   8  241330    3526   1
  -4   3   8    -407     407   1
  -3   3   8  398951    5268   1
   2  -3   7  120488    3000  -2
  -2   3   8  120488    3000   1
  -1   3   8  612120    8883   1
   0  -3   8    -329     329  -2
   0   3   8    -329     329   1
   1   3   8  624756    8617   1
  -2  -3   9   69603    1867  -2
   2   3   8   69603    1867   1
   3   3   8  335888    4731   1
   4   3   8    -421     565   1
   5   3   8  270028    4565   1
   6   3   8    9172    1156   1
   7   3   8   84271    2568   1
   8   3   8   -1639    1727   1
 -10   4   8   28056    2334   1
  -9   4   8    2619    1464   1
  -8   4   8   95212    2323   1
  -7   4   8    1418     825   1
  -6   4   8  172998    2995   1
  -5   4   8    4170     635   1
  -4   4   8  335260    5085   1
  -3   4   8    -169     428   1
   2  -4   7  326070    4860  -2
  -2   4   8  326070    4860   1
  -1   4   8    1152     376   1
   0  -4   8  666413    9165  -2
   0   4   8  666413    9165   1
   1   4   8    8517     532   1
  -2  -4   9  410375    5827  -2
   2   4   8  410375    5827   1
   3   4   8    -417     494   1
   4   4   8  260340    4586   1
   5   4   8    3058     782   1
   6   4   8  128764    3022   1
   7   4   8    2099    1160   1
   8   4   8   69814    3143   1
 -10   5   8    1942    1894   1
  -9   5   8   45508    3145   1
  -8   5   8     520    1188   1
  -7   5   8  107046    2551   1
  -6   5   8   23702    2157   1
  -5   5   8  157341    3048   1
  -4   5   8     417     674   1
  -3   5   8  283175    4894   1
   2  -5   7   55846    1483  -2
  -2   5   8   55846    1483   1
  -1   5   8  377750    4933   1
   0  -5   8    1926     450  -2
   0   5   8    1926     450   1
   1   5   8  350203    4908   1
  -2  -5   9   52377    2131  -2
   2   5   8   52377    2131   1
   3   5   8  197233    3290   1
   4   5   8      34     758   1
   5   5   8  170460    3564   1
   6   5   8    7117    1167   1
   7   5   8   84779    3318   1
   8   5   8   -1073    1812   1
  -9   6   8    1699    2145   1
  -8   6   8   56438    2560   1
  -7   6   8    -687    1004   1
  -6   6   8  116641    2600   1
  -5   6   8     209     794   1
   4  -6   6  245239    4666  -2
  -4   6   8  245239    4666   1
  -3   6   8    -585     589   1
   2  -6   7  261558    4160  -2
  -2   6   8  261558    4160   1
  -1   6   8    -450     546   1
   0  -6   8  363033    4957  -2
   0   6   8  363033    4957   1
   1   6   8     655     554   1
  -2  -6   9  350256    5025  -2
   2   6   8  350256    5025   1
   3   6   8    1347     718   1
   4   6   8  186819    3312   1
   5   6   8    1103    1021   1
   6   6   8   94294    3296   1
   7   6   8     373    1821   1
  -9   7   8   27630    2580   1
  -8   7   8     838    1819   1
  -7   7   8   64396    3020   1
  -6   7   8   12778    1274   1
  -5   7   8  127591    2957   1
   4  -7   6     348     810  -2
  -4   7   8     348     810   1
  -3   7   8  162053    3034   1
   2  -7   7   70090    1993  -2
  -2   7   8   70090    1993   1
  -1   7   8  234756    3723   1
   0  -7   8     979     655  -2
   0   7   8     979     655   1
   1   7   8  257781    3898   1
  -2  -7   9   49965    2118  -2
   2   7   8   49965    2118   1
   3   7   8  188918    3689   1
   4   7   8    3622    1107   1
   5   7   8  137072    3773   1
   6   7   8    9385    2119   1
   7   7   8   47893    3241   1
  -8   8   8   40800    2982   1
  -7   8   8   -1208    1591   1
  -6   8   8   64739    2684   1
  -5   8   8    -250     962   1
   4  -8   6  140488    2980  -2
  -4   8   8  140488    2980   1
  -3   8   8    -882     882   1
   2  -8   7  181854    3402  -2
  -2   8   8  181854    3402   1
  -1   8   8     602     774   1
   0  -8   8  191229    3358  -2
   0   8   8  191229    3358   1
   1   8   8    2241     836   1
  -2  -8   9  128573    2894  -2
   2   8   8  128573    2894   1
   3   8   8    -316    1061   1
   4   8   8  131998    3389   1
   5   8   8    3122    1652   1
   6   8   8   63398    3505   1
  -7   9   8   48354    3243   1
  -6   9   8    9132    1730   1
  -5   9   8   69727    2676   1
   4  -9   6    -419    1007  -2
  -4   9   8    -419    1007   1
  -3   9   8  114368    2950   1
   2  -9   7   25019    1413  -2
  -2   9   8   25019    1413   1
  -1   9   8  169461    3560   1
   0  -9   8    -900     900  -2
   0   9   8    -900     900   1
   1   9   8  168883    3633   1
  -2  -9   9   20505    1539  -2
   2   9   8   20505    1539   1
   3   9   8   95543    3115   1
   4   9   8    3839    1802   1
   5   9   8   62786    3242   1
   6   9   8   10161    5310   1
  -6  10   8   49748    2849   1
  -5  10   8    1675    1487   1
   4 -10   6   89419    2982  -2
  -4  10   8   89419    2982   1
  -3  10   8    -713    1311   1
   2 -10   7   97531    2965  -2
  -2  10   8   97531    2965   1
  -1  10   8     693    1163   1
   0 -10   8  153406    3813  -2
   0  10   8  153406    3813   1
   1  10   8     829    1341   1
  -2 -10   9  112889    3528  -2
   2  10   8  112889    3528   1
   3  10   8    3192    1764   1
  -4 -10  10   79829    3672  -2
   4  10   8   79829    3672   1
   5  10   8    -168    1959   1
  -5  11   8   49565    2669   1
   4 -11   6   -1112    1448  -2
  -4  11   8   -1112    1448   1
  -3  11   8   73095    3005   1
   2 -11   7   16644    1791  -2
  -2  11   8   16644    1791   1
  -1  11   8   74378    3016   1
   0 -11   8    -243    1520  -2
   0  11   8    -243    1520   1
   1  11   8   76237    3305   1
  -2 -11   9   12567    1858  -2
   2  11   8   12567    1858   1
   3  11   8   62076    4119   1
  -3  12   8    1138    1724   1
   2 -12   7   65200    2973  -2
  -2  12   8   65200    2973   1
  -1  12   8    3066    1609   1
   0 -12   8   74159    3571  -2
   0  12   8   74159    3571   1
   1  12   8    1125    1836   1
  -9   0   9   58638    3069   1
  -7   0   9  134496    3688   1
  -5   0   9  234272    5405   1
  -3   0   9  392156    6865   1
  -1   0   9  581313    9978   1
   1   0   9  510948    9560   1
   3   0   9  339053    6156   1
   5   0   9  231979    6894   1
   7   0   9   92851    4137   1
 -10   1   9   39101    2537   1
  -9   1   9     259    1217   1
  -8   1   9  101852    2354   1
  -7   1   9    -149     744   1
  -6   1   9  145300    2397   1
  -5   1   9     348     468   1
  -4   1   9  367554    5212   1
  -3   1   9    5184     449   1
   2  -1   8  492643    6017  -2
  -2   1   9  492643    6017   1
  -1   1   9    4785     425   1
   0  -1   9  575400    7931  -2
   0   1   9  575400    7931   1
   1   1   9    -417     417   1
  -2  -1  10  324339    4489  -2
   2   1   9  324339    4489   1
   3   1   9    -467     467   1
   4   1   9  323764    4818   1
   5   1   9    -299     769   1
   6   1   9  122015    2882   1
   7   1   9    -643    1037   1
   8   1   9   76277    4223   1
 -10   2   9    1743    1567   1
  -9   2   9   58502    2154   1
  -8   2   9     809     899   1
  -7   2   9  115483    2217   1
  -6   2   9   31146    2277   1
  -5   2   9  229625    3404   1
  -4   2   9     327     439   1
  -3   2   9  342668    4603   1
   2  -2   8   77066    1543  -2
  -2   2   9   77066    1543   1
  -1   2   9  504739    6783   1
   0  -2   9    -446     446  -2
   0   2   9    -446     446   1
   1   2   9  382295    5406   1
  -2  -2  10   53477    2159  -2
   2   2   9   53477    2159   1
   3   2   9  224986    3132   1
   4   2   9      41     667   1
   5   2   9  190788    3719   1
   6   2   9    7694    1200   1
   7   2   9   98504    2862   1
   8   2   9   -1579    1579   1
 -10   3   9   29540    2593   1
  -9   3   9    2305    1204   1
  -8   3   9   81350    2119   1
  -7   3   9    -321     752   1
  -6   3   9  194006    3176   1
  -5   3   9     676     493   1
  -4   3   9  303634    4477   1
  -3   3   9    1341     508   1
   2  -3   8  397277    5874  -2
  -2   3   9  397277    5874   1
  -1   3   9    7994     569   1
   0  -3   9  504249    7039  -2
   0   3   9  504249    7039   1
   1   3   9     501     550   1
  -2  -3  10  342827    5399  -2
   2   3   9  342827    5399   1
   3   3   9    -589     589   1
   4   3   9  298861    5448   1
   5   3   9    -864     864   1
   6   3   9  113272    3244   1
   7   3   9    -937    1232   1
   8   3   9   61690    2956   1
 -10   4   9    1152    2229   1
  -9   4   9   46863    2749   1
  -8   4   9   -1036    1036   1
  -7   4   9  112559    2468   1
  -6   4   9   22426    1690   1
  -5   4   9  191214    3229   1
  -4   4   9    1250     565   1
  -3   4   9  288209    4118   1
   2  -4   8   68358    1385  -2
  -2   4   9   68358    1385   1
  -1   4   9  354312    5130   1
   0  -4   9     525     549  -2
   0   4   9     525     549   1
   1   4   9  307886    4880   1
  -2  -4  10   37837    1836  -2
   2   4   9   37837    1836   1
   3   4   9  212609    3510   1
   4   4   9     877     835   1
   5   4   9  179835    3569   1
   6   4   9    6909    1240   1
   7   4   9   75218    2738   1
   8   4   9   -1923    1923   1
  -9   5   9    -891    1993   1
  -8   5   9   68551    2477   1
  -7   5   9    -588    1008   1
  -6   5   9  118835    2766   1
  -5   5   9     -41     766   1
  -4   5   9  277533    5074   1
  -3   5   9    1307     632   1
   2  -5   8  263690    4163  -2
  -2   5   9  263690    4163   1
  -1   5   9     -28     463   1
   0  -5   9  327360    4834  -2
   0   5   9  327360    4834   1
   1   5   9    -516     516   1
  -2  -5  10  192267    3347  -2
   2   5   9  192267    3347   1
   3   5   9    -799     889   1
   4   5   9  194648    3975   1
   5   5   9     -25     880   1
   6   5   9   79271    2734   1
   7   5   9    1928    1904   1
  -9   6   9   35317    3147   1
  -8   6   9    -576    1598   1
  -7   6   9   83783    2876   1
  -6   6   9   19494    1790   1
  -5   6   9  138199    3062   1
  -4   6   9    4022     878   1
  -3   6   9  228941    4386   1
   2  -6   8   57453    2314  -2
  -2   6   9   57453    2314   1
  -1   6   9  273536    4219   1
   0  -6   9     357     646  -2
   0   6   9     357     646   1
   1   6   9  217255    3466   1
  -2  -6  10   45656    2845  -2
   2   6   9   45656    2845   1
   3   6   9  174238    3325   1
   4   6   9    2396     988   1
   5   6   9  125731    3653   1
   6   6   9    5099    1557   1
   7   6   9   65828    3439   1
  -8   7   9   48110    3165   1
  -7   7   9    -167    1561   1
  -6   7   9   84422    2746   1
  -5   7   9     267     978   1
  -4   7   9  173708    3640   1
  -3   7   9    -219     804   1
   2  -7   8  232665    3878  -2
  -2   7   9  232665    3878   1
  -1   7   9    -745     746   1
   0  -7   9  191483    3168  -2
   0   7   9  191483    3168   1
   1   7   9    1504     805   1
  -2  -7  10  167714    3399  -2
   2   7   9  167714    3399   1
   3   7   9     255    1023   1
   4   7   9  169284    3589   1
   5   7   9    3628    1584   1
   6   7   9   66001    3044   1
  -8   8   9    -935    1964   1
  -7   8   9   55278    2931   1
  -6   8   9   10217    1812   1
  -5   8   9   96987    2747   1
   4  -8   7    -393     919  -2
  -4   8   9    -393     919   1
  -3   8   9  127214    2847   1
   2  -8   8   22165    1457  -2
  -2   8   9   22165    1457   1
  -1   8   9  161811    3128   1
   0  -8   9    2539     902  -2
   0   8   9    2539     902   1
   1   8   9  139527    2917   1
  -2  -8  10   22224    1870  -2
   2   8   9   22224    1870   1
   3   8   9   84137    2787   1
   4   8   9    2886    1434   1
   5   8   9   80179    3383   1
   6   8   9    5742    2166   1
  -7   9   9     979    1830   1
  -6   9   9   48987    2809   1
  -5   9   9     506    1359   1
   4  -9   7  105765    2896  -2
  -4   9   9  105765    2896   1
  -3   9   9    1091    1060   1
   2  -9   8  125351    3102  -2
  -2   9   9  125351    3102   1
  -1   9   9    -655    1022   1
   0  -9   9  182707    3571  -2
   0   9   9  182707    3571   1
   1   9   9    2419    1196   1
  -2  -9  10   89293    2989  -2
   2   9   9   89293    2989   1
   3   9   9    1034    1438   1
   4   9   9   83594    3737   1
   5   9   9    -120    1932   1
  -6  10   9    6751    1806   1
  -5  10   9   59587    4085   1
   4 -10   7    1439    1575  -2
  -4  10   9    1439    1575   1
  -3  10   9   85688    3177   1
   2 -10   8   22030    1910  -2
  -2  10   9   22030    1910   1
  -1  10   9   91447    3298   1
   0 -10   9    1044    1329  -2
   0  10   9    1044    1329   1
   1  10   9  104537    3868   1
  -2 -10  10   13438    1872  -2
   2  10   9   13438    1872   1
   3  10   9   87747    3847   1
   4  10   9    3210    1967   1
   4 -11   7   51415    2664  -2
  -4  11   9   51415    2664   1
  -3  11   9     684    1594   1
   2 -11   8   71060    3014  -2
  -2  11   9   71060    3014   1
  -1  11   9    2803    1657   1
   0 -11   9   70440    3531  -2
   0  11   9   70440    3531   1
   1  11   9    1004    2110   1
  -2 -11  10   59723    3001  -2
   2  11   9   59723    3001   1
 -10   0  10   29984    3493   1
  -8   0  10   97447    3657   1
  -6   0  10  119416    3682   1
  -4   0  10  290210    5622   1
  -2   0  10  317859    5695   1
   0   0  10  413311    9991  -2
   0   0  10  413311    9991   1
   2   0  10  287631    5967   1
   4   0  10  338949    7189   1
   6   0  10  109660    4631   1
   8   0  10   53880    5948   1
 -10   1  10    6870    1919   1
  -9   1  10   51282    2151   1
  -8   1  10     833     961   1
  -7   1  10  110963    2203   1
  -6   1  10   25872    1955   1
  -5   1  10  183091    3344   1
  -4   1  10    1561     512   1
  -3   1  10  257957    3546   1
   2  -1   9   50203    1023  -2
  -2   1  10   50203    1023   1
  -1   1  10  327173    4396   1
   0  -1  10    4409     493  -2
   0   1  10    4409     493   1
   1   1  10  303508    5835   1
  -2  -1  11   44523    1532  -2
   2   1  10   44523    1532   1
   3   1  10  279737    3824   1
   4   1  10    -666     666   1
   5   1  10  141787    3386   1
   6   1  10    5602    1214   1
   7   1  10  104049    3537   1
   8   1  10   -2001    2001   1
 -10   2  10   34128    2234   1
  -9   2  10    -928    1253   1
  -8   2  10   78737    2122   1
  -7   2  10    -611     772   1
  -6   2  10  145276    2534   1
  -5   2  10    1916     599   1
  -4   2  10  228485    3521   1
  -3   2  10    -381     543   1
   2  -2   9  333033    4499  -2
  -2   2  10  333033    4499   1
  -1   2  10    -448     448   1
   0  -2  10  295749    4330  -2
   0   2  10  295749    4330   1
   1   2  10     -29     496   1
  -2  -2  11  273677    4213  -2
   2   2  10  273677    4213   1
   3   2  10    -607     607   1
   4   2  10  229666    4200   1
   5   2  10     -51     923   1
   6   2  10   99218    2852   1
   7   2  10     -17    1384   1
   8   2  10   70926    8850   1
 -10   3  10    1333    2179   1
  -9   3  10   41068    2230   1
  -8   3  10     -40     997   1
  -7   3  10   88082    2087   1
  -6   3  10   23338    1416   1
  -5   3  10  184453    3007   1
  -4   3  10     -59     582   1
  -3   3  10  249433    3917   1
   2  -3   9   53359    1191  -2
  -2   3  10   53359    1191   1
  -1   3  10  283245    4368   1
   0  -3  10    -577     577  -2
   0   3  10    -577     577   1
   1   3  10  303005    4829   1
  -2  -3  11   38953    1875  -2
   2   3  10   38953    1875   1
   3   3  10  279275    4272   1
   4   3  10     480     871   1
   5   3  10  155937    3406   1
   6   3  10    5376    1281   1
   7   3  10   83547    2752   1
  -9   4  10     268    1388   1
  -8   4  10   56263    2131   1
  -7   4  10     -50     899   1
  -6   4  10  112576    2549   1
  -5   4  10     480     607   1
  -4   4  10  251396    4032   1
  -3   4  10    -141     560   1
   2  -4   9  216471    3508  -2
  -2   4  10  216471    3508   1
  -1   4  10    -324     495   1
   0  -4  10  301243    4648  -2
   0   4  10  301243    4648   1
   1   4  10     349     611   1
  -2  -4  11  226998    3867  -2
   2   4  10  226998    3867   1
   3   4  10    -769     769   1
   4   4  10  238472    4650   1
   5   4  10     767    1106   1
   6   4  10   87914    2885   1
   7   4  10     101    1523   1
  -9   5  10   31963    2811   1
  -8   5  10     627    1270   1
  -7   5  10   83097    2527   1
  -6   5  10   16799    1333   1
  -5   5  10  114493    2550   1
  -4   5  10    1670     751   1
  -3   5  10  226757    3912   1
   2  -5   9   29734    1197  -2
  -2   5  10   29734    1197   1
  -1   5  10  242413    5623   1
   0  -5  10     405     550  -2
   0   5  10     405     550   1
   1   5  10  191292    3217   1
  -2  -5  11   30350    2018  -2
   2   5  10   30350    2018   1
   3   5  10  173534    3644   1
   4   5  10     116    1011   1
   5   5  10   99160    2595   1
   6   5  10    5939    1439   1
   7   5  10   71645    3517   1
  -9   6  10    3200    2571   1
  -8   6  10   49641    2717   1
  -7   6  10      -1    1301   1
  -6   6  10   82287    2516   1
  -5   6  10     961     914   1
  -4   6  10  168112    3373   1
  -3   6  10    -806     806   1
   2  -6   9  232350    3875  -2
  -2   6  10  232350    3875   1
  -1   6  10    -615     698   1
   0  -6  10  211088    3428  -2
   0   6  10  211088    3428   1
   1   6  10    -573     684   1
  -2  -6  11  192403    3402  -2
   2   6  10  192403    3402   1
   3   6  10    2344     905   1
   4   6  10  163714    3326   1
   5   6  10    -183    1136   1
   6   6  10   64339    2896   1
  -8   7  10   -1713    1713   1
  -7   7  10   50207    2773   1
  -6   7  10    8650    1412   1
  -5   7  10  104191    2796   1
  -4   7  10    -217     993   1
  -3   7  10  128138    2993   1
   2  -7   9   29584    1410  -2
  -2   7  10   29584    1410   1
  -1   7  10  177667    3039   1
   0  -7  10    1957     826  -2
   0   7  10    1957     826   1
   1   7  10  176252    3352   1
  -2  -7  11   23760    1632  -2
   2   7  10   23760    1632   1
   3   7  10  142580    3182   1
   4   7  10     234    1341   1
   5   7  10   86189    3140   1
   6   7  10    5716    1859   1
  -7   8  10     195    1760   1
  -6   8  10   55356    2961   1
  -5   8  10    -361    1169   1
  -4   8  10  104924    2854   1
  -3   8  10    -981    1021   1
   2  -8   9  128141    2939  -2
  -2   8  10  128141    2939   1
  -1   8  10     166     850   1
   0  -8  10  160702    3121  -2
   0   8  10  160702    3121   1
   1   8  10    6587    1105   1
  -2  -8  11   97817    3007  -2
   2   8  10   97817    3007   1
   3   8  10      81    1342   1
   4   8  10   98732    3384   1
   5   8  10    -352    1758   1
  -6   9  10    6063    2046   1
  -5   9  10   63309    3162   1
  -4   9  10     377    1307   1
  -3   9  10   92873    3006   1
   2  -9   9   13208    1548  -2
  -2   9  10   13208    1548   1
  -1   9  10   94849    3176   1
   0  -9  10    1174    1268  -2
   0   9  10    1174    1268   1
   1   9  10  116637    3417   1
  -2  -9  11    8449    1863  -2
   2   9  10    8449    1863   1
   3   9  10   91361    3507   1
   4   9  10    1258    1709   1
  -5  10  10    1886    1816   1
   4 -10   8   71469    3344  -2
  -4  10  10   71469    3344   1
  -3  10  10     236    1608   1
   2 -10   9   71001    2978  -2
  -2  10  10   71001    2978   1
  -1  10  10    1026    1728   1
   0 -10  10   89512    3901  -2
   0  10  10   89512    3901   1
   1  10  10     497    1614   1
  -2 -10  11   83858    4168  -2
   2  10  10   83858    4168   1
   3  10  10    6860    1900   1
  -3  11  10   52146    2723   1
   2 -11   9    9431    1777  -2
  -2  11  10    9431    1777   1
  -1  11  10   55489    2988   1
   0 -11  10    2626    2083  -2
   0  11  10    2626    2083   1
   1  11  10   41404    2801   1
  -9   0  11   32812    3164   1
  -7   0  11  105550    3502   1
  -5   0  11  191796    5234   1
  -3   0  11  225557    4887   1
  -1   0  11  261769    5562   1
   1   0  11  324314    7208   1
   3   0  11  278685    5821   1
   5   0  11  127569    7669   1
   7   0  11   79205    7189   1
 -10   1  11   24907    2141   1
  -9   1  11    -121    1467   1
  -8   1  11   75152    2442   1
  -7   1  11     877    1041   1
  -6   1  11  121772    2791   1
  -5   1  11    1839     633   1
  -4   1  11  232729    3762   1
  -3   1  11    1265     635   1
   2  -1  10  270751    3914  -2
  -2   1  11  270751    3914   1
  -1   1  11    1660     532   1
   0   1  11  338141    5076   1
   1   1  11    -304     563   1
   2   1  11  272771    4399   1
   3   1  11    -668     668   1
   4   1  11  192396    4138   1
   5   1  11    -768    1144   1
   6   1  11  103189    4040   1
   7   1  11     -64    1524   1
  -9   2  11   38793    2272   1
  -8   2  11    -970    1132   1
  -7   2  11   79969    2195   1
  -6   2  11   19080    1521   1
  -5   2  11  148559    2760   1
  -4   2  11    -617     617   1
  -3   2  11  237159    3643   1
   2  -2  10   44149    1305  -2
  -2   2  11   44149    1305   1
  -1   2  11  248478    3739   1
   0   2  11    -543     543   1
   1   2  11  276577    4273   1
   2   2  11   42180    2119   1
   3   2  11  232838    3581   1
   4   2  11     212     857   1
   5   2  11   95433    2935   1
   6   2  11    4365    1368   1
   7   2  11   70472    3041   1
  -9   3  11    2375    1682   1
  -8   3  11   50592    2053   1
  -7   3  11      81     913   1
  -6   3  11  104073    2101   1
  -5   3  11     357     670   1
  -4   3  11  226205    3877   1
  -3   3  11    6454     814   1
   2  -3  10  245976    3927  -2
  -2   3  11  245976    3927   1
  -1   3  11    -341     574   1
   0   3  11  302907    4502   1
   1   3  11    -122     629   1
   2   3  11  287367    4367   1
   3   3  11     523     763   1
   4   3  11  191364    3753   1
   5   3  11    1878    1130   1
   6   3  11  104168    3401   1
   7   3  11   -1000    1447   1
  -9   4  11   25591    2008   1
  -8   4  11    -373    1356   1
  -7   4  11   67680    2275   1
  -6   4  11   14077    1148   1
  -5   4  11  107143    2311   1
  -4   4  11     137     705   1
  -3   4  11  190410    3243   1
   2  -4  10   38528    1267  -2
  -2   4  11   38528    1267   1
  -1   4  11  216242    3556   1
   0   4  11    3507     752   1
   1   4  11  249468    4143   1
   2   4  11   27858    1599   1
   3   4  11  191997    3741   1
   4   4  11    1114    1037   1
   5   4  11  105672    3057   1
   6   4  11    5981    1428   1
  -9   5  11   -1300    2137   1
  -8   5  11   48907    2435   1
  -7   5  11    -280    1126   1
  -6   5  11   69853    2331   1
  -5   5  11    1571    1049   1
  -4   5  11  155559    3171   1
  -3   5  11    -807     807   1
   2  -5  10  175774    3085  -2
  -2   5  11  175774    3085   1
  -1   5  11    8716     862   1
   0   5  11  259096    3900   1
   1   5  11    -661     661   1
   2   5  11  177467    3514   1
   3   5  11    2131    1065   1
   4   5  11  132086    3606   1
   5   5  11     462    1327   1
   6   5  11   67697    3410   1
  -8   6  11   -1292    1661   1
  -7   6  11   48412    2366   1
  -6   6  11    8353    1358   1
  -5   6  11   88152    2601   1
  -4   6  11    1771     977   1
  -3   6  11  123298    2607   1
   2  -6  10   34124    1508  -2
  -2   6  11   34124    1508   1
  -1   6  11  185026    3394   1
   0   6  11     185     671   1
   1   6  11  192662    3721   1
   2   6  11   24586    1591   1
   3   6  11  151000    3464   1
   4   6  11    1089    1107   1
   5   6  11   71532    3332   1
   6   6  11    3465    1751   1
  -7   7  11    -583    1723   1
  -6   7  11   53873    2501   1
  -5   7  11     -46    1312   1
  -4   7  11   96491    2591   1
  -3   7  11    -835     999   1
   2  -7  10  135025    2971  -2
  -2   7  11  135025    2971   1
  -1   7  11    1807     849   1
   0   7  11  171336    3450   1
   1   7  11    1938     934   1
   2   7  11  149916    3293   1
   3   7  11    2991    1400   1
   4   7  11   98563    3342   1
   5   7  11     811    1585   1
  -7   8  11   27290    2465   1
  -6   8  11    6576    1801   1
  -5   8  11   63263    2675   1
  -4   8  11     574    1259   1
  -3   8  11   78440    2720   1
   2  -8  10   14782    1504  -2
  -2   8  11   14782    1504   1
  -1   8  11   97418    2821   1
   0   8  11    2729    1158   1
   1   8  11  122985    3030   1
   2   8  11   15128    1658   1
   3   8  11   93338    3307   1
   4   8  11   -1562    1562   1
  -6   9  11   37164    3281   1
  -5   9  11    1894    1800   1
  -4   9  11   70805    2934   1
  -3   9  11   -1059    1577   1
   2  -9  10   67372    3159  -2
  -2   9  11   67372    3159   1
  -1   9  11    -643    1477   1
   0   9  11  117933    4207   1
   1   9  11     306    1607   1
   2   9  11   87872    3763   1
   3   9  11    4182    1657   1
  -4  10  11     479    2199   1
  -3  10  11   63876    3565   1
   2 -10  10   14849    2010  -2
  -2  10  11   14849    2010   1
  -1  10  11   58407    3017   1
   0  10  11    2104    1996   1
   1  10  11   57025    3002   1
   2  10  11    7479    2758   1
  -8   0  12   55785    3187   1
  -6   0  12  110740    3446   1
  -4   0  12  249661    5920   1
  -2   0  12  228277    5035   1
   0   0  12  390171    9935   1
   2   0  12  224271    5824   1
   4   0  12  147834    6120   1
   6   0  12   95190    4964   1
  -9   1  12   29081    2199   1
  -8   1  12    -190    1227   1
  -7   1  12   72091    2422   1
  -6   1  12   11109    1106   1
  -5   1  12  146538    3348   1
  -4   1  12    -674     674   1
  -3   1  12  227344    3713   1
  -2   1  12   40420    1150   1
  -1   1  12  254567    4172   1
   0   1  12     679     719   1
   1   1  12  261381    4477   1
   2   1  12   30845    1601   1
   3   1  12  164954    3059   1
   4   1  12    -862    1159   1
   5   1  12  104669    3752   1
   6   1  12    2241    1519   1
  -9   2  12     -64    1622   1
  -8   2  12   56790    2689   1
  -7   2  12     358    1315   1
  -6   2  12   93837    2721   1
  -5   2  12    -416     704   1
  -4   2  12  182363    3268   1
  -3   2  12    -342     720   1
  -2   2  12  269479    4276   1
  -1   2  12    -467     630   1
   0   2  12  291253    4706   1
   1   2  12    -647     647   1
   2   2  12  206664    3482   1
   3   2  12    -778     778   1
   4   2  12  119171    3144   1
   5   2  12    1348    1346   1
   6   2  12   85362    3482   1
  -9   3  12   31296    2551   1
  -8   3  12     884    1294   1
  -7   3  12   65888    2885   1
  -6   3  12   10579    1070   1
  -5   3  12  116320    2563   1
  -4   3  12    -488     764   1
  -3   3  12  205482    3602   1
  -2   3  12   46285    1529   1
  -1   3  12  244476    3952   1
   0   3  12    -658     658   1
   1   3  12  243318    3904   1
   2   3  12   26618    1112   1
   3   3  12  156584    3101   1
   4   3  12   -1037    1037   1
   5   3  12  107250    3353   1
   6   3  12    4205    1528   1
  -8   4  12   45332    2518   1
  -7   4  12     470    1260   1
  -6   4  12   77942    2337   1
  -5   4  12     796     929   1
  -4   4  12  178188    3436   1
  -3   4  12    -813     813   1
  -2   4  12  165574    3408   1
  -1   4  12    2230     802   1
   0   4  12  269171    4730   1
   1   4  12    1967     720   1
   2   4  12  156363    2753   1
   3   4  12      75    1030   1
   4   4  12  116249    2839   1
   5   4  12    2449    1464   1
   6   4  12   74485    3057   1
  -8   5  12      16    1615   1
  -7   5  12   59019    2489   1
  -6   5  12    8200    1324   1
  -5   5  12   81590    2396   1
  -4   5  12    -780     901   1
  -3   5  12  124998    2799   1
  -2   5  12   28527    1268   1
  -1   5  12  178981    3185   1
   0   5  12     655     820   1
   1   5  12  170861    3043   1
   2   5  12   19862    1616   1
   3   5  12   99246    2617   1
   4   5  12   -1189    1189   1
   5   5  12   70999    2772   1
  -7   6  12    1373    1544   1
  -6   6  12   62777    2450   1
  -5   6  12      90    1281   1
  -4   6  12  109869    2861   1
  -3   6  12    -721     861   1
  -2   6  12  132016    2735   1
  -1   6  12    1206     807   1
   0   6  12  179443    3374   1
   1   6  12    -899     899   1
   2   6  12  138402    3301   1
   3   6  12     705    1191   1
   4   6  12   85389    2652   1
   5   6  12    1187    1405   1
  -7   7  12   24025    2336   1
  -6   7  12    5971    1553   1
  -5   7  12   73229    2897   1
  -4   7  12    -163    1275   1
  -3   7  12   81207    3874   1
  -2   7  12   25178    1692   1
  -1   7  12  106284    2479   1
   0   7  12    -393     965   1
   1   7  12  124514    3061   1
   2   7  12   19233    1760   1
   3   7  12   87028    3153   1
   4   7  12     -44    1560   1
  -6   8  12   42059    2814   1
  -5   8  12     283    1571   1
  -4   8  12   70624    3215   1
  -3   8  12    1356    1558   1
  -2   8  12   76878    2907   1
  -1   8  12     145    1399   1
   0   8  12  109141    3358   1
   1   8  12    -183    1733   1
   2   8  12   64180    3106   1
   3   8  12    1372    1675   1
  -5   9  12   32420    2642   1
  -4   9  12     362    1663   1
  -3   9  12   71280    3227   1
  -2   9  12   15606    2949   1
  -1   9  12   76977    3846   1
   0   9  12   -1549    1549   1
   1   9  12   64497    3204   1
   2   9  12   10647    2124   1
  -2  10  12   53423    3410   1
  -1  10  12     356    1804   1
  -9   0  13   23142    2816   1
  -7   0  13   51623    3236   1
  -5   0  13  126435    3663   1
  -3   0  13  174451    4573   1
  -1   0  13  184133    4936   1
   1   0  13  178164    4912   1
   3   0  13  130463    4336   1
   5   0  13  105422    5425   1
  -8   1  13   48156    2437   1
  -7   1  13   -1333    1333   1
  -6   1  13   74894    2331   1
  -5   1  13    -139     791   1
  -4   1  13  158447    3123   1
  -3   1  13     129     781   1
  -2   1  13  180006    3367   1
  -1   1  13     350     720   1
   0   1  13  230297    4088   1
   1   1  13    -222     738   1
   2   1  13  139832    2939   1
   3   1  13    -907     907   1
   4   1  13  113526    3855   1
   5   1  13   -1152    1419   1
  -8   2  13    -986    1552   1
  -7   2  13   59285    2566   1
  -6   2  13   10831    1491   1
  -5   2  13   96227    2197   1
  -4   2  13    -788     788   1
  -3   2  13  151810    2889   1
  -2   2  13   30701    1464   1
  -1   2  13  196831    3470   1
   0   2  13    -780     780   1
   1   2  13  139126    2807   1
   2   2  13   18219    1352   1
   3   2  13  115310    2625   1
   4   2  13     265    1470   1
   5   2  13   86195    3637   1
  -8   3  13   47010    3860   1
  -7   3  13     462    1523   1
  -6   3  13   79206    4466   1
  -5   3  13      68     919   1
  -4   3  13  143357    2845   1
  -3   3  13      50     804   1
  -2   3  13  165349    3223   1
  -1   3  13    -671     779   1
   0   3  13  208882    3613   1
   1   3  13     -15     786   1
   2   3  13  130661    2635   1
   3   3  13   -1018    1018   1
   4   3  13  112530    4203   1
   5   3  13     -59    1584   1
  -8   4  13   -1151    1657   1
  -7   4  13   56070    2940   1
  -6   4  13    7738    1745   1
  -5   4  13   89553    2523   1
  -4   4  13      -8     902   1
  -3   4  13  124938    2734   1
  -2   4  13   26357    1340   1
  -1   4  13  156473    3018   1
   0   4  13      35     824   1
   1   4  13  132760    2664   1
   2   4  13   15745    1585   1
   3   4  13   95693    2861   1
   4   4  13   -1385    1385   1
   5   4  13   77276    3094   1
  -7   5  13    1794    1535   1
  -6   5  13   60031    2567   1
  -5   5  13     289    1272   1
  -4   5  13  114543    2940   1
  -3   5  13    -598     990   1
  -2   5  13  114490    2772   1
  -1   5  13    -589     900   1
   0   5  13  151042    3120   1
   1   5  13     427     874   1
   2   5  13   87571    2608   1
   3   5  13     130    1173   1
   4   5  13   79724    3080   1
  -7   6  13   38841    2310   1
  -6   6  13    8363    1639   1
  -5   6  13   82136    3319   1
  -4   6  13    1900    1336   1
  -3   6  13   96390    3241   1
  -2   6  13   23647    1550   1
  -1   6  13  110066    2925   1
   0   6  13    -638     994   1
   1   6  13   92687    3463   1
   2   6  13   15432    1513   1
   3   6  13   80710    2692   1
   4   6  13    -818    1323   1
  -6   7  13   48555    2474   1
  -5   7  13      73    1689   1
  -4   7  13   82190    3036   1
  -3   7  13    1246    1331   1
  -2   7  13   98451    3241   1
  -1   7  13    -294    1182   1
   0   7  13   93782    3380   1
   1   7  13    2356    1595   1
   2   7  13   76042    2929   1
   3   7  13     550    1401   1
  -5   8  13   42991    2680   1
  -4   8  13     201    1613   1
  -3   8  13   76067    2939   1
  -2   8  13   10589    1745   1
  -1   8  13   66352    3215   1
   0   8  13    1947    2191   1
   1   8  13   51462    4134   1
   2   8  13   11436    1965   1
  -3   9  13    1352    1941   1
  -2   9  13   63306    3906   1
  -1   9  13    1772    2019   1
   0   9  13   76598    5575   1
  -8   0  14   34621    3125   1
  -6   0  14   59871    5100   1
  -4   0  14  132370    4172   1
  -2   0  14  115633    4749   1
   0   0  14  154436    4488   1
   2   0  14  127062    3878   1
   4   0  14  115570    5786   1
  -8   1  14   -1703    1703   1
  -7   1  14   47048    2486   1
  -6   1  14   10154    1599   1
  -5   1  14   78070    2423   1
  -4   1  14    -265     868   1
  -3   1  14  110788    2482   1
  -2   1  14   19974    1169   1
  -1   1  14  128025    2891   1
   0   1  14    -800     860   1
   1   1  14  112922    2564   1
   2   1  14   15815    1650   1
   3   1  14  110393    3120   1
   4   1  14    1974    2093   1
   5   1  14   70773    3328   1
  -8   2  14   36859    2557   1
  -7   2  14    -412    1626   1
  -6   2  14   64544    3017   1
  -5   2  14    1359    1310   1
  -4   2  14   90506    2589   1
  -3   2  14    -849     849   1
  -2   2  14  121249    2613   1
  -1   2  14    -876     876   1
   0   2  14  128495    2699   1
   1   2  14     228     874   1
   2   2  14  117271    2856   1
   3   2  14    -663    1220   1
   4   2  14   93175    3774   1
  -7   3  14   44485    2563   1
  -6   3  14    8357    1643   1
  -5   3  14   80326    2728   1
  -4   3  14    -202    1010   1
  -3   3  14   99336    2553   1
  -2   3  14   22028    1280   1
  -1   3  14  118552    2669   1
   0   3  14    -953     953   1
   1   3  14  110781    2543   1
   2   3  14   13872    1910   1
   3   3  14  104130    3255   1
   4   3  14     430    1625   1
  -7   4  14   -1002    1637   1
  -6   4  14   52754    2713   1
  -5   4  14     132    1357   1
  -4   4  14  106008    2857   1
  -3   4  14    1564    1077   1
  -2   4  14   90536    2489   1
  -1   4  14    -302     916   1
   0   4  14  124121    3819   1
   1   4  14    1995    1076   1
   2   4  14  100074    2974   1
   3   4  14   -1082    1325   1
   4   4  14   91085    3351   1
  -6   5  14    8754    1772   1
  -5   5  14   57955    2510   1
  -4   5  14     907    1120   1
  -3   5  14   89712    2703   1
  -2   5  14   13383    1364   1
  -1   5  14   96737    2597   1
   0   5  14     734     996   1
   1   5  14   84859    2841   1
   2   5  14   13594    2027   1
   3   5  14   75799    3352   1
  -6   6  14   42528    2684   1
  -5   6  14    -917    1517   1
  -4   6  14   82266    3373   1
  -3   6  14    -509    1229   1
  -2   6  14   88239    2984   1
  -1   6  14     645    1209   1
   0   6  14   83457    3076   1
   1   6  14    -849    1516   1
   2   6  14   81450    2923   1
  -5   7  14   48848    2514   1
  -4   7  14   -1363    1403   1
  -3   7  14   66711    2989   1
  -2   7  14   15772    1885   1
  -1   7  14   65533    2882   1
   0   7  14     -30    1608   1
   1   7  14   66146    2919   1
  -3   8  14    1561    1553   1
  -2   8  14   52706    3044   1
  -1   8  14    -193    1796   1
  -7   0  15   39564    3699   1
  -5   0  15   60992    3323   1
  -3   0  15  103453    4054   1
  -1   0  15   95588    4454   1
   1   0  15  125663    4440   1
   3   0  15   97307    6027   1
  -7   1  15     604    2090   1
  -6   1  15   50886    2733   1
  -5   1  15     381    1136   1
  -4   1  15   87541    2746   1
  -3   1  15     155    1139   1
  -2   1  15  104629    3020   1
  -1   1  15    -532     944   1
   0   1  15  124396    3190   1
   1   1  15    1341    1076   1
   2   1  15  106751    2960   1
   3   1  15    -735    1472   1
  -7   2  15   42570    2795   1
  -6   2  15    6301    1785   1
  -5   2  15   59016    2583   1
  -4   2  15    -492    1145   1
  -3   2  15   78985    2653   1
  -2   2  15   18412    1530   1
  -1   2  15  110418    3065   1
   0   2  15   -1019    1027   1
   1   2  15  104756    3053   1
   2   2  15   14716    2379   1
   3   2  15   92192    3813   1
  -6   3  15   47506    2877   1
  -5   3  15     738    1451   1
  -4   3  15   95155    2937   1
  -3   3  15    1710    1159   1
  -2   3  15   91781    2882   1
  -1   3  15     105    1115   1
   0   3  15  107762    3147   1
   1   3  15     547    1265   1
   2   3  15  105027    3472   1
   3   3  15    -981    1518   1
  -6   4  15    7933    2045   1
  -5   4  15   53369    2584   1
  -4   4  15    2036    1228   1
  -3   4  15   70176    2546   1
  -2   4  15   12361    1429   1
  -1   4  15   82891    3375   1
   0   4  15     -82    1201   1
   1   4  15   96648    3143   1
   2   4  15   13171    1941   1
  -5   5  15     -92    1489   1
  -4   5  15   68323    2489   1
  -3   5  15     705    1274   1
  -2   5  15   72428    2978   1
  -1   5  15     -91    1331   1
   0   5  15   88051    3910   1
   1   5  15   -1339    1450   1
   2   5  15   72183    3179   1
  -4   6  15    -535    1379   1
  -3   6  15   61749    2441   1
  -2   6  15   15954    1826   1
  -1   6  15   74581    2758   1
   0   6  15    -159    1708   1
   1   6  15   62301    3198   1
  -6   0  16   39908    3740   1
  -4   0  16   92972    6317   1
  -2   0  16   89975    4566   1
   0   0  16  116698    5252   1
   2   0  16   79605    5011   1
  -6   1  16    8013    2502   1
  -5   1  16   55091    3188   1
  -4   1  16     768    1126   1
  -3   1  16   79559    2808   1
  -2   1  16   20993    1869   1
  -1   1  16   96939    3320   1
   0   1  16    -558    1263   1
   1   1  16   94457    4318   1
   2   1  16    9852    2151   1
  -5   2  16     971    1767   1
  -4   2  16   66299    2614   1
  -3   2  16   -1161    1161   1
  -2   2  16   91771    3139   1
  -1   2  16     899    1323   1
   0   2  16  104951    3231   1
   1   2  16     398    1490   1
   2   2  16   75874    3134   1
  -5   3  16   53555    2592   1
  -4   3  16     285    2047   1
  -3   3  16   71359    2707   1
  -2   3  16   16837    1621   1
  -1   3  16   85285    2931   1
   0   3  16    1118    1361   1
   1   3  16   81278    3035   1
  -4   4  16   66510    2789   1
  -3   4  16   -1335    1335   1
  -2   4  16   71918    2831   1
  -1   4  16   -1428    1428   1
   0   4  16   86001    2998   1
   1   4  16     -96    1854   1
  -3   5  16   46569    2306   1
  -2   5  16   12630    2174   1
  -1   5  16   66294    2781   1
  -3   0  17   64642    4015   1
  -1   0  17   75694    4326   1
  -4   1  17   56037    5441   1
  -3   1  17   -1327    1327   1
  -2   1  17   60791    3294   1
  -1   1  17    -842    1469   1
   0   1  17   77649    3126   1
  -3   2  17   52162    2486   1
  -2   2  17    9800    2152   1
  -1   2  17   67291    2894   1
;
_shelx_hkl_checksum              80175
loop_
_space_group_symop_operation_xyz
'x, y, z'
'-x+1/2, y+1/2, -z+1/2'
'-x, -y, -z'
'x-1/2, -y-1/2, z-1/2'
loop_
_atom_site_label
_atom_site_type_symbol
_atom_site_fract_x
_atom_site_fract_y
_atom_site_fract_z
_atom_site_U_iso_or_equiv
_atom_site_adp_type
_atom_site_occupancy
_atom_site_site_symmetry_order
_atom_site_calc_flag
_atom_site_refinement_flags_posn
_atom_site_refinement_flags_adp
_atom_site_refinement_flags_occupancy
_atom_site_disorder_assembly
_atom_site_disorder_group
Yb1 Yb 0.0000 0.0000 0.0000 0.02118(10) Uani 1 2 d S . P . .
C1 C 0.143(3) 0.009(3) 0.2491(15) 0.039(3) Uani 0.5 1 d . U P A 1
H1 H 0.1702 -0.0599 0.3150 0.047 Uiso 0.5 1 calc R U P A 1
C2 C 0.291(3) 0.019(3) 0.192(2) 0.043(4) Uani 0.5 1 d . U P A 1
H2 H 0.3822 -0.0502 0.2281 0.052 Uiso 0.5 1 calc R U P A 1
C3 C 0.355(3) 0.096(3) 0.099(2) 0.039(4) Uani 0.5 1 d . U P A 1
H3 H 0.4783 0.0691 0.0967 0.047 Uiso 0.5 1 calc R U P A 1
C4 C 0.291(3) 0.203(3) 0.007(2) 0.033(3) Uani 0.5 1 d . U P A 1
H4 H 0.3818 0.2219 -0.0422 0.040 Uiso 0.5 1 calc R U P A 1
C5 C 0.140(3) 0.285(2) -0.0322(15) 0.025(3) Uani 0.5 1 d . U P A 1
H5 H 0.1550 0.3427 -0.1020 0.030 Uiso 0.5 1 calc R U P A 1
C6 C -0.029(2) 0.3100(17) -0.0008(15) 0.024(3) Uani 0.5 1 d . U P A 1
H6 H -0.0870 0.3868 -0.0535 0.029 Uiso 0.5 1 calc R U P A 1
C7 C -0.152(2) 0.269(2) 0.0770(15) 0.024(2) Uani 0.5 1 d . U P A 1
H7 H -0.2651 0.3218 0.0571 0.029 Uiso 0.5 1 calc R U P A 1
C8 C -0.153(3) 0.171(2) 0.1768(16) 0.030(3) Uani 0.5 1 d . U P A 1
H8 H -0.2664 0.1773 0.2066 0.035 Uiso 0.5 1 calc R U P A 1
C9 C -0.033(4) 0.064(3) 0.2454(16) 0.038(4) Uani 0.5 1 d . U P A 1
H9 H -0.0907 0.0178 0.3062 0.045 Uiso 0.5 1 calc R U P A 1
C10 C -0.222(3) 0.027(3) -0.2316(15) 0.040(4) Uani 0.5 1 d . U P A 2
H10 H -0.2768 0.1097 -0.2782 0.048 Uiso 0.5 1 calc R U P A 2
C11 C -0.340(2) -0.032(2) -0.1561(17) 0.030(3) Uani 0.5 1 d . U P A 2
H11 H -0.4579 0.0141 -0.1758 0.037 Uiso 0.5 1 calc R U P A 2
C12 C -0.341(3) -0.138(3) -0.0602(19) 0.033(3) Uani 0.5 1 d . U P A 2
H12 H -0.4573 -0.1355 -0.0347 0.040 Uiso 0.5 1 calc R U P A 2
C13 C -0.234(4) -0.239(3) 0.007(2) 0.037(4) Uani 0.5 1 d . U P A 2
H13 H -0.2975 -0.2805 0.0664 0.044 Uiso 0.5 1 calc R U P A 2
C14 C -0.066(3) -0.302(2) 0.018(2) 0.044(4) Uani 0.5 1 d . U P A 2
H14 H -0.0519 -0.3763 0.0809 0.053 Uiso 0.5 1 calc R U P A 2
C15 C 0.092(3) -0.293(2) -0.034(2) 0.037(4) Uani 0.5 1 d . U P A 2
H15 H 0.1856 -0.3572 0.0076 0.045 Uiso 0.5 1 calc R U P A 2
C16 C 0.154(3) -0.214(3) -0.131(3) 0.045(4) Uani 0.5 1 d . U P A 2
H16 H 0.2705 -0.2521 -0.1416 0.054 Uiso 0.5 1 calc R U P A 2
C17 C 0.099(3) -0.099(3) -0.218(2) 0.044(4) Uani 0.5 1 d . U P A 2
H17 H 0.1933 -0.0795 -0.2644 0.052 Uiso 0.5 1 calc R U P A 2
C18 C -0.055(3) -0.002(3) -0.2554(12) 0.034(3) Uani 0.5 1 d . U P A 2
H18 H -0.0300 0.0630 -0.3185 0.041 Uiso 0.5 1 calc R U P A 2
loop_
_atom_site_aniso_label
_atom_site_aniso_U_11
_atom_site_aniso_U_22
_atom_site_aniso_U_33
_atom_site_aniso_U_23
_atom_site_aniso_U_13
_atom_site_aniso_U_12
Yb1 0.02548(17) 0.02024(15) 0.01644(14) -0.00283(17) -0.00021(11) -0.0025(2)
C1 0.045(7) 0.045(9) 0.027(6) -0.008(7) 0.000(5) -0.002(6)
C2 0.038(7) 0.056(11) 0.032(7) -0.007(7) -0.005(5) -0.005(7)
C3 0.029(7) 0.047(9) 0.039(8) -0.007(6) -0.004(6) -0.003(6)
C4 0.023(6) 0.038(8) 0.039(7) -0.014(5) 0.007(5) -0.004(5)
C5 0.027(6) 0.030(7) 0.023(5) -0.005(5) 0.017(5) -0.006(5)
C6 0.024(6) 0.022(5) 0.029(5) -0.005(5) 0.010(5) -0.004(4)
C7 0.022(5) 0.030(6) 0.022(5) -0.007(4) 0.010(4) -0.001(5)
C8 0.034(6) 0.035(7) 0.021(5) -0.008(5) 0.011(5) -0.009(5)
C9 0.047(8) 0.046(8) 0.020(6) -0.002(6) 0.008(5) -0.001(6)
C10 0.036(6) 0.059(11) 0.023(6) -0.001(6) 0.002(5) -0.001(6)
C11 0.024(6) 0.042(8) 0.024(6) -0.008(5) 0.001(4) -0.002(5)
C12 0.032(7) 0.039(8) 0.029(7) -0.009(5) 0.008(5) -0.004(5)
C13 0.037(8) 0.038(8) 0.036(7) -0.001(6) 0.006(6) -0.005(6)
C14 0.038(8) 0.022(7) 0.072(12) -0.005(7) 0.011(7) -0.004(6)
C15 0.021(7) 0.032(8) 0.055(9) -0.013(6) -0.004(6) -0.003(6)
C16 0.037(8) 0.043(8) 0.053(10) -0.014(7) 0.002(7) -0.005(6)
C17 0.039(8) 0.047(8) 0.044(9) -0.016(6) 0.004(6) -0.006(6)
C18 0.037(6) 0.048(7) 0.016(5) -0.012(6) 0.004(4) -0.007(6)
loop_
_atom_type_symbol
_atom_type_description
_atom_type_scat_dispersion_real
_atom_type_scat_dispersion_imag
_atom_type_scat_source
C C 0.0033 0.0016 'International Tables Vol C Tables 4.2.6.8 and 6.1.1.4'
H H 0.0000 0.0000 'International Tables Vol C Tables 4.2.6.8 and 6.1.1.4'
Yb Yb -0.3850 5.5486 'International Tables Vol C Tables 4.2.6.8 and 6.1.1.4'
loop_
_geom_angle_atom_site_label_1
_geom_angle_atom_site_label_2
_geom_angle_atom_site_label_3
_geom_angle
_geom_angle_site_symmetry_1
_geom_angle_site_symmetry_3
C15 Yb1 C15 180.0 3 .
C15 Yb1 C13 124.3(8) 3 .
C15 Yb1 C13 55.7(8) . .
C15 Yb1 C13 55.7(8) 3 3
C15 Yb1 C13 124.3(8) . 3
C13 Yb1 C13 180.0(6) . 3
C2 Yb1 C2 180.0 . 3
C15 Yb1 C14 150.6(7) 3 .
C15 Yb1 C14 29.4(7) . .
C13 Yb1 C14 28.2(7) . .
C13 Yb1 C14 151.8(7) 3 .
C15 Yb1 C14 29.4(7) 3 3
C15 Yb1 C14 150.6(7) . 3
C13 Yb1 C14 151.8(7) . 3
C13 Yb1 C14 28.2(7) 3 3
C14 Yb1 C14 180.0 . 3
C15 Yb1 C16 30.1(7) 3 3
C15 Yb1 C16 149.9(7) . 3
C13 Yb1 C16 101.8(8) . 3
C13 Yb1 C16 78.2(8) 3 3
C14 Yb1 C16 123.0(8) . 3
C14 Yb1 C16 57.0(8) 3 3
C15 Yb1 C16 149.9(7) 3 .
C15 Yb1 C16 30.1(7) . .
C13 Yb1 C16 78.2(8) . .
C13 Yb1 C16 101.8(8) 3 .
C14 Yb1 C16 57.0(8) . .
C14 Yb1 C16 123.0(8) 3 .
C16 Yb1 C16 180.0 3 .
C2 Yb1 C6 89.4(6) . .
C2 Yb1 C6 90.6(6) 3 .
C2 Yb1 C6 90.6(6) . 3
C2 Yb1 C6 89.4(6) 3 3
C6 Yb1 C6 180.0 . 3
C15 Yb1 C12 102.6(6) 3 .
C15 Yb1 C12 77.4(6) . .
C13 Yb1 C12 28.0(6) . .
C13 Yb1 C12 152.0(6) 3 .
C14 Yb1 C12 54.5(7) . .
C14 Yb1 C12 125.5(7) 3 .
C16 Yb1 C12 89.6(6) 3 .
C16 Yb1 C12 90.4(6) . .
C15 Yb1 C12 77.4(6) 3 3
C15 Yb1 C12 102.6(6) . 3
C13 Yb1 C12 152.0(6) . 3
C13 Yb1 C12 28.0(6) 3 3
C14 Yb1 C12 125.5(7) . 3
C14 Yb1 C12 54.5(7) 3 3
C16 Yb1 C12 90.4(6) 3 3
C16 Yb1 C12 89.6(6) . 3
C12 Yb1 C12 180.0 . 3
C2 Yb1 C1 151.6(7) . 3
C2 Yb1 C1 28.4(7) 3 3
C6 Yb1 C1 90.6(6) . 3
C6 Yb1 C1 89.4(6) 3 3
C2 Yb1 C1 28.4(7) . .
C2 Yb1 C1 151.6(7) 3 .
C6 Yb1 C1 89.4(6) . .
C6 Yb1 C1 90.6(6) 3 .
C1 Yb1 C1 180.0 3 .
C15 Yb1 C17 58.1(8) 3 3
C15 Yb1 C17 121.9(8) . 3
C13 Yb1 C17 87.7(7) . 3
C13 Yb1 C17 92.3(7) 3 3
C14 Yb1 C17 99.8(8) . 3
C14 Yb1 C17 80.2(8) 3 3
C16 Yb1 C17 29.6(8) 3 3
C16 Yb1 C17 150.4(8) . 3
C12 Yb1 C17 89.0(6) . 3
C12 Yb1 C17 91.0(6) 3 3
C15 Yb1 C17 121.9(8) 3 .
C15 Yb1 C17 58.1(8) . .
C13 Yb1 C17 92.3(7) . .
C13 Yb1 C17 87.7(7) 3 .
C14 Yb1 C17 80.2(8) . .
C14 Yb1 C17 99.8(8) 3 .
C16 Yb1 C17 150.4(8) 3 .
C16 Yb1 C17 29.6(8) . .
C12 Yb1 C17 91.0(6) . .
C12 Yb1 C17 89.0(6) 3 .
C17 Yb1 C17 180.0 3 .
C15 Yb1 C18 81.5(8) 3 3
C15 Yb1 C18 98.5(8) . 3
C13 Yb1 C18 87.7(6) . 3
C13 Yb1 C18 92.3(6) 3 3
C14 Yb1 C18 85.9(8) . 3
C14 Yb1 C18 94.1(8) 3 3
C16 Yb1 C18 57.5(8) 3 3
C16 Yb1 C18 122.5(8) . 3
C12 Yb1 C18 102.3(6) . 3
C12 Yb1 C18 77.7(6) 3 3
C17 Yb1 C18 29.9(7) 3 3
C17 Yb1 C18 150.1(7) . 3
C15 Yb1 C18 98.5(8) 3 .
C15 Yb1 C18 81.5(8) . .
C13 Yb1 C18 92.3(6) . .
C13 Yb1 C18 87.7(6) 3 .
C14 Yb1 C18 94.1(8) . .
C14 Yb1 C18 85.9(8) 3 .
C16 Yb1 C18 122.5(8) 3 .
C16 Yb1 C18 57.5(8) . .
C12 Yb1 C18 77.7(6) . .
C12 Yb1 C18 102.3(6) 3 .
C17 Yb1 C18 150.1(7) 3 .
C17 Yb1 C18 29.9(7) . .
C18 Yb1 C18 180.0 3 .
C2 Yb1 C5 77.5(7) . .
C2 Yb1 C5 102.5(7) 3 .
C6 Yb1 C5 28.6(5) . .
C6 Yb1 C5 151.4(5) 3 .
C1 Yb1 C5 89.2(6) 3 .
C1 Yb1 C5 90.8(6) . .
C2 Yb1 C5 102.5(7) . 3
C2 Yb1 C5 77.5(7) 3 3
C6 Yb1 C5 151.4(5) . 3
C6 Yb1 C5 28.6(5) 3 3
C1 Yb1 C5 90.8(6) 3 3
C1 Yb1 C5 89.2(6) . 3
C5 Yb1 C5 180.0 . 3
C2 Yb1 C3 151.2(7) . 3
C2 Yb1 C3 28.8(7) 3 3
C6 Yb1 C3 103.7(6) . 3
C6 Yb1 C3 76.3(6) 3 3
C1 Yb1 C3 55.3(7) 3 3
C1 Yb1 C3 124.7(7) . 3
C5 Yb1 C3 124.9(7) . 3
C5 Yb1 C3 55.1(7) 3 3
C2 Yb1 C3 28.8(7) . .
C2 Yb1 C3 151.2(7) 3 .
C6 Yb1 C3 76.3(6) . .
C6 Yb1 C3 103.7(6) 3 .
C1 Yb1 C3 124.7(7) 3 .
C1 Yb1 C3 55.3(7) . .
C5 Yb1 C3 55.1(7) . .
C5 Yb1 C3 124.9(7) 3 .
C3 Yb1 C3 180.0 3 .
C2 Yb1 C4 56.4(8) . .
C2 Yb1 C4 123.6(8) 3 .
C6 Yb1 C4 54.1(6) . .
C6 Yb1 C4 125.9(6) 3 .
C1 Yb1 C4 101.8(7) 3 .
C1 Yb1 C4 78.2(7) . .
C5 Yb1 C4 27.6(6) . .
C5 Yb1 C4 152.4(6) 3 .
C3 Yb1 C4 150.6(7) 3 .
C3 Yb1 C4 29.4(7) . .
C2 Yb1 C4 123.6(8) . 3
C2 Yb1 C4 56.4(8) 3 3
C6 Yb1 C4 125.9(6) . 3
C6 Yb1 C4 54.1(6) 3 3
C1 Yb1 C4 78.2(7) 3 3
C1 Yb1 C4 101.8(7) . 3
C5 Yb1 C4 152.4(6) . 3
C5 Yb1 C4 27.6(6) 3 3
C3 Yb1 C4 29.4(7) 3 3
C3 Yb1 C4 150.6(7) . 3
C4 Yb1 C4 180.0 . 3
C15 Yb1 C10 94.4(6) 3 3
C15 Yb1 C10 85.6(6) . 3
C13 Yb1 C10 100.3(7) . 3
C13 Yb1 C10 79.7(7) 3 3
C14 Yb1 C10 86.2(7) . 3
C14 Yb1 C10 93.8(7) 3 3
C16 Yb1 C10 78.9(7) 3 3
C16 Yb1 C10 101.1(7) . 3
C12 Yb1 C10 123.0(6) . 3
C12 Yb1 C10 57.0(6) 3 3
C17 Yb1 C10 55.6(7) 3 3
C17 Yb1 C10 124.4(7) . 3
C18 Yb1 C10 27.5(5) 3 3
C18 Yb1 C10 152.5(5) . 3
C15 Yb1 C10 85.6(6) 3 .
C15 Yb1 C10 94.4(6) . .
C13 Yb1 C10 79.7(7) . .
C13 Yb1 C10 100.3(7) 3 .
C14 Yb1 C10 93.8(7) . .
C14 Yb1 C10 86.2(7) 3 .
C16 Yb1 C10 101.1(7) 3 .
C16 Yb1 C10 78.9(7) . .
C12 Yb1 C10 57.0(6) . .
C12 Yb1 C10 123.0(6) 3 .
C17 Yb1 C10 124.4(7) 3 .
C17 Yb1 C10 55.6(7) . .
C18 Yb1 C10 152.5(5) 3 .
C18 Yb1 C10 27.5(5) . .
C10 Yb1 C10 180.0(9) 3 .
C15 Yb1 C11 87.9(5) 3 .
C15 Yb1 C11 92.1(5) . .
C13 Yb1 C11 55.9(6) . .
C13 Yb1 C11 124.1(6) 3 .
C14 Yb1 C11 78.1(6) . .
C14 Yb1 C11 101.9(6) 3 .
C16 Yb1 C11 89.3(6) 3 .
C16 Yb1 C11 90.7(6) . .
C12 Yb1 C11 29.5(6) . .
C12 Yb1 C11 150.5(6) 3 .
C17 Yb1 C11 102.8(6) 3 .
C17 Yb1 C11 77.2(6) . .
C18 Yb1 C11 125.7(5) 3 .
C18 Yb1 C11 54.3(5) . .
C10 Yb1 C11 150.9(5) 3 .
C10 Yb1 C11 29.1(5) . .
C15 Yb1 C11 92.1(5) 3 3
C15 Yb1 C11 87.9(5) . 3
C13 Yb1 C11 124.1(6) . 3
C13 Yb1 C11 55.9(6) 3 3
C14 Yb1 C11 101.9(6) . 3
C14 Yb1 C11 78.1(6) 3 3
C16 Yb1 C11 90.7(6) 3 3
C16 Yb1 C11 89.3(6) . 3
C12 Yb1 C11 150.5(6) . 3
C12 Yb1 C11 29.5(6) 3 3
C17 Yb1 C11 77.2(6) 3 3
C17 Yb1 C11 102.8(6) . 3
C18 Yb1 C11 54.3(5) 3 3
C18 Yb1 C11 125.7(5) . 3
C10 Yb1 C11 29.1(5) 3 3
C10 Yb1 C11 150.9(5) . 3
C11 Yb1 C11 180.0 . 3
C2 Yb1 C9 55.4(7) . .
C2 Yb1 C9 124.6(7) 3 .
C6 Yb1 C9 77.3(6) . .
C6 Yb1 C9 102.7(6) 3 .
C1 Yb1 C9 151.3(7) 3 .
C1 Yb1 C9 28.7(7) . .
C5 Yb1 C9 92.0(5) . .
C5 Yb1 C9 88.0(5) 3 .
C3 Yb1 C9 102.0(7) 3 .
C3 Yb1 C9 78.0(7) . .
C4 Yb1 C9 92.1(6) . .
C4 Yb1 C9 87.9(6) 3 .
C2 Yb1 C9 124.6(7) . 3
C2 Yb1 C9 55.4(7) 3 3
C6 Yb1 C9 102.7(6) . 3
C6 Yb1 C9 77.3(6) 3 3
C1 Yb1 C9 28.7(7) 3 3
C1 Yb1 C9 151.3(7) . 3
C5 Yb1 C9 88.0(5) . 3
C5 Yb1 C9 92.0(5) 3 3
C3 Yb1 C9 78.0(7) 3 3
C3 Yb1 C9 102.0(7) . 3
C4 Yb1 C9 87.9(6) . 3
C4 Yb1 C9 92.1(6) 3 3
C9 Yb1 C9 180.0 . 3
C2 Yb1 C7 90.7(6) . .
C2 Yb1 C7 89.3(6) 3 .
C6 Yb1 C7 28.9(4) . .
C6 Yb1 C7 151.1(4) 3 .
C1 Yb1 C7 102.8(6) 3 .
C1 Yb1 C7 77.2(6) . .
C5 Yb1 C7 56.3(6) . .
C5 Yb1 C7 123.7(6) 3 .
C3 Yb1 C7 89.1(6) 3 .
C3 Yb1 C7 90.9(6) . .
C4 Yb1 C7 77.7(5) . .
C4 Yb1 C7 102.3(5) 3 .
C9 Yb1 C7 55.6(6) . .
C9 Yb1 C7 124.4(6) 3 .
C2 Yb1 C7 89.3(6) . 3
C2 Yb1 C7 90.7(6) 3 3
C6 Yb1 C7 151.1(4) . 3
C6 Yb1 C7 28.9(4) 3 3
C1 Yb1 C7 77.2(6) 3 3
C1 Yb1 C7 102.8(6) . 3
C5 Yb1 C7 123.7(6) . 3
C5 Yb1 C7 56.3(6) 3 3
C3 Yb1 C7 90.9(6) 3 3
C3 Yb1 C7 89.1(6) . 3
C4 Yb1 C7 102.3(5) . 3
C4 Yb1 C7 77.7(5) 3 3
C9 Yb1 C7 124.4(6) . 3
C9 Yb1 C7 55.6(6) 3 3
C7 Yb1 C7 180.0(6) . 3
C2 Yb1 C8 102.2(6) . 3
C2 Yb1 C8 77.8(6) 3 3
C6 Yb1 C8 124.6(5) . 3
C6 Yb1 C8 55.4(5) 3 3
C1 Yb1 C8 55.5(7) 3 3
C1 Yb1 C8 124.5(7) . 3
C5 Yb1 C8 101.3(5) . 3
C5 Yb1 C8 78.7(5) 3 3
C3 Yb1 C8 91.3(6) 3 3
C3 Yb1 C8 88.7(6) . 3
C4 Yb1 C8 88.2(5) . 3
C4 Yb1 C8 91.8(5) 3 3
C9 Yb1 C8 151.0(6) . 3
C9 Yb1 C8 29.0(6) 3 3
C7 Yb1 C8 151.4(5) . 3
C7 Yb1 C8 28.6(5) 3 3
C2 Yb1 C8 77.8(6) . .
C2 Yb1 C8 102.2(6) 3 .
C6 Yb1 C8 55.4(5) . .
C6 Yb1 C8 124.6(5) 3 .
C1 Yb1 C8 124.5(7) 3 .
C1 Yb1 C8 55.5(7) . .
C5 Yb1 C8 78.7(5) . .
C5 Yb1 C8 101.3(5) 3 .
C3 Yb1 C8 88.7(6) 3 .
C3 Yb1 C8 91.3(6) . .
C4 Yb1 C8 91.8(5) . .
C4 Yb1 C8 88.2(5) 3 .
C9 Yb1 C8 29.0(6) . .
C9 Yb1 C8 151.0(6) 3 .
C7 Yb1 C8 28.6(5) . .
C7 Yb1 C8 151.4(5) 3 .
C8 Yb1 C8 180.0 3 .
C2 C1 C9 142(2) . .
C2 C1 Yb1 74.8(10) . .
C9 C1 Yb1 77.7(10) . .
C2 C1 H1 108.8 . .
C9 C1 H1 108.8 . .
Yb1 C1 H1 137.4 . .
C1 C2 C3 142(2) . .
C1 C2 Yb1 76.8(11) . .
C3 C2 Yb1 77.1(11) . .
C1 C2 H2 109.2 . .
C3 C2 H2 109.2 . .
Yb1 C2 H2 133.2 . .
C2 C3 C4 139(2) . .
C2 C3 Yb1 74.0(11) . .
C4 C3 Yb1 75.5(10) . .
C2 C3 H3 110.5 . .
C4 C3 H3 110.5 . .
Yb1 C3 H3 138.7 . .
C5 C4 C3 139.0(19) . .
C5 C4 Yb1 75.8(10) . .
C3 C4 Yb1 75.1(12) . .
C5 C4 H4 110.5 . .
C3 C4 H4 110.5 . .
Yb1 C4 H4 135.8 . .
C4 C5 C6 138.6(17) . .
C4 C5 Yb1 76.5(11) . .
C6 C5 Yb1 75.0(9) . .
C4 C5 H5 110.7 . .
C6 C5 H5 110.7 . .
Yb1 C5 H5 134.0 . .
C5 C6 C7 145.7(17) . .
C5 C6 Yb1 76.4(10) . .
C7 C6 Yb1 78.2(9) . .
C5 C6 H6 107.1 . .
C7 C6 H6 107.1 . .
Yb1 C6 H6 138.2 . .
C6 C7 C8 137.3(16) . .
C6 C7 Yb1 72.8(8) . .
C8 C7 Yb1 76.5(10) . .
C6 C7 H7 111.3 . .
C8 C7 H7 111.3 . .
Yb1 C7 H7 136.5 . .
C7 C8 C9 137.9(17) . .
C7 C8 Yb1 74.8(9) . .
C9 C8 Yb1 74.2(10) . .
C7 C8 H8 111.0 . .
C9 C8 H8 111.0 . .
Yb1 C8 H8 138.2 . .
C1 C9 C8 138.3(18) . .
C1 C9 Yb1 73.6(10) . .
C8 C9 Yb1 76.9(9) . .
C1 C9 H9 110.9 . .
C8 C9 H9 110.9 . .
Yb1 C9 H9 135.6 . .
C18 C10 C11 137(2) . .
C18 C10 Yb1 75.5(9) . .
C11 C10 Yb1 75.6(9) . .
C18 C10 H10 111.3 . .
C11 C10 H10 111.3 . .
Yb1 C10 H10 133.5 . .
C10 C11 C12 140.5(18) . .
C10 C11 Yb1 75.3(9) . .
C12 C11 Yb1 74.0(10) . .
C10 C11 H11 109.8 . .
C12 C11 H11 109.8 . .
Yb1 C11 H11 141.4 . .
C13 C12 C11 141.7(19) . .
C13 C12 Yb1 75.0(12) . .
C11 C12 Yb1 76.5(10) . .
C13 C12 H12 109.1 . .
C11 C12 H12 109.1 . .
Yb1 C12 H12 138.6 . .
C12 C13 C14 141(2) . .
C12 C13 Yb1 76.9(12) . .
C14 C13 Yb1 76.0(12) . .
C12 C13 H13 109.3 . .
C14 C13 H13 109.3 . .
Yb1 C13 H13 135.1 . .
C13 C14 C15 140(2) . .
C13 C14 Yb1 75.8(12) . .
C15 C14 Yb1 74.8(13) . .
C13 C14 H14 110.2 . .
C15 C14 H14 110.2 . .
Yb1 C14 H14 137.2 . .
C14 C15 C16 138(2) . .
C14 C15 Yb1 75.8(12) . .
C16 C15 Yb1 75.7(12) . .
C14 C15 H15 111.0 . .
C16 C15 H15 111.0 . .
Yb1 C15 H15 133.3 . .
C17 C16 C15 141(2) . .
C17 C16 Yb1 75.9(13) . .
C15 C16 Yb1 74.2(12) . .
C17 C16 H16 109.5 . .
C15 C16 H16 109.5 . .
Yb1 C16 H16 140.7 . .
C16 C17 C18 139(2) . .
C16 C17 Yb1 74.5(13) . .
C18 C17 Yb1 75.3(10) . .
C16 C17 H17 110.6 . .
C18 C17 H17 110.6 . .
Yb1 C17 H17 138.0 . .
C10 C18 C17 141(2) . .
C10 C18 Yb1 77.0(9) . .
C17 C18 Yb1 74.8(11) . .
C10 C18 H18 109.5 . .
C17 C18 H18 109.5 . .
Yb1 C18 H18 136.8 . .
loop_
_geom_bond_atom_site_label_1
_geom_bond_atom_site_label_2
_geom_bond_distance
_geom_bond_site_symmetry_2
Yb1 C15 2.74(2) 3
Yb1 C15 2.74(2) .
Yb1 C13 2.75(2) .
Yb1 C13 2.75(2) 3
Yb1 C2 2.753(18) .
Yb1 C2 2.753(18) 3
Yb1 C14 2.75(2) .
Yb1 C14 2.75(2) 3
Yb1 C16 2.76(2) 3
Yb1 C16 2.76(2) .
Yb1 C6 2.772(15) .
Yb1 C6 2.772(15) 3
Yb1 C12 2.77(2) .
Yb1 C12 2.77(2) 3
Yb1 C1 2.777(16) 3
Yb1 C1 2.777(16) .
Yb1 C17 2.78(2) 3
Yb1 C17 2.78(2) .
Yb1 C18 2.785(13) 3
Yb1 C18 2.785(13) .
Yb1 C5 2.789(16) .
Yb1 C5 2.789(16) 3
Yb1 C3 2.79(2) 3
Yb1 C3 2.79(2) .
Yb1 C4 2.797(19) .
Yb1 C4 2.797(19) 3
Yb1 C10 2.803(16) 3
Yb1 C10 2.803(16) .
Yb1 C11 2.806(16) .
Yb1 C11 2.806(16) 3
Yb1 C9 2.828(18) .
Yb1 C9 2.828(18) 3
Yb1 C7 2.841(15) .
Yb1 C7 2.841(15) 3
Yb1 C8 2.863(16) 3
Yb1 C8 2.863(16) .
C1 C2 1.36(3) .
C1 C9 1.39(3) .
C1 H1 0.9500 .
C2 C3 1.38(3) .
C2 H2 0.9500 .
C3 C4 1.42(3) .
C3 H3 0.9500 .
C4 C5 1.33(3) .
C4 H4 0.9500 .
C5 C6 1.38(2) .
C5 H5 0.9500 .
C6 C7 1.40(2) .
C6 H6 0.9500 .
C7 C8 1.41(2) .
C7 H7 0.9500 .
C8 C9 1.42(3) .
C8 H8 0.9500 .
C9 H9 0.9500 .
C10 C18 1.33(3) .
C10 C11 1.41(3) .
C10 H10 0.9500 .
C11 C12 1.42(3) .
C11 H11 0.9500 .
C12 C13 1.34(3) .
C12 H12 0.9500 .
C13 C14 1.34(3) .
C13 H13 0.9500 .
C14 C15 1.39(3) .
C14 H14 0.9500 .
C15 C16 1.43(4) .
C15 H15 0.9500 .
C16 C17 1.42(4) .
C16 H16 0.9500 .
C17 C18 1.43(3) .
C17 H17 0.9500 .
C18 H18 0.9500 .
loop_
_geom_torsion_atom_site_label_1
_geom_torsion_atom_site_label_2
_geom_torsion_atom_site_label_3
_geom_torsion_atom_site_label_4
_geom_torsion
C9 C1 C2 C3 4(6)
Yb1 C1 C2 C3 48(3)
C9 C1 C2 Yb1 -45(3)
C1 C2 C3 C4 -5(5)
Yb1 C2 C3 C4 43(3)
C1 C2 C3 Yb1 -48(3)
C2 C3 C4 C5 3(4)
Yb1 C3 C4 C5 46(2)
C2 C3 C4 Yb1 -43(3)
C3 C4 C5 C6 2(4)
Yb1 C4 C5 C6 48(2)
C3 C4 C5 Yb1 -46(2)
C4 C5 C6 C7 -5(4)
Yb1 C5 C6 C7 43(2)
C4 C5 C6 Yb1 -48(2)
C5 C6 C7 C8 3(4)
Yb1 C6 C7 C8 46.0(19)
C5 C6 C7 Yb1 -43(2)
C6 C7 C8 C9 -1(3)
Yb1 C7 C8 C9 44(2)
C6 C7 C8 Yb1 -45.0(18)
C2 C1 C9 C8 -3(5)
Yb1 C1 C9 C8 -47(2)
C2 C1 C9 Yb1 44(3)
C7 C8 C9 C1 2(4)
Yb1 C8 C9 C1 46(2)
C7 C8 C9 Yb1 -44(2)
C18 C10 C11 C12 8(4)
Yb1 C10 C11 C12 -40(2)
C18 C10 C11 Yb1 48(2)
C10 C11 C12 C13 -2(4)
Yb1 C11 C12 C13 -43(3)
C10 C11 C12 Yb1 40(2)
C11 C12 C13 C14 -3(5)
Yb1 C12 C13 C14 -46(3)
C11 C12 C13 Yb1 43(3)
C12 C13 C14 C15 2(5)
Yb1 C13 C14 C15 -45(3)
C12 C13 C14 Yb1 47(3)
C13 C14 C15 C16 -4(5)
Yb1 C14 C15 C16 -49(2)
C13 C14 C15 Yb1 45(3)
C14 C15 C16 C17 8(5)
Yb1 C15 C16 C17 -41(3)
C14 C15 C16 Yb1 49(2)
C15 C16 C17 C18 -3(5)
Yb1 C16 C17 C18 -44(3)
C15 C16 C17 Yb1 41(3)
C11 C10 C18 C17 -4(4)
Yb1 C10 C18 C17 45(3)
C11 C10 C18 Yb1 -49(2)
C16 C17 C18 C10 -1(5)
Yb1 C17 C18 C10 -45(3)
C16 C17 C18 Yb1 44(3)
