#------------------------------------------------------------------------------
#$Date: 2019-11-26 10:30:03 +0200 (Tue, 26 Nov 2019) $
#$Revision: 243236 $
#$URL: file:///home/coder/svn-repositories/cod/cif/4/13/34/4133462.cif $
#------------------------------------------------------------------------------
#
# This file is available in the Crystallography Open Database (COD),
# http://www.crystallography.net/
#
# All data on this site have been placed in the public domain by the
# contributors.
#
data_4133462
loop_
_publ_author_name
'Baxter, Amanda F.'
'Martin, Igor'
'Christe, Karl O.'
'Haiges, Ralf'
_publ_section_title
;
 Formamidinium Nitroformate: An Insensitive RDX Alternative.
;
_journal_issue                   44
_journal_name_full               'Journal of the American Chemical Society'
_journal_page_first              15089
_journal_page_last               15098
_journal_paper_doi               10.1021/jacs.8b10200
_journal_volume                  140
_journal_year                    2018
_chemical_formula_moiety         'C N3 O6, C H7 N2'
_chemical_formula_sum            'C2 H7 N5 O6'
_chemical_formula_weight         197.13
_chemical_name_systematic        'methylhydrazinium nitroformate'
_space_group_crystal_system      monoclinic
_space_group_IT_number           14
_space_group_name_Hall           '-P 2yn'
_space_group_name_H-M_alt        'P 1 21/n 1'
_atom_sites_solution_hydrogens   mixed
_atom_sites_solution_primary     dual
_audit_creation_date             2018-04-04
_audit_creation_method
;
Olex2 1.2
(compiled 2017.08.10 svn.r3458 for OlexSys, GUI svn.r5381)
;
_cell_angle_alpha                90
_cell_angle_beta                 108.348(2)
_cell_angle_gamma                90
_cell_formula_units_Z            4
_cell_length_a                   8.5003(11)
_cell_length_b                   9.2107(12)
_cell_length_c                   10.3713(14)
_cell_measurement_reflns_used    6812
_cell_measurement_temperature    100(2)
_cell_measurement_theta_max      30.307
_cell_measurement_theta_min      2.715
_cell_volume                     770.73(18)
_computing_cell_refinement       'SAINT v8.34A (Bruker, 2013)'
_computing_data_reduction        'SAINT v8.34A (Bruker, 2013)'
_computing_molecular_graphics    'Olex2 (Dolomanov et al., 2009)'
_computing_publication_material  'Olex2 (Dolomanov et al., 2009)'
_computing_structure_refinement  'ShelXL (Sheldrick, 2015)'
_computing_structure_solution    'ShelXT (Sheldrick, 2015)'
_diffrn_ambient_temperature      100.0
_diffrn_detector                 'CCD area detector'
_diffrn_detector_area_resol_mean 7.9
_diffrn_detector_type            'Bruker SMART CCD 1K area detector'
_diffrn_measured_fraction_theta_full 1.000
_diffrn_measured_fraction_theta_max 0.997
_diffrn_measurement_device       'three-circle diffractometer'
_diffrn_measurement_device_type  'Bruker SMART CCD 1K area detector'
_diffrn_measurement_method       '\w scans'
_diffrn_radiation_monochromator  graphite
_diffrn_radiation_probe          x-ray
_diffrn_radiation_type           MoK\a
_diffrn_radiation_wavelength     0.71073
_diffrn_reflns_av_R_equivalents  0.0498
_diffrn_reflns_av_unetI/netI     0.0292
_diffrn_reflns_Laue_measured_fraction_full 1.000
_diffrn_reflns_Laue_measured_fraction_max 0.997
_diffrn_reflns_limit_h_max       12
_diffrn_reflns_limit_h_min       -12
_diffrn_reflns_limit_k_max       13
_diffrn_reflns_limit_k_min       -13
_diffrn_reflns_limit_l_max       14
_diffrn_reflns_limit_l_min       -14
_diffrn_reflns_number            18851
_diffrn_reflns_point_group_measured_fraction_full 1.000
_diffrn_reflns_point_group_measured_fraction_max 0.997
_diffrn_reflns_theta_full        25.242
_diffrn_reflns_theta_max         30.590
_diffrn_reflns_theta_min         2.714
_diffrn_source                   'sealed X-ray tube'
_diffrn_source_target            Mo
_exptl_absorpt_coefficient_mu    0.166
_exptl_absorpt_correction_T_max  0.7461
_exptl_absorpt_correction_T_min  0.6626
_exptl_absorpt_correction_type   multi-scan
_exptl_absorpt_process_details
'SADABS-2014/5 (Bruker,2014/5) was used for absorption correction. wR2(int) was 0.0599 before and 0.0511 after correction. The Ratio of minimum to maximum transmission is 0.8881. The \l/2 correction factor is 0.00150.'
_exptl_crystal_colour            'clear light yellow'
_exptl_crystal_colour_lustre     clear
_exptl_crystal_colour_modifier   light
_exptl_crystal_colour_primary    yellow
_exptl_crystal_density_diffrn    1.699
_exptl_crystal_description       prism
_exptl_crystal_F_000             408
_exptl_crystal_size_max          0.179
_exptl_crystal_size_mid          0.146
_exptl_crystal_size_min          0.09
_refine_diff_density_max         0.376
_refine_diff_density_min         -0.326
_refine_diff_density_rms         0.059
_refine_ls_extinction_method     none
_refine_ls_goodness_of_fit_ref   1.037
_refine_ls_hydrogen_treatment    mixed
_refine_ls_matrix_type           full
_refine_ls_number_parameters     131
_refine_ls_number_reflns         2358
_refine_ls_number_restraints     0
_refine_ls_restrained_S_all      1.037
_refine_ls_R_factor_all          0.0525
_refine_ls_R_factor_gt           0.0338
_refine_ls_shift/su_max          0.000
_refine_ls_shift/su_mean         0.000
_refine_ls_structure_factor_coef Fsqd
_refine_ls_weighting_details
'w=1/[\s^2^(Fo^2^)+(0.0371P)^2^+0.2247P] where P=(Fo^2^+2Fc^2^)/3'
_refine_ls_weighting_scheme      calc
_refine_ls_wR_factor_gt          0.0769
_refine_ls_wR_factor_ref         0.0855
_reflns_Friedel_coverage         0.000
_reflns_number_gt                1818
_reflns_number_total             2358
_reflns_threshold_expression     'I > 2\s(I)'
_cod_data_source_file            Comp1.cif
_cod_data_source_block           Comp1
_cod_database_code               4133462
_shelx_shelxl_version_number     2017/1
_shelx_space_group_comment
;
The symmetry employed for this shelxl refinement is uniquely defined
by the following loop, which should always be used as a source of
symmetry information in preference to the above space-group names.
They are only intended as comments.
;
_shelx_estimated_absorpt_t_max   0.985
_shelx_estimated_absorpt_t_min   0.971
_olex2_refinement_description
;
1. Fixed Uiso
 At 1.2 times of:
  All N(H,H) groups
 At 1.5 times of:
  All C(H,H,H) groups
2.a Idealised Me refined as rotating group:
 C1(H1A,H1B,H1C)
;
_shelx_res_file
;
TITL first_a.res in P2(1)/n
    first_a.res
    created by SHELXL-2017/1 at 15:38:43 on 04-Apr-2018
CELL 0.71073 8.5003 9.2107 10.3713 90 108.348 90
ZERR 4 0.0011 0.0012 0.0014 0 0.002 0
LATT 1
SYMM 0.5-X,0.5+Y,0.5-Z
SFAC C H N O
UNIT 8 28 20 24

L.S. 10
PLAN  20
SIZE 0.09 0.146 0.179
TEMP -173.15
BOND $H
fmap 2
ACTA
REM <olex2.extras>
REM <HklSrc "%.\\first_a.hkl">
REM </olex2.extras>

WGHT    0.037100    0.224700
FVAR       0.61110
C2    1    0.759097    0.407223    0.560216    11.00000    0.02116    0.01331 =
         0.01340   -0.00057    0.01037   -0.00028
C1    1    0.627459    0.892781    0.373553    11.00000    0.01221    0.02490 =
         0.01826   -0.00126    0.00525   -0.00168
AFIX 137
H1A   2    0.595844    0.976870    0.312987    11.00000   -1.50000
H1B   2    0.561055    0.891265    0.435530    11.00000   -1.50000
H1C   2    0.607698    0.803476    0.319445    11.00000   -1.50000
AFIX   0
N1    3    0.805742    0.902973    0.453322    11.00000    0.01447    0.01142 =
         0.01129    0.00018    0.00476   -0.00104
H1D   2    0.823951    0.983361    0.501356    11.00000   -1.20000
H1E   2    0.830820    0.827111    0.508998    11.00000   -1.20000
N2    3    0.918492    0.904576    0.374059    11.00000    0.01510    0.02739 =
         0.01468   -0.00186    0.00730   -0.00149
H2A   2    0.877610    0.974452    0.311590    11.00000   -1.20000
H2B   2    0.897024    0.821128    0.326202    11.00000   -1.20000
N4    3    0.716112    0.409425    0.685947    11.00000    0.02612    0.01190 =
         0.01781   -0.00348    0.01281   -0.00644
N3    3    0.800744    0.537759    0.517196    11.00000    0.01510    0.01255 =
         0.01337    0.00115    0.00545    0.00101
N5    3    0.753284    0.273902    0.499683    11.00000    0.01498    0.01289 =
         0.01334   -0.00005    0.00502    0.00138
O5    4    0.708902    0.170185    0.558419    11.00000    0.01948    0.01200 =
         0.02248    0.00040    0.01077   -0.00185
O6    4    0.792533    0.257964    0.394662    11.00000    0.03283    0.01838 =
         0.01462   -0.00094    0.01293    0.00355
O1    4    0.827039    0.552390    0.406548    11.00000    0.02368    0.01869 =
         0.01354    0.00300    0.00980    0.00068
O2    4    0.809659    0.642605    0.597470    11.00000    0.02902    0.01225 =
         0.01683   -0.00264    0.01052   -0.00222
O4    4    0.572046    0.437930    0.676899    11.00000    0.03168    0.03002 =
         0.04457   -0.00625    0.02841   -0.00086
O3    4    0.825397    0.382192    0.791347    11.00000    0.04100    0.02679 =
         0.01449    0.00162    0.00426   -0.01308
HKLF 4




REM  first_a.res in P2(1)/n
REM R1 =  0.0338 for    1818 Fo > 4sig(Fo)  and  0.0525 for all    2358 data
REM    131 parameters refined using      0 restraints

END

WGHT      0.0371      0.2247

REM Highest difference peak  0.376,  deepest hole -0.326,  1-sigma level  0.059
Q1    1   0.8972  0.3382  0.7792  11.00000  0.05    0.38
Q2    1   0.7449  0.4063  0.6166  11.00000  0.05    0.26
Q3    1   0.7428  0.3520  0.5226  11.00000  0.05    0.23
Q4    1   0.7823  0.4604  0.5469  11.00000  0.05    0.22
Q5    1   1.0130  0.9206  0.4385  11.00000  0.05    0.21
Q6    1   0.7884  0.3849  0.7530  11.00000  0.05    0.20
Q7    1   0.8691  0.7206  0.5828  11.00000  0.05    0.19
Q8    1   0.7139  0.8836  0.4105  11.00000  0.05    0.18
Q9    1   0.5615  0.5197  0.6487  11.00000  0.05    0.17
Q10   1   0.9536  0.1802  0.4606  11.00000  0.05    0.17
Q11   1   0.6466  0.7765  0.3490  11.00000  0.05    0.16
Q12   1   1.0021  0.3416  0.8668  11.00000  0.05    0.15
Q13   1   0.4402  0.4525  0.5968  11.00000  0.05    0.15
Q14   1   0.9867  0.8670  0.5732  11.00000  0.05    0.15
Q15   1   0.6403  0.4166  0.7407  11.00000  0.05    0.15
Q16   1   0.6040  0.8976  0.3028  11.00000  0.05    0.15
Q17   1   0.9656  0.7382  0.4520  11.00000  0.05    0.15
Q18   1   0.4862  0.7661  0.4820  11.00000  0.05    0.15
Q19   1   0.4995  0.5037  0.5757  11.00000  0.05    0.14
Q20   1   0.9988  0.7282  0.3947  11.00000  0.05    0.14
;
_shelx_res_checksum              84782
_shelx_hkl_file
;
  -1   0   0  -10.45    0.48
  -1   0   0   -8.17    0.74
   1   0   0  -10.36    0.62
   1   0   0   -9.57    0.52
   1   0   0   -8.39    0.70
  -1   0   0   -9.16    0.69
  -1   0   0   -9.88    0.69
   2   0   0 8982.84  315.01
   2   0   0 9521.40  316.17
  -2   0   0 9955.38  315.23
  -2   0   0 8961.87  315.14
  -2   0   0 9999.00  314.92
   2   0   0 9162.67  314.80
  -2   0   0 8213.29  315.15
  -2   0   0 9925.89  316.00
   3   0   0    1.39    1.32
  -3   0   0    0.89    1.07
   3   0   0   -1.11    0.81
  -3   0   0   -0.82    0.82
  -3   0   0    0.65    1.22
  -3   0   0    1.32    0.89
  -3   0   0    1.90    1.18
  -4   0   0  132.61    5.30
   4   0   0  121.96    5.28
   4   0   0  129.10    6.23
  -4   0   0  129.41    5.51
  -4   0   0  133.64    5.66
  -4   0   0  128.63    5.94
   5   0   0   -1.19    1.08
  -5   0   0   -1.03    1.56
  -5   0   0    0.25    1.67
  -5   0   0    4.41    1.44
   5   0   0    1.16    1.83
  -5   0   0   -1.24    1.16
  -5   0   0   -0.18    1.10
   6   0   0    3.06    1.41
  -6   0   0    3.47    1.92
  -6   0   0    2.66    1.48
   6   0   0    5.17    2.34
  -6   0   0    3.40    1.42
  -6   0   0    4.29    2.14
  -7   0   0   -1.39    2.16
  -7   0   0   -1.08    2.04
   7   0   0   -0.49    2.36
  -7   0   0   -2.25    1.57
  -8   0   0  181.20    9.30
  -8   0   0  193.93    8.63
   8   0   0  205.50   10.19
  -8   0   0  189.31    9.77
  -9   0   0    0.42    2.80
  -9   0   0   -2.45    2.41
   9   0   0   -0.70    2.89
  -9   0   0   -1.46    1.84
  10   0   0   47.58    6.85
 -10   0   0   56.08    6.58
 -10   0   0   45.47    5.81
 -10   0   0   59.38    5.04
 -11   0   0   -0.92    2.22
 -11   0   0    6.98    3.62
  11   0   0    0.59    3.55
   0  -1   0   -0.05    0.45
   0  -1   0   -0.17    0.42
   0  -1   0    0.23    0.26
   0  -1   0   -1.01    0.39
   0  -1   0   -0.46    0.37
   0   1   0   -0.29    0.22
   0   1   0   -0.54    0.34
   0   1   0   -0.43    0.44
   0   1   0   -0.19    0.42
   1  -1   0    0.02    0.73
  -1  -1   0    0.32    0.68
  -1  -1   0   -0.26    0.58
   1  -1   0    0.25    0.77
   1  -1   0    0.06    0.40
  -1  -1   0   -0.24    0.69
  -1  -1   0    0.66    0.69
   1  -1   0   -0.32    0.70
  -1  -1   0   -1.26    0.83
  -1   1   0    1.07    0.71
  -1   1   0   -1.32    0.87
   1   1   0    0.75    0.78
  -1   1   0    0.48    0.70
   1   1   0   -0.48    0.60
   1   1   0    1.46    0.46
  -2  -1   0  266.32    9.40
  -2  -1   0  258.93    9.12
  -2  -1   0  249.96    8.83
   2  -1   0  245.62    9.28
  -2  -1   0  265.18    9.15
  -2  -1   0  256.87    9.38
  -2   1   0  257.98    9.36
   2   1   0  249.22    9.29
  -2   1   0  250.10    9.48
  -2   1   0  252.60    9.33
  -2   1   0  243.54    9.27
  -2   1   0  265.34    8.83
  -2   1   0  271.76    9.39
  -3  -1   0 1353.93   44.43
   3  -1   0 1327.64   44.61
  -3  -1   0 1318.51   44.04
   3  -1   0 1268.00   44.84
   3  -1   0 1273.24   43.99
  -3  -1   0 1276.03   44.72
  -3  -1   0 1317.25   44.43
  -3  -1   0 1289.56   44.74
  -3   1   0 1374.03   44.61
   3   1   0 1257.17   44.83
  -3   1   0 1238.75   44.71
  -3   1   0 1359.64   44.92
  -3   1   0 1299.79   44.64
   3   1   0 1253.90   44.50
  -3   1   0 1320.36   44.55
  -4  -1   0   38.31    2.05
  -4  -1   0   35.67    2.79
   4  -1   0   36.22    2.87
   4  -1   0   32.05    3.44
   4  -1   0   35.75    1.94
  -4  -1   0   33.54    3.09
  -4  -1   0   30.71    2.46
  -4  -1   0   34.64    3.26
  -4   1   0   38.79    3.52
  -4   1   0   40.23    2.95
   4   1   0   29.96    2.85
  -4   1   0   34.05    3.18
  -4   1   0   37.54    3.04
  -4   1   0   37.30    2.83
  -5  -1   0  406.86   15.05
   5  -1   0  392.10   14.47
  -5  -1   0  423.86   15.18
  -5  -1   0  423.08   14.56
   5  -1   0  414.16   15.88
  -5  -1   0  422.76   15.82
  -5  -1   0  432.81   15.74
  -5   1   0  396.32   15.25
  -5   1   0  413.59   15.17
   5   1   0  421.23   15.19
   5   1   0  412.10   15.98
  -5   1   0  423.00   15.69
  -5   1   0  442.39   16.00
  -5   1   0  399.88   15.35
  -6  -1   0  134.95    6.13
  -6  -1   0  139.45    6.86
  -6  -1   0  128.87    7.04
   6  -1   0  140.54    7.27
  -6   1   0  131.29    6.83
   6   1   0  139.65    6.25
  -6   1   0  139.51    6.24
   6   1   0  148.39    7.43
  -6   1   0  136.14    6.32
  -6   1   0  136.26    7.11
  -7  -1   0   52.48    3.83
   7  -1   0   47.29    5.04
  -7  -1   0   47.61    4.45
  -7  -1   0   45.10    4.65
   7   1   0   44.97    4.96
  -7   1   0   46.47    4.86
  -7   1   0   53.68    4.59
  -7   1   0   52.76    4.03
  -8  -1   0   23.28    3.69
   8  -1   0   16.01    3.46
  -8  -1   0   23.73    3.34
  -8  -1   0   21.27    3.49
  -8   1   0   19.77    3.35
  -8   1   0   16.47    3.49
   8   1   0   22.29    3.77
  -8   1   0   16.35    2.76
   9  -1   0    0.06    2.94
  -9  -1   0    0.50    1.80
  -9  -1   0    4.29    2.65
  -9  -1   0    0.53    2.70
  -9   1   0   -2.35    2.44
  -9   1   0    0.29    1.99
   9   1   0    2.17    2.87
 -10  -1   0   24.37    3.24
  10  -1   0   20.79    4.50
  10  -1   0   27.93    4.50
 -10  -1   0   21.21    3.95
 -10  -1   0   20.23    4.15
 -10   1   0   21.32    4.28
  10   1   0   27.22    5.05
 -10   1   0   18.16    3.10
 -11  -1   0   -4.23    2.95
 -11  -1   0    5.65    2.54
  11  -1   0    0.86    3.66
 -11  -1   0   -0.45    3.09
  11  -1   0   -2.79    3.01
 -11   1   0    7.63    2.62
  11   1   0    2.92    3.82
 -11   1   0    1.59    3.35
   0  -2   0  397.59   14.78
   0  -2   0  455.65   14.75
   0  -2   0  420.44   14.77
   0   2   0  419.75   14.88
   0   2   0  412.91   14.76
   0   2   0  397.20   14.37
   0   2   0  447.37   14.83
  -1  -2   0 1096.68   37.97
   1  -2   0 1128.46   38.04
   1  -2   0 1101.29   38.11
   1  -2   0 1108.33   38.10
  -1  -2   0 1143.50   37.73
  -1  -2   0 1045.14   38.15
  -1  -2   0 1169.58   38.10
  -1  -2   0 1147.11   38.00
  -1   2   0 1139.75   37.88
   1   2   0 1107.93   37.99
   1   2   0 1101.34   37.94
  -1   2   0 1102.57   38.11
   1   2   0 1072.60   38.15
  -1   2   0 1140.48   38.28
  -1   2   0 1119.48   37.96
  -2  -2   0  213.35    7.70
  -2  -2   0  194.52    7.25
  -2  -2   0  202.54    7.31
   2  -2   0  179.08    7.46
  -2  -2   0  195.90    7.55
  -2  -2   0  187.74    7.26
   2  -2   0  207.16    7.50
   2  -2   0  202.18    7.59
  -2   2   0  208.05    7.53
   2   2   0  182.63    7.55
   2   2   0  192.08    6.99
  -2   2   0  196.41    7.66
  -2   2   0  199.29    7.56
  -3  -2   0  329.01   11.18
   3  -2   0  306.47   11.45
  -3  -2   0  298.71   11.10
   3  -2   0  288.26   11.55
   3  -2   0  303.05   11.47
  -3  -2   0  315.56   11.40
  -3  -2   0  320.31   11.81
  -3  -2   0  301.99   11.51
  -3   2   0  308.94   11.62
   3   2   0  291.87   10.60
  -3   2   0  311.27   11.42
  -3   2   0  304.56   11.66
   3   2   0  305.19   11.57
  -4  -2   0  232.47    9.16
   4  -2   0  200.38    8.98
  -4  -2   0  234.39    9.28
   4  -2   0  230.45    9.47
  -4  -2   0  233.01    8.68
   4  -2   0  248.99    9.27
  -4  -2   0  224.61    8.75
  -4   2   0  226.56    9.42
  -4   2   0  255.20    9.88
   4   2   0  215.11    9.06
   4   2   0  216.21    7.99
   4   2   0  224.32    9.46
  -4   2   0  239.64    9.11
  -4   2   0  236.76    9.15
  -5  -2   0   99.13    4.56
  -5  -2   0   99.05    5.24
   5  -2   0  102.09    5.23
  -5  -2   0   97.54    4.61
  -5  -2   0   92.98    5.01
   5  -2   0   95.49    5.47
   5  -2   0   93.51    4.92
  -5   2   0   84.62    5.26
  -5   2   0   93.42    4.91
   5   2   0   94.20    5.03
   5   2   0   95.30    5.47
  -5   2   0   99.40    5.09
   6  -2   0   17.44    2.94
  -6  -2   0   22.14    3.40
   6  -2   0   19.21    2.83
  -6  -2   0   17.93    2.51
  -6  -2   0   22.86    3.38
   6   2   0   20.57    3.24
  -6   2   0   23.83    2.94
  -6   2   0   16.73    2.50
  -6   2   0   16.76    2.88
   6   2   0   18.21    3.00
  -7  -2   0  103.30    6.43
  -7  -2   0  104.35    6.35
   7  -2   0  115.25    6.95
   7  -2   0  113.19    6.62
  -7  -2   0  100.61    5.39
  -7   2   0  106.24    5.91
   7   2   0  105.02    6.96
  -7   2   0  102.52    5.86
  -7   2   0   99.22    6.71
   7   2   0  106.10    6.01
   8  -2   0   58.02    5.83
  -8  -2   0   58.11    5.08
   8  -2   0   53.83    5.41
  -8  -2   0   57.27    4.15
  -8  -2   0   52.56    5.21
  -8   2   0   57.29    4.65
   8   2   0   60.93    6.04
  -8   2   0   46.40    5.38
  -9  -2   0    5.73    3.05
   9  -2   0    5.04    3.22
  -9  -2   0    2.81    1.95
   9  -2   0   -0.62    2.69
  -9  -2   0    7.47    2.93
   9   2   0    7.42    3.51
  -9   2   0    5.92    2.45
  -9   2   0    3.40    2.94
  10  -2   0    7.13    3.41
  10  -2   0    5.85    3.41
 -10  -2   0    5.79    2.28
 -10  -2   0    1.90    3.13
 -10  -2   0    6.76    3.10
 -10   2   0   11.23    3.80
 -10   2   0    5.52    2.64
  10   2   0    2.33    3.51
 -11  -2   0    6.47    2.61
  11  -2   0    5.49    3.94
 -11  -2   0    7.76    3.70
  11  -2   0   15.79    4.14
 -11  -2   0   10.32    3.81
 -11   2   0    6.58    2.99
 -11   2   0   10.23    3.87
  11   2   0   12.00    4.51
   0  -3   0   -1.81    1.04
   0  -3   0   -1.07    1.03
   0  -3   0    0.21    1.01
   0   3   0   -2.21    1.15
   0   3   0   -1.19    0.98
   0   3   0   -0.70    1.19
   0   3   0   -1.18    0.52
  -1  -3   0  134.96    5.43
  -1  -3   0  132.16    4.70
   1  -3   0  125.50    5.43
  -1  -3   0  138.27    5.33
  -1  -3   0  134.86    5.36
  -1  -3   0  122.57    5.47
   1  -3   0  130.67    5.33
   1  -3   0  125.09    5.47
  -1   3   0  138.62    5.29
   1   3   0  131.60    5.62
   1   3   0  132.50    5.35
  -1   3   0  134.08    5.10
   1   3   0  129.68    5.34
  -1   3   0  135.77    5.48
  -1   3   0  122.72    5.70
   2  -3   0 1289.76   41.18
   2  -3   0 1082.64   41.04
  -2  -3   0 1224.47   41.08
  -2  -3   0 1099.42   41.13
  -2  -3   0 1235.88   40.84
  -2  -3   0 1195.32   40.85
   2  -3   0 1224.25   41.01
  -2  -3   0 1214.50   40.59
   2   3   0 1173.32   41.20
   2   3   0 1180.60   40.69
  -2   3   0 1234.61   40.59
  -2   3   0 1163.11   41.11
  -2   3   0 1182.70   40.95
  -2   3   0 1177.82   41.29
   3  -3   0  177.04    6.82
  -3  -3   0  145.24    6.94
  -3  -3   0  171.10    6.80
   3  -3   0  163.59    6.77
  -3  -3   0  140.03    6.22
  -3  -3   0  153.33    6.30
  -3  -3   0  141.81    6.18
   3  -3   0  151.24    6.63
  -3   3   0  157.20    6.70
  -3   3   0  158.92    6.77
  -3   3   0  157.62    7.07
  -3   3   0  153.35    5.66
   3   3   0  148.81    5.82
   3   3   0  147.45    6.96
  -4  -3   0  206.84    8.44
  -4  -3   0  206.47    8.18
  -4  -3   0  187.63    7.89
   4  -3   0  200.78    8.38
  -4  -3   0  219.99    8.86
   4  -3   0  216.14    8.42
   4  -3   0  197.64    8.54
  -4  -3   0  192.68    7.85
   4   3   0  198.92    8.51
  -4   3   0  201.15    8.28
  -4   3   0  188.49    8.46
  -4   3   0  195.68    8.61
   4   3   0  200.54    7.15
  -5  -3   0   29.38    3.23
  -5  -3   0   35.17    3.30
  -5  -3   0   31.60    2.80
  -5  -3   0   29.65    2.53
   5  -3   0   30.68    3.42
   5  -3   0   33.36    3.28
  -5   3   0   32.04    3.17
  -5   3   0   32.95    3.55
   5   3   0   29.59    3.63
  -5   3   0   27.31    3.59
   5   3   0   28.86    3.47
  -6  -3   0  466.07   17.45
  -6  -3   0  449.84   17.22
   6  -3   0  436.59   17.39
   6  -3   0  457.41   17.70
  -6  -3   0  444.32   16.58
   6   3   0  463.79   17.95
  -6   3   0  449.70   17.23
  -6   3   0  449.52   17.20
  -6   3   0  442.30   17.67
   6   3   0  455.82   17.40
  -7  -3   0   12.10    2.78
   7  -3   0    7.99    2.57
   7  -3   0    9.19    2.83
  -7  -3   0    8.34    2.58
  -7  -3   0    7.77    1.87
  -7   3   0    7.51    2.35
  -7   3   0   11.31    3.05
   7   3   0    7.88    2.74
   7   3   0    5.24    2.50
  -7   3   0    4.97    2.50
  -8  -3   0   97.80    6.57
  -8  -3   0   89.50    6.37
   8  -3   0   87.51    6.70
  -8  -3   0   87.97    5.16
   8  -3   0   87.38    6.35
   8   3   0   91.64    7.14
  -8   3   0   85.67    5.81
  -8   3   0   84.47    6.63
   9  -3   0    1.02    2.87
   9  -3   0    5.38    3.01
  -9  -3   0    1.07    2.79
  -9  -3   0    2.64    2.64
  -9  -3   0    3.30    1.99
   9   3   0    3.14    3.17
  -9   3   0    7.29    3.14
  -9   3   0    5.36    2.48
  10  -3   0   38.89    5.51
 -10  -3   0   40.79    4.23
 -10  -3   0   41.94    6.02
 -10  -3   0   29.81    4.84
  10  -3   0   40.50    5.25
 -10   3   0   39.75    5.06
 -10   3   0   45.35    5.98
  10   3   0   29.24    5.33
  11  -3   0    1.93    3.36
 -11  -3   0   -1.41    3.03
  11  -3   0    4.78    3.82
 -11   3   0    6.61    3.60
   0  -4   0  948.04   33.52
   0  -4   0  993.68   33.46
   0  -4   0  960.28   33.60
   0   4   0  912.37   33.52
   0   4   0  969.09   33.74
   0   4   0 1008.57   33.63
  -1  -4   0  422.77   15.64
  -1  -4   0  389.66   15.42
  -1  -4   0  435.23   15.46
   1  -4   0  443.16   15.46
   1  -4   0  446.52   15.61
   1  -4   0  427.46   15.57
  -1  -4   0  422.91   15.47
  -1   4   0  426.21   15.00
  -1   4   0  422.40   15.37
   1   4   0  417.05   15.56
  -1   4   0  427.79   15.59
   1   4   0  419.42   15.47
   1   4   0  434.15   15.78
  -1   4   0  422.90   15.90
  -2  -4   0   58.23    3.34
   2  -4   0   57.78    3.79
  -2  -4   0   42.44    3.72
  -2  -4   0   58.18    3.60
  -2  -4   0   52.90    2.60
   2  -4   0   53.18    3.39
   2  -4   0   56.57    3.74
  -2  -4   0   47.63    3.28
  -2   4   0   41.97    3.11
  -2   4   0   63.12    4.55
   2   4   0   52.83    3.22
   2   4   0   42.44    3.49
   2   4   0   50.59    4.04
  -2   4   0   48.52    3.13
  -2   4   0   53.95    3.47
   3  -4   0   19.71    2.50
  -3  -4   0   20.29    2.34
  -3  -4   0   20.17    2.40
  -3  -4   0   20.36    2.73
  -3  -4   0   29.18    3.26
  -3  -4   0   19.57    2.07
   3  -4   0   24.53    2.63
   3  -4   0   20.42    2.80
  -3   4   0   14.01    2.03
  -3   4   0   25.79    2.75
   3   4   0   15.85    2.37
  -3   4   0   23.88    1.91
  -3   4   0   21.88    3.35
   3   4   0   14.61    2.10
   4  -4   0   57.67    4.07
  -4  -4   0   63.64    4.48
  -4  -4   0   62.52    4.08
   4  -4   0   57.99    4.05
  -4  -4   0   58.62    3.54
  -4  -4   0   56.61    3.43
   4  -4   0   64.00    4.05
  -4  -4   0   60.01    3.50
  -4   4   0   60.63    2.58
  -4   4   0   63.14    4.08
  -4   4   0   64.44    4.53
  -4   4   0   62.91    4.10
   4   4   0   54.28    4.31
   4   4   0   54.69    2.88
   5  -4   0  129.37    6.39
  -5  -4   0  127.42    5.74
   5  -4   0  120.54    6.49
  -5  -4   0  118.06    5.94
  -5  -4   0  130.22    6.44
  -5   4   0  115.00    6.37
   5   4   0  129.30    6.69
  -5   4   0  130.13    6.71
  -5   4   0  122.28    6.56
  -6  -4   0   14.07    2.74
   6  -4   0   14.57    2.73
  -6  -4   0   15.53    2.59
   6  -4   0   13.81    2.88
  -6  -4   0   11.69    1.98
  -6   4   0   18.49    3.05
   6   4   0   12.68    3.01
  -6   4   0   14.43    2.77
  -6   4   0   14.63    3.01
   6   4   0    7.20    2.72
   7  -4   0    4.56    2.71
  -7  -4   0   10.16    2.05
  -7  -4   0    8.79    2.77
   7  -4   0    6.83    2.64
  -7  -4   0    7.72    2.56
  -7   4   0    3.45    2.36
   7   4   0    3.07    2.83
  -7   4   0    8.12    2.93
   7   4   0    8.85    2.88
  -7   4   0    6.56    2.86
  -8  -4   0   15.21    2.39
   8  -4   0   12.61    3.41
  -8  -4   0   15.55    3.12
   8  -4   0   13.97    3.35
  -8  -4   0   14.51    3.48
   8   4   0   18.13    4.09
   8   4   0   13.95    3.36
  -8   4   0   17.90    3.27
  -8   4   0   17.01    3.40
  -8   4   0   12.98    3.35
   9  -4   0   31.35    4.84
   9  -4   0   26.33    4.21
  -9  -4   0   28.59    3.61
  -9  -4   0   22.51    3.92
  -9  -4   0   31.22    4.26
  -9   4   0   22.15    4.08
   9   4   0   34.38    5.19
  -9   4   0   26.38    3.99
 -10  -4   0    9.58    3.55
  10  -4   0   11.51    3.76
 -10  -4   0    5.70    3.51
  10  -4   0    6.71    3.63
 -10  -4   0    8.84    2.32
 -10   4   0    3.57    3.26
 -10   4   0    8.58    3.24
  10   4   0   13.89    4.41
  11  -4   0   13.67    6.98
   0  -5   0    1.79    1.56
   0  -5   0    0.81    0.67
   0  -5   0    2.37    1.56
   0  -5   0   -0.10    1.63
   0   5   0   -0.17    1.92
   0   5   0   -0.07    1.45
   0   5   0   -0.44    1.74
   1  -5   0   47.78    3.65
  -1  -5   0   48.39    3.47
  -1  -5   0   46.38    3.71
  -1  -5   0   48.97    3.50
   1  -5   0   57.69    3.65
   1  -5   0   49.17    3.63
  -1   5   0   54.58    4.44
   1   5   0   57.80    4.02
  -1   5   0   57.31    3.72
  -1   5   0   57.32    3.72
  -1   5   0   52.45    2.78
   1   5   0   59.85    3.64
   1   5   0   54.05    4.11
  -2  -5   0   98.68    4.99
  -2  -5   0  102.02    5.52
   2  -5   0  110.31    5.17
  -2  -5   0  104.15    5.26
   2  -5   0  110.96    5.44
  -2  -5   0  107.14    4.03
   2  -5   0  113.95    5.53
  -2   5   0  110.11    5.39
   2   5   0  102.19    5.70
   2   5   0  102.41    5.09
   2   5   0  102.69    5.11
  -2   5   0  113.20    4.89
  -2   5   0   98.16    5.77
  -2   5   0  102.01    4.86
  -3  -5   0    6.38    1.90
   3  -5   0   10.05    1.88
  -3  -5   0    8.26    1.25
  -3  -5   0   10.07    1.69
   3  -5   0    6.74    1.97
  -3  -5   0    8.93    2.22
   3  -5   0    8.34    1.91
  -3  -5   0    3.71    1.35
  -3   5   0    5.61    2.12
  -3   5   0    8.53    1.43
  -3   5   0   10.11    2.07
  -3   5   0    9.14    1.74
   3   5   0    7.60    2.17
   3   5   0    7.33    1.64
  -4  -5   0   42.69    3.31
   4  -5   0   45.10    3.95
   4  -5   0   49.19    3.74
  -4  -5   0   45.02    4.31
  -4  -5   0   50.59    3.15
  -4  -5   0   45.32    3.80
   4  -5   0   47.90    3.98
   4   5   0   51.66    4.45
  -4   5   0   49.52    3.94
  -4   5   0   45.22    2.89
   4   5   0   43.91    2.98
  -4   5   0   47.68    4.53
  -4   5   0   44.83    3.82
  -5  -5   0   48.84    3.62
  -5  -5   0   48.62    4.87
  -5  -5   0   47.49    4.27
   5  -5   0   41.85    4.02
   5  -5   0   46.24    4.40
  -5  -5   0   44.61    3.49
  -5   5   0   46.41    5.03
  -5   5   0   41.53    4.18
  -5   5   0   59.69    4.44
   5   5   0   49.59    5.01
  -6  -5   0   21.88    3.00
  -6  -5   0   22.79    3.36
   6  -5   0   23.16    3.46
  -6  -5   0   20.63    3.31
   6  -5   0   17.12    3.00
   6   5   0   23.19    3.79
  -6   5   0   20.76    3.37
   6   5   0   24.31    3.78
  -6   5   0   18.48    3.46
  -6   5   0   23.27    3.32
  -7  -5   0  208.14    8.75
   7  -5   0  199.96   10.07
  -7  -5   0  179.03    9.18
   7  -5   0  201.78    9.87
  -7  -5   0  192.95    9.81
  -7   5   0  217.83   10.08
   7   5   0  200.98   10.54
  -7   5   0  218.48   10.36
   7   5   0  198.42   10.15
  -7   5   0  199.93   10.08
  -8  -5   0   21.53    3.25
  -8  -5   0   18.55    3.52
   8  -5   0   16.60    3.82
   8  -5   0   30.09    4.54
  -8   5   0   16.17    3.50
   8   5   0   18.33    3.83
   8   5   0   17.23    4.12
  -8   5   0   21.60    3.58
  -8   5   0   31.20    4.29
   9  -5   0    4.44    3.16
   9  -5   0    2.32    3.05
  -9  -5   0    7.05    2.18
  -9  -5   0    9.15    3.31
   9   5   0    7.51    3.83
  -9   5   0    7.00    3.33
  -9   5   0    4.82    2.87
 -10  -5   0   24.38    3.10
 -10  -5   0   14.18    3.93
  10  -5   0   18.65    4.28
  10  -5   0   26.26    4.51
  10   5   0   28.11    5.43
 -10   5   0   17.07    3.71
 -10   5   0   21.04    4.54
   0  -6   0  850.61   31.82
   0  -6   0  908.71   31.73
   0  -6   0  898.51   30.52
   0  -6   0  906.75   31.94
   0   6   0  896.17   31.91
   0   6   0  883.34   32.16
   0   6   0  945.12   32.03
  -1  -6   0  172.63    7.56
   1  -6   0  170.60    7.49
   1  -6   0  175.46    7.78
  -1  -6   0  172.71    7.58
   1  -6   0  185.22    7.86
  -1  -6   0  178.69    7.90
  -1   6   0  165.40    8.14
   1   6   0  181.49    7.69
   1   6   0  176.04    8.04
  -1   6   0  187.98    7.85
  -1   6   0  162.35    6.65
   1   6   0  169.18    7.81
  -1   6   0  171.84    7.62
  -2  -6   0   97.16    5.17
  -2  -6   0  104.37    5.42
   2  -6   0  101.43    5.49
  -2  -6   0   96.29    5.61
   2  -6   0   95.90    5.37
   2  -6   0   93.25    5.22
   2   6   0   94.43    5.30
  -2   6   0   96.08    5.95
  -2   6   0   98.53    4.64
  -2   6   0  103.30    5.49
   2   6   0  105.10    5.89
  -2   6   0  101.10    5.07
   3  -6   0    5.12    1.88
  -3  -6   0    3.69    1.74
  -3  -6   0    4.72    2.06
   3  -6   0    5.66    2.04
   3  -6   0    6.31    2.14
  -3  -6   0    4.21    1.90
   3   6   0    2.24    2.09
  -3   6   0    4.39    2.04
  -3   6   0    7.20    1.67
   3   6   0    6.62    1.93
  -3   6   0    3.57    2.56
  -3   6   0    6.32    1.80
  -4  -6   0   19.04    3.25
  -4  -6   0   16.09    2.62
   4  -6   0   19.61    2.75
  -4  -6   0   19.22    2.90
   4  -6   0   19.97    3.07
   4   6   0   16.35    3.09
  -4   6   0   18.38    2.89
  -4   6   0   20.46    3.54
  -4   6   0   18.52    2.65
  -5  -6   0   83.53    6.00
   5  -6   0   96.43    6.21
  -5  -6   0   86.43    5.78
   5  -6   0   94.70    5.78
  -5  -6   0   95.14    5.15
   5   6   0   85.52    6.35
  -5   6   0   92.79    6.55
  -5   6   0   88.85    5.79
  -5   6   0   87.19    5.66
  -6  -6   0   57.16    5.23
   6  -6   0   74.14    5.29
  -6  -6   0   73.97    4.60
   6  -6   0   65.37    5.61
   6   6   0   78.59    6.36
  -6   6   0   70.19    6.12
  -6   6   0   70.87    5.45
  -6   6   0   65.38    5.35
   7  -6   0   30.30    4.09
   7  -6   0   29.65    4.84
  -7  -6   0   34.86    3.60
  -7  -6   0   33.41    4.77
   7   6   0   33.54    5.29
  -7   6   0   28.42    3.96
  -7   6   0   35.35    4.75
   7   6   0   40.59    5.06
  -7   6   0   29.21    4.54
  -8  -6   0    2.09    2.50
   8  -6   0    2.10    2.73
  -8  -6   0    1.71    1.84
   8  -6   0   -3.35    2.73
   8   6   0   -3.82    2.82
  -8   6   0    0.72    3.15
   8   6   0    4.47    3.26
  -8   6   0   -5.91    2.21
  -8   6   0   -0.89    2.48
  -9  -6   0   12.08    2.52
   9  -6   0    6.28    3.66
  -9  -6   0    3.66    3.14
   9  -6   0   11.16    3.66
  -9   6   0   11.13    3.66
  -9   6   0   14.32    3.50
   9   6   0    8.71    4.01
  10  -6   0    0.82    3.24
  10  -6   0    0.86    3.68
 -10   6   0   -2.29    2.62
 -10   6   0   -3.74    3.03
   0  -7   0    0.06    1.69
   0  -7   0    0.38    2.01
   0  -7   0   -0.67    1.96
   0   7   0    1.37    2.35
   0   7   0    3.74    2.13
   1  -7   0   79.77    5.09
  -1  -7   0   67.40    5.06
  -1  -7   0   76.31    5.11
   1  -7   0   81.80    4.99
   1  -7   0   83.18    5.13
  -1  -7   0   78.55    4.88
   1   7   0   83.11    5.35
  -1   7   0   79.42    5.09
   1   7   0   82.48    5.46
  -1   7   0   69.23    5.59
  -1   7   0   88.71    5.07
  -2  -7   0  188.12    8.80
   2  -7   0  204.14    8.94
  -2  -7   0  207.53    9.44
   2  -7   0  213.94    9.28
  -2  -7   0  191.77    8.91
   2  -7   0  195.99    9.10
  -2   7   0  200.89    8.73
   2   7   0  201.25    9.65
  -2   7   0  200.12    8.11
   2   7   0  218.46    9.19
  -2   7   0  199.85    9.77
  -2   7   0  195.62    9.15
  -3  -7   0   25.31    3.54
   3  -7   0   30.73    3.94
  -3  -7   0   29.13    4.30
   3  -7   0   25.19    3.74
   3  -7   0   25.82    3.48
  -3  -7   0   28.49    3.54
   3   7   0   24.22    3.10
  -3   7   0   28.38    3.32
  -3   7   0   28.73    3.89
   3   7   0   27.09    3.81
  -3   7   0   24.95    4.00
  -3   7   0   24.05    2.98
   4  -7   0  211.89    9.57
  -4  -7   0  222.81   10.34
  -4  -7   0  225.03    9.88
   4  -7   0  205.31    9.78
  -4  -7   0  212.94    9.29
  -4   7   0  203.07    9.36
  -4   7   0  210.78   10.60
  -4   7   0  231.41   10.08
   4   7   0  208.85   10.42
  -5  -7   0    6.81    2.67
  -5  -7   0    2.81    1.91
   5  -7   0    5.29    2.45
  -5  -7   0    4.70    2.81
   5  -7   0    6.79    2.71
  -5   7   0    4.59    2.37
  -5   7   0    4.62    2.66
   5   7   0    2.49    2.94
  -5   7   0    6.45    3.26
  -6  -7   0   25.76    4.32
  -6  -7   0   24.99    3.73
   6  -7   0   30.26    4.64
  -6  -7   0   26.87    3.62
   6  -7   0   30.43    4.40
  -6   7   0   32.46    4.79
  -6   7   0   27.76    3.83
  -6   7   0   32.49    4.68
   6   7   0   24.07    4.15
   7  -7   0   51.60    5.74
  -7  -7   0   34.39    3.84
   7  -7   0   36.49    4.54
  -7  -7   0   28.92    4.23
  -7   7   0   43.13    5.46
   7   7   0   40.43    6.01
  -7   7   0   26.61    4.21
   7   7   0   48.55    5.85
  -7   7   0   34.04    4.93
   8  -7   0   -3.35    2.85
   8  -7   0    1.70    2.88
  -8  -7   0   -3.19    1.78
  -8  -7   0   -0.95    2.70
   8   7   0   -1.80    3.32
   8   7   0   -1.91    3.01
  -8   7   0    1.79    2.96
  -8   7   0   -4.19    2.26
  -8   7   0    0.95    3.45
  -9  -7   0   -4.97    2.65
   9  -7   0   -1.70    2.95
   9  -7   0   -0.88    3.21
  -9  -7   0   -2.45    1.75
  -9   7   0    1.34    3.26
   9   7   0    3.26    3.88
  -9   7   0   -1.65    2.80
  -9   7   0    5.11    3.69
   9   7   0    1.66    3.60
   0  -8   0    4.06    2.25
   0  -8   0    3.77    2.30
   0  -8   0    7.83    2.55
   0   8   0    5.61    2.71
   0   8   0    5.58    2.90
  -1  -8   0 1366.28   47.24
  -1  -8   0 1307.22   46.81
  -1  -8   0 1286.02   46.90
   1  -8   0 1335.06   46.79
   1  -8   0 1380.52   47.21
   1  -8   0 1219.06   46.89
  -1   8   0 1326.02   47.56
   1   8   0 1366.09   47.25
   1   8   0 1368.64   47.45
  -1   8   0 1326.68   46.98
  -2  -8   0   20.71    3.18
  -2  -8   0   30.66    4.41
  -2  -8   0   30.31    4.04
   2  -8   0   27.53    4.14
   2  -8   0   29.16    3.94
   2  -8   0   24.76    4.00
   2   8   0   37.44    4.94
  -2   8   0   39.89    5.29
   2   8   0   39.17    4.43
  -2   8   0   30.54    4.01
   3  -8   0  260.66   11.27
  -3  -8   0  264.07   11.64
   3  -8   0  250.49   10.89
  -3  -8   0  249.73   10.85
   3  -8   0  248.13   11.54
  -3  -8   0  249.89   11.07
  -3   8   0  262.55   12.17
  -3   8   0  222.25   11.16
   3   8   0  253.79   10.92
   3   8   0  259.37   11.84
   4  -8   0   -1.02    2.10
   4  -8   0    2.34    2.47
  -4  -8   0   -0.91    2.55
  -4  -8   0    0.53    1.92
  -4  -8   0   -0.06    2.13
   4   8   0    0.17    2.94
  -4   8   0   -0.34    2.92
  -5  -8   0   33.58    4.05
  -5  -8   0   31.91    4.51
  -5  -8   0   27.65    3.86
   5  -8   0   37.13    4.23
   5  -8   0   32.64    4.82
  -5   8   0   25.34    4.46
   5   8   0   24.62    4.34
  -5   8   0   26.17    3.88
  -5   8   0   26.45    3.97
  -6  -8   0    7.11    3.52
  -6  -8   0    6.84    2.73
   6  -8   0    3.49    2.60
  -6  -8   0    2.25    2.04
   6  -8   0    3.92    2.68
  -6   8   0    1.07    2.50
   6   8   0    2.57    3.58
  -6   8   0   -3.64    2.30
  -6   8   0   -3.91    3.13
   7  -8   0    0.97    2.92
  -7  -8   0    2.60    2.15
   7  -8   0   -0.94    2.54
  -7  -8   0    2.06    2.84
   7   8   0   -0.43    3.02
  -7   8   0    4.68    2.88
   7   8   0   -2.21    3.29
  -7   8   0    1.61    3.72
  -7   8   0   -0.80    2.74
  -8  -8   0    8.03    3.65
  -8  -8   0    7.67    2.41
   8  -8   0   11.76    3.53
   8  -8   0    7.18    3.65
   8   8   0    1.79    3.98
  -8   8   0   11.40    4.52
  -8   8   0   10.24    3.45
  -8   8   0    6.24    3.27
   8   8   0    9.45    4.21
   9  -8   0   29.17    5.10
   9  -8   0   27.84    4.66
  -9   8   0   30.89    5.12
  -9   8   0   42.20    6.02
   9   8   0   40.18    6.22
  -9   8   0   31.02    4.85
   0  -9   0    3.01    2.41
   0  -9   0    1.31    2.18
   0  -9   0   -1.02    2.30
   0   9   0    0.80    2.67
   0   9   0   -0.44    2.90
  -1  -9   0   -1.43    2.04
   1  -9   0    1.16    2.61
  -1  -9   0    0.61    2.53
   1  -9   0    1.44    2.40
   1  -9   0    4.07    2.28
  -1  -9   0   -2.18    2.23
   1   9   0    1.51    2.88
  -1   9   0    0.52    2.58
  -1   9   0   -2.26    2.84
   1   9   0    3.98    2.98
  -2  -9   0   10.08    2.80
  -2  -9   0    6.51    2.95
   2  -9   0    9.41    3.08
  -2  -9   0    8.15    2.66
   2  -9   0    6.54    2.85
   2  -9   0    6.85    2.52
  -2   9   0    8.81    3.63
   2   9   0    9.79    3.04
  -2   9   0    6.59    2.74
   2   9   0   12.67    3.77
  -3  -9   0   39.01    4.50
   3  -9   0   31.73    4.76
   3  -9   0   24.47    3.54
  -3  -9   0   29.96    4.77
  -3  -9   0   22.65    3.58
   3   9   0   35.26    4.89
  -3   9   0   31.46    4.70
  -4  -9   0    2.37    2.96
  -4  -9   0   -0.78    2.27
  -4  -9   0    4.55    2.31
   4  -9   0   -0.10    2.27
   4  -9   0    1.59    2.50
   4   9   0   -0.09    3.16
  -4   9   0    3.81    3.43
  -5  -9   0   68.93    5.74
  -5  -9   0   67.10    5.29
  -5  -9   0   66.05    6.45
   5  -9   0   58.86    6.02
   5  -9   0   66.23    5.57
   5   9   0   74.75    7.15
  -5   9   0   56.04    6.66
  -6  -9   0    4.52    2.54
  -6  -9   0    3.36    3.50
  -6  -9   0    0.18    2.60
   6  -9   0    3.98    3.10
   6  -9   0    9.91    3.26
  -6   9   0    2.84    3.74
   6   9   0   -1.45    3.57
   7  -9   0   18.31    3.85
  -7  -9   0   23.17    4.30
   7  -9   0   24.65    4.30
  -7  -9   0   22.39    3.33
   7   9   0   21.37    5.13
  -7   9   0   22.78    5.05
  -8  -9   0   13.39    3.52
   8  -9   0   14.41    3.81
  -8  -9   0   10.24    3.70
   8  -9   0    4.12    3.55
   8   9   0    9.57    4.48
   8   9   0    9.89    4.25
  -8   9   0    9.93    4.73
   0 -10   0   -2.09    2.13
   0 -10   0    3.77    2.73
   0 -10   0    2.13    2.84
   0  10   0    3.65    3.19
   0  10   0    4.78    3.05
  -1 -10   0   17.78    3.40
   1 -10   0    9.93    3.14
   1 -10   0   12.84    3.40
  -1 -10   0   14.92    3.13
  -1 -10   0   12.05    3.17
   1 -10   0    8.93    2.76
  -1  10   0    2.37    2.83
  -1  10   0    7.65    3.65
   1  10   0   15.82    3.78
   1  10   0   11.92    3.60
  -2 -10   0    0.23    2.74
  -2 -10   0    1.52    2.64
   2 -10   0    4.43    2.91
   2 -10   0    0.48    2.44
   2  10   0   -2.66    3.12
   2  10   0    3.83    3.11
  -2  10   0    0.66    2.70
  -2  10   0   -0.21    3.30
   3 -10   0   14.94    3.33
  -3 -10   0    8.34    3.43
  -3 -10   0   11.76    3.19
   3 -10   0   18.27    3.54
  -3 -10   0   11.41    2.96
   3  10   0   15.47    4.23
  -3  10   0   16.54    4.39
   4 -10   0   -1.69    2.34
  -4 -10   0   -0.79    2.34
  -4 -10   0   -0.05    3.05
   4 -10   0   -0.91    2.71
  -4 -10   0    0.27    2.57
  -4  10   0    1.77    3.35
   4  10   0    1.40    3.51
  -5 -10   0    0.15    2.45
  -5 -10   0   -0.58    3.16
   5 -10   0    1.25    2.68
  -5 -10   0   -3.84    2.55
   5 -10   0   -0.15    2.66
  -5  10   0    6.63    3.83
   5  10   0   -0.53    3.66
  -6 -10   0   17.76    3.90
   6 -10   0   21.62    4.32
   6 -10   0   20.50    4.00
  -6 -10   0   22.83    3.53
  -6 -10   0   25.39    4.96
   6  10   0   27.30    5.32
  -6  10   0   13.97    4.82
   7 -10   0    2.08    4.41
  -7 -10   0    4.92    2.67
  -7 -10   0    1.98    3.20
   7 -10   0   -2.02    2.86
   7  10   0    2.10    4.45
  -7  10   0    1.97    4.29
   0 -11   0   -3.50    2.26
   0 -11   0    0.59    2.91
   0 -11   0    0.41    2.66
   0  11   0    0.15    3.08
   0  11   0    2.03    3.33
  -1 -11   0   26.33    4.31
  -1 -11   0   25.12    3.87
  -1 -11   0   35.90    5.23
   1 -11   0   25.91    4.25
   1 -11   0   28.09    4.04
   1 -11   0   28.33    4.37
  -1  11   0   23.17    4.21
  -1  11   0   24.84    4.83
   1  11   0   28.65    4.90
   1  11   0   20.08    4.33
  -2 -11   0   23.33    3.96
   2 -11   0   25.16    4.29
  -2 -11   0   24.97    4.08
   2 -11   0   28.79    4.14
  -2 -11   0   27.83    4.51
  -2  11   0   22.00    4.81
   2  11   0   26.37    4.70
  -3 -11   0  100.15    7.14
   3 -11   0   96.37    6.85
  -3 -11   0  105.85    7.42
  -3 -11   0  109.92    7.83
   3 -11   0   99.51    7.38
   3  11   0   94.11    8.33
  -3  11   0   98.65    8.34
  -4 -11   0   -2.77    3.17
   4 -11   0    2.29    3.08
  -4 -11   0    0.65    2.99
  -4 -11   0    0.67    2.80
   4 -11   0    4.79    3.11
   4  11   0    2.06    3.92
  -4  11   0   -1.60    3.86
  -5 -11   0   68.04    6.19
  -5 -11   0   71.53    7.40
   5 -11   0   74.73    6.51
  -5 -11   0   70.65    6.48
   5 -11   0   70.56    6.95
  -5  11   0   61.72    7.70
   5  11   0   71.54    8.09
  -6 -11   0   -2.56    3.63
  -6 -11   0   -1.69    2.89
   6 -11   0   -1.29    4.09
   0 -12   0   14.17    3.65
   0 -12   0   15.20    3.82
   0 -12   0   18.20    4.09
   0  12   0   22.53    4.57
   0  12   0   12.12    4.26
   1 -12   0   39.20    5.30
  -1 -12   0   30.32    4.67
  -1 -12   0   33.70    4.60
  -1 -12   0   29.13    4.91
   1 -12   0   43.26    5.96
  -1  12   0   31.50    5.27
  -1  12   0   21.95    7.16
   1  12   0   32.98    5.17
   1  12   0   46.88    6.72
  -2 -12   0   14.49    4.04
   2 -12   0   12.62    3.91
  -2 -12   0    9.28    3.36
  -2 -12   0    7.70    3.54
   2 -12   0   15.42    3.74
  -2  12   0   13.52    4.38
   2  12   0    8.99    4.35
   3 -12   0   -1.52    2.78
  -3 -12   0   -0.95    2.89
  -3 -12   0   -2.21    2.83
  -3 -12   0   -2.88    2.94
   3 -12   0    4.30    3.41
   3  12   0    5.16    4.22
  -3  12   0    2.96    4.08
   4 -12   0   24.35    4.45
  -4 -12   0   26.52    4.21
  -4 -12   0   17.93    4.07
  -4 -12   0   21.62    4.87
  -4  12   0   27.85    6.55
   4  12   0   29.79    6.49
   0 -13   0   -5.50    2.62
   0 -13   0    3.23    3.53
   0  13   0    0.41    3.72
   0  13   0   -1.61    3.98
   1 -13   0   -0.20    2.87
   1 -13   0    1.44    3.50
  -1 -13   0    9.54    3.77
  -1 -13   0    8.74    3.83
  -1  13   0   11.90    4.70
   1  13   0    7.34    4.30
  11   0  -1   41.16    6.67
 -11   0   1   49.52    4.54
 -11   0   1   33.85    5.15
 -10   0   1   -2.02    2.71
  10   0  -1   -1.85    3.06
 -10   0   1    0.64    2.59
 -10   0   1    0.59    1.90
   9   0  -1    0.39    2.77
  -9   0   1   -1.79    2.53
  -9   0   1   -0.97    2.37
  -9   0   1   -0.46    1.84
  -8   0   1   -2.19    2.22
  -8   0   1   -3.82    2.16
   8   0  -1    0.76    2.49
  -8   0   1    2.11    1.64
  -7   0   1  168.81    8.40
   7   0  -1  171.38    8.64
  -7   0   1  173.53    8.21
  -7   0   1  157.52    7.20
  -6   0   1    0.43    1.66
  -6   0   1   -1.08    1.77
   6   0  -1   -0.20    1.10
  -6   0   1    1.63    1.40
   6   0  -1   -3.20    1.76
  -6   0   1   -0.17    1.16
  -6   0   1   -0.07    1.33
   5   0  -1  235.42    9.02
  -5   0   1  251.82    9.34
   5   0  -1  247.38   10.12
  -5   0   1  251.99   10.06
  -5   0   1  233.28    9.19
  -5   0   1  251.09    9.30
  -5   0   1  238.39    9.86
  -4   0   1   -0.25    1.61
   4   0  -1    3.44    1.70
  -4   0   1    1.26    1.35
  -4   0   1   -0.83    1.06
   4   0  -1   -0.70    1.10
  -4   0   1    0.44    1.67
  -4   0   1    0.17    1.23
  -3   0   1  302.90   10.45
   3   0  -1  286.18   10.72
  -3   0   1  286.45   10.26
   3   0  -1  263.24   10.15
  -3   0   1  291.80   10.24
  -3   0   1  291.38   10.79
  -3   0   1  298.56   10.73
   2   0  -1   -0.74    0.86
  -2   0   1    0.28    1.05
  -2   0   1   -0.20    0.85
  -2   0   1    0.05    0.58
  -2   0   1   -0.73    0.61
  -2   0   1    0.95    0.72
  -2   0   1   -1.74    0.98
  -1   0   1    8.34    0.86
  -1   0   1    5.76    0.53
  -1   0   1    6.59    0.83
  -1   0   1    5.29    0.54
  -1   0   1    5.54    0.83
  -1   0   1    5.94    0.99
  -1   0   1    6.69    0.96
   0   0   1   -1.52    0.40
   0   0   1   -1.90    0.38
   0   0  -1   -1.79    0.36
   0   0   1   -1.71    0.41
   0   0  -1   -1.78    0.24
   0   0   1   -1.16    0.39
   0   0  -1   -1.98    0.40
   0   0   1   -1.70    0.34
  -1   0  -1 1084.82   36.37
   1   0   1 1025.82   36.30
   1   0   1 1047.57   36.23
   1   0   1 1126.29   36.39
  -1   0  -1 1069.71   36.09
  -1   0  -1  956.98   36.25
  -1   0  -1 1096.78   36.20
   2   0   1   -0.80    0.92
   2   0   1    0.75    1.19
  -2   0  -1   -1.78    1.06
  -2   0  -1   -1.21    0.94
  -2   0  -1   -1.56    0.80
  -2   0  -1   -1.27    0.70
   2   0   1   -0.58    0.82
  -3   0  -1 2252.26   73.03
  -3   0  -1 2171.11   72.94
  -3   0  -1 1952.10   72.96
  -3   0  -1 2130.35   72.53
   3   0   1 2132.32   72.74
  -3   0  -1 2231.24   73.32
   3   0   1 2081.40   73.00
   3   0   1 2198.56   73.33
  -4   0  -1   -0.63    1.21
  -4   0  -1    0.62    1.11
  -4   0  -1   -1.51    1.67
   4   0   1   -1.14    1.81
  -4   0  -1    1.03    1.55
  -4   0  -1   -1.82    1.37
   4   0   1   -1.18    1.20
   4   0   1    0.10    1.39
   5   0   1  733.12   26.12
   5   0   1  716.21   27.11
   5   0   1  728.07   27.19
  -5   0  -1  778.95   27.10
  -5   0  -1  789.82   28.36
  -5   0  -1  770.30   26.80
  -5   0  -1  728.39   26.47
  -5   0  -1  734.76   25.86
  -6   0  -1   -0.18    1.63
  -6   0  -1   -0.56    1.70
  -6   0  -1   -1.40    2.00
   6   0   1    0.76    1.45
   6   0   1    0.78    2.12
  -7   0  -1   13.37    3.11
   7   0   1    9.24    3.14
  -7   0  -1   20.81    3.14
  -7   0  -1   17.33    2.60
  -8   0  -1   -0.62    1.90
   8   0   1   -0.51    2.91
  -8   0  -1   -0.51    2.27
  -8   0  -1   -1.07    2.55
   9   0   1   23.16    4.52
  -9   0  -1   27.68    3.87
  -9   0  -1   12.96    3.36
  -9   0  -1   12.93    3.62
 -10   0  -1    1.46    2.76
 -10   0  -1   -1.97    3.04
  10   0   1    1.62    3.47
 -10   0  -1    0.70    2.22
  11   0   1   38.63    6.65
 -11   0  -1   30.14    6.25
 -11   0  -1   26.03    5.16
  11  -1  -1    9.31    4.15
  11  -1  -1    2.16    3.22
 -11  -1   1   -1.85    2.93
 -11  -1   1    2.66    2.09
 -11  -1   1   -2.70    2.80
 -11   1   1    1.08    2.25
 -11   1   1    3.10    3.24
  11   1  -1    1.38    3.56
 -10  -1   1   -2.40    2.47
 -10  -1   1    1.12    2.94
  10  -1  -1   -3.31    2.80
  10  -1  -1   -0.30    2.91
 -10  -1   1   -0.74    1.84
 -10   1   1    4.09    2.94
  10   1  -1   -3.81    2.95
 -10   1   1   -1.04    1.95
  -9  -1   1    1.59    2.66
  -9  -1   1    0.25    1.71
  -9  -1   1   -0.54    2.43
   9  -1  -1    1.33    2.77
  -9   1   1   -0.53    1.83
   9   1  -1    5.29    3.23
  -9   1   1    3.09    2.74
  -8  -1   1    4.37    1.72
  -8  -1   1    3.39    2.65
  -8  -1   1    5.80    2.66
   8  -1  -1    6.06    2.92
  -8   1   1    7.81    2.87
   8   1  -1    4.94    2.99
  -8   1   1    4.83    1.94
  -7  -1   1   16.12    2.06
   7  -1  -1   10.86    2.75
  -7  -1   1   15.24    2.94
  -7  -1   1   12.62    2.67
   7   1  -1    7.24    2.10
   7   1  -1   12.29    2.95
  -7   1   1   13.38    2.70
  -7   1   1   11.71    3.06
  -7   1   1   10.56    2.07
  -7   1   1   20.46    3.17
  -6  -1   1   -0.09    1.10
  -6  -1   1    0.00    1.26
  -6  -1   1    1.52    1.80
  -6  -1   1    1.63    1.91
   6  -1  -1    3.19    1.96
  -6  -1   1    0.99    1.13
  -6   1   1   -0.13    1.54
  -6   1   1   -1.22    1.21
  -6   1   1    1.01    1.93
   6   1  -1    0.16    1.98
   6   1  -1    0.40    1.44
  -6   1   1   -0.86    1.64
  -5  -1   1  189.14    8.04
  -5  -1   1  182.98    7.18
   5  -1  -1  183.63    6.64
  -5  -1   1  195.85    7.29
  -5  -1   1  180.97    7.12
   5  -1  -1  176.76    8.07
  -5  -1   1  201.42    8.00
  -5   1   1  184.65    7.46
   5   1  -1  174.97    8.15
  -5   1   1  201.41    7.71
   5   1  -1  182.31    7.47
  -5   1   1  182.92    8.19
  -5   1   1  178.71    7.98
  -5   1   1  184.56    7.55
  -4  -1   1  472.41   16.61
  -4  -1   1  474.27   15.90
  -4  -1   1  450.37   15.88
  -4  -1   1  461.56   16.57
   4  -1  -1  456.13   16.64
  -4  -1   1  460.12   15.84
  -4   1   1  448.16   16.68
  -4   1   1  428.46   16.50
  -4   1   1  433.50   16.09
  -4   1   1  473.78   16.36
  -4   1   1  460.73   16.19
   4   1  -1  439.56   16.11
   4   1  -1  406.21   16.49
   3  -1  -1  501.85   18.91
  -3  -1   1  545.12   18.39
  -3  -1   1  558.38   18.95
  -3  -1   1  565.98   19.00
  -3  -1   1  525.43   18.54
  -3  -1   1  540.12   18.42
  -3   1   1  516.91   18.69
  -3   1   1  557.01   18.90
  -3   1   1  528.28   19.08
  -3   1   1  522.87   18.66
   3   1  -1  522.77   18.72
  -2  -1   1  332.80   11.84
  -2  -1   1  334.47   11.70
   2  -1  -1  323.00   11.61
  -2  -1   1  331.38   11.30
   2  -1  -1  333.65   11.81
  -2  -1   1  340.83   11.77
  -2  -1   1  332.80   11.29
   2  -1  -1  318.56   11.67
  -2  -1   1  322.16   11.54
  -2   1   1  322.86   11.80
  -2   1   1  337.36   11.22
  -2   1   1  339.95   11.62
  -2   1   1  319.72   11.59
  -2   1   1  320.73   11.83
   1  -1  -1   80.34    3.13
  -1  -1   1   84.79    3.03
  -1  -1   1   82.26    3.41
  -1  -1   1   87.32    3.29
  -1  -1   1   86.04    3.22
   1  -1  -1   82.27    3.40
   1  -1  -1   75.60    3.30
  -1  -1   1   83.45    3.02
  -1  -1   1   83.54    3.40
  -1   1   1   82.96    3.43
  -1   1   1   82.80    3.19
  -1   1   1   81.97    3.32
  -1   1   1   86.64    3.58
   0  -1   1  324.10   10.85
   0  -1   1  322.21   11.13
   0  -1   1  329.99   11.17
   0  -1  -1  315.37   10.95
   0  -1  -1  311.56   11.08
   0  -1  -1  315.52   11.10
   0  -1  -1  315.60   11.05
   0  -1   1  319.20   11.06
   0  -1   1  329.35   11.07
   0   1   1  327.71   11.17
   0   1  -1  314.63   11.17
   0   1   1  314.81   11.06
   0   1   1  322.17   11.14
   0   1  -1  310.07   10.97
   0   1  -1  303.97   11.04
  -1  -1  -1  338.07   12.44
   1  -1   1  356.27   12.33
  -1  -1  -1  370.04   12.47
   1  -1   1  320.88   12.50
   1  -1   1  318.61   12.55
  -1  -1  -1  364.86   12.48
   1   1   1  375.61   12.52
  -1   1  -1  358.41   12.55
  -1   1  -1  368.82   12.53
  -1   1  -1  365.83   12.53
   1   1   1  362.97   12.10
   1   1   1  355.98   12.57
   1   1   1  354.36   12.51
  -2  -1  -1  577.54   19.49
  -2  -1  -1  575.44   19.55
   2  -1   1  546.03   19.18
   2  -1   1  539.00   19.56
  -2  -1  -1  580.10   19.62
   2  -1   1  543.78   19.69
  -2  -1  -1  606.64   19.49
  -2   1  -1  546.77   19.70
   2   1   1  572.82   19.50
   2   1   1  542.37   19.48
  -2   1  -1  566.83   19.48
  -2   1  -1  555.99   19.42
  -2   1  -1  480.99   19.44
   2   1   1  567.68   19.66
   3  -1   1 1094.74   38.47
   3  -1   1 1197.72   38.32
  -3  -1  -1 1144.70   38.40
  -3  -1  -1 1075.06   38.01
  -3  -1  -1 1188.82   38.14
  -3  -1  -1 1104.13   38.19
   3  -1   1 1041.18   37.65
  -3   1  -1 1070.92   38.39
  -3   1  -1 1112.87   38.14
   3   1   1 1083.94   38.08
  -3   1  -1 1078.59   38.13
   3   1   1 1052.32   38.08
   3   1   1 1104.52   38.44
  -3   1  -1 1118.98   37.99
   4  -1   1    7.04    1.86
   4  -1   1    5.70    1.76
  -4  -1  -1    3.95    1.41
  -4  -1  -1    4.36    1.52
  -4  -1  -1    4.70    1.90
  -4  -1  -1    6.24    0.99
   4  -1   1    4.50    1.13
  -4  -1  -1    3.91    1.56
   4   1   1    4.72    1.53
   4   1   1    3.45    2.03
  -4   1  -1    8.75    2.08
  -4   1  -1    5.71    1.76
  -4   1  -1    4.49    1.50
  -4   1  -1    5.32    1.62
   4   1   1    5.94    1.70
  -5  -1  -1  499.64   20.00
   5  -1   1  545.15   20.48
  -5  -1  -1  558.36   20.31
   5  -1   1  547.47   19.12
  -5  -1  -1  537.71   19.68
  -5  -1  -1  570.16   20.47
   5  -1   1  508.91   20.07
  -5  -1  -1  539.23   18.69
   5   1   1  541.07   19.66
   5   1   1  534.69   20.46
  -5   1  -1  571.56   20.09
  -5   1  -1  570.08   19.55
  -5   1  -1  545.77   19.89
  -5   1  -1  560.39   20.43
  -6  -1  -1   15.09    2.85
  -6  -1  -1   15.11    2.17
  -6  -1  -1   13.06    2.55
   6  -1   1    7.45    2.51
  -6   1  -1   16.14    2.62
  -6   1  -1   14.49    2.37
  -6   1  -1   14.72    2.91
   6   1   1   14.77    2.22
   6   1   1   10.90    2.61
  -6   1  -1   12.17    2.07
  -7  -1  -1  171.22    7.87
  -7  -1  -1  184.04    8.94
  -7  -1  -1  179.55    8.53
   7  -1   1  158.58    9.10
  -7   1  -1  166.71    8.97
  -7   1  -1  161.99    8.40
   7   1   1  167.32    9.16
  -7   1  -1  181.60    8.17
  -8  -1  -1    0.78    2.67
  -8  -1  -1    7.85    2.31
   8  -1   1    0.78    2.89
  -8  -1  -1    6.13    2.71
  -8   1  -1    3.76    2.99
  -8   1  -1    5.97    2.38
  -8   1  -1    2.74    2.43
   8   1   1    8.10    3.42
  -9  -1  -1   63.01    5.30
  -9  -1  -1   71.40    6.04
   9  -1   1   76.89    7.23
  -9  -1  -1   82.17    6.91
  -9   1  -1   75.12    5.67
  -9   1  -1   78.69    6.11
   9   1   1   81.91    7.09
  -9   1  -1   73.27    6.58
 -10  -1  -1   22.92    4.16
 -10  -1  -1   23.43    3.36
  10  -1   1   18.00    4.61
 -10  -1  -1   19.87    4.32
  10  -1   1   22.07    4.24
 -10   1  -1   21.67    4.35
 -10   1  -1   20.23    3.54
  10   1   1   12.55    4.36
  11  -1   1   20.97    4.52
 -11  -1  -1   14.45    4.36
 -11  -1  -1   21.90    4.50
  11  -1   1   19.15    5.36
 -11  -2   1   10.80    3.57
  11  -2  -1   16.66    4.12
 -11  -2   1    4.04    2.19
  11  -2  -1    1.82    3.43
 -11  -2   1    3.71    3.35
 -11   2   1    5.54    2.64
 -11   2   1    5.08    3.47
  11   2  -1    6.34    4.19
  10  -2  -1   10.61    3.59
 -10  -2   1    4.07    3.10
 -10  -2   1    5.79    2.13
 -10  -2   1    1.95    3.02
  10  -2  -1   11.27    3.73
 -10   2   1    1.57    2.88
 -10   2   1    7.15    2.54
  10   2  -1    8.55    3.90
  -9  -2   1   -1.08    1.55
   9  -2  -1   -0.75    2.48
  -9  -2   1    1.59    2.40
  -9  -2   1    1.22    2.53
   9  -2  -1   -1.96    2.70
  -9   2   1   -2.15    1.89
  -9   2   1    3.77    2.81
   9   2  -1   -0.93    2.84
   8  -2  -1   54.74    5.55
  -8  -2   1   63.03    5.50
   8  -2  -1   56.98    5.29
  -8  -2   1   59.65    3.91
  -8  -2   1   53.26    5.00
  -8   2   1   57.25    5.54
  -8   2   1   59.42    4.51
   8   2  -1   67.65    5.96
   7  -2  -1    3.05    2.34
   7  -2  -1    0.77    2.19
  -7  -2   1   -0.79    1.31
  -7  -2   1   -0.01    2.04
  -7  -2   1   -0.23    2.07
  -7   2   1   -2.39    2.03
   7   2  -1    0.07    1.98
   7   2  -1   -2.03    2.40
  -7   2   1   -1.61    1.58
  -7   2   1    1.14    2.03
  -6  -2   1   35.10    2.66
  -6  -2   1   42.80    2.90
   6  -2  -1   38.80    3.77
   6  -2  -1   36.11    3.85
  -6  -2   1   36.44    3.70
  -6  -2   1   40.33    3.86
  -6   2   1   38.36    3.19
  -6   2   1   34.69    3.97
   6   2  -1   27.28    3.28
   6   2  -1   36.64    4.03
  -6   2   1   35.81    3.58
  -5  -2   1    0.07    1.47
  -5  -2   1   -0.08    1.07
  -5  -2   1    0.38    0.92
  -5  -2   1    0.06    1.50
  -5  -2   1   -0.44    0.90
   5  -2  -1   -1.79    1.52
   5  -2  -1   -0.39    1.57
   5   2  -1    1.40    1.55
  -5   2   1    2.91    1.33
   5   2  -1    0.29    1.53
  -5   2   1    1.30    1.66
  -5   2   1    2.72    1.43
  -5   2   1    0.34    1.52
   4  -2  -1  120.71    5.94
   4  -2  -1  118.43    5.47
   4  -2  -1  131.40    5.91
  -4  -2   1  125.28    5.69
  -4  -2   1  124.23    5.07
  -4  -2   1  119.89    6.10
  -4  -2   1  130.67    5.01
  -4  -2   1  121.68    4.99
  -4  -2   1  122.84    5.84
   4   2  -1  118.09    5.72
  -4   2   1  118.07    6.01
  -4   2   1  127.52    6.01
  -4   2   1  130.57    5.59
  -4   2   1  139.92    5.79
  -3  -2   1  104.16    4.11
  -3  -2   1   98.80    4.06
   3  -2  -1   96.83    4.64
  -3  -2   1  104.14    4.55
   3  -2  -1  100.61    4.84
  -3  -2   1  110.67    5.13
   3  -2  -1   99.72    4.73
  -3  -2   1  110.67    4.82
  -3   2   1  105.72    4.63
   3   2  -1   86.97    4.68
   3   2  -1   97.84    4.18
  -3   2   1  107.39    4.66
  -3   2   1  101.83    5.06
  -3   2   1  105.09    4.94
  -2  -2   1  380.91   13.12
   2  -2  -1  382.89   13.41
  -2  -2   1  387.92   13.50
   2  -2  -1  392.77   13.59
   2  -2  -1  373.89   13.49
  -2  -2   1  361.37   13.66
  -2  -2   1  409.40   13.25
  -2  -2   1  381.49   13.12
  -2   2   1  367.47   13.01
   2   2  -1  382.51   13.63
  -2   2   1  385.13   13.71
   2   2  -1  358.64   13.27
  -2   2   1  349.33   13.53
  -2   2   1  376.50   13.47
   1  -2  -1    9.49    1.31
  -1  -2   1    7.57    0.95
  -1  -2   1    9.72    1.42
  -1  -2   1    8.32    1.40
   1  -2  -1    6.19    0.96
  -1  -2   1    6.27    0.84
   1  -2  -1    7.06    1.22
  -1  -2   1    7.49    1.29
  -1  -2   1    4.25    0.82
  -1   2   1    5.26    1.16
  -1   2   1    7.19    1.05
  -1   2   1    8.52    1.10
  -1   2   1    5.76    1.04
   1   2  -1    5.58    1.13
   0  -2   1   42.29    2.39
   0  -2  -1   40.83    2.42
   0  -2   1   44.08    2.57
   0  -2   1   40.83    2.03
   0  -2  -1   41.39    2.42
   0  -2  -1   40.25    2.08
   0  -2   1   35.75    2.26
   0  -2  -1   40.95    2.20
   0  -2   1   45.33    2.31
   0   2   1   45.55    2.59
   0   2  -1   41.75    1.88
   0   2   1   40.27    2.38
   0   2   1   43.70    2.44
   1  -2   1  117.80    4.51
  -1  -2  -1  114.06    4.66
  -1  -2  -1  117.61    4.48
   1  -2   1  114.23    4.72
   1  -2   1  111.34    4.45
  -1  -2  -1  122.67    4.75
   1  -2   1  113.13    4.87
  -1  -2  -1  113.63    4.71
   1   2   1  112.42    4.69
   1   2   1  114.13    4.34
  -1   2  -1  109.37    4.63
   1   2   1  112.79    4.80
  -1   2  -1  106.61    4.69
  -1   2  -1  118.56    4.94
  -2  -2  -1    3.94    1.25
  -2  -2  -1    4.75    1.27
   2  -2   1    3.93    1.15
  -2  -2  -1    3.13    1.43
  -2  -2  -1    3.53    1.24
   2  -2   1    3.16    0.87
   2  -2   1    2.93    1.24
  -2  -2  -1    2.29    1.08
   2  -2   1    3.64    1.38
  -2   2  -1    2.21    1.22
  -2   2  -1    2.41    1.20
   2   2   1    2.71    1.13
  -2   2  -1    4.65    1.47
   2   2   1    2.28    1.39
   3  -2   1  222.84    8.11
  -3  -2  -1  217.42    8.64
  -3  -2  -1  225.25    8.97
  -3  -2  -1  202.57    8.84
  -3  -2  -1  224.96    8.74
   3  -2   1  222.27    8.93
   3  -2   1  236.36    9.18
   3  -2   1  235.17    8.79
   3   2   1  234.24    8.78
  -3   2  -1  227.89    9.15
  -3   2  -1  218.31    9.05
   3   2   1  218.63    9.00
  -3   2  -1  214.45    8.81
   3   2   1  239.03    9.21
  -4  -2  -1    1.82    1.39
  -4  -2  -1    3.81    1.65
   4  -2   1    2.02    1.50
  -4  -2  -1    1.64    1.19
   4  -2   1    2.65    1.51
   4  -2   1    2.23    0.89
  -4  -2  -1    3.55    1.77
   4  -2   1    4.47    1.96
  -4   2  -1    3.14    1.44
  -4   2  -1    4.96    1.82
   4   2   1    0.59    1.73
   4   2   1    1.48    1.67
  -4   2  -1    3.68    1.64
   5  -2   1  221.09    9.77
  -5  -2  -1  211.05    9.28
  -5  -2  -1  214.99    9.44
  -5  -2  -1  226.09    8.93
   5  -2   1  211.90    8.00
   5   2   1  208.86    9.16
   5   2   1  225.58    9.83
  -5   2  -1  245.90    9.32
  -5   2  -1  226.61    9.07
  -5   2  -1  223.10    9.68
  -6  -2  -1    4.27    2.05
   6  -2   1    8.10    2.69
  -6  -2  -1    8.60    1.89
  -6  -2  -1    7.13    2.40
  -6   2  -1   10.72    2.63
   6   2   1    9.47    2.86
  -6   2  -1    5.51    2.02
  -6   2  -1    6.22    2.20
   6   2   1    8.46    2.27
   7  -2   1    6.51    2.99
  -7  -2  -1    6.11    2.64
   7  -2   1    6.96    2.63
  -7  -2  -1    8.45    2.66
  -7  -2  -1    4.45    1.96
   7   2   1    2.46    2.78
  -7   2  -1    4.93    2.23
   7   2   1    4.41    2.20
  -7   2  -1    3.44    2.65
   8  -2   1   22.67    4.02
  -8  -2  -1   16.16    2.70
  -8  -2  -1   15.78    3.47
  -8  -2  -1   16.15    3.30
   8  -2   1   15.37    3.26
   8   2   1   22.47    4.09
  -8   2  -1   17.90    3.72
  -8   2  -1   16.55    3.07
  -9  -2  -1    4.90    2.28
   9  -2   1    2.58    2.77
  -9  -2  -1    6.43    3.27
  -9  -2  -1    8.73    3.04
   9  -2   1    3.20    3.17
  -9   2  -1    3.58    2.51
   9   2   1    6.16    3.51
  -9   2  -1    4.97    3.18
  10  -2   1    6.58    3.53
  10  -2   1   10.11    3.67
 -10  -2  -1   10.67    3.61
 -10  -2  -1    6.81    3.24
 -10  -2  -1    9.07    2.65
 -10   2  -1    3.62    2.62
 -10   2  -1    5.17    3.61
  10   2   1    5.11    3.87
 -11  -2  -1    5.17    3.83
  11  -2   1    2.28    3.64
 -11  -3   1    2.01    3.28
 -11  -3   1    2.69    2.03
  11  -3  -1    5.73    3.74
  11  -3  -1    7.23    3.76
 -11  -3   1   -0.32    3.05
  11   3  -1   -3.57    3.52
 -11   3   1   -1.17    2.47
 -11   3   1    2.05    3.43
  10  -3  -1    3.00    3.14
 -10  -3   1   -1.43    1.52
 -10  -3   1    1.33    2.82
 -10  -3   1    1.92    2.82
  10  -3  -1    2.14    3.11
  10   3  -1   -0.23    3.23
 -10   3   1   -0.32    2.27
 -10   3   1    1.02    2.96
  -9  -3   1   14.33    2.31
  -9  -3   1   19.89    3.66
  -9  -3   1   12.88    3.35
   9  -3  -1   18.38    3.82
   9  -3  -1   17.79    3.62
  -9   3   1   13.47    3.34
  -9   3   1   20.36    3.25
   9   3  -1   20.38    4.23
  -8  -3   1   30.06    4.47
   8  -3  -1   39.78    5.18
  -8  -3   1   43.04    4.57
   8  -3  -1   39.64    4.73
  -8  -3   1   29.12    3.13
  -8   3   1   33.80    4.05
  -8   3   1   34.08    4.98
  -8   3   1   38.59    4.54
   8   3  -1   36.84    5.85
   8   3  -1   29.39    4.38
  -7  -3   1   41.45    4.40
  -7  -3   1   50.97    4.43
  -7  -3   1   51.67    3.36
   7  -3  -1   50.51    4.67
   7  -3  -1   49.53    4.83
  -7   3   1   48.49    4.24
   7   3  -1   55.31    4.69
  -7   3   1   45.84    4.58
   7   3  -1   49.39    5.06
  -7   3   1   47.00    4.85
  -6  -3   1  105.34    4.83
  -6  -3   1  109.63    5.09
   6  -3  -1  107.46    6.00
  -6  -3   1  107.66    5.85
  -6  -3   1   98.51    5.72
   6  -3  -1  105.71    6.16
  -6   3   1  109.94    6.16
  -6   3   1   92.93    6.04
  -6   3   1  110.62    5.70
   6   3  -1  100.85    5.86
   5  -3  -1  226.37    9.60
  -5  -3   1  238.55    9.28
  -5  -3   1  226.09    8.66
  -5  -3   1  231.01    8.60
  -5  -3   1  228.02    9.53
   5  -3  -1  234.30    9.60
   5   3  -1  222.00    9.50
  -5   3   1  233.20    9.77
  -5   3   1  222.78    9.65
   5   3  -1  213.30    8.35
  -5   3   1  223.55    9.30
  -4  -3   1  149.88    6.54
  -4  -3   1  161.67    6.97
   4  -3  -1  156.25    7.01
  -4  -3   1  168.16    6.25
   4  -3  -1  149.23    6.80
  -4  -3   1  151.56    6.21
   4  -3  -1  169.99    6.99
  -4  -3   1  174.79    7.47
  -4   3   1  157.83    7.24
  -4   3   1  149.85    7.01
   4   3  -1  156.26    6.17
   4   3  -1  159.58    7.16
  -4   3   1  159.79    6.89
  -3  -3   1    1.40    1.13
   3  -3  -1    0.65    1.53
  -3  -3   1    3.12    1.27
  -3  -3   1    0.80    1.84
   3  -3  -1    1.34    1.69
  -3  -3   1    0.88    1.52
  -3  -3   1   -0.42    1.05
   3  -3  -1    2.93    1.64
  -3   3   1    0.63    1.40
  -3   3   1    1.86    1.54
   3   3  -1    3.47    1.30
  -3   3   1    2.53    0.89
  -3   3   1    3.52    2.13
   3   3  -1   -0.93    1.91
  -2  -3   1  147.72    5.50
  -2  -3   1  137.59    5.46
  -2  -3   1  140.43    5.17
  -2  -3   1  126.75    6.09
  -2  -3   1  133.86    5.74
   2  -3  -1  145.03    5.90
   2  -3  -1  134.70    5.71
   2  -3  -1  140.26    5.88
   2   3  -1  135.91    6.07
   2   3  -1  132.30    5.59
  -2   3   1  138.07    6.22
  -2   3   1  141.18    5.86
  -2   3   1  143.20    5.80
  -2   3   1  137.57    5.40
  -1  -3   1 2295.27   75.89
  -1  -3   1 2295.01   75.89
   1  -3  -1 2304.17   76.09
   1  -3  -1 2103.62   75.88
   1  -3  -1 2333.71   76.13
  -1  -3   1 2301.66   75.92
  -1  -3   1 2154.34   76.17
  -1   3   1 2242.23   76.24
   1   3  -1 2186.06   75.90
   1   3  -1 2217.65   76.08
  -1   3   1 2256.52   75.92
   1   3  -1 2262.75   76.17
  -1   3   1 2084.51   75.79
  -1   3   1 2296.53   76.13
   0  -3  -1  453.40   17.01
   0  -3   1  476.76   16.90
   0  -3   1  464.91   17.23
   0  -3  -1  499.14   16.73
   0  -3  -1  492.30   17.15
   0  -3  -1  484.96   17.12
   0  -3   1  482.43   17.17
   0  -3   1  479.26   17.07
   0   3   1  489.87   17.20
   0   3  -1  491.84   16.55
   0   3   1  495.67   17.21
   0   3   1  470.21   17.13
   0   3  -1  506.93   17.09
   0   3  -1  478.66   17.31
  -1  -3  -1 2106.81   70.23
  -1  -3  -1 2092.82   69.78
  -1  -3  -1 1975.20   70.18
  -1  -3  -1 2090.50   70.19
   1  -3   1 2171.96   69.98
   1  -3   1 2115.35   70.04
   1  -3   1 1860.74   70.26
  -1   3  -1 1957.18   70.22
   1   3   1 1990.64   70.18
  -1   3  -1 2037.12   69.92
   1   3   1 2096.03   69.98
  -1   3  -1 2161.31   70.52
   1   3   1 2145.31   70.39
   2  -3   1  475.48   17.59
  -2  -3  -1  487.24   17.32
  -2  -3  -1  485.22   17.05
  -2  -3  -1  529.88   17.53
  -2  -3  -1  464.49   17.49
  -2  -3  -1  477.69   17.28
   2  -3   1  506.82   17.22
   2  -3   1  475.67   16.95
   2  -3   1  516.06   17.55
   2   3   1  486.34   17.64
   2   3   1  485.69   16.79
  -2   3  -1  480.52   17.66
   2   3   1  467.64   17.28
  -2   3  -1  452.33   17.39
  -2   3  -1  457.62   17.27
   3  -3   1  376.82   13.44
  -3  -3  -1  428.83   14.19
  -3  -3  -1  374.39   14.22
  -3  -3  -1  384.96   14.05
  -3  -3  -1  375.71   14.45
   3  -3   1  375.21   14.31
   3  -3   1  381.86   14.40
  -3  -3  -1  395.10   13.98
   3  -3   1  385.34   14.02
   3   3   1  354.46   13.97
  -3   3  -1  367.32   14.49
  -3   3  -1  404.64   14.33
   3   3   1  367.34   14.42
  -3   3  -1  359.54   14.24
  -4  -3  -1   16.51    2.52
   4  -3   1   21.22    2.69
   4  -3   1   19.21    1.55
  -4  -3  -1   19.01    2.41
  -4  -3  -1   20.25    2.77
  -4  -3  -1   23.88    2.84
   4  -3   1   18.90    2.80
   4  -3   1   18.24    2.59
  -4   3  -1   17.43    2.45
   4   3   1   25.25    3.09
  -4   3  -1   22.10    2.72
   4   3   1   22.10    2.85
  -4   3  -1   26.59    3.08
  -5  -3  -1   -2.28    1.63
  -5  -3  -1    0.20    1.35
  -5  -3  -1    0.92    1.83
   5  -3   1    0.85    1.69
   5  -3   1    2.21    2.02
  -5   3  -1   -0.49    1.67
  -5   3  -1   -1.02    1.90
   5   3   1   -0.90    1.83
   5   3   1    0.23    1.76
  -5   3  -1    1.56    1.99
  -6  -3  -1    4.54    1.89
  -6  -3  -1    4.30    2.21
   6  -3   1    3.04    2.42
   6  -3   1    6.76    2.29
  -6  -3  -1    1.70    2.03
  -6   3  -1    6.26    2.37
  -6   3  -1    1.93    2.32
   6   3   1    6.77    2.70
  -6   3  -1    3.89    2.15
   6   3   1    8.29    2.49
  -7  -3  -1   31.37    3.96
   7  -3   1   47.05    4.48
  -7  -3  -1   40.33    4.40
  -7  -3  -1   37.33    3.66
   7  -3   1   41.81    4.94
   7   3   1   36.40    4.54
  -7   3  -1   51.79    4.43
  -7   3  -1   36.45    4.37
   7   3   1   32.32    5.05
  -7   3  -1   46.62    5.01
  -8  -3  -1   24.07    3.55
  -8  -3  -1   29.35    4.55
  -8  -3  -1   22.98    3.90
   8  -3   1   23.53    3.72
   8  -3   1   19.81    3.94
  -8   3  -1   23.31    3.49
   8   3   1   18.46    4.05
  -8   3  -1   34.00    4.58
  -9  -3  -1   65.87    5.18
  -9  -3  -1   73.27    6.26
   9  -3   1   70.81    6.89
  -9  -3  -1   82.62    6.78
   9  -3   1   77.15    6.34
  -9   3  -1   76.61    5.97
   9   3   1   77.44    7.31
  -9   3  -1   78.62    7.02
  10  -3   1   57.02    6.02
 -10  -3  -1   49.55    5.81
 -10  -3  -1   48.52    4.77
  10  -3   1   48.21    6.55
 -10  -3  -1   47.39    6.36
 -10   3  -1   33.03    5.39
 -10   3  -1   39.83    5.25
  10   3   1   57.43    7.28
 -11  -4   1    8.72    2.91
  11  -4  -1    6.20    3.83
  11  -4  -1    9.28    3.97
 -11   4   1    8.43    4.55
 -10  -4   1   -1.22    2.67
  10  -4  -1    2.43    3.14
  10  -4  -1    0.28    3.03
 -10  -4   1   -0.32    1.66
  10   4  -1    5.79    3.79
 -10   4   1    3.79    2.60
 -10   4   1   -1.70    3.00
   9  -4  -1    1.08    2.71
  -9  -4   1    3.05    2.72
  -9  -4   1    4.39    2.73
  -9  -4   1    0.34    1.55
   9  -4  -1    1.48    2.76
  -9   4   1    2.97    2.93
   9   4  -1    5.00    3.36
  -9   4   1    1.51    2.46
   8  -4  -1   13.30    3.32
  -8  -4   1   13.97    3.00
   8  -4  -1   13.27    3.22
  -8  -4   1   14.19    2.08
  -8  -4   1    5.73    2.81
   8   4  -1    8.21    3.25
  -8   4   1    8.06    3.00
  -8   4   1   11.82    2.80
   8   4  -1    8.45    3.01
  -8   4   1   10.34    3.14
  -7  -4   1   33.97    2.99
   7  -4  -1   37.92    4.38
   7  -4  -1   33.27    4.27
  -7  -4   1   28.69    4.00
  -7  -4   1   30.41    4.01
  -7   4   1   36.23    4.75
  -7   4   1   35.16    4.51
   7   4  -1   35.43    4.89
   7   4  -1   28.22    4.47
  -7   4   1   31.84    4.02
   6  -4  -1   51.94    4.50
  -6  -4   1   51.63    3.32
   6  -4  -1   53.08    4.57
  -6  -4   1   45.93    4.29
  -6  -4   1   58.15    4.19
  -6   4   1   56.11    5.11
   6   4  -1   48.25    4.96
  -6   4   1   45.77    4.68
   6   4  -1   55.12    4.79
  -6   4   1   51.98    4.31
  -5  -4   1   18.28    2.30
  -5  -4   1   10.98    2.27
  -5  -4   1   16.55    2.69
  -5  -4   1   19.83    2.26
   5  -4  -1   19.60    2.60
  -5  -4   1   22.25    2.74
   5  -4  -1   18.30    2.70
  -5   4   1   19.05    2.60
  -5   4   1   14.32    2.83
  -5   4   1   18.64    2.68
   5   4  -1   19.62    1.98
   5   4  -1   18.94    2.91
   4  -4  -1  325.26   12.53
  -4  -4   1  315.59   11.80
  -4  -4   1  328.92   11.90
   4  -4  -1  318.74   12.51
   4  -4  -1  322.90   12.45
  -4  -4   1  337.05   12.55
  -4  -4   1  345.49   11.86
  -4  -4   1  327.49   12.90
  -4   4   1  310.79   11.15
  -4   4   1  307.45   12.38
   4   4  -1  310.23   11.73
  -4   4   1  319.69   12.52
   4   4  -1  313.49   12.68
  -4   4   1  315.33   12.83
  -3  -4   1  667.34   24.30
   3  -4  -1  708.59   24.90
  -3  -4   1  669.40   25.09
  -3  -4   1  754.60   24.89
   3  -4  -1  711.98   24.80
  -3  -4   1  700.17   24.09
   3  -4  -1  678.87   24.89
  -3  -4   1  701.53   24.38
  -3   4   1  688.59   24.81
  -3   4   1  698.75   24.89
  -3   4   1  681.29   24.07
   3   4  -1  703.63   24.48
   3   4  -1  701.61   25.13
  -3   4   1  696.77   25.18
   2  -4  -1  834.84   27.24
   2  -4  -1  808.95   27.35
   2  -4  -1  818.10   27.44
  -2  -4   1  769.69   26.98
  -2  -4   1  754.24   27.15
  -2  -4   1  755.01   26.99
  -2  -4   1  735.69   27.48
  -2   4   1  791.79   26.92
  -2   4   1  770.56   27.40
  -2   4   1  758.58   27.65
   2   4  -1  746.34   27.55
   2   4  -1  764.82   27.19
  -2   4   1  764.14   27.07
   1  -4  -1  755.59   27.02
  -1  -4   1  780.74   26.81
  -1  -4   1  798.98   26.87
  -1  -4   1  787.76   26.84
   1  -4  -1  811.37   26.91
  -1  -4   1  665.59   27.05
   1  -4  -1  769.27   26.99
   1   4  -1  787.54   27.18
   1   4  -1  722.55   26.81
  -1   4   1  792.06   26.92
  -1   4   1  785.96   27.13
   1   4  -1  751.48   27.11
  -1   4   1  785.96   26.55
  -1   4   1  759.90   27.25
   0  -4  -1  725.87   24.64
   0  -4  -1  750.16   25.31
   0  -4  -1  723.15   25.20
   0  -4  -1  744.80   25.33
   0  -4   1  732.21   25.02
   0  -4   1  611.62   25.28
   0  -4   1  723.12   25.19
   0   4  -1  689.89   25.54
   0   4  -1  741.45   25.40
   0   4  -1  710.12   24.42
   0   4   1  694.73   25.31
   0   4   1  721.59   25.35
   0   4   1  724.48   25.39
   0   4  -1  750.78   25.24
   1  -4   1  529.77   18.71
  -1  -4  -1  526.17   17.96
   1  -4   1  483.86   18.79
  -1  -4  -1  529.59   18.69
   1  -4   1  535.25   18.42
  -1  -4  -1  482.09   18.64
  -1  -4  -1  539.80   18.65
   1   4   1  524.54   18.94
  -1   4  -1  471.14   18.59
  -1   4  -1  514.97   19.10
  -1   4  -1  544.57   18.19
   1   4   1  520.14   18.67
   1   4   1  524.75   18.54
  -2  -4  -1    3.16    1.61
   2  -4   1    6.27    1.49
  -2  -4  -1    2.94    1.66
   2  -4   1    2.75    1.92
  -2  -4  -1    3.02    1.78
  -2  -4  -1    3.32    1.49
   2  -4   1    4.75    1.49
   2  -4   1    2.85    1.75
  -2  -4  -1    3.47    1.22
  -2   4  -1    2.64    1.44
   2   4   1    3.45    1.38
   2   4   1    4.57    2.11
   2   4   1    5.11    1.54
  -2   4  -1    2.90    1.49
  -2   4  -1    2.41    2.10
  -3  -4  -1   88.83    4.53
  -3  -4  -1   93.03    4.50
   3  -4   1   89.14    4.04
  -3  -4  -1   90.84    4.41
  -3  -4  -1   81.04    4.79
   3  -4   1   90.70    5.05
  -3  -4  -1   86.11    4.76
   3  -4   1   93.95    4.59
   3  -4   1   92.44    4.88
   3   4   1   87.19    5.10
  -3   4  -1   97.03    5.44
  -3   4  -1   86.31    4.81
  -3   4  -1   90.35    4.81
   3   4   1   86.20    3.77
   3   4   1   87.19    4.56
  -4  -4  -1   36.31    3.41
  -4  -4  -1   40.68    3.28
   4  -4   1   36.06    3.18
   4  -4   1   39.66    3.72
  -4  -4  -1   40.99    3.08
   4  -4   1   38.74    3.49
  -4  -4  -1   43.52    4.00
  -4   4  -1   39.90    3.94
   4   4   1   36.64    3.88
  -4   4  -1   35.96    3.38
  -4   4  -1   37.98    3.62
   5  -4   1   25.72    3.40
  -5  -4  -1   26.76    3.48
  -5  -4  -1   26.41    3.11
  -5  -4  -1   26.77    3.35
   5  -4   1   30.30    3.86
   5   4   1   30.38    3.75
  -5   4  -1   24.32    3.34
   5   4   1   27.47    4.30
  -5   4  -1   31.04    3.77
  -5   4  -1   31.65    3.68
  -6  -4  -1   43.24    4.19
   6  -4   1   46.70    4.14
  -6  -4  -1   29.50    4.08
   6  -4   1   41.59    4.76
  -6  -4  -1   40.89    3.68
   6   4   1   50.56    4.92
  -6   4  -1   41.70    4.33
  -6   4  -1   46.94    4.71
   6   4   1   41.64    4.86
  -6   4  -1   37.40    4.59
  -7  -4  -1   24.20    2.99
  -7  -4  -1   22.51    3.38
  -7  -4  -1   24.03    3.56
   7  -4   1   23.93    3.75
   7  -4   1   31.97    4.06
  -7   4  -1   29.44    4.62
   7   4   1   26.47    4.20
  -7   4  -1   25.01    3.77
   7   4   1   24.28    3.79
  -7   4  -1   30.00    4.12
  -8  -4  -1   29.06    4.13
  -8  -4  -1   25.17    3.67
   8  -4   1   43.36    5.41
  -8  -4  -1   30.23    4.03
   8  -4   1   36.05    4.84
  -8   4  -1   26.42    3.72
  -8   4  -1   26.73    4.19
   8   4   1   22.73    3.93
   8   4   1   42.94    5.67
  -9  -4  -1   18.41    4.00
   9  -4   1   27.21    4.23
   9  -4   1   26.40    4.71
  -9  -4  -1   21.78    3.98
  -9  -4  -1   27.57    3.80
   9   4   1   36.68    5.36
  -9   4  -1   25.04    4.34
  -9   4  -1   22.33    3.82
 -10  -4  -1   -0.42    3.03
 -10  -4  -1    1.35    3.24
 -10  -4  -1    0.18    2.11
  10  -4   1    9.01    3.86
  10  -4   1    4.81    3.24
  10   4   1    1.99    3.94
 -10   4  -1   -1.04    2.51
 -10   4  -1   -0.52    3.15
  10  -5  -1    2.47    3.31
  10  -5  -1   10.94    3.82
 -10  -5   1    9.51    2.11
 -10  -5   1    4.66    3.34
  10   5  -1   23.16    4.90
 -10   5   1    9.12    3.88
 -10   5   1    6.20    2.98
   9  -5  -1    7.22    3.25
  -9  -5   1   12.38    2.22
   9  -5  -1   15.36    3.75
  -9  -5   1   12.08    3.40
  -9   5   1   18.24    3.98
  -9   5   1   16.64    3.26
   9   5  -1    9.19    3.88
  -9   5   1   12.28    4.47
  -8  -5   1    1.99    2.46
   8  -5  -1   -1.93    2.42
  -8  -5   1    0.63    1.54
   8  -5  -1    2.57    2.61
   8   5  -1   -3.52    2.67
  -8   5   1    1.40    2.34
  -8   5   1    4.97    3.14
   8   5  -1    0.39    2.80
  -8   5   1    2.24    2.73
  -7  -5   1    7.39    2.48
  -7  -5   1    6.36    1.77
   7  -5  -1    5.81    2.73
   7  -5  -1    9.40    2.90
   7   5  -1    1.65    2.51
  -7   5   1    2.97    2.31
  -7   5   1    1.71    2.90
   7   5  -1    2.00    2.84
  -7   5   1    4.65    2.71
  -6  -5   1    4.75    1.58
  -6  -5   1    0.65    1.82
  -6  -5   1    3.62    2.92
   6  -5  -1    3.86    2.26
  -6  -5   1    1.72    2.17
   6  -5  -1    4.74    2.37
  -6   5   1    4.24    2.23
  -6   5   1    6.63    2.52
   6   5  -1    3.86    2.63
  -6   5   1    7.23    2.97
  -5  -5   1   91.18    6.24
   5  -5  -1   99.34    5.70
   5  -5  -1   98.83    5.69
  -5  -5   1   91.47    5.52
  -5  -5   1   96.28    4.89
  -5  -5   1   99.06    4.71
  -5   5   1   92.48    5.63
  -5   5   1   92.99    5.68
   5   5  -1  102.97    6.24
  -5   5   1   92.94    6.27
  -4  -5   1   44.62    2.87
   4  -5  -1   51.97    3.91
  -4  -5   1   49.39    3.18
   4  -5  -1   42.25    3.71
  -4  -5   1   51.18    3.25
  -4  -5   1   51.46    3.82
  -4  -5   1   48.16    4.37
   4  -5  -1   46.29    3.92
  -4   5   1   41.82    4.38
  -4   5   1   50.17    3.94
   4   5  -1   47.38    3.12
   4   5  -1   54.08    4.40
  -4   5   1   46.73    2.67
  -4   5   1   55.57    3.98
   3  -5  -1   21.56    2.82
   3  -5  -1   18.35    2.58
  -3  -5   1   20.39    2.67
  -3  -5   1   19.63    2.79
  -3  -5   1   22.80    1.65
  -3  -5   1   19.78    2.37
   3  -5  -1   26.85    2.92
  -3  -5   1   22.16    2.39
  -3   5   1   22.06    2.28
  -3   5   1   22.41    2.58
   3   5  -1   16.56    2.40
  -3   5   1   24.33    3.57
   3   5  -1   20.95    2.85
  -3   5   1   21.28    2.77
   2  -5  -1   18.44    2.66
  -2  -5   1   11.75    2.20
  -2  -5   1   16.74    2.21
  -2  -5   1   14.97    2.09
  -2  -5   1   13.72    1.94
   2  -5  -1    6.41    1.87
   2  -5  -1   11.64    1.95
  -2   5   1   10.30    2.31
  -2   5   1   19.43    2.50
   2   5  -1   12.65    2.31
  -2   5   1   18.17    2.73
   2   5  -1   14.08    2.06
  -2   5   1   14.95    2.09
  -1  -5   1    2.42    1.50
  -1  -5   1    2.00    1.48
   1  -5  -1    0.79    1.54
  -1  -5   1    2.14    1.82
  -1  -5   1    5.02    1.55
   1  -5  -1    2.68    1.55
   1  -5  -1    1.77    1.51
  -1   5   1    0.91    1.64
  -1   5   1    1.06    1.92
   1   5  -1    1.73    1.98
   1   5  -1    1.26    1.71
  -1   5   1    1.11    1.05
   1   5  -1    2.32    1.44
  -1   5   1    2.41    1.57
   0  -5  -1   82.60    4.60
   0  -5  -1   87.59    3.69
   0  -5   1   83.42    4.39
   0  -5  -1   86.46    4.58
   0  -5   1   82.63    4.83
   0  -5   1   85.63    4.60
   0  -5  -1   89.51    4.67
   0   5  -1   84.92    4.84
   0   5  -1   90.26    4.67
   0   5   1   85.07    4.89
   0   5  -1   89.01    5.19
   0   5   1   75.02    4.62
   0   5  -1   93.89    3.36
   0   5   1   91.83    4.97
  -1  -5  -1   62.67    4.13
   1  -5   1   70.00    3.86
   1  -5   1   71.39    4.32
  -1  -5  -1   71.19    4.16
   1  -5   1   66.36    4.25
  -1  -5  -1   70.16    3.09
  -1  -5  -1   73.82    4.23
   1   5   1   74.03    4.65
  -1   5  -1   69.51    3.32
  -1   5  -1   73.70    5.00
   1   5   1   69.77    4.18
  -1   5  -1   71.04    4.15
  -1   5  -1   70.09    4.17
   1   5   1   59.15    4.08
  -2  -5  -1    4.70    1.56
  -2  -5  -1    5.08    1.17
   2  -5   1    4.56    1.53
   2  -5   1    6.19    1.77
  -2  -5  -1    2.44    1.70
   2  -5   1    3.50    1.67
  -2  -5  -1    2.47    1.50
  -2   5  -1    5.37    1.54
   2   5   1    5.61    1.53
   2   5   1    6.15    1.54
   2   5   1    6.40    2.11
  -2   5  -1    0.34    2.10
  -2   5  -1    5.39    1.40
  -2   5  -1    4.78    1.73
   3  -5   1    1.66    1.52
  -3  -5  -1    0.83    1.42
   3  -5   1    2.04    1.74
  -3  -5  -1    1.14    1.77
  -3  -5  -1    4.21    1.95
  -3  -5  -1    1.64    1.37
   3  -5   1    4.41    1.85
   3   5   1    2.00    1.24
  -3   5  -1    4.06    1.59
  -3   5  -1    1.32    2.29
  -3   5  -1    4.05    1.35
   3   5   1    3.14    1.94
  -3   5  -1    2.12    1.76
  -4  -5  -1    8.06    2.47
   4  -5   1    8.23    2.00
  -4  -5  -1    6.58    1.99
   4  -5   1   12.60    2.58
  -4  -5  -1    7.73    1.84
  -4  -5  -1    7.30    1.84
   4  -5   1    8.01    2.49
  -4   5  -1    5.86    2.51
   4   5   1    6.02    2.36
  -4   5  -1   10.46    2.32
  -4   5  -1   10.79    2.33
   5  -5   1   18.32    2.67
  -5  -5  -1   12.22    2.20
  -5  -5  -1   10.30    2.50
  -5  -5  -1   11.38    2.27
   5  -5   1   16.90    3.06
  -5   5  -1   17.07    3.24
   5   5   1   14.69    3.26
  -5   5  -1   14.12    2.78
   5   5   1   12.02    2.97
  -5   5  -1   20.92    3.10
   6  -5   1   -2.59    2.26
  -6  -5  -1    3.27    2.14
  -6  -5  -1   -1.19    2.19
  -6  -5  -1    2.75    1.88
   6  -5   1    1.42    2.09
  -6   5  -1   -0.66    2.30
  -6   5  -1    1.57    2.55
  -6   5  -1    0.92    2.33
   6   5   1    0.82    2.48
   6   5   1   -1.46    2.56
   7  -5   1   69.47    6.02
   7  -5   1   69.32    5.55
  -7  -5  -1   55.78    5.16
  -7  -5  -1   65.58    5.64
  -7  -5  -1   61.65    4.66
   7   5   1   67.94    6.36
  -7   5  -1   63.24    5.69
   7   5   1   75.70    6.03
  -7   5  -1   64.06    5.72
  -7   5  -1   55.74    5.67
   8  -5   1    5.50    3.25
  -8  -5  -1    4.71    2.15
  -8  -5  -1    7.69    2.87
   8  -5   1    6.52    2.81
  -8   5  -1    5.63    3.18
   8   5   1   10.52    3.49
  -8   5  -1    8.33    3.07
  -8   5  -1    5.43    3.09
   8   5   1    9.95    3.67
   9  -5   1   21.59    4.12
  -9  -5  -1   19.75    2.97
   9  -5   1   16.20    4.00
  -9  -5  -1   20.36    4.07
   9   5   1   17.81    4.64
  -9   5  -1   12.89    3.88
  -9   5  -1   17.84    3.78
 -10  -5  -1   54.50    5.09
  10  -5   1   58.82    6.54
 -10  -5  -1   40.97    6.15
  10  -5   1   46.13    6.26
  10   5   1   51.78    7.87
 -10   5  -1   45.52    6.17
 -10   5  -1   51.67    6.91
  10  -6  -1   22.26    4.40
  10  -6  -1   11.15    3.98
 -10  -6   1   14.96    4.03
 -10  -6   1    9.34    2.20
  10   6  -1   18.86    4.94
 -10   6   1   10.21    4.02
 -10   6   1   13.60    3.58
   9  -6  -1    1.22    2.85
  -9  -6   1   -1.95    1.63
   9  -6  -1    4.72    3.30
  -9  -6   1    2.84    2.91
  -9   6   1    2.10    3.41
  -9   6   1   -2.51    2.86
   9   6  -1   -0.13    3.28
  -9   6   1    2.96    2.73
   9   6  -1   -1.84    3.24
   8  -6  -1   -3.20    2.65
  -8  -6   1   -1.89    1.57
  -8  -6   1   -0.96    2.49
   8  -6  -1    0.03    2.63
   8   6  -1    1.08    3.11
   8   6  -1   -0.27    2.93
  -8   6   1    1.96    3.22
  -8   6   1    2.29    2.44
  -8   6   1    5.50    3.13
   7  -6  -1   32.87    4.54
  -7  -6   1   29.55    3.14
  -7  -6   1   31.69    4.53
   7  -6  -1   31.79    4.41
   7   6  -1   36.64    5.38
  -7   6   1   25.98    4.01
  -7   6   1   30.76    4.48
  -7   6   1   28.46    4.27
   7   6  -1   27.17    4.30
  -6  -6   1   38.08    5.15
   6  -6  -1   32.46    4.37
  -6  -6   1   31.57    3.19
  -6  -6   1   31.73    4.14
   6  -6  -1   32.73    4.20
  -6   6   1   27.88    3.74
   6   6  -1   25.13    4.03
  -6   6   1   28.34    3.73
  -6   6   1   19.48    3.79
  -5  -6   1   16.26    2.79
   5  -6  -1   15.70    2.85
  -5  -6   1   18.36    3.37
  -5  -6   1   13.25    2.12
   5  -6  -1   16.60    2.80
   5   6  -1   23.32    3.65
  -5   6   1   13.85    3.35
  -5   6   1   16.97    2.77
  -5   6   1   13.01    2.71
  -4  -6   1    4.96    2.49
   4  -6  -1   11.87    2.45
   4  -6  -1   16.70    2.71
  -4  -6   1   10.31    1.88
  -4  -6   1   11.00    2.30
  -4   6   1   10.11    2.85
   4   6  -1    9.85    2.12
   4   6  -1   12.05    2.69
  -4   6   1   14.17    2.64
  -4   6   1   13.36    2.36
   3  -6  -1   59.12    4.51
   3  -6  -1   63.54    4.36
   3  -6  -1   60.53    4.23
  -3  -6   1   58.18    4.66
  -3  -6   1   59.39    4.14
  -3  -6   1   59.90    3.84
  -3   6   1   56.12    3.66
  -3   6   1   58.09    4.99
   3   6  -1   63.15    4.58
  -3   6   1   52.30    3.75
   3   6  -1   54.77    4.07
  -3   6   1   64.32    4.47
  -2  -6   1    1.05    1.60
  -2  -6   1    1.96    1.83
  -2  -6   1    4.99    1.77
   2  -6  -1    3.61    1.72
   2  -6  -1    3.12    1.88
   2  -6  -1    2.04    1.61
   2   6  -1    4.98    1.86
  -2   6   1    2.82    1.68
   2   6  -1    3.10    2.18
  -2   6   1    4.44    1.36
  -2   6   1    1.69    2.21
  -2   6   1    1.64    1.59
   1  -6  -1   57.04    3.92
  -1  -6   1   56.53    4.16
   1  -6  -1   57.74    4.10
   1  -6  -1   62.55    3.97
  -1  -6   1   59.07    3.83
  -1  -6   1   51.88    3.86
   1   6  -1   58.28    3.83
   1   6  -1   52.42    4.40
  -1   6   1   60.19    4.04
   1   6  -1   57.75    4.41
  -1   6   1   59.97    4.10
  -1   6   1   59.89    4.56
   0  -6  -1   19.24    1.64
   0  -6   1   22.95    2.87
   0  -6  -1   20.67    2.80
   0  -6   1   16.52    2.54
   0  -6  -1   24.33    2.98
   0  -6  -1   25.69    3.05
   0  -6   1   19.61    2.70
   0   6   1   27.70    3.15
   0   6  -1   25.25    3.26
   0   6  -1   21.37    2.55
   0   6  -1   22.93    3.45
   0   6   1   24.14    3.21
   0   6   1   18.84    2.64
  -1  -6  -1    0.90    1.67
   1  -6   1    1.65    1.82
  -1  -6  -1    0.95    0.80
   1  -6   1   -1.07    1.46
  -1  -6  -1    2.72    1.78
  -1  -6  -1    0.48    1.67
   1  -6   1    2.00    1.45
   1   6   1    0.08    1.54
  -1   6  -1   -1.25    1.38
   1   6   1   -0.52    1.65
  -1   6  -1    0.40    1.66
  -1   6  -1    1.45    2.24
  -1   6  -1   -0.40    0.94
   1   6   1   -1.88    1.80
  -2  -6  -1   73.24    4.56
   2  -6   1   75.02    4.76
   2  -6   1   70.15    4.65
  -2  -6  -1   71.66    4.87
  -2  -6  -1   70.49    4.45
   2  -6   1   69.28    4.17
  -2  -6  -1   66.62    3.28
  -2   6  -1   66.80    3.80
  -2   6  -1   72.83    4.58
   2   6   1   73.08    4.36
  -2   6  -1   69.68    5.47
  -2   6  -1   78.13    4.37
   2   6   1   70.90    5.11
  -3  -6  -1   52.53    4.03
   3  -6   1   51.62    3.80
   3  -6   1   48.26    4.33
  -3  -6  -1   49.66    4.51
   3  -6   1   48.84    4.31
  -3  -6  -1   53.00    4.15
   3   6   1   52.40    3.62
  -3   6  -1   55.06    3.82
  -3   6  -1   58.42    5.32
  -3   6  -1   59.08    4.36
   3   6   1   52.93    4.85
  -3   6  -1   56.32    3.58
  -4  -6  -1   19.54    3.34
   4  -6   1   20.81    3.40
   4  -6   1   22.45    3.33
  -4  -6  -1   23.77    3.55
   4  -6   1   19.98    3.08
  -4  -6  -1   22.52    3.27
  -4   6  -1   19.88    2.84
  -4   6  -1   27.49    3.50
   4   6   1   18.99    3.36
  -4   6  -1   20.37    3.57
  -5  -6  -1  130.20    7.84
   5  -6   1  148.18    7.72
  -5  -6  -1  138.23    7.39
   5  -6   1  131.01    6.99
  -5  -6  -1  131.96    6.67
  -5   6  -1  126.90    7.29
  -5   6  -1  137.58    7.62
  -5   6  -1  124.22    7.84
   5   6   1  132.88    8.00
  -6  -6  -1    5.45    2.25
   6  -6   1   11.38    3.21
   6  -6   1    7.30    2.61
  -6  -6  -1   11.71    3.06
   6   6   1    6.78    3.15
  -6   6  -1    7.72    3.24
  -6   6  -1    3.62    2.84
  -6   6  -1    5.99    2.68
   6   6   1    8.52    3.06
   7  -6   1   62.76    6.14
  -7  -6  -1   65.53    5.83
   7  -6   1   69.30    5.61
  -7  -6  -1   66.61    4.88
  -7   6  -1   63.83    5.90
  -7   6  -1   62.09    6.10
  -7   6  -1   63.63    6.49
   7   6   1   56.48    6.18
   7   6   1   72.42    6.33
  -8  -6  -1   -0.77    2.04
   8  -6   1   13.75    3.85
   8  -6   1    3.83    2.76
  -8  -6  -1    4.29    2.87
  -8   6  -1    4.52    3.39
  -8   6  -1    4.68    3.11
  -8   6  -1    5.66    2.94
   8   6   1    4.34    3.46
   8   6   1    8.04    3.71
  -9  -6  -1   15.01    2.80
   9  -6   1   13.95    4.35
  -9  -6  -1   17.70    3.97
   9  -6   1   16.99    3.77
  -9   6  -1   15.84    4.03
   9   6   1   17.47    4.56
  -9   6  -1   11.75    3.69
  10  -6   1    9.79    3.69
  10  -7  -1   20.92    4.92
 -10   7   1   16.62    4.57
 -10   7   1   11.99    3.89
  -9  -7   1   -1.69    2.85
   9  -7  -1    1.90    3.01
  -9  -7   1    1.04    1.75
   9  -7  -1    3.20    3.23
   9   7  -1   -2.47    3.31
   9   7  -1   -1.80    3.21
  -9   7   1    1.66    3.17
  -9   7   1   -0.31    3.50
  -9   7   1    1.12    2.77
  -8  -7   1   10.85    3.35
  -8  -7   1   13.59    2.38
   8  -7  -1   14.14    3.57
   8  -7  -1    9.24    3.42
  -8   7   1    4.25    2.84
  -8   7   1    3.95    3.14
   8   7  -1    8.18    3.78
  -8   7   1   10.35    3.90
   8   7  -1   10.01    3.78
   7  -7  -1   15.99    3.54
   7  -7  -1   17.68    3.55
  -7  -7   1   11.80    3.30
  -7  -7   1   13.09    2.30
   7   7  -1   20.52    4.25
  -7   7   1   18.54    3.53
  -7   7   1   14.34    3.96
  -7   7   1   13.92    3.37
   6  -7  -1   -1.70    2.30
   6  -7  -1   -0.24    2.20
  -6  -7   1    3.10    2.42
  -6  -7   1    0.03    1.55
  -6  -7   1    1.30    2.98
  -6   7   1    0.65    2.98
  -6   7   1   -0.05    2.30
   6   7  -1   -1.97    2.88
  -6   7   1   -5.21    1.98
  -5  -7   1    6.25    1.92
   5  -7  -1    5.27    2.43
  -5  -7   1    1.70    2.82
  -5  -7   1    6.30    2.47
   5  -7  -1    9.01    2.71
  -5   7   1    9.77    2.70
   5   7  -1    9.20    3.26
  -5   7   1    8.52    3.21
  -5   7   1    7.70    2.45
   4  -7  -1    2.67    2.20
  -4  -7   1   -1.82    1.89
   4  -7  -1    2.13    2.14
  -4  -7   1    4.81    1.80
  -4  -7   1   -0.01    2.39
  -4   7   1   -0.15    2.24
   4   7  -1   -1.59    2.03
   4   7  -1   -0.99    2.59
  -4   7   1    0.80    1.91
  -4   7   1   -1.53    2.69
  -3  -7   1   91.70    5.45
   3  -7  -1   85.66    5.49
   3  -7  -1   88.73    5.45
   3  -7  -1   91.99    5.89
  -3  -7   1   92.27    5.20
  -3  -7   1   96.79    6.11
   3   7  -1   96.63    5.77
  -3   7   1   93.17    6.44
  -3   7   1   93.76    5.02
  -3   7   1   85.44    5.08
  -3   7   1   85.86    5.72
   3   7  -1   80.14    6.10
   2  -7  -1    7.24    2.12
   2  -7  -1    4.97    2.27
  -2  -7   1    9.10    2.17
  -2  -7   1    9.38    2.54
   2  -7  -1    9.67    2.39
  -2  -7   1    8.57    2.24
   2   7  -1    6.61    2.51
  -2   7   1    7.84    2.24
  -2   7   1    8.57    3.03
  -2   7   1    5.59    1.58
   2   7  -1   11.71    2.93
  -2   7   1    4.22    2.18
   1  -7  -1   80.09    4.81
   1  -7  -1   71.21    4.86
  -1  -7   1   68.06    4.56
   1  -7  -1   64.29    5.01
  -1  -7   1   67.29    5.09
  -1  -7   1   74.49    4.86
   1   7  -1   76.72    5.32
  -1   7   1   70.98    4.83
   1   7  -1   74.21    5.31
  -1   7   1   70.97    5.43
  -1   7   1   77.50    4.96
   0  -7   1   98.53    5.77
   0  -7   1  104.33    6.06
   0  -7  -1  113.66    5.85
   0  -7  -1  108.23    5.97
   0  -7  -1   95.27    5.63
   0  -7   1  104.93    5.44
   0   7  -1  101.47    6.44
   0   7  -1  108.81    6.04
   0   7   1   99.14    5.98
   0   7   1  100.09    6.07
  -1  -7  -1    9.52    2.44
   1  -7   1    8.71    2.29
  -1  -7  -1    8.61    2.39
   1  -7   1   11.12    2.56
  -1  -7  -1    9.17    2.38
   1  -7   1    7.60    2.02
   1   7   1   15.68    2.72
   1   7   1    9.34    2.79
  -1   7  -1   10.64    2.43
  -1   7  -1    5.21    2.90
   2  -7   1  288.09   11.81
  -2  -7  -1  312.42   12.50
   2  -7   1  313.13   12.44
  -2  -7  -1  278.93   12.07
   2  -7   1  285.73   12.37
  -2  -7  -1  291.60   12.20
  -2   7  -1  292.57   11.88
   2   7   1  293.82   11.97
  -2   7  -1  291.79   11.28
  -2   7  -1  299.45   13.09
  -2   7  -1  310.91   12.45
  -3  -7  -1  129.25    7.18
   3  -7   1  132.79    7.42
   3  -7   1  140.39    6.90
   3  -7   1  143.08    7.62
  -3  -7  -1  134.79    7.48
  -3  -7  -1  149.09    7.02
  -3   7  -1  136.92    6.57
  -3   7  -1  152.23    8.36
  -3   7  -1  140.59    7.38
   3   7   1  132.64    6.68
   3   7   1  145.11    8.06
  -3   7  -1  138.14    6.61
  -4  -7  -1  120.80    7.61
   4  -7   1  128.30    7.44
   4  -7   1  137.42    6.93
  -4  -7  -1  130.47    7.34
  -4  -7  -1  129.30    6.89
  -4   7  -1  133.78    7.51
  -4   7  -1  136.62    6.89
   4   7   1  142.28    8.30
  -4   7  -1  156.12    8.53
   5  -7   1   18.83    3.52
  -5  -7  -1   17.20    3.20
   5  -7   1   13.10    2.78
  -5  -7  -1   16.13    3.68
  -5  -7  -1   17.94    2.78
   5   7   1    6.89    3.18
  -5   7  -1   23.02    4.05
  -5   7  -1   11.68    2.75
  -5   7  -1   13.57    3.12
  -6  -7  -1   80.12    5.32
   6  -7   1   74.08    6.18
  -6  -7  -1   61.62    5.86
   6  -7   1   72.61    5.57
  -6   7  -1   66.38    6.11
  -6   7  -1   81.49    6.77
   6   7   1   73.12    6.48
   6   7   1   73.10    6.80
  -6   7  -1   66.32    5.74
   7  -7   1    1.75    3.13
  -7  -7  -1    3.60    2.88
   7  -7   1    4.31    2.78
  -7  -7  -1    2.88    2.24
  -7   7  -1    1.72    2.83
   7   7   1    4.74    3.27
   7   7   1    5.84    3.54
  -7   7  -1    7.70    3.11
  -7   7  -1    0.74    3.13
  -8  -7  -1   19.28    3.05
  -8  -7  -1   14.52    4.00
   8  -7   1   18.92    4.19
   8  -7   1   21.87    3.89
  -8   7  -1   12.71    4.10
   8   7   1   21.09    4.75
  -8   7  -1   12.18    3.52
   8   7   1   18.68    4.53
  -8   7  -1   14.46    3.89
  -9  -7  -1   23.58    3.33
  -9  -7  -1   23.04    4.43
   9  -7   1   26.99    4.99
   9  -7   1   25.81    4.38
   9   7   1   26.33    5.29
   9   7   1   22.20    5.09
  -9   7  -1   22.47    4.23
  -9   7  -1   20.86    4.44
  -9  -8   1    0.59    1.89
  -9  -8   1    1.17    3.08
   9  -8  -1   -1.68    3.06
   9   8  -1    3.18    4.34
   9   8  -1    1.03    3.99
  -9   8   1    2.00    3.40
  -9   8   1    0.31    3.02
  -9   8   1    3.60    4.07
  -8  -8   1    9.84    2.29
   8  -8  -1    6.37    3.33
   8  -8  -1   12.22    3.56
  -8  -8   1   12.02    3.58
  -8   8   1   10.00    3.40
  -8   8   1   11.17    3.60
   8   8  -1    8.62    4.06
  -8   8   1   11.87    4.28
   8   8  -1    9.79    3.91
   7  -8  -1   91.87    6.71
  -7  -8   1   92.81    7.81
  -7  -8   1   92.57    5.52
   7  -8  -1   93.75    7.00
  -7  -8   1   88.41    6.93
   7   8  -1   89.99    7.76
  -7   8   1   89.01    6.77
  -7   8   1   84.64    7.04
  -7   8   1   88.39    7.78
  -6  -8   1   51.11    5.96
   6  -8  -1   49.15    5.10
   6  -8  -1   46.88    5.14
  -6  -8   1   47.78    4.13
  -6  -8   1   45.21    5.01
  -6   8   1   46.66    5.53
  -6   8   1   40.36    6.32
  -6   8   1   30.05    4.58
   6   8  -1   55.95    6.17
  -5  -8   1   71.54    5.82
   5  -8  -1   79.66    6.11
  -5  -8   1   97.44    5.47
   5  -8  -1   90.66    6.40
  -5  -8   1   87.04    6.86
   5   8  -1   92.43    7.31
  -5   8   1   98.63    7.29
  -5   8   1   85.32    6.44
  -5   8   1   90.19    5.90
  -4  -8   1   -1.40    2.51
  -4  -8   1   -0.89    1.73
  -4  -8   1   -0.33    2.23
   4  -8  -1    0.06    2.07
   4  -8  -1    1.99    2.33
  -4   8   1   -3.15    2.87
  -4   8   1    0.52    2.54
   4   8  -1   -0.82    2.81
  -4   8   1    0.41    2.44
   3  -8  -1    6.44    2.47
  -3  -8   1   -0.94    1.93
  -3  -8   1    7.46    2.39
   3  -8  -1    4.36    2.34
  -3  -8   1    0.99    2.57
  -3   8   1    3.08    2.43
   3   8  -1   -2.74    2.58
  -3   8   1    2.09    2.18
   3   8  -1   -0.40    2.48
  -3   8   1    3.59    2.89
  -2  -8   1    0.61    2.40
   2  -8  -1    1.43    2.19
   2  -8  -1    0.59    2.09
  -2  -8   1    1.63    2.02
   2  -8  -1    0.54    2.03
  -2  -8   1   -0.58    2.02
   2   8  -1    3.14    2.64
  -2   8   1    0.32    2.19
   2   8  -1    1.03    2.55
  -2   8   1    0.97    2.81
   1  -8  -1   -5.57    2.11
   1  -8  -1    3.47    2.31
  -1  -8   1   -0.18    1.91
  -1  -8   1    2.10    2.18
   1  -8  -1    0.15    2.11
  -1  -8   1    2.23    2.42
  -1   8   1    4.19    2.45
  -1   8   1    3.58    2.91
   1   8  -1    2.45    2.57
   1   8  -1   -0.94    2.78
   0  -8   1   12.79    2.87
   0  -8   1    8.69    2.32
   0  -8  -1   13.46    2.76
   0  -8  -1   11.60    2.82
   0  -8  -1    9.82    2.65
   0  -8   1    8.78    2.70
   0   8  -1   16.89    3.62
   0   8   1   12.90    3.15
   0   8  -1    9.94    2.78
   0   8   1   10.79    3.04
   1  -8   1    7.93    2.56
   1  -8   1    5.40    2.14
  -1  -8  -1   -0.06    2.09
  -1  -8  -1    3.50    2.36
   1  -8   1    1.05    2.20
  -1  -8  -1    0.61    2.23
  -1   8  -1    0.46    2.80
  -1   8  -1   -0.77    2.26
   1   8   1   -0.15    2.71
   1   8   1    0.64    2.48
   2  -8   1  202.06    9.32
  -2  -8  -1  211.02    9.98
  -2  -8  -1  220.58    9.85
   2  -8   1  214.90   10.03
  -2  -8  -1  212.31    9.73
   2  -8   1  210.21   10.00
  -2   8  -1  225.43    9.61
  -2   8  -1  201.03   10.40
   2   8   1  205.71    9.63
   2   8   1  213.81   10.51
  -3  -8  -1    7.95    2.60
   3  -8   1    5.57    2.63
  -3  -8  -1    9.82    2.49
   3  -8   1    4.53    2.16
  -3  -8  -1   16.66    3.29
   3  -8   1    7.19    2.91
  -3   8  -1    8.91    3.41
   3   8   1   11.66    3.59
  -4  -8  -1  162.07    8.91
   4  -8   1  177.82    8.98
   4  -8   1  147.93    8.00
  -4  -8  -1  153.45    8.08
  -4  -8  -1  159.78    8.52
  -4   8  -1  172.82    9.60
   4   8   1  174.65    9.64
   5  -8   1    1.80    2.62
  -5  -8  -1    2.40    3.04
   5  -8   1    1.88    2.34
  -5  -8  -1   -1.56    2.14
  -5  -8  -1   -2.15    2.05
  -5   8  -1    1.68    2.90
   5   8   1   -0.92    3.09
  -5   8  -1   -0.61    3.27
  -6  -8  -1   35.15    4.77
   6  -8   1   42.89    4.89
   6  -8   1   34.06    5.37
  -6  -8  -1   44.48    4.69
  -6   8  -1   41.44    5.09
  -6   8  -1   54.28    6.66
   6   8   1   35.13    5.26
  -7  -8  -1    9.08    2.60
   7  -8   1    2.73    3.22
   7  -8   1    7.48    3.04
  -7  -8  -1   10.01    3.42
  -7   8  -1    3.83    3.75
   7   8   1    3.10    3.19
  -7   8  -1    1.07    2.92
   7   8   1    5.89    3.64
  -8  -8  -1    7.11    3.47
   8  -8   1   -1.39    3.31
   8  -8   1    4.57    3.09
  -8  -8  -1    0.26    2.16
   8   8   1    4.53    3.92
   8   8   1   -5.28    3.30
  -8   8  -1   -0.48    3.08
  -8   8  -1    0.73    3.87
   8  -9  -1   20.38    4.28
  -8  -9   1   20.95    2.98
  -8  -9   1   19.24    4.19
   8   9  -1   18.64    4.90
   8   9  -1   18.78    5.22
  -8   9   1   12.62    4.64
  -7  -9   1    2.74    2.17
  -7  -9   1   -3.79    3.21
  -7  -9   1   -1.15    2.66
   7  -9  -1    1.41    2.72
   7   9  -1    0.52    3.91
  -7   9   1    3.47    4.01
   6  -9  -1   63.52    5.74
  -6  -9   1   65.34    6.77
  -6  -9   1   59.88    4.81
   6  -9  -1   55.79    5.84
  -6  -9   1   54.34    5.67
   6   9  -1   51.38    6.63
  -6   9   1   54.89    7.13
   5  -9  -1    2.40    2.67
  -5  -9   1   -0.25    2.01
  -5  -9   1    0.04    2.43
   5  -9  -1    2.03    2.59
  -5  -9   1    1.47    3.14
   5   9  -1   -1.82    3.10
  -5   9   1   -1.77    3.30
  -4  -9   1   56.52    4.96
  -4  -9   1   67.49    5.59
   4  -9  -1   70.65    5.56
  -4  -9   1   66.45    6.08
   4  -9  -1   69.04    5.65
   4   9  -1   64.91    6.61
  -4   9   1   69.86    6.74
  -3  -9   1   26.29    3.97
  -3  -9   1   27.90    3.44
  -3  -9   1   19.79    3.40
   3  -9  -1   27.79    3.75
   3  -9  -1   22.16    3.44
  -3   9   1   23.36    4.23
   3   9  -1   29.44    4.47
   3   9  -1   25.88    3.93
  -2  -9   1   77.29    5.71
   2  -9  -1   76.61    5.84
  -2  -9   1   81.13    5.68
   2  -9  -1   77.23    6.32
   2  -9  -1   77.04    5.79
  -2  -9   1   77.55    6.11
   2   9  -1   72.22    6.45
  -2   9   1   75.47    5.77
  -2   9   1   85.66    6.97
   2   9  -1   75.08    6.16
  -1  -9   1   23.11    3.42
   1  -9  -1   27.78    3.84
  -1  -9   1   33.31    4.61
  -1  -9   1   21.28    3.16
   1  -9  -1   17.18    3.10
   1  -9  -1   29.92    4.37
   1   9  -1   25.86    4.12
  -1   9   1   25.44    3.72
   1   9  -1   22.45    3.82
  -1   9   1   24.09    4.12
   0  -9   1   10.42    2.86
   0  -9  -1    7.54    2.79
   0  -9  -1    9.35    2.67
   0  -9  -1    6.73    2.99
   0  -9   1    9.22    2.57
   0  -9   1    6.73    2.97
   0   9  -1    6.06    3.40
   0   9  -1   10.09    3.02
   0   9   1    9.36    3.23
   0   9   1    8.49    3.07
   1  -9   1   22.30    3.21
  -1  -9  -1   16.14    3.15
  -1  -9  -1   26.47    3.58
   1  -9   1   25.20    3.84
  -1  -9  -1   19.98    3.44
   1  -9   1   25.45    3.85
  -1   9  -1   20.19    4.29
  -1   9  -1   19.17    3.37
   1   9   1   23.22    3.96
   1   9   1   21.60    3.72
  -2  -9  -1    0.73    2.33
   2  -9   1    1.66    2.10
   2  -9   1    0.12    2.48
  -2  -9  -1    7.32    2.70
   2  -9   1    1.45    2.53
  -2  -9  -1    6.69    2.79
  -2   9  -1    3.08    3.22
   2   9   1    0.25    2.38
  -2   9  -1    6.03    2.56
   2   9   1    2.49    3.24
  -3  -9  -1    9.28    2.86
   3  -9   1   12.82    3.22
  -3  -9  -1   14.12    3.07
  -3  -9  -1    9.17    3.21
   3  -9   1   11.91    2.68
   3   9   1   12.78    3.87
  -3   9  -1   14.00    3.80
   4  -9   1  114.91    6.75
  -4  -9  -1   99.45    6.73
   4  -9   1  109.54    7.35
  -4  -9  -1   99.19    7.29
  -4  -9  -1   91.28    6.97
   4   9   1  109.72    8.04
  -4   9  -1  119.91    8.40
  -5  -9  -1   -1.84    2.82
  -5  -9  -1    3.14    2.76
   5  -9   1    0.33    2.33
   5  -9   1    0.31    2.72
  -5  -9  -1    0.93    2.34
  -5   9  -1   -2.25    3.35
   5   9   1   -1.77    3.38
  -6  -9  -1   27.77    4.50
  -6  -9  -1   24.49    3.50
   6  -9   1   27.59    4.55
   6  -9   1   31.88    4.20
   6   9   1   24.85    5.01
  -6   9  -1   24.70    4.75
  -7  -9  -1   11.67    2.91
   7  -9   1   17.00    4.09
  -7  -9  -1   14.26    3.75
   7   9   1   11.13    4.43
  -7   9  -1   12.07    4.45
   7   9   1   17.40    4.47
   8  -9   1   39.21    5.72
  -8   9  -1   55.46    7.99
   8   9   1   48.53    6.93
  -7 -10   1    6.85    3.42
  -7 -10   1    4.56    2.35
   7 -10  -1    2.24    3.16
  -7 -10   1    5.66    4.14
  -7  10   1   10.93    4.67
   7  10  -1   10.51    4.60
   6 -10  -1    8.07    3.34
  -6 -10   1    0.42    2.30
  -6 -10   1    6.12    3.18
  -6 -10   1    0.48    3.55
   6  10  -1    5.32    4.15
  -6  10   1    4.06    3.98
  -5 -10   1   24.55    4.02
  -5 -10   1   26.81    4.61
   5 -10  -1   21.57    3.97
  -5 -10   1   32.19    4.41
   5 -10  -1   37.53    5.19
   5  10  -1   36.89    5.39
  -5  10   1   27.27    5.16
  -4 -10   1   19.32    3.31
   4 -10  -1   17.08    3.57
   4 -10  -1   23.96    3.82
  -4 -10   1   17.55    4.02
  -4 -10   1   16.48    3.49
   4  10  -1   16.46    4.39
  -4  10   1   17.82    4.36
  -3 -10   1  173.83    9.46
   3 -10  -1  182.89    9.65
  -3 -10   1  205.18   10.49
  -3 -10   1  186.17    9.56
   3 -10  -1  195.77    9.94
   3  10  -1  195.42   10.98
  -3  10   1  209.82   11.10
   2 -10  -1    9.85    3.04
  -2 -10   1   12.83    3.02
  -2 -10   1   13.96    3.19
   2 -10  -1   13.09    3.26
  -2 -10   1    7.09    3.32
   2  10  -1    8.44    3.58
  -2  10   1   14.24    3.37
   2  10  -1   10.74    3.82
  -2  10   1   11.53    3.77
  -1 -10   1   17.92    3.49
   1 -10  -1   12.35    3.27
  -1 -10   1    9.61    2.87
  -1 -10   1   14.46    3.28
   1 -10  -1    9.55    3.03
   1 -10  -1   17.91    3.43
   1  10  -1    9.65    3.58
   1  10  -1   13.24    3.81
  -1  10   1   15.19    3.72
  -1  10   1   11.78    3.54
   0 -10  -1    9.34    2.88
   0 -10   1    8.11    2.59
   0 -10  -1   16.43    3.39
   0 -10  -1    7.67    2.84
   0 -10   1    3.07    2.66
   0 -10   1    9.48    3.31
   0  10  -1    6.45    3.15
   0  10   1    8.04    3.38
   0  10  -1    9.21    3.66
   0  10   1   10.46    3.43
  -1 -10  -1    1.95    2.46
   1 -10   1   -0.56    2.31
   1 -10   1   -0.73    2.67
   1 -10   1   -1.98    2.51
  -1 -10  -1   -3.39    2.34
  -1 -10  -1   -3.71    2.26
   1  10   1   -2.06    2.61
  -1  10  -1    1.79    3.57
  -1  10  -1    0.59    2.83
   1  10   1   -2.10    3.10
  -2 -10  -1   16.76    3.55
  -2 -10  -1   16.12    3.44
   2 -10   1   20.25    3.29
  -2 -10  -1   15.52    3.28
   2 -10   1   18.41    3.69
   2 -10   1   13.95    3.60
  -2  10  -1   15.07    4.73
  -2  10  -1   23.52    4.54
   2  10   1   28.50    4.63
   3 -10   1    0.12    2.75
  -3 -10  -1    4.37    2.74
  -3 -10  -1   -0.93    2.66
   3 -10   1    3.18    2.41
  -3 -10  -1    1.70    2.52
  -3  10  -1    3.15    3.53
   3  10   1    2.38    3.48
  -4 -10  -1   35.38    5.51
  -4 -10  -1   34.20    4.59
   4 -10   1   27.07    3.97
  -4 -10  -1   35.53    4.97
   4 -10   1   36.91    5.16
  -4  10  -1   32.68    5.61
   4  10   1   36.55    5.44
   5 -10   1   12.20    3.34
  -5 -10  -1   12.25    4.04
   5 -10   1   17.51    3.73
  -5 -10  -1   18.39    3.55
  -5 -10  -1   14.58    3.73
  -5  10  -1   18.31    4.54
   5  10   1   11.30    4.32
  -6 -10  -1    9.30    3.51
   6 -10   1   19.51    4.26
  -6 -10  -1   14.12    3.27
  -6 -10  -1   16.83    4.58
   6  10   1   14.52    4.89
  -6  10  -1   11.28    4.60
   7 -10   1    1.41    3.28
   7  10   1    3.19    4.46
  -7  10  -1    4.46    4.78
  -6 -11   1   11.29    3.76
  -6 -11   1   13.49    3.96
  -6 -11   1    3.33    4.17
   6 -11  -1   13.59    3.82
   6  11  -1   10.14    5.21
  -6  11   1   10.70    5.93
  -5 -11   1   -0.80    2.90
   5 -11  -1    7.64    3.28
  -5 -11   1    6.78    3.96
  -5 -11   1    4.04    2.76
  -5  11   1    8.10    4.28
   5  11  -1    3.26    4.00
  -4 -11   1    3.40    3.01
  -4 -11   1    3.70    2.70
  -4 -11   1    7.49    3.66
   4 -11  -1    5.31    3.24
  -4  11   1    2.55    3.74
   4  11  -1    9.48    4.35
  -3 -11   1    3.92    2.71
   3 -11  -1    3.27    2.85
  -3 -11   1    4.34    3.30
  -3 -11   1    3.56    2.81
   3 -11  -1    5.41    2.99
  -3  11   1    6.12    3.75
   3  11  -1    2.53    3.67
  -2 -11   1   57.79    5.75
   2 -11  -1   55.54    5.91
   2 -11  -1   63.60    5.69
  -2 -11   1   57.75    5.67
  -2 -11   1   65.79    6.81
  -2  11   1   55.78    6.76
   2  11  -1   53.30    6.59
   2  11  -1   65.30    7.42
  -1 -11   1   10.98    3.55
   1 -11  -1   14.25    3.50
  -1 -11   1   13.58    3.19
   1 -11  -1    9.83    3.20
  -1 -11   1   17.58    3.62
   1  11  -1   13.67    4.05
  -1  11   1   16.97    3.88
  -1  11   1    9.72    3.72
   1  11  -1    6.48    3.83
   0 -11   1  197.72   10.66
   0 -11  -1  185.34   10.67
   0 -11  -1  220.25   10.74
   0 -11  -1  204.76   10.86
   0 -11   1  241.06   11.62
   0 -11   1  218.23   10.47
   0  11   1  228.56   11.67
   0  11  -1  216.87   11.56
   0  11  -1  209.42   11.87
   0  11   1  209.85   11.25
  -1 -11  -1   72.01    6.07
   1 -11   1   64.87    6.35
   1 -11   1   71.40    6.48
   1 -11   1   73.64    5.87
  -1 -11  -1   60.69    6.31
   1  11   1   64.64    6.93
  -1  11  -1   65.24    6.75
  -1  11  -1   73.72    7.36
   1  11   1   78.62    6.63
  -2 -11  -1   84.90    6.90
   2 -11   1   76.70    6.68
   2 -11   1   63.09    5.65
  -2 -11  -1   76.52    6.59
  -2 -11  -1   80.34    6.64
  -2  11  -1   70.17    7.68
   2  11   1   83.41    7.60
  -3 -11  -1    5.40    3.09
   3 -11   1   10.22    3.10
  -3 -11  -1   15.08    3.94
  -3 -11  -1   13.68    3.41
   3 -11   1   16.18    3.89
  -3  11  -1   17.35    4.58
   3  11   1   13.56    4.33
   4 -11   1    2.69    3.16
  -4 -11  -1    3.41    2.89
  -4 -11  -1    1.38    3.32
  -4 -11  -1    0.43    2.88
  -4  11  -1    3.24    3.99
   4  11   1   -0.92    3.80
  -5 -11  -1   14.94    4.41
   5 -11   1   16.40    4.02
  -5 -11  -1   14.86    3.86
  -5 -11  -1   19.36    3.85
   5  11   1   13.33    4.75
  -5  11  -1    9.15    4.32
  -6 -11  -1    2.30    4.81
   6 -11   1   -4.00    2.94
  -4 -12   1   -0.44    2.72
   4 -12  -1   -3.28    2.96
  -4 -12   1    9.68    3.99
  -4 -12   1    1.08    3.02
  -4  12   1    0.21    4.18
   4  12  -1    8.44    4.76
  -3 -12   1   24.39    4.79
  -3 -12   1   29.61    4.37
   3 -12  -1   29.58    4.60
  -3 -12   1   24.92    4.17
  -3  12   1   27.18    5.51
   3  12  -1   23.44    5.35
   2 -12  -1    4.91    3.18
  -2 -12   1    4.18    2.95
  -2 -12   1    2.49    3.39
  -2  12   1   -2.01    3.70
   2  12  -1   -6.27    3.32
   1 -12  -1    2.68    2.87
  -1 -12   1    1.81    2.82
   1 -12  -1    5.09    3.27
  -1 -12   1    1.80    2.95
  -1 -12   1    9.90    3.82
  -1  12   1    0.78    3.50
  -1  12   1   -3.02    3.58
   1  12  -1   -1.47    3.41
   1  12  -1    1.34    3.69
   0 -12  -1   -1.19    2.98
   0 -12  -1   -2.31    2.77
   0 -12  -1    0.34    3.06
   0 -12   1    3.89    3.33
   0 -12   1    1.15    2.75
   0 -12   1   -0.10    3.03
   0  12   1    6.06    3.77
   0  12   1   -1.52    3.47
   0  12  -1    3.74    3.94
   0  12  -1    0.81    3.39
   1 -12   1   -0.87    2.80
   1 -12   1   -2.25    2.95
  -1 -12  -1   -1.95    2.90
   1 -12   1   -1.32    3.70
  -1 -12  -1   -1.07    2.72
  -1 -12  -1   -2.24    2.94
   1  12   1   -3.43    3.39
  -1  12  -1   -4.44    3.60
  -2 -12  -1   63.88    6.61
  -2 -12  -1   59.53    6.38
   2 -12   1   76.75    6.88
  -2 -12  -1   54.15    6.17
  -2  12  -1   72.05    7.97
   2  12   1   50.54    7.83
  -3 -12  -1    5.45    3.55
  -3 -12  -1   -2.35    2.74
  -3 -12  -1   -1.12    2.95
   3 -12   1   -0.99    3.17
  -3  12  -1   -0.21    3.90
   3  12   1    1.22    4.04
  -4 -12  -1   23.91    4.99
   4 -12   1   29.40    5.18
  -4 -12  -1   42.84    5.96
  -4 -12  -1   42.12    5.91
   2 -13  -1    4.26    3.34
  -2 -13   1    8.78    3.80
   1 -13  -1   30.84    4.75
  -1 -13   1   30.38    4.76
  -1 -13   1   37.39    5.63
   1  13  -1   22.69    5.42
  -1  13   1   34.90    6.13
   1  13  -1   39.87    6.62
   0 -13  -1   10.37    3.65
   0 -13   1    7.63    3.84
   0 -13   1   11.07    3.91
   0  13  -1    8.58    4.56
   0  13   1   24.37    5.00
   0  13   1    7.77    4.54
   0  13  -1    9.83    4.49
  -1 -13  -1   13.23    4.21
  -1 -13  -1    9.99    4.13
   1 -13   1   24.77    4.86
   1  13   1   21.30    5.35
  -1  13  -1   13.04    4.92
 -11   0   2   -6.52    2.58
  11   0  -2   -7.01    2.94
 -11   0   2   -2.21    1.84
  11   0  -2   -5.31    2.82
  10   0  -2   19.94    4.12
 -10   0   2   12.53    3.50
 -10   0   2   22.88    3.28
  -9   0   2   -2.07    2.37
  -9   0   2    0.97    2.63
  -9   0   2    1.23    1.58
   9   0  -2   -0.16    2.58
  -8   0   2   83.21    6.15
  -8   0   2   98.22    6.28
   8   0  -2   99.98    6.77
  -8   0   2   92.43    4.88
  -7   0   2   -3.53    1.56
  -7   0   2   -0.74    2.11
   7   0  -2   -3.45    2.07
  -7   0   2    0.61    1.26
  -7   0   2   -0.80    2.01
  -6   0   2  445.34   16.41
  -6   0   2  465.54   17.17
  -6   0   2  457.96   16.12
   6   0  -2  450.05   17.14
  -6   0   2  435.04   16.97
  -6   0   2  436.91   16.00
   6   0  -2  442.66   15.96
  -5   0   2   -0.18    1.52
  -5   0   2   -0.49    0.88
  -5   0   2    1.00    1.35
   5   0  -2    0.17    1.00
   5   0  -2   -2.17    1.45
  -5   0   2   -1.64    1.48
  -5   0   2   -2.68    0.98
  -4   0   2  219.98    8.08
  -4   0   2  225.48    8.16
   4   0  -2  211.93    8.83
  -4   0   2  230.26    9.10
  -4   0   2  224.23    8.96
  -4   0   2  226.30    8.71
  -3   0   2    0.60    0.67
  -3   0   2    0.05    0.91
  -3   0   2   -0.06    1.23
  -3   0   2    0.77    1.19
  -3   0   2   -0.46    0.57
  -3   0   2    0.50    1.12
   3   0  -2    0.02    0.93
  -2   0   2  243.36    8.60
  -2   0   2  250.66    9.20
  -2   0   2  240.77    9.01
  -2   0   2  260.89    9.17
  -2   0   2  248.77    8.95
  -2   0   2  260.95    8.63
  -2   0   2  237.78    8.88
   1   0  -2    0.18    0.97
  -1   0   2   -0.91    0.95
   1   0  -2   -0.46    0.64
  -1   0   2   -0.50    0.58
  -1   0   2   -0.31    0.66
  -1   0   2    0.45    0.66
  -1   0   2    0.68    1.04
   0   0   2 1863.72   62.02
   0   0   2 1788.38   61.85
   0   0  -2 1773.42   61.90
   0   0  -2 1783.84   61.81
   0   0   2 1789.39   61.83
   0   0   2 1896.89   61.95
   0   0  -2 1843.24   61.62
   0   0   2 1862.12   61.72
  -1   0  -2   -0.60    0.82
  -1   0  -2   -0.39    0.75
   1   0   2   -0.02    0.96
   1   0   2   -0.57    0.98
  -1   0  -2    1.08    0.90
  -1   0  -2    0.07    1.03
   1   0   2    0.01    1.01
  -2   0  -2 4552.64  176.81
   2   0   2 5295.48  176.99
  -2   0  -2 5251.84  176.96
   2   0   2 4946.42  176.79
   2   0   2 5495.67  177.09
  -2   0  -2 5611.88  177.81
  -2   0  -2 5522.69  176.84
  -3   0  -2    1.22    1.41
   3   0   2    2.21    1.63
  -3   0  -2    0.40    1.43
  -3   0  -2    1.19    1.86
   3   0   2   -2.34    1.42
  -3   0  -2    1.77    1.33
   3   0   2    0.19    1.75
  -4   0  -2  721.24   27.00
   4   0   2  765.10   26.86
   4   0   2  768.29   27.26
   4   0   2  776.28   27.58
  -4   0  -2  760.09   26.41
  -4   0  -2  771.32   27.60
  -4   0  -2  787.97   27.14
  -5   0  -2    1.14    1.18
  -5   0  -2   -1.32    1.55
   5   0   2    1.89    2.12
  -5   0  -2   -1.26    1.45
   5   0   2   -0.17    1.40
  -5   0  -2    0.99    2.02
   6   0   2  209.08   10.22
   6   0   2  219.64    8.90
  -6   0  -2  197.41    9.91
  -6   0  -2  224.62    9.46
  -6   0  -2  224.08    9.59
  -7   0  -2   -0.41    1.99
  -7   0  -2   -0.42    2.40
   7   0   2   -0.26    2.65
  -7   0  -2   -1.66    2.04
   8   0   2   19.72    4.24
  -8   0  -2   19.04    3.46
  -8   0  -2   20.06    3.19
  -8   0  -2   22.94    4.03
  -9   0  -2    1.32    2.46
  -9   0  -2   -0.80    2.57
  -9   0  -2   -1.73    2.98
   9   0   2    2.07    3.10
 -10   0  -2   47.09    6.58
 -10   0  -2   73.70    5.92
  10   0   2   73.27    7.63
 -10   0  -2   62.67    6.47
 -11  -1   2    3.95    3.21
  11  -1  -2    4.79    3.58
  11  -1  -2    1.22    3.10
 -11  -1   2    6.03    2.07
 -11  -1   2    5.33    3.37
  11   1  -2    2.53    3.50
 -11   1   2    4.50    3.60
 -11   1   2    4.75    2.15
 -10  -1   2   -0.11    1.60
 -10  -1   2    1.10    2.86
  10  -1  -2    4.23    2.99
 -10  -1   2    2.62    2.91
  10  -1  -2    5.46    3.27
 -10   1   2   -0.66    2.77
  10   1  -2    2.04    3.23
 -10   1   2   -2.43    1.83
  -9  -1   2   40.52    4.93
  -9  -1   2   42.51    4.82
   9  -1  -2   43.95    5.28
   9  -1  -2   46.33    5.31
  -9  -1   2   36.74    3.29
   9   1  -2   37.55    5.37
  -9   1   2   38.11    3.79
  -9   1   2   30.56    4.90
  -8  -1   2    2.14    1.52
   8  -1  -2    2.86    2.55
  -8  -1   2    5.08    2.49
   8  -1  -2    3.76    2.68
  -8  -1   2    2.72    2.40
  -8   1   2    1.51    2.26
   8   1  -2    5.00    2.89
  -8   1   2    0.80    1.65
  -7  -1   2    3.56    1.31
   7  -1  -2    3.16    2.35
  -7  -1   2    3.75    2.26
  -7  -1   2    1.71    2.11
  -7   1   2    6.00    2.41
  -7   1   2    5.18    1.56
   7   1  -2    1.37    1.63
   7   1  -2    3.27    2.45
  -7   1   2    4.37    2.00
  -6  -1   2  212.81    8.11
  -6  -1   2  221.36    9.41
   6  -1  -2  211.59    9.35
  -6  -1   2  205.43    9.22
  -6  -1   2  220.58    8.57
  -6  -1   2  206.64    8.15
  -6   1   2  219.05    9.49
  -6   1   2  228.40    9.01
   6   1  -2  215.10    8.56
  -6   1   2  207.80    8.46
  -6   1   2  220.25    8.61
  -5  -1   2   76.21    3.92
  -5  -1   2   72.14    4.37
  -5  -1   2   75.31    3.38
  -5  -1   2   73.87    3.30
   5  -1  -2   75.68    4.40
  -5  -1   2   77.80    4.42
   5  -1  -2   76.47    3.10
  -5   1   2   78.63    3.87
  -5   1   2   89.33    4.38
  -5   1   2   74.14    4.56
   5   1  -2   74.25    3.93
   5   1  -2   69.92    4.53
  -5   1   2   75.47    3.74
  -4  -1   2  222.54    7.88
  -4  -1   2  205.13    8.17
  -4  -1   2  211.19    8.19
   4  -1  -2  195.72    8.09
  -4  -1   2  201.80    7.14
  -4  -1   2  195.80    7.17
   4  -1  -2  183.75    8.16
   4   1  -2  182.36    7.75
  -4   1   2  198.73    8.18
  -4   1   2  193.26    7.58
  -4   1   2  205.85    7.67
  -4   1   2  200.92    8.43
   4   1  -2  193.90    8.19
  -3  -1   2  479.68   16.70
  -3  -1   2  475.09   16.57
  -3  -1   2  483.32   16.69
  -3  -1   2  491.73   16.77
   3  -1  -2  455.29   16.50
  -3  -1   2  464.17   16.56
  -3  -1   2  478.98   15.86
   3  -1  -2  433.24   16.68
  -3   1   2  456.85   16.10
  -3   1   2  471.83   16.87
  -3   1   2  477.12   16.79
  -3   1   2  455.15   16.33
  -3   1   2  458.56   16.31
  -2  -1   2   29.71    2.10
   2  -1  -2   26.71    1.63
   2  -1  -2   28.17    2.07
  -2  -1   2   29.16    2.17
  -2  -1   2   32.61    2.19
  -2  -1   2   29.86    2.08
  -2  -1   2   30.72    2.01
  -2   1   2   27.22    1.74
  -2   1   2   30.40    2.34
  -2   1   2   28.69    2.24
  -2   1   2   28.88    1.76
  -2   1   2   30.28    1.82
  -1  -1   2  269.48    9.27
   1  -1  -2  264.01    9.68
  -1  -1   2  263.26    9.24
  -1  -1   2  267.62    9.67
   1  -1  -2  269.05    9.48
  -1  -1   2  267.75    9.65
   1  -1  -2  257.41    9.50
  -1  -1   2  268.20    9.54
  -1  -1   2  282.23    9.27
   1   1  -2  258.20    9.49
  -1   1   2  263.28    9.55
  -1   1   2  266.03    9.50
  -1   1   2  261.91    9.69
  -1   1   2  258.74    9.47
   0  -1   2  295.14   10.58
   0  -1  -2  283.83   10.64
   0  -1  -2  297.03   10.55
   0  -1   2  303.31   10.63
   0  -1   2  315.30   10.74
   0  -1  -2  299.80   10.71
   0  -1   2  295.00   10.73
   0   1  -2  274.52   10.55
   0   1   2  293.39   10.38
   0   1  -2  307.28   10.79
   0   1  -2  290.39   10.62
   0   1   2  298.03   10.68
   0   1   2  300.45   10.76
   0   1   2  324.56   10.63
  -1  -1  -2 1282.89   41.96
  -1  -1  -2 1213.70   42.05
   1  -1   2 1182.30   42.09
   1  -1   2 1226.23   42.12
   1  -1   2 1205.11   41.98
  -1   1  -2 1274.68   42.05
   1   1   2 1195.20   41.70
  -1   1  -2 1228.70   41.69
  -1   1  -2 1202.24   42.10
   1   1   2 1233.98   42.16
   1   1   2 1260.06   42.02
  -1   1  -2 1249.99   42.08
   1   1   2 1232.49   42.09
  -2  -1  -2  512.31   17.70
  -2  -1  -2  521.74   18.28
  -2  -1  -2  521.50   18.36
   2  -1   2  516.43   18.54
   2  -1   2  524.19   18.48
  -2  -1  -2  528.39   18.49
   2  -1   2  505.56   18.15
  -2   1  -2  510.12   18.10
  -2   1  -2  503.98   18.54
  -2   1  -2  510.15   18.22
   2   1   2  520.99   18.50
   2   1   2  522.75   18.44
   2   1   2  509.10   18.42
  -2   1  -2  539.07   18.46
   3  -1   2   31.84    3.25
  -3  -1  -2   47.50    3.78
   3  -1   2   36.82    2.72
  -3  -1  -2   32.96    3.06
   3  -1   2   41.15    3.75
  -3  -1  -2   41.85    3.00
  -3   1  -2   38.33    2.96
  -3   1  -2   42.57    3.16
   3   1   2   29.94    3.51
  -3   1  -2   50.41    3.93
   3   1   2   41.07    3.22
  -3   1  -2   36.43    3.62
   3   1   2   32.89    3.26
  -4  -1  -2  399.08   15.02
   4  -1   2  390.87   14.12
  -4  -1  -2  410.40   14.59
   4  -1   2  386.77   14.73
  -4  -1  -2  362.80   14.50
  -4  -1  -2  383.34   13.37
   4  -1   2  408.15   15.16
   4   1   2  366.67   14.56
  -4   1  -2  386.17   14.22
  -4   1  -2  404.95   14.69
   4   1   2  380.69   14.51
   4   1   2  392.75   15.06
  -4   1  -2  389.80   14.49
  -4   1  -2  389.45   15.03
  -5  -1  -2  232.50    9.77
  -5  -1  -2  221.61   10.01
  -5  -1  -2  231.48    9.49
   5  -1   2  229.01    8.96
   5  -1   2  220.07   10.22
  -5   1  -2  232.72    9.12
   5   1   2  227.92    9.40
  -5   1  -2  223.73   10.11
   5   1   2  249.80   10.38
  -5   1  -2  243.65    9.71
  -5   1  -2  227.25    9.59
   6  -1   2   10.14    3.00
  -6  -1  -2   13.33    2.62
  -6  -1  -2    8.44    2.64
  -6  -1  -2    7.94    2.07
   6   1   2    6.68    2.83
  -6   1  -2   10.37    2.64
  -6   1  -2    9.24    2.35
   6   1   2   10.21    2.31
  -6   1  -2    9.72    2.28
  -7  -1  -2  170.25    8.20
  -7  -1  -2  174.05    9.05
   7  -1   2  184.59    9.52
  -7  -1  -2  151.45    8.32
   7   1   2  179.37    9.48
  -7   1  -2  173.26    8.44
  -7   1  -2  160.18    9.13
  -7   1  -2  181.35    8.59
  -8  -1  -2    4.69    3.10
   8  -1   2   16.81    3.99
  -8  -1  -2    9.20    2.60
  -8  -1  -2    8.65    2.83
  -8   1  -2   18.52    3.02
  -8   1  -2   12.22    3.57
   8   1   2    6.73    3.20
  -8   1  -2   21.19    3.56
   9  -1   2    3.47    3.22
  -9  -1  -2    1.90    2.98
  -9  -1  -2    0.13    2.44
  -9  -1  -2   -1.01    2.10
  -9   1  -2    0.50    3.01
   9   1   2   -1.82    3.04
  -9   1  -2   -0.30    2.51
  -9   1  -2   -1.77    2.28
  10  -1   2    7.08    3.83
  10  -1   2   11.68    3.61
 -10  -1  -2   12.81    3.91
 -10  -1  -2    0.35    2.59
 -10  -1  -2    8.62    3.41
 -10   1  -2    6.01    3.67
  10   1   2    6.16    4.14
 -10   1  -2   11.39    3.19
  11  -2  -2   69.56    7.33
 -11  -2   2   78.92    6.95
 -11  -2   2   61.59    4.20
  11  -2  -2   67.43    6.98
 -11  -2   2   63.87    6.86
  11   2  -2   66.98    7.85
 -11   2   2   65.30    5.17
 -11   2   2   62.39    7.28
  10  -2  -2    5.38    3.39
 -10  -2   2    7.91    3.02
 -10  -2   2    8.40    1.90
  10  -2  -2    9.17    3.46
 -10  -2   2   11.91    3.49
 -10   2   2   10.30    2.46
  10   2  -2    4.88    3.40
 -10   2   2   13.08    3.72
  -9  -2   2   90.61    6.51
   9  -2  -2  101.11    7.02
  -9  -2   2   85.05    4.70
   9  -2  -2   99.17    6.81
  -9  -2   2   89.52    6.67
   9   2  -2   97.83    7.30
  -9   2   2   94.28    6.97
  -9   2   2   84.91    5.52
  -8  -2   2    4.07    1.37
   8  -2  -2    2.44    2.49
   8  -2  -2    1.96    2.44
  -8  -2   2    0.13    2.21
  -8  -2   2   -0.52    2.31
  -8   2   2    2.97    2.31
  -8   2   2   -2.01    2.32
   8   2  -2    0.25    2.69
  -8   2   2    0.36    1.77
  -7  -2   2   25.27    2.49
  -7  -2   2   30.67    3.89
  -7  -2   2   26.97    3.69
  -7  -2   2   30.49    2.49
   7  -2  -2   30.75    4.11
   7  -2  -2   28.91    4.23
   7   2  -2   27.31    4.21
  -7   2   2   26.09    3.87
  -7   2   2   27.63    3.16
  -7   2   2   23.54    3.39
   7   2  -2   28.46    3.58
  -6  -2   2   73.55    4.68
   6  -2  -2   74.29    4.78
  -6  -2   2   72.37    4.69
  -6  -2   2   68.81    3.41
  -6  -2   2   69.80    3.38
  -6  -2   2   69.55    3.76
   6  -2  -2   61.96    4.47
  -6   2   2   70.04    4.08
   6   2  -2   79.03    5.07
  -6   2   2   73.74    4.75
   6   2  -2   70.47    4.29
  -6   2   2   68.23    4.87
  -5  -2   2    1.12    1.16
  -5  -2   2    3.07    1.59
  -5  -2   2   -0.81    1.43
  -5  -2   2    0.08    0.73
   5  -2  -2    2.02    1.53
  -5  -2   2   -0.75    0.81
   5  -2  -2    3.06    1.68
  -5   2   2   -0.07    1.14
  -5   2   2   -2.77    1.45
  -5   2   2    2.18    1.68
  -5   2   2    0.24    1.28
   5   2  -2   -1.17    1.40
  -4  -2   2   -0.94    1.33
  -4  -2   2   -0.56    1.43
  -4  -2   2    0.65    1.82
  -4  -2   2   -0.51    0.67
  -4  -2   2    1.88    1.28
   4  -2  -2   -1.43    1.56
   4  -2  -2    0.92    1.44
  -4  -2   2    1.08    0.77
   4   2  -2   -0.11    1.63
  -4   2   2   -0.06    1.14
  -4   2   2    2.36    1.37
  -4   2   2   -2.02    1.73
  -4   2   2    2.38    1.84
   3  -2  -2   12.65    1.88
  -3  -2   2   17.48    1.98
  -3  -2   2   19.12    1.23
   3  -2  -2   16.72    2.09
  -3  -2   2   25.85    2.92
  -3  -2   2   17.16    2.75
  -3  -2   2   14.04    2.21
  -3  -2   2   13.05    1.15
   3  -2  -2   13.27    2.05
  -3  -2   2   16.84    2.27
  -3   2   2   14.45    2.13
  -3   2   2   13.54    2.05
  -3   2   2   17.63    2.27
  -3   2   2   13.88    1.69
  -3   2   2   17.93    1.47
  -2  -2   2  225.53    8.03
  -2  -2   2  228.23    7.95
  -2  -2   2  217.06    7.62
   2  -2  -2  206.35    7.80
   2  -2  -2  199.46    8.08
  -2  -2   2  222.50    8.37
   2  -2  -2  208.77    8.25
  -2  -2   2  224.99    8.37
  -2  -2   2  231.65    7.65
  -2   2   2  211.03    8.14
  -2   2   2  211.91    8.29
  -2   2   2  214.11    7.90
  -2   2   2  212.06    8.14
  -2   2   2  226.30    8.48
   2   2  -2  212.79    8.18
   1  -2  -2 1675.35   57.91
  -1  -2   2 1766.09   58.01
   1  -2  -2 1669.08   58.34
   1  -2  -2 1715.97   58.34
  -1  -2   2 1757.48   58.46
  -1  -2   2 1625.41   58.38
  -1  -2   2 1758.66   58.08
  -1  -2   2 1809.43   58.08
  -1   2   2 1758.45   58.46
  -1   2   2 1759.29   58.31
   1   2  -2 1667.68   58.41
  -1   2   2 1624.38   58.33
   1   2  -2 1700.92   58.03
   0  -2   2  144.54    5.18
   0  -2   2  156.17    5.90
   0  -2   2  154.71    5.64
   0  -2   2  151.20    5.67
   0  -2  -2  143.51    5.68
   0  -2  -2  141.15    5.40
   0  -2   2  142.67    5.75
   0  -2  -2  140.76    5.73
   0  -2  -2  140.47    5.62
   0   2  -2  147.25    5.64
   0   2   2  136.82    5.61
   0   2   2  147.19    5.80
   0   2  -2  137.58    5.44
   0   2   2  140.63    5.87
   1  -2   2   54.71    2.47
   1  -2   2   54.66    3.08
   1  -2   2   53.41    3.23
  -1  -2  -2   54.61    2.92
  -1  -2  -2   54.49    2.86
   1  -2   2   55.23    2.85
  -1  -2  -2   56.42    3.04
  -1   2  -2   49.00    3.11
  -1   2  -2   52.89    2.83
   1   2   2   57.74    3.30
   1   2   2   55.22    3.05
   1   2   2   55.77    2.56
  -1   2  -2   52.19    2.93
   2  -2   2   30.16    2.40
   2  -2   2   30.96    2.29
  -2  -2  -2   32.56    2.73
  -2  -2  -2   30.12    2.69
   2  -2   2   30.97    3.13
  -2  -2  -2   31.63    2.94
   2  -2   2   30.78    2.96
   2   2   2   26.86    3.05
   2   2   2   32.21    1.65
  -2   2  -2   31.50    2.97
  -2   2  -2   29.00    2.75
   2   2   2   32.25    2.92
  -2   2  -2   28.22    2.83
   2   2   2   30.45    2.79
   3  -2   2   39.61    2.56
   3  -2   2   34.50    3.41
  -3  -2  -2   35.73    3.10
  -3  -2  -2   37.08    3.11
  -3  -2  -2   38.99    3.35
   3  -2   2   37.36    2.86
   3  -2   2   38.90    3.52
   3   2   2   43.00    3.51
   3   2   2   42.44    3.60
  -3   2  -2   36.17    3.45
  -3   2  -2   32.29    3.06
  -3   2  -2   38.76    3.86
   3   2   2   41.01    3.25
   4  -2   2  148.45    5.95
   4  -2   2  157.33    6.89
  -4  -2  -2  143.82    6.58
  -4  -2  -2  155.74    6.98
  -4  -2  -2  144.01    6.47
   4  -2   2  156.15    7.19
  -4  -2  -2  145.19    6.67
  -4   2  -2  151.38    7.12
  -4   2  -2  151.00    6.68
  -4   2  -2  154.88    6.84
   4   2   2  147.90    7.12
   4   2   2  146.16    6.76
   4   2   2  126.90    6.46
  -5  -2  -2   69.20    4.47
   5  -2   2   72.80    3.70
  -5  -2  -2   70.96    4.71
  -5  -2  -2   72.92    5.14
   5  -2   2   77.83    5.29
   5   2   2   76.96    5.29
  -5   2  -2   71.20    4.71
  -5   2  -2   72.68    4.45
   5   2   2   77.16    4.77
  -5   2  -2   77.24    4.53
  -5   2  -2   71.24    5.12
   6  -2   2   97.73    6.48
  -6  -2  -2  105.08    5.97
  -6  -2  -2   88.99    5.35
  -6  -2  -2   93.46    6.25
  -6   2  -2   89.64    6.22
  -6   2  -2   83.81    5.56
   6   2   2   95.77    5.64
   6   2   2   91.68    6.43
  -6   2  -2   99.66    5.43
  -7  -2  -2  233.28   10.19
  -7  -2  -2  235.66   10.98
   7  -2   2  245.37   11.45
  -7  -2  -2  230.85   10.69
   7   2   2  227.73   10.29
  -7   2  -2  210.41   11.01
   7   2   2  242.58   11.54
  -7   2  -2  241.75   10.56
   8  -2   2   44.68    5.73
  -8  -2  -2   32.80    5.14
   8  -2   2   41.85    4.78
  -8  -2  -2   40.83    4.84
  -8  -2  -2   49.53    4.49
  -8   2  -2   39.39    5.30
  -8   2  -2   34.06    4.21
   8   2   2   37.69    5.14
   9  -2   2    3.29    2.75
   9  -2   2    4.68    3.46
  -9  -2  -2    4.35    2.89
  -9  -2  -2   -1.92    2.84
  -9  -2  -2    3.72    2.46
   9   2   2    3.73    3.31
  -9   2  -2    0.35    2.51
  -9   2  -2    1.21    3.01
  10  -2   2   51.15    6.98
 -10  -2  -2   55.23    6.03
 -10  -2  -2   50.60    5.35
 -10  -2  -2   45.83    6.34
  10  -2   2   54.07    6.36
 -10   2  -2   50.21    6.71
 -10   2  -2   53.75    5.91
  10   2   2   58.02    7.32
 -11  -3   2    1.35    1.54
 -11  -3   2    6.65    3.41
 -11  -3   2    3.51    3.32
  11  -3  -2   -3.77    3.12
  11  -3  -2    4.72    3.52
 -11   3   2    0.34    3.17
  11   3  -2    1.03    3.55
 -11   3   2   -0.53    2.23
 -10  -3   2   19.84    4.01
 -10  -3   2   21.44    2.82
  10  -3  -2   31.61    4.61
 -10  -3   2   17.69    3.70
  10  -3  -2   18.43    4.07
 -10   3   2   19.13    3.05
 -10   3   2   24.88    4.36
  10   3  -2   24.69    4.54
  -9  -3   2    6.73    2.81
   9  -3  -2   10.44    3.26
   9  -3  -2    6.72    2.96
  -9  -3   2    7.44    1.65
  -9  -3   2    6.55    2.76
  -9   3   2    5.00    2.26
  -9   3   2    7.57    3.43
   9   3  -2    4.61    3.18
   8  -3  -2   22.54    3.65
  -8  -3   2   24.20    2.54
  -8  -3   2   22.35    3.53
  -8  -3   2   23.89    3.82
   8  -3  -2   18.88    3.46
  -8   3   2   23.88    3.87
  -8   3   2   22.95    3.48
   8   3  -2   26.94    3.48
  -8   3   2   22.73    3.53
   8   3  -2   30.41    4.34
   7  -3  -2   14.67    2.86
   7  -3  -2   12.21    2.85
  -7  -3   2   14.88    2.71
  -7  -3   2   18.14    2.14
  -7  -3   2   18.03    3.13
   7   3  -2   13.89    2.76
  -7   3   2   12.89    2.86
  -7   3   2   16.20    3.15
   7   3  -2   15.20    3.10
  -7   3   2   13.52    2.40
   6  -3  -2  228.99    9.84
  -6  -3   2  257.01    9.80
  -6  -3   2  224.83    8.53
  -6  -3   2  213.97    9.84
  -6  -3   2  230.10    8.58
   6  -3  -2  220.86    9.97
  -6   3   2  224.14   10.21
   6   3  -2  216.30    8.81
   6   3  -2  238.41   10.38
  -6   3   2  232.63    9.49
  -6   3   2  227.32    9.99
   6   3  -2  236.70    9.82
  -5  -3   2   53.20    4.29
  -5  -3   2   50.87    2.68
   5  -3  -2   52.25    3.67
   5  -3  -2   54.72    4.03
  -5  -3   2   51.22    3.51
  -5  -3   2   51.22    2.61
  -5  -3   2   58.40    3.81
  -5   3   2   49.61    4.10
  -5   3   2   58.96    3.50
   5   3  -2   49.95    3.82
   5   3  -2   49.96    3.08
  -5   3   2   53.07    4.14
  -4  -3   2  533.00   18.48
  -4  -3   2  559.43   19.75
   4  -3  -2  547.38   19.58
  -4  -3   2  535.15   19.07
  -4  -3   2  544.90   19.36
   4  -3  -2  507.45   19.22
  -4  -3   2  556.38   18.51
   4  -3  -2  497.08   19.12
   4   3  -2  524.08   19.50
  -4   3   2  505.64   19.18
  -4   3   2  538.87   19.69
  -4   3   2  531.27   19.62
  -4   3   2  558.23   19.32
   4   3  -2  535.05   19.00
  -3  -3   2    9.99    1.80
   3  -3  -2   11.51    2.13
   3  -3  -2   10.98    1.86
  -3  -3   2    9.90    2.25
  -3  -3   2   10.95    1.60
  -3  -3   2   13.07    2.03
  -3  -3   2   10.11    1.52
   3  -3  -2    7.13    1.57
   3   3  -2   10.98    2.11
  -3   3   2   10.75    1.31
  -3   3   2    9.34    1.96
  -3   3   2    9.22    1.73
  -3   3   2   11.62    2.26
   3   3  -2    9.06    1.66
   2  -3  -2  687.17   22.77
  -2  -3   2  637.72   22.63
  -2  -3   2  682.94   23.36
  -2  -3   2  659.04   22.88
   2  -3  -2  681.39   23.15
   2  -3  -2  649.84   23.17
  -2  -3   2  691.59   22.67
  -2  -3   2  628.26   22.49
  -2  -3   2  668.50   23.36
  -2   3   2  652.03   23.14
  -2   3   2  642.66   22.80
  -2   3   2  641.51   23.11
  -2   3   2  634.99   23.37
   2   3  -2  627.76   23.08
  -1  -3   2  157.82    6.04
  -1  -3   2  149.51    6.40
  -1  -3   2  153.37    6.04
  -1  -3   2  157.33    5.94
   1  -3  -2  165.80    5.96
  -1  -3   2  177.71    6.58
   1  -3  -2  163.46    6.21
   1  -3  -2  161.16    6.43
   1  -3  -2  140.50    6.23
   1   3  -2  145.52    5.59
  -1   3   2  150.21    6.29
  -1   3   2  150.98    6.49
   1   3  -2  147.07    6.44
  -1   3   2  154.55    6.42
   0  -3   2 3054.61  111.06
   0  -3   2 3297.96  111.37
   0  -3  -2 3157.15  111.18
   0  -3   2 3375.15  110.77
   0  -3  -2 3281.28  110.96
   0  -3  -2 3353.44  110.98
   0  -3   2 3455.55  111.20
   0  -3   2 3228.87  111.23
   0   3  -2 3294.98  111.13
   0   3   2 3247.27  111.27
   0   3   2 3384.68  111.17
   0   3   2 3286.70  111.30
   0   3  -2 3263.77  111.39
   0   3  -2 3258.64  110.78
   1  -3   2    0.11    1.02
  -1  -3  -2   -1.26    1.27
  -1  -3  -2    1.80    1.45
  -1  -3  -2    1.68    1.23
   1  -3   2    1.82    1.39
   1  -3   2    0.31    1.75
   1  -3   2    0.40    1.48
  -1  -3  -2    0.57    1.35
   1   3   2    0.55    1.41
  -1   3  -2    0.05    1.21
  -1   3  -2    0.88    1.77
   1   3   2    1.50    1.21
   1   3   2    0.53    1.56
  -1   3  -2    0.95    1.25
   2  -3   2   -0.21    1.57
  -2  -3  -2    1.05    1.41
   2  -3   2   -2.16    1.73
   2  -3   2   -0.13    1.24
   2  -3   2   -0.06    1.25
  -2  -3  -2   -0.77    1.34
  -2  -3  -2    0.59    1.66
   2   3   2   -0.80    1.46
   2   3   2   -0.22    1.92
  -2   3  -2   -1.79    2.06
  -2   3  -2    0.08    1.66
  -2   3  -2   -1.95    1.41
   2   3   2    1.75    1.00
  -3  -3  -2   31.43    2.93
   3  -3   2   31.04    2.37
  -3  -3  -2   30.89    3.08
   3  -3   2   28.81    3.05
   3  -3   2   30.77    2.59
  -3  -3  -2   26.98    2.74
   3  -3   2   30.93    3.30
  -3   3  -2   35.78    3.66
   3   3   2   32.50    2.85
  -3   3  -2   29.17    3.24
  -3   3  -2   31.98    3.01
   3   3   2   31.38    3.46
   3   3   2   32.31    3.23
  -4  -3  -2  341.29   12.89
   4  -3   2  361.36   12.84
   4  -3   2  311.85   13.07
   4  -3   2  336.72   13.39
  -4  -3  -2  332.43   13.09
  -4  -3  -2  324.65   13.05
   4  -3   2  332.38   12.13
  -4   3  -2  348.14   13.25
   4   3   2  333.18   13.34
   4   3   2  333.13   13.26
  -4   3  -2  326.10   13.27
  -4   3  -2  336.67   13.17
   5  -3   2   16.37    2.98
  -5  -3  -2   22.91    3.36
   5  -3   2   17.07    2.48
  -5  -3  -2   22.20    3.00
  -5  -3  -2   19.47    2.93
   5   3   2   18.24    2.89
   5   3   2   17.07    2.91
  -5   3  -2   23.02    3.63
  -5   3  -2   18.47    2.90
  -5   3  -2   17.52    2.66
   6  -3   2    6.79    2.69
  -6  -3  -2   10.58    2.30
  -6  -3  -2    6.30    2.38
  -6  -3  -2    4.71    2.52
   6  -3   2    9.34    2.38
  -6   3  -2    6.09    2.33
   6   3   2    7.91    2.98
  -6   3  -2    4.77    2.41
  -6   3  -2    3.45    2.54
   6   3   2    8.04    2.63
  -7  -3  -2    1.79    2.46
   7  -3   2   -1.19    2.07
   7  -3   2   -0.41    2.68
  -7  -3  -2    0.73    1.87
  -7  -3  -2    4.13    2.46
  -7   3  -2   -0.47    2.32
  -7   3  -2   -3.84    2.46
   7   3   2    1.45    2.38
   7   3   2    3.67    2.93
   8  -3   2    1.56    2.49
  -8  -3  -2    2.04    2.15
   8  -3   2    0.36    2.93
  -8  -3  -2   -0.73    2.48
  -8  -3  -2   -1.51    2.62
   8   3   2   -0.98    2.92
  -8   3  -2    1.66    2.47
  -8   3  -2    1.01    2.69
  -9  -3  -2    7.00    2.56
  -9  -3  -2    8.79    3.48
  -9  -3  -2    6.76    3.30
   9  -3   2   12.40    3.99
   9  -3   2    6.41    3.13
  -9   3  -2   10.95    3.13
  -9   3  -2    5.66    3.31
   9   3   2    4.85    3.67
  10  -3   2    4.51    3.83
  10  -3   2   -0.75    3.17
 -10  -3  -2    3.07    2.46
 -10  -3  -2    2.50    3.35
 -10  -3  -2    1.54    2.88
 -10   3  -2    3.62    3.03
 -10   3  -2    6.39    3.77
  10   3   2    6.73    4.21
  11  -4  -2   -0.20    3.19
 -11  -4   2    0.55    1.39
  11  -4  -2   -0.72    3.34
 -11  -4   2   -2.86    2.87
 -11   4   2   -2.21    2.37
  11   4  -2   -0.65    3.74
 -11   4   2    8.30    3.96
 -10  -4   2    0.93    2.85
  10  -4  -2    4.97    3.22
  10  -4  -2    3.42    3.12
 -10  -4   2    2.97    1.51
 -10   4   2    4.12    2.50
 -10   4   2   -2.61    2.89
  10   4  -2   -4.35    3.18
  -9  -4   2    4.72    2.81
  -9  -4   2    1.19    2.42
   9  -4  -2    0.97    2.76
  -9  -4   2    0.23    1.31
   9  -4  -2    0.83    2.66
  -9   4   2   -0.71    2.16
  -9   4   2   -1.07    2.76
  -9   4   2    5.93    3.12
   9   4  -2    5.22    3.16
  -8  -4   2   12.49    2.79
  -8  -4   2    4.90    2.71
   8  -4  -2    9.26    3.15
   8  -4  -2   10.40    3.02
  -8  -4   2   11.51    1.68
  -8   4   2    8.85    3.14
  -8   4   2   10.84    2.59
   8   4  -2   12.11    3.35
   8   4  -2   15.17    3.27
  -8   4   2    6.72    3.02
   7  -4  -2  120.19    7.12
  -7  -4   2  122.34    7.06
   7  -4  -2  122.00    6.86
  -7  -4   2  129.41    6.61
  -7  -4   2  118.31    5.26
  -7   4   2  119.66    6.50
  -7   4   2  114.58    7.25
   7   4  -2  115.81    7.08
   7   4  -2  134.72    7.66
  -7   4   2  121.42    7.36
   6  -4  -2    0.14    2.07
   6  -4  -2   -0.71    1.83
  -6  -4   2    2.91    1.15
  -6  -4   2    1.32    1.23
  -6  -4   2    0.38    1.74
  -6  -4   2   -0.60    1.74
  -6  -4   2   -2.65    2.38
  -6   4   2   -1.34    2.05
  -6   4   2    0.19    2.28
  -6   4   2    0.99    1.79
   6   4  -2   -0.80    2.06
   5  -4  -2    0.92    1.78
   5  -4  -2    1.68    1.60
  -5  -4   2   -0.26    2.00
  -5  -4   2    1.20    1.00
  -5  -4   2   -1.02    1.54
  -5  -4   2   -0.61    1.02
  -5  -4   2   -0.47    1.42
  -5   4   2    0.22    2.17
  -5   4   2   -1.87    1.75
  -5   4   2    2.46    1.65
   5   4  -2    1.61    1.28
   5   4  -2   -0.67    1.81
  -4  -4   2   39.25    3.10
  -4  -4   2   37.59    2.37
  -4  -4   2   37.26    3.74
  -4  -4   2   41.56    2.36
   4  -4  -2   37.21    3.02
   4  -4  -2   42.50    3.49
   4  -4  -2   31.22    3.11
  -4  -4   2   40.36    2.63
  -4   4   2   34.84    3.23
  -4   4   2   38.05    2.10
   4   4  -2   33.60    2.78
  -4   4   2   38.39    3.19
   4   4  -2   27.84    3.51
  -4   4   2   39.54    3.89
  -3  -4   2   81.78    4.88
   3  -4  -2   85.39    4.50
   3  -4  -2   79.98    4.45
   3  -4  -2   82.17    4.18
  -3  -4   2   87.81    3.68
  -3  -4   2   80.87    4.31
  -3  -4   2   75.97    3.74
  -3   4   2   87.12    4.87
  -3   4   2   91.40    3.91
   3   4  -2   79.20    5.01
  -3   4   2   82.86    4.50
   3   4  -2   82.06    4.31
  -3   4   2   78.97    4.47
  -2  -4   2   28.59    2.45
  -2  -4   2   24.04    2.48
   2  -4  -2   26.52    2.91
   2  -4  -2   27.08    2.95
  -2  -4   2   26.94    2.31
   2  -4  -2   24.27    2.36
  -2  -4   2   24.52    3.25
  -2   4   2   29.71    3.58
   2   4  -2   21.33    3.13
  -2   4   2   23.98    2.75
  -2   4   2   25.11    2.79
   2   4  -2   25.53    1.46
  -2   4   2   30.98    2.68
  -1  -4   2  247.84   10.01
   1  -4  -2  248.90    9.39
  -1  -4   2  252.35    9.48
  -1  -4   2  253.86    9.49
  -1  -4   2  228.49    9.95
  -1  -4   2  252.52    9.34
   1  -4  -2  256.46    9.46
   1  -4  -2  252.79    9.83
   1   4  -2  253.88   10.04
  -1   4   2  241.81   10.02
  -1   4   2  251.65    9.88
  -1   4   2  250.27    9.81
   0  -4   2  150.02    6.14
   0  -4   2  162.63    6.95
   0  -4  -2  158.01    6.41
   0  -4  -2  155.70    6.17
   0  -4  -2  140.17    6.74
   0  -4   2  150.87    6.80
   0  -4   2  158.41    6.61
   0  -4  -2  153.77    6.73
   0   4  -2  152.85    5.90
   0   4  -2  152.54    6.50
   0   4   2  161.88    7.03
   0   4   2  165.01    6.83
   0   4  -2  152.84    6.92
   0   4   2  143.37    6.66
  -1  -4  -2   -1.69    1.38
  -1  -4  -2   -0.35    1.42
  -1  -4  -2    1.48    1.59
   1  -4   2   -0.15    1.49
  -1  -4  -2    0.05    1.16
   1  -4   2    0.64    1.18
   1  -4   2   -1.37    1.61
   1  -4   2   -0.13    1.49
   1   4   2   -1.82    1.37
   1   4   2    1.01    1.79
  -1   4  -2    1.09    1.28
   1   4   2    0.70    1.43
  -1   4  -2    3.41    2.27
  -1   4  -2    0.43    1.58
   2  -4   2  156.68    7.32
  -2  -4  -2  167.73    7.38
  -2  -4  -2  177.79    6.97
   2  -4   2  174.86    6.84
   2  -4   2  172.34    6.95
  -2  -4  -2  177.37    7.38
   2  -4   2  171.28    7.64
  -2  -4  -2  158.14    7.30
  -2   4  -2  173.01    7.18
   2   4   2  166.06    7.32
  -2   4  -2  172.85    7.41
   2   4   2  164.24    6.61
  -2   4  -2  171.91    7.99
   2   4   2  165.49    7.71
   3  -4   2    8.18    2.02
  -3  -4  -2    5.52    1.96
  -3  -4  -2    5.08    1.61
  -3  -4  -2    6.44    1.75
   3  -4   2    4.49    1.48
   3  -4   2    5.18    2.00
  -3  -4  -2    2.76    1.66
   3  -4   2    5.88    1.38
  -3   4  -2    6.32    1.83
  -3   4  -2    9.21    2.43
   3   4   2    5.90    2.12
   3   4   2    5.30    1.73
  -3   4  -2    3.12    1.59
   3   4   2    4.96    0.92
   4  -4   2   82.29    5.12
   4  -4   2   85.27    3.98
  -4  -4  -2   81.23    4.69
  -4  -4  -2   82.53    4.95
   4  -4   2   78.11    4.55
  -4  -4  -2   80.38    4.82
   4  -4   2   81.17    5.27
  -4   4  -2   71.12    4.89
   4   4   2   86.76    5.47
   4   4   2   79.48    5.23
  -4   4  -2   82.61    5.08
  -4   4  -2   84.71    5.44
  -5  -4  -2    4.97    2.13
   5  -4   2    6.48    2.05
  -5  -4  -2    8.14    2.14
   5  -4   2    7.65    2.58
  -5  -4  -2   11.79    2.55
   5   4   2    3.39    2.47
  -5   4  -2    5.86    2.27
  -5   4  -2   15.35    2.96
  -5   4  -2    8.39    2.58
   5   4   2   10.14    2.81
  -6  -4  -2    1.77    2.23
   6  -4   2    1.35    2.55
  -6  -4  -2   -0.87    1.78
   6  -4   2    2.62    1.98
  -6  -4  -2    2.48    2.26
   6   4   2    3.36    2.67
   6   4   2    0.23    2.62
  -6   4  -2   -1.45    2.46
  -6   4  -2   -1.62    2.27
  -6   4  -2    0.88    2.29
   7  -4   2   84.28    5.93
   7  -4   2   76.07    6.67
  -7  -4  -2   83.23    6.07
  -7  -4  -2   77.06    6.09
  -7  -4  -2   90.41    5.72
  -7   4  -2   73.10    6.24
   7   4   2   94.76    6.66
  -7   4  -2   77.13    6.20
  -7   4  -2  104.34    6.49
   7   4   2  104.41    7.26
  -8  -4  -2   -1.40    2.49
  -8  -4  -2    1.08    2.04
   8  -4   2    0.00    2.45
  -8  -4  -2   -1.44    2.46
   8  -4   2    0.16    2.89
  -8   4  -2    5.19    3.00
   8   4   2   -4.00    2.76
  -8   4  -2   -3.03    2.49
   8   4   2   -3.48    2.53
  -9  -4  -2    2.77    3.25
   9  -4   2    4.41    3.00
   9  -4   2    6.69    3.72
  -9  -4  -2    5.18    3.03
  -9  -4  -2    3.60    2.40
   9   4   2    5.92    3.97
  -9   4  -2    4.90    3.46
  -9   4  -2    7.18    3.07
  10  -4   2   21.63    4.87
 -10  -4  -2   21.84    4.53
 -10  -4  -2   13.92    3.24
  10  -4   2   24.43    4.50
 -10  -4  -2    9.44    3.77
 -10   4  -2   21.36    4.07
  10   4   2   14.55    4.88
 -10   4  -2   18.83    4.66
 -11  -5   2   18.13    2.49
 -10  -5   2    1.51    1.44
 -10  -5   2   -2.63    2.65
  10  -5  -2    0.37    2.91
  10  -5  -2   -2.14    2.95
 -10   5   2   -3.25    2.80
  10   5  -2   -3.64    3.01
 -10   5   2    0.49    2.44
  -9  -5   2   22.93    3.92
   9  -5  -2   16.15    3.53
   9  -5  -2   24.31    4.00
  -9  -5   2   13.70    1.92
  -9   5   2   20.42    3.93
   9   5  -2   24.26    4.65
  -9   5   2   13.50    2.98
  -9   5   2   16.87    3.95
  -8  -5   2   56.31    3.53
  -8  -5   2   70.95    5.69
   8  -5  -2   64.21    5.37
   8  -5  -2   72.03    5.81
  -8   5   2   63.51    5.25
  -8   5   2   51.19    5.69
  -8   5   2   54.74    6.06
   8   5  -2   58.49    6.20
   8   5  -2   52.86    5.80
   7  -5  -2   25.40    4.07
   7  -5  -2   20.77    3.35
  -7  -5   2   16.74    3.02
  -7  -5   2   29.11    2.64
  -7   5   2   21.08    3.61
  -7   5   2   21.50    3.22
   7   5  -2   33.02    4.68
  -7   5   2   22.79    3.75
  -6  -5   2   39.17    2.86
   6  -5  -2   41.19    4.20
  -6  -5   2   42.38    3.66
   6  -5  -2   51.39    4.56
  -6  -5   2   43.10    5.03
  -6  -5   2   31.40    4.01
  -6   5   2   43.79    4.20
   6   5  -2   48.35    5.10
  -6   5   2   46.63    5.33
  -6   5   2   40.54    4.62
  -5  -5   2  228.50   10.42
   5  -5  -2  237.80   10.22
  -5  -5   2  237.97    9.05
  -5  -5   2  234.24    8.99
  -5  -5   2  229.73    9.96
  -5  -5   2  249.18    9.25
   5  -5  -2  238.30   10.00
  -5   5   2  229.53   10.03
  -5   5   2  237.48   10.24
   5   5  -2  220.30    9.32
  -5   5   2  239.79   10.75
   5   5  -2  228.97   10.47
  -4  -5   2   44.86    2.98
  -4  -5   2   54.27    2.94
   4  -5  -2   55.12    3.77
  -4  -5   2   52.63    3.83
   4  -5  -2   44.54    3.84
  -4  -5   2   53.93    4.53
  -4  -5   2   52.92    3.09
   4  -5  -2   56.19    4.08
   4   5  -2   48.58    3.56
  -4   5   2   62.43    4.12
  -4   5   2   51.81    2.95
  -4   5   2   56.34    4.09
  -4   5   2   52.68    4.30
   4   5  -2   50.06    4.39
  -3  -5   2  159.90    6.67
   3  -5  -2  158.38    6.97
   3  -5  -2  158.84    7.34
  -3  -5   2  169.18    7.15
  -3  -5   2  184.96    7.76
  -3  -5   2  176.32    6.75
   3  -5  -2  159.73    7.31
  -3   5   2  166.80    7.38
   3   5  -2  161.03    7.71
   3   5  -2  164.64    7.17
  -3   5   2  150.76    7.04
  -3   5   2  154.73    6.67
  -3   5   2  168.29    7.91
   2  -5  -2   86.55    4.74
   2  -5  -2   89.77    4.34
  -2  -5   2   82.09    4.21
  -2  -5   2   85.36    4.22
  -2  -5   2   86.85    4.29
  -2  -5   2   82.32    4.88
   2  -5  -2   87.62    4.77
  -2   5   2   80.07    4.20
  -2   5   2   76.38    4.33
   2   5  -2   85.65    5.17
   2   5  -2   79.68    4.70
  -2   5   2   84.85    4.74
  -2   5   2   81.46    5.07
   1  -5  -2  747.29   25.70
   1  -5  -2  699.34   25.83
  -1  -5   2  686.31   26.30
  -1  -5   2  749.16   25.94
  -1  -5   2  763.39   25.84
  -1  -5   2  714.73   25.92
   1  -5  -2  741.77   26.23
   1  -5  -2  757.65   26.27
   1   5  -2  749.90   26.01
  -1   5   2  755.62   26.36
  -1   5   2  748.78   26.18
   1   5  -2  749.32   26.37
  -1   5   2  713.89   26.36
   1   5  -2  705.16   26.40
   0  -5   2  179.95    7.92
   0  -5  -2  182.14    7.87
   0  -5   2  196.42    7.86
   0  -5   2  175.06    7.92
   0  -5  -2  196.19    8.00
   0  -5   2  183.95    7.34
   0  -5  -2  184.74    7.60
   0  -5  -2  179.30    7.11
   0   5   2  181.39    7.87
   0   5   2  186.17    8.11
   0   5  -2  182.73    8.35
   0   5  -2  183.00    7.71
   0   5   2  198.58    8.07
   0   5  -2  179.36    6.78
   1  -5   2  429.48   15.77
  -1  -5  -2  424.85   15.78
   1  -5   2  432.14   15.89
  -1  -5  -2  453.18   15.99
  -1  -5  -2  443.99   15.97
  -1  -5  -2  416.77   15.12
   1  -5   2  410.37   15.34
   1  -5   2  379.52   15.92
   1   5   2  438.21   16.25
  -1   5  -2  395.99   16.20
  -1   5  -2  446.30   15.99
   1   5   2  419.92   15.66
  -1   5  -2  431.65   15.25
  -2  -5  -2   16.08    2.32
   2  -5   2   13.90    2.12
   2  -5   2   18.71    2.47
  -2  -5  -2   12.11    2.04
   2  -5   2   12.20    2.18
  -2  -5  -2   11.58    2.14
  -2  -5  -2   14.00    2.19
   2  -5   2   16.09    2.42
   2   5   2   14.28    2.67
   2   5   2   12.78    2.12
  -2   5  -2   18.33    2.49
   2   5   2   14.84    2.18
  -2   5  -2   15.35    2.42
  -2   5  -2   13.50    2.56
   3  -5   2   56.81    3.61
   3  -5   2   60.03    4.30
   3  -5   2   64.07    3.78
  -3  -5  -2   53.88    4.53
   3  -5   2   61.41    4.60
  -3  -5  -2   62.31    3.80
  -3  -5  -2   60.67    4.32
  -3  -5  -2   62.15    4.09
  -3   5  -2   58.60    4.07
   3   5   2   60.44    4.86
   3   5   2   61.43    3.18
  -3   5  -2   55.31    4.41
  -3   5  -2   62.29    5.12
   4  -5   2   25.26    3.66
  -4  -5  -2   33.46    3.68
  -4  -5  -2   30.95    3.48
   4  -5   2   34.71    3.09
   4  -5   2   37.24    3.37
  -4  -5  -2   30.67    3.50
   4  -5   2   32.42    4.13
   4   5   2   32.33    4.24
  -4   5  -2   34.61    3.86
  -4   5  -2   25.99    3.60
  -4   5  -2   39.07    4.98
   5  -5   2    2.38    2.49
  -5  -5  -2    3.21    1.95
   5  -5   2    9.72    2.38
  -5  -5  -2    5.02    2.33
  -5  -5  -2    5.42    2.24
  -5   5  -2    1.04    2.15
   5   5   2    5.02    2.81
   5   5   2    3.11    2.59
  -5   5  -2    7.34    2.45
  -5   5  -2    5.01    2.74
   6  -5   2   -1.45    2.45
  -6  -5  -2   -1.13    1.86
   6  -5   2    0.77    2.08
  -6  -5  -2    0.99    2.19
  -6  -5  -2    1.03    2.31
  -6   5  -2   -0.03    2.28
   6   5   2    3.91    2.78
   6   5   2   -0.41    2.58
  -6   5  -2    6.01    2.56
  -6   5  -2    3.55    2.88
  -7  -5  -2   -2.35    2.42
  -7  -5  -2    3.45    2.52
  -7  -5  -2    7.19    2.40
   7  -5   2    2.60    2.40
   7  -5   2    2.40    2.92
   7   5   2    7.34    3.36
   7   5   2    1.04    3.01
  -7   5  -2    3.53    2.83
  -7   5  -2    3.97    3.02
  -7   5  -2    1.21    2.74
   8  -5   2    9.67    3.09
   8  -5   2    6.46    3.42
  -8  -5  -2    5.57    2.40
  -8  -5  -2    7.75    3.13
   8   5   2   -0.53    3.23
  -8   5  -2    2.07    2.88
  -8   5  -2    8.59    3.20
   8   5   2    7.89    3.36
   9  -5   2    2.27    3.50
   9  -5   2    0.66    3.08
  -9  -5  -2    0.21    2.17
  -9  -5  -2    2.97    3.21
   9   5   2    0.61    3.60
  -9   5  -2    5.26    3.11
  -9   5  -2    1.90    3.12
  10  -5   2    3.15    5.49
 -10   5  -2   -0.29    3.10
 -10  -6   2   73.24    4.23
 -10  -6   2   75.32    7.21
  10  -6  -2   91.14    7.47
 -10   6   2   85.79    7.43
 -10   6   2   83.11    6.76
  10   6  -2   90.60    8.56
   9  -6  -2    4.69    3.19
  -9  -6   2    3.46    1.53
  -9  -6   2    3.80    3.06
   9  -6  -2   -0.85    2.82
   9   6  -2    0.57    3.14
   9   6  -2    8.43    3.79
  -9   6   2    3.69    3.51
  -9   6   2    3.49    2.90
  -9   6   2   -1.02    2.45
   8  -6  -2   -0.61    2.42
   8  -6  -2    0.29    2.49
  -8  -6   2    1.43    2.50
  -8  -6   2   -0.16    1.37
   8   6  -2    0.17    2.71
  -8   6   2    0.85    2.42
   8   6  -2   -1.47    2.98
  -8   6   2   -1.42    3.00
  -8   6   2   -0.46    2.51
   7  -6  -2   17.86    3.38
  -7  -6   2   29.22    2.76
  -7  -6   2   22.51    3.48
   7  -6  -2   31.51    4.53
  -7  -6   2   28.26    4.41
  -7   6   2   21.74    3.46
  -7   6   2   23.98    4.23
  -7   6   2   32.05    4.75
   7   6  -2   22.00    4.03
   6  -6  -2   55.45    4.85
  -6  -6   2   56.55    5.30
  -6  -6   2   55.45    4.78
   6  -6  -2   55.79    5.10
  -6  -6   2   59.22    3.67
  -6   6   2   70.65    6.04
  -6   6   2   55.74    4.87
   6   6  -2   62.22    5.69
  -6   6   2   69.94    5.37
   5  -6  -2   89.30    5.71
  -5  -6   2   95.54    5.76
  -5  -6   2   99.49    4.85
  -5  -6   2   94.41    6.54
   5  -6  -2   97.80    6.00
   5   6  -2   99.16    6.55
  -5   6   2   94.66    6.68
  -5   6   2   96.71    5.94
   5   6  -2  106.70    6.79
  -5   6   2   97.09    6.04
  -4  -6   2    9.19    2.16
  -4  -6   2   10.44    1.67
   4  -6  -2    9.96    2.15
  -4  -6   2    4.47    2.52
   4  -6  -2   10.40    2.47
  -4   6   2   10.38    3.07
  -4   6   2    8.22    2.12
   4   6  -2   13.28    2.32
  -4   6   2   10.41    2.56
   4   6  -2   12.67    2.89
  -3  -6   2  225.22   10.15
  -3  -6   2  220.58    9.10
  -3  -6   2  232.39    9.43
   3  -6  -2  215.90    9.68
   3  -6  -2  215.52    9.72
   3  -6  -2  233.90    9.42
   3   6  -2  238.52   10.29
   3   6  -2  228.15    9.66
  -3   6   2  233.58    9.90
  -3   6   2  227.11    9.36
  -3   6   2  228.00   10.15
  -3   6   2  228.52    9.15
  -2  -6   2  131.99    6.37
  -2  -6   2  140.92    6.39
   2  -6  -2  142.78    6.76
   2  -6  -2  132.09    6.78
   2  -6  -2  147.89    6.43
  -2  -6   2  133.45    7.03
  -2   6   2  136.43    6.78
  -2   6   2  139.45    6.13
  -2   6   2  140.83    7.23
   2   6  -2  154.25    7.33
  -2   6   2  136.98    6.49
   2   6  -2  146.05    6.93
   1  -6  -2    5.07    1.85
   1  -6  -2    9.37    1.81
  -1  -6   2    7.77    1.91
   1  -6  -2    6.99    2.08
   1  -6  -2   10.50    1.59
  -1  -6   2    5.63    1.62
  -1  -6   2    6.71    2.09
   1   6  -2    7.01    2.38
   1   6  -2    4.80    2.10
  -1   6   2    6.16    2.07
  -1   6   2    6.18    2.04
  -1   6   2    5.55    2.13
   0  -6   2    5.11    2.11
   0  -6   2    9.11    1.91
   0  -6  -2    7.78    2.09
   0  -6  -2    5.66    1.27
   0  -6  -2    7.92    1.82
   0  -6  -2    4.61    1.85
   0  -6   2    6.56    1.63
   0   6  -2    3.40    1.59
   0   6   2    8.89    2.30
   0   6   2    6.80    1.88
   0   6  -2    6.48    0.88
   0   6   2    4.28    1.93
   0   6  -2    7.52    2.30
   0   6  -2    6.26    2.08
  -1  -6  -2    8.11    2.04
  -1  -6  -2    9.69    2.06
   1  -6   2    8.37    2.20
   1  -6   2    9.61    1.73
   1  -6   2    9.18    1.99
  -1  -6  -2    6.78    2.05
  -1  -6  -2    9.42    1.42
  -1   6  -2    7.77    1.99
  -1   6  -2   10.01    1.45
  -1   6  -2    8.36    2.09
   1   6   2    6.25    2.26
   1   6   2    6.30    1.97
  -1   6  -2   10.42    2.74
   1   6   2    6.92    1.91
  -2  -6  -2  177.67    8.38
  -2  -6  -2  186.94    8.32
   2  -6   2  187.52    7.86
  -2  -6  -2  187.41    7.46
  -2  -6  -2  174.03    8.43
   2  -6   2  181.46    8.67
   2  -6   2  195.07    8.55
   2   6   2  185.35    8.78
  -2   6  -2  187.54    7.77
  -2   6  -2  193.82    8.55
   2   6   2  192.05    7.95
  -2   6  -2  182.75    9.08
  -2   6  -2  195.34    8.07
  -3  -6  -2   29.11    3.71
   3  -6   2   34.06    4.00
  -3  -6  -2   34.81    4.25
   3  -6   2   36.72    4.21
  -3  -6  -2   34.40    3.11
  -3  -6  -2   35.96    3.75
   3  -6   2   36.51    3.29
   3   6   2   31.03    3.91
  -3   6  -2   34.08    3.97
   3   6   2   36.90    4.66
  -3   6  -2   39.05    5.43
  -3   6  -2   38.00    3.26
  -3   6  -2   27.84    3.42
  -4  -6  -2   47.50    4.21
   4  -6   2   40.51    3.82
  -4  -6  -2   45.43    4.84
  -4  -6  -2   33.42    4.55
   4  -6   2   50.68    5.15
  -4  -6  -2   43.58    4.34
   4  -6   2   41.52    4.75
  -4   6  -2   42.97    4.32
   4   6   2   44.21    5.16
  -4   6  -2   51.03    5.64
  -4   6  -2   45.61    4.54
   5  -6   2   48.56    4.27
   5  -6   2   40.53    5.04
  -5  -6  -2   46.46    4.32
  -5  -6  -2   49.90    4.76
  -5   6  -2   44.21    4.72
  -5   6  -2   41.22    4.67
   5   6   2   51.29    5.76
  -5   6  -2   45.05    5.45
   5   6   2   43.81    5.02
   6  -6   2   95.87    7.02
   6  -6   2   95.81    6.03
  -6  -6  -2   83.91    5.77
  -6  -6  -2   93.87    6.46
   6   6   2   97.52    7.09
   6   6   2   83.87    7.23
  -6   6  -2   93.73    6.98
  -6   6  -2  104.98    6.83
  -6   6  -2   99.10    6.71
  -7  -6  -2    6.85    2.85
   7  -6   2    0.58    2.44
  -7  -6  -2    5.75    2.44
   7  -6   2    3.87    3.15
  -7   6  -2    4.48    3.05
  -7   6  -2    3.32    2.90
   7   6   2    2.84    3.47
   7   6   2    5.51    3.54
  -7   6  -2    0.83    3.16
   8  -6   2   55.92    6.89
  -8  -6  -2   47.69    5.98
  -8  -6  -2   40.03    4.72
   8  -6   2   47.76    5.40
   8   6   2   42.04    5.59
  -8   6  -2   35.62    5.55
   8   6   2   45.41    6.43
  -8   6  -2   51.29    6.20
  -9  -6  -2   55.85    6.50
   9  -6   2   50.45    7.03
  -9  -6  -2   61.28    5.28
   9   6   2   54.60    7.43
  -9   6  -2   50.06    6.80
  -9   6  -2   46.37    6.67
 -10  -7   2    6.79    1.75
  10  -7  -2    6.58    3.71
 -10   7   2    0.45    3.06
 -10   7   2   11.32    3.85
   9  -7  -2   -0.07    2.78
  -9  -7   2   -2.39    2.66
  -9  -7   2    1.40    1.53
  -9   7   2   -0.29    2.73
   9   7  -2    1.12    3.28
  -9   7   2    2.43    3.73
   9   7  -2   -1.37    3.39
  -9   7   2    2.32    3.07
   8  -7  -2   -2.01    2.74
  -8  -7   2    0.05    2.36
  -8  -7   2    0.07    1.48
   8  -7  -2   -2.44    3.86
  -8   7   2    0.37    3.26
   8   7  -2   -0.53    2.87
  -8   7   2   -2.74    2.44
   8   7  -2    0.82    3.36
  -8   7   2   -0.29    2.73
   7  -7  -2   18.78    3.46
  -7  -7   2   20.37    3.49
  -7  -7   2   15.33    2.25
   7  -7  -2   16.57    3.53
  -7  -7   2   18.87    4.14
  -7   7   2   17.92    3.61
   7   7  -2   20.48    4.26
  -7   7   2   18.23    4.01
  -7   7   2   23.26    3.69
   6  -7  -2   -5.05    1.99
  -6  -7   2   -5.14    2.65
  -6  -7   2   -0.38    1.47
   6  -7  -2   -0.91    2.23
  -6  -7   2   -0.65    2.10
  -6   7   2    1.64    3.05
   6   7  -2    3.17    3.18
  -6   7   2    0.96    2.45
  -6   7   2    2.38    2.31
  -5  -7   2   70.19    5.95
   5  -7  -2   67.59    5.02
  -5  -7   2   71.24    4.22
  -5  -7   2   60.62    4.99
   5  -7  -2   66.73    5.20
  -5   7   2   63.90    5.30
  -5   7   2   62.27    4.95
   5   7  -2   72.56    6.14
  -5   7   2   61.37    6.02
  -4  -7   2   68.29    4.23
   4  -7  -2   68.84    4.80
   4  -7  -2   68.02    5.13
  -4  -7   2   59.39    4.57
  -4  -7   2   60.27    5.49
  -4   7   2   60.34    4.54
  -4   7   2   58.75    5.86
  -4   7   2   57.34    4.96
   4   7  -2   76.60    4.97
   4   7  -2   57.94    5.76
   3  -7  -2   34.04    4.58
   3  -7  -2   34.35    3.62
  -3  -7   2   31.48    3.41
  -3  -7   2   36.91    4.16
   3  -7  -2   32.15    4.13
  -3  -7   2   35.47    3.76
   3   7  -2   36.55    4.33
  -3   7   2   36.48    3.98
  -3   7   2   35.79    3.62
  -3   7   2   35.30    3.33
  -3   7   2   45.15    5.06
   3   7  -2   37.31    4.09
  -2  -7   2   46.82    4.03
  -2  -7   2   64.44    4.99
   2  -7  -2   56.51    4.14
  -2  -7   2   57.90    4.19
   2  -7  -2   60.66    4.87
   2  -7  -2   52.50    4.54
  -2   7   2   49.13    5.07
  -2   7   2   54.41    4.40
   2   7  -2   55.79    4.91
   2   7  -2   57.03    5.12
  -2   7   2   66.18    4.74
  -1  -7   2   17.82    2.44
   1  -7  -2   16.34    2.49
   1  -7  -2   23.40    3.03
  -1  -7   2   19.19    3.12
   1  -7  -2   14.85    1.85
   1  -7  -2   13.81    2.49
  -1  -7   2   11.27    2.34
  -1   7   2   16.74    2.90
   1   7  -2   17.90    3.22
  -1   7   2   13.22    2.96
  -1   7   2   18.71    3.00
   1   7  -2   16.55    3.13
   0  -7  -2    5.88    1.96
   0  -7   2    5.60    1.83
   0  -7   2    4.04    2.14
   0  -7  -2    7.54    2.50
   0  -7  -2    5.54    2.18
   0  -7   2    3.96    2.36
   0   7   2    2.58    2.40
   0   7  -2    8.44    2.76
   0   7   2    5.75    2.38
   0   7  -2    4.19    2.34
   0   7   2    0.11    2.30
   1  -7   2   13.48    2.19
   1  -7   2   13.98    2.58
   1  -7   2   10.23    2.66
  -1  -7  -2   11.98    2.48
  -1  -7  -2   11.40    2.53
  -1  -7  -2    9.34    2.54
  -1   7  -2   12.42    3.18
  -1   7  -2   11.33    2.60
   1   7   2   11.14    2.84
   1   7   2   16.61    2.68
   2  -7   2    0.50    2.23
   2  -7   2    4.99    1.95
   2  -7   2    3.67    2.32
  -2  -7  -2    3.15    2.16
  -2  -7  -2    5.39    2.20
  -2  -7  -2    3.06    2.09
   2   7   2    4.71    2.93
   2   7   2    9.19    2.23
  -2   7  -2    1.64    1.58
  -2   7  -2    2.03    2.06
  -2   7  -2    6.46    2.87
  -3  -7  -2    3.56    2.15
  -3  -7  -2    2.47    2.42
  -3  -7  -2    0.63    2.06
   3  -7   2    2.25    1.85
   3  -7   2    4.46    2.57
   3  -7   2    5.82    2.49
  -3   7  -2    2.33    3.30
  -3   7  -2    6.49    2.13
   3   7   2    5.12    3.04
  -3   7  -2    6.00    1.98
  -4  -7  -2   21.93    3.59
   4  -7   2    9.91    2.85
  -4  -7  -2    6.38    2.63
   4  -7   2    8.92    2.31
  -4  -7  -2   13.54    2.70
  -4   7  -2   11.65    2.63
  -4   7  -2   11.69    3.62
   4   7   2   11.47    3.48
   5  -7   2   29.30    3.85
  -5  -7  -2   21.51    3.48
  -5  -7  -2   26.42    3.93
   5  -7   2   24.30    3.95
  -5   7  -2   32.01    4.64
   5   7   2   32.30    4.64
  -5   7  -2   35.66    4.40
  -6  -7  -2   88.92    6.13
   6  -7   2   89.84    7.07
  -6  -7  -2  101.50    6.90
   6  -7   2   96.57    6.26
  -6   7  -2   91.06    6.75
   6   7   2  103.57    7.72
  -6   7  -2  107.17    7.70
   6   7   2   98.18    7.28
  -7  -7  -2   26.04    4.32
  -7  -7  -2   19.34    3.30
   7  -7   2   16.26    4.10
   7  -7   2   22.06    3.71
   7   7   2   24.27    4.70
   7   7   2   23.05    4.48
  -7   7  -2   20.59    4.35
  -7   7  -2   13.54    3.72
  -8  -7  -2   60.40    6.53
  -8  -7  -2   69.39    5.61
   8  -7   2   63.20    6.97
   8   7   2   66.44    7.57
  -8   7  -2   68.50    7.09
   8   7   2   87.17    7.92
  -8   7  -2   65.48    6.57
   9  -7   2    2.79    3.91
  -9   7  -2   -0.10    3.23
   9  -8  -2    5.60    3.41
  -9  -8   2   -2.71    2.76
  -9  -8   2    3.29    1.69
   9   8  -2    0.16    3.46
   9   8  -2    0.69    3.80
  -9   8   2   -3.74    2.89
  -9   8   2    2.70    3.89
  -9   8   2    1.64    3.15
  -8  -8   2   -0.46    1.62
   8  -8  -2   -2.47    2.67
  -8  -8   2   -2.07    2.57
  -8   8   2    2.25    2.96
   8   8  -2    3.06    3.71
  -8   8   2    2.13    3.80
  -8   8   2   -4.19    2.57
  -7  -8   2   41.53    5.02
  -7  -8   2   46.11    3.83
  -7  -8   2   37.41    5.47
   7  -8  -2   37.92    5.42
   7   8  -2   44.89    6.25
  -7   8   2   48.50    6.44
  -7   8   2   38.84    5.20
  -7   8   2   49.79    5.65
   6  -8  -2   23.90    3.60
   6  -8  -2   30.59    4.15
  -6  -8   2   23.45    4.35
  -6  -8   2   22.34    3.22
  -6  -8   2   16.39    3.26
  -6   8   2   24.06    3.77
  -6   8   2   30.27    4.41
   6   8  -2   24.64    4.54
  -6   8   2   25.50    4.63
   5  -8  -2    3.09    2.34
  -5  -8   2   -3.32    2.34
   5  -8  -2   -1.24    2.44
  -5  -8   2   -1.45    1.66
  -5  -8   2    3.24    2.39
   5   8  -2    2.07    2.89
  -5   8   2    0.15    2.43
  -5   8   2   -3.65    2.92
  -5   8   2    2.03    2.17
  -4  -8   2    4.05    2.02
   4  -8  -2    5.53    2.68
   4  -8  -2    3.10    2.24
  -4  -8   2    3.58    2.26
  -4  -8   2    6.46    3.02
   4   8  -2    3.70    2.60
  -4   8   2    7.19    2.24
  -4   8   2    3.33    3.20
  -4   8   2    3.42    2.55
   4   8  -2   -0.49    2.79
  -3  -8   2   41.60    4.03
   3  -8  -2   35.28    4.26
  -3  -8   2   35.67    4.06
   3  -8  -2   38.83    4.08
  -3  -8   2   36.90    4.93
   3   8  -2   33.12    4.39
   3   8  -2   37.76    4.79
  -3   8   2   34.38    5.15
  -3   8   2   40.70    4.44
  -3   8   2   42.06    4.15
   2  -8  -2   11.62    2.55
  -2  -8   2    8.57    2.37
   2  -8  -2   10.73    2.71
  -2  -8   2   10.62    2.51
   2  -8  -2   11.77    2.76
  -2  -8   2   13.01    2.98
  -2   8   2    7.95    2.64
  -2   8   2   12.73    4.85
  -2   8   2    7.01    3.17
   2   8  -2    9.25    3.14
   2   8  -2   11.43    3.34
  -1  -8   2  116.89    6.92
   1  -8  -2  121.64    7.25
  -1  -8   2  151.16    7.73
   1  -8  -2  123.83    7.07
   1  -8  -2  131.08    6.92
  -1  -8   2  136.69    6.67
  -1   8   2  133.15    7.65
   1   8  -2  120.50    7.75
   1   8  -2  135.56    7.68
  -1   8   2  141.19    7.35
   0  -8  -2    3.95    2.18
   0  -8  -2    4.60    2.43
   0  -8   2    1.12    1.85
   0  -8  -2    2.96    2.40
   0  -8   2    2.34    2.55
   0  -8   2    0.12    2.18
   0   8  -2    4.51    3.01
   0   8   2    0.24    2.48
   0   8  -2    6.38    2.76
   0   8   2    2.11    2.74
   1  -8   2  275.30   12.53
  -1  -8  -2  292.93   12.58
   1  -8   2  283.95   12.92
  -1  -8  -2  285.33   12.64
   1  -8   2  318.73   12.15
  -1  -8  -2  305.32   12.73
  -1   8  -2  300.62   13.61
   1   8   2  301.84   13.21
  -1   8  -2  314.23   12.79
   1   8   2  308.30   12.69
  -2  -8  -2   89.03    5.97
   2  -8   2   86.04    6.23
  -2  -8  -2   95.99    6.00
   2  -8   2   89.44    5.31
  -2  -8  -2   86.33    5.87
   2  -8   2   92.04    6.11
  -2   8  -2   99.56    7.72
  -2   8  -2   94.32    5.94
   2   8   2   88.11    5.79
   2   8   2   91.68    6.81
  -3  -8  -2  163.79    8.04
   3  -8   2  139.78    7.31
   3  -8   2  147.66    8.28
  -3  -8  -2  138.12    7.80
   3  -8   2  143.44    8.24
  -3  -8  -2  158.85    8.40
  -3   8  -2  145.53    9.26
   3   8   2  147.43    8.86
  -4  -8  -2    5.42    2.55
  -4  -8  -2    3.52    2.76
  -4  -8  -2    4.30    2.40
   4  -8   2    2.12    2.15
   4  -8   2   -1.42    2.48
  -4   8  -2    2.10    3.39
   4   8   2    0.08    2.79
  -5  -8  -2   47.42    5.21
   5  -8   2   42.72    4.47
   5  -8   2   37.27    5.19
  -5  -8  -2   52.32    4.90
  -5   8  -2   48.95    6.28
   5   8   2   57.05    6.31
   6  -8   2   26.88    4.47
  -6  -8  -2   20.12    3.39
   6  -8   2   15.39    4.94
  -6  -8  -2   13.42    3.53
   6   8   2   14.28    3.73
   6   8   2   13.10    4.25
  -6   8  -2   18.75    4.52
  -6   8  -2   14.39    4.26
  -7  -8  -2   27.37    3.81
   7  -8   2   27.67    4.95
  -7  -8  -2   25.10    4.34
   7   8   2   29.06    4.94
   7   8   2   28.73    5.33
  -7   8  -2   26.16    4.33
  -7   8  -2   35.93    5.41
  -8  -8  -2    8.25    2.82
  -8  -8  -2    4.09    3.62
   8  -8   2   -0.49    3.55
  -8   8  -2    6.34    3.39
   8   8   2   11.59    4.23
   8   8   2    6.55    4.39
  -8   8  -2    0.10    4.08
  -8  -9   2   19.22    4.12
  -8  -9   2   22.84    2.86
   8  -9  -2   33.17    5.08
  -8   9   2   27.35    5.44
  -8   9   2   21.10    4.35
   8   9  -2   25.49    5.27
  -7  -9   2   23.09    3.49
  -7  -9   2   22.76    4.01
  -7  -9   2   17.00    4.25
   7  -9  -2   29.25    4.50
   7   9  -2   22.96    4.95
  -7   9   2   13.75    4.48
  -7   9   2   19.19    4.06
  -6  -9   2    1.48    2.65
   6  -9  -2    1.18    2.85
  -6  -9   2    5.50    3.43
  -6  -9   2    1.59    1.95
  -6   9   2    0.73    2.79
   6   9  -2    5.99    3.81
  -6   9   2    0.53    3.50
  -5  -9   2   17.20    2.79
  -5  -9   2   17.13    3.31
   5  -9  -2   17.93    3.50
  -5  -9   2   21.10    4.29
   5   9  -2   23.48    4.48
  -5   9   2   19.07    4.18
  -4  -9   2    0.97    2.89
   4  -9  -2   -5.77    2.21
  -4  -9   2    0.01    2.19
   4  -9  -2    1.51    2.25
  -4  -9   2   -2.23    1.85
   4   9  -2   -3.54    2.68
  -4   9   2    4.23    3.37
  -3  -9   2  102.76    7.24
  -3  -9   2  102.32    6.05
   3  -9  -2  112.71    6.53
  -3  -9   2  102.37    6.35
   3  -9  -2   88.42    6.51
   3   9  -2   93.84    7.29
   3   9  -2   98.25    7.03
  -3   9   2   89.87    7.42
   2  -9  -2   44.19    4.63
  -2  -9   2   51.14    4.46
  -2  -9   2   39.40    4.54
   2  -9  -2   44.57    4.72
  -2  -9   2   44.56    5.23
  -2   9   2   44.77    5.58
   2   9  -2   40.23    5.50
   2   9  -2   38.06    5.71
  -2   9   2   43.94    4.87
  -1  -9   2  144.66    8.45
   1  -9  -2  155.43    8.11
  -1  -9   2  139.54    7.52
  -1  -9   2  155.68    7.99
   1  -9  -2  168.70    8.62
   1  -9  -2  146.87    7.84
   1   9  -2  142.58    8.54
  -1   9   2  162.18    8.78
   1   9  -2  145.72    9.11
  -1   9   2  148.95    8.43
   0  -9  -2  321.96   14.18
   0  -9  -2  325.94   14.05
   0  -9   2  340.00   13.69
   0  -9   2  363.07   14.73
   0  -9  -2  336.36   14.36
   0  -9   2  331.72   14.17
   0   9   2  336.81   14.48
   0   9  -2  346.26   14.50
   0   9  -2  347.91   15.30
   0   9   2  330.19   14.57
  -1  -9  -2    1.80    2.56
  -1  -9  -2    5.48    2.53
   1  -9   2    4.92    2.86
  -1  -9  -2    1.20    2.41
   1  -9   2    2.34    2.09
   1  -9   2    1.72    2.65
  -1   9  -2    3.95    3.62
   1   9   2    6.33    3.12
   1   9   2    4.99    2.78
  -1   9  -2    3.17    2.61
   2  -9   2  168.38    8.96
   2  -9   2  167.69    9.22
  -2  -9  -2  174.59    8.86
   2  -9   2  163.66    8.12
  -2  -9  -2  164.56    8.83
  -2  -9  -2  178.12    8.98
  -2   9  -2  171.37    8.56
   2   9   2  165.79    9.68
  -2   9  -2  155.80    9.88
  -3  -9  -2   38.60    4.76
   3  -9   2   34.89    4.92
  -3  -9  -2   43.66    4.83
   3  -9   2   39.73    4.22
  -3  -9  -2   31.18    4.78
  -3   9  -2   35.66    5.12
   3   9   2   41.68    5.99
  -4  -9  -2   37.33    4.93
  -4  -9  -2   35.77    4.73
  -4  -9  -2   27.86    4.36
   4  -9   2   33.00    4.66
   4  -9   2   27.30    4.10
   4   9   2   25.14    4.58
  -4   9  -2   27.69    5.13
  -5  -9  -2   39.66    5.75
  -5  -9  -2   44.88    5.44
  -5  -9  -2   44.93    5.11
   5  -9   2   38.74    5.95
   5   9   2   58.78    6.72
  -5   9  -2   46.57    6.03
  -6  -9  -2   12.68    3.20
  -6  -9  -2   14.45    3.62
   6  -9   2    8.87    3.75
   6   9   2   14.24    4.02
   6   9   2   16.78    4.55
  -6   9  -2   17.27    4.63
  -7  -9  -2    9.78    2.97
  -7  -9  -2   -1.33    2.88
   7  -9   2    1.86    3.17
   7   9   2   -0.27    3.34
   7   9   2    4.01    4.20
  -7   9  -2    0.54    3.81
  -7 -10   2    5.80    3.23
  -7 -10   2    2.15    2.27
  -7 -10   2    2.78    4.04
   7 -10  -2    4.08    3.43
  -7  10   2    2.70    4.01
   7  10  -2    4.88    4.15
  -6 -10   2    0.54    2.69
  -6 -10   2    0.11    2.05
   6 -10  -2   -1.93    2.74
  -6 -10   2    1.06    3.57
   6  10  -2   -1.15    3.44
  -6  10   2   -0.02    3.74
  -5 -10   2   -3.59    2.98
  -5 -10   2    1.48    2.19
  -5 -10   2    0.89    2.50
   5 -10  -2    4.00    3.10
   5  10  -2    6.15    3.84
  -5  10   2    2.21    3.73
   4 -10  -2    3.73    2.91
  -4 -10   2    1.38    2.27
  -4 -10   2    2.57    3.11
  -4 -10   2    4.56    2.43
   4  10  -2    6.71    3.77
  -4  10   2   -0.51    3.38
  -3 -10   2    7.91    2.60
  -3 -10   2    7.05    2.81
  -3 -10   2    5.57    3.14
   3 -10  -2    6.18    3.07
   3  10  -2    4.92    3.37
   3  10  -2    1.62    3.37
  -3  10   2    4.85    3.56
   2 -10  -2   10.78    3.10
   2 -10  -2    7.10    2.89
  -2 -10   2   13.21    3.07
  -2 -10   2    9.73    2.75
  -2 -10   2   10.09    3.19
  -2  10   2   10.89    3.25
  -2  10   2   18.69    4.02
   2  10  -2    3.15    3.40
   2  10  -2    9.16    3.66
  -1 -10   2    4.36    2.99
   1 -10  -2   10.29    3.16
   1 -10  -2    9.86    3.61
  -1 -10   2    8.01    2.82
   1 -10  -2    3.32    2.61
  -1 -10   2    4.68    2.51
   1  10  -2   15.96    3.80
  -1  10   2    6.14    3.52
  -1  10   2    9.25    3.36
   1  10  -2    3.43    3.65
   0 -10  -2   15.74    3.45
   0 -10  -2   20.65    3.61
   0 -10  -2   11.45    3.22
   0 -10   2   13.53    2.86
   0 -10   2   23.45    3.76
   0 -10   2   16.49    3.77
   0  10  -2   19.86    3.87
   0  10   2   15.42    3.73
   0  10   2   15.80    3.93
   0  10  -2   19.92    4.48
  -1 -10  -2    5.03    3.01
  -1 -10  -2    6.92    2.94
   1 -10   2    0.42    2.75
   1 -10   2    1.96    2.34
   1 -10   2    2.00    2.97
  -1 -10  -2    4.17    2.65
   1  10   2    3.63    3.26
  -1  10  -2    3.95    3.89
  -1  10  -2    8.08    3.07
   1  10   2    0.27    2.82
  -2 -10  -2   24.68    4.01
  -2 -10  -2   26.37    3.91
  -2 -10  -2   20.72    3.65
   2 -10   2   23.23    3.47
   2 -10   2   25.49    4.12
   2 -10   2   23.69    3.91
   2  10   2   21.64    4.43
  -2  10  -2   29.57    5.02
   3 -10   2   44.61    5.53
  -3 -10  -2   30.15    4.20
  -3 -10  -2   33.04    4.96
  -3 -10  -2   43.18    5.27
   3  10   2   31.14    5.18
  -3  10  -2   27.71    5.03
  -4 -10  -2   -0.30    2.52
  -4 -10  -2   -1.31    2.67
   4 -10   2    0.67    2.87
  -4 -10  -2   -2.38    2.79
  -4  10  -2   -2.43    3.46
   4  10   2    3.96    3.76
  -5 -10  -2   86.05    7.80
  -5 -10  -2   78.48    6.50
   5 -10   2   76.11    7.05
  -5 -10  -2   92.86    7.39
   5  10   2   73.47    7.78
  -5  10  -2   92.62    8.47
  -6 -10  -2   18.78    4.40
   6 -10   2   33.63    5.23
  -6 -10  -2   24.91    4.06
   6  10   2   26.94    5.03
   6  10   2   30.28    5.68
  -6  10  -2   18.76    4.95
  -6 -11   2    0.76    3.78
   6 -11  -2    3.95    3.37
  -6 -11   2    3.46    3.09
  -6 -11   2    2.90    2.81
   6  11  -2   -1.77    4.07
  -6  11   2    1.30    4.13
  -5 -11   2   16.50    3.64
   5 -11  -2   13.47    3.81
  -5 -11   2    9.42    4.11
  -5 -11   2   10.17    2.95
   5  11  -2    8.09    4.43
  -5  11   2   19.54    5.01
  -4 -11   2    0.10    2.41
   4 -11  -2   -0.59    3.01
  -4 -11   2    1.36    3.31
  -4 -11   2   -1.93    2.45
  -4  11   2    0.70    3.67
   4  11  -2   -4.12    3.64
  -3 -11   2   10.36    3.28
   3 -11  -2    6.73    3.16
  -3 -11   2   18.31    4.03
  -3  11   2   21.30    4.65
   3  11  -2   20.43    4.72
  -2 -11   2   18.04    3.53
  -2 -11   2   15.41    3.88
   2 -11  -2   13.45    3.55
  -2 -11   2   17.71    3.37
  -2  11   2   14.02    4.26
   2  11  -2   15.94    4.40
   2  11  -2   16.04    4.42
  -1 -11   2   52.23    5.31
   1 -11  -2   55.02    5.91
  -1 -11   2   56.15    6.14
  -1 -11   2   46.68    5.49
  -1  11   2   51.28    6.40
  -1  11   2   66.08    6.52
   1  11  -2   44.66    6.65
   1  11  -2   47.47    6.22
   0 -11  -2    0.82    2.79
   0 -11  -2    3.30    2.80
   0 -11   2    0.84    2.87
   0 -11  -2    2.50    3.04
   0 -11   2   -1.27    2.48
   0 -11   2    5.38    3.30
   0  11   2    3.38    3.44
   0  11  -2    4.56    3.91
   0  11   2    0.77    3.39
   0  11  -2   -4.90    2.98
  -1 -11  -2   13.12    3.57
   1 -11   2   17.25    4.09
   1 -11   2   12.58    3.66
  -1 -11  -2   11.30    3.20
  -1 -11  -2   11.76    3.55
   1  11   2   13.79    4.37
  -1  11  -2   15.12    3.76
  -1  11  -2   10.21    4.14
   2 -11   2    1.08    3.09
  -2 -11  -2   -0.67    2.81
  -2 -11  -2   -0.10    2.92
  -2 -11  -2    4.29    3.05
  -2  11  -2    4.36    3.97
   2  11   2   -0.20    3.49
  -3 -11  -2    7.80    3.33
  -3 -11  -2    2.26    3.04
   3 -11   2    3.55    3.35
  -3 -11  -2    0.40    2.88
  -3  11  -2   -1.50    3.78
   3  11   2    1.57    3.77
  -4 -11  -2    1.12    3.03
  -4 -11  -2   -0.22    2.81
   4 -11   2    2.87    3.32
  -4 -11  -2    0.00    3.17
   4  11   2    1.85    3.84
  -4  11  -2   -0.76    4.18
  -5 -11  -2    0.13    2.81
  -5 -11  -2    0.54    3.50
   5 -11   2    1.18    3.19
  -5 -11  -2    1.98    3.38
   5  11   2    0.08    4.19
  -5  11  -2    2.81    4.47
  -5 -12   2    4.01    3.36
   5 -12  -2    5.57    3.60
  -4 -12   2    4.82    3.81
  -4 -12   2    3.52    2.87
   4 -12  -2    6.98    3.44
  -4 -12   2    4.75    3.18
   4  12  -2    9.17    4.73
  -4  12   2    2.65    4.27
  -3 -12   2    6.87    3.18
   3 -12  -2    7.69    3.37
  -3 -12   2   -3.46    3.40
  -3 -12   2    0.75    3.02
   3  12  -2    4.82    4.28
  -3  12   2    3.58    4.23
  -2 -12   2    1.99    3.46
   2 -12  -2    4.93    3.53
  -2 -12   2    5.89    3.09
  -2  12   2    3.50    4.02
   2  12  -2    8.02    4.20
   2  12  -2    3.05    3.84
  -1 -12   2    1.99    3.11
   1 -12  -2    2.00    2.96
  -1 -12   2   -1.70    3.10
   1  12  -2   -3.96    3.50
  -1  12   2   -6.51    3.40
   1  12  -2   -7.34    2.99
  -1  12   2    0.49    3.34
   0 -12  -2    5.57    3.36
   0 -12   2    0.67    3.12
   0 -12   2    9.73    3.27
   0  12  -2    1.50    4.12
   0  12   2    2.27    3.54
   0  12  -2   -0.25    3.47
   0  12   2    0.30    3.50
  -1 -12  -2    4.60    3.13
   1 -12   2    3.89    3.52
  -1 -12  -2    3.75    3.35
   1 -12   2    4.22    3.38
   1  12   2    7.67    3.98
  -1  12  -2    1.58    4.11
   2 -12   2   15.07    4.27
  -2 -12  -2   12.81    3.66
  -2 -12  -2   17.40    4.64
  -2 -12  -2   10.67    3.80
   2  12   2   13.82    4.72
  -2  12  -2   21.22    5.32
  -3 -12  -2   16.57    4.01
  -3 -12  -2   15.25    4.07
  -3 -12  -2   12.09    3.95
   3 -12   2   18.99    4.57
  -3  12  -2   12.28    5.20
   3  12   2   13.75    4.79
  -1 -13   2    4.72    3.34
   1 -13  -2   -2.36    3.22
  -1 -13   2    3.72    3.91
  -1  13   2   -2.91    3.77
   1  13  -2    0.01    3.89
   1  13  -2    0.25    4.03
   0 -13   2   21.00    4.59
   0 -13  -2   26.72    6.21
   0 -13   2   27.99    5.25
   0  13   2   36.54    5.81
   0  13  -2   32.59    5.46
   0  13  -2   30.01    5.88
  12   0  -3   -1.34    3.72
  11   0  -3   10.65    3.72
  11   0  -3   11.10    4.09
 -11   0   3   11.00    2.10
 -11   0   3    7.31    3.55
 -10   0   3   -1.74    2.71
 -10   0   3   -2.00    1.38
  10   0  -3   -0.10    2.76
  10   0  -3    4.55    2.96
  -9   0   3   10.94    3.16
   9   0  -3    4.02    2.94
  -9   0   3    5.13    1.60
   8   0  -3    1.27    2.48
  -8   0   3    0.28    2.20
  -8   0   3    0.05    2.30
  -8   0   3   -0.07    1.28
  -7   0   3    1.82    1.77
  -7   0   3    2.00    2.05
   7   0  -3   -0.84    2.01
  -7   0   3    1.12    1.29
  -7   0   3    0.07    1.15
  -7   0   3    1.14    2.27
   6   0  -3    1.40    1.20
  -6   0   3   -1.38    1.58
  -6   0   3    0.74    1.54
  -6   0   3    0.43    1.07
  -6   0   3    1.03    1.80
   6   0  -3   -0.75    1.56
  -6   0   3   -0.71    0.90
  -5   0   3    5.36    1.79
  -5   0   3    4.95    1.35
  -5   0   3    5.61    1.90
  -5   0   3    6.71    1.07
   5   0  -3    5.96    1.67
  -5   0   3    3.40    1.63
  -5   0   3    5.48    0.97
   4   0  -3    1.16    1.38
  -4   0   3    0.36    1.69
  -4   0   3    0.24    0.85
  -4   0   3   -1.39    1.53
  -4   0   3   -0.59    0.77
  -4   0   3    1.75    1.40
  -4   0   3    0.89    1.50
  -3   0   3    1.73    0.73
  -3   0   3   -1.03    1.09
   3   0  -3   -0.19    1.22
  -3   0   3    1.66    1.10
  -3   0   3    0.85    1.42
  -3   0   3    1.84    0.69
  -3   0   3    0.97    1.51
  -2   0   3   -0.51    0.62
  -2   0   3   -1.35    1.07
  -2   0   3   -0.03    0.64
  -2   0   3   -0.35    1.00
   2   0  -3   -1.05    0.74
  -2   0   3   -0.30    1.10
  -2   0   3   -1.62    0.68
  -1   0   3 1623.77   54.45
   1   0  -3 1552.50   54.88
  -1   0   3 1616.01   54.61
   1   0  -3 1553.18   54.44
  -1   0   3 1628.14   54.93
  -1   0   3 1620.37   54.59
  -1   0   3 1666.16   54.88
   0   0  -3    0.14    0.89
   0   0  -3    0.02    0.59
   0   0   3   -0.62    0.95
   0   0   3   -1.88    0.90
   0   0   3    0.22    1.12
   0   0  -3   -0.83    1.00
   0   0   3    0.69    0.87
  -1   0  -3    2.58    1.05
   1   0   3    0.30    1.13
  -1   0  -3   -0.03    1.18
   1   0   3    2.18    1.24
  -1   0  -3    0.50    1.04
   1   0   3    1.19    1.23
  -1   0  -3    0.49    0.78
  -2   0  -3    0.31    1.44
   2   0   3   -1.24    1.54
   2   0   3   -1.23    1.61
   2   0   3   -0.74    1.54
  -2   0  -3   -2.24    1.06
  -2   0  -3    1.00    1.33
  -2   0  -3   -0.75    1.65
   3   0   3  862.24   29.71
  -3   0  -3  816.19   30.05
  -3   0  -3  854.40   29.22
   3   0   3  864.82   30.11
  -3   0  -3  841.90   29.79
  -3   0  -3  840.62   29.52
   3   0   3  834.54   29.90
  -4   0  -3    0.16    1.87
  -4   0  -3    0.64    1.18
  -4   0  -3   -1.13    1.31
  -4   0  -3    1.63    1.49
   4   0   3    1.79    1.44
   4   0   3    0.35    1.61
   4   0   3   -0.40    1.50
   5   0   3  217.55   10.11
  -5   0  -3  212.16   10.26
  -5   0  -3  216.50    9.41
  -5   0  -3  234.13    9.62
   5   0   3  228.35    9.24
  -6   0  -3    2.61    2.06
   6   0   3    1.21    1.84
   6   0   3    1.91    2.30
  -6   0  -3    0.44    2.45
  -6   0  -3    1.97    1.97
  -7   0  -3   37.80    5.19
  -7   0  -3   53.14    4.66
   7   0   3   39.40    5.48
  -7   0  -3   49.14    4.79
  -8   0  -3    1.24    2.30
  -8   0  -3   -1.64    2.72
   8   0   3    0.97    3.03
  -8   0  -3   -1.56    2.16
   9   0   3   19.06    4.54
  -9   0  -3   14.75    3.52
  -9   0  -3    7.95    3.79
  -9   0  -3   15.94    3.29
  10   0   3    2.27    3.69
 -10   0  -3    3.40    2.83
 -10   0  -3    2.67    2.95
 -10   0  -3    2.26    3.61
  12  -1  -3    2.02    3.64
 -12  -1   3    3.87    3.65
  12   1  -3   -1.23    3.44
 -11  -1   3    2.46    1.55
  11  -1  -3   11.28    3.88
  11  -1  -3    4.16    3.32
 -11  -1   3    0.45    3.06
 -11   1   3    4.26    2.04
  11   1  -3    2.09    3.45
 -11   1   3   -2.47    2.85
 -10  -1   3    0.84    2.68
 -10  -1   3    1.76    2.87
  10  -1  -3   -0.92    2.76
  10  -1  -3   -0.27    2.70
 -10  -1   3   -1.17    1.32
  10   1  -3    4.19    3.18
 -10   1   3    3.67    1.80
 -10   1   3   -0.90    2.78
   9  -1  -3   -2.63    2.58
  -9  -1   3    2.12    1.40
   9  -1  -3    4.18    2.83
  -9  -1   3   -2.89    2.47
  -9  -1   3    3.85    2.73
  -9   1   3    3.42    2.59
   9   1  -3    2.55    2.73
  -9   1   3    1.89    1.72
  -8  -1   3  304.25   12.49
   8  -1  -3  284.24   12.58
   8  -1  -3  275.97   12.38
  -8  -1   3  282.33   12.50
  -8  -1   3  280.49   10.60
  -8   1   3  274.80   11.82
   8   1  -3  290.60   12.71
  -8   1   3  287.05   11.08
  -8   1   3  286.62   12.73
   7  -1  -3    6.96    2.51
  -7  -1   3    3.59    1.15
  -7  -1   3    4.59    1.95
   7  -1  -3    6.24    2.38
  -7  -1   3    3.78    2.24
  -7  -1   3    7.39    1.33
  -7  -1   3    5.51    2.39
   7   1  -3    7.09    2.50
  -7   1   3    5.91    2.60
  -7   1   3    7.80    1.56
  -7   1   3    3.48    2.14
   7   1  -3    3.02    1.70
  -6  -1   3  160.87    5.82
  -6  -1   3  140.08    6.72
   6  -1  -3  152.33    7.10
  -6  -1   3  146.35    7.16
  -6  -1   3  160.23    7.49
  -6  -1   3  155.67    5.78
   6  -1  -3  147.46    7.30
   6  -1  -3  151.19    5.88
  -6   1   3  158.41    7.18
  -6   1   3  164.69    6.46
  -6   1   3  157.46    6.27
   6   1  -3  145.85    6.59
  -6   1   3  150.79    7.47
   6   1  -3  143.49    7.23
  -5  -1   3  263.58    9.24
  -5  -1   3  275.78   10.37
  -5  -1   3  258.32    9.24
   5  -1  -3  246.91   10.53
   5  -1  -3  255.08   10.33
  -5  -1   3  286.01   10.62
  -5  -1   3  265.77   10.58
  -5   1   3  257.49    9.75
   5   1  -3  263.74   10.53
  -5   1   3  261.33   10.74
  -5   1   3  267.28    9.60
  -5   1   3  268.49   10.59
  -5   1   3  278.29    9.89
  -4  -1   3   35.41    3.21
   4  -1  -3   39.26    3.21
  -4  -1   3   39.64    3.01
  -4  -1   3   36.98    3.26
  -4  -1   3   40.09    3.26
  -4  -1   3   36.34    3.27
   4  -1  -3   34.99    2.85
  -4   1   3   38.69    3.32
  -4   1   3   38.13    3.54
  -4   1   3   36.66    2.41
  -4   1   3   36.32    2.46
  -4   1   3   41.85    2.47
   3  -1  -3  443.21   16.53
  -3  -1   3  476.41   16.64
  -3  -1   3  454.66   16.63
  -3  -1   3  465.77   16.42
  -3  -1   3  469.76   16.48
  -3  -1   3  462.79   16.54
   3  -1  -3  435.34   16.10
  -3   1   3  471.72   16.15
  -3   1   3  450.54   16.72
  -3   1   3  475.46   16.84
  -3   1   3  468.96   16.23
  -3   1   3  457.52   16.13
   2  -1  -3   13.81    1.81
   2  -1  -3   17.17    1.04
  -2  -1   3   15.48    1.58
  -2  -1   3   14.37    2.13
  -2  -1   3   17.14    1.07
  -2  -1   3   12.39    1.75
  -2  -1   3   16.55    1.18
  -2  -1   3   16.85    2.04
  -2   1   3   17.66    2.20
  -2   1   3   14.28    1.60
  -2   1   3   16.43    1.62
  -2   1   3   18.40    1.78
  -2   1   3   18.43    2.22
   1  -1  -3   59.56    3.07
   1  -1  -3   51.67    2.61
  -1  -1   3   54.01    3.01
  -1  -1   3   52.36    2.88
  -1  -1   3   53.84    2.46
  -1  -1   3   59.82    2.80
   1  -1  -3   52.94    2.71
  -1  -1   3   51.90    2.50
  -1   1   3   53.85    2.95
  -1   1   3   49.26    2.72
  -1   1   3   53.40    2.95
   1   1  -3   52.85    2.12
   1   1  -3   49.95    2.68
  -1   1   3   50.56    2.68
   0  -1  -3    1.37    0.84
   0  -1  -3    0.14    0.90
   0  -1  -3   -1.09    1.00
   0  -1   3    0.80    0.92
   0  -1   3    2.15    1.08
   0  -1   3    0.68    1.13
   0  -1   3    1.34    1.06
   0   1  -3   -0.75    0.99
   0   1   3    1.02    0.94
   0   1  -3   -0.57    0.87
   0   1   3   -0.99    1.14
   0   1   3    1.62    0.78
   0   1  -3    2.62    1.11
   0   1   3    0.57    1.01
   1  -1   3  457.47   15.97
  -1  -1  -3  450.38   16.02
   1  -1   3  406.16   15.90
   1  -1   3  463.37   15.89
  -1  -1  -3  430.46   15.63
  -1  -1  -3  453.89   15.95
   1   1   3  434.98   15.56
  -1   1  -3  437.43   15.87
  -1   1  -3  416.60   15.91
  -1   1  -3  459.64   15.89
   1   1   3  440.96   15.96
  -1   1  -3  443.50   15.30
   1   1   3  442.59   16.07
   1   1   3  462.21   15.82
  -2  -1  -3    0.30    1.05
   2  -1   3   -2.74    1.58
  -2  -1  -3   -0.15    1.71
   2  -1   3    0.14    1.65
  -2  -1  -3    0.55    1.53
   2  -1   3    0.37    1.48
  -2  -1  -3    2.19    1.37
  -2   1  -3    0.12    1.35
   2   1   3    0.71    1.68
   2   1   3    3.41    1.78
  -2   1  -3    0.32    1.48
  -2   1  -3   -0.74    1.67
  -2   1  -3    0.46    1.12
   2   1   3   -0.89    1.76
  -3  -1  -3  347.32   12.50
   3  -1   3  351.40   13.15
  -3  -1  -3  351.17   13.44
   3  -1   3  363.27   13.81
   3  -1   3  343.04   13.59
  -3  -1  -3  355.39   13.63
  -3  -1  -3  360.24   13.23
  -3   1  -3  358.03   13.78
   3   1   3  348.16   13.56
  -3   1  -3  354.20   13.17
  -3   1  -3  384.59   13.57
   3   1   3  359.23   13.70
   3   1   3  354.87   13.46
  -3   1  -3  343.84   13.02
  -4  -1  -3   26.39    1.90
   4  -1   3   28.97    3.22
  -4  -1  -3   31.56    3.07
  -4  -1  -3   38.07    3.71
   4  -1   3   32.07    2.67
  -4  -1  -3   26.83    3.04
   4  -1   3   27.45    3.70
  -4   1  -3   32.45    2.93
  -4   1  -3   30.38    2.86
   4   1   3   29.73    3.63
   4   1   3   36.77    3.28
  -4   1  -3   31.44    3.09
  -4   1  -3   30.92    3.68
   4   1   3   32.68    3.28
  -5  -1  -3  142.21    6.99
   5  -1   3  140.26    7.83
   5  -1   3  153.41    6.63
  -5  -1  -3  161.89    7.20
  -5  -1  -3  149.72    7.90
  -5   1  -3  145.34    7.74
  -5   1  -3  145.56    7.15
  -5   1  -3  144.58    6.96
  -5   1  -3  146.05    6.58
   5   1   3  149.76    7.10
   5   1   3  141.61    7.71
  -6  -1  -3   84.81    5.44
  -6  -1  -3   83.81    5.42
   6  -1   3   80.30    6.35
  -6  -1  -3   89.40    6.17
  -6   1  -3   76.77    6.11
  -6   1  -3   84.74    5.60
  -6   1  -3   81.22    5.30
   6   1   3   81.19    5.35
   6   1   3   85.64    6.26
  -7  -1  -3   60.04    5.20
   7  -1   3   56.05    6.08
  -7  -1  -3   54.28    5.63
  -7  -1  -3   61.80    5.12
  -7   1  -3   54.90    4.84
   7   1   3   62.65    6.08
  -7   1  -3   65.94    5.30
  -7   1  -3   66.88    5.88
  -8  -1  -3   12.49    3.11
  -8  -1  -3   13.28    3.06
  -8  -1  -3   18.30    3.93
   8  -1   3   13.86    3.84
   8   1   3   14.75    3.75
  -8   1  -3   17.96    3.91
  -8   1  -3   20.70    3.34
  -8   1  -3   19.08    3.48
  -9  -1  -3   34.85    5.15
  -9  -1  -3   31.17    4.77
  -9  -1  -3   37.85    4.97
   9  -1   3   31.26    4.98
  -9   1  -3   40.80    5.08
  -9   1  -3   44.93    6.40
   9   1   3   47.90    6.66
  -9   1  -3   35.04    4.88
 -10  -1  -3    3.47    3.60
 -10  -1  -3   -2.46    2.54
  10  -1   3    6.06    3.38
  10  -1   3   -0.64    3.67
 -10  -1  -3    1.09    2.89
  10   1   3   -5.20    3.58
 -10   1  -3   -1.22    2.76
 -10   1  -3   -2.64    3.23
 -11  -2   3   -1.47    2.82
 -11  -2   3    0.70    1.31
 -11  -2   3   -1.20    2.94
  11  -2  -3    2.51    3.14
  11  -2  -3   -2.78    2.98
 -11   2   3   -1.38    1.86
  11   2  -3    3.38    3.57
 -11   2   3    2.93    3.15
  10  -2  -3   32.12    4.74
 -10  -2   3   40.25    2.76
  10  -2  -3   36.15    5.35
 -10  -2   3   26.34    4.31
 -10  -2   3   37.19    5.05
 -10   2   3   34.21    3.76
  10   2  -3   32.21    5.02
 -10   2   3   35.84    5.44
   9  -2  -3    2.40    2.55
  -9  -2   3    0.77    1.18
   9  -2  -3    1.41    2.64
  -9  -2   3   -0.74    2.27
  -9  -2   3    2.46    2.67
   9   2  -3   -0.04    2.78
  -9   2   3   -5.77    2.23
  -9   2   3    0.68    1.72
  -8  -2   3   63.58    3.36
  -8  -2   3   63.52    3.16
  -8  -2   3   57.06    5.04
  -8  -2   3   65.37    5.47
   8  -2  -3   64.89    5.41
   8  -2  -3   65.04    5.50
  -8   2   3   62.83    5.13
  -8   2   3   52.74    5.37
   8   2  -3   69.54    5.81
  -8   2   3   57.37    4.09
  -7  -2   3   35.48    3.30
  -7  -2   3   34.11    2.07
   7  -2  -3   26.86    4.04
  -7  -2   3   34.35    2.20
  -7  -2   3   34.80    3.99
   7  -2  -3   34.37    4.12
  -7  -2   3   31.84    4.09
   7   2  -3   33.33    4.42
  -7   2   3   34.75    3.13
   7   2  -3   37.89    3.64
  -7   2   3   29.33    4.23
  -7   2   3   27.80    3.82
  -6  -2   3   22.41    3.38
   6  -2  -3   20.10    3.11
  -6  -2   3   20.80    1.50
   6  -2  -3   27.40    3.30
  -6  -2   3   23.60    1.45
  -6  -2   3   22.92    3.16
  -6  -2   3   19.74    2.72
  -6   2   3   22.02    3.53
  -6   2   3   25.88    3.64
  -6   2   3   23.15    2.52
   6   2  -3   21.99    3.04
   6   2  -3   21.71    3.33
   5  -2  -3   26.54    3.06
  -5  -2   3   29.00    3.25
   5  -2  -3   25.75    2.73
  -5  -2   3   27.37    2.82
  -5  -2   3   21.93    2.78
  -5  -2   3   27.84    2.62
  -5   2   3   37.23    3.42
  -5   2   3   26.34    3.22
  -5   2   3   28.99    2.51
  -5   2   3   26.21    2.38
  -5   2   3   26.15    1.62
   5   2  -3   26.06    2.80
  -4  -2   3  254.12    9.69
  -4  -2   3  249.64    9.86
   4  -2  -3  246.65    9.43
  -4  -2   3  254.96    9.73
  -4  -2   3  233.36    9.89
   4  -2  -3  237.86    9.88
  -4  -2   3  257.26    9.73
  -4   2   3  257.10    8.99
  -4   2   3  248.20   10.07
  -4   2   3  256.83    9.47
  -4   2   3  239.58   10.04
  -4   2   3  242.79    9.40
   3  -2  -3   49.43    3.50
   3  -2  -3   46.40    2.67
  -3  -2   3   55.51    3.59
  -3  -2   3   55.03    3.73
  -3  -2   3   51.85    3.26
  -3  -2   3   51.20    3.43
  -3  -2   3   47.51    3.26
  -3   2   3   55.91    3.94
  -3   2   3   51.06    2.91
  -3   2   3   54.21    3.17
  -3   2   3   53.51    3.75
  -3   2   3   52.94    3.19
  -2  -2   3 1938.02   64.07
   2  -2  -3 1802.58   64.30
   2  -2  -3 1890.32   64.45
  -2  -2   3 1964.28   64.52
  -2  -2   3 1931.23   64.60
   2  -2  -3 1845.74   63.71
  -2  -2   3 1926.22   63.85
  -2  -2   3 1946.21   63.86
  -2   2   3 1863.47   64.32
   2   2  -3 1860.55   64.24
  -2   2   3 1837.51   64.64
  -2   2   3 1832.99   64.53
  -2   2   3 1859.81   64.34
  -2   2   3 1935.10   64.30
  -1  -2   3  486.37   16.29
   1  -2  -3  492.51   16.93
  -1  -2   3  467.22   16.61
   1  -2  -3  469.81   16.87
   1  -2  -3  478.72   17.01
  -1  -2   3  479.73   17.09
  -1  -2   3  482.16   16.97
  -1  -2   3  487.87   16.62
  -1   2   3  461.01   16.92
   1   2  -3  466.57   16.70
  -1   2   3  455.98   16.99
  -1   2   3  483.88   17.00
   1   2  -3  460.76   17.09
   0  -2   3 1920.18   73.31
   0  -2  -3 2045.56   73.45
   0  -2   3 2198.88   73.56
   0  -2   3 2222.24   73.38
   0  -2  -3 2235.75   73.49
   0  -2   3 2275.84   73.59
   0  -2  -3 2123.83   73.33
   0   2   3 2254.37   73.64
   0   2  -3 2193.60   73.64
   0   2  -3 2134.40   73.33
   0   2   3 2193.28   73.04
   0   2  -3 2103.18   73.36
   0   2   3 2085.00   73.34
   0   2   3 2236.45   73.54
  -1  -2  -3   17.66    2.33
   1  -2   3   17.89    1.46
   1  -2   3   15.71    2.32
   1  -2   3   23.57    2.56
   1  -2   3   15.60    2.09
  -1  -2  -3   18.23    2.62
  -1  -2  -3   16.98    2.46
  -1   2  -3   17.36    2.36
  -1   2  -3   17.53    2.35
   1   2   3   17.74    2.38
   1   2   3   14.21    2.20
   1   2   3   16.87    1.89
  -1   2  -3   16.41    2.65
   1   2   3   17.30    2.59
  -2  -2  -3   36.53    3.50
   2  -2   3   41.79    2.53
   2  -2   3   42.39    3.03
   2  -2   3   48.87    3.67
   2  -2   3   36.69    3.48
  -2  -2  -3   36.85    3.03
  -2  -2  -3   37.35    3.31
   2   2   3   34.40    3.36
   2   2   3   39.49    3.68
   2   2   3   41.54    2.30
  -2   2  -3   36.86    3.63
  -2   2  -3   42.29    3.47
  -2   2  -3   43.38    3.29
   2   2   3   42.31    3.31
   3  -2   3  242.26   10.19
  -3  -2  -3  248.88    9.86
   3  -2   3  253.36   10.14
   3  -2   3  248.59    9.49
  -3  -2  -3  252.26    9.79
  -3  -2  -3  249.99    9.96
   3   2   3  245.15   10.02
   3   2   3  231.44    9.90
   3   2   3  232.48   10.00
  -3   2  -3  244.78    9.87
  -3   2  -3  245.73   10.20
  -3   2  -3  251.93    9.95
  -4  -2  -3  292.52   12.07
   4  -2   3  296.91   11.19
   4  -2   3  299.02   12.18
  -4  -2  -3  300.82   11.70
   4  -2   3  319.50   12.13
  -4  -2  -3  274.49   11.61
  -4   2  -3  290.48   11.39
   4   2   3  279.25   11.77
   4   2   3  309.07   12.17
  -4   2  -3  296.50   11.88
  -4   2  -3  300.69   11.69
  -4   2  -3  294.28   12.26
   4   2   3  286.59   11.87
  -5  -2  -3  175.33    8.10
  -5  -2  -3  158.95    8.55
   5  -2   3  180.99    8.68
  -5  -2  -3  162.75    7.98
   5  -2   3  176.18    7.34
  -5   2  -3  170.53    7.92
   5   2   3  173.98    8.69
   5   2   3  176.84    8.19
  -5   2  -3  176.80    8.21
  -5   2  -3  179.85    7.87
  -5   2  -3  184.92    8.77
  -6  -2  -3   66.04    5.00
   6  -2   3   81.77    6.06
  -6  -2  -3   73.37    5.92
  -6  -2  -3   72.90    5.32
  -6   2  -3   92.01    5.54
   6   2   3   65.00    5.89
  -6   2  -3   70.83    5.02
   6   2   3   74.91    5.30
  -6   2  -3   74.77    5.89
   7  -2   3   90.75    6.79
  -7  -2  -3   92.55    6.40
  -7  -2  -3  110.90    6.34
  -7  -2  -3  101.40    6.90
   7   2   3  101.69    7.34
   7   2   3  101.62    6.40
  -7   2  -3   91.48    6.95
  -7   2  -3  103.72    6.44
  -8  -2  -3   55.94    5.14
   8  -2   3   38.81    5.97
   8  -2   3   64.91    5.61
  -8  -2  -3   54.59    5.48
  -8  -2  -3   50.42    5.91
  -8   2  -3   57.43    6.16
   8   2   3   63.58    6.43
  -8   2  -3   67.97    5.49
  -9  -2  -3   17.48    3.31
  -9  -2  -3   11.79    3.88
   9  -2   3   12.31    3.44
   9  -2   3   10.48    4.08
  -9  -2  -3   16.04    3.55
   9   2   3    8.10    3.86
  -9   2  -3   10.30    3.67
  -9   2  -3   16.15    3.54
  10  -2   3   66.36    7.99
 -10  -2  -3   67.25    7.64
 -10  -2  -3   76.37    6.42
 -10  -2  -3   73.47    6.80
  10  -2   3   76.18    6.94
 -10   2  -3   70.97    6.74
 -10   2  -3   74.08    7.98
  10   2   3   78.46    8.34
  11  -3  -3    1.89    3.46
 -11  -3   3   -5.12    2.60
  11  -3  -3   -2.20    3.09
 -11  -3   3    4.42    3.32
 -11   3   3   -0.42    2.98
  11   3  -3    0.08    3.49
 -11   3   3    3.84    2.26
 -10  -3   3   16.30    1.97
  10  -3  -3   17.29    3.91
 -10  -3   3   18.59    3.76
  10  -3  -3   16.28    3.77
 -10  -3   3   14.58    3.44
 -10   3   3   18.89    2.87
 -10   3   3    9.90    3.49
  10   3  -3   17.56    4.10
  -9  -3   3   16.07    3.29
   9  -3  -3    8.11    2.98
   9  -3  -3    8.37    3.05
  -9  -3   3    7.90    2.88
  -9  -3   3   12.75    1.76
   9   3  -3   10.80    3.41
  -9   3   3   11.61    2.40
  -9   3   3   12.41    3.58
  -9   3   3    5.35    2.88
  -8  -3   3   63.45    5.03
   8  -3  -3   62.34    5.34
   8  -3  -3   55.90    5.42
  -8  -3   3   65.11    5.27
  -8  -3   3   59.48    3.06
  -8  -3   3   63.15    3.04
  -8   3   3   58.86    5.79
   8   3  -3   62.67    5.13
   8   3  -3   72.20    5.86
  -8   3   3   66.76    4.50
  -8   3   3   56.70    5.21
  -7  -3   3  123.39    6.64
   7  -3  -3  124.15    6.64
   7  -3  -3  120.76    6.87
  -7  -3   3  120.71    4.61
  -7  -3   3  113.85    4.62
  -7  -3   3  119.51    6.47
   7   3  -3  115.92    7.01
  -7   3   3  106.15    6.80
  -7   3   3  125.80    6.86
  -7   3   3  112.34    5.88
   7   3  -3  113.07    6.39
  -6  -3   3  236.91    8.38
  -6  -3   3  237.17    8.40
  -6  -3   3  226.29   10.42
   6  -3  -3  230.41   10.25
   6  -3  -3  237.83    9.94
  -6  -3   3  240.46    9.88
  -6  -3   3  249.01   10.17
   6   3  -3  235.12   10.09
  -6   3   3  251.41   10.47
  -6   3   3  235.23   10.40
  -6   3   3  226.96    9.53
   5  -3  -3   15.24    2.34
  -5  -3   3   20.57    2.70
  -5  -3   3   18.27    1.13
   5  -3  -3   14.82    2.38
  -5  -3   3   18.43    2.66
  -5  -3   3   18.28    2.67
   5   3  -3   14.89    2.35
  -5   3   3   15.05    2.53
  -5   3   3   15.67    2.55
  -5   3   3   16.59    2.43
  -4  -3   3   81.06    4.11
  -4  -3   3   79.69    4.18
  -4  -3   3   79.86    4.67
  -4  -3   3   78.71    3.03
   4  -3  -3   69.78    4.08
   4  -3  -3   72.89    3.88
  -4  -3   3   80.99    3.03
  -4  -3   3   82.71    4.66
   4  -3  -3   73.98    4.44
  -4   3   3   71.15    4.48
  -4   3   3   77.03    3.44
  -4   3   3   83.07    4.87
   4   3  -3   83.38    4.26
  -4   3   3   80.83    4.16
  -4   3   3   81.39    4.19
   3  -3  -3    5.16    1.55
  -3  -3   3    1.25    0.87
  -3  -3   3    2.84    1.39
  -3  -3   3    0.96    1.21
  -3  -3   3    0.63    1.81
  -3  -3   3    0.83    0.78
   3  -3  -3    0.10    1.04
   3  -3  -3    0.84    1.64
  -3  -3   3    1.32    1.70
  -3   3   3   -0.75    1.85
  -3   3   3    0.85    1.62
  -3   3   3    2.07    1.51
   3   3  -3    1.25    1.55
  -3   3   3    3.12    1.57
  -3   3   3    2.83    1.31
   2  -3  -3   -1.10    0.87
   2  -3  -3    0.91    1.55
  -2  -3   3    0.15    1.05
  -2  -3   3    1.03    1.17
  -2  -3   3    0.80    0.94
   2  -3  -3    0.01    1.53
  -2  -3   3    0.38    1.62
  -2  -3   3    0.59    1.69
  -2   3   3    0.64    1.47
  -2   3   3    0.92    1.51
   2   3  -3   -1.22    1.58
  -2   3   3    0.98    1.50
   2   3  -3   -0.04    1.02
  -2   3   3    1.57    1.83
  -1  -3   3    0.56    1.06
  -1  -3   3    0.88    1.74
  -1  -3   3   -2.03    1.62
   1  -3  -3    1.48    1.44
  -1  -3   3    0.70    1.22
  -1  -3   3    0.01    0.85
   1  -3  -3    0.33    0.88
   1  -3  -3    1.63    1.52
  -1   3   3    0.01    1.63
   1   3  -3   -1.72    1.74
  -1   3   3    0.40    1.54
   1   3  -3    1.25    0.97
  -1   3   3   -0.59    1.54
   0  -3  -3    0.27    1.48
   0  -3   3   -1.04    1.59
   0  -3   3    1.47    1.86
   0  -3  -3    0.83    1.44
   0  -3   3    0.33    0.83
   0  -3   3    1.61    1.26
   0  -3  -3   -0.62    1.14
   0  -3   3    0.05    1.40
   0  -3  -3    2.31    1.53
   0   3  -3   -0.80    1.10
   0   3  -3    0.15    1.27
   0   3  -3   -2.02    1.58
   0   3   3    0.03    1.87
   0   3   3   -0.67    1.49
   0   3   3   -1.37    1.43
  -1  -3  -3  312.53   11.69
  -1  -3  -3  304.27   11.58
  -1  -3  -3  299.18   11.50
   1  -3   3  308.10   11.58
   1  -3   3  279.47   11.80
   1  -3   3  329.77   11.75
   1  -3   3  305.01   10.82
   1   3   3  306.29   11.76
   1   3   3  308.50   11.99
   1   3   3  308.90   11.39
  -1   3  -3  299.49   11.42
  -1   3  -3  309.32   11.97
  -1   3  -3  302.55   11.62
   1   3   3  300.46   11.19
   2  -3   3  283.54   10.00
  -2  -3  -3  278.59   10.62
   2  -3   3  279.96   10.80
  -2  -3  -3  260.16   10.60
  -2  -3  -3  281.45   10.61
   2  -3   3  265.04   10.32
   2  -3   3  257.77   10.77
  -2   3  -3  270.08   10.72
   2   3   3  264.62    9.78
   2   3   3  270.48   10.71
   2   3   3  268.04   10.98
  -2   3  -3  274.40   10.89
  -2   3  -3  260.58   10.65
   2   3   3  284.65   10.64
  -3  -3  -3  273.49   11.59
   3  -3   3  319.56   12.06
   3  -3   3  303.59   11.20
  -3  -3  -3  297.14   11.76
   3  -3   3  302.00   11.29
  -3  -3  -3  293.95   11.67
   3  -3   3  323.79   12.00
   3   3   3  300.88   11.90
  -3   3  -3  294.85   12.03
  -3   3  -3  291.38   11.81
  -3   3  -3  304.05   11.94
   3   3   3  286.01   11.96
   3   3   3  295.03   11.84
   4  -3   3  198.61    9.17
  -4  -3  -3  218.77    9.18
   4  -3   3  205.88    9.51
  -4  -3  -3  221.27    9.35
   4  -3   3  210.65    8.40
   4  -3   3  211.59    8.62
  -4  -3  -3  204.49    8.98
  -4   3  -3  206.01    9.41
  -4   3  -3  209.53    9.29
   4   3   3  213.56    9.36
   4   3   3  215.54    9.47
  -4   3  -3  207.68    9.18
  -5  -3  -3  215.36   10.25
  -5  -3  -3  240.55   10.20
   5  -3   3  243.17   10.03
   5  -3   3  264.96   11.14
  -5  -3  -3  240.02   10.67
   5   3   3  228.84   10.79
  -5   3  -3  235.25   10.94
   5   3   3  245.12   10.64
  -5   3  -3  250.45   10.52
  -5   3  -3  233.42   10.36
   6  -3   3   14.37    3.36
  -6  -3  -3   14.88    3.12
  -6  -3  -3   16.59    2.90
  -6  -3  -3   18.59    3.22
   6  -3   3   14.76    2.70
  -6   3  -3   14.01    2.83
  -6   3  -3   15.01    2.84
   6   3   3   16.67    3.45
  -6   3  -3    9.43    2.90
   6   3   3   17.15    3.16
  -7  -3  -3   50.46    4.63
  -7  -3  -3   50.37    5.55
  -7  -3  -3   46.03    5.14
   7  -3   3   52.13    5.86
   7  -3   3   57.07    4.93
   7   3   3   49.99    5.06
  -7   3  -3   53.13    5.23
  -7   3  -3   51.78    5.89
   7   3   3   49.13    5.77
   8  -3   3    0.57    3.14
  -8  -3  -3    3.56    2.99
  -8  -3  -3    1.88    2.61
   8  -3   3   -1.58    2.36
  -8  -3  -3    4.35    2.43
   8   3   3   -0.68    3.02
  -8   3  -3   -0.14    2.93
  -8   3  -3    2.09    2.72
  -9  -3  -3    1.46    2.79
   9  -3   3    1.51    3.52
  -9  -3  -3    3.41    3.36
  -9  -3  -3   -2.52    2.13
   9  -3   3   -1.07    2.86
  -9   3  -3    4.85    3.35
   9   3   3   -1.96    3.39
  -9   3  -3    6.58    3.06
 -10  -3  -3   22.68    4.47
 -10  -3  -3   32.44    5.26
  10  -3   3   32.02    5.19
 -10  -3  -3   30.96    6.19
 -10   3  -3   21.71    4.18
  11  -4  -3    6.20    3.79
 -11  -4   3    3.73    3.39
 -11   4   3   -0.41    3.04
  11   4  -3   -1.37    3.59
 -11   4   3    3.20    2.61
  10  -4  -3   -1.69    2.97
 -10  -4   3    4.07    2.85
  10  -4  -3    6.54    4.52
 -10   4   3    3.05    3.01
  10   4  -3    9.24    3.80
 -10   4   3    0.73    2.12
  -9  -4   3    4.99    2.65
  -9  -4   3    3.74    2.64
   9  -4  -3    5.12    2.75
   9  -4  -3    2.29    2.78
  -9  -4   3    3.80    1.05
  -9   4   3    0.24    2.57
   9   4  -3    3.00    3.11
  -9   4   3    1.34    2.89
  -9   4   3    3.77    2.21
  -8  -4   3   -1.09    2.12
   8  -4  -3   -0.50    2.26
  -8  -4   3    1.15    1.20
  -8  -4   3   -0.10    2.25
   8  -4  -3    1.63    2.73
  -8  -4   3    0.35    0.92
   8   4  -3   -0.27    2.59
  -8   4   3    0.31    1.93
   8   4  -3   -2.41    2.22
  -8   4   3    0.91    2.72
  -8   4   3    1.30    2.52
  -7  -4   3    2.01    0.91
  -7  -4   3    0.52    2.14
  -7  -4   3    2.74    1.01
   7  -4  -3    0.62    2.00
  -7  -4   3    1.21    1.98
   7  -4  -3   -3.83    2.25
  -7   4   3    1.04    2.67
  -7   4   3   -0.23    2.39
   7   4  -3    1.26    2.28
  -7   4   3   -1.97    1.66
  -6  -4   3   38.82    2.15
  -6  -4   3   45.40    4.66
   6  -4  -3   40.58    4.23
   6  -4  -3   40.92    3.70
  -6  -4   3   31.00    3.62
  -6  -4   3   37.53    2.13
  -6  -4   3   40.39    3.65
   6   4  -3   36.18    3.25
  -6   4   3   28.79    3.77
  -6   4   3   41.39    3.74
   6   4  -3   37.49    4.21
  -6   4   3   37.89    4.27
  -5  -4   3    1.17    2.11
   5  -4  -3   -0.74    1.84
  -5  -4   3    0.01    1.61
  -5  -4   3   -0.73    0.79
  -5  -4   3   -1.44    1.36
  -5  -4   3    0.45    0.80
   5  -4  -3    0.05    1.43
  -5   4   3    0.03    1.76
   5   4  -3    1.91    1.53
  -5   4   3    2.19    1.59
   5   4  -3   -2.32    1.84
  -5   4   3   -0.79    1.93
   4  -4  -3   95.51    4.65
  -4  -4   3   86.34    4.76
  -4  -4   3   95.53    3.98
  -4  -4   3  100.87    4.03
  -4  -4   3  109.19    4.57
   4  -4  -3  100.43    5.31
  -4  -4   3  104.49    5.57
  -4   4   3   86.79    5.26
   4   4  -3   95.82    4.94
   4   4  -3   94.38    5.47
  -4   4   3  102.16    5.05
  -4   4   3   97.57    4.24
  -4   4   3   95.27    5.45
  -3  -4   3   54.22    4.06
   3  -4  -3   58.63    3.11
  -3  -4   3   54.91    3.37
   3  -4  -3   56.02    3.72
  -3  -4   3   58.25    2.92
  -3  -4   3   61.37    2.87
  -3  -4   3   57.61    4.16
   3  -4  -3   59.53    3.86
   3   4  -3   48.91    3.79
  -3   4   3   62.60    3.84
  -3   4   3   51.83    3.61
  -3   4   3   55.98    4.28
  -3   4   3   55.02    3.28
   3   4  -3   57.75    2.90
   2  -4  -3  114.73    4.80
   2  -4  -3  114.78    5.62
  -2  -4   3  115.81    4.93
  -2  -4   3  117.74    5.02
   2  -4  -3  114.43    5.57
  -2  -4   3  114.59    5.84
  -2  -4   3  113.04    4.93
  -2  -4   3  129.06    5.79
  -2   4   3  123.17    5.48
   2   4  -3  113.29    4.55
  -2   4   3  116.44    5.69
  -2   4   3  118.61    5.47
  -2   4   3  115.50    5.78
   2   4  -3  105.93    5.82
   1  -4  -3   38.53    3.25
  -1  -4   3   40.38    3.57
   1  -4  -3   39.00    2.97
   1  -4  -3   36.73    2.49
  -1  -4   3   37.60    2.43
  -1  -4   3   37.57    2.71
  -1  -4   3   39.90    3.28
  -1  -4   3   39.58    2.87
   1  -4  -3   37.00    3.30
  -1   4   3   37.19    3.41
   1   4  -3   39.19    3.71
  -1   4   3   44.62    3.53
  -1   4   3   44.32    3.42
   1   4  -3   36.56    2.22
   0  -4  -3  132.07    5.71
   0  -4   3  131.03    6.39
   0  -4   3  144.63    5.44
   0  -4   3  146.06    6.55
   0  -4   3  141.17    6.12
   0  -4  -3  133.48    6.31
   0  -4  -3  142.12    6.27
   0  -4  -3  130.87    5.88
   0   4  -3  139.01    5.59
   0   4  -3  139.02    6.10
   0   4  -3  137.34    6.71
   0   4   3  137.85    6.58
   0   4   3  133.17    6.09
  -1  -4  -3   83.61    4.25
  -1  -4  -3   65.73    4.45
   1  -4   3   87.59    4.67
  -1  -4  -3   89.99    4.37
  -1  -4  -3   81.98    4.53
   1  -4   3   83.81    4.42
   1  -4   3   81.10    3.68
   1  -4   3   85.21    4.63
  -1   4  -3   80.39    4.15
   1   4   3   77.30    4.60
  -1   4  -3   70.41    4.30
   1   4   3   89.30    5.06
  -1   4  -3   81.84    5.06
   1   4   3   84.82    4.10
  -2  -4  -3  340.76   12.87
  -2  -4  -3  344.76   13.19
   2  -4   3  330.65   13.34
   2  -4   3  355.42   12.89
   2  -4   3  345.42   12.45
   2  -4   3  351.14   13.30
  -2  -4  -3  315.44   13.12
   2   4   3  328.60   13.49
   2   4   3  363.49   13.31
   2   4   3  335.26   12.38
  -2   4  -3  352.62   13.15
  -2   4  -3  342.43   13.58
  -2   4  -3  342.77   13.27
   3  -4   3  436.81   16.07
  -3  -4  -3  461.68   16.59
   3  -4   3  464.61   16.87
   3  -4   3  441.23   16.00
  -3  -4  -3  447.24   16.45
   3  -4   3  431.83   16.96
  -3  -4  -3  440.33   16.65
   3   4   3  434.42   17.00
  -3   4  -3  432.35   16.72
  -3   4  -3  441.30   17.11
  -3   4  -3  432.70   16.79
   3   4   3  460.80   16.78
   3   4   3  400.16   16.54
   3   4   3  431.83   15.27
  -4  -4  -3    1.16    1.96
  -4  -4  -3    3.36    2.04
  -4  -4  -3    4.89    2.17
   4  -4   3    5.04    2.50
   4  -4   3    4.39    2.03
   4  -4   3    4.52    1.59
   4  -4   3    5.42    1.77
   4   4   3    7.03    2.30
  -4   4  -3    5.43    2.67
  -4   4  -3    4.36    2.22
  -4   4  -3    2.72    2.19
   4   4   3    8.17    2.71
   5  -4   3   51.28    5.09
  -5  -4  -3   60.71    4.95
   5  -4   3   55.01    4.17
  -5  -4  -3   47.51    4.55
  -5  -4  -3   61.39    4.52
  -5   4  -3   45.86    4.71
  -5   4  -3   51.53    4.88
   5   4   3   52.14    5.33
  -5   4  -3   54.57    4.96
   5   4   3   56.41    5.17
  -6  -4  -3    8.23    2.88
  -6  -4  -3    7.86    2.76
  -6  -4  -3   12.00    2.67
   6  -4   3   11.13    2.38
   6  -4   3   14.53    3.50
  -6   4  -3    6.38    2.98
  -6   4  -3    9.66    2.86
   6   4   3    7.12    3.21
   6   4   3    8.71    3.07
  -6   4  -3   12.63    3.10
   7  -4   3   12.89    2.81
  -7  -4  -3    7.58    2.93
  -7  -4  -3    3.22    2.76
   7  -4   3    5.61    3.12
  -7  -4  -3    6.70    2.65
   7   4   3   19.23    3.83
  -7   4  -3   14.06    3.48
   7   4   3   14.03    3.42
  -7   4  -3   13.72    3.24
   8  -4   3    0.99    3.06
  -8  -4  -3    6.07    3.17
   8  -4   3    0.75    2.58
  -8  -4  -3    0.25    2.72
  -8  -4  -3    0.52    2.19
   8   4   3   -1.08    3.11
  -8   4  -3   -1.51    2.87
  -8   4  -3    6.00    2.94
   9  -4   3   -2.57    3.22
   9  -4   3    0.81    3.48
  -9  -4  -3    6.74    3.33
  -9  -4  -3    0.26    2.42
  -9  -4  -3    5.04    3.45
  -9   4  -3    1.08    2.92
  -9   4  -3   -1.04    3.18
   9   4   3    5.89    3.76
  11   5  -3    7.58    4.60
 -10  -5   3    1.21    2.78
  10  -5  -3    1.48    3.01
 -10   5   3    0.06    2.38
 -10   5   3   -1.59    3.10
  10   5  -3    3.28    3.67
  -9  -5   3   28.09    2.04
  -9  -5   3   25.38    3.96
   9  -5  -3   30.70    4.76
  -9   5   3   28.75    3.76
  -9   5   3   24.99    4.24
   9   5  -3   27.76    4.64
  -9   5   3   33.08    4.66
   8  -5  -3   37.36    4.97
   8  -5  -3   28.99    4.38
  -8  -5   3   29.97    4.48
  -8  -5   3   32.49    2.22
  -8   5   3   30.36    4.23
   8   5  -3   28.37    4.29
  -8   5   3   39.61    5.25
   8   5  -3   27.05    4.18
  -8   5   3   25.94    3.53
   7  -5  -3   59.18    4.91
  -7  -5   3   56.65    2.95
  -7  -5   3   47.67    5.69
  -7  -5   3   59.95    3.98
  -7  -5   3   57.70    4.91
   7  -5  -3   54.09    5.22
  -7   5   3   53.45    5.45
  -7   5   3   69.00    5.80
   7   5  -3   59.45    5.36
  -7   5   3   54.80    4.82
   6  -5  -3    2.25    2.32
  -6  -5   3    6.01    2.71
   6  -5  -3   11.45    2.37
  -6  -5   3    8.90    2.41
  -6  -5   3    4.14    1.14
  -6  -5   3    4.00    1.18
  -6   5   3    2.32    2.09
  -6   5   3    7.13    2.84
  -6   5   3    4.78    2.48
   6   5  -3    3.30    2.61
   5  -5  -3   58.26    4.63
  -5  -5   3   61.66    3.17
  -5  -5   3   58.92    3.71
  -5  -5   3   53.83    4.99
  -5  -5   3   62.76    3.16
  -5  -5   3   61.56    4.26
   5  -5  -3   62.44    4.08
  -5   5   3   54.38    5.11
  -5   5   3   62.35    4.79
  -5   5   3   62.88    4.48
   5   5  -3   61.16    4.08
   5   5  -3   59.25    5.15
  -4  -5   3  138.04    5.45
  -4  -5   3  125.44    6.17
   4  -5  -3  129.89    5.96
  -4  -5   3  131.84    5.47
  -4  -5   3  132.66    5.45
  -4  -5   3  131.75    6.94
   4  -5  -3  130.52    6.62
   4   5  -3  133.27    6.33
   4   5  -3  131.50    7.04
  -4   5   3  129.80    7.07
  -4   5   3  125.08    6.51
  -4   5   3  130.37    6.52
  -4   5   3  131.88    5.65
   3  -5  -3  285.35   11.64
   3  -5  -3  297.02   11.01
  -3  -5   3  289.25   10.83
  -3  -5   3  317.94   11.95
   3  -5  -3  318.48   11.82
  -3  -5   3  287.27   11.16
  -3  -5   3  286.68   10.82
   3   5  -3  291.11   11.61
  -3   5   3  292.04   11.44
   3   5  -3  284.24   11.88
  -3   5   3  268.71   11.54
   3   5  -3  283.36   10.34
  -3   5   3  295.59   11.15
  -3   5   3  285.91   12.03
  -2  -5   3   51.35    4.03
  -2  -5   3   51.36    3.72
  -2  -5   3   48.17    3.09
  -2  -5   3   50.72    3.02
  -2  -5   3   54.50    3.08
   2  -5  -3   46.07    3.60
   2  -5  -3   47.45    2.92
   2  -5  -3   47.26    3.59
  -2   5   3   45.59    3.49
  -2   5   3   46.59    3.68
   2   5  -3   43.70    3.71
   2   5  -3   45.22    2.03
  -2   5   3   36.87    3.62
  -1  -5   3   21.88    3.08
   1  -5  -3   19.96    2.39
   1  -5  -3   20.27    2.72
   1  -5  -3   15.70    2.06
  -1  -5   3   24.07    2.11
  -1  -5   3   24.71    2.60
  -1  -5   3   16.85    2.28
   1  -5  -3   25.42    2.95
  -1  -5   3   22.80    3.13
  -1   5   3   25.41    3.15
  -1   5   3   22.30    3.14
   1   5  -3   16.08    2.41
   1   5  -3   22.28    1.57
  -1   5   3   14.08    2.23
   0  -5   3   22.90    2.04
   0  -5   3   16.74    2.55
   0  -5  -3   18.86    2.39
   0  -5  -3   18.90    2.64
   0  -5  -3   14.69    2.17
   0  -5   3   21.19    2.78
   0  -5  -3   13.43    2.11
   0  -5   3   19.10    3.03
   0   5   3   21.60    2.72
   0   5   3   20.98    3.12
   0   5  -3   17.89    2.49
   0   5  -3   17.43    1.91
   0   5   3   13.09    2.07
   0   5  -3   17.43    2.62
   1  -5   3  553.62   18.99
   1  -5   3  532.61   20.02
  -1  -5  -3  519.92   19.72
  -1  -5  -3  500.02   19.39
   1  -5   3  518.52   19.59
  -1  -5  -3  528.36   19.16
  -1  -5  -3  545.05   19.76
   1  -5   3  527.43   19.68
  -1   5  -3  573.12   20.37
   1   5   3  537.66   19.35
  -1   5  -3  535.38   19.20
   1   5   3  526.91   19.81
  -1   5  -3  560.03   19.82
   1   5   3  538.89   20.06
  -2  -5  -3   52.71    4.14
  -2  -5  -3   61.16    3.75
   2  -5   3   62.36    4.28
  -2  -5  -3   64.34    4.21
   2  -5   3   60.00    4.50
  -2  -5  -3   70.00    4.39
   2  -5   3   58.67    3.89
   2  -5   3   55.16    3.31
   2   5   3   51.86    4.63
   2   5   3   55.23    3.41
   2   5   3   58.29    4.35
  -2   5  -3   59.68    4.12
  -2   5  -3   62.08    4.85
  -2   5  -3   59.44    3.91
  -3  -5  -3  134.74    6.42
   3  -5   3  130.19    6.94
  -3  -5  -3  134.32    6.84
   3  -5   3  135.76    7.22
  -3  -5  -3  130.36    6.71
   3  -5   3  140.70    6.33
   3  -5   3  132.01    6.07
  -3   5  -3  143.38    6.82
   3   5   3  138.83    7.06
  -3   5  -3  127.96    6.89
  -3   5  -3  139.92    7.67
   3   5   3  150.75    7.63
   4  -5   3   36.19    4.39
   4  -5   3   41.17    4.43
  -4  -5  -3   38.93    4.09
  -4  -5  -3   42.85    4.03
   4  -5   3   41.77    3.51
  -4  -5  -3   37.57    4.03
   4  -5   3   39.17    4.71
  -4   5  -3   41.52    4.19
  -4   5  -3   45.57    5.31
   4   5   3   44.01    4.48
   4   5   3   35.12    4.78
  -4   5  -3   46.85    4.35
  -5  -5  -3   10.82    2.87
  -5  -5  -3   14.03    2.91
   5  -5   3   14.91    3.47
  -5  -5  -3   18.71    3.00
   5  -5   3   15.14    2.54
  -5   5  -3   20.28    3.35
  -5   5  -3   18.35    3.36
   5   5   3   16.13    3.33
  -5   5  -3   19.13    3.81
   5   5   3   20.98    3.73
   6  -5   3   24.59    3.95
  -6  -5  -3   28.18    3.70
  -6  -5  -3   26.70    3.74
   6  -5   3   25.06    3.29
  -6  -5  -3   34.08    4.14
  -6   5  -3   28.35    4.12
  -6   5  -3   20.74    3.81
   6   5   3   24.71    4.06
   6   5   3   30.56    4.43
  -6   5  -3   28.05    3.94
   7  -5   3   29.51    4.55
  -7  -5  -3   20.44    3.74
   7  -5   3   34.89    4.32
  -7  -5  -3   24.71    3.85
  -7  -5  -3   24.50    3.61
  -7   5  -3   26.28    4.33
   7   5   3   30.51    4.60
  -7   5  -3   24.83    4.02
  -7   5  -3   31.05    4.36
   7   5   3   27.61    4.54
  -8  -5  -3    4.33    2.91
  -8  -5  -3    6.08    2.57
  -8  -5  -3   -0.13    4.56
   8  -5   3    6.11    3.56
   8   5   3   -2.26    3.04
  -8   5  -3    1.63    3.14
   8   5   3   -1.18    3.29
  -8   5  -3   -1.46    2.73
  -9  -5  -3   59.00    6.64
  -9  -5  -3   63.17    5.75
   9  -5   3   57.61    7.76
   9   5   3   52.18    7.66
  -9   5  -3   61.56    6.79
  -9   5  -3   62.53    6.66
  10  -6  -3    5.90    3.51
 -10  -6   3   -0.74    2.73
 -10   6   3   -2.04    2.85
 -10   6   3   -3.37    2.53
  10   6  -3   -0.99    3.44
 -10   6   3   -1.78    3.42
  -9  -6   3   52.77    2.84
   9  -6  -3   67.19    6.29
  -9  -6   3   50.90    5.95
  -9   6   3   55.58    5.49
   9   6  -3   76.51    7.08
  -9   6   3   51.29    6.32
   9   6  -3   63.13    6.51
  -9   6   3   49.43    6.66
   8  -6  -3   15.58    3.52
  -8  -6   3   15.58    2.05
  -8  -6   3   16.48    3.42
  -8   6   3   27.59    4.39
  -8   6   3   17.88    3.27
   8   6  -3   18.09    4.01
  -8   6   3   24.07    4.00
   7  -6  -3   11.88    2.78
  -7  -6   3    9.70    3.35
  -7  -6   3    5.92    1.38
  -7  -6   3    5.03    2.49
   7  -6  -3    6.21    2.86
  -7   6   3    3.46    2.58
   7   6  -3    5.63    2.98
  -7   6   3   12.91    3.55
  -7   6   3    5.42    2.50
   6  -6  -3   21.73    3.44
  -6  -6   3   17.11    3.00
  -6  -6   3   23.19    3.96
   6  -6  -3   23.56    3.65
  -6  -6   3   22.29    2.34
  -6   6   3   21.51    3.39
  -6   6   3   34.62    5.02
   6   6  -3   23.99    3.96
  -6   6   3   26.03    3.87
  -5  -6   3   25.99    3.72
  -5  -6   3   19.32    2.77
   5  -6  -3   23.05    3.22
  -5  -6   3   25.07    2.47
   5  -6  -3   22.13    3.32
  -5   6   3   16.97    3.48
   5   6  -3   17.42    3.30
   5   6  -3   21.90    2.89
  -5   6   3   16.17    2.80
  -5   6   3   26.01    3.83
  -4  -6   3   59.83    3.61
  -4  -6   3   66.75    5.19
   4  -6  -3   58.02    4.62
   4  -6  -3   62.88    4.14
  -4  -6   3   50.80    4.20
  -4   6   3   57.15    5.34
  -4   6   3   63.20    4.58
   4   6  -3   59.09    4.57
  -4   6   3   57.40    4.35
   4   6  -3   65.35    5.38
  -4   6   3   62.84    3.88
   3  -6  -3  161.06    6.75
   3  -6  -3  145.30    7.35
  -3  -6   3  140.75    6.50
  -3  -6   3  156.15    7.70
   3  -6  -3  154.72    7.44
  -3  -6   3  150.05    6.84
  -3   6   3  138.43    7.76
   3   6  -3  142.76    7.84
  -3   6   3  156.11    7.40
  -3   6   3  147.66    6.86
  -3   6   3  164.06    7.12
   3   6  -3  156.18    7.47
   2  -6  -3  135.08    6.79
   2  -6  -3  136.55    6.09
   2  -6  -3  140.47    6.84
  -2  -6   3  126.73    6.83
   2  -6  -3  138.39    6.36
  -2  -6   3  140.81    6.13
  -2  -6   3  140.25    6.28
  -2   6   3  140.24    6.62
   2   6  -3  135.25    7.05
  -2   6   3  129.10    6.83
   2   6  -3  134.82    7.10
  -2   6   3  140.21    7.21
  -1  -6   3  802.72   31.87
   1  -6  -3  914.75   31.86
   1  -6  -3  932.56   31.21
  -1  -6   3  890.06   31.09
   1  -6  -3  890.00   31.22
  -1  -6   3  876.00   31.39
   1  -6  -3  897.47   31.86
  -1   6   3  892.08   31.89
   1   6  -3  892.22   32.14
  -1   6   3  919.02   31.84
  -1   6   3  862.70   31.88
   0  -6  -3  288.24   11.21
   0  -6  -3  298.80   11.75
   0  -6   3  279.53   11.86
   0  -6  -3  294.08   11.69
   0  -6   3  297.36   11.54
   0  -6   3  281.13   10.83
   0  -6  -3  275.84   10.79
   0  -6   3  285.36   11.70
   0   6  -3  275.60   12.06
   0   6   3  284.33   11.84
   0   6   3  312.61   11.82
   0   6  -3  279.94   10.37
   0   6   3  265.32   11.49
   1  -6   3  364.83   13.60
  -1  -6  -3  357.19   14.40
  -1  -6  -3  393.82   14.21
  -1  -6  -3  379.11   14.48
   1  -6   3  338.82   14.53
   1  -6   3  374.97   14.38
  -1  -6  -3  374.73   13.61
   1  -6   3  372.72   14.37
  -1   6  -3  341.81   14.92
  -1   6  -3  380.34   13.59
   1   6   3  364.06   14.78
   1   6   3  375.40   14.09
   1   6   3  342.51   14.40
   2  -6   3    4.20    1.97
   2  -6   3   -1.40    1.82
  -2  -6  -3   -1.57    1.75
   2  -6   3    0.80    2.04
  -2  -6  -3   -1.18    1.78
   2  -6   3    2.54    1.49
  -2  -6  -3   -1.63    1.78
  -2  -6  -3    1.26    1.63
  -2   6  -3   -1.89    1.51
   2   6   3   -0.97    2.36
  -2   6  -3    1.63    2.29
  -2   6  -3    0.74    2.67
   2   6   3   -0.60    1.53
  -3  -6  -3    5.80    2.25
   3  -6   3    5.75    1.85
   3  -6   3    7.31    2.74
  -3  -6  -3    9.08    2.14
   3  -6   3    7.51    2.10
  -3  -6  -3    3.97    2.32
  -3  -6  -3    3.95    2.09
   3  -6   3   10.12    2.68
  -3   6  -3    7.59    2.19
   3   6   3    3.52    2.87
  -3   6  -3    5.60    3.02
  -3   6  -3    4.49    2.51
  -4  -6  -3  292.46   12.12
  -4  -6  -3  281.33   12.35
   4  -6   3  319.74   13.26
  -4  -6  -3  270.42   12.45
   4  -6   3  306.53   11.87
  -4   6  -3  296.90   12.54
   4   6   3  296.81   13.38
   4   6   3  305.81   12.89
  -4   6  -3  295.12   12.90
  -4   6  -3  299.93   13.54
   5  -6   3   58.38    4.59
   5  -6   3   55.15    5.56
  -5  -6  -3   56.38    5.03
  -5  -6  -3   54.32    5.14
   5   6   3   50.00    5.31
  -5   6  -3   55.23    5.46
  -5   6  -3   54.46    6.06
   5   6   3   61.96    5.99
  -5   6  -3   56.20    5.21
   6  -6   3   66.97    6.33
  -6  -6  -3   67.46    5.47
  -6  -6  -3   74.66    5.93
   6  -6   3   61.15    5.01
  -6   6  -3   68.40    5.83
  -6   6  -3   65.44    6.31
   6   6   3   72.12    6.67
  -6   6  -3   72.72    6.36
   6   6   3   72.16    6.45
  -7  -6  -3   73.64    5.88
  -7  -6  -3   71.62    6.29
   7  -6   3   85.70    7.39
   7   6   3   79.42    7.32
   7   6   3   86.79    7.28
  -7   6  -3   72.23    6.51
  -7   6  -3   69.70    7.06
  -7   6  -3   91.17    8.43
   8  -6   3   14.00    4.36
  -8  -6  -3   11.41    3.11
  -8  -6  -3   14.26    3.75
   8   6   3   19.36    4.50
   8   6   3   14.49    4.36
  -8   6  -3    5.82    3.54
   9  -6   3   88.59    9.03
  -9   6  -3   87.79    7.80
   9   6   3   77.08   10.53
 -10  -7   3    9.42    3.59
  10  -7  -3   11.30    4.08
 -10   7   3    6.15    3.56
 -10   7   3    8.61    3.41
 -10   7   3    9.73    4.38
  -9  -7   3   23.20    4.29
  -9  -7   3   17.49    2.10
   9  -7  -3   25.32    4.65
  -9   7   3   24.51    4.46
   9   7  -3   26.99    4.97
  -9   7   3   21.51    3.87
  -9   7   3   14.08    4.27
   9   7  -3   23.18    4.69
  -8  -7   3   37.75    2.83
  -8  -7   3   29.70    5.08
   8  -7  -3   42.91    5.69
  -8  -7   3   37.78    4.91
  -8   7   3   33.92    5.07
   8   7  -3   36.03    5.25
  -8   7   3   47.47    5.36
  -8   7   3   31.63    4.98
  -7  -7   3  102.31    4.84
  -7  -7   3  104.04    6.69
   7  -7  -3  108.55    7.13
  -7  -7   3  104.73    7.67
   7   7  -3  104.80    7.57
  -7   7   3   91.40    7.44
  -7   7   3   98.79    6.63
  -7   7   3   92.75    6.89
  -6  -7   3   -0.02    1.39
  -6  -7   3   -0.18    2.88
  -6  -7   3    3.24    2.33
   6  -7  -3    1.90    2.55
  -6   7   3    1.97    2.47
   6   7  -3    1.26    3.01
  -6   7   3   -0.62    2.28
  -6   7   3   -1.59    2.92
  -5  -7   3    0.77    2.69
   5  -7  -3    3.91    2.09
  -5  -7   3    4.56    1.62
   5  -7  -3    5.42    2.61
  -5  -7   3    6.37    2.31
  -5   7   3    2.18    3.05
   5   7  -3    4.14    3.11
  -5   7   3    0.83    2.18
   5   7  -3    7.04    2.34
  -5   7   3    4.60    2.42
   4  -7  -3   19.10    2.66
  -4  -7   3   24.18    3.82
  -4  -7   3   17.71    2.69
   4  -7  -3   13.46    2.79
  -4   7   3   17.39    3.09
   4   7  -3   19.89    3.11
  -4   7   3   18.08    3.33
  -4   7   3   26.13    3.44
   4   7  -3   16.08    3.41
  -3  -7   3   73.22    5.25
   3  -7  -3   72.70    4.56
  -3  -7   3   66.06    4.46
  -3  -7   3   72.67    4.65
   3  -7  -3   77.52    5.32
   3   7  -3   78.26    5.61
  -3   7   3   84.37    5.56
  -3   7   3   77.49    6.04
   3   7  -3   72.12    5.97
  -3   7   3   73.46    4.66
  -3   7   3   69.60    4.87
  -2  -7   3    0.28    1.75
  -2  -7   3   -2.66    1.47
   2  -7  -3    1.62    2.06
   2  -7  -3   -2.26    1.56
   2  -7  -3    0.25    2.32
  -2  -7   3    0.12    2.29
   2  -7  -3    1.33    1.71
   2   7  -3   -0.54    2.17
   2   7  -3    0.33    2.36
  -2   7   3   -2.25    1.98
  -2   7   3    2.73    2.62
  -2   7   3    3.35    2.27
  -1  -7   3    9.40    2.73
   1  -7  -3    9.74    2.69
  -1  -7   3    6.43    2.14
   1  -7  -3    9.21    2.06
   1  -7  -3    7.60    1.78
   1  -7  -3    8.77    2.49
  -1  -7   3    8.28    1.96
  -1   7   3    8.18    2.57
  -1   7   3    7.74    2.64
   1   7  -3    7.20    2.66
  -1   7   3    5.98    2.50
   1   7  -3    4.96    2.64
   0  -7   3    0.83    2.28
   0  -7  -3    2.60    1.86
   0  -7  -3    1.02    2.10
   0  -7  -3    3.14    1.72
   0  -7   3    3.73    2.11
   0  -7   3    5.79    1.81
   0   7   3    4.88    2.57
   0   7   3    3.09    2.28
   0   7   3    0.03    2.17
   0   7  -3    4.23    2.78
   0   7  -3    5.01    2.44
  -1  -7  -3   17.01    2.77
  -1  -7  -3   22.79    3.18
  -1  -7  -3   20.77    3.17
   1  -7   3   18.88    2.88
   1  -7   3   15.91    2.94
   1  -7   3   21.76    3.35
   1   7   3   21.35    2.91
  -1   7  -3   16.10    3.67
  -1   7  -3   23.80    3.55
   1   7   3   18.16    3.41
  -2  -7  -3   37.84    4.21
   2  -7   3   38.01    4.38
  -2  -7  -3   41.26    4.28
   2  -7   3   43.51    4.64
  -2  -7  -3   44.05    4.50
   2  -7   3   33.87    3.43
  -2   7  -3   37.58    4.93
  -2   7  -3   43.77    5.77
   2   7   3   34.16    3.67
   2   7   3   42.37    5.12
  -3  -7  -3    3.80    2.40
   3  -7   3    2.00    2.52
  -3  -7  -3    4.18    2.29
   3  -7   3    5.31    2.62
  -3  -7  -3   -3.00    2.29
   3  -7   3    3.54    1.97
  -3   7  -3    6.75    2.14
   3   7   3    4.94    2.94
  -3   7  -3    7.21    3.90
   4  -7   3   82.06    6.44
  -4  -7  -3   94.06    6.38
  -4  -7  -3  108.28    6.38
   4  -7   3   86.73    5.40
   4   7   3  105.50    7.43
  -4   7  -3   99.22    7.66
  -4   7  -3   98.86    6.07
  -5  -7  -3    4.14    2.70
  -5  -7  -3    1.71    2.36
   5  -7   3    2.51    3.10
   5   7   3    1.07    3.18
   5   7   3    2.63    2.73
  -5   7  -3    3.77    2.45
  -5   7  -3   -1.69    3.12
  -6  -7  -3   29.47    3.97
   6  -7   3   29.16    4.71
  -6  -7  -3   26.88    4.15
   6   7   3   31.22    4.95
  -6   7  -3   23.77    3.93
  -6   7  -3   35.96    5.67
   6   7   3   33.39    5.39
  -7  -7  -3   12.56    3.62
   7  -7   3   13.53    4.10
  -7  -7  -3   13.94    3.26
   7   7   3   16.76    4.40
   7   7   3   16.87    4.26
  -7   7  -3   15.80    3.76
  -7   7  -3   18.24    4.43
  -8  -7  -3    3.09    3.40
  -8  -7  -3   12.74    3.28
   8  -7   3    4.99    3.99
   8   7   3    4.25    3.94
   8   7   3    9.53    4.43
  -8   7  -3    5.61    3.55
  -9  -8   3    2.06    1.25
  -9  -8   3   -1.31    3.05
   9  -8  -3    3.33    3.28
   9   8  -3   -4.33    3.48
  -9   8   3   -6.42    3.41
  -9   8   3    0.76    3.06
   9   8  -3    1.63    3.73
  -9   8   3   -5.28    2.77
   8  -8  -3    9.52    3.41
  -8  -8   3   -0.67    3.54
  -8  -8   3    2.97    2.77
  -8  -8   3   -0.24    1.35
  -8   8   3    3.66    3.60
  -8   8   3   -1.78    2.89
   8   8  -3   -0.05    3.53
  -8   8   3    0.75    2.75
  -7  -8   3   13.02    3.92
   7  -8  -3   10.29    3.39
  -7  -8   3    8.18    1.96
  -7  -8   3   10.49    3.09
  -7   8   3   11.59    3.34
   7   8  -3   10.96    3.79
  -7   8   3    1.75    3.48
  -7   8   3    7.15    3.10
  -6  -8   3    9.55    2.00
  -6  -8   3    3.08    2.50
  -6  -8   3    6.53    3.42
   6  -8  -3    7.61    3.15
  -6   8   3    5.73    2.86
  -6   8   3    7.47    3.41
   6   8  -3    5.82    3.42
  -6   8   3    6.02    2.76
  -5  -8   3   10.17    2.73
  -5  -8   3    6.21    3.10
  -5  -8   3    8.56    1.96
   5  -8  -3    4.26    2.72
  -5   8   3    5.77    2.61
  -5   8   3    4.26    3.35
   5   8  -3   10.91    3.45
  -5   8   3    5.86    2.39
  -4  -8   3    9.04    3.24
  -4  -8   3    5.00    2.13
   4  -8  -3    9.31    2.90
  -4   8   3    6.33    2.82
   4   8  -3    7.16    2.71
  -4   8   3    3.52    3.14
   4   8  -3    6.14    3.27
  -4   8   3    1.69    2.04
  -3  -8   3   30.92    3.73
   3  -8  -3   37.65    3.95
   3  -8  -3   39.38    4.50
  -3  -8   3   38.65    4.94
  -3  -8   3   30.77    3.79
  -3   8   3   33.13    4.16
   3   8  -3   45.14    5.40
   3   8  -3   36.98    4.98
  -3   8   3   37.54    4.56
  -3   8   3   39.31    5.23
   2  -8  -3    0.36    1.92
  -2  -8   3    0.89    2.06
   2  -8  -3   -2.88    2.16
  -2  -8   3    2.03    1.94
  -2  -8   3    1.30    2.49
  -2   8   3    0.60    2.39
  -2   8   3    2.31    2.38
   2   8  -3   -1.16    2.77
   2   8  -3   -1.12    2.57
  -2   8   3    0.64    2.75
   1  -8  -3    9.44    2.83
  -1  -8   3    3.83    1.87
   1  -8  -3    5.11    2.10
   1  -8  -3    9.91    2.77
  -1  -8   3    6.20    2.87
  -1  -8   3    6.65    2.42
   1   8  -3   10.82    3.16
  -1   8   3    5.92    2.81
   1   8  -3    8.45    3.22
  -1   8   3    3.69    2.73
   0  -8  -3    2.69    2.39
   0  -8  -3    7.10    2.28
   0  -8   3    6.38    2.05
   0  -8   3    7.03    2.82
   0  -8   3    5.85    2.45
   0   8  -3    3.90    2.63
   0   8  -3   13.28    3.55
   0   8   3    4.01    2.87
   0   8   3    9.29    2.81
  -1  -8  -3   38.13    4.20
  -1  -8  -3   36.98    4.47
   1  -8   3   43.89    4.47
   1  -8   3   39.10    3.56
  -1  -8  -3   36.17    4.46
   1  -8   3   26.64    3.81
   1   8   3   30.38    4.20
   1   8   3   34.93    5.01
  -1   8  -3   31.28    4.79
  -1   8  -3   34.57    4.56
  -2  -8  -3   45.88    4.73
   2  -8   3   32.98    4.76
   2  -8   3   41.55    3.74
  -2  -8  -3   47.98    4.73
  -2  -8  -3   43.78    4.75
   2  -8   3   45.09    4.83
  -2   8  -3   43.21    4.59
   2   8   3   41.26    5.47
  -2   8  -3   49.94    6.28
   3  -8   3   -2.86    2.18
   3  -8   3    5.98    2.92
  -3  -8  -3    7.37    2.75
  -3  -8  -3    4.86    2.73
  -3  -8  -3    0.87    2.39
  -3   8  -3   -0.40    3.42
   3   8   3   -1.41    3.03
   4  -8   3  121.04    8.38
  -4  -8  -3  163.75    8.60
  -4  -8  -3  157.20    8.44
   4   8   3  155.50    9.40
  -4   8  -3  157.81    9.72
   5  -8   3    3.27    2.97
  -5  -8  -3    5.88    2.68
  -5  -8  -3   -1.54    2.46
   5   8   3   -0.42    2.54
  -5   8  -3    4.39    3.69
   5   8   3    6.80    3.58
  -6  -8  -3   25.93    3.90
   6  -8   3   32.20    4.96
  -6  -8  -3   29.26    4.45
   6   8   3   29.75    5.21
   6   8   3   31.36    4.82
  -6   8  -3   35.14    5.33
  -7  -8  -3   18.71    4.11
   7  -8   3   15.79    4.53
  -7  -8  -3   21.04    3.73
   7   8   3   26.45    5.33
  -7   8  -3   20.34    4.78
   7   8   3   17.50    4.65
  -8   8  -3   20.67    6.60
   8   8   3   17.22    5.16
  -8  -9   3   -1.80    1.51
  -8  -9   3   -5.98    2.37
  -8  -9   3    3.14    4.01
   8  -9  -3    6.94    3.62
  -8   9   3    0.32    3.00
   8   9  -3   -0.89    3.75
  -8   9   3    5.30    3.97
  -7  -9   3   56.79    5.84
  -7  -9   3   52.15    4.05
   7  -9  -3   62.00    6.56
  -7  -9   3   62.11    6.86
  -7   9   3   58.87    7.01
   7   9  -3   56.71    6.96
  -7   9   3   47.11    6.10
   6  -9  -3   15.50    3.80
  -6  -9   3   11.85    2.38
  -6  -9   3   14.16    3.13
  -6  -9   3   13.00    3.94
  -6   9   3    6.62    3.83
  -6   9   3    7.71    3.06
   6   9  -3   17.24    4.08
  -5  -9   3   67.41    6.41
  -5  -9   3   54.70    5.21
  -5  -9   3   57.80    4.44
   5  -9  -3   66.25    6.06
  -5   9   3   56.56    5.99
  -5   9   3   57.71    6.48
   5   9  -3   46.42    6.18
  -4  -9   3   12.64    3.48
   4  -9  -3   11.56    3.31
  -4  -9   3    6.39    2.38
  -4  -9   3   10.76    2.79
   4   9  -3   11.13    3.20
  -4   9   3    6.58    3.52
   4   9  -3    8.53    3.62
   3  -9  -3   46.98    5.02
  -3  -9   3   50.82    4.49
  -3  -9   3   53.34    5.62
  -3  -9   3   38.26    4.29
  -3   9   3   47.84    6.05
   3   9  -3   42.48    5.59
   3   9  -3   46.93    5.78
  -2  -9   3    3.30    2.30
  -2  -9   3    2.54    2.76
   2  -9  -3    2.10    2.54
   2  -9  -3    3.87    2.62
  -2  -9   3    0.82    2.04
  -2   9   3   -0.49    2.92
   2   9  -3   -1.55    2.76
   2   9  -3    1.03    2.97
  -2   9   3    0.75    2.61
  -1  -9   3   11.99    2.52
   1  -9  -3   12.06    3.23
   1  -9  -3   12.05    3.20
  -1  -9   3   16.93    3.55
   1  -9  -3   14.94    2.88
  -1  -9   3   11.72    2.89
  -1   9   3   12.59    3.44
   1   9  -3   10.52    3.90
   1   9  -3   11.41    3.48
  -1   9   3   12.50    3.44
   0  -9   3   73.13    5.79
   0  -9  -3   76.53    5.98
   0  -9  -3   87.86    5.72
   0  -9  -3   82.14    6.42
   0  -9   3   78.83    6.42
   0  -9   3   82.64    5.15
   0   9   3   83.71    6.49
   0   9   3   79.91    6.39
   0   9  -3   81.98    6.26
   0   9  -3   75.73    7.14
  -1  -9  -3   29.30    4.06
  -1  -9  -3   39.81    5.01
   1  -9   3   33.78    4.97
   1  -9   3   39.96    5.01
  -1  -9  -3   45.58    4.40
  -1   9  -3   37.30    4.76
   1   9   3   31.89    4.58
   1   9   3   37.96    4.76
  -1   9  -3   43.85    6.32
  -2  -9  -3    5.32    2.79
   2  -9   3    5.39    3.17
   2  -9   3    5.87    2.89
  -2  -9  -3    1.14    2.58
  -2  -9  -3    4.24    2.74
  -2   9  -3    6.51    2.81
  -2   9  -3    7.98    3.88
   2   9   3   10.14    3.57
  -3  -9  -3   70.81    5.94
  -3  -9  -3   79.37    6.24
   3  -9   3   76.65    6.44
  -3  -9  -3   77.24    6.09
   3   9   3   72.44    6.97
  -3   9  -3   74.42    7.69
   4  -9   3   -0.82    2.78
  -4  -9  -3    5.10    2.81
  -4  -9  -3    2.72    2.65
  -4  -9  -3   -0.84    2.74
   4   9   3    4.44    3.51
  -4   9  -3   -1.11    3.69
   5  -9   3   20.61    4.35
  -5  -9  -3   30.41    4.50
  -5  -9  -3   30.24    4.11
   5   9   3   21.63    4.27
   5   9   3   25.70    4.97
  -5   9  -3   43.57    6.73
  -6  -9  -3   15.75    3.97
   6  -9   3   19.18    4.38
  -6  -9  -3   24.35    3.95
   6   9   3   26.07    4.77
   6   9   3   28.49    5.49
  -6   9  -3   21.19    5.08
   7  -9   3   10.76    4.16
  -7  -9  -3   17.48    3.66
  -7   9  -3   13.80    4.74
   7   9   3   20.08    4.71
   7   9   3    8.91    4.75
   7 -10  -3    6.32    3.75
  -7 -10   3    5.92    2.13
  -7 -10   3    1.18    3.95
  -7 -10   3    4.04    3.07
   7  10  -3    1.85    4.26
  -7  10   3   -5.28    3.57
  -6 -10   3   55.29    4.71
  -6 -10   3   56.96    6.91
  -6 -10   3   53.16    5.69
   6 -10  -3   54.77    6.33
   6  10  -3   59.56    7.78
  -6  10   3   63.87    7.35
  -5 -10   3   18.71    3.59
  -5 -10   3   20.67    4.46
   5 -10  -3   22.90    4.22
  -5 -10   3   21.49    3.05
  -5  10   3   14.85    4.25
   5  10  -3   26.93    4.66
  -4 -10   3    9.48    2.90
  -4 -10   3    8.75    3.77
   4 -10  -3   11.47    3.41
  -4 -10   3   11.92    2.80
  -4  10   3   12.41    3.89
   4  10  -3    7.81    3.69
  -3 -10   3   15.12    3.09
  -3 -10   3   20.83    4.25
   3 -10  -3   23.26    3.94
  -3 -10   3   22.72    3.28
   3  10  -3   17.40    4.19
  -3  10   3   19.40    4.41
   3  10  -3   15.88    4.14
  -2 -10   3   -0.81    2.62
   2 -10  -3   -3.08    2.43
  -2 -10   3   -0.26    2.21
  -2 -10   3   -1.79    2.01
   2  10  -3   -0.43    3.10
  -2  10   3    1.18    3.12
  -2  10   3   -3.41    2.42
   2  10  -3   -2.99    3.45
  -1 -10   3    6.14    3.27
   1 -10  -3    1.54    2.88
  -1 -10   3   10.44    3.06
  -1  10   3    7.32    3.31
  -1  10   3    5.25    3.43
   1  10  -3    9.40    3.39
   1  10  -3    6.81    3.91
   0 -10  -3    6.48    3.18
   0 -10   3    4.36    3.10
   0 -10   3   13.48    3.28
   0 -10  -3    6.19    2.78
   0 -10  -3    1.14    2.79
   0  10   3    7.56    3.44
   0  10  -3   11.59    3.43
   0  10   3    1.03    3.03
   0  10  -3    9.15    4.09
   1 -10   3    1.91    2.77
   1 -10   3    8.97    3.37
  -1 -10  -3    5.51    3.01
  -1 -10  -3    4.53    2.57
  -1 -10  -3    5.25    2.92
  -1  10  -3    6.32    4.18
   1  10   3    7.97    3.63
  -1  10  -3    3.14    2.96
  -2 -10  -3   14.38    3.44
  -2 -10  -3   17.03    3.71
   2 -10   3   10.83    3.55
   2 -10   3   12.18    3.60
  -2 -10  -3   11.06    3.26
  -2  10  -3    7.81    4.23
   2  10   3    8.22    3.83
  -3 -10  -3   36.52    5.55
  -3 -10  -3   38.76    5.39
  -3 -10  -3   47.10    5.47
   3 -10   3   43.68    5.74
  -3  10  -3   51.49    7.36
   3  10   3   49.83    6.72
  -4 -10  -3    4.92    3.01
   4 -10   3    2.77    3.09
  -4 -10  -3    1.92    2.90
  -4 -10  -3    1.18    3.06
   4  10   3    4.48    3.89
  -4  10  -3    4.71    4.14
   5 -10   3   36.87    5.90
  -5 -10  -3   29.36    4.58
  -5 -10  -3   38.62    5.55
   5  10   3   32.29    5.75
  -5  10  -3   36.49    5.87
   5  10   3   35.34    5.21
   6 -10   3   11.93    4.10
  -6 -10  -3    5.07    3.02
  -6  10  -3    2.07    4.30
   6  10   3    7.24    3.93
   6  10   3    0.60    5.09
  -6 -11   3   22.59    3.54
  -6 -11   3   17.28    3.78
   6 -11  -3   24.42    4.69
  -6 -11   3   20.91    5.08
  -6  11   3   14.66    5.61
   6  11  -3   15.76    4.99
   5 -11  -3   10.85    3.84
  -5 -11   3   14.23    3.59
  -5 -11   3   19.23    4.80
  -5 -11   3   20.35    3.31
   5  11  -3   17.50    4.86
  -5  11   3   14.54    4.73
  -4 -11   3    2.81    2.61
  -4 -11   3    0.98    3.74
   4 -11  -3    5.72    3.24
  -4  11   3    0.02    3.60
   4  11  -3   -4.88    3.41
  -3 -11   3    6.64    2.76
   3 -11  -3    7.45    3.31
  -3 -11   3    2.98    3.45
   3  11  -3    8.15    4.14
  -3  11   3    8.11    4.09
   3  11  -3    2.66    3.92
  -2 -11   3   17.41    3.47
   2 -11  -3   17.39    3.93
  -2 -11   3   17.71    4.11
  -2  11   3   19.39    4.48
   2  11  -3   13.63    4.21
   2  11  -3   17.17    4.72
  -1 -11   3   -2.85    2.63
  -1 -11   3    1.92    3.29
   1 -11  -3    2.44    3.02
   1  11  -3    3.69    3.39
  -1  11   3   -3.22    3.15
   1  11  -3   -5.24    3.66
  -1  11   3   -2.98    3.11
   0 -11   3   36.32    5.44
   0 -11   3   28.28    4.64
   0 -11  -3   23.71    4.25
   0  11   3   28.98    4.69
   0  11   3   28.51    4.77
   0  11  -3   43.13    6.21
   0  11  -3   26.20    4.54
   1 -11   3   -3.48    2.67
  -1 -11  -3    3.08    3.20
  -1 -11  -3    0.18    2.94
   1 -11   3   -0.70    3.05
  -1  11  -3    4.99    3.42
   1  11   3   -4.05    3.36
  -1  11  -3   -2.55    3.94
  -2 -11  -3  119.84    8.73
  -2 -11  -3  146.54    8.78
   2 -11   3  121.80    8.69
   2  11   3  135.53    9.80
  -2  11  -3  134.45   10.13
   3 -11   3   20.20    4.25
  -3 -11  -3   18.28    4.12
  -3 -11  -3   11.96    3.63
  -3 -11  -3   18.27    3.96
   3  11   3   21.70    5.29
  -3  11  -3   15.66    5.10
  -4 -11  -3   50.56    6.41
  -4 -11  -3   62.13    6.53
  -4 -11  -3   57.73    6.64
   4 -11   3   54.56    6.75
  -4  11  -3   70.27    8.11
   4  11   3   65.85    8.45
  -5 -11  -3   13.68    3.89
   5 -11   3    7.03    4.01
   5  11   3    4.06    3.81
  -4 -12   3    3.11    3.97
  -4 -12   3    9.06    3.16
   4 -12  -3   -1.94    3.26
   4  12  -3    3.80    4.82
  -4  12   3   -3.31    3.76
   3 -12  -3   13.54    3.97
  -3 -12   3    5.30    3.93
   3  12  -3    4.76    4.25
  -3  12   3    5.83    4.32
  -2 -12   3    5.37    2.99
  -2 -12   3    0.68    3.29
   2 -12  -3    1.35    3.38
   2  12  -3    0.24    3.57
  -2  12   3   -3.63    3.76
   2  12  -3    0.26    3.98
  -1 -12   3   16.51    4.25
   1 -12  -3   12.54    3.75
  -1 -12   3   12.68    3.54
   1  12  -3    3.08    4.48
  -1  12   3   10.23    4.07
  -1  12   3    8.60    3.99
   1  12  -3    7.29    3.98
   0 -12   3   -0.17    2.97
   0 -12  -3    3.85    3.32
   0 -12   3   -1.16    3.36
   0  12  -3    4.11    4.35
   0  12   3    1.95    3.89
   0  12  -3    3.07    3.77
   1 -12   3   -3.18    3.17
  -1 -12  -3    2.24    3.15
   1 -12   3    4.12    3.41
  -1  12  -3    2.15    4.32
   1  12   3    1.65    3.76
  -2 -12  -3    3.72    3.19
  -2 -12  -3    0.68    3.25
   2 -12   3    9.78    3.89
  -2  12  -3    5.32    4.89
   2  12   3   -3.35    3.94
  -3 -12  -3    1.43    3.14
   3 -12   3    0.28    3.45
  12   0  -4   14.48    4.50
 -12   0   4    8.59    4.29
 -12   0   4   13.14    1.94
 -11   0   4   -0.84    3.09
 -11   0   4   -0.39    1.38
  11   0  -4    3.97    3.26
  11   0  -4   -5.35    2.76
  10   0  -4    7.36    3.23
 -10   0   4    2.45    1.43
 -10   0   4    4.63    3.15
  10   0  -4   -1.21    2.63
   9   0  -4   -1.62    2.50
  -9   0   4    0.95    1.25
   9   0  -4    1.23    2.54
  -9   0   4    1.41    2.59
  -8   0   4   44.51    4.86
  -8   0   4   44.54    4.20
   8   0  -4   46.47    4.84
  -8   0   4   49.22    2.91
   7   0  -4   -0.73    1.85
  -7   0   4    0.89    1.99
  -7   0   4    0.70    1.07
  -7   0   4   -2.05    2.15
  -7   0   4    0.41    1.00
  -6   0   4    1.34    0.92
  -6   0   4    4.18    2.08
   6   0  -4    1.85    1.63
  -6   0   4   -0.11    1.82
  -6   0   4    0.86    0.85
  -6   0   4   -1.01    1.33
   5   0  -4   -0.68    1.19
  -5   0   4    0.40    1.63
  -5   0   4   -0.66    0.72
  -5   0   4   -0.09    1.19
  -5   0   4   -0.54    1.59
  -5   0   4    0.46    0.70
   5   0  -4   -0.12    1.54
  -4   0   4   27.65    3.12
  -4   0   4   26.85    2.63
  -4   0   4   27.15    3.06
  -4   0   4   28.59    1.69
   4   0  -4   23.77    2.26
  -4   0   4   29.89    1.77
   4   0  -4   28.35    2.71
  -3   0   4   -0.36    1.51
  -3   0   4    0.86    0.88
  -3   0   4   -0.12    1.70
   3   0  -4   -1.96    1.21
  -3   0   4    0.39    1.61
  -3   0   4    0.98    1.09
  -3   0   4    0.97    0.91
  -2   0   4  460.72   16.06
   2   0  -4  448.75   16.12
  -2   0   4  462.23   16.71
   2   0  -4  443.21   16.66
  -2   0   4  468.35   15.99
  -2   0   4  471.45   16.61
  -2   0   4  463.63   16.09
  -1   0   4    0.42    1.35
   1   0  -4   -0.96    1.18
   1   0  -4   -0.80    0.69
  -1   0   4   -1.40    0.83
  -1   0   4   -0.39    1.34
   1   0  -4    0.27    0.96
  -1   0   4    0.02    1.07
  -1   0   4    1.03    0.97
   0   0  -4  373.89   13.15
   0   0   4  370.60   13.78
   0   0   4  389.09   13.52
   0   0  -4  375.85   13.70
   0   0   4  390.07   14.00
   0   0   4  368.18   13.76
   0   0  -4  373.68   13.95
   1   0   4    0.24    1.61
  -1   0  -4    1.52    1.53
   1   0   4   -0.32    1.66
  -1   0  -4    0.13    0.94
   1   0   4   -0.62    1.41
  -1   0  -4   -0.28    1.63
  -1   0  -4    0.45    1.50
  -2   0  -4   14.18    2.32
   2   0   4   11.51    2.08
  -2   0  -4   10.37    1.52
  -2   0  -4   11.07    1.93
  -2   0  -4    8.91    1.68
   2   0   4   13.22    2.17
   2   0   4   12.09    2.17
   3   0   4    0.27    1.62
  -3   0  -4    0.34    1.18
   3   0   4   -0.25    1.51
   3   0   4    0.08    1.55
  -3   0  -4    0.57    1.49
  -3   0  -4   -1.62    1.04
  -3   0  -4   -0.70    1.32
  -4   0  -4  338.38   13.60
  -4   0  -4  329.32   13.96
   4   0   4  346.71   13.44
   4   0   4  353.70   14.04
   4   0   4  372.16   13.94
  -4   0  -4  339.27   13.24
  -4   0  -4  342.83   12.80
   5   0   4   -1.97    1.78
  -5   0  -4    1.23    1.91
   5   0   4   -4.43    2.06
  -5   0  -4   -0.81    2.30
  -5   0  -4    1.45    1.81
  -6   0  -4   -5.10    2.28
   6   0   4    3.07    2.23
  -6   0  -4    0.77    2.11
  -6   0  -4   -2.29    1.94
   6   0   4    1.44    2.71
  -7   0  -4   -1.84    2.09
  -7   0  -4   -3.21    2.00
   7   0   4   -3.33    2.74
  -7   0  -4   -0.84    2.96
   8   0   4    0.88    3.08
  -8   0  -4    3.27    2.61
  -8   0  -4    4.79    2.71
  -8   0  -4    2.15    3.07
  -9   0  -4   -3.39    2.60
  -9   0  -4    2.87    3.49
  -9   0  -4   -1.92    2.57
   9   0   4   -1.09    3.37
 -10   0  -4   -0.01    2.96
 -10   0  -4   -2.24    2.86
 -12  -1   4    2.70    3.37
  12   1  -4    4.95    3.71
 -11  -1   4    1.10    1.07
 -11  -1   4   -4.36    2.86
  11  -1  -4   -4.03    2.78
  11  -1  -4   -1.50    3.16
  11   1  -4   -0.58    3.16
 -11   1   4    0.98    3.00
  11   1  -4   -4.33    2.89
 -11   1   4    0.23    1.60
  10  -1  -4   35.54    4.77
  10  -1  -4   36.03    5.32
 -10  -1   4   32.32    4.78
 -10  -1   4   24.27    2.13
 -10  -1   4   25.90    4.26
 -10   1   4   26.45    3.06
 -10   1   4   21.99    4.14
  10   1  -4   35.37    5.61
  -9  -1   4   -0.43    2.30
  -9  -1   4    1.84    2.55
  -9  -1   4    1.15    0.98
   9  -1  -4   -0.19    2.35
   9  -1  -4    0.34    2.67
  -9   1   4    2.07    2.70
  -9   1   4   -0.36    1.37
   9   1  -4    3.54    2.79
   8  -1  -4    2.38    2.67
  -8  -1   4    2.44    2.57
  -8  -1   4    2.56    0.95
  -8  -1   4    2.50    2.40
  -8  -1   4    3.18    0.98
   8  -1  -4    0.23    2.27
  -8  -1   4    3.16    2.31
  -8   1   4    3.95    2.34
  -8   1   4   -1.44    2.36
   8   1  -4    2.87    2.48
  -8   1   4    2.07    1.40
  -7  -1   4  137.86    6.93
   7  -1  -4  142.56    7.57
  -7  -1   4  146.27    7.53
   7  -1  -4  150.05    7.33
  -7  -1   4  140.90    7.39
   7   1  -4  143.18    7.50
  -7   1   4  153.64    6.78
  -7   1   4  148.91    6.12
   7   1  -4  145.00    6.66
  -7   1   4  138.74    7.33
  -7   1   4  145.45    7.82
   6  -1  -4   21.72    2.84
  -6  -1   4   19.75    2.67
  -6  -1   4   20.16    3.10
   6  -1  -4   18.81    2.73
  -6  -1   4   18.06    2.71
  -6   1   4   16.28    2.95
  -6   1   4   14.44    2.13
  -6   1   4   16.31    2.12
  -6   1   4   15.51    2.62
  -6   1   4   21.51    2.05
   6   1  -4   16.41    2.44
  -5  -1   4    1.48    1.53
   5  -1  -4   -0.67    1.14
  -5  -1   4    2.29    1.66
  -5  -1   4    1.33    1.44
   5  -1  -4    0.44    1.49
  -5  -1   4   -0.17    1.51
  -5   1   4    0.21    0.98
  -5   1   4    2.61    1.75
  -5   1   4    2.02    1.01
  -5   1   4   -1.25    1.02
  -5   1   4   -2.41    1.53
   4  -1  -4   89.86    4.77
  -4  -1   4   91.04    4.63
  -4  -1   4   96.35    5.06
  -4  -1   4   92.45    4.61
   4  -1  -4   95.85    4.24
  -4  -1   4   89.73    4.76
  -4  -1   4   89.87    4.87
  -4   1   4   94.26    4.11
  -4   1   4   96.30    4.40
  -4   1   4   95.98    4.09
  -4   1   4   99.51    5.18
  -4   1   4   97.06    5.14
  -3  -1   4  741.38   26.40
  -3  -1   4  775.66   26.86
  -3  -1   4  778.86   25.74
  -3  -1   4  758.67   25.71
  -3  -1   4  772.11   26.36
  -3  -1   4  757.76   26.69
   3  -1  -4  740.14   25.94
  -3  -1   4  801.06   26.75
   3  -1  -4  715.47   26.51
  -3   1   4  737.20   26.86
  -3   1   4  753.21   26.91
  -3   1   4  765.31   26.19
  -3   1   4  758.05   26.22
  -3   1   4  752.28   26.48
  -2  -1   4   70.78    4.20
  -2  -1   4   78.99    3.66
  -2  -1   4   68.89    3.20
   2  -1  -4   69.24    3.55
   2  -1  -4   71.92    4.15
  -2  -1   4   71.39    3.09
  -2  -1   4   78.52    4.19
  -2   1   4   71.11    3.57
  -2   1   4   73.34    3.51
  -2   1   4   66.21    4.12
  -2   1   4   71.49    3.91
   2   1  -4   68.52    3.13
   2   1  -4   68.21    3.75
  -1  -1   4    4.18    1.58
  -1  -1   4    2.88    1.06
  -1  -1   4    1.14    1.55
   1  -1  -4    1.68    1.50
  -1  -1   4    3.54    1.28
   1  -1  -4    1.87    1.10
   1  -1  -4    2.58    1.06
  -1  -1   4   -1.21    1.07
  -1   1   4    1.40    1.11
   1   1  -4    3.40    0.55
  -1   1   4    3.48    1.62
   1   1  -4    1.37    1.29
  -1   1   4    2.22    1.43
  -1   1   4    0.97    1.25
  -1   1   4    2.55    0.73
   0  -1  -4   33.92    2.42
   0  -1  -4   36.35    2.94
   0  -1   4   45.90    3.29
   0  -1   4   43.92    2.99
   0  -1   4   42.92    3.01
   0  -1  -4   37.84    3.26
   0   1   4   39.17    2.48
   0   1   4   45.90    3.53
   0   1   4   36.20    2.85
   0   1  -4   35.76    3.02
   0   1  -4   40.60    2.67
   0   1   4   37.10    3.09
   0   1  -4   39.55    3.16
  -1  -1  -4   15.34    2.01
   1  -1   4   17.05    2.66
   1  -1   4   13.98    2.14
  -1  -1  -4   15.09    2.14
  -1  -1  -4   13.95    2.39
   1  -1   4   19.14    2.76
  -1   1  -4   13.91    2.22
   1   1   4   19.91    3.06
   1   1   4   13.97    1.82
   1   1   4   17.98    2.52
  -1   1  -4   16.47    1.59
  -1   1  -4   18.07    2.74
  -1   1  -4   14.22    2.02
   1   1   4   11.85    2.09
   2  -1   4  103.71    5.37
  -2  -1  -4   97.27    5.26
   2  -1   4  102.51    5.07
  -2  -1  -4  106.23    4.73
  -2  -1  -4  104.10    5.13
   2  -1   4  107.64    5.30
  -2  -1  -4  101.53    4.52
  -2   1  -4   89.73    5.24
   2   1   4   99.22    5.25
  -2   1  -4  105.02    4.39
   2   1   4   95.50    5.31
  -2   1  -4  102.98    5.03
   2   1   4  104.47    5.23
   3  -1   4    9.59    2.09
  -3  -1  -4    5.81    1.72
   3  -1   4    2.88    1.87
  -3  -1  -4    6.27    1.20
  -3  -1  -4    6.86    2.10
  -3  -1  -4    6.64    1.58
   3  -1   4    5.44    1.74
   3   1   4    8.27    1.99
   3   1   4    5.47    1.94
  -3   1  -4    7.10    1.65
   3   1   4    5.31    1.84
  -3   1  -4    4.91    1.61
  -3   1  -4    8.56    1.49
  -3   1  -4    5.55    1.98
   4  -1   4    3.41    2.19
  -4  -1  -4    8.65    1.95
  -4  -1  -4    6.86    2.11
   4  -1   4    5.98    1.86
   4  -1   4    5.82    2.14
  -4  -1  -4    2.17    2.11
  -4   1  -4    3.86    1.56
  -4   1  -4    7.46    1.82
  -4   1  -4    4.94    2.35
  -4   1  -4    8.90    2.15
   4   1   4    5.14    2.14
   4   1   4    3.23    2.00
   4   1   4    6.77    2.17
  -5  -1  -4   14.66    2.65
   5  -1   4   22.12    3.39
  -5  -1  -4   20.18    2.78
  -5  -1  -4   20.93    3.37
   5  -1   4   28.04    3.24
  -5   1  -4   14.23    2.76
   5   1   4   13.25    3.02
  -5   1  -4   17.78    3.44
   5   1   4   19.57    2.88
  -5   1  -4   18.73    2.97
  -5   1  -4   23.63    3.22
  -6  -1  -4    6.59    2.40
  -6  -1  -4   11.85    2.67
   6  -1   4    4.11    2.92
  -6  -1  -4   11.98    3.22
  -6   1  -4    5.27    2.26
   6   1   4    6.40    2.96
   6   1   4    7.63    2.45
  -6   1  -4    3.57    2.40
  -6   1  -4    7.47    3.04
  -7  -1  -4   16.84    3.21
   7  -1   4   21.98    4.24
  -7  -1  -4   22.76    3.50
  -7  -1  -4   24.28    4.15
  -7   1  -4   23.66    4.10
  -7   1  -4   24.08    3.49
  -7   1  -4   35.62    4.67
   7   1   4   21.30    4.01
  -8  -1  -4    3.08    2.54
  -8  -1  -4    3.26    2.55
   8  -1   4   -0.94    3.14
  -8  -1  -4    2.21    2.99
   8   1   4    3.09    3.37
  -8   1  -4    1.77    2.62
  -8   1  -4   -0.50    2.49
  -8   1  -4   -0.37    3.10
   9  -1   4   -4.90    3.27
  -9  -1  -4    0.85    2.80
  -9  -1  -4    3.77    2.69
  -9  -1  -4   -1.14    3.27
  -9   1  -4    0.66    3.47
  -9   1  -4    6.28    2.92
   9   1   4   -0.64    3.51
  -9   1  -4    0.95    2.62
  10  -1   4   14.46    4.89
 -10  -1  -4   16.34    3.94
 -10  -1  -4    9.74    4.58
 -10   1  -4   16.71    4.21
 -12  -2   4    8.32    3.93
  12   2  -4   10.98    4.24
 -11  -2   4   16.19    4.07
 -11  -2   4   21.91    4.13
  11  -2  -4   29.58    4.88
 -11   2   4   21.52    2.86
 -11   2   4   22.44    4.42
  11   2  -4   23.85    4.75
  10  -2  -4   23.16    4.02
  10  -2  -4   22.03    4.15
 -10  -2   4   16.86    3.67
 -10  -2   4   18.91    3.81
 -10   2   4   17.57    2.52
 -10   2   4   17.09    3.78
  10   2  -4   17.51    4.10
   9  -2  -4    2.89    2.88
  -9  -2   4    4.17    2.58
   9  -2  -4    6.81    2.73
  -9  -2   4    1.98    2.58
  -9   2   4    2.86    1.78
  -9   2   4    3.28    2.90
  -9   2   4    2.20    2.57
   9   2  -4    6.37    3.05
   8  -2  -4    6.41    2.76
  -8  -2   4    2.61    2.42
  -8  -2   4    7.03    2.66
   8  -2  -4    4.51    2.47
  -8   2   4    6.36    2.77
  -8   2   4    4.55    2.54
  -8   2   4    4.98    1.72
   8   2  -4    4.28    2.69
  -7  -2   4    7.05    2.36
   7  -2  -4    5.92    2.33
   7  -2  -4    2.19    2.05
  -7  -2   4    6.01    2.00
  -7  -2   4    6.77    2.29
  -7   2   4    4.03    2.44
   7   2  -4    0.33    2.04
  -7   2   4    4.80    1.62
  -7   2   4    6.97    2.49
   7   2  -4    3.02    2.00
  -6  -2   4    5.19    2.09
   6  -2  -4    7.21    2.15
  -6  -2   4    2.92    1.82
   6  -2  -4    6.98    1.90
  -6  -2   4    7.10    2.11
  -6   2   4    7.39    1.96
  -6   2   4    6.46    2.24
  -6   2   4    9.17    2.50
  -6   2   4    5.77    1.48
   6   2  -4    6.24    1.84
  -5  -2   4    6.73    1.89
  -5  -2   4    9.40    1.97
   5  -2  -4    9.08    2.04
   5  -2  -4    7.27    1.51
  -5  -2   4    6.27    1.81
  -5  -2   4    8.00    1.86
  -5  -2   4   10.31    1.98
  -5   2   4    9.40    2.12
  -5   2   4    8.36    1.48
  -5   2   4    8.78    1.28
  -5   2   4    6.80    2.07
  -5   2   4    9.83    1.58
  -4  -2   4   11.43    2.04
  -4  -2   4   10.95    1.91
   4  -2  -4    9.28    1.32
   4  -2  -4   12.82    2.04
  -4  -2   4   11.19    1.76
  -4  -2   4   11.01    1.86
  -4  -2   4   13.78    2.08
  -4   2   4   11.84    1.59
  -4   2   4   12.16    1.64
  -4   2   4    8.77    1.45
  -4   2   4    7.35    1.89
  -4   2   4    8.39    2.23
  -3  -2   4  891.98   30.46
  -3  -2   4  897.96   30.99
  -3  -2   4  943.23   30.90
   3  -2  -4  817.38   30.77
  -3  -2   4  891.54   29.84
  -3  -2   4  864.18   30.95
   3  -2  -4  861.50   29.93
  -3  -2   4  890.51   29.85
  -3   2   4  888.08   30.58
  -3   2   4  888.57   31.15
  -3   2   4  897.66   30.61
   3   2  -4  857.46   30.73
  -3   2   4  874.54   30.58
  -3   2   4  860.79   31.06
  -2  -2   4  286.21   10.16
   2  -2  -4  275.38   11.02
   2  -2  -4  265.84   10.63
   2  -2  -4  267.72   10.58
  -2  -2   4  285.86   11.04
  -2  -2   4  301.85   10.80
  -2  -2   4  285.86   11.02
  -2  -2   4  288.74   10.12
  -2  -2   4  294.89   10.11
  -2   2   4  270.17   11.01
  -2   2   4  288.00   10.81
  -2   2   4  257.53   10.63
  -2   2   4  288.96   10.65
   2   2  -4  282.83   10.64
   1  -2  -4  558.76   19.22
   1  -2  -4  547.91   19.39
  -1  -2   4  551.40   19.23
  -1  -2   4  524.73   19.38
  -1  -2   4  532.44   18.93
  -1  -2   4  551.52   18.91
   1  -2  -4  524.87   19.04
   1   2  -4  530.01   19.47
  -1   2   4  534.41   19.32
   1   2  -4  519.77   19.06
  -1   2   4  529.24   18.29
  -1   2   4  533.63   19.37
  -1   2   4  533.88   19.20
   0  -2  -4    0.60    1.67
   0  -2  -4   -1.43    1.34
   0  -2  -4   -0.61    1.33
   0  -2   4    0.77    1.27
   0  -2   4    0.09    1.69
   0  -2   4   -0.44    1.64
   0  -2   4    1.17    1.60
   0   2   4   -3.02    1.96
   0   2   4    0.81    1.48
   0   2  -4    1.31    2.02
   0   2   4    0.01    1.11
   0   2   4    1.00    1.53
   0   2  -4    1.45    1.31
   0   2  -4    2.10    1.55
   1  -2   4    9.64    1.24
  -1  -2  -4    9.40    1.76
   1  -2   4    5.52    1.82
  -1  -2  -4    7.55    2.00
  -1  -2  -4   11.60    1.80
   1  -2   4    8.84    1.95
   1  -2   4   11.13    2.11
  -1   2  -4    7.54    1.65
   1   2   4    6.10    1.77
   1   2   4    9.54    1.58
  -1   2  -4    9.21    1.90
   1   2   4    8.41    1.69
  -1   2  -4   11.27    2.39
   1   2   4   12.15    2.41
  -2  -2  -4    0.84    1.40
  -2  -2  -4    0.56    1.68
  -2  -2  -4    2.13    1.39
   2  -2   4   -1.54    1.64
   2  -2   4   -0.71    1.40
   2  -2   4   -0.04    1.71
   2   2   4    1.06    1.01
   2   2   4    0.30    1.51
   2   2   4    0.26    1.47
   2   2   4   -1.02    1.76
  -2   2  -4    1.03    1.48
  -2   2  -4    4.90    1.68
  -2   2  -4   -0.76    1.65
  -3  -2  -4   47.94    2.50
  -3  -2  -4   45.47    3.65
   3  -2   4   54.39    3.55
  -3  -2  -4   43.29    3.43
   3  -2   4   52.29    4.07
   3  -2   4   45.37    3.86
  -3  -2  -4   52.02    4.07
   3   2   4   45.14    3.80
  -3   2  -4   50.81    4.01
  -3   2  -4   46.06    2.98
   3   2   4   45.68    3.80
  -3   2  -4   59.79    3.94
   3   2   4   47.10    3.98
  -3   2  -4   52.59    3.63
   4  -2   4    2.50    2.05
  -4  -2  -4    1.12    1.70
  -4  -2  -4    0.83    1.82
  -4  -2  -4   -1.35    2.10
   4  -2   4   -0.37    1.50
   4  -2   4   -1.39    1.91
  -4   2  -4    1.57    1.86
  -4   2  -4    1.57    1.48
   4   2   4    0.42    2.00
  -4   2  -4    3.25    2.41
   4   2   4    3.67    2.20
  -4   2  -4    4.41    2.01
   5  -2   4   35.92    3.54
   5  -2   4   44.08    4.76
  -5  -2  -4   36.93    4.12
  -5  -2  -4   36.20    4.05
  -5  -2  -4   42.73    4.68
   5   2   4   38.02    4.19
  -5   2  -4   33.77    4.68
  -5   2  -4   33.52    3.50
  -5   2  -4   41.26    4.33
  -5   2  -4   34.49    4.25
   5   2   4   39.79    4.59
  -6  -2  -4  107.18    6.50
   6  -2   4  111.73    7.42
  -6  -2  -4  117.04    6.69
  -6  -2  -4  107.59    7.29
  -6   2  -4  111.97    7.61
   6   2   4  126.64    6.88
  -6   2  -4  102.19    6.21
   6   2   4  122.67    7.59
  -6   2  -4  114.51    6.92
   7  -2   4   97.83    7.34
  -7  -2  -4   95.65    6.44
  -7  -2  -4   86.12    6.45
  -7  -2  -4   89.65    6.94
   7   2   4   98.44    7.28
  -7   2  -4   91.28    7.06
  -7   2  -4   98.26    6.68
   7   2   4   88.85    7.11
  -8  -2  -4   72.65    6.18
   8  -2   4   77.30    7.32
   8  -2   4   86.26    6.41
  -8  -2  -4   73.75    6.11
  -8  -2  -4   76.29    6.82
   8   2   4   98.20    7.77
  -8   2  -4   88.88    6.58
  -8   2  -4   76.53    7.09
  -9  -2  -4   -2.76    2.69
  -9  -2  -4    5.00    3.78
   9  -2   4   11.23    4.25
  -9  -2  -4    4.33    2.80
   9  -2   4    4.06    3.18
  -9   2  -4    0.85    3.37
  -9   2  -4    5.10    3.18
   9   2   4    1.59    3.84
  11  -3  -4   11.81    4.04
 -11  -3   4   12.96    3.89
 -11  -3   4   11.98    3.79
 -11   3   4   16.70    2.88
 -11   3   4    7.44    3.57
  11   3  -4   15.77    4.52
  10  -3  -4   65.25    6.31
 -10  -3   4   59.65    5.76
 -10  -3   4   65.29    6.05
 -10   3   4   63.71    6.31
 -10   3   4   58.38    4.68
  10   3  -4   70.99    6.73
  -9  -3   4    2.75    2.72
   9  -3  -4    0.21    2.41
  -9  -3   4    4.06    2.62
   9  -3  -4    1.40    2.70
  -9   3   4    3.41    2.86
  -9   3   4    0.87    1.80
  -9   3   4    1.91    2.71
   9   3  -4    5.53    3.02
   8  -3  -4    7.56    2.84
  -8  -3   4    5.12    2.60
  -8  -3   4    1.28    2.37
   8  -3  -4    4.18    2.33
  -8   3   4    0.53    2.48
   8   3  -4    2.52    2.32
  -8   3   4    1.93    1.79
   8   3  -4    2.65    2.57
  -8   3   4    4.03    2.59
  -7  -3   4    1.36    1.91
   7  -3  -4   -1.01    1.88
   7  -3  -4    7.11    2.58
  -7  -3   4    4.04    2.18
  -7  -3   4    1.49    2.10
  -7   3   4    0.83    2.47
  -7   3   4    0.69    2.34
   7   3  -4    3.69    2.24
  -7   3   4    0.43    1.54
  -6  -3   4  281.23   11.53
  -6  -3   4  272.05   11.40
  -6  -3   4  284.66   11.59
   6  -3  -4  301.75   12.14
   6  -3  -4  279.90   11.27
  -6  -3   4  297.53   12.21
  -6   3   4  284.02   12.15
  -6   3   4  284.81   12.10
   6   3  -4  283.15   11.76
  -6   3   4  288.51   11.18
  -5  -3   4    0.13    1.50
  -5  -3   4   -0.05    1.83
   5  -3  -4    1.14    1.71
   5  -3  -4    0.38    1.22
  -5  -3   4   -0.47    1.52
  -5  -3   4    0.26    1.80
  -5   3   4    0.29    1.28
  -5   3   4   -2.55    1.94
  -5   3   4    1.89    1.06
  -5   3   4    0.96    1.80
  -4  -3   4   -0.26    1.29
  -4  -3   4    0.26    1.32
  -4  -3   4    0.78    1.65
   4  -3  -4    0.39    1.55
  -4  -3   4    1.41    1.75
   4  -3  -4   -0.45    0.94
   4   3  -4    0.03    1.43
  -4   3   4    1.74    1.17
  -4   3   4   -0.64    1.52
  -4   3   4    1.61    1.30
  -4   3   4   -0.78    1.52
  -4   3   4   -0.59    1.25
   3  -3  -4    4.26    1.61
  -3  -3   4    3.07    1.21
  -3  -3   4    4.97    0.85
  -3  -3   4    1.28    1.67
   3  -3  -4    3.84    0.84
  -3  -3   4    5.37    1.96
   3  -3  -4    4.12    1.68
  -3  -3   4    4.30    0.90
  -3   3   4    2.53    1.39
   3   3  -4    4.95    1.31
   3   3  -4    1.73    1.60
  -3   3   4    3.46    1.67
  -3   3   4    2.66    2.00
  -3   3   4    3.41    1.49
  -3   3   4    1.46    1.42
  -2  -3   4   21.51    2.85
   2  -3  -4   21.04    2.95
  -2  -3   4   17.38    2.78
  -2  -3   4   21.50    1.86
  -2  -3   4   21.11    1.88
  -2  -3   4   26.98    2.14
   2  -3  -4   14.25    2.09
  -2   3   4   23.57    2.73
  -2   3   4   19.95    2.89
   2   3  -4   18.49    2.60
  -2   3   4   21.17    3.24
  -1  -3   4   49.84    3.00
  -1  -3   4   52.94    3.59
   1  -3  -4   52.97    3.58
  -1  -3   4   52.57    3.71
  -1  -3   4   54.32    3.20
  -1  -3   4   54.18    2.29
   1  -3  -4   51.08    3.45
   1  -3  -4   51.21    3.62
  -1   3   4   52.68    3.64
   1   3  -4   44.81    4.15
   1   3  -4   49.77    3.15
  -1   3   4   51.47    3.71
  -1   3   4   46.09    3.83
   0  -3   4  104.65    5.73
   0  -3  -4  111.94    5.48
   0  -3   4  119.73    5.56
   0  -3  -4  127.60    5.78
   0  -3   4  127.24    5.48
   0  -3   4  118.39    5.69
   0  -3  -4  127.68    5.83
   0   3  -4  121.62    5.45
   0   3   4  126.02    5.01
   0   3   4  127.57    5.88
   0   3   4  122.37    5.59
   0   3   4  118.21    5.86
   0   3  -4  116.56    5.44
   1  -3   4    0.14    1.61
   1  -3   4    4.41    1.70
  -1  -3  -4    1.77    1.59
   1  -3   4    2.03    1.85
  -1  -3  -4    2.11    1.47
  -1  -3  -4    0.70    1.51
   1  -3   4    2.91    0.83
   1   3   4    4.63    1.44
   1   3   4    3.49    1.34
   1   3   4    1.82    1.89
  -1   3  -4    1.88    1.49
  -1   3  -4    2.09    1.86
   1   3   4    3.43    1.73
  -1   3  -4    2.09    1.55
  -2  -3  -4  541.32   19.57
   2  -3   4  530.22   18.63
   2  -3   4  545.88   19.67
   2  -3   4  541.54   19.82
  -2  -3  -4  516.43   19.36
  -2  -3  -4  554.99   19.61
   2  -3   4  534.04   19.36
   2   3   4  493.89   19.56
  -2   3  -4  527.62   19.62
  -2   3  -4  528.93   19.59
   2   3   4  521.86   19.87
  -2   3  -4  545.19   19.76
   2   3   4  536.23   19.41
   2   3   4  529.22   18.72
   3  -3   4   96.01    5.02
   3  -3   4  103.29    4.60
  -3  -3  -4   95.28    5.47
   3  -3   4  106.36    5.69
   3  -3   4  105.05    5.78
  -3  -3  -4   97.81    5.56
  -3  -3  -4   92.45    5.15
  -3   3  -4  101.24    5.87
   3   3   4  101.74    5.85
   3   3   4   97.51    5.59
   3   3   4   96.39    5.54
  -3   3  -4   87.29    5.33
  -3   3  -4   96.82    5.76
   4  -3   4    4.74    2.50
   4  -3   4    4.43    2.35
  -4  -3  -4    3.28    1.93
   4  -3   4    2.84    1.58
  -4  -3  -4    5.16    2.14
  -4  -3  -4    5.99    2.42
   4  -3   4    2.67    1.77
  -4   3  -4    3.46    2.11
   4   3   4    3.58    2.44
   4   3   4    2.34    2.17
  -4   3  -4    7.48    3.02
  -4   3  -4    4.64    2.45
  -5  -3  -4   58.82    4.88
   5  -3   4   66.09    5.52
  -5  -3  -4   48.84    5.22
  -5  -3  -4   60.36    4.73
   5  -3   4   65.52    4.31
   5   3   4   53.91    5.41
  -5   3  -4   51.29    4.95
  -5   3  -4   55.60    5.46
   5   3   4   53.32    4.93
  -5   3  -4   42.13    4.62
  -6  -3  -4   -0.40    2.31
  -6  -3  -4    0.27    2.18
   6  -3   4    5.56    2.84
   6  -3   4   -1.55    1.86
  -6  -3  -4    1.32    2.63
   6   3   4   -0.47    2.56
   6   3   4    1.34    2.67
  -6   3  -4   -3.96    2.50
  -6   3  -4   -1.09    2.16
  -7  -3  -4   18.84    3.80
  -7  -3  -4   20.26    3.29
  -7  -3  -4   31.20    4.45
   7  -3   4   16.20    3.88
   7  -3   4   26.55    3.96
   7   3   4   21.58    4.06
  -7   3  -4   20.58    3.57
  -7   3  -4   25.57    4.24
   7   3   4   20.81    3.82
   8  -3   4    2.58    3.30
  -8  -3  -4   -0.08    2.36
  -8  -3  -4   -2.83    2.63
  -8  -3  -4   -1.03    2.61
   8   3   4    1.21    3.13
  -8   3  -4    0.74    2.81
  -8   3  -4   -5.57    2.65
   9  -3   4    4.37    3.71
  -9  -3  -4   -1.63    2.67
  -9  -3  -4    1.69    3.39
  -9  -3  -4    1.30    2.73
   9   3   4    0.82    3.69
  -9   3  -4    0.62    3.33
  -9   3  -4   -3.70    2.80
 -11  -4   4    5.00    3.00
  11  -4  -4   -0.74    3.31
 -11   4   4   -0.85    2.10
 -11   4   4   -0.54    2.86
  11   4  -4   -0.02    3.45
 -10  -4   4    4.59    2.90
  10  -4  -4   -1.51    2.98
 -10   4   4   -1.63    2.80
  10   4  -4    1.79    3.42
 -10   4   4    2.74    2.24
  -9  -4   4    4.94    2.63
  -9  -4   4   11.18    3.08
   9  -4  -4   16.29    3.62
  -9   4   4    7.87    3.42
   9   4  -4    4.51    3.11
  -9   4   4   10.88    2.54
  -9   4   4    6.59    3.12
   8  -4  -4   19.08    3.61
  -8  -4   4   17.24    3.10
   8  -4  -4   14.80    3.64
  -8  -4   4   19.13    3.11
  -8   4   4   13.58    2.59
   8   4  -4   17.11    3.64
  -8   4   4   16.73    3.61
   8   4  -4   19.46    3.38
  -8   4   4    7.44    3.00
   7  -4  -4   14.90    3.03
  -7  -4   4   19.43    3.53
  -7  -4   4   12.79    2.62
   7  -4  -4   22.92    3.54
  -7  -4   4   16.07    2.96
   7   4  -4   16.90    3.02
  -7   4   4   10.68    3.32
  -7   4   4   12.57    2.99
  -7   4   4   13.42    2.43
  -6  -4   4   14.20    2.51
   6  -4  -4    9.04    2.65
  -6  -4   4   14.27    2.42
  -6  -4   4    9.69    2.81
   6  -4  -4    6.69    1.88
  -6   4   4   13.55    3.09
  -6   4   4   13.97    2.35
  -6   4   4   16.54    2.93
   6   4  -4    8.05    2.18
   6   4  -4   11.06    2.72
  -5  -4   4  133.52    6.02
   5  -4  -4  134.31    6.78
  -5  -4   4  132.93    6.25
  -5  -4   4  136.38    6.99
   5  -4  -4  133.01    5.87
   5   4  -4  120.91    6.37
  -5   4   4  122.37    6.83
  -5   4   4  137.35    7.15
  -5   4   4  132.91    6.34
   4  -4  -4   89.57    4.23
  -4  -4   4   95.62    5.44
  -4  -4   4   95.76    5.49
  -4  -4   4   98.84    3.74
   4  -4  -4   88.53    5.16
  -4  -4   4   97.12    4.72
  -4   4   4   93.55    4.41
   4   4  -4   88.01    4.97
  -4   4   4   95.61    5.59
  -4   4   4   83.14    5.04
  -4   4   4   89.59    4.97
  -3  -4   4   20.74    1.89
  -3  -4   4   17.00    2.02
  -3  -4   4   17.83    1.66
   3  -4  -4   15.85    2.21
  -3  -4   4   15.12    2.37
   3  -4  -4   19.80    2.74
  -3  -4   4   18.10    2.53
   3  -4  -4   16.50    1.65
  -3   4   4   16.45    2.19
  -3   4   4   18.16    2.62
  -3   4   4   16.26    2.43
   3   4  -4   16.83    2.39
   3   4  -4   18.30    1.94
  -3   4   4   13.70    2.17
  -2  -4   4  105.45    4.44
  -2  -4   4  107.20    5.44
   2  -4  -4  104.55    5.31
   2  -4  -4  100.30    5.26
   2  -4  -4  105.78    4.16
  -2  -4   4   95.29    5.42
  -2  -4   4  104.02    4.56
   2  -4  -4  100.69    5.27
  -2  -4   4  105.16    4.59
   2   4  -4  104.14    4.43
   2   4  -4   96.05    5.53
  -2   4   4  110.25    5.33
  -2   4   4   98.77    5.46
  -2   4   4  104.95    5.28
  -1  -4   4    3.48    1.91
  -1  -4   4    3.58    1.28
  -1  -4   4    3.67    1.91
   1  -4  -4    5.13    1.64
  -1  -4   4    3.69    0.93
   1  -4  -4    6.59    1.70
   1  -4  -4    5.55    1.67
   1  -4  -4    5.59    1.11
  -1  -4   4    3.89    1.36
  -1   4   4    6.51    2.02
  -1   4   4    1.81    1.67
  -1   4   4    3.17    1.61
   1   4  -4    4.49    1.19
   1   4  -4    6.49    2.17
   0  -4   4   94.50    3.75
   0  -4   4   92.16    5.09
   0  -4  -4   85.15    4.20
   0  -4  -4   95.99    4.79
   0  -4  -4   89.37    4.82
   0  -4   4   91.48    4.76
   0  -4  -4  103.54    5.08
   0  -4   4   91.94    4.98
   0  -4   4   94.93    5.11
   0   4   4   90.24    5.00
   0   4   4   86.73    5.20
   0   4  -4   90.32    5.35
   0   4   4   92.88    4.75
   0   4  -4   90.83    4.37
   0   4  -4   94.20    4.69
   1  -4   4  208.99    8.37
  -1  -4  -4  184.94    8.29
   1  -4   4  200.87    8.41
  -1  -4  -4  198.36    8.22
   1  -4   4  204.71    8.69
   1  -4   4  200.69    7.31
  -1  -4  -4  192.15    8.46
   1   4   4  203.36    7.98
   1   4   4  189.06    8.79
   1   4   4  193.88    7.95
  -1   4  -4  196.64    8.11
  -1   4  -4  207.35    8.89
   1   4   4  195.04    8.53
  -1   4  -4  188.43    8.34
  -2  -4  -4   54.96    4.03
  -2  -4  -4   57.62    3.92
   2  -4   4   59.68    3.05
  -2  -4  -4   55.85    3.99
   2  -4   4   59.61    3.94
   2  -4   4   54.63    4.18
   2  -4   4   56.56    4.19
  -2   4  -4   60.66    4.13
   2   4   4   61.42    3.85
   2   4   4   57.62    4.63
  -2   4  -4   64.96    4.60
   2   4   4   59.19    3.21
   2   4   4   54.24    4.15
  -2   4  -4   60.44    4.10
  -3  -4  -4    0.18    1.85
   3  -4   4   -1.18    1.27
  -3  -4  -4    1.29    1.78
  -3  -4  -4    1.64    1.80
   3  -4   4   -2.66    2.03
   3  -4   4    0.80    1.95
   3  -4   4    2.22    1.63
  -3   4  -4   -2.01    1.92
   3   4   4    2.68    2.21
   3   4   4    0.14    1.88
  -3   4  -4    3.16    2.12
  -3   4  -4    2.56    1.93
   4  -4   4   15.57    2.88
  -4  -4  -4   18.92    3.01
   4  -4   4   19.76    3.08
  -4  -4  -4   18.71    2.79
  -4  -4  -4   19.10    3.10
   4  -4   4   18.79    3.23
   4  -4   4   22.77    2.86
   4   4   4   20.13    3.11
   4   4   4   19.20    3.33
  -4   4  -4   17.41    3.11
  -4   4  -4   27.21    3.67
  -4   4  -4   20.88    3.67
   5  -4   4    5.93    2.95
  -5  -4  -4    5.45    2.37
  -5  -4  -4    6.47    2.40
  -5  -4  -4    7.59    2.70
   5  -4   4   10.42    2.21
  -5   4  -4    6.56    2.92
   5   4   4    7.93    2.85
   5   4   4    8.80    3.12
  -5   4  -4   10.13    3.11
  -5   4  -4   12.54    2.97
  -6  -4  -4   36.47    4.72
   6  -4   4   44.52    5.41
   6  -4   4   43.09    4.21
  -6  -4  -4   53.16    5.01
  -6  -4  -4   43.43    5.41
  -6   4  -4   44.16    5.24
   6   4   4   50.59    5.58
  -6   4  -4   43.88    5.20
  -6   4  -4   50.00    5.37
   6   4   4   48.57    5.49
  -7  -4  -4   17.42    3.29
   7  -4   4    7.29    3.47
  -7  -4  -4   19.91    3.81
  -7  -4  -4   19.65    3.52
  -7   4  -4   23.36    3.98
  -7   4  -4   14.39    3.74
   7   4   4   15.82    3.68
   7   4   4   15.41    3.67
  -8  -4  -4   10.34    2.99
  -8  -4  -4    9.17    3.39
   8  -4   4   -2.45    3.02
  -8  -4  -4    6.91    3.25
   8   4   4    5.14    3.69
  -8   4  -4   10.19    3.86
  -8   4  -4    8.45    3.44
  -9  -4  -4    6.79    3.77
  -9  -4  -4    0.06    3.00
  -9  -4  -4    6.45    2.95
   9  -4   4    9.67    4.29
   9   4   4    4.91    3.91
  -9   4  -4    7.61    3.53
  -9   4  -4    2.87    3.64
 -11  -5   4    6.38    3.43
  11   5  -4    4.98    3.96
  10  -5  -4   10.48    3.68
 -10  -5   4   12.90    3.46
 -10   5   4    5.96    3.29
 -10   5   4    7.01    2.80
  10   5  -4   11.26    4.00
 -10   5   4   12.81    3.87
   9  -5  -4   -2.67    2.56
  -9  -5   4   -0.97    2.46
  -9   5   4    7.07    3.35
  -9   5   4    0.66    2.67
   9   5  -4    5.90    3.27
   9   5  -4   -0.85    2.76
  -9   5   4    3.31    2.30
   8  -5  -4   52.49    5.45
  -8  -5   4   42.15    4.96
  -8   5   4   47.39    4.46
  -8   5   4   47.06    6.01
  -8   5   4   56.41    5.46
   8   5  -4   40.25    5.30
  -7  -5   4   57.74    4.93
  -7  -5   4   51.85    5.46
   7  -5  -4   47.19    4.93
  -7   5   4   49.83    4.49
  -7   5   4   38.24    5.31
  -7   5   4   44.69    4.95
   7   5  -4   39.60    4.96
  -6  -5   4    2.59    2.66
  -6  -5   4    5.17    0.85
   6  -5  -4    7.50    2.15
  -6  -5   4    5.42    0.83
   6  -5  -4    5.13    2.47
  -6  -5   4    5.36    2.13
   6   5  -4    7.95    2.27
  -6   5   4    3.62    2.88
  -6   5   4    6.37    2.57
  -6   5   4    6.77    2.16
   6   5  -4    7.98    2.91
  -5  -5   4    0.57    1.76
   5  -5  -4    2.99    1.63
  -5  -5   4    5.43    2.12
  -5  -5   4    3.29    0.97
   5  -5  -4    4.82    2.14
  -5  -5   4    2.09    2.42
  -5  -5   4    2.49    1.00
  -5   5   4    0.53    2.28
  -5   5   4    2.15    2.07
   5   5  -4    3.79    2.63
  -5   5   4    2.39    1.88
   5   5  -4    3.09    1.99
  -4  -5   4   84.71    3.85
   4  -5  -4   75.90    5.01
   4  -5  -4   85.73    4.18
  -4  -5   4   77.22    5.41
  -4  -5   4   80.00    4.51
  -4  -5   4   81.02    3.73
   4   5  -4   78.07    4.98
  -4   5   4   84.33    5.67
  -4   5   4   82.73    5.00
  -4   5   4   87.47    4.45
   4   5  -4   83.19    3.96
  -4   5   4   75.91    4.98
  -3  -5   4  162.96    6.48
   3  -5  -4  163.53    7.46
  -3  -5   4  170.40    6.58
  -3  -5   4  163.00    6.79
  -3  -5   4  153.50    7.64
  -3  -5   4  157.88    7.78
   3  -5  -4  153.52    7.41
   3  -5  -4  158.18    6.41
   3   5  -4  159.72    6.24
  -3   5   4  167.20    7.38
  -3   5   4  169.85    7.12
   3   5  -4  159.21    7.70
  -3   5   4  158.88    7.86
  -3   5   4  148.58    7.42
   2  -5  -4    6.43    1.96
   2  -5  -4    7.51    1.32
  -2  -5   4    7.52    1.42
   2  -5  -4    7.56    1.91
   2  -5  -4    7.99    1.82
  -2  -5   4   11.22    2.36
  -2  -5   4    5.57    2.05
  -2  -5   4    7.30    1.46
  -2  -5   4    7.20    1.61
  -2   5   4    6.57    2.24
  -2   5   4    9.16    2.07
  -2   5   4    8.07    2.01
   2   5  -4    8.56    2.14
   2   5  -4    7.68    1.12
  -1  -5   4  166.27    7.57
   1  -5  -4  159.18    6.95
  -1  -5   4  151.68    6.83
   1  -5  -4  166.82    6.44
  -1  -5   4  158.23    6.25
  -1  -5   4  151.23    6.77
   1  -5  -4  143.86    7.14
   1  -5  -4  157.73    7.34
  -1  -5   4  161.05    7.45
  -1   5   4  159.57    7.32
   1   5  -4  156.29    6.21
  -1   5   4  163.12    7.43
  -1   5   4  153.73    7.25
   1   5  -4  159.11    7.64
   0  -5   4  132.20    5.23
   0  -5   4  127.52    6.39
   0  -5   4  142.14    6.70
   0  -5  -4  125.25    6.27
   0  -5  -4  133.85    5.72
   0  -5   4  122.37    6.02
   0  -5  -4  131.22    5.99
   0  -5  -4  129.05    6.38
   0   5   4  129.69    6.47
   0   5  -4  126.76    6.60
   0   5   4  125.22    6.38
   0   5  -4  130.65    5.57
   0   5   4  121.42    6.14
   0   5  -4  120.62    6.64
   1  -5   4  210.74    9.13
   1  -5   4  202.38    9.08
  -1  -5  -4  216.76    8.81
   1  -5   4  223.43    8.11
  -1  -5  -4  213.06    9.15
  -1  -5  -4  210.52    8.78
  -1  -5  -4  200.48    9.23
   1  -5   4  222.73    9.56
  -1   5  -4  220.46    9.21
   1   5   4  194.65    9.27
  -1   5  -4  228.26    9.82
   1   5   4  219.32    9.55
  -1   5  -4  225.05    8.83
   1   5   4  197.80    8.71
   2  -5   4   26.41    3.32
   2  -5   4   26.60    2.42
   2  -5   4   25.64    3.91
  -2  -5  -4   26.37    3.26
  -2  -5  -4   26.11    3.42
  -2  -5  -4   26.46    3.51
   2  -5   4   24.37    3.65
   2   5   4   29.89    4.14
  -2   5  -4   21.99    3.20
  -2   5  -4   26.88    4.10
   2   5   4   26.65    3.62
  -2   5  -4   28.23    3.34
   2   5   4   25.41    2.66
   2   5   4   26.33    3.28
   3  -5   4    3.40    2.20
   3  -5   4    9.05    2.65
  -3  -5  -4   11.07    2.40
  -3  -5  -4    3.78    2.22
  -3  -5  -4    3.25    2.11
   3  -5   4    5.08    1.96
   3  -5   4    3.09    1.55
   3   5   4    7.64    2.31
  -3   5  -4    4.70    2.25
  -3   5  -4    7.72    2.37
   3   5   4    7.18    2.90
  -3   5  -4   10.22    3.03
   4  -5   4  119.48    7.00
   4  -5   4  113.35    7.17
  -4  -5  -4  108.13    6.53
   4  -5   4  114.05    5.78
  -4  -5  -4  122.51    6.69
  -4  -5  -4  122.32    6.72
  -4   5  -4  112.93    6.77
  -4   5  -4  118.30    7.50
   4   5   4  119.65    6.92
   4   5   4  111.23    7.28
  -4   5  -4  110.04    6.74
  -5  -5  -4   16.39    3.04
  -5  -5  -4   16.87    3.22
   5  -5   4   13.41    3.58
  -5  -5  -4   10.15    2.95
   5   5   4   15.22    3.61
  -5   5  -4   13.38    3.19
  -5   5  -4   18.08    3.92
  -5   5  -4   13.98    3.28
   5   5   4   15.06    3.29
  -6  -5  -4   79.98    6.17
  -6  -5  -4   88.15    6.44
  -6  -5  -4   72.66    5.75
   6  -5   4   81.59    6.85
  -6   5  -4   75.22    6.84
   6   5   4   86.88    6.86
  -6   5  -4   92.44    6.69
   6   5   4   79.14    6.64
  -6   5  -4   90.09    6.93
   7  -5   4    3.95    3.23
  -7  -5  -4    0.74    2.46
  -7  -5  -4   -3.04    2.49
  -7  -5  -4   -0.02    2.70
  -7   5  -4    0.62    2.89
   7   5   4    0.97    3.16
   7   5   4   -0.51    3.04
  -8  -5  -4    0.40    2.44
  -8  -5  -4   -0.51    3.31
   8  -5   4   -2.24    3.33
  -8  -5  -4    0.78    2.85
   8   5   4    2.33    3.47
  -8   5  -4    1.55    3.18
   8   5   4    4.49    3.55
  -9  -5  -4   11.20    4.10
  -9  -5  -4   11.43    3.86
  -9   5  -4   11.60    4.75
   9   5   4   16.15    7.31
 -10  -6   4   29.32    4.46
  10  -6  -4   25.50    4.75
 -10   6   4   24.17    4.93
  10   6  -4   26.11    5.14
 -10   6   4   19.21    4.30
 -10   6   4   27.82    4.02
   9  -6  -4   23.73    4.21
  -9  -6   4   13.94    3.41
  -9   6   4   21.39    3.65
  -9   6   4   22.36    4.44
   9   6  -4   21.79    4.32
   9   6  -4   19.72    4.13
  -9   6   4   16.00    3.94
  -8  -6   4   52.08    6.25
  -8  -6   4   64.05    5.46
   8  -6  -4   56.16    5.71
   8   6  -4   62.61    6.33
  -8   6   4   54.10    6.55
  -8   6   4   58.77    5.42
  -8   6   4   59.23    6.07
  -7  -6   4   93.27    7.10
  -7  -6   4   98.06    6.28
   7  -6  -4   85.41    6.56
  -7   6   4   94.55    6.26
   7   6  -4   92.84    6.81
  -7   6   4   98.45    6.65
  -7   6   4   98.42    7.25
  -6  -6   4    9.67    1.35
  -6  -6   4    9.49    1.33
  -6  -6   4    8.07    2.42
   6  -6  -4    9.36    2.84
  -6  -6   4   10.46    3.19
  -6   6   4    3.61    2.84
   6   6  -4   10.95    3.25
  -6   6   4   10.69    2.71
   6   6  -4    9.67    3.18
  -6   6   4   11.64    2.90
  -5  -6   4    3.36    1.95
  -5  -6   4    1.50    1.16
   5  -6  -4    2.91    2.28
  -5  -6   4    3.70    2.41
   5   6  -4    5.66    2.76
   5   6  -4    0.26    1.90
  -5   6   4    1.92    2.05
  -5   6   4    3.53    2.23
  -5   6   4   -1.56    2.61
  -4  -6   4    6.50    2.48
  -4  -6   4    6.88    1.91
   4  -6  -4    3.67    2.24
   4  -6  -4    4.04    1.64
  -4  -6   4    5.40    1.50
   4   6  -4    9.23    3.04
  -4   6   4    4.54    1.91
  -4   6   4    5.99    2.66
   4   6  -4    6.45    2.38
  -4   6   4    7.02    2.48
  -4   6   4    5.20    2.07
   3  -6  -4    9.54    2.18
  -3  -6   4    4.24    1.63
  -3  -6   4    9.15    2.57
   3  -6  -4    8.70    1.65
   3  -6  -4    5.17    2.19
  -3  -6   4   10.53    1.91
  -3   6   4    8.02    2.26
  -3   6   4    9.06    2.45
  -3   6   4    6.46    2.70
   3   6  -4    6.69    2.53
   2  -6  -4   17.53    2.45
  -2  -6   4   19.22    2.92
  -2  -6   4   18.31    3.04
   2  -6  -4   15.84    2.55
   2  -6  -4   20.85    2.42
  -2  -6   4   20.21    2.80
   2  -6  -4   19.33    2.77
  -2  -6   4   23.55    2.46
   2   6  -4   23.66    3.31
  -2   6   4   20.40    2.88
  -2   6   4   17.73    2.80
  -2   6   4   19.14    2.94
  -1  -6   4   -1.91    2.06
  -1  -6   4   -0.38    2.05
   1  -6  -4    1.17    1.35
   1  -6  -4    3.57    2.02
  -1  -6   4    0.23    1.24
   1  -6  -4   -2.23    1.65
  -1  -6   4   -0.69    1.53
   1  -6  -4   -0.04    1.55
  -1   6   4   -0.11    1.95
   1   6  -4    1.67    2.34
  -1   6   4    1.35    2.13
  -1   6   4    1.54    2.00
   0  -6   4   50.25    4.14
   0  -6  -4   51.44    4.31
   0  -6   4   68.06    4.78
   0  -6  -4   54.24    3.64
   0  -6  -4   56.26    4.45
   0  -6  -4   53.49    3.82
   0  -6   4   58.39    4.76
   0  -6   4   60.18    3.31
   0   6   4   50.16    4.08
   0   6  -4   55.50    3.39
   0   6  -4   54.18    4.94
   0   6   4   54.02    4.85
   0   6   4   52.39    4.50
  -1  -6  -4   36.53    3.84
  -1  -6  -4   39.73    4.07
   1  -6   4   35.57    3.88
   1  -6   4   37.47    2.75
   1  -6   4   32.16    4.14
   1  -6   4   38.13    3.83
  -1  -6  -4   35.86    3.34
  -1  -6  -4   36.35    3.51
   1   6   4   31.96    3.60
  -1   6  -4   31.50    4.18
   1   6   4   38.41    4.06
   1   6   4   33.35    4.61
  -1   6  -4   39.75    3.32
   2  -6   4   -0.51    1.90
  -2  -6  -4    4.75    2.26
  -2  -6  -4    3.14    1.88
   2  -6   4   -1.60    1.94
   2  -6   4    1.38    2.16
  -2  -6  -4    1.83    2.07
   2  -6   4    3.50    1.51
   2   6   4    4.39    1.77
  -2   6  -4    0.74    1.91
  -2   6  -4    1.91    2.75
   2   6   4    0.43    2.70
   3  -6   4   15.80    2.84
   3  -6   4   18.96    2.82
  -3  -6  -4   21.85    3.35
  -3  -6  -4   19.19    2.94
   3  -6   4   20.34    3.35
  -3  -6  -4   16.97    2.79
  -3   6  -4   17.88    2.86
   3   6   4   23.35    4.00
  -3   6  -4   19.79    4.09
   3   6   4   20.46    3.02
   4  -6   4   42.31    5.21
  -4  -6  -4   41.48    4.43
  -4  -6  -4   39.49    4.55
  -4  -6  -4   43.19    4.52
   4   6   4   43.07    5.54
  -4   6  -4   35.39    4.47
  -4   6  -4   38.65    5.86
   4   6   4   43.06    4.87
   5  -6   4    2.33    2.91
  -5  -6  -4   -1.79    2.30
  -5  -6  -4    8.19    2.89
  -5  -6  -4    2.76    2.63
  -5   6  -4    9.73    3.66
   5   6   4    0.05    2.84
  -5   6  -4    1.35    2.58
   5   6   4   -0.25    3.04
  -6  -6  -4   12.21    3.35
   6  -6   4   12.54    3.91
  -6  -6  -4   12.19    3.14
  -6   6  -4   12.48    3.43
  -6   6  -4   10.18    3.70
   6   6   4   17.92    3.92
   6   6   4   16.37    4.11
  -7  -6  -4   46.22    5.56
  -7  -6  -4   40.64    5.06
   7  -6   4   28.89    5.19
   7   6   4   19.16    4.57
  -7   6  -4   38.09    5.70
   7   6   4   31.72    4.97
  -7   6  -4   29.47    5.25
   8  -6   4   -0.44    3.76
  -8  -6  -4    3.46    3.21
  -8  -6  -4    8.54    2.99
   8   6   4    7.59    3.93
  -8   6  -4    4.62    3.52
   8   6   4    4.75    3.76
  10  -7  -4   20.63    5.85
 -10  -7   4   14.26    3.77
  10   7  -4   20.36    5.51
 -10   7   4   13.00    4.16
 -10   7   4   17.21    3.79
 -10   7   4   17.53    4.68
  -9  -7   4    3.48    3.17
   9  -7  -4    7.02    3.59
  -9   7   4    5.66    3.32
   9   7  -4    9.47    3.94
   9   7  -4   11.60    3.99
  -9   7   4    2.71    2.98
  -9   7   4    7.27    3.85
   8  -7  -4    9.77    3.57
  -8  -7   4   12.69    3.30
  -8  -7   4    8.09    3.91
  -8   7   4    4.52    3.67
  -8   7   4    7.67    3.31
   8   7  -4   11.37    3.60
  -8   7   4   14.65    3.34
  -7  -7   4    0.48    3.14
  -7  -7   4    0.91    1.11
  -7  -7   4    1.90    2.23
   7  -7  -4    2.19    2.74
  -7   7   4   -1.79    2.27
   7   7  -4    2.39    3.19
  -7   7   4    4.58    3.31
  -7   7   4   -2.34    2.24
   6  -7  -4    2.01    2.69
  -6  -7   4    3.20    3.02
  -6  -7   4    2.97    1.36
  -6  -7   4    3.01    2.24
  -6   7   4    3.94    2.57
  -6   7   4   -3.28    2.70
  -6   7   4    2.27    2.35
   6   7  -4    8.72    3.50
  -5  -7   4    7.88    1.72
  -5  -7   4    5.16    3.03
   5  -7  -4   11.79    3.17
  -5  -7   4   13.06    2.60
   5   7  -4   12.65    2.94
  -5   7   4    7.35    2.61
   5   7  -4   16.87    3.89
  -5   7   4   10.22    2.63
  -5   7   4   11.26    3.42
  -4  -7   4   -2.15    1.46
  -4  -7   4   -1.63    2.64
  -4  -7   4    3.95    1.93
   4  -7  -4    1.10    2.29
  -4   7   4   -1.75    1.78
  -4   7   4    1.44    2.62
   4   7  -4   -1.91    2.62
  -4   7   4    0.86    2.25
   4   7  -4   -4.25    2.23
  -3  -7   4   24.03    3.17
  -3  -7   4   22.91    3.52
   3  -7  -4   28.25    3.98
  -3  -7   4   23.95    3.14
   3  -7  -4   24.57    3.63
  -3   7   4   27.37    3.78
   3   7  -4   20.31    3.57
   3   7  -4   25.29    4.08
  -3   7   4   27.87    4.07
  -3   7   4   29.58    4.12
   2  -7  -4    2.36    1.85
  -2  -7   4    2.53    1.83
  -2  -7   4    1.60    1.61
   2  -7  -4    0.33    1.57
  -2  -7   4    2.23    2.48
   2  -7  -4   -1.68    2.04
   2   7  -4    0.07    2.45
  -2   7   4    4.53    2.45
   2   7  -4    3.86    2.68
  -2   7   4    0.21    2.09
  -2   7   4    5.59    2.73
   1  -7  -4   76.05    4.54
  -1  -7   4   76.36    4.94
  -1  -7   4   84.47    5.83
  -1  -7   4   73.62    5.37
   1  -7  -4   80.25    4.57
   1  -7  -4   69.50    5.24
  -1  -7   4   75.30    4.24
   1   7  -4   67.73    5.82
  -1   7   4   76.79    5.49
  -1   7   4   81.48    5.65
  -1   7   4   62.80    5.34
   0  -7  -4    0.78    1.63
   0  -7  -4   -0.67    2.02
   0  -7   4   -1.83    2.39
   0  -7  -4    1.82    2.25
   0  -7   4    3.54    2.13
   0  -7  -4    5.77    1.88
   0  -7   4   -1.15    2.27
   0  -7   4    3.05    1.53
   0   7   4   -0.45    3.54
   0   7   4   -1.85    2.49
   0   7   4   -0.56    2.07
   0   7  -4    3.43    2.77
  -1  -7  -4   18.46    3.28
  -1  -7  -4   18.15    2.73
   1  -7   4   17.87    2.78
   1  -7   4   15.93    3.07
  -1  -7  -4   20.24    3.17
   1  -7   4   13.64    2.81
   1   7   4   20.11    2.92
   1   7   4   22.74    3.80
  -1   7  -4   18.89    3.76
   2  -7   4    6.43    2.89
  -2  -7  -4    4.85    2.47
   2  -7   4   11.96    2.76
  -2  -7  -4   10.75    2.87
   2  -7   4    9.70    2.81
  -2  -7  -4    7.76    2.55
   2   7   4    9.51    3.09
  -2   7  -4    7.01    3.51
   3  -7   4    5.89    2.38
   3  -7   4    3.60    2.66
  -3  -7  -4    1.41    2.32
   3  -7   4    0.92    2.43
  -3  -7  -4    2.41    2.43
   3   7   4    4.57    2.47
   3   7   4    6.83    3.34
  -3   7  -4    6.32    2.25
  -3   7  -4    6.71    3.68
  -4  -7  -4    7.89    2.77
  -4  -7  -4   12.10    2.90
   4  -7   4   13.45    3.43
   4   7   4   15.98    3.28
  -4   7  -4    6.42    3.58
  -4   7  -4   13.49    2.94
   4   7   4   11.32    3.85
  -5  -7  -4   -0.08    2.46
   5  -7   4    1.31    2.95
  -5  -7  -4    0.36    2.42
  -5   7  -4    6.96    3.65
   5   7   4    5.90    2.85
   5   7   4    2.33    3.47
  -5   7  -4    2.88    2.64
  -6  -7  -4    6.18    3.14
  -6  -7  -4    4.74    2.90
   6  -7   4    5.66    3.69
   6   7   4    3.80    3.71
  -6   7  -4    5.51    3.02
   6   7   4    0.40    3.09
  -6   7  -4    1.71    3.77
  -7  -7  -4   20.85    4.52
   7  -7   4   35.85    5.42
  -7  -7  -4   17.53    3.82
  -7   7  -4   26.42    4.97
   7   7   4   26.08    5.27
  -7   7  -4   24.48    4.47
   7   7   4   26.38    4.88
  -8  -7  -4    5.83    5.53
  -8  -7  -4   -0.19    2.84
   8   7   4    0.38    3.69
   8   7   4    2.66    3.78
  -8   7  -4    1.52    3.23
  -9  -8   4   11.87    3.60
   9  -8  -4    8.52    3.91
  -9   8   4    8.99    4.51
  -9   8   4    1.65    3.00
   9   8  -4   11.23    4.47
  -9   8   4    3.33    3.39
  -8  -8   4   -0.63    3.35
   8  -8  -4    5.39    3.24
  -8  -8   4    5.93    1.24
  -8  -8   4    4.42    2.78
   8   8  -4    3.01    3.76
  -8   8   4    7.23    3.16
  -8   8   4    5.99    3.84
  -8   8   4    3.81    2.84
  -7  -8   4    5.32    1.53
  -7  -8   4    6.21    3.52
   7  -8  -4    3.62    3.02
  -7  -8   4    6.30    2.82
  -7   8   4    5.08    2.87
  -7   8   4    5.39    3.61
  -7   8   4    6.94    2.80
   7   8  -4    7.49    3.57
  -6  -8   4   -0.64    1.44
  -6  -8   4    1.20    2.35
   6  -8  -4    3.44    2.95
  -6  -8   4   -4.05    2.73
  -6   8   4   -0.05    2.57
  -6   8   4    1.30    3.12
  -6   8   4    1.24    2.43
   6   8  -4    2.98    3.33
   5  -8  -4   22.36    3.84
  -5  -8   4   22.02    3.12
  -5  -8   4   24.14    3.00
  -5  -8   4   27.58    4.30
   5   8  -4   27.97    4.44
  -5   8   4   18.99    3.95
  -5   8   4   22.61    3.34
  -5   8   4   25.05    3.84
   5   8  -4   23.93    4.10
  -4  -8   4   59.32    4.71
  -4  -8   4   79.95    6.35
  -4  -8   4   78.34    4.54
   4  -8  -4   60.57    5.53
   4   8  -4   69.00    5.93
   4   8  -4   59.49    6.29
  -4   8   4   57.95    5.66
  -4   8   4   68.83    6.34
  -3  -8   4   58.16    4.49
   3  -8  -4   66.75    5.97
  -3  -8   4   61.54    4.48
  -3  -8   4   60.86    5.72
   3  -8  -4   70.60    5.51
   3   8  -4   60.14    5.60
  -3   8   4   62.30    5.12
  -3   8   4   62.07    6.13
   3   8  -4   68.09    6.10
  -3   8   4   62.13    5.68
  -2  -8   4   -1.25    2.63
  -2  -8   4   -0.96    1.92
  -2  -8   4   -1.31    1.70
   2  -8  -4   -2.05    2.38
   2   8  -4    0.19    2.87
   2   8  -4    3.31    2.87
  -2   8   4    2.49    2.82
  -2   8   4    0.86    2.34
  -2   8   4    1.01    2.56
  -1  -8   4   -1.15    1.97
   1  -8  -4    3.01    2.55
  -1  -8   4   -4.44    2.38
   1  -8  -4    2.45    2.17
  -1   8   4    1.26    2.67
  -1   8   4   -2.27    2.44
   1   8  -4   -4.97    2.37
   1   8  -4   -2.82    2.67
   0  -8  -4    0.98    2.62
   0  -8   4    5.37    2.46
   0  -8  -4    3.27    2.39
   0  -8  -4    3.58    2.11
   0  -8   4    0.32    2.77
   0   8   4    6.14    2.73
   0   8  -4    4.81    2.70
   0   8  -4    4.90    3.33
   0   8   4    5.71    3.00
  -1  -8  -4    0.06    2.03
  -1  -8  -4    0.71    2.41
   1  -8   4    0.82    2.37
   1  -8   4   -0.55    2.63
  -1  -8  -4    2.33    2.60
  -1   8  -4    1.48    2.38
   1   8   4    2.10    2.39
   1   8   4    0.68    2.91
  -1   8  -4   -2.29    3.22
  -2  -8  -4   20.17    3.55
  -2  -8  -4   19.94    3.73
   2  -8   4   24.58    3.72
  -2  -8  -4   20.95    3.35
   2  -8   4   13.48    3.23
   2   8   4   17.78    3.86
  -2   8  -4   16.37    4.25
  -3  -8  -4   57.60    5.55
  -3  -8  -4   72.16    6.07
   3  -8   4   78.74    6.37
  -3   8  -4   66.24    7.27
   3   8   4   77.08    7.02
  -4  -8  -4   37.76    4.93
  -4  -8  -4   38.17    5.04
   4  -8   4   34.91    5.29
   4   8   4   32.04    4.99
   4   8   4   40.95    5.18
  -4   8  -4   55.93    6.97
  -5  -8  -4   12.11    3.36
  -5  -8  -4   14.89    3.31
   5  -8   4   10.46    3.65
   5   8   4   12.97    3.64
  -5   8  -4   16.86    4.55
   5   8   4    7.29    4.02
  -6  -8  -4   -2.11    2.74
   6  -8   4   -0.19    3.16
  -6  -8  -4   -2.22    2.55
  -6   8  -4    4.43    3.82
   6   8   4   -3.16    3.50
   6   8   4   -2.17    3.23
  -7  -8  -4   -1.10    2.74
  -7  -8  -4   -4.96    2.94
   7  -8   4    4.77    3.90
   7   8   4   -0.82    4.08
   7   8   4    2.36    3.74
  -7   8  -4    0.75    3.92
  -8  -9   4   24.77    2.48
   8  -9  -4   27.86    4.74
  -8  -9   4   24.86    4.25
  -8  -9   4   23.40    5.21
  -8   9   4   27.82    4.58
   8   9  -4   22.36    5.34
  -8   9   4   34.23    5.68
   7  -9  -4   11.92    3.72
  -7  -9   4   14.48    2.14
  -7  -9   4   11.93    4.31
  -7  -9   4    7.94    3.10
  -7   9   4   15.60    4.46
   7   9  -4    5.85    3.75
  -7   9   4   15.37    3.75
   6  -9  -4    5.96    3.52
  -6  -9   4   12.68    2.27
  -6  -9   4   17.08    4.12
  -6  -9   4    8.84    2.88
  -6   9   4   14.99    4.28
  -6   9   4   17.57    3.82
   6   9  -4    4.20    3.48
   5  -9  -4    4.75    3.01
  -5  -9   4    2.02    3.11
  -5  -9   4    1.93    1.85
  -5  -9   4    1.12    2.25
  -5   9   4   -2.29    2.57
   5   9  -4    3.93    3.39
  -5   9   4   -2.73    3.01
   4  -9  -4   31.81    4.78
  -4  -9   4   21.60    3.21
  -4  -9   4   30.09    3.60
  -4  -9   4   22.05    4.11
   4   9  -4   26.23    4.55
   4   9  -4   33.40    5.07
  -4   9   4   28.43    4.60
  -4   9   4   18.37    3.94
  -3  -9   4    3.35    3.41
   3  -9  -4   10.19    3.06
  -3  -9   4   -1.07    1.99
  -3  -9   4    7.38    3.17
  -3   9   4    3.97    3.20
  -3   9   4    5.10    4.17
   3   9  -4    1.92    3.11
   3   9  -4   11.26    3.39
  -2  -9   4   37.98    5.36
   2  -9  -4   33.87    4.77
  -2  -9   4   37.98    4.42
   2   9  -4   34.61    5.43
  -2   9   4   31.24    4.47
  -2   9   4   34.69    4.99
   2   9  -4   42.07    5.73
  -1  -9   4  103.32    7.21
   1  -9  -4   83.69    6.46
  -1  -9   4   92.14    6.29
  -1   9   4  101.48    6.96
   1   9  -4  102.34    7.62
  -1   9   4   89.88    7.01
   1   9  -4  103.33    7.21
   0  -9   4   31.60    4.51
   0  -9  -4   33.57    4.69
   0  -9   4   31.48    4.63
   0  -9  -4   25.72    4.02
   0   9  -4   34.64    5.13
   0   9  -4   27.98    4.60
   0   9   4   25.87    4.22
   0   9   4   22.27    3.81
   1  -9   4   64.71    5.98
  -1  -9  -4   82.18    6.10
  -1  -9  -4   79.32    5.78
   1  -9   4   80.73    6.60
  -1  -9  -4   81.92    6.23
  -1   9  -4   79.04    7.64
   1   9   4   75.79    6.83
  -1   9  -4   75.03    6.26
  -2  -9  -4   38.91    5.39
  -2  -9  -4   32.19    4.96
  -2  -9  -4   31.47    4.72
   2  -9   4   43.32    5.22
   2  -9   4   41.39    5.40
  -2   9  -4   43.87    4.95
   2   9   4   37.58    5.87
  -2   9  -4   39.62    5.90
  -3  -9  -4    3.91    2.86
   3  -9   4   -0.25    2.79
  -3  -9  -4   -1.86    2.61
  -3  -9  -4    3.69    2.69
  -3   9  -4   -1.51    3.72
   3   9   4    4.00    3.59
   4  -9   4   -2.61    2.79
  -4  -9  -4   -0.50    2.82
  -4  -9  -4    4.89    3.04
  -4   9  -4   15.63    4.67
   4   9   4    4.55    3.84
   4   9   4    4.26    2.96
  -5  -9  -4   -0.14    2.76
   5  -9   4    0.03    3.33
  -5  -9  -4    2.35    2.90
   5   9   4    1.09    2.95
  -5   9  -4   -5.11    3.52
   5   9   4    2.45    3.91
  -6  -9  -4   -0.06    2.97
   6  -9   4   -1.42    3.40
  -6  -9  -4   -4.81    2.70
  -6   9  -4    0.04    3.77
   6   9   4    3.35    4.09
   6   9   4    6.64    3.78
  -7 -10   4   12.02    4.39
   7 -10  -4   19.13    4.52
  -7 -10   4    9.64    3.39
  -7 -10   4   16.29    2.35
   7  10  -4   16.94    4.96
  -7  10   4    8.84    4.57
  -6 -10   4    9.31    2.28
  -6 -10   4   16.04    4.30
   6 -10  -4   16.99    4.16
  -6  10   4   12.42    4.19
   6  10  -4    3.98    4.08
  -5 -10   4    1.85    2.05
   5 -10  -4    5.90    3.38
  -5 -10   4    3.07    3.54
   5  10  -4    3.12    3.67
  -5  10   4   -1.59    3.35
   4 -10  -4   25.68    4.27
  -4 -10   4   26.67    4.52
   4  10  -4   44.61    5.88
   4  10  -4   37.31    5.43
  -4  10   4   20.98    4.84
  -3 -10   4    6.66    3.43
   3 -10  -4    6.58    3.17
  -3 -10   4    3.94    2.50
  -3  10   4    0.82    3.39
   3  10  -4    4.46    3.44
   3  10  -4    4.51    3.40
  -2 -10   4   20.24    3.38
  -2 -10   4   21.91    4.04
   2 -10  -4   28.54    4.31
   2  10  -4   25.63    4.50
  -2  10   4   25.74    4.12
   2  10  -4   25.08    4.81
  -2  10   4   26.66    4.45
  -1 -10   4    2.99    2.67
  -1 -10   4    0.34    2.99
   1 -10  -4    3.88    2.98
  -1  10   4    4.55    3.35
  -1  10   4    1.10    2.96
   1  10  -4   -1.45    2.91
   1  10  -4    2.09    3.80
   0 -10  -4    9.74    3.32
   0 -10   4    8.00    3.37
   0 -10   4    5.79    2.96
   0  10   4    8.04    3.44
   0  10  -4   10.23    4.13
   0  10   4    7.66    3.26
   0  10  -4    9.03    3.41
  -1 -10  -4   17.38    3.69
  -1 -10  -4   13.47    3.45
   1 -10   4   22.43    3.92
   1 -10   4   17.26    4.09
  -1  10  -4   21.60    4.88
   1  10   4   12.69    4.00
  -1  10  -4   21.27    3.91
   2 -10   4   24.05    4.15
  -2 -10  -4   18.78    4.12
   2 -10   4   31.66    4.82
  -2 -10  -4   26.96    4.34
  -2  10  -4   19.96    5.10
   2  10   4   21.17    4.70
   3 -10   4   15.49    4.04
  -3 -10  -4   20.74    4.15
  -3 -10  -4   21.06    3.95
  -3  10  -4   24.58    5.23
   3  10   4   19.71    4.87
  -4 -10  -4   -0.03    2.86
   4 -10   4   -1.98    2.97
  -4 -10  -4   -0.17    3.02
  -4  10  -4   -2.12    3.90
   4  10   4   -2.20    3.84
   4  10   4    0.65    2.92
  -5 -10  -4   43.63    6.17
  -5 -10  -4   29.74    4.50
   5 -10   4   36.37    5.65
   5  10   4   46.02    6.71
   5  10   4   35.89    5.24
  -5  10  -4   33.86    5.93
  -6 -11   4    6.85    3.64
   6 -11  -4   -1.59    3.50
  -5 -11   4    0.08    2.21
  -5 -11   4   -2.35    3.66
   5 -11  -4    0.23    3.24
   5  11  -4    0.52    3.94
  -5  11   4    1.71    3.64
  -4 -11   4   -0.65    3.35
   4 -11  -4    3.54    3.20
   4  11  -4    2.98    3.90
  -4  11   4   -1.18    3.34
   3 -11  -4    3.76    3.14
  -3 -11   4    2.05    2.50
  -3 -11   4    7.26    3.67
   3  11  -4    1.70    3.85
  -3  11   4    6.86    3.73
   3  11  -4    6.47    4.12
   2 -11  -4    1.42    3.28
  -2 -11   4    6.65    2.76
  -2 -11   4    7.72    3.69
   2  11  -4   11.84    3.97
   2  11  -4    8.51    4.40
  -2  11   4    2.16    3.49
   1 -11  -4    2.99    3.16
  -1 -11   4    2.84    3.47
  -1 -11   4    0.49    2.77
   1  11  -4    6.62    3.56
   1  11  -4   -2.99    3.95
  -1  11   4    2.31    3.53
  -1  11   4    0.66    3.35
   0 -11   4    2.54    3.52
   0 -11  -4    8.76    3.50
   0 -11   4    4.90    3.05
   0  11  -4    4.27    4.55
   0  11  -4    4.58    3.47
   0  11   4   10.49    4.11
   1 -11   4    4.08    3.17
  -1 -11  -4    1.58    3.13
   1 -11   4    3.18    3.40
  -1  11  -4    0.04    3.07
   1  11   4    1.61    3.66
  -1  11  -4    3.02    4.09
   2 -11   4    6.92    3.64
   2 -11   4    3.79    3.13
  -2 -11  -4    0.46    2.93
  -2 -11  -4    2.57    3.32
   2  11   4    8.90    4.17
  -2  11  -4    0.30    4.32
   3 -11   4    7.46    3.71
  -3 -11  -4   -0.46    3.11
  -3 -11  -4   -1.21    3.13
  -3  11  -4  -10.89    3.81
   3  11   4   -4.24    3.82
   4 -11   4   -0.32    3.42
  -4 -11  -4   -0.97    3.15
   4 -12  -4   36.10    7.06
  -4  12   4   27.60    5.93
   3 -12  -4    4.87    3.71
  -3 -12   4    6.72    3.98
  -3 -12   4   -3.91    2.50
  -3  12   4   -4.57    3.75
   3  12  -4    0.94    3.90
   2 -12  -4   24.58    4.78
  -2 -12   4   21.34    3.99
  -2 -12   4   31.09    5.29
  -2  12   4   24.01    4.94
   2  12  -4   17.96    4.98
   2  12  -4   23.18    5.73
  -1 -12   4   40.34    5.73
  -1 -12   4   37.53    5.61
   1 -12  -4   32.32    5.05
   1  12  -4   40.70    6.45
   1  12  -4   50.00    6.83
  -1  12   4   32.45    5.25
  -1  12   4   40.08    5.77
   0 -12   4   11.45    4.20
   0 -12   4    7.89    3.63
   0 -12  -4    5.40    3.61
   0  12   4   -0.04    4.10
   0  12  -4    7.13    4.95
   0  12  -4    3.72    3.91
   1 -12   4    9.39    3.67
   1 -12   4   17.19    4.47
  -1 -12  -4   13.04    4.01
   1  12   4    9.50    4.70
  -1  12  -4   17.04    5.65
   2 -12   4   -0.89    4.01
   2  12   4   -0.26    5.12
 -12   0   5   -1.36    3.41
  11   0  -5   45.20    8.28
  11   0  -5   53.11    6.33
 -11   0   5   57.57    6.55
 -10   0   5    2.29    2.89
 -10   0   5   -0.76    0.99
  10   0  -5    0.97    2.65
  10   0  -5   -0.19    2.66
   9   0  -5   10.83    3.10
   9   0  -5    3.85    2.67
  -9   0   5    9.11    1.28
  -9   0   5   14.71    3.36
   8   0  -5   -2.10    2.15
   8   0  -5   -2.02    2.00
  -8   0   5    0.50    2.37
  -8   0   5    1.38    2.19
  -8   0   5   -1.33    0.88
  -8   0   5   -1.39    0.88
  -7   0   5  396.72   13.58
   7   0  -5  397.97   15.60
  -7   0   5  374.30   15.28
  -7   0   5  380.97   15.69
  -7   0   5  392.62   13.58
   7   0  -5  383.78   15.20
  -6   0   5   -0.63    0.76
  -6   0   5   -0.82    1.42
   6   0  -5    0.42    1.84
   6   0  -5   -0.34    1.42
  -6   0   5    4.77    2.16
  -6   0   5   -2.42    1.83
  -6   0   5    0.08    0.76
  -5   0   5  255.48    9.96
   5   0  -5  241.02    9.75
  -5   0   5  250.32   10.50
  -5   0   5  251.23    8.99
  -5   0   5  262.02   10.56
   5   0  -5  255.77   10.25
  -5   0   5  262.29    9.01
  -4   0   5   -0.68    1.65
  -4   0   5   -0.61    1.03
  -4   0   5   -2.21    1.32
  -4   0   5    0.04    0.82
  -4   0   5   -0.52    0.72
  -4   0   5    0.97    1.81
   4   0  -5   -0.68    1.23
   3   0  -5 1100.85   38.89
  -3   0   5 1140.58   38.62
  -3   0   5 1134.61   38.58
  -3   0   5 1149.55   38.60
   3   0  -5 1100.33   39.52
  -3   0   5 1147.51   39.56
  -3   0   5 1127.78   39.27
  -2   0   5    0.08    1.72
   2   0  -5   -0.90    0.98
  -2   0   5    0.35    1.05
  -2   0   5   -1.53    1.79
   2   0  -5    0.25    1.78
  -2   0   5   -0.37    1.22
  -2   0   5    1.39    1.02
   1   0  -5 1755.79   61.41
   1   0  -5 1757.85   61.79
  -1   0   5 1734.07   61.36
   1   0  -5 1757.86   60.91
  -1   0   5 1849.15   61.81
  -1   0   5 1855.12   61.81
  -1   0   5 1848.52   61.48
  -1   0   5 1821.62   61.11
   0   0   5    1.86    1.31
   0   0   5    0.70    1.52
   0   0  -5   -1.02    1.22
   0   0  -5   -1.81    1.80
   0   0   5    0.51    1.82
   0   0   5    0.97    1.49
   0   0  -5    1.03    0.94
  -1   0  -5   21.53    1.85
  -1   0  -5   19.40    2.69
  -1   0  -5   20.56    2.96
  -1   0  -5   21.46    2.76
   1   0   5   17.99    2.42
   1   0   5   16.92    2.54
   1   0   5   20.64    3.06
  -2   0  -5    0.31    1.26
   2   0   5   -0.60    1.44
  -2   0  -5   -1.38    1.41
  -2   0  -5    0.95    1.69
   2   0   5   -0.96    1.65
   2   0   5   -1.91    1.51
  -2   0  -5    0.49    0.99
   3   0   5  170.95    8.01
  -3   0  -5  162.01    8.06
  -3   0  -5  185.91    7.92
  -3   0  -5  169.05    7.16
   3   0   5  173.57    7.96
   3   0   5  173.66    8.04
  -3   0  -5  168.28    7.15
   4   0   5   -2.16    3.11
  -4   0  -5   -0.65    2.21
   4   0   5   -4.16    1.75
  -4   0  -5    1.36    1.61
  -4   0  -5    2.98    1.66
  -4   0  -5    1.51    1.84
   4   0   5    1.81    2.21
  -5   0  -5   51.62    4.61
  -5   0  -5   50.54    5.35
   5   0   5   43.41    5.01
   5   0   5   45.37    4.37
  -5   0  -5   42.40    3.95
   6   0   5    4.21    2.76
  -6   0  -5   -0.08    3.05
  -6   0  -5   -1.60    1.97
  -6   0  -5   -0.15    2.38
   6   0   5   -2.81    2.02
  -7   0  -5   -3.24    2.61
  -7   0  -5   -2.75    2.12
   7   0   5   -1.03    2.83
  -7   0  -5    6.24    2.87
  -8   0  -5    2.04    2.39
  -8   0  -5   -0.31    2.68
  -8   0  -5   -3.02    3.08
   8   0   5   -4.56    2.83
   9   0   5   22.25    5.16
  -9   0  -5   18.41    4.80
  -9   0  -5   22.28    4.16
  -9   0  -5   14.85    6.31
 -12  -1   5   12.33    4.01
 -12   1   5    7.93    1.70
  11  -1  -5   30.69    4.78
 -11  -1   5   28.21    4.60
  11   1  -5   24.74    4.57
 -11   1   5   23.87    4.44
 -11   1   5   29.43    2.80
  11   1  -5   25.05    4.59
 -10  -1   5    2.77    2.83
  10  -1  -5    3.71    4.50
  10  -1  -5   -3.11    2.71
  10   1  -5    5.07    3.17
 -10   1   5    1.89    2.77
  10   1  -5   -0.50    2.73
 -10   1   5    1.98    1.38
   9  -1  -5    6.97    2.75
  -9  -1   5    1.63    2.64
   9  -1  -5    5.48    3.03
  -9   1   5    4.38    2.49
   9   1  -5   -1.49    2.44
  -9   1   5    2.45    1.41
  -9   1   5    0.38    2.66
   8  -1  -5   64.80    5.35
  -8  -1   5   58.00    5.14
  -8  -1   5   60.19    4.96
   8  -1  -5   57.06    4.78
  -8  -1   5   52.40    4.82
  -8   1   5   58.40    3.36
  -8   1   5   66.19    5.49
  -8   1   5   52.36    5.01
   8   1  -5   55.33    4.89
  -7  -1   5    6.27    2.51
   7  -1  -5    8.21    2.48
   7  -1  -5    3.66    1.95
  -7  -1   5    6.99    2.28
  -7  -1   5    8.25    2.36
  -7   1   5    5.78    2.69
   7   1  -5    6.82    2.16
  -7   1   5    5.58    1.42
  -7   1   5    5.22    2.43
  -7   1   5    9.05    1.46
  -6  -1   5  929.41   32.33
  -6  -1   5  928.43   32.25
   6  -1  -5  885.58   32.35
  -6  -1   5  930.53   32.59
   6  -1  -5  877.95   31.82
  -6  -1   5  916.41   31.94
   6   1  -5  878.52   32.09
  -6   1   5  903.08   31.18
  -6   1   5  887.05   32.40
  -6   1   5  891.85   31.17
  -6   1   5  903.94   31.48
  -6   1   5  903.82   32.73
   5  -1  -5   42.72    2.75
  -5  -1   5   38.81    3.66
  -5  -1   5   40.50    3.27
  -5  -1   5   42.22    3.69
  -5  -1   5   48.64    3.48
   5  -1  -5   47.47    3.48
  -5   1   5   41.75    2.52
  -5   1   5   38.48    3.71
  -5   1   5   43.91    3.79
  -5   1   5   44.52    3.00
  -5   1   5   39.54    2.58
  -4  -1   5  438.89   16.64
  -4  -1   5  436.49   16.75
   4  -1  -5  441.88   15.75
  -4  -1   5  435.84   16.48
  -4  -1   5  441.86   16.20
   4  -1  -5  451.19   16.48
  -4   1   5  451.78   15.83
  -4   1   5  460.42   16.32
  -4   1   5  460.13   15.88
  -4   1   5  461.56   16.91
  -4   1   5  449.07   16.83
   4   1  -5  432.97   16.21
  -3  -1   5   -1.41    1.74
  -3  -1   5   -1.30    0.72
   3  -1  -5    0.09    0.64
  -3  -1   5    0.88    1.63
   3  -1  -5    0.80    1.72
  -3  -1   5    0.19    1.20
   3  -1  -5    0.49    1.26
  -3  -1   5   -0.10    0.90
  -3   1   5    1.56    1.17
  -3   1   5    0.95    1.09
   3   1  -5   -1.70    1.36
  -3   1   5   -1.40    1.49
  -3   1   5   -0.47    1.48
   3   1  -5    1.67    1.14
  -2  -1   5   20.50    3.17
  -2  -1   5   16.10    2.15
   2  -1  -5   16.20    2.36
  -2  -1   5   22.97    3.05
  -2  -1   5   19.75    1.91
   2  -1  -5   16.91    2.20
  -2  -1   5   17.65    2.36
  -2   1   5   17.65    2.44
  -2   1   5   22.40    2.26
  -2   1   5   17.84    1.21
   2   1  -5   18.55    1.64
   2   1  -5   17.88    2.67
  -2   1   5   15.81    2.37
  -2   1   5   17.60    2.45
   1  -1  -5   38.88    2.61
   1  -1  -5   39.94    3.58
  -1  -1   5   34.31    3.53
  -1  -1   5   36.87    2.75
  -1  -1   5   38.45    3.52
   1  -1  -5   40.00    2.98
  -1  -1   5   41.48    2.94
  -1  -1   5   45.72    3.04
  -1   1   5   34.37    2.81
  -1   1   5   41.49    3.18
   1   1  -5   41.37    3.48
  -1   1   5   39.48    3.35
   1   1  -5   38.89    1.81
  -1   1   5   35.81    3.37
  -1   1   5   42.87    2.23
   0  -1  -5    0.57    1.71
   0  -1   5    0.68    1.79
   0  -1  -5   -0.40    1.11
   0  -1  -5    1.28    1.39
   0  -1   5    2.14    1.47
   0  -1   5   -1.17    1.47
   0   1  -5   -1.36    1.07
   0   1   5    2.18    1.97
   0   1   5    0.88    1.60
   0   1  -5   -1.14    1.73
   0   1   5    0.56    1.14
   0   1   5   -0.44    1.54
   0   1  -5   -0.75    1.72
   1  -1   5    5.76    1.68
  -1  -1  -5    8.60    2.20
   1  -1   5    6.92    1.95
  -1  -1  -5    6.87    1.38
  -1  -1  -5    5.72    1.82
   1  -1   5    5.85    1.87
   1   1   5    6.22    2.01
  -1   1  -5    4.79    1.56
   1   1   5    6.96    2.24
   1   1   5    7.38    1.64
  -1   1  -5    5.02    1.88
  -1   1  -5    6.93    1.05
  -1   1  -5    5.07    1.95
   1   1   5    7.40    1.58
   2  -1   5  365.25   13.99
  -2  -1  -5  389.17   14.10
  -2  -1  -5  358.56   14.19
  -2  -1  -5  352.83   13.43
   2  -1   5  374.20   14.06
  -2  -1  -5  362.96   13.40
   2  -1   5  350.01   14.10
   2   1   5  377.65   14.18
  -2   1  -5  354.50   13.10
   2   1   5  361.72   14.19
  -2   1  -5  373.28   13.87
  -2   1  -5  360.98   14.00
  -2   1  -5  365.11   14.23
   2   1   5  359.59   13.89
  -3  -1  -5   16.37    2.83
  -3  -1  -5   23.99    2.61
   3  -1   5   20.99    3.28
   3  -1   5   21.19    2.87
  -3  -1  -5   24.22    2.47
  -3  -1  -5   21.43    3.21
   3  -1   5   18.83    2.60
  -3   1  -5   21.74    2.83
   3   1   5   21.93    3.50
  -3   1  -5   20.65    2.34
   3   1   5   24.78    3.43
  -3   1  -5   14.42    2.59
   3   1   5   24.77    3.39
  -3   1  -5   25.71    3.11
   4  -1   5   57.64    5.02
   4  -1   5   56.61    4.40
  -4  -1  -5   54.68    4.64
  -4  -1  -5   68.15    4.30
  -4  -1  -5   66.23    5.23
   4  -1   5   63.22    4.99
  -4   1  -5   53.41    3.80
  -4   1  -5   54.43    4.59
  -4   1  -5   53.74    5.06
   4   1   5   59.36    4.69
   4   1   5   63.09    4.96
  -4   1  -5   61.64    4.27
   5  -1   5   11.45    2.57
  -5  -1  -5   11.40    2.50
  -5  -1  -5   11.60    2.72
  -5  -1  -5   13.05    3.34
   5  -1   5    9.46    3.01
   5   1   5   16.80    3.38
  -5   1  -5    7.70    3.01
   5   1   5   13.45    2.88
  -5   1  -5   18.20    2.60
  -5   1  -5   16.22    2.90
   6  -1   5    3.41    2.94
  -6  -1  -5    9.91    2.75
  -6  -1  -5   10.56    3.40
  -6  -1  -5    8.78    2.73
  -6   1  -5    8.42    2.38
   6   1   5    9.17    2.73
  -6   1  -5    8.28    2.82
  -6   1  -5   11.63    3.60
   6   1   5    8.25    3.28
  -7  -1  -5   33.39    4.74
  -7  -1  -5   34.16    4.54
  -7  -1  -5   33.11    4.79
   7  -1   5   39.98    5.74
  -7   1  -5   36.96    5.10
   7   1   5   41.73    5.70
  -7   1  -5   38.43    5.25
  -7   1  -5   38.06    4.54
  -8  -1  -5    0.10    2.49
   8  -1   5    1.57    3.39
  -8  -1  -5   -2.88    2.50
  -8  -1  -5   -2.18    2.96
  -8   1  -5    4.02    2.87
  -8   1  -5    5.89    3.54
   8   1   5   -0.72    3.00
  -8   1  -5    4.53    4.01
  -9  -1  -5    3.54    3.17
   9  -1   5    6.13    3.91
  -9  -1  -5    4.88    4.04
  -9  -1  -5    9.69    3.42
  -9   1  -5   -0.36    3.73
  -9   1  -5    5.85    3.39
   9   1   5    8.87    4.17
 -12  -2   5   42.25    6.50
  12   2  -5   49.31    7.23
  11  -2  -5   -2.85    2.85
 -11  -2   5    0.65    2.97
 -11   2   5   -0.58    1.65
 -11   2   5    1.96    3.04
  11   2  -5    1.70    3.21
  10  -2  -5   27.73    4.47
 -10  -2   5   26.58    4.24
 -10  -2   5   36.11    5.04
  10   2  -5   25.26    4.39
 -10   2   5   34.95    3.28
 -10   2   5   40.36    5.40
  -9  -2   5    1.56    2.44
   9  -2  -5    1.41    2.69
  -9  -2   5   -2.56    2.21
   9   2  -5   -2.00    2.62
  -9   2   5   -0.87    2.49
  -9   2   5   -0.98    1.39
  -9   2   5    1.34    2.55
   8  -2  -5  317.89   14.01
   8  -2  -5  334.31   13.58
  -8  -2   5  322.71   13.28
  -8  -2   5  327.47   13.73
  -8  -2   5  328.22   13.86
   8   2  -5  300.82   15.60
  -8   2   5  320.78   12.37
   8   2  -5  329.08   13.89
  -8   2   5  341.40   14.28
  -8   2   5  321.69   13.80
  -7  -2   5    5.60    2.41
   7  -2  -5    3.74    2.37
  -7  -2   5    8.21    2.41
  -7  -2   5    9.90    2.39
   7  -2  -5    7.77    2.09
  -7   2   5    7.05    1.63
  -7   2   5    4.36    2.76
   7   2  -5    9.97    2.21
   7   2  -5    2.60    2.18
  -7   2   5    8.50    2.78
  -6  -2   5  142.12    6.87
  -6  -2   5  136.74    6.91
   6  -2  -5  135.88    6.25
  -6  -2   5  135.31    6.63
  -6  -2   5  146.66    7.05
   6  -2  -5  135.78    7.02
  -6  -2   5  142.16    7.08
  -6   2   5  135.88    6.02
  -6   2   5  140.76    7.25
  -6   2   5  136.10    7.35
  -5  -2   5   97.08    4.87
   5  -2  -5   86.27    4.32
  -5  -2   5   95.93    5.21
  -5  -2   5   99.52    5.29
   5  -2  -5   95.46    5.36
  -5  -2   5   94.31    5.42
  -5  -2   5   90.42    5.16
  -5   2   5   98.37    4.60
  -5   2   5   98.48    5.52
  -5   2   5   99.08    4.62
  -5   2   5   95.53    5.60
  -5   2   5  100.39    4.59
   4  -2  -5  249.01    9.11
  -4  -2   5  246.57   10.02
  -4  -2   5  252.63   10.31
  -4  -2   5  264.55   10.41
   4  -2  -5  247.84   10.16
  -4  -2   5  255.64    9.74
  -4   2   5  256.85    9.66
  -4   2   5  239.75   10.42
  -4   2   5  256.32   10.55
  -4   2   5  261.81    9.73
  -4   2   5  262.60    9.86
  -3  -2   5   30.79    3.25
   3  -2  -5   30.77    2.76
  -3  -2   5   26.92    3.26
   3  -2  -5   29.94    3.30
  -3  -2   5   29.28    2.26
  -3  -2   5   27.21    1.72
  -3  -2   5   32.27    2.85
  -3  -2   5   28.62    1.86
  -3   2   5   31.04    2.73
  -3   2   5   28.13    2.94
  -3   2   5   30.79    3.05
   3   2  -5   29.78    2.72
  -3   2   5   28.51    2.54
   2  -2  -5   19.28    2.96
  -2  -2   5   20.30    3.22
  -2  -2   5   22.67    2.18
   2  -2  -5   16.48    2.50
  -2  -2   5   21.02    1.91
  -2  -2   5   21.50    3.02
   2  -2  -5   19.61    2.44
  -2  -2   5   17.74    2.58
   2   2  -5   19.68    2.53
  -2   2   5   15.99    2.34
  -2   2   5   24.03    2.69
  -2   2   5   21.21    3.14
  -2   2   5   21.25    2.48
   2   2  -5   18.17    1.53
   1  -2  -5    4.79    1.41
   1  -2  -5    3.46    1.91
  -1  -2   5    3.16    1.92
  -1  -2   5    1.53    1.44
  -1  -2   5    3.70    1.25
   1  -2  -5    2.56    1.47
  -1  -2   5    2.36    1.58
   1   2  -5    3.38    2.02
  -1   2   5    2.62    1.94
  -1   2   5    1.58    1.54
  -1   2   5    4.05    0.79
  -1   2   5    4.22    1.74
   1   2  -5    2.01    1.52
   0  -2  -5   27.52    3.33
   0  -2  -5   25.56    2.86
   0  -2   5   28.79    3.17
   0  -2   5   29.41    2.97
   0  -2   5   24.51    2.81
   0  -2  -5   23.11    2.42
   0   2   5   32.44    3.50
   0   2  -5   31.23    3.13
   0   2  -5   23.44    2.48
   0   2   5   27.03    3.10
   0   2  -5   27.88    3.49
   0   2   5   27.89    2.68
   0   2   5   23.74    2.18
   1  -2   5  106.00    5.06
  -1  -2  -5   84.52    4.44
  -1  -2  -5   90.83    5.00
   1  -2   5   88.60    3.44
  -1  -2  -5   84.02    4.87
   1  -2   5   84.41    4.91
   1  -2   5   83.41    4.84
  -1   2  -5   88.93    4.94
   1   2   5   94.05    5.36
   1   2   5   94.12    4.50
   1   2   5   87.40    4.44
   1   2   5   91.55    5.03
  -1   2  -5   92.16    5.07
   2  -2   5  125.59    6.06
   2  -2   5  119.17    6.18
  -2  -2  -5  120.27    6.11
  -2  -2  -5  124.57    6.33
   2  -2   5  128.36    6.33
  -2  -2  -5  124.54    5.72
   2   2   5  125.99    6.00
  -2   2  -5  130.64    6.19
  -2   2  -5  119.31    6.23
  -2   2  -5  127.51    6.19
   2   2   5  127.46    5.37
   2   2   5  126.24    6.29
   2   2   5  118.07    6.25
  -3  -2  -5    1.07    1.91
   3  -2   5    2.65    1.93
  -3  -2  -5    3.24    1.23
   3  -2   5   -0.14    1.99
   3  -2   5    4.58    1.92
  -3  -2  -5    4.96    1.76
  -3  -2  -5   -0.03    1.68
  -3   2  -5    1.59    1.26
   3   2   5    2.45    2.28
  -3   2  -5    1.34    1.81
   3   2   5    1.24    1.83
  -3   2  -5    3.13    1.85
   3   2   5    2.23    1.89
  -3   2  -5    1.83    2.00
  -4  -2  -5    7.45    2.48
   4  -2   5   11.48    2.76
   4  -2   5   12.11    2.42
  -4  -2  -5    9.71    2.24
  -4  -2  -5    8.29    2.71
   4  -2   5    8.73    2.73
   4   2   5   11.45    2.73
  -4   2  -5   12.62    2.05
   4   2   5   14.61    2.98
  -4   2  -5   11.70    2.98
  -4   2  -5   12.64    2.54
  -4   2  -5    9.65    2.50
  -5  -2  -5   22.91    3.81
  -5  -2  -5   20.19    3.12
   5  -2   5    9.87    2.48
  -5  -2  -5   13.61    2.72
   5  -2   5   18.11    3.46
  -5   2  -5   16.06    2.49
  -5   2  -5   13.85    2.95
  -5   2  -5   19.82    3.74
   5   2   5   17.05    3.25
   5   2   5   16.44    3.26
  -5   2  -5    8.38    3.27
  -6  -2  -5    0.35    2.87
   6  -2   5    0.56    2.87
  -6  -2  -5   -0.52    2.18
  -6  -2  -5   -2.42    2.08
  -6   2  -5    5.14    2.76
   6   2   5    3.38    2.74
   6   2   5    0.50    2.87
  -6   2  -5    2.81    2.97
  -7  -2  -5   14.55    3.23
  -7  -2  -5    9.31    3.55
  -7  -2  -5    8.58    3.06
   7  -2   5    8.45    3.62
   7   2   5   18.78    4.03
  -7   2  -5   12.34    3.75
  -7   2  -5   11.20    3.34
  -8  -2  -5    1.51    2.81
   8  -2   5    8.60    3.98
  -8  -2  -5    2.70    3.25
  -8  -2  -5    8.17    3.07
  -8   2  -5    4.92    3.17
   8   2   5    4.52    3.72
  -8   2  -5    0.35    3.19
  -9  -2  -5   13.44    3.53
  -9  -2  -5    7.60    4.15
   9  -2   5   13.16    4.50
  -9  -2  -5   13.45    3.69
  -9   2  -5    1.47    3.75
  -9   2  -5    8.53    3.51
   9   2   5   10.33    4.37
  11  -3  -5    1.21    3.07
 -11  -3   5   -3.96    2.83
 -11  -3   5   -0.24    2.97
 -11   3   5    2.89    3.37
  11   3  -5    0.49    3.25
 -11   3   5   -0.58    1.89
 -10  -3   5   56.02    5.82
  10  -3  -5   49.75    5.95
 -10  -3   5   52.60    5.57
 -10   3   5   49.54    5.97
  10   3  -5   63.24    6.41
 -10   3   5   44.42    6.09
 -10   3   5   50.27    4.21
  -9  -3   5   35.82    5.00
  -9  -3   5   48.40    4.86
   9  -3  -5   50.15    5.45
  -9   3   5   36.80    5.16
  -9   3   5   42.50    5.38
   9   3  -5   49.13    5.43
  -9   3   5   43.13    3.82
   8  -3  -5   87.94    6.48
  -8  -3   5   88.82    5.92
  -8  -3   5   90.71    6.10
   8   3  -5   84.59    5.82
  -8   3   5   87.06    5.05
   8   3  -5   93.88    6.35
  -8   3   5   88.65    6.64
  -8   3   5   81.70    6.39
   7  -3  -5    4.96    2.59
  -7  -3   5    6.05    2.30
  -7  -3   5    5.01    2.35
  -7  -3   5    3.76    2.19
  -7  -3   5    3.67    2.58
  -7   3   5    6.29    1.85
  -7   3   5    5.09    2.61
   7   3  -5    6.56    2.43
  -7   3   5    3.09    2.57
  -6  -3   5   83.13    5.21
   6  -3  -5   88.94    5.61
  -6  -3   5   90.74    5.45
  -6  -3   5   94.30    5.28
  -6  -3   5   88.95    5.64
  -6  -3   5   86.24    5.51
   6  -3  -5   83.14    4.57
  -6   3   5   88.05    4.80
  -6   3   5   97.76    6.07
  -6   3   5   86.68    5.86
  -5  -3   5   41.36    3.79
  -5  -3   5   38.75    3.80
  -5  -3   5   35.10    3.72
  -5  -3   5   40.74    3.23
   5  -3  -5   34.25    3.60
   5  -3  -5   32.93    2.53
  -5  -3   5   39.81    3.42
  -5   3   5   34.08    4.03
  -5   3   5   35.75    3.92
  -5   3   5   35.77    3.13
  -5   3   5   32.75    2.75
  -4  -3   5  184.21    8.04
  -4  -3   5  176.94    7.18
   4  -3  -5  167.65    6.41
  -4  -3   5  183.66    7.89
   4  -3  -5  172.54    7.75
  -4   3   5  181.99    7.52
   4   3  -5  169.65    7.41
  -4   3   5  177.03    8.05
  -4   3   5  172.46    8.15
  -4   3   5  178.67    7.30
  -4   3   5  169.84    7.38
   3  -3  -5    0.57    1.29
  -3  -3   5   -0.17    0.98
  -3  -3   5   -0.80    1.78
  -3  -3   5    1.28    0.75
   3  -3  -5    0.28    1.42
  -3  -3   5    0.75    0.89
  -3  -3   5   -1.41    1.48
   3  -3  -5   -0.15    1.66
  -3   3   5    0.04    1.44
   3   3  -5    2.04    1.73
  -3   3   5    1.12    1.31
  -3   3   5    3.17    1.51
   3   3  -5    1.51    1.17
  -3   3   5    2.24    1.79
   2  -3  -5    1.30    1.64
  -2  -3   5    1.51    0.99
  -2  -3   5    2.30    0.82
   2  -3  -5    1.26    1.46
   2  -3  -5    0.83    1.34
  -2  -3   5    1.27    1.12
  -2  -3   5    2.36    1.66
  -2  -3   5    1.36    1.76
  -2   3   5    4.66    1.84
  -2   3   5    3.51    1.56
  -2   3   5    2.01    1.70
   2   3  -5    1.08    1.92
   2   3  -5   -1.13    1.11
   1  -3  -5  393.58   15.37
   1  -3  -5  405.47   15.52
   1  -3  -5  405.76   15.21
  -1  -3   5  417.50   15.64
  -1  -3   5  421.41   15.42
  -1  -3   5  423.98   15.02
  -1  -3   5  404.45   15.02
  -1   3   5  397.30   14.26
  -1   3   5  417.78   15.46
  -1   3   5  435.84   15.71
   1   3  -5  415.35   15.77
   1   3  -5  408.46   15.17
  -1   3   5  409.49   15.43
   0  -3   5   56.43    3.97
   0  -3   5   59.18    3.80
   0  -3  -5   52.38    3.87
   0  -3   5   64.16    3.95
   0  -3   5   57.33    3.81
   0  -3  -5   59.16    3.56
   0  -3  -5   55.50    3.78
   0   3  -5   51.84    4.29
   0   3   5   55.77    3.83
   0   3   5   55.40    3.04
   0   3  -5   54.00    3.48
   0   3   5   55.11    3.51
   0   3  -5   55.16    3.56
   0   3   5   53.35    4.33
   1  -3   5   36.52    3.58
   1  -3   5   33.69    3.33
  -1  -3  -5   41.30    3.67
  -1  -3  -5   37.46    3.31
  -1  -3  -5   39.02    3.05
   1  -3   5   36.53    3.51
   1  -3   5   36.57    1.74
   1   3   5   36.37    2.80
   1   3   5   41.65    3.92
   1   3   5   44.60    3.57
   1   3   5   44.52    2.99
  -1   3  -5   36.55    3.18
   2  -3   5   65.35    4.64
   2  -3   5   60.85    4.56
  -2  -3  -5   59.77    4.40
   2  -3   5   60.70    2.98
  -2  -3  -5   53.70    3.87
  -2  -3  -5   68.69    4.55
   2  -3   5   56.23    4.21
   2   3   5   60.95    3.40
   2   3   5   60.74    4.56
   2   3   5   72.01    4.21
   2   3   5   59.45    4.79
  -2   3  -5   63.91    4.25
  -2   3  -5   63.51    4.61
  -2   3  -5   63.77    4.38
   3  -3   5  251.81   10.68
  -3  -3  -5  238.49   10.49
   3  -3   5  228.08    9.12
   3  -3   5  249.80   10.62
  -3  -3  -5  247.90   10.06
   3  -3   5  235.27    9.96
  -3  -3  -5  226.75   10.25
  -3   3  -5  246.38   10.48
  -3   3  -5  229.78   10.48
   3   3   5  247.27   10.65
   3   3   5  238.82   10.27
  -3   3  -5  229.54   10.30
   3   3   5  243.34   10.74
   4  -3   5   41.71    3.30
  -4  -3  -5   50.08    4.19
   4  -3   5   42.82    4.57
  -4  -3  -5   41.88    4.77
   4  -3   5   43.59    4.74
  -4  -3  -5   42.52    4.45
   4  -3   5   37.87    3.74
  -4   3  -5   49.21    5.18
   4   3   5   45.83    4.55
  -4   3  -5   45.35    5.17
   4   3   5   41.25    4.80
  -4   3  -5   42.50    4.35
  -5  -3  -5   38.17    4.76
  -5  -3  -5   39.18    4.85
  -5  -3  -5   41.52    4.33
   5  -3   5   42.58    5.09
   5   3   5   42.33    4.94
  -5   3  -5   53.55    5.44
  -5   3  -5   50.61    5.23
   5   3   5   49.39    5.03
  -5   3  -5   41.85    4.64
  -6  -3  -5    5.86    2.77
  -6  -3  -5    5.94    2.70
  -6  -3  -5   -0.39    2.63
   6  -3   5    1.37    2.91
  -6   3  -5    1.59    2.97
   6   3   5    0.65    2.88
   6   3   5    0.16    2.62
  -6   3  -5    6.10    2.71
  -7  -3  -5    7.62    3.38
   7  -3   5    5.84    3.33
  -7  -3  -5    1.58    2.53
  -7  -3  -5    6.35    2.84
   7   3   5    6.80    3.20
  -7   3  -5    6.36    3.45
  -7   3  -5    6.75    2.88
   7   3   5    3.67    3.21
  -8  -3  -5   11.46    3.74
  -8  -3  -5   13.95    3.59
  -8  -3  -5   11.08    3.44
   8  -3   5    6.50    3.66
  -8   3  -5   15.21    4.22
   8   3   5   12.88    4.20
  -8   3  -5   11.58    3.64
  -9  -3  -5   21.76    4.79
  -9  -3  -5   21.84    4.08
  -9  -3  -5   14.11    3.83
   9   3   5   20.16    5.46
  -9   3  -5   19.21    4.30
  11  -4  -5   -0.45    3.25
 -11  -4   5   -0.04    2.93
  11   4  -5    2.50    3.48
 -11   4   5    1.09    3.30
 -11   4   5   -2.39    2.05
  10  -4  -5   -0.91    2.93
 -10  -4   5    0.86    2.68
 -10   4   5   -2.83    2.97
 -10   4   5   -0.92    1.97
  10   4  -5    6.61    3.53
 -10   4   5   -1.65    2.76
  -9  -4   5    5.49    2.70
   9  -4  -5    0.45    2.66
   9   4  -5    1.83    2.95
  -9   4   5    4.08    3.12
  -9   4   5    2.42    2.03
  -9   4   5    2.92    2.85
   8  -4  -5  167.51    9.08
  -8  -4   5  164.88    8.43
  -8  -4   5  171.71    8.68
   8   4  -5  180.74    8.91
  -8   4   5  169.26    9.25
  -8   4   5  162.28    9.12
  -8   4   5  154.23    7.81
   7  -4  -5   98.49    6.54
  -7  -4   5  112.63    6.84
  -7  -4   5  102.23    5.86
  -7  -4   5   94.58    5.93
  -7   4   5  107.55    5.77
   7   4  -5  104.56    6.08
  -7   4   5   91.71    6.72
  -7   4   5   96.08    6.73
   7   4  -5  101.11    6.35
   6  -4  -5  102.66    6.15
  -6  -4   5   96.63    5.47
  -6  -4   5   96.51    6.16
  -6  -4   5   87.59    5.37
  -6   4   5   94.36    6.55
  -6   4   5   93.40    5.38
  -6   4   5  104.98    6.40
   6   4  -5   98.21    5.73
   5  -4  -5   58.42    4.52
  -5  -4   5   56.77    3.93
  -5  -4   5   46.29    4.52
  -5  -4   5   55.25    4.92
  -5   4   5   61.81    5.21
  -5   4   5   59.36    3.56
  -5   4   5   62.65    4.23
  -5   4   5   63.94    4.84
   5   4  -5   58.13    4.49
  -4  -4   5    9.19    1.76
  -4  -4   5    8.48    2.32
  -4  -4   5    7.77    1.05
  -4  -4   5    6.46    2.27
  -4  -4   5    8.96    1.00
   4  -4  -5   11.78    2.22
  -4   4   5   10.34    2.11
   4   4  -5    6.67    1.60
   4   4  -5    7.48    2.15
  -4   4   5    8.37    1.83
  -4   4   5    7.47    2.48
  -4   4   5   10.32    2.28
   3  -4  -5   13.17    2.38
   3  -4  -5   12.65    2.27
  -3  -4   5   14.85    1.66
  -3  -4   5   12.96    1.83
  -3  -4   5   11.57    2.55
  -3  -4   5   13.61    1.85
  -3  -4   5   13.82    2.31
  -3   4   5   12.66    2.16
  -3   4   5   10.45    2.25
  -3   4   5   15.25    2.22
   3   4  -5   12.62    2.48
   3   4  -5   18.48    2.11
  -2  -4   5  104.35    4.78
  -2  -4   5  111.89    5.78
   2  -4  -5  108.87    5.44
  -2  -4   5  106.92    4.33
   2  -4  -5  113.74    5.59
  -2  -4   5  103.99    5.69
  -2  -4   5  105.79    4.73
  -2   4   5   98.67    5.66
  -2   4   5  101.26    5.53
   2   4  -5  103.25    4.78
   2   4  -5  105.49    5.94
  -2   4   5  104.27    5.65
  -1  -4   5   71.59    4.65
   1  -4  -5   78.82    4.67
  -1  -4   5   76.36    3.00
   1  -4  -5   67.93    4.41
  -1  -4   5   79.24    4.70
  -1  -4   5   73.91    4.16
  -1  -4   5   73.05    3.98
   1  -4  -5   69.64    4.34
  -1   4   5   78.06    3.33
  -1   4   5   79.49    4.87
   1   4  -5   74.78    3.95
  -1   4   5   77.25    4.62
  -1   4   5   80.08    4.71
   1   4  -5   75.90    4.99
   0  -4   5    9.90    1.93
   0  -4  -5    5.24    1.92
   0  -4   5   10.16    2.13
   0  -4  -5    8.71    2.06
   0  -4  -5    8.61    1.94
   0  -4   5    6.66    2.01
   0   4  -5    7.85    1.75
   0   4   5    5.91    2.03
   0   4   5    7.13    2.18
   0   4   5    9.72    1.89
   0   4  -5    9.11    1.69
   0   4   5    6.51    1.32
   0   4  -5    7.53    2.15
   1  -4   5    7.94    2.17
  -1  -4  -5    3.11    1.66
   1  -4   5    3.97    1.13
  -1  -4  -5    4.36    1.90
   1  -4   5    3.18    1.87
  -1  -4  -5    2.60    1.74
   1  -4   5    2.72    1.87
  -1   4  -5    2.79    2.07
   1   4   5    2.41    2.20
   1   4   5    3.99    1.58
   1   4   5    2.56    1.97
  -1   4  -5    5.55    1.75
   1   4   5    5.62    1.66
  -1   4  -5    5.69    1.74
  -2  -4  -5    1.03    1.73
   2  -4   5    1.76    1.75
   2  -4   5   -2.51    2.00
  -2  -4  -5   -0.61    1.71
  -2  -4  -5    0.16    1.92
   2  -4   5    3.16    1.91
   2   4   5    0.76    1.71
   2   4   5   -0.16    2.12
  -2   4  -5    1.25    2.25
  -2   4  -5   -1.45    1.75
   2   4   5    1.10    1.97
  -2   4  -5   -2.95    1.56
   2   4   5   -0.91    1.23
  -3  -4  -5   89.09    5.73
  -3  -4  -5   88.93    5.64
   3  -4   5   85.11    5.67
  -3  -4  -5   84.84    5.25
   3  -4   5   78.23    5.82
   3  -4   5   76.04    4.94
  -3   4  -5   79.74    5.99
  -3   4  -5   87.96    5.51
   3   4   5   89.03    5.52
  -3   4  -5   79.51    5.78
   3   4   5   84.26    6.04
  -4  -4  -5    2.90    2.30
  -4  -4  -5    2.97    2.51
   4  -4   5    7.72    2.09
   4  -4   5    7.23    2.77
  -4  -4  -5    8.14    2.72
   4  -4   5    8.01    2.80
   4   4   5    6.38    2.46
  -4   4  -5    4.99    2.80
  -4   4  -5    2.95    2.18
   4   4   5    7.34    2.95
  -4   4  -5    8.26    3.05
  -5  -4  -5   11.41    2.86
  -5  -4  -5   12.01    2.82
  -5  -4  -5   15.60    3.34
   5  -4   5    9.36    2.96
  -5   4  -5   19.05    3.73
   5   4   5    7.63    3.16
   5   4   5    9.22    3.12
  -5   4  -5    9.99    3.17
  -6  -4  -5    6.47    3.15
   6  -4   5    4.79    3.17
  -6  -4  -5    8.27    2.96
  -6  -4  -5    6.77    2.92
   6   4   5    6.38    3.23
  -6   4  -5    7.71    3.30
   6   4   5    6.00    3.09
   7  -4   5    2.99    3.23
  -7  -4  -5    0.40    2.49
  -7  -4  -5    0.88    2.53
  -7  -4  -5   -1.37    2.75
   7   4   5    0.97    2.85
   7   4   5   -6.55    2.64
  -7   4  -5    2.45    3.13
  -8  -4  -5   -0.88    2.68
   8  -4   5    1.09    3.48
  -8  -4  -5    1.37    3.14
  -8  -4  -5    2.48    3.11
  -8   4  -5    0.28    3.29
   8   4   5   -5.11    2.88
  -9  -4  -5   10.08    4.25
  -9  -4  -5   18.23    4.22
 -11  -5   5   55.15    6.45
  11   5  -5   66.36    7.74
 -10  -5   5   -1.57    2.49
  10  -5  -5    1.42    3.05
 -10   5   5   -2.42    2.92
  10   5  -5   -3.70    2.74
 -10   5   5   -3.47    3.19
 -10   5   5    4.78    2.41
  -9  -5   5   20.98    3.68
   9  -5  -5   19.82    4.04
  -9   5   5   18.80    4.22
   9   5  -5   33.26    4.68
  -9   5   5   23.26    3.33
  -9   5   5   21.79    4.03
   9   5  -5   28.38    4.27
   8  -5  -5    3.00    2.72
  -8  -5   5   -0.14    2.27
  -8  -5   5   -1.17    2.82
   8   5  -5    3.72    2.90
  -8   5   5   -2.17    2.64
  -8   5   5   -2.79    2.94
  -8   5   5   -0.41    1.94
  -7  -5   5   84.23    6.45
   7  -5  -5   89.29    6.31
  -7  -5   5   85.02    5.74
  -7   5   5   82.60    6.27
  -7   5   5   82.60    6.96
   7   5  -5   90.41    6.52
  -7   5   5   85.95    5.58
  -6  -5   5   30.74    3.66
  -6  -5   5   26.10    3.87
   6  -5  -5   29.33    4.23
  -6   5   5   28.56    4.31
  -6   5   5   29.01    4.18
   6   5  -5   34.42    4.00
  -6   5   5   26.87    3.36
   6   5  -5   28.44    4.53
  -5  -5   5   22.46    3.11
  -5  -5   5   23.95    1.62
  -5  -5   5   24.59    3.50
  -5  -5   5   22.71    1.56
   5  -5  -5   21.15    3.16
  -5  -5   5   24.44    3.46
   5   5  -5   21.08    3.18
  -5   5   5   21.51    3.40
  -5   5   5   19.47    3.07
  -5   5   5   19.59    2.78
   5   5  -5   24.50    3.13
  -4  -5   5   -0.82    2.26
  -4  -5   5   -0.64    0.94
  -4  -5   5   -0.26    1.07
   4  -5  -5    3.96    2.03
  -4  -5   5   -3.41    1.97
  -4  -5   5   -0.36    1.44
  -4   5   5   -3.27    1.70
  -4   5   5   -1.56    1.66
  -4   5   5   -0.07    2.09
   4   5  -5    0.12    2.09
  -4   5   5    1.24    1.96
   4   5  -5    0.68    1.23
   3  -5  -5   24.23    3.27
  -3  -5   5   18.40    3.01
  -3  -5   5   17.41    2.04
  -3  -5   5   19.14    2.99
  -3  -5   5   18.01    2.29
  -3  -5   5   16.34    2.24
   3  -5  -5   18.75    2.76
  -3   5   5   23.04    3.32
  -3   5   5   11.88    2.42
   3   5  -5   16.14    2.01
  -3   5   5   17.04    3.04
   3   5  -5   20.49    3.08
  -2  -5   5   42.89    4.02
  -2  -5   5   39.26    3.08
   2  -5  -5   42.00    2.40
   2  -5  -5   38.44    3.68
   2  -5  -5   44.61    3.69
  -2  -5   5   42.19    2.59
   2  -5  -5   43.74    3.82
  -2  -5   5   43.21    4.15
  -2   5   5   42.48    3.83
   2   5  -5   41.36    2.72
   2   5  -5   45.95    4.41
  -2   5   5   43.95    4.11
  -2   5   5   34.04    4.00
   1  -5  -5   13.06    2.41
  -1  -5   5   13.82    2.63
  -1  -5   5   16.07    2.69
   1  -5  -5   21.69    3.07
   1  -5  -5   18.65    2.60
   1  -5  -5   15.28    1.97
  -1  -5   5   13.11    1.61
  -1  -5   5   12.89    2.03
   1   5  -5   16.14    2.18
   1   5  -5   15.29    2.66
  -1   5   5   11.08    2.42
  -1   5   5   17.50    2.72
  -1   5   5   13.22    2.55
   0  -5   5    0.11    1.90
   0  -5   5    1.29    1.74
   0  -5  -5    0.48    1.72
   0  -5  -5   -1.98    1.69
   0  -5  -5   -0.98    1.72
   0  -5   5    1.36    2.02
   0   5   5   -0.09    2.20
   0   5   5   -0.67    1.22
   0   5   5    1.10    1.99
   0   5  -5    0.25    2.18
   0   5   5    3.53    1.88
   0   5  -5    1.41    1.33
   1  -5   5   13.10    2.63
   1  -5   5   13.58    2.59
  -1  -5  -5   15.03    2.48
   1  -5   5   12.17    2.47
  -1  -5  -5   11.17    2.57
  -1  -5  -5   13.98    2.55
   1   5   5   12.24    2.00
   1   5   5   12.04    2.13
  -1   5  -5   11.57    2.92
  -1   5  -5   15.64    2.37
   1   5   5   15.05    2.78
   1   5   5   13.52    2.95
   2  -5   5  110.40    6.88
  -2  -5  -5  126.58    6.78
  -2  -5  -5  119.59    6.50
   2  -5   5  123.04    6.74
   2  -5   5  131.73    6.53
  -2  -5  -5  118.38    6.54
   2   5   5  116.82    6.23
   2   5   5  123.36    5.76
   2   5   5  122.69    7.31
  -2   5  -5  114.72    7.12
  -2   5  -5  125.28    6.56
   3  -5   5   35.03    3.83
  -3  -5  -5   40.53    4.41
   3  -5   5   44.08    4.92
  -3  -5  -5   43.48    4.55
   3  -5   5   30.94    4.34
  -3  -5  -5   38.08    4.21
  -3   5  -5   38.03    4.56
   3   5   5   43.03    4.38
   3   5   5   41.07    5.11
  -3   5  -5   46.48    5.15
  -4  -5  -5   96.74    6.40
  -4  -5  -5   87.83    6.19
  -4  -5  -5   92.03    6.07
   4  -5   5   90.07    6.63
   4   5   5   82.11    6.06
  -4   5  -5   94.55    7.14
  -4   5  -5   93.78    6.49
   4   5   5   98.72    7.03
  -5  -5  -5    6.55    2.89
  -5  -5  -5    4.50    2.60
   5  -5   5    5.89    3.12
  -5  -5  -5    5.04    2.77
   5   5   5    4.80    3.05
  -5   5  -5    2.18    3.25
   5   5   5    0.69    2.71
  -5   5  -5    4.89    2.85
   6  -5   5    4.42    3.38
  -6  -5  -5    2.68    2.72
  -6  -5  -5    4.78    2.79
  -6  -5  -5    9.47    3.22
   6   5   5    5.17    3.28
   6   5   5    2.55    3.01
  -6   5  -5    6.91    3.30
  -6   5  -5    8.46    3.61
  -7  -5  -5    0.38    2.86
   7  -5   5    0.32    3.44
  -7  -5  -5    3.90    2.79
  -7  -5  -5   -2.59    2.86
   7   5   5    2.21    3.42
  -7   5  -5    2.00    3.24
   7   5   5    1.94    3.17
   8  -5   5    1.65    3.82
  -8  -5  -5    3.53    2.81
  -8  -5  -5   -2.79    3.65
  -8  -5  -5   -2.25    2.83
  -8   5  -5   -5.55    2.75
   8   5   5    4.14    3.66
 -10  -6   5    1.44    2.98
  10  -6  -5   -0.88    2.89
 -10   6   5    5.11    2.71
 -10   6   5   -3.28    3.13
  10   6  -5    2.10    3.28
 -10   6   5    7.28    3.87
  -9  -6   5   65.21    5.97
   9  -6  -5   78.85    6.84
   9   6  -5   65.04    6.91
  -9   6   5   84.13    7.24
  -9   6   5   68.23    5.80
   9   6  -5   74.86    7.04
  -9   6   5   72.88    6.97
  -8  -6   5   13.57    3.71
   8  -6  -5    6.88    3.14
  -8  -6   5    7.54    2.78
  -8   6   5    9.44    3.75
  -8   6   5    5.98    3.11
   8   6  -5   10.04    3.57
  -8   6   5    9.60    2.84
   7  -6  -5  303.80   13.45
  -7  -6   5  290.78   13.53
  -7  -6   5  293.88   12.69
  -7   6   5  305.57   13.42
  -7   6   5  290.60   12.73
   7   6  -5  303.98   13.61
  -7   6   5  284.48   13.67
  -6  -6   5    3.75    2.89
  -6  -6   5    0.85    1.93
   6  -6  -5   -1.40    2.45
  -6   6   5    1.39    2.39
   6   6  -5    4.25    2.40
  -6   6   5   -1.45    2.09
   6   6  -5   -1.40    2.55
  -6   6   5   -2.97    2.63
  -5  -6   5   39.60    2.67
  -5  -6   5   41.12    3.73
  -5  -6   5   40.62    4.97
  -5  -6   5   43.23    2.59
   5  -6  -5   51.37    4.80
   5   6  -5   40.64    4.64
  -5   6   5   40.95    4.33
  -5   6   5   42.14    4.36
   5   6  -5   49.04    5.32
  -5   6   5   45.06    5.18
  -4  -6   5    1.09    1.57
  -4  -6   5   -0.12    2.25
  -4  -6   5   -0.81    2.30
  -4  -6   5   -2.77    1.21
   4  -6  -5    2.30    2.19
  -4   6   5    3.92    2.71
   4   6  -5    1.02    2.43
  -4   6   5   -0.48    1.98
  -4   6   5   -0.49    2.05
  -3  -6   5   -0.56    2.35
   3  -6  -5    3.84    2.08
  -3  -6   5    1.67    1.52
  -3  -6   5    3.07    2.45
  -3  -6   5    0.21    1.42
   3  -6  -5   -0.65    2.01
   3   6  -5    1.49    2.37
  -3   6   5    1.20    2.05
  -3   6   5    4.52    2.32
  -3   6   5   -1.04    2.39
  -2  -6   5   -0.90    2.28
   2  -6  -5   -1.38    1.77
   2  -6  -5    0.51    2.10
  -2  -6   5    2.44    1.31
  -2  -6   5    1.84    2.32
  -2  -6   5    1.50    1.70
  -2   6   5    5.11    2.35
  -2   6   5    3.89    2.28
  -2   6   5   -2.05    2.20
   2   6  -5    0.85    2.51
   1  -6  -5    0.28    2.16
   1  -6  -5   -0.88    1.88
  -1  -6   5    0.23    2.16
  -1  -6   5    1.65    2.24
  -1  -6   5   -2.03    1.61
   1  -6  -5    0.30    1.77
   1  -6  -5   -0.04    1.28
   1   6  -5   -0.26    2.48
  -1   6   5    3.44    2.35
  -1   6   5   -1.85    2.28
  -1   6   5    2.14    2.20
   0  -6  -5   40.77    4.24
   0  -6   5   38.66    4.32
   0  -6  -5   43.16    3.45
   0  -6  -5   44.45    4.16
   0  -6   5   42.41    3.98
   0  -6   5   42.36    4.54
   0  -6  -5   46.63    3.91
   0   6   5   48.83    4.91
   0   6   5   38.84    4.15
   0   6  -5   35.48    3.20
   0   6   5   47.49    4.52
   0   6  -5   44.16    5.01
  -1  -6  -5  147.18    7.11
  -1  -6  -5  128.74    7.43
   1  -6   5  143.86    7.42
   1  -6   5  138.98    7.74
   1  -6   5  147.58    7.49
  -1  -6  -5  155.38    7.82
   1   6   5  145.04    6.95
   1   6   5  146.17    8.16
  -1   6  -5  154.69    8.39
   1   6   5  153.71    7.14
  -1   6  -5  151.50    7.06
  -2  -6  -5   -0.91    2.06
  -2  -6  -5    2.62    2.32
   2  -6   5    1.24    2.14
   2  -6   5    5.34    2.39
  -2  -6  -5   -0.54    2.07
   2  -6   5   -0.83    2.34
   2   6   5    0.04    1.84
  -2   6  -5   -0.71    2.00
  -2   6  -5    0.23    2.68
   2   6   5    2.80    2.83
  -3  -6  -5   86.46    5.90
  -3  -6  -5   80.38    5.79
   3  -6   5   70.89    6.22
   3  -6   5   84.38    5.49
   3  -6   5   86.16    6.21
  -3  -6  -5   94.31    6.08
   3   6   5   67.02    6.38
  -3   6  -5   87.96    7.13
   3   6   5   93.89    5.95
  -3   6  -5   91.99    5.86
   4  -6   5   -1.57    2.67
  -4  -6  -5   -1.78    2.36
  -4  -6  -5   -0.81    2.40
  -4  -6  -5    2.32    2.42
   4   6   5    0.26    3.03
  -4   6  -5    3.84    3.49
   4   6   5    2.07    2.57
  -4   6  -5    0.70    2.41
   5  -6   5    6.18    3.09
  -5  -6  -5   14.42    3.22
  -5  -6  -5   10.08    3.11
  -5  -6  -5    4.82    2.81
  -5   6  -5   12.63    4.12
   5   6   5    9.75    3.72
   5   6   5   13.06    3.44
  -5   6  -5   12.25    3.36
  -6  -6  -5   16.95    3.54
  -6  -6  -5   13.38    3.42
   6  -6   5    9.50    3.75
   6   6   5   16.00    4.07
   6   6   5   10.36    3.49
  -6   6  -5   11.65    4.08
  -6   6  -5    6.46    3.40
  -7  -6  -5    0.29    2.66
  -7  -6  -5   -2.88    2.78
   7  -6   5    4.62    3.69
   7   6   5   -5.77    3.31
  -7   6  -5   -5.65    2.81
   7   6   5   -1.30    3.12
  -8  -6  -5    7.26    3.52
  -8  -6  -5   10.24    3.49
   8   6   5    7.39    4.10
   8   6   5   11.71    4.44
  -8   6  -5    8.28    3.86
 -10  -7   5    1.94    2.93
 -10   7   5   -1.66    2.97
  10   7  -5    2.52    3.59
 -10   7   5   -0.84    3.36
 -10   7   5    2.34    3.94
  -9  -7   5   38.07    5.17
   9  -7  -5   42.57    5.68
  -9   7   5   25.38    5.23
  -9   7   5   32.91    4.94
  -9   7   5   35.22    5.07
   9   7  -5   46.25    6.10
  -8  -7   5   -1.90    2.45
   8  -7  -5   -1.27    2.81
  -8  -7   5   -2.52    3.08
  -8   7   5   -4.20    3.18
   8   7  -5    0.10    3.09
  -8   7   5    1.97    2.49
  -8   7   5    3.03    2.81
  -7  -7   5  128.78    8.10
  -7  -7   5  100.40    6.52
   7  -7  -5  114.24    7.55
  -7   7   5  105.12    7.37
   7   7  -5  110.89    7.96
  -7   7   5  111.39    7.10
  -7   7   5  102.89    7.96
  -6  -7   5   42.99    2.76
   6  -7  -5   53.77    5.40
  -6  -7   5   47.67    5.66
  -6  -7   5   51.63    4.41
  -6   7   5   38.59    4.78
  -6   7   5   49.18    5.83
  -6   7   5   55.71    5.26
   6   7  -5   51.66    5.49
   6   7  -5   51.37    6.06
  -5  -7   5  258.98   10.01
   5  -7  -5  255.17   11.94
  -5  -7   5  261.97   10.98
  -5  -7   5  253.78   12.18
  -5   7   5  268.13   11.90
  -5   7   5  257.10   12.41
   5   7  -5  251.59   12.43
   5   7  -5  269.01   11.93
  -5   7   5  277.77   11.78
  -4  -7   5    4.86    1.77
   4  -7  -5    5.76    2.37
  -4  -7   5    0.77    1.74
   4  -7  -5    7.87    2.69
  -4  -7   5    3.94    2.81
  -4   7   5   -0.11    2.76
  -4   7   5    5.07    2.59
   4   7  -5    5.13    2.87
   4   7  -5   -0.30    2.85
  -3  -7   5  102.99    7.12
   3  -7  -5  128.90    7.16
  -3  -7   5  114.88    7.53
   3  -7  -5  128.67    6.77
  -3  -7   5  120.17    6.00
   3   7  -5  128.04    7.56
  -3   7   5  126.50    6.79
  -3   7   5  110.15    7.31
  -3   7   5  134.39    7.22
   2  -7  -5   19.48    3.14
  -2  -7   5   25.81    3.85
   2  -7  -5   24.71    3.57
  -2  -7   5   21.45    3.24
  -2  -7   5   19.35    3.55
  -2   7   5   23.25    3.58
  -2   7   5   23.17    3.50
  -2   7   5   29.79    4.35
   2   7  -5   17.82    3.50
   1  -7  -5    7.02    2.15
  -1  -7   5   11.61    2.98
  -1  -7   5   10.60    2.96
  -1  -7   5    9.13    2.36
   1  -7  -5   12.35    2.91
  -1   7   5    6.97    2.71
  -1   7   5    9.23    2.86
   1   7  -5    9.92    3.09
  -1   7   5    5.17    2.86
   0  -7  -5  132.59    7.33
   0  -7   5  121.21    7.29
   0  -7   5  121.75    6.74
   0  -7  -5  116.20    7.02
   0  -7   5  140.51    7.57
   0  -7  -5  124.20    6.45
   0  -7  -5  124.35    8.11
   0   7  -5  119.49    7.72
   0   7   5  119.76    6.81
   0   7   5  123.86    7.59
  -1  -7  -5    5.35    2.70
   1  -7   5   -0.31    2.15
   1  -7   5    1.98    2.55
  -1  -7  -5    4.35    2.25
  -1  -7  -5    6.63    2.61
  -1  -7  -5    3.66    2.05
   1  -7   5    3.09    2.55
   1   7   5    4.49    2.23
   1   7   5    0.47    2.88
  -1   7  -5    3.61    3.42
  -2  -7  -5   15.64    3.19
   2  -7   5    8.29    2.88
  -2  -7  -5    7.08    2.71
   2  -7   5   11.63    2.87
   2  -7   5   11.12    3.23
   2   7   5   14.68    3.67
   2   7   5   11.68    2.62
  -2   7  -5   11.53    3.53
  -3  -7  -5  103.48    6.90
   3  -7   5  103.92    7.11
   3  -7   5  107.15    9.04
  -3  -7  -5  103.69    7.10
   3  -7   5  112.95    7.32
  -3   7  -5  111.72    6.72
   3   7   5  119.70    7.98
  -3   7  -5  115.83    8.72
   3   7   5  108.21    6.78
  -4  -7  -5   -1.50    2.49
  -4  -7  -5    0.56    2.53
   4  -7   5   -2.49    2.78
  -4   7  -5    4.17    2.62
   4   7   5   -2.19    2.49
  -4   7  -5    5.46    3.94
   4   7   5    5.82    3.46
  -5  -7  -5   30.20    4.51
  -5  -7  -5   34.35    4.51
   5  -7   5   29.34    4.84
  -5   7  -5   25.16    4.07
   5   7   5   29.33    4.45
  -5   7  -5   35.70    5.24
   5   7   5   26.29    4.85
  -6  -7  -5    3.71    3.12
  -6  -7  -5    0.21    2.76
   6  -7   5    3.79    3.54
  -6   7  -5    3.49    3.65
  -6   7  -5   -4.48    2.64
   6   7   5    0.74    3.70
   6   7   5    3.86    3.37
   7  -7   5    1.11    3.68
  -7  -7  -5    1.63    2.77
  -7  -7  -5    4.50    3.52
   7   7   5   -2.04    3.26
   7   7   5    9.88    4.12
  -7   7  -5    3.99    3.23
  -9  -8   5    5.93    3.23
   9  -8  -5   11.01    4.18
  -9  -8   5    9.04    4.40
   9   8  -5    6.26    4.08
  -9   8   5    7.16    3.65
  -9   8   5    3.52    4.12
  -9   8   5    9.40    3.46
  -8  -8   5   17.13    3.68
  -8  -8   5   12.33    4.23
   8  -8  -5   16.79    4.15
  -8   8   5   17.57    3.90
  -8   8   5   12.03    4.25
   8   8  -5   10.54    4.03
  -8   8   5    9.19    3.13
  -7  -8   5    8.97    3.91
  -7  -8   5   10.97    1.41
   7  -8  -5   17.30    4.07
  -7  -8   5   14.28    3.07
  -7   8   5   14.10    3.55
   7   8  -5    3.21    3.29
  -7   8   5   14.61    3.48
  -7   8   5    9.54    3.87
  -6  -8   5  100.49    7.43
  -6  -8   5   82.91    5.91
  -6  -8   5   98.09    4.59
   6  -8  -5   86.92    7.03
  -6   8   5   79.44    6.62
   6   8  -5   89.97    7.38
  -6   8   5  102.10    6.67
  -6   8   5   95.86    7.62
  -5  -8   5   55.04    5.88
  -5  -8   5   49.68    3.63
   5  -8  -5   49.88    5.52
  -5  -8   5   47.56    5.63
   5   8  -5   53.94    6.29
  -5   8   5   48.10    5.79
   5   8  -5   51.60    5.59
  -5   8   5   47.32    5.23
   4  -8  -5   27.23    4.06
  -4  -8   5   18.51    3.58
   4  -8  -5   33.56    4.44
  -4  -8   5   31.06    3.45
  -4   8   5   31.02    4.53
  -4   8   5   22.48    3.89
   4   8  -5   41.02    5.39
   4   8  -5   27.93    4.55
   3  -8  -5    1.17    2.05
   3  -8  -5    3.92    2.70
  -3  -8   5    0.48    1.90
  -3  -8   5   -3.37    2.65
  -3   8   5   -2.11    2.33
   3   8  -5    5.55    3.10
   3   8  -5    1.39    3.06
  -3   8   5    0.50    2.43
  -3   8   5    2.97    2.94
  -2  -8   5   62.02    5.77
  -2  -8   5   55.41    4.68
   2  -8  -5   52.40    5.15
   2   8  -5   56.34    5.69
   2   8  -5   49.04    5.78
  -2   8   5   55.03    5.58
  -2   8   5   62.08    5.55
  -2   8   5   57.23    5.61
  -1  -8   5    5.04    2.92
   1  -8  -5   -4.40    2.21
  -1  -8   5    1.78    2.20
   1   8  -5   -1.79    2.77
  -1   8   5    2.07    2.85
  -1   8   5   -3.36    2.35
   0  -8  -5   43.27    4.95
   0  -8  -5   26.60    5.34
   0  -8   5   43.83    5.36
   0  -8   5   46.47    5.30
   0  -8   5   50.04    4.92
   0   8  -5   46.75    6.01
   0   8   5   48.69    5.54
   0   8   5   40.69    4.86
  -1  -8  -5    2.84    2.65
   1  -8   5    1.74    2.64
   1  -8   5    0.27    2.34
   1  -8   5    0.48    2.67
  -1  -8  -5    5.63    2.67
   1   8   5    2.96    3.07
  -1   8  -5   -2.00    2.92
   2  -8   5    5.70    2.67
  -2  -8  -5    4.28    2.80
  -2  -8  -5    1.17    2.58
   2  -8   5   -0.54    2.70
   2  -8   5    6.77    2.59
   2   8   5    3.18    3.29
   2   8   5    4.67    3.43
  -2   8  -5    8.39    3.84
   3  -8   5   50.73    5.47
  -3  -8  -5   47.73    5.22
  -3  -8  -5   47.41    5.60
   3  -8   5   57.46    5.97
   3   8   5   44.28    5.04
   3   8   5   46.73    6.21
  -3   8  -5   69.13    7.67
  -4  -8  -5    6.46    3.10
  -4  -8  -5    4.57    2.74
   4  -8   5    4.77    3.19
   4   8   5    1.52    2.65
  -4   8  -5    1.25    3.88
   4   8   5    8.27    3.90
   5  -8   5   39.72    5.98
  -5  -8  -5   34.60    5.32
  -5  -8  -5   37.75    5.55
   5   8   5   32.56    4.87
  -5   8  -5   40.87    5.98
   5   8   5   34.01    5.63
  -6  -8  -5    9.14    3.29
  -6  -8  -5    3.20    3.31
   6  -8   5   -4.91    3.25
  -6   8  -5    1.56    4.14
   6   8   5   -4.21    3.47
   6   8   5    1.98    3.32
  -7  -8  -5    5.56    3.57
   7   8   5   -7.57    5.59
  -7   8  -5    3.17    4.20
   7   8   5    8.14    3.96
  -8  -9   5    4.05    3.94
   8  -9  -5    2.97    3.55
  -8   9   5    3.72    4.10
  -8   9   5    9.46    4.46
  -8   9   5    3.45    3.17
   8   9  -5    3.84    4.01
   7  -9  -5   13.55    3.94
  -7  -9   5    7.38    1.56
  -7  -9   5    1.18    3.68
  -7   9   5    8.85    3.39
  -7   9   5    9.63    4.00
   7   9  -5    9.27    4.16
   6  -9  -5    1.41    2.99
  -6  -9   5    3.86    3.38
  -6  -9   5    2.46    1.67
  -6   9   5   -1.16    3.35
  -6   9   5   -0.29    2.68
   6   9  -5    4.08    3.53
   5  -9  -5   40.55    5.54
  -5  -9   5   38.44    3.71
  -5  -9   5   45.79    5.96
   5   9  -5   38.96    6.11
  -5   9   5   32.73    4.96
   5   9  -5   49.61    5.74
  -5   9   5   52.50    5.65
  -4  -9   5   10.56    3.50
  -4  -9   5    4.60    2.16
   4  -9  -5   12.80    3.37
   4   9  -5   11.30    3.85
   4   9  -5    9.96    3.49
  -4   9   5    8.75    3.36
  -4   9   5    7.04    3.45
  -3  -9   5    4.74    2.20
   3  -9  -5    9.49    3.32
  -3  -9   5    7.61    3.35
  -3   9   5   10.48    3.48
   3   9  -5   14.06    3.81
   3   9  -5   11.62    3.59
  -3   9   5    8.13    3.20
   2  -9  -5    4.84    2.86
  -2  -9   5    5.54    2.49
  -2  -9   5    2.35    3.06
   2   9  -5    1.74    3.12
   2   9  -5   -0.39    2.85
  -2   9   5    3.40    2.99
  -2   9   5    6.08    3.22
  -1  -9   5   23.53    3.41
   1  -9  -5   22.93    3.76
  -1  -9   5   25.41    4.17
  -1   9   5   20.58    3.86
   1   9  -5   26.02    4.45
   1   9  -5   21.78    4.12
  -1   9   5   19.87    4.01
   0  -9   5    7.65    3.31
   0  -9  -5    1.37    2.75
   0  -9   5    6.12    2.66
   0   9   5    7.68    3.43
   0   9  -5   -3.17    2.57
   0   9   5   10.61    3.08
   0   9  -5   11.11    3.66
   1  -9   5    7.26    3.30
  -1  -9  -5   11.08    3.33
   1  -9   5    8.32    3.11
  -1  -9  -5   13.70    4.32
  -1   9  -5    9.63    4.18
  -1   9  -5    4.84    3.01
   1   9   5   13.81    3.99
   2  -9   5    6.40    3.28
   2  -9   5   -4.02    2.42
  -2  -9  -5    1.79    2.92
  -2  -9  -5   -0.70    2.63
  -2   9  -5    2.18    3.95
   2   9   5   -0.59    3.17
  -3  -9  -5    9.04    3.45
  -3  -9  -5   10.55    3.27
   3  -9   5   15.31    3.91
   3   9   5   11.18    4.09
  -3   9  -5   13.12    5.03
  -4  -9  -5    0.35    2.61
  -4  -9  -5    7.79    3.38
   4  -9   5    6.15    3.57
   4   9   5    2.43    3.82
  -4   9  -5   11.65    4.81
  -5  -9  -5   14.52    3.86
  -5  -9  -5   11.32    3.59
   5  -9   5   12.09    4.17
   5   9   5   12.76    5.02
   5   9   5    4.83    4.17
  -5   9  -5    1.99    4.55
  -6  -9  -5   25.31    4.46
   6   9   5   16.74    4.54
  -6   9  -5   22.14    5.49
   7 -10  -5   47.69    6.84
  -7 -10   5   38.03    5.94
  -7 -10   5   47.39    3.42
   7  10  -5   55.33    7.36
  -7  10   5   29.72    4.94
  -7  10   5   51.84    7.27
  -6 -10   5   -1.90    3.32
   6 -10  -5    7.05    3.85
  -6 -10   5    0.87    1.85
  -6  10   5    4.11    3.78
   6  10  -5    3.82    4.04
  -5 -10   5   -6.26    3.22
   5 -10  -5    3.87    3.23
  -5 -10   5    0.28    1.92
   5  10  -5    3.65    3.81
  -5  10   5    0.21    3.41
  -4 -10   5    6.18    2.38
  -4 -10   5    1.68    3.57
   4 -10  -5    7.45    3.44
   4  10  -5   12.17    3.68
   4  10  -5    6.99    3.98
  -4  10   5    9.80    3.95
  -3 -10   5   86.60    5.86
   3 -10  -5   77.59    6.85
  -3 -10   5   94.28    7.39
  -3  10   5   84.14    7.59
   3  10  -5   82.85    7.51
   3  10  -5   90.62    7.46
  -2 -10   5    2.98    2.48
   2 -10  -5    7.79    3.24
  -2 -10   5   -4.23    2.75
  -2  10   5    3.73    3.42
   2  10  -5    8.49    3.63
   2  10  -5    2.66    3.32
  -2  10   5    6.72    3.37
  -1 -10   5   12.24    3.19
  -1 -10   5    7.57    3.51
   1 -10  -5    8.60    3.29
   1  10  -5    7.15    3.97
  -1  10   5   13.57    3.68
   1  10  -5   17.66    4.02
  -1  10   5   10.25    3.82
   0 -10   5    7.57    3.49
   0 -10   5   16.22    3.45
   0 -10  -5   23.47    3.97
   0  10  -5   13.74    4.53
   0  10  -5   12.12    3.66
   0  10   5   20.03    4.34
  -1 -10  -5   -3.03    2.48
   1 -10   5    3.94    2.91
   1 -10   5    2.50    3.23
   1  10   5    3.53    3.59
  -1  10  -5   -0.26    2.88
  -1  10  -5   -5.48    3.84
   2 -10   5    6.84    3.61
  -2 -10  -5    6.32    3.34
   2 -10   5    2.55    3.04
   2  10   5    6.85    3.95
  -2  10  -5   -0.52    4.23
  -3 -10  -5   -0.67    2.73
   3 -10   5   -0.11    3.29
  -3 -10  -5    4.57    3.28
  -3  10  -5    2.15    4.63
   3  10   5    3.13    3.75
   4 -10   5    2.36    3.63
  -4 -10  -5    3.67    3.29
  -4 -10  -5    2.77    3.32
  -4  10  -5   -1.92    4.53
   4  10   5    1.42    4.02
  -5 -10  -5   10.45    3.74
  -5 -11   5   14.64    2.87
   5 -11  -5   12.76    4.12
  -5 -11   5   15.08    4.63
   5  11  -5   11.31    4.65
  -5  11   5   25.74    5.13
  -4 -11   5    0.54    2.17
  -4 -11   5    4.89    3.92
   4 -11  -5    6.79    3.57
   4  11  -5    2.69    3.82
  -4  11   5    1.40    3.59
   3 -11  -5   11.82    3.86
  -3 -11   5   10.81    3.91
  -3 -11   5   10.68    3.07
   3  11  -5   13.36    4.67
   3  11  -5    8.98    4.19
  -3  11   5    2.57    3.76
  -2 -11   5    7.85    2.91
  -2 -11   5   14.39    4.18
   2 -11  -5   10.73    3.79
   2  11  -5    1.92    3.53
   2  11  -5    7.13    4.49
  -2  11   5    6.07    3.85
  -1 -11   5    9.30    3.74
  -1 -11   5    2.68    2.80
   1 -11  -5    7.12    3.55
  -1  11   5    1.68    3.56
   1  11  -5   -1.64    4.04
  -1  11   5   -3.96    3.09
   1  11  -5   11.25    3.97
   0 -11   5   24.47    4.21
   0 -11   5   21.16    4.53
   0 -11  -5   24.43    4.46
   0  11  -5   24.75    4.60
   0  11  -5   26.25    5.62
   0  11   5   18.43    4.70
   1 -11   5    5.02    3.74
  -1 -11  -5    4.37    3.32
   1 -11   5    5.96    3.25
   1  11   5    3.44    3.77
  -1  11  -5    6.84    4.91
   2 -11   5    3.34    3.26
   2 -11   5    0.24    3.36
  -2 -11  -5    1.76    3.07
   2  11   5    6.77    4.16
  -2  11  -5    0.21    4.35
  -3 -11  -5    5.29    4.61
   3 -11   5    4.63    3.87
   3  11   5    8.05    5.14
  -3  11  -5    5.51    7.85
   3  12  -5    9.27    5.09
   3  12  -5    2.80    4.45
  -3  12   5    1.50    3.87
  -2 -12   5   -0.02    4.06
   2 -12  -5   -0.87    3.52
  -2 -12   5   -0.71    2.81
   2  12  -5   -1.39    4.59
   2  12  -5    4.39    4.30
  -2  12   5   -8.13    3.19
  -1 -12   5    3.24    4.04
   1 -12  -5    3.16    3.78
  -1 -12   5    1.53    3.13
   1  12  -5    1.88    4.81
   1  12  -5    7.40    4.00
  -1  12   5    2.90    3.95
   0 -12   5    2.26    3.31
   0 -12   5    1.07    5.36
   0  12  -5   -4.98    4.67
   0  12  -5   -2.18    3.14
   0  12   5   -4.03    3.68
   1 -12   5   -1.05    3.24
   1  12   5    4.83    4.69
 -12   0   6    8.23    4.79
  11   0  -6    3.28    3.34
 -11   0   6    3.60    3.17
 -10   0   6   -0.09    2.83
  10   0  -6   -2.36    2.64
  -9   0   6   -1.33    2.29
   9   0  -6    0.25    2.42
   9   0  -6    1.68    2.77
  -9   0   6   -1.89    2.48
   8   0  -6   41.03    4.75
  -8   0   6   36.15    5.03
  -8   0   6   34.63    4.71
   8   0  -6   41.69    4.11
  -7   0   6   -2.00    2.12
   7   0  -6   -2.79    1.95
  -7   0   6   -0.46    2.22
  -7   0   6   -0.12    1.81
   7   0  -6   -1.58    1.58
  -6   0   6  179.11    7.86
  -6   0   6  186.50    6.52
  -6   0   6  180.58    8.61
   6   0  -6  173.69    8.08
  -6   0   6  182.47    6.51
  -6   0   6  175.76    8.54
   6   0  -6  175.44    7.64
  -5   0   6   -0.10    1.87
  -5   0   6   -0.74    1.56
  -5   0   6    0.96    0.80
   5   0  -6    0.21    1.42
   5   0  -6   -0.52    1.08
  -5   0   6   -0.34    0.84
  -5   0   6    2.26    1.97
  -4   0   6  269.60    9.53
  -4   0   6  267.55   10.79
  -4   0   6  256.80    9.52
   4   0  -6  259.03   10.09
  -4   0   6  261.85    9.69
   4   0  -6  248.44   10.76
  -4   0   6  256.56   10.43
   3   0  -6   -0.78    1.00
  -3   0   6    0.37    0.92
  -3   0   6   -1.74    1.52
  -3   0   6    1.34    1.11
  -3   0   6    0.17    1.73
   3   0  -6   -3.40    1.48
  -2   0   6  614.53   22.14
   2   0  -6  626.22   21.80
  -2   0   6  635.63   21.77
  -2   0   6  651.60   22.86
  -2   0   6  614.00   22.70
   2   0  -6  607.47   22.74
  -2   0   6  629.19   22.09
  -1   0   6    1.18    1.63
  -1   0   6    1.44    1.44
   1   0  -6   -0.41    1.61
  -1   0   6   -1.79    1.64
  -1   0   6   -0.28    1.14
   1   0  -6    1.38    1.24
   1   0  -6   -0.52    0.82
  -1   0   6   -1.28    0.98
   0   0   6   25.86    2.99
   0   0   6   24.80    2.39
   0   0   6   22.96    2.79
   0   0   6   24.02    2.92
   0   0  -6   24.60    3.16
   0   0  -6   21.60    1.76
   0   0  -6   21.88    2.58
   1   0   6    0.78    1.90
  -1   0  -6   -2.41    1.41
   1   0   6   -2.16    1.66
  -1   0  -6   -2.01    1.67
  -1   0  -6    0.41    0.92
   1   0   6    0.30    1.41
  -1   0  -6    0.47    1.55
   2   0   6   -2.64    1.84
  -2   0  -6    1.83    1.23
   2   0   6    2.33    1.74
   2   0   6   -0.18    1.89
  -2   0  -6   -1.60    1.59
  -2   0  -6    0.46    1.58
  -2   0  -6    2.67    1.85
  -3   0  -6    3.73    2.34
   3   0   6   -3.69    1.86
   3   0   6    0.90    2.12
  -3   0  -6   -0.27    1.68
   3   0   6    1.19    2.05
  -3   0  -6   -0.26    1.37
  -3   0  -6    0.48    1.71
  -4   0  -6  138.93    7.81
  -4   0  -6  156.71    8.39
  -4   0  -6  150.39    7.01
   4   0   6  147.82    7.64
   4   0   6  146.55    7.97
  -5   0  -6   -0.99    1.86
   5   0   6   -5.95    1.98
  -5   0  -6    1.82    2.86
   5   0   6    2.33    2.57
  -5   0  -6   -1.04    2.26
  -6   0  -6   68.18    6.72
  -6   0  -6   64.44    5.94
  -6   0  -6   70.18    5.24
   6   0   6   92.68    6.81
  -7   0  -6    0.26    2.85
  -7   0  -6    1.95    3.41
   7   0   6   -0.90    3.13
   8   0   6   -2.50    3.48
  -8   0  -6    1.90    3.14
  -8   0  -6    6.46    3.74
  -9   0  -6   -1.22    3.13
 -12  -1   6    0.68    3.42
 -11  -1   6    2.43    3.19
  11  -1  -6    2.02    3.28
  11   1  -6   -1.63    2.82
 -11   1   6   -1.65    2.97
 -10  -1   6   12.86    3.48
  10  -1  -6    9.59    3.44
 -10   1   6    8.44    1.44
  10   1  -6   16.61    3.81
 -10   1   6   11.18    3.49
  10   1  -6   12.66    3.32
  -9  -1   6   15.33    3.47
   9  -1  -6   21.07    3.74
  -9   1   6   19.05    3.38
   9   1  -6   18.35    3.51
  -9   1   6   13.20    3.50
   9   1  -6   15.86    3.21
  -9   1   6   14.47    2.05
   8  -1  -6    0.69    2.55
  -8  -1   6    1.08    2.39
  -8  -1   6    4.01    2.67
  -8   1   6    3.56    2.54
   8   1  -6   -1.06    2.06
  -8   1   6    0.67    1.14
   8   1  -6    5.11    2.63
  -8   1   6    3.31    2.81
   7  -1  -6   14.69    2.85
  -7  -1   6   21.23    2.83
  -7  -1   6   19.20    3.14
   7  -1  -6   16.87    2.43
  -7  -1   6   26.44    4.08
  -7   1   6   20.82    2.16
   7   1  -6   11.33    2.68
  -7   1   6   17.87    3.19
  -7   1   6   18.09    2.18
  -7   1   6   19.84    3.26
   7   1  -6   19.39    2.73
  -6  -1   6    8.10    2.51
   6  -1  -6    9.56    2.33
  -6  -1   6    8.52    2.21
   6  -1  -6    5.91    1.63
  -6  -1   6    8.15    2.34
  -6   1   6    5.90    2.39
  -6   1   6    5.42    1.32
  -6   1   6    9.44    2.59
  -6   1   6    8.68    1.43
  -6   1   6    5.91    1.83
   6   1  -6    6.30    1.97
   5  -1  -6  119.71    6.00
   5  -1  -6  115.83    5.08
  -5  -1   6  123.97    5.66
  -5  -1   6  116.97    5.96
  -5  -1   6  115.94    6.31
  -5  -1   6  109.65    6.34
  -5   1   6  125.16    6.52
  -5   1   6  117.30    6.45
  -5   1   6  121.21    5.76
   5   1  -6  119.37    5.68
  -5   1   6  120.85    5.09
  -5   1   6  123.21    5.06
  -4  -1   6   94.10    4.64
   4  -1  -6   95.88    4.78
  -4  -1   6  100.92    3.93
  -4  -1   6   97.00    5.28
   4  -1  -6   91.07    5.46
   4  -1  -6   94.71    3.95
  -4  -1   6   99.46    3.87
  -4  -1   6   99.34    5.58
   4   1  -6   95.41    4.55
  -4   1   6   92.12    5.47
  -4   1   6  101.83    4.41
  -4   1   6   96.75    4.40
   4   1  -6   93.46    5.27
  -4   1   6   99.38    5.01
  -3  -1   6  613.53   21.16
  -3  -1   6  606.15   22.15
   3  -1  -6  583.99   22.30
  -3  -1   6  639.38   22.40
  -3  -1   6  615.00   21.22
   3  -1  -6  597.76   21.59
  -3  -1   6  619.13   21.48
  -3   1   6  603.47   22.27
  -3   1   6  638.17   21.54
   3   1  -6  600.69   21.26
  -3   1   6  585.17   21.44
  -3   1   6  600.58   20.74
  -3   1   6  624.24   22.08
   3   1  -6  575.43   22.07
  -2  -1   6  292.08   10.92
  -2  -1   6  310.85   11.03
  -2  -1   6  298.69   11.78
   2  -1  -6  290.20   10.96
  -2  -1   6  301.03   11.05
   2  -1  -6  292.37   11.79
  -2  -1   6  285.29   11.69
  -2   1   6  295.02   10.32
  -2   1   6  277.67   11.69
  -2   1   6  297.35   11.24
   2   1  -6  284.57   11.63
   2   1  -6  281.51   10.45
  -2   1   6  309.66   11.73
  -2   1   6  313.38   11.21
  -1  -1   6  299.85   11.06
   1  -1  -6  296.36   11.71
   1  -1  -6  280.09   10.73
  -1  -1   6  295.88   11.17
  -1  -1   6  281.09   10.98
  -1  -1   6  283.62   11.60
  -1  -1   6  310.17   11.72
   1  -1  -6  285.32   11.25
  -1   1   6  289.53   10.50
   1   1  -6  288.04   10.08
  -1   1   6  302.17   11.57
  -1   1   6  291.32   11.66
   1   1  -6  277.90   11.49
  -1   1   6  293.21   11.30
   0  -1   6  125.86    5.55
   0  -1   6  114.17    5.71
   0  -1  -6  121.10    5.70
   0  -1   6  116.61    6.03
   0  -1  -6  121.61    5.04
   0  -1  -6  117.67    6.08
   0   1   6  117.37    5.79
   0   1  -6  113.42    5.91
   0   1  -6  110.34    5.91
   0   1   6  115.74    5.71
   0   1   6  115.14    6.09
   0   1  -6  117.37    4.31
   0   1   6  116.97    5.13
   1  -1   6   31.32    3.33
   1  -1   6   30.79    3.53
  -1  -1  -6   38.73    3.66
  -1  -1  -6   39.63    2.62
   1  -1   6   35.47    3.26
  -1  -1  -6   31.60    3.16
   1   1   6   33.56    3.50
  -1   1  -6   38.03    3.59
  -1   1  -6   33.02    3.04
   1   1   6   37.41    3.78
  -1   1  -6   36.88    3.58
  -1   1  -6   34.13    2.05
   1   1   6   37.11    3.05
   1   1   6   37.99    3.05
   2  -1   6  181.53    8.62
   2  -1   6  192.97    8.69
  -2  -1  -6  202.63    8.79
  -2  -1  -6  188.22    7.97
   2  -1   6  187.54    8.86
  -2  -1  -6  196.75    9.05
  -2  -1  -6  190.23    8.10
   2   1   6  194.46    8.91
  -2   1  -6  203.65    8.72
  -2   1  -6  207.06    7.59
  -2   1  -6  219.04    8.70
  -2   1  -6  189.03    8.94
   2   1   6  200.43    9.02
   2   1   6  179.91    8.44
  -3  -1  -6    6.33    2.32
  -3  -1  -6    7.44    1.86
   3  -1   6    6.36    2.38
  -3  -1  -6    5.04    2.20
   3  -1   6    7.08    2.40
   3  -1   6   10.27    2.82
  -3  -1  -6    9.29    1.96
  -3   1  -6    6.49    2.44
  -3   1  -6    5.90    2.19
  -3   1  -6    4.25    1.57
   3   1   6    4.31    2.35
  -3   1  -6    5.99    2.09
   3   1   6   10.16    2.56
   3   1   6    5.00    2.41
   4  -1   6  156.46    8.10
  -4  -1  -6  177.31    7.77
  -4  -1  -6  167.52    8.37
   4  -1   6  178.67    8.69
  -4  -1  -6  169.11    8.76
  -4   1  -6  155.59    8.81
  -4   1  -6  161.60    7.73
   4   1   6  171.68    8.44
   4   1   6  163.09    8.51
  -4   1  -6  170.99    8.46
  -4   1  -6  157.59    7.35
  -5  -1  -6   -1.34    2.23
   5  -1   6    1.96    2.25
  -5  -1  -6    1.56    2.09
   5  -1   6   -1.93    2.42
  -5  -1  -6    3.23    2.85
  -5   1  -6   -0.28    2.38
   5   1   6    5.85    2.60
   5   1   6   -2.81    2.38
  -5   1  -6   -2.65    2.60
  -5   1  -6    0.56    2.12
  -6  -1  -6   -1.56    1.99
   6  -1   6    1.69    2.96
  -6  -1  -6    3.77    3.04
  -6  -1  -6   -0.51    2.54
  -6   1  -6    1.92    2.53
  -6   1  -6   -4.25    2.97
   6   1   6    1.10    2.77
   6   1   6    1.02    2.60
  -7  -1  -6   14.17    3.16
   7  -1   6   13.93    3.77
  -7  -1  -6   24.80    4.45
  -7  -1  -6   20.50    3.92
  -7   1  -6   12.61    3.92
   7   1   6   16.52    3.91
  -7   1  -6   19.13    3.76
   8  -1   6    7.72    3.93
  -8  -1  -6   13.32    4.30
  -8  -1  -6   10.24    3.53
   8   1   6    8.24    3.72
  -8   1  -6   13.24    3.72
  -8   1  -6   12.42    4.16
 -11  -2   6   -0.54    3.08
  11  -2  -6   -1.67    3.09
 -11   2   6   -2.16    2.90
 -11   2   6    1.59    1.58
  11   2  -6    1.17    3.12
  11   2  -6   -3.21    2.93
 -10  -2   6   84.10    6.83
  10  -2  -6   92.13    7.04
 -10   2   6   89.60    4.70
 -10   2   6   76.18    7.05
  10   2  -6   72.90    6.64
 -10   2   6   92.23    6.82
  -9  -2   6   14.60    3.41
   9  -2  -6   20.92    3.83
  -9  -2   6   20.45    3.40
  -9   2   6   13.80    2.04
  -9   2   6   11.78    3.15
   9   2  -6   14.68    3.31
  -9   2   6    8.04    3.34
  -8  -2   6   94.73    6.43
   8  -2  -6   96.82    6.52
  -8  -2   6   96.96    6.15
  -8  -2   6  102.65    6.30
  -8   2   6   88.76    4.74
   8   2  -6   91.76    5.72
   8   2  -6   83.86    6.06
  -8   2   6   98.36    6.76
  -8   2   6   96.62    6.45
   7  -2  -6   -0.81    2.35
  -7  -2   6    1.52    2.05
  -7  -2   6    3.53    2.31
  -7  -2   6   -0.47    2.07
  -7  -2   6    2.29    2.19
  -7   2   6   -0.39    2.14
  -7   2   6    2.24    2.53
  -7   2   6    1.46    1.47
  -6  -2   6    0.46    2.11
  -6  -2   6    0.12    2.04
  -6  -2   6    3.18    1.94
  -6  -2   6    4.17    2.23
  -6  -2   6   -0.53    1.66
   6  -2  -6   -0.10    1.93
  -6   2   6    1.31    2.46
  -6   2   6    0.55    1.53
  -6   2   6    3.71    2.21
  -6   2   6    0.88    1.40
  -5  -2   6   38.01    3.42
  -5  -2   6   27.78    3.75
   5  -2  -6   28.60    3.47
  -5  -2   6   32.93    3.67
  -5  -2   6   33.72    2.98
  -5   2   6   34.17    2.76
  -5   2   6   28.43    4.04
  -5   2   6   38.74    2.95
  -5   2   6   34.45    4.09
  -5   2   6   33.62    3.16
  -4  -2   6    0.57    1.75
  -4  -2   6    0.73    1.47
  -4  -2   6    0.70    1.84
  -4  -2   6    0.69    0.70
   4  -2  -6   -1.31    1.73
   4  -2  -6   -1.52    1.31
  -4   2   6   -0.14    1.21
   4   2  -6    0.96    1.12
  -4   2   6    0.07    1.31
  -4   2   6    1.96    1.54
   4   2  -6   -0.07    1.37
  -4   2   6   -0.19    1.78
  -3  -2   6  150.28    5.75
  -3  -2   6  151.90    5.87
   3  -2  -6  140.84    6.45
  -3  -2   6  156.56    7.05
   3  -2  -6  155.07    7.22
  -3  -2   6  152.21    6.49
  -3  -2   6  149.47    7.13
  -3   2   6  156.39    6.84
  -3   2   6  135.17    6.97
  -3   2   6  142.83    6.36
   3   2  -6  143.19    6.63
   3   2  -6  139.01    5.79
  -3   2   6  147.72    6.35
  -2  -2   6    2.16    1.93
  -2  -2   6   -0.66    1.35
  -2  -2   6    1.14    1.18
   2  -2  -6    1.15    1.26
   2  -2  -6    0.50    1.26
  -2  -2   6    0.61    1.04
   2  -2  -6   -0.42    1.70
  -2   2   6   -2.25    1.60
  -2   2   6   -1.94    1.27
   2   2  -6    1.43    0.62
   2   2  -6    0.42    1.37
  -2   2   6   -0.10    1.21
  -2   2   6    2.02    1.81
   1  -2  -6  170.17    7.09
   1  -2  -6  187.46    7.96
  -1  -2   6  178.09    7.37
  -1  -2   6  176.88    7.42
  -1  -2   6  172.83    7.17
  -1  -2   6  168.58    7.81
   1  -2  -6  169.86    7.40
   1   2  -6  179.31    7.95
  -1   2   6  166.44    7.64
  -1   2   6  174.38    6.39
  -1   2   6  170.23    7.76
  -1   2   6  178.02    7.60
   1   2  -6  162.18    7.49
   0  -2  -6   54.39    3.72
   0  -2   6   52.80    4.07
   0  -2   6   52.12    3.84
   0  -2  -6   47.76    4.00
   0  -2   6   50.58    3.67
   0  -2  -6   48.98    3.16
   0   2   6   54.36    3.83
   0   2  -6   53.09    4.19
   0   2   6   44.51    3.53
   0   2  -6   51.20    3.46
   0   2   6   55.86    4.30
   0   2   6   49.49    2.93
   0   2  -6   50.75    3.89
   1  -2   6  330.07   13.03
  -1  -2  -6  321.44   13.14
   1  -2   6  333.84   13.11
  -1  -2  -6  316.73   12.98
  -1  -2  -6  336.82   12.53
   1  -2   6  327.49   12.98
   1   2   6  315.13   13.27
   1   2   6  337.62   13.12
  -1   2  -6  318.87   13.07
   1   2   6  348.36   12.68
   1   2   6  342.50   12.55
  -1   2  -6  317.01   12.89
   2  -2   6    1.35    1.92
   2  -2   6   -0.31    1.90
  -2  -2  -6   -2.19    1.90
  -2  -2  -6    1.29    1.42
  -2  -2  -6    1.99    1.72
   2  -2   6   -2.33    1.79
  -2   2  -6    0.19    1.92
   2   2   6   -1.11    2.06
  -2   2  -6    2.71    2.00
   2   2   6    3.62    1.78
   2   2   6    0.90    1.86
   2   2   6    1.89    1.46
  -2   2  -6    0.27    1.67
   3  -2   6  121.66    7.00
  -3  -2  -6  113.41    6.64
   3  -2   6  111.39    6.66
  -3  -2  -6  115.12    6.91
   3  -2   6  117.29    6.55
  -3  -2  -6  114.96    6.07
  -3   2  -6  127.30    6.97
  -3   2  -6  130.51    6.72
   3   2   6  119.79    6.96
   3   2   6  129.08    6.62
  -3   2  -6  118.49    6.70
   3   2   6  126.45    7.09
  -4  -2  -6    2.03    1.99
   4  -2   6   -1.12    2.22
  -4  -2  -6    1.17    2.40
   4  -2   6   -2.60    2.01
  -4  -2  -6   -2.99    2.33
  -4   2  -6    0.14    2.27
  -4   2  -6   -1.60    2.10
   4   2   6    5.07    2.67
   4   2   6   -3.11    2.07
  -4   2  -6   -0.29    2.56
   5  -2   6   10.22    3.18
  -5  -2  -6   16.94    2.95
  -5  -2  -6   11.44    3.35
  -5  -2  -6    9.87    3.08
   5  -2   6   13.37    2.84
   5   2   6   16.23    3.46
  -5   2  -6   12.58    3.18
   5   2   6    6.32    2.89
  -5   2  -6   16.99    3.68
  -6  -2  -6    5.52    2.53
   6  -2   6    2.81    2.94
  -6  -2  -6    3.15    3.11
  -6  -2  -6    2.67    2.56
  -6   2  -6   -2.71    2.67
  -6   2  -6    1.71    3.15
   6   2   6    2.10    2.83
   6   2   6    3.49    2.98
  -7  -2  -6   37.51    5.00
  -7  -2  -6   31.83    4.98
  -7  -2  -6   37.24    5.46
   7  -2   6   40.14    5.88
   7   2   6   41.69    6.08
  -7   2  -6   38.01    5.53
  -8  -2  -6   19.18    4.06
  -8  -2  -6   22.63    3.92
  -8  -2  -6   16.99    4.45
   8  -2   6   28.37    5.14
   8   2   6   24.13    4.97
  -8   2  -6   20.05    4.48
 -11  -3   6    1.20    3.28
  11  -3  -6    8.52    4.01
 -11  -3   6    3.11    3.17
 -11   3   6    6.55    3.66
 -11   3   6    1.94    1.88
  11   3  -6    3.20    3.46
 -10  -3   6   15.33    3.74
  10  -3  -6   17.33    4.14
 -10  -3   6   15.76    3.64
  10   3  -6   18.58    3.97
 -10   3   6   12.47    3.77
 -10   3   6   10.31    2.23
 -10   3   6   13.22    3.67
   9  -3  -6   67.36    6.16
  -9  -3   6   67.77    5.81
  -9  -3   6   66.90    5.92
   9   3  -6   70.93    6.29
  -9   3   6   74.49    6.48
  -9   3   6   63.80    6.11
  -9   3   6   65.06    4.46
  -8  -3   6   64.25    5.19
  -8  -3   6   46.65    4.87
   8  -3  -6   56.01    5.42
  -8  -3   6   56.90    5.16
  -8   3   6   58.55    5.64
   8   3  -6   58.77    5.05
   8   3  -6   57.05    5.31
  -8   3   6   58.47    4.11
  -8   3   6   69.25    5.83
  -7  -3   6  107.86    6.70
  -7  -3   6   98.50    6.02
   7  -3  -6  106.31    6.62
  -7  -3   6  103.62    6.53
  -7  -3   6  115.11    6.41
  -7  -3   6  108.80    6.47
  -7   3   6  104.94    5.49
  -7   3   6  109.09    6.93
  -7   3   6  105.33    6.75
   6  -3  -6   44.74    4.34
  -6  -3   6   42.67    4.46
  -6  -3   6   45.45    3.75
  -6  -3   6   43.62    4.40
  -6  -3   6   37.95    4.21
  -6  -3   6   43.42    4.11
  -6   3   6   38.23    4.68
  -6   3   6   39.22    4.66
  -6   3   6   42.39    3.57
  -5  -3   6  221.28    9.83
   5  -3  -6  212.89    9.57
  -5  -3   6  224.06    9.06
  -5  -3   6  228.68    9.63
  -5  -3   6  228.15    9.99
  -5   3   6  216.12    9.07
  -5   3   6  217.53   10.06
  -5   3   6  220.24    9.99
  -5   3   6  219.99    9.02
   5   3  -6  224.13    9.45
  -4  -3   6    0.37    0.67
  -4  -3   6    0.37    0.74
  -4  -3   6    2.17    1.70
   4  -3  -6    1.60    2.02
   4  -3  -6    0.31    1.53
  -4  -3   6   -0.29    1.20
  -4  -3   6    0.27    1.95
  -4   3   6    1.61    1.57
   4   3  -6    1.38    1.42
  -4   3   6    0.74    1.85
  -4   3   6   -2.58    1.46
   3  -3  -6   41.88    3.92
  -3  -3   6   45.72    2.71
  -3  -3   6   46.16    2.56
  -3  -3   6   48.00    4.05
  -3  -3   6   44.12    2.56
   3  -3  -6   43.46    3.42
  -3  -3   6   43.06    3.67
  -3   3   6   39.40    3.99
  -3   3   6   41.76    3.74
   3   3  -6   47.37    3.29
   3   3  -6   47.66    4.13
  -3   3   6   44.83    3.53
   2  -3  -6    1.75    1.57
  -2  -3   6    2.38    1.27
  -2  -3   6    1.73    1.68
  -2  -3   6    3.61    1.15
  -2  -3   6    2.22    1.92
   2  -3  -6    1.86    1.76
   2  -3  -6    8.27    1.82
  -2   3   6    3.76    1.66
   2   3  -6    0.91    1.92
   2   3  -6    4.07    1.43
  -2   3   6    2.98    1.96
  -2   3   6    0.85    1.83
  -1  -3   6  243.42    9.57
  -1  -3   6  240.83    9.62
  -1  -3   6  239.08    9.89
  -1  -3   6  232.83   10.08
   1  -3  -6  241.47    9.67
   1  -3  -6  250.99   10.21
   1  -3  -6  247.11    9.93
   1   3  -6  241.36    9.84
  -1   3   6  239.02    8.62
   1   3  -6  255.90   10.38
  -1   3   6  234.21   10.20
  -1   3   6  232.00    9.89
  -1   3   6  240.97    9.93
   0  -3  -6   67.67    4.26
   0  -3   6   60.65    4.21
   0  -3   6   62.59    4.19
   0  -3  -6   59.80    3.88
   0  -3  -6   61.97    4.52
   0  -3   6   62.76    4.49
   0   3   6   66.64    4.10
   0   3   6   56.49    4.28
   0   3  -6   70.04    4.87
   0   3   6   62.11    3.34
   0   3  -6   54.67    4.12
   0   3   6   77.22    4.97
  -1  -3  -6  234.61    9.59
  -1  -3  -6  236.87   10.02
   1  -3   6  240.79   10.09
  -1  -3  -6  237.37   10.15
   1  -3   6  231.85   10.10
   1  -3   6  227.27   10.00
   1   3   6  234.48   10.08
   1   3   6  225.15   10.38
  -1   3  -6  216.99    9.84
   1   3   6  242.07    9.48
   1   3   6  234.70    9.32
  -2  -3  -6   15.14    2.33
  -2  -3  -6   16.13    2.90
   2  -3   6   13.50    2.52
   2  -3   6   11.83    2.73
  -2  -3  -6   12.74    2.84
   2  -3   6   17.60    3.03
  -2   3  -6   10.39    2.70
   2   3   6   12.02    1.92
   2   3   6   12.79    2.27
  -2   3  -6   11.80    2.49
   2   3   6    8.04    2.59
   2   3   6   13.26    3.19
  -3  -3  -6   50.94    5.19
   3  -3   6   46.29    4.95
   3  -3   6   47.34    4.33
  -3  -3  -6   44.85    4.47
   3  -3   6   47.53    4.67
  -3  -3  -6   43.92    3.99
  -3   3  -6   44.93    4.99
   3   3   6   49.50    4.24
   3   3   6   51.05    5.19
  -3   3  -6   44.04    5.08
  -4  -3  -6  164.48    8.05
  -4  -3  -6  155.38    8.33
   4  -3   6  166.09    7.96
  -4  -3  -6  163.12    8.71
   4  -3   6  164.33    8.70
   4   3   6  164.78    8.35
  -4   3  -6  145.81    8.69
  -4   3  -6  156.97    8.53
   4   3   6  165.37    9.03
  -5  -3  -6    9.68    3.16
  -5  -3  -6   11.52    2.86
  -5  -3  -6    8.40    3.10
   5  -3   6   13.95    3.38
  -5   3  -6    6.43    5.01
   5   3   6    6.77    3.10
  -5   3  -6    9.79    3.43
   5   3   6    6.67    2.90
  -6  -3  -6    4.39    2.63
   6  -3   6    2.28    2.84
  -6  -3  -6    5.05    3.07
  -6  -3  -6    0.55    2.39
   6   3   6    2.72    2.95
  -6   3  -6   -0.75    2.94
   6   3   6   -3.26    2.64
   7  -3   6    2.75    3.30
  -7  -3  -6   -0.50    2.74
  -7  -3  -6   -1.88    2.58
  -7  -3  -6    7.58    3.37
  -7   3  -6    6.36    3.41
   7   3   6    2.48    3.20
   7   3   6    1.58    3.23
  -8  -3  -6    4.41    3.02
   8  -3   6   -1.29    3.53
  -8  -3  -6    7.07    3.69
  -8  -3  -6   11.12    3.35
   8   3   6    6.18    3.80
  -8   3  -6    8.35    4.03
 -11  -4   6    8.98    3.75
  11  -4  -6   10.53    4.06
 -11   4   6   15.86    4.31
  11   4  -6   12.52    4.33
 -11   4   6   11.53    2.66
 -10  -4   6   11.56    3.41
  10  -4  -6    4.84    3.25
 -10   4   6    4.67    3.52
 -10   4   6   11.75    2.53
  10   4  -6   11.24    3.68
 -10   4   6    5.80    3.40
  -9  -4   6   17.97    3.38
   9  -4  -6   16.28    3.75
  -9   4   6   18.09    3.83
  -9   4   6   17.36    3.96
   9   4  -6   20.77    3.99
  -9   4   6   15.98    2.70
   8  -4  -6    7.28    2.90
  -8  -4   6    6.85    2.67
  -8  -4   6    9.39    2.63
  -8  -4   6   11.85    3.35
  -8   4   6    3.73    2.03
  -8   4   6   11.46    3.08
  -8   4   6    2.73    3.10
   8   4  -6    5.78    2.91
  -7  -4   6  100.01    5.98
  -7  -4   6   88.73    6.43
  -7  -4   6   97.53    5.90
   7  -4  -6  104.54    6.54
  -7   4   6   94.01    6.92
  -7   4   6  108.78    6.83
   7   4  -6  100.73    6.23
  -7   4   6  102.09    5.70
  -6  -4   6  150.60    8.00
  -6  -4   6  147.71    7.05
  -6  -4   6  142.80    7.67
   6  -4  -6  132.00    7.60
  -6   4   6  143.05    8.17
  -6   4   6  152.12    8.04
   6   4  -6  150.16    7.70
  -6   4   6  152.79    7.18
  -5  -4   6  347.82   14.13
  -5  -4   6  343.01   14.28
  -5  -4   6  356.61   13.36
   5  -4  -6  348.23   14.12
  -5   4   6  348.88   13.30
   5   4  -6  355.11   14.26
  -5   4   6  356.48   13.70
  -5   4   6  352.92   14.58
   5   4  -6  346.26   13.56
  -5   4   6  329.37   14.21
  -4  -4   6  837.52   28.61
  -4  -4   6  834.19   29.17
  -4  -4   6  846.65   28.60
   4  -4  -6  810.69   30.02
  -4  -4   6  785.10   29.99
   4  -4  -6  849.64   30.43
  -4  -4   6  816.38   30.34
  -4   4   6  890.57   29.94
   4   4  -6  836.81   30.44
  -4   4   6  848.52   29.71
   4   4  -6  812.34   29.55
  -4   4   6  826.52   30.47
  -3  -4   6  866.08   30.11
   3  -4  -6  862.77   31.21
  -3  -4   6  854.95   30.26
  -3  -4   6  910.06   31.37
   3  -4  -6  863.66   31.52
  -3  -4   6  892.25   30.27
  -3  -4   6  848.10   31.49
  -3   4   6  849.06   31.15
  -3   4   6  896.90   31.68
   3   4  -6  871.97   31.67
  -3   4   6  876.03   31.17
   3   4  -6  870.40   30.78
  -2  -4   6  593.06   21.73
   2  -4  -6  631.04   22.65
   2  -4  -6  612.19   22.33
  -2  -4   6  599.18   21.77
  -2  -4   6  612.69   22.68
  -2  -4   6  591.19   22.43
   2   4  -6  618.10   22.90
  -2   4   6  623.95   22.57
  -2   4   6  605.46   22.64
   2   4  -6  608.21   21.98
  -2   4   6  611.39   22.43
   1  -4  -6  100.96    5.74
  -1  -4   6  105.37    5.91
   1  -4  -6  105.31    5.82
  -1  -4   6  115.83    5.40
  -1  -4   6  100.13    5.78
   1  -4  -6  107.37    5.60
  -1   4   6  100.17    5.89
   1   4  -6  104.45    6.06
  -1   4   6  103.63    6.04
  -1   4   6  102.66    5.79
   1   4  -6  104.12    5.29
   0  -4  -6   91.43    5.50
   0  -4   6   91.39    5.15
   0  -4  -6   89.34    5.48
   0  -4   6   85.52    5.40
   0  -4   6   92.17    5.46
   0  -4  -6   90.26    5.17
   0   4   6   93.07    4.37
   0   4  -6   87.12    5.82
   0   4  -6   93.98    5.05
   0   4   6   92.51    5.55
   0   4   6   87.68    5.06
   0   4   6   91.96    5.98
  -1  -4  -6    4.93    2.25
  -1  -4  -6    1.46    1.99
   1  -4   6    1.52    2.04
   1  -4   6   -2.97    1.79
  -1  -4  -6    2.67    1.86
   1  -4   6   -0.20    1.96
   1   4   6    3.48    1.66
   1   4   6    4.33    2.32
   1   4   6    3.69    1.67
   1   4   6   -0.38    2.44
  -1   4  -6    0.62    1.79
  -1   4  -6    1.43    2.42
   2  -4   6   57.05    4.69
   2  -4   6   45.87    4.72
  -2  -4  -6   47.42    4.74
  -2  -4  -6   44.05    3.97
   2  -4   6   51.86    4.23
  -2  -4  -6   52.36    4.64
  -2   4  -6   54.68    5.13
   2   4   6   43.94    4.60
  -2   4  -6   51.44    4.40
   2   4   6   49.43    4.33
   2   4   6   43.04    4.06
   2   4   6   52.48    5.24
   3  -4   6    6.68    2.43
   3  -4   6    9.60    2.86
  -3  -4  -6   11.00    2.61
   3  -4   6   16.28    3.15
  -3  -4  -6   13.30    3.09
  -3  -4  -6   13.50    3.05
  -3   4  -6    9.53    2.79
  -3   4  -6    9.69    3.10
   3   4   6   11.26    3.40
   3   4   6   12.39    2.62
  -4  -4  -6  161.27    7.93
   4  -4   6  143.27    8.46
  -4  -4  -6  145.88    8.05
  -4  -4  -6  144.76    8.24
   4  -4   6  146.84    7.51
   4   4   6  148.11    8.69
  -4   4  -6  147.97    8.69
  -4   4  -6  141.61    8.36
   4   4   6  139.84    7.85
  -5  -4  -6   40.21    4.89
  -5  -4  -6   53.62    5.57
  -5  -4  -6   38.77    4.77
   5  -4   6   43.91    5.70
  -5   4  -6   32.80    4.66
  -5   4  -6   42.91    5.86
   5   4   6   37.15    5.52
   5   4   6   41.95    4.98
  -6  -4  -6    4.15    2.72
  -6  -4  -6    7.88    3.35
  -6  -4  -6    9.33    3.17
   6  -4   6   13.33    3.65
   6   4   6   13.12    3.37
   6   4   6   10.09    3.64
  -6   4  -6    7.04    3.51
  -7  -4  -6    0.91    2.67
  -7  -4  -6    0.73    3.04
   7  -4   6    4.10    3.65
  -7  -4  -6   -4.10    2.52
   7   4   6   -5.04    2.71
   7   4   6   -2.02    3.22
  -7   4  -6    1.27    3.30
  -8  -4  -6   -1.34    2.78
  -8  -4  -6   -6.46    2.63
   8  -4   6    6.71    4.00
  -8  -4  -6    3.23    3.49
   8   4   6   -2.77    3.49
  -8   4  -6   -1.05    3.55
 -11  -5   6    1.21    3.09
 -11   5   6   -2.42    4.67
  11   5  -6   -1.35    3.54
  10  -5  -6   10.36    3.76
 -10  -5   6   12.22    3.41
 -10   5   6   12.06    2.75
  10   5  -6   14.42    4.12
 -10   5   6   14.86    4.15
 -10   5   6    2.64    3.15
   9  -5  -6   -1.35    2.64
  -9  -5   6   -0.27    2.40
  -9   5   6    0.11    2.09
   9   5  -6    0.64    2.93
  -9   5   6    0.86    3.26
   9   5  -6    0.52    2.87
  -9   5   6    4.80    3.17
  -8  -5   6  124.97    7.41
  -8  -5   6  135.03    8.59
   8  -5  -6  134.61    8.19
  -8   5   6  139.87    7.27
  -8   5   6  135.07    8.75
   8   5  -6  133.16    8.25
  -8   5   6  133.60    8.20
   7  -5  -6   15.41    3.29
  -7  -5   6   14.16    2.75
  -7  -5   6   12.05    3.26
   7   5  -6   10.52    3.29
  -7   5   6   13.92    3.17
  -7   5   6   12.94    2.72
  -7   5   6   13.90    3.76
   7   5  -6   14.11    2.99
  -6  -5   6  192.58    8.72
   6  -5  -6  205.61    9.73
  -6  -5   6  183.75    9.60
  -6   5   6  206.34    9.20
   6   5  -6  196.79    9.53
  -6   5   6  196.69    9.84
  -6   5   6  205.58   10.02
  -5  -5   6   73.83    5.77
  -5  -5   6   69.81    4.53
  -5  -5   6   77.48    5.55
   5  -5  -6   78.95    5.39
  -5   5   6   80.32    6.09
   5   5  -6   76.60    5.51
  -5   5   6   70.47    5.60
  -5   5   6   75.09    5.24
  -4  -5   6   12.84    1.81
   4  -5  -6    7.51    2.64
  -4  -5   6   11.31    1.54
  -4  -5   6   17.86    2.54
   4  -5  -6   16.21    2.90
  -4  -5   6   11.49    2.67
  -4  -5   6   12.30    2.99
  -4   5   6   11.56    2.40
  -4   5   6   11.65    3.09
   4   5  -6   14.29    2.00
   4   5  -6   11.93    3.05
  -4   5   6    8.25    2.40
   3  -5  -6  220.60    9.67
  -3  -5   6  207.57    8.56
   3  -5  -6  218.75    9.84
  -3  -5   6  222.21   10.06
  -3  -5   6  220.95    9.87
   3   5  -6  208.06    8.69
  -3   5   6  223.17   10.11
  -3   5   6  210.31    9.70
  -3   5   6  219.42    9.60
   3   5  -6  221.93   10.22
  -2  -5   6   28.09    4.15
   2  -5  -6   25.11    3.46
  -2  -5   6   29.18    3.02
  -2  -5   6   28.01    3.91
   2  -5  -6   27.08    3.85
   2   5  -6   26.79    2.77
  -2   5   6   29.89    4.19
  -2   5   6   31.76    3.87
  -2   5   6   30.90    4.00
   2   5  -6   29.29    4.35
  -1  -5   6   10.52    2.16
  -1  -5   6   20.29    3.14
  -1  -5   6   12.12    2.77
   1  -5  -6   17.37    2.65
   1  -5  -6   14.40    2.65
   1  -5  -6   18.75    3.39
   1   5  -6   19.60    2.75
   1   5  -6   22.74    3.48
  -1   5   6   17.75    3.01
  -1   5   6   10.59    2.80
  -1   5   6   17.59    2.81
   0  -5  -6    0.20    2.01
   0  -5   6    1.53    2.09
   0  -5  -6    2.45    1.92
   0  -5  -6    1.60    1.95
   0  -5   6   -2.33    1.77
   0  -5   6   -0.83    2.05
   0   5   6   -0.52    2.42
   0   5  -6   -0.82    2.36
   0   5   6   -0.67    1.91
   0   5   6    0.87    2.18
   0   5  -6    0.39    1.58
  -1  -5  -6   -0.02    1.85
   1  -5   6    4.63    2.30
  -1  -5  -6   -1.06    2.04
   1  -5   6    1.66    2.19
   1  -5   6   -1.72    1.93
  -1  -5  -6    0.97    2.16
  -1   5  -6    0.81    1.78
   1   5   6    0.09    1.77
   1   5   6   -2.36    2.47
   1   5   6    1.18    2.24
  -1   5  -6   -0.12    2.47
   1   5   6    0.32    1.58
  -2  -5  -6   66.03    5.18
   2  -5   6   69.31    4.92
   2  -5   6   58.69    5.02
  -2  -5  -6   64.87    5.17
   2  -5   6   62.43    5.37
  -2  -5  -6   74.02    5.05
   2   5   6   54.73    4.51
  -2   5  -6   57.15    5.65
   2   5   6   62.32    5.71
  -2   5  -6   74.82    5.13
   3  -5   6   87.44    6.09
  -3  -5  -6   71.04    6.00
  -3  -5  -6   75.46    5.90
   3  -5   6   89.50    6.39
   3  -5   6   71.28    5.28
  -3  -5  -6   88.13    5.62
  -3   5  -6   75.56    6.72
   3   5   6   73.34    6.36
   3   5   6   71.81    5.45
  -3   5  -6   72.90    5.90
  -4  -5  -6   19.56    3.39
   4  -5   6   25.48    4.30
  -4  -5  -6   28.43    3.85
  -4  -5  -6   26.83    3.77
   4   5   6   33.32    4.40
   4   5   6   22.30    4.17
  -4   5  -6   29.54    4.46
  -4   5  -6   23.58    3.93
   5  -5   6   14.22    3.80
  -5  -5  -6    9.90    3.34
  -5  -5  -6   13.54    3.19
  -5  -5  -6    3.09    2.78
  -5   5  -6   13.89    3.93
  -5   5  -6    9.92    3.48
   5   5   6    5.95    3.54
   5   5   6    5.60    3.05
   6  -5   6   34.13    5.15
  -6  -5  -6   40.51    5.77
  -6  -5  -6   33.36    4.74
  -6  -5  -6   28.44    4.34
   6   5   6   30.95    4.72
   6   5   6   36.12    5.30
  -6   5  -6   27.34    4.66
  -7  -5  -6    8.46    3.76
  -7  -5  -6    6.61    3.43
  -7  -5  -6    7.59    3.26
   7  -5   6    6.54    4.22
  -7   5  -6    8.48    3.92
   7   5   6    5.36    4.01
   7   5   6    3.22    3.49
  -8  -5  -6    8.62    5.77
  -8  -5  -6    0.71    3.11
  -8  -5  -6    5.95    3.27
   8   5   6    7.76    4.22
 -10  -6   6   -0.59    2.70
  10  -6  -6   -0.09    3.04
 -10   6   6   -3.22    3.55
 -10   6   6    4.14    2.58
 -10   6   6    2.23    3.28
  10   6  -6    4.63    3.31
   9  -6  -6   29.76    4.70
  -9  -6   6   21.18    3.77
  -9   6   6   23.84    4.26
  -9   6   6   16.34    4.30
  -9   6   6   31.69    4.45
   9   6  -6   22.38    4.37
   8  -6  -6    7.07    3.23
  -8  -6   6    3.27    3.24
  -8  -6   6    6.15    2.60
  -8   6   6    5.35    3.51
  -8   6   6    0.04    2.29
   8   6  -6    6.01    3.39
  -8   6   6    4.48    2.84
   7  -6  -6    1.54    2.56
  -7  -6   6    0.26    2.05
  -7  -6   6    0.99    2.89
  -7   6   6   -2.52    2.01
  -7   6   6   -2.06    2.44
   7   6  -6    0.83    2.85
  -7   6   6   -1.28    2.89
  -6  -6   6   39.83    4.02
  -6  -6   6   43.24    5.27
   6  -6  -6   57.46    5.31
   6   6  -6   43.86    5.39
  -6   6   6   54.21    5.09
   6   6  -6   46.77    4.82
  -6   6   6   49.59    4.80
  -6   6   6   58.07    6.10
   5  -6  -6   19.12    3.35
  -5  -6   6   18.68    3.43
  -5  -6   6   18.81    2.69
  -5  -6   6   19.76    1.84
  -5  -6   6   21.78    3.79
  -5   6   6   14.42    3.46
  -5   6   6   20.64    3.29
   5   6  -6   21.10    3.50
  -4  -6   6    7.01    2.83
   4  -6  -6    7.03    2.58
  -4  -6   6    5.55    2.90
  -4  -6   6    3.83    1.54
   4  -6  -6    7.47    2.67
  -4   6   6    7.60    2.38
  -4   6   6    4.08    2.47
   4   6  -6    6.03    2.85
  -4   6   6    7.76    3.01
  -3  -6   6    0.99    2.46
  -3  -6   6   -0.58    2.39
   3  -6  -6    2.76    2.17
   3  -6  -6   -1.38    2.06
  -3  -6   6   -1.08    1.47
  -3   6   6    1.94    2.64
  -3   6   6    5.01    2.41
   3   6  -6   -0.05    2.69
  -3   6   6    0.39    2.29
  -2  -6   6    1.97    2.47
  -2  -6   6    2.46    2.61
   2  -6  -6    5.50    2.39
   2  -6  -6    5.63    2.53
  -2  -6   6    3.92    1.85
  -2   6   6    5.51    2.77
  -2   6   6    7.63    2.72
  -2   6   6    6.88    2.62
   2   6  -6    4.97    2.89
  -1  -6   6   12.02    2.90
  -1  -6   6    8.63    2.29
   1  -6  -6    9.60    2.44
   1  -6  -6    6.88    2.41
  -1  -6   6    2.85    2.50
  -1   6   6    7.22    2.68
  -1   6   6    8.42    2.87
   1   6  -6    6.42    3.03
  -1   6   6   10.84    2.81
   0  -6   6   21.09    2.85
   0  -6   6   12.10    2.94
   0  -6   6   14.07    3.00
   0  -6  -6   17.72    3.12
   0  -6  -6   12.25    2.71
   0  -6  -6   18.99    2.88
   0   6  -6   12.91    2.25
   0   6   6   19.67    3.05
   0   6   6   15.11    3.15
   0   6   6   18.88    3.30
   0   6  -6   19.82    3.80
  -1  -6  -6    0.09    2.21
   1  -6   6    5.31    2.37
   1  -6   6    4.82    2.40
  -1  -6  -6   -1.39    2.04
   1  -6   6    2.92    2.57
  -1  -6  -6    2.63    2.42
   1   6   6    3.03    2.12
  -1   6  -6    4.73    2.08
   1   6   6    5.96    2.94
  -1   6  -6    5.14    3.08
  -2  -6  -6    0.36    2.33
  -2  -6  -6   -0.50    2.25
   2  -6   6   -1.00    2.25
  -2  -6  -6    2.95    2.45
   2  -6   6    3.90    2.45
   2  -6   6   -0.16    2.25
   2   6   6    1.09    1.98
  -2   6  -6   -0.79    3.03
  -2   6  -6    2.31    2.35
   2   6   6   -4.68    2.55
  -3  -6  -6   16.72    3.29
   3  -6   6   17.15    3.58
  -3  -6  -6   16.81    3.37
   3  -6   6   13.55    3.22
  -3  -6  -6   17.46    3.29
   3  -6   6   20.31    3.14
   3   6   6   20.99    3.35
  -3   6  -6   29.95    4.47
  -3   6  -6   19.40    3.99
   3   6   6   23.84    4.26
  -4  -6  -6   11.94    3.18
  -4  -6  -6   12.44    3.41
   4  -6   6   12.70    3.64
  -4  -6  -6    6.07    2.79
   4   6   6    4.83    3.33
  -4   6  -6    9.65    3.05
   4   6   6   11.30    3.16
  -4   6  -6   11.69    4.15
  -5  -6  -6    4.56    2.98
  -5  -6  -6   -3.93    2.56
  -5  -6  -6    5.93    3.03
   5  -6   6    4.12    3.34
  -5   6  -6    3.55    2.93
   5   6   6    0.53    3.37
   5   6   6    2.33    2.92
  -5   6  -6    0.71    3.58
   6  -6   6    1.18    3.47
  -6  -6  -6   -0.35    2.91
  -6  -6  -6    2.18    2.76
   6   6   6   -2.88    3.27
   6   6   6    0.92    2.98
  -6   6  -6    0.32    3.09
  -6   6  -6    3.45    4.08
  -7  -6  -6   19.10    4.04
   7  -6   6   26.48    5.17
  -7  -6  -6   19.21    4.29
   7   6   6   25.12    5.35
  -7   6  -6   19.65    4.40
   7   6   6   17.64    4.35
 -10  -7   6    2.21    3.06
 -10   7   6    4.75    3.79
 -10   7   6   -0.85    3.68
  10   7  -6    6.10    3.91
  -9  -7   6   16.01    3.47
  -9  -7   6   13.35    4.52
   9  -7  -6   13.85    3.88
  -9   7   6   14.35    3.31
  -9   7   6   10.94    4.42
   9   7  -6   13.16    4.13
  -9   7   6    9.75    3.64
  -8  -7   6   -0.32    2.94
  -8  -7   6    3.30    2.51
   8  -7  -6    0.34    2.82
  -8   7   6    1.86    2.57
  -8   7   6    0.13    3.48
  -8   7   6    2.80    2.83
   8   7  -6    6.15    3.70
  -7  -7   6   11.34    3.70
   7  -7  -6    4.22    2.96
  -7  -7   6    4.77    3.32
  -7   7   6    9.11    3.71
  -7   7   6    1.15    2.74
   7   7  -6    1.82    3.34
  -7   7   6    4.26    2.62
   6  -7  -6    1.53    2.76
  -6  -7   6    2.88    3.02
  -6  -7   6    5.64    1.05
  -6   7   6    4.60    2.60
  -6   7   6    4.33    2.59
   6   7  -6    7.83    3.55
  -6   7   6    3.62    3.40
   6   7  -6    3.69    2.82
   5  -7  -6    7.62    2.96
  -5  -7   6    3.61    3.08
   5  -7  -6   11.60    3.13
  -5   7   6   10.07    3.23
   5   7  -6    5.86    2.96
   5   7  -6    8.48    3.28
  -5   7   6    8.81    2.84
  -4  -7   6  220.88    9.04
  -4  -7   6  216.69   10.97
  -4  -7   6  218.35   10.68
   4  -7  -6  223.53   10.51
   4  -7  -6  216.00   10.56
  -4   7   6  234.01   10.65
  -4   7   6  222.29   10.11
   4   7  -6  210.69   10.84
  -4   7   6  228.74   11.18
   3  -7  -6   33.23    4.15
   3  -7  -6   21.60    3.66
  -3  -7   6   30.46    3.46
  -3  -7   6   34.85    4.34
  -3  -7   6   26.56    3.89
  -3   7   6   32.14    4.52
  -3   7   6   32.11    4.37
   3   7  -6   30.98    4.48
  -3   7   6   32.22    3.95
   2  -7  -6  101.45    6.81
   2  -7  -6  115.40    6.60
  -2  -7   6  107.85    7.07
  -2  -7   6  109.51    6.08
  -2  -7   6  125.07    7.25
  -2   7   6  100.42    6.73
  -2   7   6  111.88    7.18
   2   7  -6  129.57    7.88
  -2   7   6  117.64    7.22
  -1  -7   6  182.42    9.50
  -1  -7   6  180.51    9.42
   1  -7  -6  186.28    8.84
  -1  -7   6  185.08    8.73
   1  -7  -6  195.81    9.39
  -1   7   6  197.42    9.60
   1   7  -6  190.32   10.18
  -1   7   6  194.42    9.71
  -1   7   6  192.11    9.47
   0  -7  -6    0.66    2.16
   0  -7   6    4.29    2.29
   0  -7   6   -2.33    2.40
   0  -7   6    3.68    2.58
   0  -7  -6    2.52    2.39
   0   7   6   -1.00    2.33
   0   7   6   -2.62    2.76
   0   7  -6    7.32    3.17
   1  -7   6   83.88    6.25
  -1  -7  -6   69.99    5.35
   1  -7   6   74.13    5.93
  -1  -7  -6   70.70    5.69
   1  -7   6   78.03    5.74
  -1  -7  -6   67.26    6.05
   1   7   6   83.28    6.72
  -1   7  -6   79.07    7.02
  -2  -7  -6   30.29    4.85
  -2  -7  -6   30.48    3.99
  -2  -7  -6   21.08    3.62
   2  -7   6   25.41    3.78
   2  -7   6   29.95    4.45
   2  -7   6   25.12    4.15
   2   7   6   19.73    4.09
  -2   7  -6   24.98    4.49
  -3  -7  -6   31.11    4.18
  -3  -7  -6   38.20    5.11
   3  -7   6   16.33    3.44
   3  -7   6   32.56    4.61
  -3   7  -6   49.79    6.71
   3   7   6   28.82    4.45
  -4  -7  -6    9.23    3.31
   4  -7   6    5.45    3.28
  -4  -7  -6    5.36    2.95
   4   7   6    1.80    2.79
  -4   7  -6    7.91    2.99
   4   7   6   10.47    3.83
  -4   7  -6    9.44    4.38
   5  -7   6    1.62    3.32
  -5  -7  -6    3.34    2.93
  -5  -7  -6   -4.17    2.59
   5   7   6   -3.12    3.17
  -5   7  -6   -0.45    2.79
   5   7   6    2.17    3.11
  -5   7  -6    4.18    4.55
  -6  -7  -6    6.95    3.44
   6  -7   6   14.28    4.58
  -6  -7  -6    7.56    3.36
  -6   7  -6    4.37    4.37
   6   7   6    7.58    3.62
  -6   7  -6    6.71    3.42
   6   7   6    2.83    3.95
  -7  -7  -6    7.84    3.54
  -7   7  -6    3.45    3.69
   7   7   6    3.91    3.67
   7   7   6    8.01    4.37
  -9  -8   6    9.08    4.28
   9  -8  -6    4.88    4.68
   9   8  -6   -1.98    3.39
  -9   8   6   -0.50    4.02
  -9   8   6   -3.11    2.63
  -9   8   6   -4.76    2.83
  -8  -8   6   64.33    7.16
   8  -8  -6   64.65    6.79
  -8   8   6   58.39    7.74
   8   8  -6   71.21    7.19
  -8   8   6   63.39    6.19
  -8   8   6   77.47    6.86
   7  -8  -6   14.49    3.73
  -7  -8   6    4.00    3.46
  -7   8   6    5.49    2.94
  -7   8   6    7.47    3.13
   7   8  -6    9.19    4.11
  -7   8   6    7.93    4.15
   6  -8  -6    5.65    3.21
   6  -8  -6    1.40    2.64
  -6  -8   6    7.40    3.42
  -6  -8   6    3.05    1.30
  -6   8   6    1.55    3.18
   6   8  -6   -3.04    4.25
   6   8  -6   -4.82    3.13
  -6   8   6   -0.81    2.66
   5  -8  -6   10.92    3.42
   5  -8  -6   12.46    3.22
  -5  -8   6    7.18    3.42
   5   8  -6   12.11    3.71
   5   8  -6   10.20    3.71
  -5   8   6   13.32    3.27
  -5   8   6    8.52    3.56
   4  -8  -6   15.51    3.21
   4  -8  -6   13.94    3.52
  -4  -8   6   14.53    2.34
  -4  -8   6   13.39    3.55
   4   8  -6   14.40    3.85
  -4   8   6   17.75    3.54
   4   8  -6   14.20    3.95
  -4   8   6   13.89    3.62
   3  -8  -6   30.52    4.24
  -3  -8   6   31.51    4.46
  -3  -8   6   32.16    3.68
   3  -8  -6   19.51    3.50
   3   8  -6   24.81    4.42
  -3   8   6   30.95    4.15
  -3   8   6   20.55    3.71
  -3   8   6   37.76    5.30
  -2  -8   6    5.29    3.11
   2  -8  -6    5.41    2.84
  -2  -8   6    3.90    2.99
  -2  -8   6   -0.60    2.01
  -2   8   6    0.68    2.87
  -2   8   6   -0.13    2.73
  -2   8   6    4.25    2.84
   2   8  -6    5.16    3.37
   1  -8  -6    2.31    2.61
  -1  -8   6    6.17    3.10
  -1  -8   6    6.38    2.61
  -1  -8   6    5.62    2.98
  -1   8   6    5.63    3.03
   1   8  -6    5.04    3.20
  -1   8   6   10.18    3.37
   0  -8  -6    9.25    3.10
   0  -8   6    9.05    2.71
   0  -8   6    7.46    3.35
   0  -8   6    7.91    3.17
   0   8   6    7.27    3.42
   0   8  -6    9.35    3.50
   0   8   6   11.45    3.03
   1  -8   6    0.97    2.52
   1  -8   6    0.13    2.56
  -1  -8  -6   -1.09    2.45
   1  -8   6   -0.17    2.61
   1   8   6    0.02    3.29
  -1   8  -6   -3.83    3.03
   2  -8   6   18.04    3.87
  -2  -8  -6   18.22    4.49
   2  -8   6   17.66    3.67
  -2  -8  -6   14.27    3.54
   2  -8   6   12.17    3.26
  -2   8  -6   24.24    4.92
   2   8   6   16.36    4.39
  -3  -8  -6   35.16    5.15
   3  -8   6   42.28    5.78
  -3  -8  -6   40.93    5.53
   3  -8   6   39.54    5.40
   3   8   6   37.92    5.49
  -3   8  -6   41.09    5.99
  -4  -8  -6   11.91    3.40
   4  -8   6    6.64    3.48
  -4  -8  -6    6.89    3.17
   4   8   6    8.43    4.19
  -4   8  -6   14.95    4.94
  -5  -8  -6   51.81    6.26
  -5  -8  -6   59.88    6.26
   5  -8   6   38.83    6.29
  -5   8  -6   54.11    8.13
   5   8   6   42.70    6.74
  -6  -8  -6    8.01    3.60
  -6  -8  -6    2.25    3.26
  -6   8  -6   11.14    4.65
   6   8   6   -1.86    3.70
  -8  -9   6   -4.92    3.28
   8  -9  -6   -9.68    2.98
  -8   9   6   -6.54    2.48
   8   9  -6    4.84    4.06
  -8   9   6    3.79    3.18
  -8   9   6   -3.06    3.89
   7  -9  -6    2.35    3.54
  -7  -9   6    3.06    3.73
  -7   9   6   -1.69    3.56
   7   9  -6    1.04    3.72
  -7   9   6   -1.42    2.64
   6  -9  -6    1.71    3.12
  -6  -9   6    0.61    3.32
  -6  -9   6    0.58    1.44
  -6   9   6   -3.48    2.65
   6   9  -6   -1.41    3.47
  -6   9   6   -0.63    3.36
   5  -9  -6    9.78    3.68
  -5  -9   6    7.09    3.59
   5   9  -6   10.45    3.62
  -5   9   6   11.40    3.51
  -5   9   6   13.97    4.14
   5   9  -6   10.55    3.95
   4  -9  -6    7.92    3.07
  -4  -9   6    3.90    3.31
  -4  -9   6    8.39    2.18
   4   9  -6    8.41    3.74
  -4   9   6    3.86    3.44
   4   9  -6    3.94    3.21
  -4   9   6    1.42    3.08
   3  -9  -6   27.73    4.34
  -3  -9   6   18.96    3.05
  -3  -9   6   16.41    4.03
   3   9  -6   28.64    4.66
  -3   9   6   26.13    4.44
   3   9  -6   24.63    4.56
  -3   9   6   22.52    3.86
   2  -9  -6   43.83    5.20
  -2  -9   6   32.43    4.35
  -2  -9   6   35.32    5.40
  -2   9   6   28.12    4.30
   2   9  -6   45.76    6.23
   2   9  -6   37.85    5.09
  -2   9   6   38.00    5.69
   1  -9  -6   10.37    3.37
  -1  -9   6   -2.08    2.84
  -1  -9   6    3.36    2.56
  -1   9   6    9.34    3.33
   1   9  -6    3.83    3.51
  -1   9   6    8.80    3.56
   0  -9   6   14.16    3.26
   0  -9   6   14.07    3.66
   0  -9  -6    8.89    3.35
   0   9   6   22.97    4.44
   0   9  -6    9.06    3.90
  -1  -9  -6   16.50    3.68
   1  -9   6    9.94    3.58
   1  -9   6   14.91    3.43
   1  -9   6   13.53    3.97
   1   9   6   16.98    4.22
  -1   9  -6   14.75    4.26
  -2  -9  -6   14.91    3.76
   2  -9   6   13.62    4.06
   2  -9   6   11.77    3.58
  -2   9  -6   13.59    4.47
   2   9   6   14.12    4.20
   3  -9   6   66.66    6.89
  -3  -9  -6   67.16    6.52
   3   9   6   74.31    7.75
  -3   9  -6   88.07    9.19
  -4  -9  -6    5.51    3.47
  -4  -9  -6    3.60    3.17
   4  -9   6    6.13    3.69
  -4   9  -6   20.50    5.74
   4   9   6   12.51    4.43
  -5  -9  -6   15.79    4.16
  -5  -9  -6   16.18    4.25
   5  -9   6   17.91    6.70
   5   9   6   15.26    5.22
  -5   9  -6    9.13    5.05
  -7 -10   6   19.63    2.29
  -7  10   6   11.30    3.71
   7  10  -6   24.95    7.74
  -6 -10   6   64.91    7.31
  -6 -10   6   51.71    3.94
   6 -10  -6   58.75    6.71
   6  10  -6   57.76    7.50
  -6  10   6   58.62    7.50
  -6  10   6   50.55    6.48
  -5 -10   6   -3.34    3.08
  -5 -10   6   -1.04    1.94
   5 -10  -6    0.14    3.16
  -5  10   6    1.41    3.64
   5  10  -6   -2.52    3.56
   4 -10  -6   71.50    6.90
  -4 -10   6   68.85    7.34
  -4 -10   6   72.14    5.36
   4  10  -6   79.82    8.16
  -4  10   6   76.12    7.52
   4  10  -6   98.16    7.66
  -3 -10   6    2.68    3.37
   3 -10  -6    0.52    3.12
  -3 -10   6    2.46    2.36
   3  10  -6    5.95    3.75
   3  10  -6   10.45    3.82
  -3  10   6    8.05    3.88
  -2 -10   6   -2.31    2.26
   2 -10  -6   -2.96    2.78
  -2 -10   6   -5.59    2.96
  -2  10   6   -5.70    2.89
   2  10  -6    4.83    3.59
   2  10  -6    4.57    3.32
  -2  10   6   -1.23    3.18
  -1 -10   6    5.25    2.87
   1 -10  -6    8.86    3.41
  -1 -10   6   13.68    4.01
  -1  10   6    4.01    3.63
   1  10  -6    6.53    3.85
  -1  10   6    6.56    3.46
   1  10  -6   13.19    3.89
   0 -10   6   12.42    3.40
   0 -10   6   12.59    4.05
   0 -10  -6   13.77    3.61
   0  10  -6   15.53    4.70
   0  10   6   10.41    4.13
   0  10  -6   11.72    3.86
  -1 -10  -6    1.81    2.94
   1 -10   6    8.33    3.31
   1 -10   6    3.04    3.20
  -1  10  -6    0.99    3.07
   1  10   6    2.44    3.68
  -1  10  -6    1.10    4.31
  -2 -10  -6   38.38    5.84
   2 -10   6   49.96    6.56
   2 -10   6   49.71    6.46
  -2  10  -6   55.64    8.73
   2  10   6   36.75    5.84
  -3 -10  -6    9.47    3.68
   3 -10   6   14.06    4.32
  -3  10  -6    3.32    4.88
   3  10   6   12.49    4.74
  -5 -11   6    7.95    3.09
  -5 -11   6    9.96    6.82
   5 -11  -6    5.91    5.06
  -5  11   6    6.98    4.37
   5  11  -6   14.25    7.00
  -4 -11   6   16.13    3.01
   4 -11  -6   18.20    4.53
  -4 -11   6   15.07    4.74
  -4  11   6   14.96    4.54
   4  11  -6   16.63    4.81
   4  11  -6   23.18    4.68
  -3 -11   6   12.80    4.19
  -3 -11   6   16.15    3.12
   3 -11  -6    4.76    3.57
   3  11  -6    9.34    4.03
   3  11  -6   13.54    4.47
  -3  11   6    8.04    4.21
  -2 -11   6    7.16    3.79
   2 -11  -6   10.23    3.90
  -2 -11   6    3.12    2.94
   2  11  -6    9.83    4.61
  -2  11   6    0.92    5.35
   2  11  -6    8.30    4.03
  -2  11   6    6.67    3.75
   1 -11  -6    1.15    3.19
  -1 -11   6    0.00    2.81
  -1 -11   6   -3.68    3.37
   1  11  -6   12.77    4.86
  -1  11   6   -0.22    3.65
   1  11  -6    0.45    3.19
   0 -11  -6   44.29    6.12
   0 -11   6   56.38    6.78
   0 -11   6   46.13    5.92
   0  11   6   58.66    7.29
   0  11  -6   43.56    6.28
   0  11  -6   55.86    8.51
   1 -11   6    8.29    3.98
   1 -11   6    3.22    3.36
  -1 -11  -6    5.80    3.56
   1  11   6    5.65    4.48
  -1  11  -6   13.25    5.49
   2 -11   6   15.36    3.99
   2 -11   6    6.99    5.57
   2  11   6   -4.54    4.33
   2  12  -6    5.63    5.24
  -2  12   6   10.38    4.39
   2  12  -6   12.95    7.00
   1  12  -6   52.45    7.41
  -1  12   6   50.62    6.65
  11   0  -7   12.30    3.76
 -11   0   7    3.74    3.23
  10   0  -7    4.62    3.07
 -10   0   7   -2.95    2.67
   9   0  -7   45.17    5.27
  -9   0   7   40.72    5.26
  -9   0   7   43.49    5.19
  -8   0   7   -2.50    2.30
   8   0  -7   -3.86    2.11
  -8   0   7   -3.02    2.30
  -7   0   7   52.84    5.13
   7   0  -7   52.28    4.65
  -7   0   7   57.19    5.17
  -7   0   7   61.96    4.43
  -6   0   7    1.53    2.17
  -6   0   7    0.69    0.85
  -6   0   7   -0.09    0.81
   6   0  -7   -0.17    1.74
  -6   0   7   -0.31    1.79
  -6   0   7   -3.69    2.10
   6   0  -7    1.01    1.36
  -5   0   7   22.74    3.33
  -5   0   7   19.69    1.99
   5   0  -7   26.27    3.40
  -5   0   7   20.22    1.88
   5   0  -7   20.59    2.77
  -5   0   7   23.83    3.31
   4   0  -7   -2.41    1.71
  -4   0   7   -1.20    1.94
  -4   0   7   -1.57    0.99
  -4   0   7   -0.75    1.87
  -4   0   7    0.80    1.07
  -4   0   7    2.20    1.25
   4   0  -7   -1.91    1.14
  -3   0   7    0.05    1.26
  -3   0   7   -0.95    1.82
   3   0  -7    1.62    1.79
  -3   0   7    1.98    1.03
  -3   0   7    0.74    1.84
   3   0  -7   -0.39    1.01
  -3   0   7   -0.11    1.12
  -2   0   7   -0.42    0.99
  -2   0   7    0.47    1.38
   2   0  -7   -0.76    0.90
  -2   0   7   -0.45    1.07
   2   0  -7    2.20    1.74
  -2   0   7    1.10    1.87
  -2   0   7   -2.29    1.42
   1   0  -7  459.20   17.66
  -1   0   7  510.57   17.82
  -1   0   7  441.03   17.09
   1   0  -7  442.36   16.20
  -1   0   7  464.41   17.52
  -1   0   7  458.58   16.59
   0   0   7    1.65    2.05
   0   0   7    1.32    1.78
   0   0  -7    1.67    1.93
   0   0   7    1.13    1.71
   0   0  -7    0.47    0.91
   0   0   7   -1.22    1.27
  -1   0  -7  587.12   20.71
  -1   0  -7  612.00   21.77
   1   0   7  576.24   21.44
  -1   0  -7  570.41   22.12
  -1   0  -7  632.96   22.80
   1   0   7  570.75   21.91
   1   0   7  577.23   22.11
   2   0   7   -1.86    1.72
   2   0   7   -1.49    2.03
  -2   0  -7   -2.15    1.14
  -2   0  -7    0.38    2.23
  -2   0  -7    2.96    1.94
   2   0   7    0.75    2.28
  -2   0  -7    0.79    1.81
  -3   0  -7   10.36    3.06
   3   0   7   14.70    2.89
   3   0   7   15.40    3.03
  -3   0  -7   14.73    2.26
  -3   0  -7   16.79    2.57
  -3   0  -7   14.47    3.20
   3   0   7   16.36    3.22
   4   0   7    1.49    2.39
  -4   0  -7    2.84    2.87
   4   0   7   -1.67    2.39
  -4   0  -7    3.36    3.37
   5   0   7   41.63    5.12
  -5   0  -7   36.22    5.75
   5   0   7   30.33    4.09
   6   0   7    0.06    2.77
  -6   0  -7   -3.48    2.94
  -7   0  -7   47.95    6.66
   7   0   7   47.13    6.24
  -8   0  -7   -1.26    3.54
   8   0   7    4.79    3.71
  11  -1  -7   12.64    3.90
 -11  -1   7   17.21    3.99
  11   1  -7   12.29    3.99
 -11   1   7   16.10    3.86
  10  -1  -7    1.09    2.83
 -10  -1   7    1.00    2.82
 -10   1   7    2.46    2.99
  10   1  -7    2.39    3.02
 -10   1   7    5.76    3.05
  -9  -1   7   18.47    3.58
   9  -1  -7   11.31    3.30
  -9  -1   7    8.41    3.03
   9   1  -7   14.51    3.47
  -9   1   7   10.76    3.21
  -9   1   7   14.30    1.64
  -9   1   7   13.07    3.30
  -8  -1   7  108.39    6.84
   8  -1  -7  101.83    6.57
  -8  -1   7   93.80    6.80
  -8   1   7   91.37    6.64
  -8   1   7  104.47    4.39
  -8   1   7  110.82    7.21
   8   1  -7  108.06    6.35
   8   1  -7  104.89    6.44
  -7  -1   7   18.67    3.39
  -7  -1   7   23.40    3.45
   7  -1  -7   19.06    3.00
  -7  -1   7   19.45    2.89
  -7   1   7   16.36    3.15
  -7   1   7   16.97    2.04
  -7   1   7   16.68    3.08
   7   1  -7   16.17    2.53
   7   1  -7   14.90    2.71
  -7   1   7   13.76    2.02
  -6  -1   7   26.89    3.61
  -6  -1   7   25.05    3.31
  -6  -1   7   20.59    3.01
   6  -1  -7   30.22    3.48
   6   1  -7   22.01    3.11
  -6   1   7   26.55    4.10
  -6   1   7   26.55    2.37
  -6   1   7   24.86    2.35
  -6   1   7   34.50    4.22
  -6   1   7   25.45    3.38
  -5  -1   7   42.49    3.32
  -5  -1   7   46.33    2.16
  -5  -1   7   39.99    2.04
  -5  -1   7   41.82    3.94
   5  -1  -7   38.94    3.53
  -5  -1   7   39.08    4.40
   5  -1  -7   38.52    4.41
   5   1  -7   46.64    3.33
  -5   1   7   41.03    2.77
  -5   1   7   40.17    3.78
  -5   1   7   39.24    4.31
   5   1  -7   41.99    4.23
  -5   1   7   40.33    2.86
  -4  -1   7  476.85   16.52
   4  -1  -7  474.71   18.20
  -4  -1   7  467.96   16.55
   4  -1  -7  464.47   17.26
  -4  -1   7  478.76   17.01
  -4  -1   7  456.76   18.03
  -4  -1   7  473.58   17.87
  -4   1   7  460.05   16.91
   4   1  -7  457.23   17.87
   4   1  -7  466.86   16.96
  -4   1   7  456.30   18.08
  -4   1   7  471.86   17.63
  -4   1   7  481.96   16.96
  -3  -1   7  179.08    6.94
  -3  -1   7  166.63    6.78
  -3  -1   7  170.32    6.96
  -3  -1   7  172.90    8.09
   3  -1  -7  167.98    7.01
  -3  -1   7  173.07    7.98
   3  -1  -7  171.34    8.09
   3   1  -7  169.15    6.61
  -3   1   7  175.70    8.10
   3   1  -7  158.82    7.79
  -3   1   7  169.52    7.14
  -3   1   7  166.66    7.76
  -3   1   7  163.92    7.14
  -2  -1   7   42.60    2.85
  -2  -1   7   41.29    2.94
  -2  -1   7   35.87    3.03
   2  -1  -7   36.94    3.70
   2  -1  -7   40.89    2.73
  -2  -1   7   39.16    3.85
  -2  -1   7   40.65    3.77
  -2   1   7   40.29    2.13
  -2   1   7   32.27    3.62
   2   1  -7   40.16    3.69
  -2   1   7   37.93    3.25
  -2   1   7   39.34    3.73
   2   1  -7   38.00    2.06
  -1  -1   7    6.70    1.85
  -1  -1   7    5.34    2.07
  -1  -1   7    7.91    1.68
   1  -1  -7    8.40    2.30
  -1  -1   7    3.71    2.03
   1  -1  -7    8.16    1.43
  -1   1   7    9.42    2.04
  -1   1   7    5.94    1.29
  -1   1   7    5.51    1.98
   1   1  -7    5.65    2.11
  -1   1   7    6.36    2.06
   0  -1   7    2.78    1.96
   0  -1  -7   -0.62    1.90
   0  -1  -7    0.39    1.51
   0  -1   7    2.96    1.66
   0  -1  -7    0.96    1.15
   0  -1   7    2.12    2.04
   0   1  -7    1.20    1.81
   0   1   7    2.37    1.32
   0   1   7    0.73    1.80
   0   1   7   -0.16    1.78
   0   1   7   -0.15    1.58
   0   1  -7    2.92    1.99
   1  -1   7    0.07    1.78
  -1  -1  -7    6.04    2.23
   1  -1   7    2.64    2.00
  -1  -1  -7    4.72    1.46
   1  -1   7    5.70    2.39
  -1  -1  -7    8.06    2.17
  -1   1  -7    6.20    2.18
   1   1   7    4.93    1.91
   1   1   7    5.35    1.77
   1   1   7    4.32    2.39
   1   1   7    5.35    2.27
  -1   1  -7    6.15    2.36
  -2  -1  -7    1.60    1.82
  -2  -1  -7    0.05    1.42
  -2  -1  -7   -0.14    2.21
  -2  -1  -7    0.26    1.91
   2  -1   7   -0.22    2.21
   2  -1   7    0.91    1.96
   2  -1   7   -1.13    2.13
  -2   1  -7    3.54    2.12
   2   1   7    0.68    2.14
   2   1   7    0.72    2.42
   2   1   7    1.74    1.79
  -2   1  -7    2.32    2.30
   3  -1   7    5.11    2.46
   3  -1   7    7.34    2.50
  -3  -1  -7    1.96    2.47
  -3  -1  -7    4.06    1.80
  -3  -1  -7    6.96    2.61
   3  -1   7    5.72    2.93
  -3   1  -7    2.91    2.46
   3   1   7    7.14    2.85
   3   1   7    3.78    2.69
  -3   1  -7    2.87    2.24
   3   1   7    5.08    2.36
   4  -1   7   41.32    5.14
  -4  -1  -7   55.46    4.19
  -4  -1  -7   51.46    5.13
  -4  -1  -7   56.40    5.56
   4  -1   7   39.59    4.84
   4   1   7   53.83    5.44
  -4   1  -7   48.00    5.63
   4   1   7   54.36    5.16
  -5  -1  -7   28.29    4.07
   5  -1   7   21.91    3.48
  -5  -1  -7   20.79    3.67
  -5  -1  -7   22.38    4.18
   5  -1   7   23.69    3.98
   5   1   7   22.31    3.84
   5   1   7   26.63    4.05
  -5   1  -7   15.75    3.91
  -6  -1  -7   19.88    3.84
   6  -1   7   12.18    3.61
  -6  -1  -7   18.00    4.31
  -6   1  -7   17.57    4.21
   6   1   7   17.64    3.59
   6   1   7   17.96    3.71
   7  -1   7    1.08    3.11
  -7  -1  -7    4.74    4.43
  -7  -1  -7    2.29    3.56
   7   1   7    4.63    3.56
  -7   1  -7   -0.45    3.37
  -8  -1  -7    1.51    3.89
   8  -1   7    6.81    4.12
  -8   1  -7    0.83    6.92
   8   1   7    6.06    4.08
 -11  -2   7   28.47    4.64
  11  -2  -7   22.85    4.58
 -11   2   7   30.81    2.64
  11   2  -7   29.50    4.87
 -11   2   7   23.71    4.58
  10  -2  -7   84.45    7.25
 -10  -2   7   75.32    6.72
 -10   2   7   77.10    6.49
 -10   2   7   80.97    4.24
  10   2  -7   91.10    6.91
 -10   2   7   76.69    6.91
   9  -2  -7    5.03    2.98
  -9  -2   7    1.15    2.74
  -9  -2   7    6.03    4.30
   9   2  -7    3.51    2.50
  -9   2   7    4.28    2.85
  -9   2   7   -1.39    2.65
   9   2  -7    0.75    2.49
  -9   2   7    3.57    1.54
  -8  -2   7   24.74    3.62
  -8  -2   7   21.98    3.22
   8  -2  -7   13.45    3.31
  -8  -2   7   21.37    3.52
  -8   2   7   16.34    3.50
   8   2  -7   21.06    3.35
  -8   2   7   17.68    2.63
  -8   2   7   18.46    3.54
   8   2  -7   24.53    3.78
  -7  -2   7    9.25    2.67
  -7  -2   7    6.52    2.43
  -7  -2   7    3.93    2.63
  -7  -2   7    6.48    2.54
   7  -2  -7    7.29    2.70
  -7   2   7    2.71    2.53
  -7   2   7    3.56    2.72
   7   2  -7   11.83    2.47
  -7   2   7    8.51    1.82
  -6  -2   7   86.38    5.93
   6  -2  -7   85.46    5.45
  -6  -2   7   95.89    5.91
  -6  -2   7   91.14    5.34
  -6   2   7   85.26    6.02
   6   2  -7   82.29    4.93
   6   2  -7   93.37    5.73
  -6   2   7   83.56    6.05
  -6   2   7   88.33    5.10
  -6   2   7   89.24    4.61
  -5  -2   7   -2.33    2.17
   5  -2  -7    2.50    1.89
  -5  -2   7    1.59    1.74
   5  -2  -7   -1.25    2.15
  -5  -2   7   -3.49    1.94
  -5   2   7   -0.12    1.42
   5   2  -7    1.44    1.79
   5   2  -7    2.22    1.47
  -5   2   7   -0.43    1.67
  -5   2   7    1.23    2.24
   4  -2  -7    0.81    2.05
  -4  -2   7   -0.03    2.02
   4  -2  -7   -0.22    1.46
  -4  -2   7    0.08    1.53
  -4  -2   7    0.16    0.89
  -4  -2   7   -0.52    0.99
  -4  -2   7    0.94    1.99
   4   2  -7    1.21    1.17
  -4   2   7    1.25    1.45
  -4   2   7    0.75    2.12
   4   2  -7   -0.06    1.53
  -4   2   7   -6.22    1.55
  -3  -2   7   24.87    3.79
  -3  -2   7   29.05    2.93
  -3  -2   7   22.77    2.17
   3  -2  -7   28.19    2.83
  -3  -2   7   25.53    3.41
  -3  -2   7   24.77    2.50
   3  -2  -7   23.66    3.56
  -3   2   7   28.93    3.37
  -3   2   7   24.98    2.93
  -3   2   7   29.14    3.61
   3   2  -7   26.83    1.91
   3   2  -7   31.10    3.29
  -2  -2   7   46.77    3.94
   2  -2  -7   51.68    3.37
  -2  -2   7   49.32    3.49
   2  -2  -7   52.02    4.26
  -2  -2   7   48.52    3.20
  -2  -2   7   48.10    3.52
   2   2  -7   47.60    3.92
  -2   2   7   53.14    4.21
  -2   2   7   54.52    4.30
  -2   2   7   53.85    3.87
   1  -2  -7   21.23    2.41
   1  -2  -7   25.95    3.46
  -1  -2   7   23.11    3.38
  -1  -2   7   29.70    3.25
  -1  -2   7   23.85    2.93
  -1   2   7   17.50    2.65
  -1   2   7   22.06    3.15
   1   2  -7   19.18    2.85
  -1   2   7   21.12    3.10
  -1   2   7   22.67    1.89
   1   2  -7   25.96    3.42
   0  -2  -7  111.55    5.39
   0  -2   7  116.53    6.04
   0  -2   7  111.60    6.08
   0  -2  -7  125.34    6.33
   0  -2  -7  107.58    6.37
   0  -2   7  121.84    6.54
   0   2   7  105.30    6.47
   0   2  -7  119.16    6.32
   0   2   7  117.56    5.20
   0   2   7  120.79    6.30
   0   2   7  114.51    5.97
   0   2  -7  120.47    6.57
  -1  -2  -7   11.37    2.80
   1  -2   7   11.71    2.72
  -1  -2  -7   13.95    2.56
   1  -2   7   11.41    2.62
   1  -2   7   15.70    2.60
  -1  -2  -7   12.82    2.01
   1   2   7   10.38    2.62
  -1   2  -7   16.05    2.90
   1   2   7   11.00    2.13
  -1   2  -7   10.27    2.66
   1   2   7   13.99    2.11
   1   2   7   11.20    2.66
   2  -2   7   10.33    2.83
   2  -2   7    9.43    2.50
  -2  -2  -7    5.72    2.29
   2  -2   7    8.59    2.58
  -2  -2  -7   12.55    3.00
  -2  -2  -7    5.69    1.79
   2   2   7    8.07    2.89
   2   2   7    5.74    2.44
   2   2   7    6.33    2.22
  -2   2  -7    7.29    2.58
  -2   2  -7   10.13    2.64
  -3  -2  -7   18.14    3.50
  -3  -2  -7   25.06    3.49
   3  -2   7   20.54    3.29
   3  -2   7   19.15    3.49
   3  -2   7   22.00    3.27
  -3  -2  -7   22.04    2.91
   3   2   7   16.99    3.41
  -3   2  -7   22.25    3.28
  -3   2  -7   16.48    3.31
   3   2   7   30.57    4.01
   4  -2   7    0.63    2.43
  -4  -2  -7    6.75    2.34
   4  -2   7    2.41    2.59
  -4  -2  -7    7.09    2.99
  -4  -2  -7    4.27    2.71
   4   2   7    0.49    2.58
  -4   2  -7    2.62    2.54
  -4   2  -7    3.59    2.84
   4   2   7    4.85    2.59
  -5  -2  -7    3.16    2.20
   5  -2   7    1.16    2.63
  -5  -2  -7   -1.29    2.73
  -5  -2  -7   -0.89    2.48
   5   2   7    0.73    2.73
   5   2   7    6.25    2.95
  -5   2  -7    2.78    3.00
  -6  -2  -7   22.45    3.99
  -6  -2  -7   14.75    4.02
   6  -2   7   12.12    3.69
  -6  -2  -7   14.70    3.30
   6   2   7   17.66    3.85
   6   2   7   18.56    3.85
  -6   2  -7   21.86    4.58
   7  -2   7   -6.90    2.83
  -7  -2  -7    2.29    3.56
  -7  -2  -7   -0.04    2.71
  -7   2  -7   -2.10    3.28
   7   2   7    0.23    3.10
  -8  -2  -7    1.69    3.95
  -8  -2  -7   -1.27    3.06
   8   2   7    1.22    3.60
  11  -3  -7    1.49    3.39
 -11   3   7    1.47    3.16
  11   3  -7    6.87    3.48
 -11   3   7    0.56    1.72
 -10  -3   7   10.32    3.36
  10  -3  -7   15.77    3.89
 -10   3   7   10.29    2.17
 -10   3   7   12.12    3.59
  10   3  -7   16.59    3.85
 -10   3   7   12.92    3.74
  -9  -3   7   30.01    4.50
   9  -3  -7   33.34    4.56
  -9  -3   7   26.42    3.99
  -9   3   7   27.84    4.43
  -9   3   7   32.39    4.55
   9   3  -7   27.58    3.98
  -9   3   7   30.09    3.33
  -8  -3   7    1.61    2.61
   8  -3  -7    0.11    2.53
  -8  -3   7    3.00    2.39
  -8  -3   7    4.62    2.56
  -8   3   7    1.60    2.81
  -8   3   7    0.00    2.58
  -8   3   7    0.72    1.70
  -7  -3   7  638.15   24.40
   7  -3  -7  633.93   24.61
  -7  -3   7  682.22   24.14
  -7  -3   7  657.87   24.56
  -7  -3   7  652.81   24.52
  -7   3   7  635.15   24.98
  -7   3   7  660.07   23.46
  -7   3   7  621.04   24.92
  -6  -3   7   10.30    2.83
  -6  -3   7    8.97    2.47
   6  -3  -7    9.88    2.63
  -6  -3   7   13.27    2.42
  -6  -3   7   10.14    2.88
   6   3  -7   10.66    2.45
  -6   3   7    7.72    2.07
  -6   3   7   16.80    3.23
  -6   3   7   12.68    3.29
   5  -3  -7  222.95   10.16
  -5  -3   7  225.58    9.45
  -5  -3   7  194.79    9.88
  -5  -3   7  207.54    9.72
   5  -3  -7  209.87    9.45
   5   3  -7  213.76    9.38
  -5   3   7  215.41    9.10
  -5   3   7  202.70   10.03
  -5   3   7  203.89    8.89
  -4  -3   7   14.37    2.41
   4  -3  -7   11.88    2.29
  -4  -3   7   12.23    1.80
   4  -3  -7   14.30    3.00
  -4  -3   7   11.29    2.77
  -4  -3   7   14.19    1.65
  -4   3   7   10.08    2.58
   4   3  -7   13.15    1.71
  -4   3   7   15.63    2.55
  -4   3   7   12.42    2.23
   4   3  -7   13.81    2.34
  -3  -3   7   31.43    2.57
   3  -3  -7   38.03    3.37
  -3  -3   7   32.52    4.07
   3  -3  -7   41.51    4.23
  -3  -3   7   42.44    3.56
  -3  -3   7   33.48    2.75
  -3   3   7   35.93    4.15
  -3   3   7   41.69    3.69
   3   3  -7   34.00    4.16
   3   3  -7   34.63    3.30
  -3   3   7   35.16    3.94
   2  -3  -7    9.94    2.37
  -2  -3   7   12.66    1.94
   2  -3  -7   14.35    2.19
  -2  -3   7   12.03    2.67
  -2  -3   7   17.93    2.48
  -2   3   7   12.41    2.55
  -2   3   7   12.19    2.50
  -2   3   7    9.77    2.28
   2   3  -7   17.99    3.14
   2   3  -7   12.31    2.20
  -1  -3   7  155.10    7.69
  -1  -3   7  158.16    7.23
  -1  -3   7  151.11    7.06
   1  -3  -7  152.66    7.64
   1  -3  -7  146.81    6.84
   1   3  -7  161.02    8.00
  -1   3   7  146.18    7.26
  -1   3   7  147.93    7.54
  -1   3   7  158.32    7.51
   1   3  -7  154.27    7.34
   0  -3   7   18.18    2.99
   0  -3   7   20.45    3.25
   0  -3   7   19.48    2.84
   0  -3  -7   22.38    2.89
   0  -3  -7   22.14    3.23
   0   3   7   26.88    3.33
   0   3  -7   16.35    2.90
   0   3   7   18.75    2.81
   0   3   7   22.61    2.41
   0   3   7   20.71    3.40
   0   3  -7   20.88    2.91
   1  -3   7    5.89    2.49
  -1  -3  -7    4.72    1.91
  -1  -3  -7    5.06    2.41
   1  -3   7    6.23    2.49
   1  -3   7    1.05    2.16
  -1  -3  -7    3.67    2.20
   1   3   7    2.75    1.65
   1   3   7    3.85    2.21
   1   3   7    8.36    2.84
   1   3   7    6.33    1.98
  -1   3  -7    4.03    2.23
  -1   3  -7    6.15    2.46
   2  -3   7   28.61    4.20
   2  -3   7   38.93    4.56
  -2  -3  -7   40.94    3.69
   2  -3   7   33.50    4.15
  -2  -3  -7   31.06    4.13
  -2  -3  -7   38.92    4.54
   2   3   7   39.20    4.82
  -2   3  -7   36.03    4.50
   2   3   7   34.10    4.45
   2   3   7   37.17    3.82
   2   3   7   47.21    5.16
  -2   3  -7   36.94    4.43
  -3  -3  -7    2.42    2.21
  -3  -3  -7   -1.06    1.93
  -3  -3  -7    4.83    2.78
   3  -3   7   -1.57    2.14
   3  -3   7    0.89    2.44
   3  -3   7    1.92    2.71
   3   3   7   -0.92    2.04
  -3   3  -7    0.58    2.56
   3   3   7    2.16    2.67
  -3   3  -7    0.69    2.62
   4  -3   7   23.45    3.50
  -4  -3  -7   24.90    3.99
  -4  -3  -7   19.97    3.20
   4  -3   7   26.34    4.05
  -4  -3  -7   33.25    4.24
  -4   3  -7   31.31    4.80
   4   3   7   21.42    3.95
  -4   3  -7   24.75    4.09
   4   3   7   22.43    3.58
  -5  -3  -7   40.72    4.74
  -5  -3  -7   37.67    5.85
  -5  -3  -7   39.91    5.29
   5  -3   7   35.02    5.42
   5   3   7   43.77    5.57
  -5   3  -7   46.42    6.22
   5   3   7   44.76    5.49
  -6  -3  -7   -0.39    2.46
   6  -3   7    3.27    3.02
  -6  -3  -7    6.20    3.57
  -6  -3  -7    1.16    2.72
  -6   3  -7    0.58    3.26
   6   3   7   -2.01    2.80
   6   3   7   -1.35    3.06
  -7  -3  -7   13.10    3.61
   7  -3   7   12.60    4.16
  -7  -3  -7    3.85    3.69
  -7  -3  -7   13.35    3.85
   7   3   7    8.01    3.80
  -7   3  -7   -0.75    3.58
  -8  -3  -7   -0.72    3.06
   8   3   7   -9.00    3.53
  11  -4  -7   34.83    5.57
 -11  -4   7   31.02    4.69
  11   4  -7   32.43    5.43
 -11   4   7   33.80    5.24
 -11   4   7   32.23    4.19
 -11   4   7   38.66    7.84
 -10  -4   7   18.45    3.88
  10  -4  -7   37.76    5.69
  10   4  -7   21.74    4.30
 -10   4   7   21.10    4.28
 -10   4   7   21.77    2.96
 -10   4   7   23.29    4.41
  -9  -4   7   81.80    6.45
   9  -4  -7   96.37    7.11
  -9   4   7   85.48    5.41
  -9   4   7   93.44    7.33
  -9   4   7   76.58    6.88
   9   4  -7   99.30    7.11
  -8  -4   7   10.53    3.49
   8  -4  -7    5.61    2.87
  -8  -4   7   10.61    3.09
  -8  -4   7   11.00    2.82
   8   4  -7   10.83    3.01
  -8   4   7    6.71    2.16
   8   4  -7    9.69    2.88
  -8   4   7   10.58    3.28
  -8   4   7    5.29    3.23
   7  -4  -7   62.93    5.52
  -7  -4   7   71.15    5.75
  -7  -4   7   64.21    5.62
  -7  -4   7   69.32    4.83
  -7   4   7   62.95    6.08
   7   4  -7   62.82    5.47
  -7   4   7   59.55    5.71
   7   4  -7   65.88    4.84
  -7   4   7   68.36    4.71
  -6  -4   7  153.51    7.13
   6  -4  -7  156.04    8.03
  -6  -4   7  151.97    8.04
  -6  -4   7  145.12    8.27
  -6   4   7  163.50    8.72
   6   4  -7  153.55    7.53
   6   4  -7  160.92    8.19
  -6   4   7  149.61    7.30
  -6   4   7  132.97    8.12
  -5  -4   7   15.31    2.45
   5  -4  -7   14.30    3.26
  -5  -4   7   17.79    2.85
   5  -4  -7   16.86    2.94
  -5  -4   7   18.22    3.41
   5   4  -7   17.53    2.53
   5   4  -7   16.78    3.20
  -5   4   7   19.46    3.56
  -5   4   7   17.14    2.75
  -5   4   7   20.06    2.67
  -4  -4   7    0.36    1.04
  -4  -4   7    1.19    2.49
   4  -4  -7   -3.24    1.83
   4  -4  -7    2.76    2.38
  -4  -4   7    0.03    1.09
  -4  -4   7   -3.63    1.83
  -4   4   7    2.67    2.06
  -4   4   7    1.06    2.35
  -4   4   7    0.67    1.97
   4   4  -7    0.36    1.51
   4   4  -7    5.23    2.65
   3  -4  -7   65.19    5.15
  -3  -4   7   66.98    5.22
  -3  -4   7   67.48    4.81
   3  -4  -7   67.61    4.65
  -3  -4   7   72.11    3.86
   3   4  -7   67.55    5.62
  -3   4   7   72.98    5.13
  -3   4   7   61.17    4.64
  -3   4   7   71.76    5.32
   3   4  -7   61.70    4.13
   2  -4  -7   80.95    5.03
  -2  -4   7   87.96    5.40
  -2  -4   7   68.01    5.05
  -2  -4   7   75.30    4.45
   2  -4  -7   71.18    5.36
  -2   4   7   79.53    5.54
   2   4  -7   84.07    4.87
  -2   4   7   79.75    5.28
   2   4  -7   84.63    5.92
  -2   4   7   83.86    5.50
  -1  -4   7   82.72    5.51
   1  -4  -7   81.53    5.45
  -1  -4   7   82.82    5.65
   1  -4  -7   83.86    5.03
  -1  -4   7   78.91    4.90
   1   4  -7   75.87    5.91
   1   4  -7   85.16    5.10
  -1   4   7   91.64    5.53
  -1   4   7   77.57    5.75
  -1   4   7   88.34    5.50
   0  -4   7    2.34    2.03
   0  -4  -7    3.98    2.00
   0  -4   7    3.00    2.38
   0  -4   7   -0.18    2.16
   0  -4  -7    1.47    2.36
   0   4   7    1.31    2.22
   0   4   7    4.07    2.02
   0   4  -7   -0.31    1.82
   0   4   7    5.43    2.84
   0   4  -7   -1.97    2.38
  -1  -4  -7   15.32    3.00
   1  -4   7   14.87    2.84
  -1  -4  -7   16.19    3.30
   1  -4   7   14.65    2.85
   1  -4   7   15.74    2.91
  -1  -4  -7   14.16    2.59
   1   4   7   16.81    2.51
  -1   4  -7   16.53    2.93
   1   4   7   21.04    3.78
   1   4   7   13.57    2.29
   1   4   7   13.57    2.92
  -1   4  -7   10.72    3.03
  -2  -4  -7    8.29    2.66
  -2  -4  -7   12.92    2.61
   2  -4   7    7.29    2.70
  -2  -4  -7   12.54    3.04
   2  -4   7    8.15    2.75
   2  -4   7   11.25    2.89
   2   4   7   12.71    3.47
  -2   4  -7   13.75    3.45
   2   4   7   11.58    2.43
  -2   4  -7    8.84    2.75
  -3  -4  -7   39.12    4.04
  -3  -4  -7   39.77    4.95
   3  -4   7   37.42    4.82
   3  -4   7   45.26    4.76
   3  -4   7   31.66    4.70
  -3  -4  -7   35.75    5.07
  -3   4  -7   41.39    4.88
   3   4   7   31.89    4.15
   3   4   7   39.09    4.95
  -3   4  -7   33.34    4.47
   4  -4   7    1.14    2.61
  -4  -4  -7    0.37    2.48
   4  -4   7    0.38    2.42
  -4  -4  -7   -2.89    2.25
  -4  -4  -7    6.35    2.92
   4   4   7   -2.22    2.89
  -4   4  -7    4.74    2.98
  -4   4  -7   -1.87    2.74
   4   4   7   -0.27    2.37
  -5  -4  -7   -1.72    2.50
  -5  -4  -7   -0.86    2.52
  -5  -4  -7    2.23    3.09
   5  -4   7    1.95    3.09
   5   4   7   -1.44    3.00
   5   4   7   -0.47    2.66
  -5   4  -7   -3.50    2.86
  -6  -4  -7   49.68    5.95
  -6  -4  -7   32.34    5.03
   6  -4   7   63.47    6.86
  -6  -4  -7   45.50    5.58
   6   4   7   62.10    6.24
  -6   4  -7   44.61    6.60
   6   4   7   55.00    6.47
  -7  -4  -7   45.24    5.82
  -7  -4  -7   42.05    6.06
   7  -4   7   35.00    5.52
  -7  -4  -7   26.70    4.97
   7   4   7   43.44    6.38
  -7   4  -7   39.62    5.70
   7   4   7   37.66    5.62
 -11  -5   7   32.91    4.93
 -11   5   7   27.27    5.15
  10  -5  -7    0.51    2.99
 -10  -5   7   -0.43    2.70
 -10   5   7    3.09    2.29
  10   5  -7   -2.28    2.95
 -10   5   7   -1.58    2.89
 -10   5   7    6.88    3.71
  -9  -5   7   81.02    6.01
   9  -5  -7   78.04    6.94
  -9   5   7   75.43    7.41
   9   5  -7   67.41    6.69
  -9   5   7   75.47    6.82
  -9   5   7   72.31    5.33
  -8  -5   7  124.43    8.14
  -8  -5   7  118.13    7.03
   8  -5  -7  128.46    7.91
  -8   5   7  113.43    6.74
  -8   5   7  136.06    8.30
   8   5  -7  118.06    8.07
  -8   5   7  133.27    8.57
  -7  -5   7   -1.09    2.75
   7  -5  -7    8.08    2.97
  -7  -5   7    2.79    2.16
  -7   5   7    7.71    2.86
  -7   5   7    5.44    2.30
  -7   5   7   -2.92    2.94
   7   5  -7    7.64    2.70
  -6  -5   7  261.13   12.30
  -6  -5   7  271.81   12.26
   6  -5  -7  258.39   12.03
   6   5  -7  291.05   12.40
  -6   5   7  265.15   11.53
  -6   5   7  270.92   12.71
   5  -5  -7    7.12    2.77
  -5  -5   7    9.78    3.08
  -5  -5   7    6.65    2.63
   5  -5  -7    6.80    2.63
  -5  -5   7    5.49    0.99
  -5   5   7    5.75    2.63
  -5   5   7    8.04    2.55
   5   5  -7    7.67    2.95
  -5   5   7   10.52    3.17
  -4  -5   7   11.23    2.78
   4  -5  -7   20.01    3.42
   4  -5  -7   12.66    2.86
  -4  -5   7   10.65    2.97
  -4  -5   7   11.88    1.63
  -4   5   7   15.12    2.88
  -4   5   7    9.63    2.65
   4   5  -7   11.75    3.16
   4   5  -7   10.07    1.99
  -4   5   7    7.27    2.86
  -3  -5   7   19.94    3.27
   3  -5  -7   16.22    2.89
   3  -5  -7   18.04    3.16
  -3  -5   7   15.37    2.10
  -3  -5   7   23.02    3.52
   3   5  -7   20.93    2.82
   3   5  -7   23.54    3.67
  -3   5   7   21.40    3.12
  -3   5   7   15.72    3.06
  -3   5   7   14.93    3.09
   2  -5  -7   61.75    4.80
  -2  -5   7   59.58    4.95
  -2  -5   7   59.67    4.25
   2  -5  -7   59.15    5.02
  -2  -5   7   62.76    5.37
  -2   5   7   72.06    5.49
   2   5  -7   62.02    4.16
  -2   5   7   74.34    5.41
  -2   5   7   57.16    5.13
   2   5  -7   64.15    5.71
   1  -5  -7   26.85    4.10
  -1  -5   7   33.32    3.73
   1  -5  -7   32.80    4.02
  -1  -5   7   37.57    4.32
  -1  -5   7   30.34    4.21
   1   5  -7   30.75    4.18
  -1   5   7   41.30    4.83
  -1   5   7   38.78    4.39
  -1   5   7   32.89    4.11
   1   5  -7   36.41    3.64
   0  -5   7   92.13    5.95
   0  -5  -7  110.94    6.43
   0  -5   7   98.99    6.38
   0  -5  -7  103.47    6.18
   0  -5   7  103.38    6.43
   0   5   7  112.70    6.12
   0   5  -7  104.67    5.87
   0   5   7  101.14    6.49
   0   5  -7  108.20    7.00
   0   5   7   95.59    6.88
  -1  -5  -7   46.92    4.38
   1  -5   7   59.91    4.81
   1  -5   7   57.32    4.92
  -1  -5  -7   43.11    4.68
   1  -5   7   43.69    4.83
  -1   5  -7   49.77    5.47
   1   5   7   63.03    5.55
   1   5   7   44.29    4.13
  -1   5  -7   48.20    4.47
   1   5   7   53.07    5.62
   2  -5   7    7.97    2.82
  -2  -5  -7    6.31    3.05
   2  -5   7   11.77    3.04
  -2  -5  -7    7.23    2.79
  -2  -5  -7    8.62    2.64
   2  -5   7    8.92    2.76
  -2   5  -7    9.28    2.85
  -2   5  -7    5.21    3.12
   2   5   7    4.17    3.13
   3  -5   7   46.50    5.19
  -3  -5  -7   40.28    5.18
   3  -5   7   47.43    5.44
  -3  -5  -7   44.15    4.53
   3  -5   7   40.24    4.63
  -3  -5  -7   37.21    5.16
   3   5   7   39.19    4.58
  -3   5  -7   41.49    5.07
   3   5   7   42.76    5.79
  -3   5  -7   38.04    5.54
   4  -5   7   19.82    4.02
  -4  -5  -7   19.81    3.51
  -4  -5  -7   26.82    4.01
  -4  -5  -7   22.30    3.81
  -4   5  -7   16.56    3.95
  -4   5  -7   30.39    4.84
   4   5   7   11.44    3.15
   4   5   7   20.06    4.43
  -5  -5  -7   15.49    3.86
   5  -5   7    9.54    3.73
  -5  -5  -7    6.00    3.10
  -5  -5  -7   18.91    3.58
   5   5   7   14.19    3.64
  -5   5  -7   13.72    4.36
   5   5   7   20.58    4.39
  -5   5  -7    7.32    3.61
  -6  -5  -7   17.07    3.84
   6  -5   7   10.86    4.17
  -6  -5  -7   18.58    3.79
  -6  -5  -7   11.47    4.01
   6   5   7   11.66    4.29
  -6   5  -7   14.50    4.10
   6   5   7   14.54    3.98
   7  -5   7   14.02    5.71
  -7  -5  -7    4.42    3.59
  -7  -5  -7    3.91    3.31
  -7  -5  -7    0.18    3.03
  -7   5  -7    1.34    3.55
   7   5   7    8.85    3.83
   7   5   7    4.08    4.08
  10  -6  -7    6.45    3.63
 -10   6   7   -4.00    3.33
 -10   6   7    1.06    2.49
 -10   6   7    6.86    3.63
  10   6  -7    1.43    3.28
   9  -6  -7    1.94    3.21
  -9  -6   7    7.64    3.67
   9   6  -7    4.10    3.43
  -9   6   7    1.60    3.61
  -9   6   7    0.31    2.25
  -9   6   7   -0.51    2.78
  -8  -6   7    7.59    3.39
   8  -6  -7    4.23    3.03
  -8   6   7    8.25    3.10
  -8   6   7    4.32    2.40
   8   6  -7    6.43    3.43
  -8   6   7    2.77    3.52
  -7  -6   7    4.49    3.06
   7  -6  -7    7.62    3.04
   7   6  -7    0.79    2.53
  -7   6   7    4.10    3.41
  -7   6   7    1.82    2.33
   7   6  -7    3.22    2.99
  -7   6   7    3.97    2.78
   6  -6  -7   97.49    6.60
  -6  -6   7   99.28    7.04
   6  -6  -7   89.55    6.77
  -6  -6   7   84.19    7.16
  -6   6   7   93.27    6.19
   6   6  -7   92.66    6.71
  -6   6   7   93.69    7.32
   5  -6  -7   82.07    6.24
  -5  -6   7   82.83    6.47
   5  -6  -7   84.37    6.17
  -5  -6   7   74.82    6.33
  -5  -6   7   83.10    3.82
  -5   6   7   79.35    6.58
   5   6  -7   84.23    6.48
  -5   6   7   80.94    5.90
  -4  -6   7   17.18    2.62
   4  -6  -7   23.51    3.54
   4  -6  -7   17.15    3.32
  -4  -6   7   13.65    3.44
  -4  -6   7   20.06    3.39
  -4   6   7   20.47    3.11
  -4   6   7   16.20    3.66
  -4   6   7   15.64    3.20
   4   6  -7   20.46    3.87
   3  -6  -7   20.75    3.39
  -3  -6   7   31.39    4.46
   3  -6  -7   24.03    3.37
  -3  -6   7   23.80    3.73
  -3  -6   7   15.49    2.26
  -3   6   7   23.26    3.68
  -3   6   7   22.98    3.39
   3   6  -7   16.86    3.62
  -3   6   7   15.09    3.37
  -2  -6   7   17.69    2.65
   2  -6  -7   22.44    3.34
  -2  -6   7   19.64    3.31
   2  -6  -7   14.48    2.95
  -2  -6   7   15.31    3.23
  -2   6   7   21.13    3.49
   2   6  -7   24.55    3.90
  -2   6   7   26.60    3.91
  -2   6   7   18.63    3.43
  -1  -6   7  122.11    7.51
  -1  -6   7  127.08    6.66
  -1  -6   7  133.58    7.52
   1  -6  -7  128.59    7.10
   1  -6  -7  144.00    7.32
  -1   6   7  116.55    7.17
  -1   6   7  115.31    7.57
   1   6  -7  127.09    8.08
  -1   6   7  119.80    7.46
   0  -6   7   91.43    6.56
   0  -6   7   97.45    6.05
   0  -6  -7   89.70    6.16
   0  -6   7  110.52    6.63
   0  -6  -7   97.73    6.12
   0   6   7   79.79    6.72
   0   6  -7   80.84    6.94
   0   6   7  100.27    6.12
   0   6   7   91.59    6.47
   0   6  -7   92.29    5.49
   1  -6   7   67.23    5.57
  -1  -6  -7   71.26    5.61
  -1  -6  -7   69.56    5.64
   1  -6   7   71.44    5.92
   1  -6   7   72.24    5.67
   1   6   7   66.16    6.37
  -1   6  -7   71.66    6.77
  -1   6  -7   68.69    5.16
   2  -6   7   63.59    5.94
   2  -6   7   66.44    5.62
   2  -6   7   76.67    6.08
  -2  -6  -7   79.95    5.69
  -2  -6  -7   58.25    5.66
  -2   6  -7   77.49    7.01
  -2   6  -7   57.24    5.57
   2   6   7   81.18    6.77
   3  -6   7   15.46    3.66
  -3  -6  -7   18.37    3.38
   3  -6   7   16.73    3.50
  -3  -6  -7   11.74    3.43
   3  -6   7   15.87    3.19
  -3  -6  -7   15.57    5.95
  -3   6  -7   14.23    4.22
   3   6   7   10.94    3.83
  -3   6  -7   11.06    3.34
   4  -6   7   -0.70    2.99
  -4  -6  -7   -0.44    2.68
  -4  -6  -7   -2.52    2.62
  -4  -6  -7    3.06    2.70
   4   6   7    3.40    3.40
  -4   6  -7   -1.31    2.71
  -4   6  -7    5.47    3.75
  -5  -6  -7    0.09    2.76
   5  -6   7    2.92    3.51
  -5  -6  -7   -1.41    2.99
  -5  -6  -7    1.31    2.75
  -5   6  -7    8.27    4.44
  -5   6  -7    2.72    3.01
   5   6   7   -0.30    3.46
   5   6   7    1.30    3.15
  -6  -6  -7    2.08    3.20
  -6  -6  -7    1.46    3.00
   6  -6   7    5.72    3.99
   6   6   7    3.01    3.27
   6   6   7    3.92    3.87
  -6   6  -7    7.24    3.53
   9  -7  -7   18.13    4.39
  -9  -7   7   12.64    4.34
  -9   7   7   12.33    3.21
  -9   7   7   18.02    4.08
  -9   7   7   13.88    4.70
   9   7  -7   14.37    4.40
  -8  -7   7    0.38    3.27
   8  -7  -7   -0.04    3.08
  -8   7   7    0.41    2.38
  -8   7   7   -3.79    2.46
   8   7  -7    3.55    3.57
  -8   7   7    2.25    3.67
   7  -7  -7    2.38    2.77
  -7  -7   7    5.61    3.25
  -7   7   7    5.63    3.63
   7   7  -7    2.14    3.25
  -7   7   7    5.71    2.68
  -6  -7   7   13.04    3.54
   6  -7  -7    4.29    3.07
   6  -7  -7    4.75    3.09
   6   7  -7   12.52    3.51
  -6   7   7    6.78    2.70
   6   7  -7    9.71    3.47
  -6   7   7    9.58    3.76
  -5  -7   7   86.82    4.30
  -5  -7   7   83.98    6.98
   5  -7  -7   94.91    6.72
  -5  -7   7   84.32    6.72
   5  -7  -7   82.72    6.57
  -5   7   7   90.89    6.43
  -5   7   7   86.17    7.10
   5   7  -7   82.18    6.75
   4  -7  -7  154.91    8.37
   4  -7  -7  136.78    8.24
  -4  -7   7  151.80    8.51
  -4  -7   7  146.24    8.69
  -4  -7   7  156.54    6.70
  -4   7   7  144.17    7.98
   4   7  -7  155.85    8.90
  -4   7   7  140.37    8.72
  -4   7   7  129.72    8.29
  -3  -7   7  352.88   13.74
  -3  -7   7  327.13   15.09
  -3  -7   7  343.10   15.30
   3  -7  -7  356.30   14.95
   3  -7  -7  353.44   14.89
  -3   7   7  360.70   15.00
  -3   7   7  347.26   15.35
   3   7  -7  370.58   15.82
  -3   7   7  376.86   15.27
  -2  -7   7    7.85    3.00
  -2  -7   7    3.08    2.07
  -2  -7   7    5.82    2.98
   2  -7  -7    5.00    2.58
   2  -7  -7    0.12    2.40
  -2   7   7    8.32    3.13
   2   7  -7    6.77    3.30
  -2   7   7    2.69    2.85
  -2   7   7    4.98    2.96
  -1  -7   7   91.22    6.57
   1  -7  -7   93.81    6.18
   1  -7  -7   83.71    6.19
  -1  -7   7   95.70    6.91
  -1  -7   7   90.67    5.83
  -1   7   7   94.65    6.57
  -1   7   7   78.90    6.60
   1   7  -7   82.72    7.12
  -1   7   7   91.60    6.75
   0  -7   7    4.18    2.61
   0  -7   7    6.41    2.92
   0  -7  -7    6.72    2.65
   0  -7   7    4.67    2.98
   0  -7  -7    4.59    2.80
   0   7   7    6.36    3.28
   0   7  -7    5.51    3.42
   0   7   7    1.92    2.52
  -1  -7  -7    0.92    2.42
   1  -7   7   -2.04    2.49
  -1  -7  -7    0.10    2.25
   1  -7   7   -3.68    2.12
   1  -7   7    0.43    2.50
  -1   7  -7   -1.02    2.98
   1   7   7    0.81    3.03
  -2  -7  -7   -2.30    2.52
   2  -7   7    5.17    2.70
  -2  -7  -7   -1.26    2.44
   2  -7   7   -4.37    2.52
   2  -7   7   -4.12    2.30
   2   7   7   -0.72    3.18
  -2   7  -7    0.89    3.47
   3  -7   7   11.90    3.59
  -3  -7  -7   14.11    3.33
   3  -7   7   22.36    3.88
   3   7   7   11.17    4.01
  -3   7  -7   11.86    4.10
  -4  -7  -7   13.14    3.59
   4  -7   7   11.29    3.96
  -4   7  -7   20.56    5.47
   4   7   7   12.91    4.23
  -5  -7  -7   44.90    6.46
   5  -7   7   46.86    6.83
  -5  -7  -7   58.35    6.44
  -5   7  -7   69.86   10.57
   5   7   7   51.86    7.26
  -5   7  -7   64.37    8.90
  -6  -7  -7    3.97    3.36
  -6  -7  -7    0.21    3.20
   6   7   7    2.88    4.16
  -6   7  -7   -2.25    3.16
  -9  -8   7   56.81    7.38
  -9   8   7   56.90    6.81
   9   8  -7   66.95    7.76
  -8  -8   7    9.35    4.00
   8  -8  -7   13.83    3.91
  -8   8   7   13.89    3.41
  -8   8   7    9.62    4.26
   8   8  -7    5.49    3.78
  -7  -8   7   48.01    6.15
   7  -8  -7   41.19    5.98
   7  -8  -7   37.92    5.80
   7   8  -7   42.91    6.80
  -7   8   7   40.23    5.27
  -7   8   7   42.49    6.48
   6  -8  -7   -0.34    2.94
  -6  -8   7    0.34    1.08
   6  -8  -7    1.43    2.76
  -6  -8   7   -2.28    2.84
   6   8  -7   -3.94    2.98
  -6   8   7    2.92    2.81
   6   8  -7   -2.87    2.87
  -6   8   7    4.38    3.76
  -5  -8   7    1.10    1.47
   5  -8  -7    0.38    2.78
  -5  -8   7    0.05    2.88
   5  -8  -7    4.08    3.13
  -5   8   7    6.23    2.78
   5   8  -7   -7.49    2.79
   5   8  -7    9.44    3.71
  -5   8   7    3.82    3.47
   4  -8  -7    4.77    2.79
  -4  -8   7    4.30    1.95
  -4  -8   7    1.22    2.89
   4  -8  -7    4.09    2.87
   4   8  -7    3.49    3.34
  -4   8   7    0.61    2.85
  -4   8   7    0.22    2.98
  -3  -8   7    3.25    1.96
   3  -8  -7   -0.29    2.66
  -3  -8   7    3.67    2.99
  -3  -8   7   -5.11    2.59
   3  -8  -7   -1.83    2.40
   3   8  -7    0.67    3.13
  -3   8   7   -1.13    2.79
  -3   8   7   -2.73    2.88
  -3   8   7    2.23    2.68
   2  -8  -7    7.15    2.71
  -2  -8   7    7.99    3.19
   2  -8  -7    5.92    2.93
  -2  -8   7    5.46    3.12
  -2  -8   7    8.06    2.52
  -2   8   7    2.25    3.09
  -2   8   7    5.47    3.55
  -2   8   7    8.51    3.34
   2   8  -7   10.56    3.79
   1  -8  -7   12.36    3.17
  -1  -8   7   17.26    3.09
  -1  -8   7   19.42    3.85
  -1  -8   7   18.66    3.60
  -1   8   7   20.45    4.03
  -1   8   7   10.11    3.33
   1   8  -7   16.55    4.00
   0  -8   7   63.71    5.54
   0  -8   7   72.59    6.07
   0  -8  -7   64.42    5.90
   0  -8   7   75.78    6.43
   0   8   7   67.39    6.59
   0   8  -7   60.88    6.95
   1  -8   7    6.43    3.03
   1  -8   7    6.18    2.85
  -1  -8  -7   13.90    3.43
   1  -8   7    9.78    3.45
  -1   8  -7   16.31    4.42
   1   8   7    6.70    3.50
   2  -8   7   15.48    3.54
   2  -8   7   17.15    3.68
  -2  -8  -7   16.82    3.71
   2  -8   7   17.27    4.17
  -2   8  -7   22.12    4.80
   2   8   7   19.34    4.34
   3  -8   7    3.90    3.43
  -3  -8  -7   -0.37    2.80
  -3   8  -7   -0.66    4.14
   3   8   7    3.74    3.69
  -4  -8  -7   -4.73    2.67
   4  -8   7    0.43    3.47
   4   8   7   -0.71    3.69
  -4   8  -7    0.21    4.76
  -5  -8  -7    3.28    3.45
   5  -8   7    5.39    3.86
  -5   8  -7    3.26    4.86
   5   8   7    2.72    4.15
   8  -9  -7   -3.23    3.25
  -8   9   7    2.62    2.88
   8   9  -7    0.81    4.20
   7  -9  -7   69.20    7.32
  -7  -9   7   50.73    6.90
  -7   9   7   67.32    6.47
   7   9  -7   57.82    7.44
  -7   9   7   68.61    7.65
  -6  -9   7   14.19    1.83
  -6  -9   7   19.80    4.39
   6  -9  -7   17.85    4.31
   6   9  -7   12.04    4.36
  -6   9   7   16.29    4.72
  -6   9   7   16.96    3.90
   5  -9  -7   19.35    4.28
  -5  -9   7   24.81    4.65
  -5  -9   7   22.37    3.09
  -5   9   7   20.96    4.75
   5   9  -7   14.32    4.32
  -5   9   7   14.57    3.84
   5   9  -7   15.91    4.45
  -4  -9   7    1.12    3.16
   4  -9  -7    1.78    3.08
  -4  -9   7    2.84    2.02
  -4   9   7    1.99    3.12
  -4   9   7    6.51    3.62
   4   9  -7    0.57    3.22
   4   9  -7    2.99    3.58
   3  -9  -7    5.99    3.30
  -3  -9   7    9.58    3.55
  -3  -9   7   10.54    2.56
   3   9  -7    8.53    3.67
  -3   9   7    7.21    3.40
  -3   9   7    9.47    3.74
  -2  -9   7    2.64    3.39
   2  -9  -7   10.33    3.44
  -2  -9   7   10.45    2.79
  -2   9   7    3.49    3.30
  -2   9   7    7.60    3.46
   2   9  -7   10.91    3.94
  -1  -9   7   39.33    5.68
   1  -9  -7   50.57    5.60
  -1  -9   7   43.71    4.97
  -1  -9   7   38.24    5.76
   1   9  -7   49.91    6.64
  -1   9   7   44.27    5.72
  -1   9   7   40.26    5.79
   0  -9   7    1.93    2.69
   0  -9   7    0.73    2.95
   0  -9   7    0.88    3.06
   0  -9  -7    1.27    2.78
   0   9   7    1.26    3.29
   0   9  -7   -1.29    3.41
   1  -9   7    1.14    2.74
   1  -9   7   -3.35    2.83
   1  -9   7   -1.50    3.10
  -1  -9  -7    7.02    3.17
  -1   9  -7    1.36    4.13
   1   9   7    0.45    3.50
   2  -9   7    3.57    2.93
   2  -9   7    2.74    3.41
  -2  -9  -7    3.48    3.10
  -2   9  -7    3.26    4.56
   2   9   7   -2.81    3.33
  -3  -9  -7   -2.70    2.77
   3  -9   7    6.37    3.64
  -3   9  -7   12.81    5.54
   3   9   7    1.22    3.79
  -4  -9  -7    2.92    3.29
   4  -9   7    0.17    3.95
   4   9   7   -0.42    3.95
  -4   9  -7   -3.20    4.68
   6 -10  -7   29.94    4.89
  -6 -10   7   30.94    3.09
  -6 -10   7   41.86    6.62
  -6  10   7   39.40    5.43
   6  10  -7   26.60    5.48
  -6  10   7   30.55    5.73
   5 -10  -7    3.90    3.36
  -5 -10   7   -0.30    3.52
   5  10  -7    1.16    4.03
   5  10  -7   10.92    3.86
  -5  10   7    2.21    4.00
  -4 -10   7   23.92    4.71
   4 -10  -7   19.77    4.30
  -4 -10   7   16.51    2.78
   4  10  -7   13.21    4.13
  -4  10   7   11.02    4.23
   4  10  -7   11.08    4.47
  -3 -10   7    6.18    2.44
  -3 -10   7   -0.08    3.30
   3 -10  -7    7.41    3.49
   3  10  -7    0.84    3.64
  -3  10   7    0.17    3.68
   3  10  -7   11.05    4.02
  -2 -10   7   -0.24    2.35
  -2 -10   7    2.45    3.46
   2 -10  -7   -5.01    2.79
   2  10  -7    1.38    3.33
  -2  10   7    3.71    3.62
  -2  10   7   -2.30    3.06
   2  10  -7    5.78    3.85
  -1 -10   7   14.85    4.05
   1 -10  -7    6.03    3.48
  -1 -10   7    7.86    3.05
   1  10  -7    8.27    3.71
  -1  10   7    9.16    3.95
   1  10  -7   15.57    4.58
   0 -10  -7    3.74    3.13
   0 -10   7    7.53    3.73
   0 -10   7    3.35    2.81
   0  10   7    0.67    3.34
   0  10  -7    4.85    4.01
   0  10  -7    3.28    3.02
   1 -10   7    0.86    3.11
  -1 -10  -7    1.22    3.24
   1 -10   7   -1.27    3.42
  -1  10  -7    1.59    3.01
  -1  10  -7    4.50    4.74
   1  10   7   -5.60    3.47
  -2 -10  -7    6.33    3.58
   2 -10   7    2.12    3.28
   2 -10   7    9.49    4.08
  -2  10  -7    9.86    5.14
   2  10   7    5.05    4.49
   4  11  -7   13.74    7.06
   4  11  -7   17.55    4.43
  -4  11   7   14.29    4.71
   3 -11  -7   -0.58    3.44
  -3 -11   7    6.71    3.99
  -3 -11   7    5.19    2.76
   3  11  -7   14.69    4.46
  -3  11   7    1.58    3.89
   3  11  -7    4.66    4.08
  -2 -11   7   16.39    4.59
   2 -11  -7    8.60    3.70
  -2 -11   7    8.14    3.05
  -2  11   7    5.80    4.06
  -2  11   7   -0.49    5.39
   2  11  -7    5.11    4.01
   2  11  -7   15.38    4.66
  -1 -11   7   -0.18    3.78
  -1 -11   7    1.60    2.96
   1 -11  -7    4.64    3.84
  -1  11   7    4.30    3.99
   1  11  -7    3.02    3.46
   1  11  -7   13.77    4.85
   0 -11   7   21.33    5.08
   0 -11  -7   22.78    4.92
   0 -11   7   19.32    4.08
   0  11  -7   15.34    5.69
   0  11   7   11.65    4.73
   0  11  -7   20.86    4.52
   1 -11   7    3.03    3.40
   1  11   7   -0.70    6.39
 -11   0   8   -2.20    3.04
  11   0  -8    0.86    3.20
 -10   0   8    4.87    3.03
 -10   0   8    7.93    3.45
  10   0  -8    2.21    2.94
   9   0  -8   -2.23    2.31
  -9   0   8   -4.01    2.55
  -9   0   8   -0.72    2.54
  -8   0   8    6.22    2.78
   8   0  -8    5.19    2.50
  -8   0   8    8.97    3.19
  -7   0   8    2.73    2.13
   7   0  -8   -0.62    1.94
  -7   0   8   -0.32    2.51
  -6   0   8   -0.29    0.94
  -6   0   8   -3.46    2.38
  -6   0   8   -0.91    1.86
   6   0  -8    1.30    1.77
   6   0  -8    1.51    2.51
  -6   0   8    0.66    1.06
   5   0  -8   -2.39    1.38
  -5   0   8    1.73    2.16
  -5   0   8   -2.70    2.37
  -5   0   8    0.07    1.11
  -5   0   8    0.87    1.25
   5   0  -8    1.39    2.11
  -4   0   8   17.42    3.19
  -4   0   8   25.26    3.63
  -4   0   8   23.56    2.67
   4   0  -8   22.53    2.59
   4   0  -8   22.32    3.30
   3   0  -8   -0.74    1.98
  -3   0   8    0.63    2.12
  -3   0   8   -0.21    2.06
  -3   0   8   -0.41    1.45
   3   0  -8   -1.87    1.06
  -2   0   8    2.38    2.01
  -2   0   8   -0.86    1.20
  -2   0   8    0.88    2.11
  -2   0   8    0.77    1.66
   2   0  -8   -0.72    1.05
   2   0  -8    0.64    2.09
  -1   0   8    1.00    2.27
   1   0  -8   -0.97    2.06
  -1   0   8   -2.58    1.90
  -1   0   8    2.36    1.42
  -1   0   8    0.97    1.87
   0   0   8   10.06    2.08
   0   0  -8   13.01    2.97
   0   0   8    9.43    2.52
   0   0   8    8.64    2.70
   1   0   8    0.08    2.36
   1   0   8    0.31    2.21
  -1   0  -8    3.43    2.59
   1   0   8   -0.41    1.73
  -1   0  -8    0.10    2.10
  -2   0  -8   88.40    6.25
   2   0   8   83.14    6.11
  -2   0  -8   88.69    5.61
   2   0   8   81.40    5.40
   2   0   8   82.51    6.09
   3   0   8   -3.91    2.57
   3   0   8   -4.14    2.27
   3   0   8   -2.77    2.07
  -3   0  -8   -2.16    2.30
   4   0   8   97.17    6.98
  -4   0  -8   94.22    7.27
   4   0   8  112.09    6.95
   5   0   8    1.15    2.78
   5   0   8    3.09    2.77
  -5   0  -8    0.26    3.16
   6   0   8   10.09    3.79
  -6   0  -8    7.12    4.00
   7   0   8   -1.18    3.28
  -7   0  -8   -4.51    3.26
 -11  -1   8   -1.87    2.79
  11  -1  -8   -4.58    2.98
  11   1  -8    1.27    2.91
 -11   1   8   -3.09    3.02
 -10  -1   8   81.62    6.97
  10  -1  -8  100.06    7.42
  10   1  -8   90.68    7.00
 -10   1   8   98.25    7.73
 -10   1   8   75.14    6.68
  -9  -1   8   43.26    5.47
   9  -1  -8   44.53    5.17
  -9  -1   8   38.86    5.47
   9   1  -8   39.68    4.83
  -9   1   8   49.47    5.70
  -9   1   8   47.23    5.59
   8  -1  -8  118.03    7.26
  -8  -1   8  136.69    7.60
  -8  -1   8  131.45    7.57
  -8   1   8  105.76    7.46
  -8   1   8  115.58    4.77
  -8   1   8  104.27    7.65
   8   1  -8  124.52    6.96
  -7  -1   8   70.64    5.97
  -7  -1   8   78.83    5.49
   7  -1  -8   64.59    5.07
   7   1  -8   69.72    5.64
   7   1  -8   76.40    5.02
  -7   1   8   79.21    6.09
  -7   1   8   70.53    3.63
  -6  -1   8   78.07    5.99
   6  -1  -8   79.77    5.21
  -6  -1   8   77.36    5.49
   6  -1  -8   79.31    6.19
  -6   1   8   90.53    6.27
  -6   1   8   83.00    5.25
  -6   1   8   83.46    4.15
   6   1  -8   83.00    5.84
   6   1  -8   76.36    4.78
   5  -1  -8   43.78    3.79
  -5  -1   8   49.21    2.69
   5  -1  -8   55.06    5.03
  -5  -1   8   50.82    4.77
  -5  -1   8   45.86    4.89
  -5  -1   8   49.59    2.82
  -5   1   8   48.34    5.01
  -5   1   8   42.11    4.09
  -5   1   8   53.83    3.42
   5   1  -8   48.00    3.47
   5   1  -8   49.90    4.53
  -4  -1   8   40.16    4.50
  -4  -1   8   36.86    3.09
  -4  -1   8   36.00    2.84
   4  -1  -8   38.42    3.17
  -4  -1   8   44.54    4.30
   4  -1  -8   40.91    4.41
  -4   1   8   33.15    4.41
  -4   1   8   35.49    3.14
   4   1  -8   34.06    2.71
   4   1  -8   34.87    4.11
  -4   1   8   36.24    3.85
  -3  -1   8   21.30    3.13
   3  -1  -8   17.91    2.44
  -3  -1   8   16.55    2.57
   3  -1  -8   15.70    2.97
  -3  -1   8   17.15    2.14
  -3  -1   8   13.52    2.80
  -3   1   8   16.98    3.00
  -3   1   8   14.97    2.20
   3   1  -8   18.39    3.08
  -3   1   8   12.04    2.67
  -2  -1   8   25.29    3.52
  -2  -1   8   36.77    4.18
   2  -1  -8   35.24    2.78
   2  -1  -8   39.52    4.24
  -2  -1   8   34.99    3.42
  -2  -1   8   33.93    3.01
   2   1  -8   36.88    4.00
  -2   1   8   32.40    4.06
  -2   1   8   32.74    3.98
  -2   1   8   32.47    3.47
  -1  -1   8  138.88    6.47
  -1  -1   8  121.94    6.01
   1  -1  -8  127.35    7.01
   1  -1  -8  120.64    5.43
  -1  -1   8  115.04    6.76
  -1   1   8  116.94    6.84
  -1   1   8  130.95    6.47
  -1   1   8  118.04    6.48
   1   1  -8  127.52    6.94
  -1   1   8  119.25    6.61
   0  -1   8  200.50    9.38
   0  -1   8  212.59    9.06
   0  -1   8  201.46    9.58
   0  -1  -8  213.04    9.93
   0  -1  -8  206.54    8.35
   0   1   8  210.10    9.91
   0   1   8  218.56    9.54
   0   1  -8  219.96    9.85
   0   1  -8  207.84    9.63
   0   1   8  208.06    9.29
   0   1   8  207.55    8.59
  -1  -1  -8  188.99    9.29
   1  -1   8  181.03    9.13
  -1  -1  -8  170.25    7.96
   1  -1   8  199.78    9.16
   1  -1   8  188.44    8.58
   1   1   8  191.64    9.17
   1   1   8  188.91    9.23
  -1   1  -8  185.14    8.87
  -1   1  -8  179.12    9.20
   1   1   8  181.01    8.16
  -2  -1  -8  124.06    7.40
  -2  -1  -8  118.24    6.58
   2  -1   8  114.98    7.14
   2  -1   8  130.36    7.52
   2  -1   8  125.74    6.84
   2   1   8  115.89    6.44
   2   1   8  120.79    7.23
  -2   1  -8  122.31    6.96
  -2   1  -8  113.83    7.23
   2   1   8  108.30    7.16
  -3  -1  -8   19.58    3.66
   3  -1   8   21.17    3.37
   3  -1   8   34.99    4.98
   3  -1   8   31.16    4.08
  -3   1  -8   26.64    3.97
   3   1   8   25.67    3.51
   3   1   8   30.11    4.07
  -3   1  -8   29.71    3.72
   4  -1   8   42.52    5.21
   4  -1   8   40.05    4.89
  -4  -1  -8   38.73    5.47
   4   1   8   44.81    5.23
  -4   1  -8   42.42    6.01
   4   1   8   46.85    4.92
   5  -1   8    0.53    2.58
  -5  -1  -8   -4.01    2.86
   5  -1   8   -2.99    2.63
   5   1   8    1.83    2.78
  -5   1  -8   -1.98    2.81
   5   1   8    2.23    2.97
   6  -1   8    2.33    3.24
  -6  -1  -8   -3.40    3.19
  -6   1  -8    3.58    3.53
   6   1   8   -3.87    4.27
   6   1   8   -4.07    2.70
  -7  -1  -8   18.89    4.86
   7  -1   8   18.79    4.59
   7   1   8   16.36    4.36
  -7   1  -8   13.07    4.63
 -11  -2   8   -1.80    2.98
  11  -2  -8    1.67    3.38
  11   2  -8   -6.68    2.73
 -11   2   8   -0.19    3.06
  10  -2  -8   40.57    5.85
 -10  -2   8   32.21    4.69
 -10   2   8   38.15    2.61
 -10   2   8   29.74    4.62
 -10   2   8   30.36    4.77
  10   2  -8   34.69    4.67
   9  -2  -8   11.75    3.42
  -9  -2   8    5.19    2.89
  -9  -2   8    9.53    3.17
   9   2  -8    9.37    2.95
  -9   2   8    9.29    3.27
  -9   2   8    8.40    1.62
  -9   2   8   13.01    3.42
   8  -2  -8   46.49    5.06
  -8  -2   8   46.24    4.79
  -8  -2   8   32.54    4.92
   8   2  -8   29.84    4.12
  -8   2   8   34.86    5.33
  -8   2   8   40.12    5.19
  -8   2   8   38.61    3.00
  -7  -2   8    8.67    2.86
  -7  -2   8    6.94    2.84
   7  -2  -8    5.83    2.62
  -7   2   8    9.97    3.02
  -7   2   8    8.15    3.15
  -7   2   8    4.59    1.71
   7   2  -8   12.17    2.77
   7   2  -8    8.19    2.32
   6  -2  -8   52.23    4.51
   6  -2  -8   57.51    5.50
  -6  -2   8   57.14    4.26
  -6  -2   8   49.94    5.06
  -6  -2   8   51.57    4.74
   6   2  -8   51.44    3.78
  -6   2   8   46.17    5.17
   6   2  -8   52.16    4.79
  -6   2   8   50.98    4.38
  -6   2   8   49.67    3.58
  -5  -2   8    1.05    2.31
  -5  -2   8   -1.46    2.16
   5  -2  -8   -0.10    1.84
  -5  -2   8   -0.78    0.84
  -5  -2   8   -0.23    1.76
   5  -2  -8    3.79    2.51
  -5  -2   8    1.63    0.84
   5   2  -8    2.50    1.44
  -5   2   8    3.19    2.04
  -5   2   8   -0.53    2.37
   5   2  -8   -3.07    1.74
  -5   2   8    0.48    1.51
  -4  -2   8    0.21    2.32
  -4  -2   8   -0.32    2.13
  -4  -2   8    1.67    1.32
   4  -2  -8    2.65    1.76
   4  -2  -8    0.71    2.21
  -4  -2   8    0.70    1.12
  -4  -2   8   -0.91    1.51
   4   2  -8    4.65    2.17
  -4   2   8    2.25    1.70
  -4   2   8    3.82    2.18
  -4   2   8    2.21    2.36
  -3  -2   8   27.29    2.89
  -3  -2   8   23.63    3.34
   3  -2  -8   22.85    3.00
  -3  -2   8   26.18    3.59
  -3  -2   8   29.49    3.16
   3  -2  -8   29.96    4.20
  -3   2   8   25.72    4.05
  -3   2   8   29.74    3.46
  -3   2   8   16.93    2.92
   3   2  -8   21.92    3.36
  -2  -2   8   14.16    2.27
  -2  -2   8   16.52    2.42
  -2  -2   8   10.72    2.80
   2  -2  -8   13.49    2.13
   2  -2  -8   12.82    2.91
  -2   2   8   13.77    2.88
   2   2  -8   16.34    3.04
  -2   2   8   15.07    2.71
   2   2  -8   16.77    2.79
  -2   2   8   12.71    2.46
  -1  -2   8   26.77    3.68
  -1  -2   8   29.22    4.05
   1  -2  -8   42.81    4.70
  -1  -2   8   33.69    3.52
   1  -2  -8   33.31    3.02
   1   2  -8   30.56    4.24
   1   2  -8   33.64    4.02
  -1   2   8   27.79    3.79
  -1   2   8   32.67    3.87
  -1   2   8   32.92    4.34
   0  -2   8   53.86    4.34
   0  -2   8   50.33    4.85
   0  -2   8   50.94    4.58
   0  -2  -8   49.39    4.81
   0  -2  -8   46.25    3.58
   0   2  -8   50.75    4.95
   0   2   8   49.24    4.62
   0   2  -8   56.99    5.01
   0   2   8   55.32    4.44
   0   2   8   51.63    5.00
   1  -2   8   26.08    3.65
  -1  -2  -8   34.23    4.68
   1  -2   8   22.66    3.60
  -1  -2  -8   24.55    2.98
   1  -2   8   30.36    3.84
   1   2   8   25.17    3.45
   1   2   8   23.54    3.53
   1   2   8   30.10    3.32
   1   2   8   27.27    4.00
  -1   2  -8   26.20    3.75
  -1   2  -8   26.40    3.65
   2  -2   8   52.13    5.00
  -2  -2  -8   53.00    4.01
   2  -2   8   49.01    5.29
   2  -2   8   50.26    5.07
  -2  -2  -8   60.60    5.60
   2   2   8   54.04    5.52
   2   2   8   54.51    5.51
  -2   2  -8   47.45    5.31
   2   2   8   53.13    4.36
  -2   2  -8   49.69    5.10
  -3  -2  -8   82.99    5.24
  -3  -2  -8   93.77    6.81
   3  -2   8   89.04    6.07
   3  -2   8   72.38    6.04
   3  -2   8   82.42    6.38
  -3   2  -8   83.59    6.66
  -3   2  -8   84.27    6.03
   3   2   8   80.08    6.68
   3   2   8   65.32    5.48
  -4  -2  -8   64.75    6.36
   4  -2   8   65.48    5.80
   4  -2   8   68.63    6.02
  -4   2  -8   76.37    6.75
   4   2   8   74.16    5.91
   4   2   8   76.21    6.66
  -5  -2  -8    3.87    3.42
   5  -2   8    2.79    2.97
   5   2   8   -2.27    2.89
   5   2   8    4.01    2.76
  -5   2  -8    1.84    3.48
  -6  -2  -8   12.22    4.04
   6  -2   8   12.07    3.77
   6   2   8    8.15    3.44
  -6   2  -8   12.05    4.28
   6   2   8    6.61    3.45
  -7  -2  -8   17.16    4.68
   7  -2   8   18.54    4.69
   7   2   8   14.23    4.38
  -7   2  -8   22.86    4.95
  11  -3  -8   -2.29    3.02
  11   3  -8   -2.20    2.70
 -11   3   8    0.05    1.57
 -11   3   8    3.35    3.37
 -11   3   8   -1.63    3.22
 -10  -3   8   -0.14    2.71
  10  -3  -8    7.47    3.38
 -10   3   8    5.36    1.84
  10   3  -8    3.54    2.83
 -10   3   8    1.65    2.95
 -10   3   8    3.36    3.18
  -9  -3   8   24.69    3.83
   9  -3  -8   20.72    4.02
  -9   3   8   21.84    4.02
  -9   3   8   26.63    4.38
  -9   3   8   21.93    3.09
   9   3  -8   21.54    3.50
   8  -3  -8    3.65    2.69
  -8  -3   8   -0.73    2.51
  -8  -3   8    0.32    2.50
  -8  -3   8    3.48    2.80
   8   3  -8   -0.13    1.99
   8   3  -8    0.27    2.01
  -8   3   8    2.73    2.87
  -8   3   8   -2.64    2.27
  -8   3   8   -0.85    1.60
  -7  -3   8  121.33    7.64
  -7  -3   8  129.53    7.32
   7  -3  -8  126.79    7.30
  -7  -3   8  112.91    6.90
   7   3  -8  115.91    7.00
  -7   3   8  133.80    7.92
   7   3  -8  116.85    6.41
  -7   3   8  116.54    6.01
  -6  -3   8   26.56    3.87
  -6  -3   8   26.97    3.80
   6  -3  -8   20.53    3.16
   6  -3  -8   31.69    4.93
  -6  -3   8   23.94    3.88
   6   3  -8   24.67    3.64
  -6   3   8   16.73    3.61
  -6   3   8   20.67    3.44
  -6   3   8   21.50    3.16
   5  -3  -8   19.18    2.90
   5  -3  -8   15.83    3.24
  -5  -3   8   27.61    4.23
  -5  -3   8   14.51    2.59
   5   3  -8   27.64    3.52
  -5   3   8   17.95    3.35
  -5   3   8   22.18    3.22
  -5   3   8   23.75    3.52
   4  -3  -8    1.80    1.98
  -4  -3   8    3.36    2.54
  -4  -3   8   -1.10    1.19
   4  -3  -8   -0.59    2.22
  -4  -3   8    0.34    1.09
  -4  -3   8   -0.59    1.84
  -4   3   8    2.53    2.40
  -4   3   8   -3.44    1.72
   4   3  -8    0.96    2.49
  -4   3   8    1.76    2.11
   4   3  -8   -3.35    1.60
   3  -3  -8    0.07    1.74
  -3  -3   8   -1.93    2.16
  -3  -3   8    1.64    1.47
   3  -3  -8    1.49    2.27
  -3  -3   8    1.61    1.96
  -3   3   8    1.70    2.32
   3   3  -8    5.70    2.64
   3   3  -8    0.88    1.82
  -3   3   8   -1.84    2.14
  -3   3   8   -1.67    1.77
  -2  -3   8   11.36    2.59
  -2  -3   8   13.18    2.47
  -2  -3   8   13.76    2.30
   2  -3  -8   11.83    2.26
   2  -3  -8   16.22    3.13
  -2   3   8   12.76    2.99
  -2   3   8    7.22    2.61
   2   3  -8    8.96    3.08
   2   3  -8   14.08    2.59
  -2   3   8   11.19    2.67
  -1  -3   8   17.99    2.78
  -1  -3   8   20.60    2.86
   1  -3  -8   22.82    3.12
   1  -3  -8   15.35    3.02
  -1  -3   8   19.01    3.28
   1   3  -8   27.97    3.92
  -1   3   8   20.85    3.02
  -1   3   8   23.98    3.64
  -1   3   8   19.00    3.32
   1   3  -8   22.15    3.49
   0  -3   8   -2.49    2.15
   0  -3  -8    0.14    2.41
   0  -3  -8    1.10    1.63
   0  -3   8   -0.29    2.13
   0  -3   8    6.43    2.26
   0   3  -8    1.61    2.42
   0   3   8    0.60    2.72
   0   3  -8   -3.20    2.20
   0   3   8    1.32    2.37
   0   3   8   -0.02    1.94
   1  -3   8   79.98    5.83
   1  -3   8   86.07    5.94
   1  -3   8   73.65    5.64
  -1  -3  -8   82.23    5.94
  -1  -3  -8   75.60    4.96
  -1   3  -8   81.18    6.17
   1   3   8   75.93    6.13
   1   3   8   88.73    5.91
  -1   3  -8   86.93    6.01
   1   3   8   75.44    5.00
  -2  -3  -8   -1.22    1.79
  -2  -3  -8   -0.64    2.55
   2  -3   8   -1.48    2.26
   2  -3   8    5.01    2.85
   2  -3   8    4.32    2.55
  -2   3  -8    4.64    2.65
   2   3   8    2.87    2.17
  -2   3  -8   -0.69    2.51
   2   3   8    1.68    3.02
   2   3   8    1.79    3.19
   3  -3   8   21.25    3.56
   3  -3   8   23.76    3.78
   3  -3   8   35.12    5.03
  -3  -3  -8   20.04    3.85
  -3  -3  -8   18.99    3.05
   3   3   8   21.66    4.21
  -3   3  -8   25.55    4.01
  -3   3  -8   16.62    3.54
   3   3   8   19.56    3.24
   4  -3   8    1.43    2.50
  -4  -3  -8    0.73    2.84
   4  -3   8   -0.05    2.71
  -4  -3  -8    1.25    2.22
   4   3   8    0.37    2.43
   4   3   8   -0.38    2.89
  -4   3  -8    2.13    5.46
  -4   3  -8    4.33    3.10
   5  -3   8    9.27    3.42
  -5  -3  -8    6.41    3.63
   5   3   8    5.29    3.16
   5   3   8   -2.12    3.20
  -5   3  -8    0.27    3.47
  -6  -3  -8    5.60    3.80
   6  -3   8    4.59    3.45
   6   3   8    6.03    3.34
   6   3   8    6.21    3.51
  -6   3  -8    2.71    3.75
  -7  -3  -8    7.23    4.14
   7  -3   8   -0.23    3.64
   7   3   8   -4.69    3.13
  -7   3  -8   -5.30    4.39
 -11   4   8   26.19    4.89
  11   4  -8   20.04    4.50
  10  -4  -8    6.17    3.31
 -10   4   8    0.18    3.05
 -10   4   8    0.32    3.14
 -10   4   8    2.36    2.04
   9  -4  -8   41.30    5.13
  -9   4   8   28.91    4.78
   9   4  -8   33.99    5.85
  -9   4   8   41.35    4.08
   9   4  -8   37.36    5.10
  -9   4   8   50.44    6.10
  -8  -4   8    6.15    3.10
   8  -4  -8   13.15    3.23
  -8  -4   8    6.26    3.15
  -8   4   8   12.08    3.45
  -8   4   8    9.69    2.43
   8   4  -8   12.90    3.22
  -8   4   8   12.49    3.48
  -7  -4   8   23.68    3.84
   7  -4  -8   18.80    3.48
  -7  -4   8   23.68    3.60
  -7   4   8   21.46    2.88
  -7   4   8   22.92    4.21
   7   4  -8   23.95    3.30
   7   4  -8   15.77    3.50
  -6  -4   8  113.30    6.90
   6  -4  -8  120.17    6.99
   6  -4  -8  109.11    7.54
  -6  -4   8  112.90    7.47
   6   4  -8  126.65    7.61
  -6   4   8  117.00    6.33
  -6   4   8  117.47    7.65
   6   4  -8  107.10    6.37
  -5  -4   8  330.99   13.31
  -5  -4   8  330.48   13.80
   5  -4  -8  304.22   13.83
   5  -4  -8  318.50   13.20
  -5   4   8  290.93   13.59
  -5   4   8  310.63   12.82
   5   4  -8  323.87   13.00
  -5   4   8  313.29   12.80
   5   4  -8  309.87   13.95
  -4  -4   8  596.05   23.58
   4  -4  -8  631.18   23.17
   4  -4  -8  628.22   23.77
  -4  -4   8  610.28   21.73
  -4  -4   8  605.20   23.03
   4   4  -8  599.56   22.86
   4   4  -8  621.99   23.96
  -4   4   8  640.21   23.02
  -4   4   8  604.58   23.69
  -4   4   8  631.07   23.15
  -3  -4   8  625.31   22.55
  -3  -4   8  650.56   24.06
   3  -4  -8  620.39   23.99
  -3  -4   8  608.12   23.39
   3  -4  -8  625.74   23.39
  -3   4   8  628.76   23.97
  -3   4   8  634.38   23.47
   3   4  -8  630.68   24.33
  -3   4   8  634.66   23.80
   3   4  -8  639.85   23.39
  -2  -4   8  570.22   21.26
   2  -4  -8  583.62   21.86
  -2  -4   8  567.44   21.80
  -2  -4   8  545.40   20.66
   2  -4  -8  581.63   21.13
   2   4  -8  577.75   22.10
  -2   4   8  553.91   21.69
  -2   4   8  569.03   21.39
  -2   4   8  528.02   21.52
   2   4  -8  567.93   21.24
  -1  -4   8  490.90   20.20
   1  -4  -8  510.69   20.37
  -1  -4   8  491.05   19.86
   1  -4  -8  519.17   19.64
  -1  -4   8  519.34   19.55
  -1   4   8  571.20   20.19
   1   4  -8  527.43   20.70
  -1   4   8  519.55   20.48
   1   4  -8  539.56   19.96
  -1   4   8  518.75   20.14
   0  -4  -8  159.75    7.81
   0  -4  -8  175.10    8.75
   0  -4   8  150.58    8.02
   0  -4   8  158.66    8.23
   0  -4   8  164.56    8.45
   0   4  -8  161.21    8.93
   0   4  -8  159.59    8.24
   0   4   8  160.65    7.97
   0   4   8  184.49    8.68
   0   4   8  153.71    8.76
   1  -4   8   58.22    5.19
   1  -4   8   76.14    5.65
  -1  -4  -8   68.76    5.70
   1  -4   8   73.50    5.51
  -1  -4  -8   68.03    5.05
  -1   4  -8   67.32    5.40
   1   4   8   71.62    6.19
   1   4   8   62.86    4.74
  -1   4  -8   74.58    6.07
   1   4   8   67.87    5.73
   2  -4   8   98.00    6.84
   2  -4   8   99.99    6.79
   2  -4   8  110.92    7.06
  -2  -4  -8  106.63    7.22
  -2  -4  -8   97.65    6.11
  -2   4  -8  100.90    6.79
   2   4   8  104.26    7.42
  -2   4  -8  108.15    7.26
   3  -4   8    8.73    3.18
   3  -4   8    6.13    3.00
   3  -4   8    8.84    2.99
  -3  -4  -8   11.41    2.71
  -3  -4  -8    4.94    3.18
  -3   4  -8    8.89    3.15
   3   4   8   11.20    3.62
  -3   4  -8    6.38    3.24
  -4  -4  -8   11.59    3.11
   4  -4   8   14.64    3.66
  -4  -4  -8   12.84    3.43
   4   4   8   18.77    4.05
   4   4   8   11.64    3.27
  -4   4  -8   18.18    3.93
  -4   4  -8    9.48    3.56
  -5  -4  -8   -1.68    3.29
   5  -4   8    2.40    3.17
  -5  -4  -8    0.10    2.52
   5   4   8    0.28    3.24
   5   4   8   -1.64    2.69
  -5   4  -8    4.85    3.77
   6  -4   8   26.51    5.15
  -6  -4  -8   25.26    4.93
   6   4   8   17.68    4.52
  -6   4  -8   22.98    4.99
   6   4   8   16.80    4.17
  -7  -4  -8    7.27    4.36
  10  -5  -8   18.66    4.20
  10   5  -8   15.96    4.04
 -10   5   8   13.41    2.82
 -10   5   8   13.14    4.15
 -10   5   8   17.70    4.12
   9  -5  -8   20.18    4.18
  -9  -5   8   22.47    4.27
  -9   5   8   19.75    4.57
  -9   5   8   12.84    3.81
   9   5  -8   26.24    4.33
  -9   5   8   16.12    2.90
   8  -5  -8   31.40    4.49
  -8  -5   8   23.12    4.05
  -8   5   8   29.77    4.07
   8   5  -8   22.14    3.91
  -8   5   8   28.56    4.80
   8   5  -8   24.46    4.07
  -8   5   8   24.99    4.11
   7  -5  -8    1.32    2.63
   7  -5  -8    2.92    2.96
  -7  -5   8    2.83    3.01
  -7  -5   8    5.01    2.83
  -7   5   8    1.81    2.26
  -7   5   8    4.99    3.40
   7   5  -8    4.57    2.88
  -6  -5   8   86.03    6.08
  -6  -5   8   85.45    6.66
   6  -5  -8   89.13    6.25
   6  -5  -8   82.36    6.97
  -6   5   8   80.11    5.72
  -6   5   8   80.16    6.73
   6   5  -8   80.90    6.45
  -5  -5   8   30.11    4.67
  -5  -5   8   35.06    2.09
  -5  -5   8   33.88    4.99
   5  -5  -8   28.99    4.29
  -5  -5   8   34.55    2.19
   5  -5  -8   29.04    4.26
  -5   5   8   37.60    4.32
   5   5  -8   28.53    4.22
  -5   5   8   33.08    4.12
  -5   5   8   38.90    5.24
   4  -5  -8   33.53    4.17
  -4  -5   8   25.05    3.56
  -4  -5   8   33.50    4.87
  -4  -5   8   26.21    2.75
   4  -5  -8   32.97    4.92
  -4   5   8   31.91    4.29
  -4   5   8   27.48    3.48
  -4   5   8   25.76    3.62
   4   5  -8   26.21    3.80
   4   5  -8   32.44    5.09
  -3  -5   8   16.14    3.12
  -3  -5   8   18.84    2.84
   3  -5  -8   16.36    3.39
  -3  -5   8   11.47    3.28
   3  -5  -8   24.29    3.24
  -3   5   8   18.39    3.30
   3   5  -8   19.35    3.78
  -3   5   8   12.34    2.89
  -3   5   8   20.18    3.59
   3   5  -8   11.33    2.46
  -2  -5   8   71.74    4.77
  -2  -5   8   78.18    5.49
   2  -5  -8   73.47    5.86
   2  -5  -8   73.11    5.14
  -2  -5   8   72.08    5.84
  -2   5   8   68.19    5.80
   2   5  -8   65.82    6.19
  -2   5   8   72.78    5.91
   2   5  -8   72.84    4.88
  -2   5   8   67.20    5.52
  -1  -5   8   11.23    2.51
  -1  -5   8   14.59    3.14
   1  -5  -8   11.28    2.71
  -1  -5   8    9.22    2.75
   1  -5  -8   10.89    2.99
  -1   5   8    8.97    3.18
  -1   5   8    8.10    2.73
   1   5  -8    8.20    3.38
  -1   5   8   12.56    2.86
   1   5  -8   11.74    2.61
   0  -5  -8   70.26    5.63
   0  -5   8   69.85    5.55
   0  -5   8   51.08    5.01
   0  -5   8   76.44    5.71
   0  -5  -8   68.22    5.07
   0   5   8   65.05    5.24
   0   5  -8   74.46    5.31
   0   5   8   72.81    6.01
   0   5   8   70.95    6.20
   0   5  -8   56.23    5.93
   1  -5   8   21.44    3.56
  -1  -5  -8   16.67    3.37
  -1  -5  -8   14.34    2.96
   1  -5   8   20.60    3.33
   1  -5   8   14.61    3.31
  -1   5  -8   20.86    3.30
   1   5   8   17.64    3.91
  -1   5  -8    8.59    3.34
   2  -5   8   24.92    3.75
   2  -5   8   22.90    3.74
  -2  -5  -8   30.69    4.23
  -2  -5  -8   33.04    4.10
   2  -5   8   31.54    4.41
  -2   5  -8   24.15    4.06
   2   5   8   24.20    4.50
  -2   5  -8   23.60    3.75
  -3  -5  -8   17.66    3.24
   3  -5   8   22.33    3.85
  -3  -5  -8   20.57    4.04
   3  -5   8   16.67    3.94
   3  -5   8   17.56    3.38
  -3   5  -8   19.32    4.48
   3   5   8   21.67    4.34
  -3   5  -8   25.27    4.00
  -4  -5  -8    2.66    3.03
   4  -5   8    0.22    3.03
  -4  -5  -8   -4.13    2.46
  -4   5  -8    8.43    3.53
   4   5   8   -5.98    3.00
  -4   5  -8    7.91    3.76
  -5  -5  -8    2.14    3.46
  -5  -5  -8    0.99    2.72
   5  -5   8    1.21    3.32
  -5   5  -8    1.04    3.21
   5   5   8    0.49    3.55
  -6  -5  -8    8.56    4.04
   6  -5   8   19.29    4.80
  -6  -5  -8   20.39    4.19
   6   5   8   27.26    5.40
  -6   5  -8   20.08    4.87
 -10   6   8    2.41    4.12
  10   6  -8    0.81    3.41
  -9  -6   8   39.57    5.98
   9  -6  -8   42.25    6.34
  -9   6   8   50.22    4.97
  -9   6   8   40.99    5.78
   9   6  -8   42.59    6.30
  -9   6   8   43.95    5.85
  -8  -6   8    8.26    3.54
   8  -6  -8   10.16    3.38
   8   6  -8   10.67    3.69
  -8   6   8   10.38    4.01
  -8   6   8    4.91    2.56
   7  -6  -8    0.04    2.94
   7  -6  -8    2.17    2.75
  -7  -6   8    6.11    3.01
   7   6  -8    2.70    2.97
  -7   6   8    2.58    2.53
  -7   6   8    3.20    3.46
   6  -6  -8   24.18    4.10
   6  -6  -8   30.17    4.52
  -6  -6   8   25.37    4.27
  -6  -6   8   16.16    3.66
  -6   6   8   20.90    4.29
  -6   6   8   25.43    3.59
   6   6  -8   23.38    4.08
  -5  -6   8   15.08    3.35
   5  -6  -8   12.92    3.36
   5  -6  -8   17.02    3.62
  -5  -6   8    9.26    3.25
  -5  -6   8   11.14    1.51
  -5   6   8   15.60    3.81
  -5   6   8   15.66    3.17
   5   6  -8   14.61    3.79
  -4  -6   8   11.71    3.28
   4  -6  -8   13.67    3.37
  -4  -6   8   16.94    3.40
   4  -6  -8    7.55    3.05
  -4  -6   8   14.98    2.00
  -4   6   8   15.17    3.09
  -4   6   8   10.72    3.00
  -4   6   8    8.99    3.39
   4   6  -8   13.56    3.58
   3  -6  -8   -3.12    2.44
  -3  -6   8    2.89    1.74
   3  -6  -8    3.01    2.51
  -3  -6   8    1.71    2.48
  -3  -6   8   -2.64    2.56
  -3   6   8    1.42    2.70
  -3   6   8   -0.27    2.81
   3   6  -8    1.18    3.05
  -3   6   8   -1.11    2.45
  -2  -6   8   -0.55    2.73
   2  -6  -8    2.75    2.65
  -2  -6   8    4.24    2.69
  -2  -6   8    2.00    1.94
   2  -6  -8   -1.84    2.31
  -2   6   8   -0.78    2.57
  -2   6   8    1.52    2.73
   2   6  -8    3.55    3.20
  -2   6   8    0.60    2.59
   1  -6  -8    3.27    2.46
  -1  -6   8    4.08    2.71
   1  -6  -8    4.82    2.57
  -1  -6   8    2.18    2.79
  -1  -6   8   -1.28    1.98
   1   6  -8    1.21    3.09
  -1   6   8   -2.18    2.33
  -1   6   8    0.07    2.88
  -1   6   8    2.79    2.68
   0  -6  -8    1.92    2.33
   0  -6   8   -1.97    2.55
   0  -6  -8   -1.89    2.44
   0  -6   8   -1.35    2.53
   0  -6   8    1.95    2.34
   0   6   8    1.34    3.14
   0   6  -8    1.25    3.05
   0   6   8   -0.09    2.30
   0   6   8    0.08    3.02
  -1  -6  -8   84.52    6.00
   1  -6   8   76.55    6.05
  -1  -6  -8   78.96    6.30
   1  -6   8   72.98    6.09
   1  -6   8   77.93    6.52
   1   6   8   84.05    7.08
  -1   6  -8   77.64    7.30
  -1   6  -8   73.83    5.93
  -2  -6  -8   17.78    3.89
   2  -6   8   19.00    3.85
  -2  -6  -8   18.32    3.41
   2  -6   8   23.09    3.68
   2  -6   8   19.93    3.61
  -2   6  -8   18.50    3.55
  -2   6  -8   15.69    4.23
   2   6   8   11.12    3.61
  -3  -6  -8  196.82   10.65
   3  -6   8  204.55   11.86
  -3  -6  -8  221.60   10.54
   3  -6   8  213.97   10.80
   3  -6   8  196.51   10.85
  -3   6  -8  207.58   11.79
  -3   6  -8  191.36   10.64
   3   6   8  206.89   11.52
   4  -6   8   37.04    5.93
  -4  -6  -8   30.14    4.57
  -4  -6  -8   29.18    4.29
  -4   6  -8   32.57    4.86
   4   6   8   30.40    5.19
  -4   6  -8   53.48    7.50
  -5  -6  -8   31.01    4.98
   5  -6   8   27.54    5.09
  -5  -6  -8   34.39    4.81
  -5   6  -8   36.37    5.37
   5   6   8   31.69    5.54
  -5   6  -8   33.50    8.93
  -6  -6  -8    2.53    3.34
   6   6   8   -0.86    3.79
  -6   6  -8    9.34    3.97
  -9  -7   8   44.48    6.79
   9  -7  -8   41.70    6.32
  -9   7   8   41.91    5.13
   9   7  -8   32.19    5.48
  -9   7   8   39.10    5.99
  -8  -7   8   29.09    4.67
   8  -7  -8   28.06    4.92
   8  -7  -8   32.60    5.02
  -8   7   8   33.14    5.27
  -8   7   8   21.70    3.81
   8   7  -8   26.33    4.85
   7  -7  -8   92.13    7.62
  -7  -7   8   97.24    7.33
   7  -7  -8  102.15    7.53
  -7   7   8   90.93    7.99
  -7   7   8   90.59    6.63
   7   7  -8   86.09    7.86
   7   7  -8   84.24    7.38
   6  -7  -8   44.38    5.58
  -6  -7   8   37.20    5.75
   6  -7  -8   44.48    5.66
  -6  -7   8   37.80    5.78
   6   7  -8   46.24    5.93
  -6   7   8   43.12    6.60
  -6   7   8   46.12    5.40
  -5  -7   8   22.59    2.50
  -5  -7   8   18.70    3.92
   5  -7  -8   13.18    3.58
   5  -7  -8   34.91    5.26
  -5  -7   8   16.22    3.84
  -5   7   8   20.54    4.30
   5   7  -8   31.73    4.72
  -5   7   8   23.42    3.83
   4  -7  -8   21.02    3.70
  -4  -7   8   24.20    4.03
  -4  -7   8   27.41    4.29
   4  -7  -8   29.92    4.22
  -4  -7   8   21.82    3.13
  -4   7   8   39.32    5.09
  -4   7   8   25.64    3.78
   4   7  -8   38.37    5.68
  -4   7   8   31.63    4.18
  -3  -7   8    3.12    1.90
   3  -7  -8    8.60    3.03
  -3  -7   8   -5.69    2.45
  -3  -7   8    0.42    2.83
   3  -7  -8   -2.97    2.43
  -3   7   8   -3.04    2.46
  -3   7   8    2.18    2.78
   3   7  -8    1.98    3.18
  -3   7   8    3.44    3.13
   2  -7  -8   61.21    5.59
  -2  -7   8   54.85    4.58
  -2  -7   8   65.02    6.05
   2  -7  -8   61.78    5.38
  -2  -7   8   69.42    5.92
  -2   7   8   63.12    6.17
   2   7  -8   67.67    6.80
  -2   7   8   60.06    6.07
  -2   7   8   54.38    6.01
  -1  -7   8   41.11    5.28
  -1  -7   8   34.78    4.44
   1  -7  -8   40.92    4.85
  -1  -7   8   35.21    4.97
   1  -7  -8   29.42    4.19
  -1   7   8   33.26    4.95
  -1   7   8   28.26    4.81
  -1   7   8   38.99    5.42
   1   7  -8   43.44    5.52
   0  -7   8  117.52    7.73
   0  -7  -8  118.14    7.40
   0  -7  -8  120.22    7.58
   0  -7   8  123.17    7.25
   0  -7   8  114.77    7.67
   0   7  -8  121.95    8.73
   0   7   8  124.81    8.55
  -1  -7  -8   75.89    6.10
   1  -7   8   58.44    6.11
  -1  -7  -8   73.52    5.96
   1  -7   8   70.50    6.10
   1  -7   8   76.35    6.45
  -1   7  -8   66.68    7.15
   1   7   8   50.34    6.59
  -2  -7  -8   78.86    6.32
  -2  -7  -8   83.25    6.40
   2  -7   8   73.40    6.80
   2  -7   8   69.04    6.31
   2  -7   8   72.75    6.48
  -2   7  -8   81.82    7.80
   2   7   8   75.39    7.38
  -3  -7  -8   17.29    3.74
   3  -7   8   19.01    4.25
   3  -7   8   13.83    5.52
  -3   7  -8   29.09    5.45
   3   7   8   17.87    4.70
   4  -7   8   14.67    4.03
  -4  -7  -8   15.48    3.88
   4   7   8   19.98    4.96
  -4   7  -8   31.88    6.02
   5  -7   8   12.28    5.01
  -5  -7  -8    4.76    3.35
  -5   7  -8    3.89    4.92
   5   7   8   -0.94    4.20
   8  -8  -8    0.56    3.42
   8  -8  -8    7.84    3.79
  -8  -8   8    7.08    3.86
  -8   8   8   -1.05    3.93
  -8   8   8   -2.85    2.80
   8   8  -8    6.13    4.13
   7  -8  -8   -0.37    3.14
  -7  -8   8    1.04    3.39
   7  -8  -8    1.75    3.15
  -7   8   8    3.91    3.95
  -7   8   8    4.56    3.08
   7   8  -8    4.44    3.77
   6  -8  -8   18.85    3.99
   6  -8  -8   16.92    4.11
  -6  -8   8   16.55    4.07
  -6   8   8   19.02    3.81
   6   8  -8   24.67    4.74
  -6   8   8    8.88    4.07
   6   8  -8   16.22    4.31
   5  -8  -8    8.38    3.27
   5  -8  -8    5.63    3.30
  -5  -8   8    5.53    1.75
  -5  -8   8    7.46    3.45
  -5   8   8    6.92    3.66
   5   8  -8    5.56    3.90
  -5   8   8    6.94    3.33
   4  -8  -8    0.90    2.79
  -4  -8   8    2.86    1.82
  -4  -8   8    3.95    3.27
   4  -8  -8   -1.83    2.62
  -4  -8   8    0.01    2.94
   4   8  -8    1.05    3.53
  -4   8   8   -0.34    2.74
  -4   8   8    2.24    3.32
  -3  -8   8   41.41    5.63
   3  -8  -8   48.98    5.58
  -3  -8   8   41.40    4.15
   3  -8  -8   46.96    5.34
  -3  -8   8   55.76    6.04
  -3   8   8   47.87    5.78
  -3   8   8   46.13    5.99
   3   8  -8   53.40    6.66
  -3   8   8   49.75    5.77
  -2  -8   8    6.22    3.28
   2  -8  -8    9.14    2.97
   2  -8  -8    3.55    2.84
  -2  -8   8    8.38    3.23
  -2  -8   8    7.89    2.45
   2   8  -8    2.52    3.48
  -2   8   8    6.29    3.37
  -2   8   8    2.78    3.21
   1  -8  -8    1.53    2.89
  -1  -8   8    4.99    3.18
  -1  -8   8    3.39    2.44
  -1  -8   8    2.07    2.90
   1   8  -8    2.32    3.69
  -1   8   8    2.35    3.34
  -1   8   8    3.27    3.05
   0  -8   8   38.38    5.37
   0  -8   8   29.51    4.60
   0  -8  -8   46.29    5.49
   0  -8   8   59.07    5.31
   0   8  -8   45.33    6.60
   0   8   8   43.86    6.25
  -1  -8  -8    7.82    3.24
   1  -8   8    1.84    2.88
   1  -8   8    3.89    3.21
   1  -8   8    6.02    3.36
   1   8   8   -3.90    3.16
  -1   8  -8    5.32    3.75
  -2  -8  -8    9.32    3.43
   2  -8   8    6.94    3.48
   2  -8   8   11.79    3.85
   2  -8   8   11.70    4.11
   2   8   8    6.26    3.88
  -2   8  -8   11.42    4.75
   3  -8   8   45.94    6.35
  -3  -8  -8   35.75    4.89
  -3   8  -8   23.95    6.08
   3   8   8   34.09    5.83
  -4  -8  -8    6.65    3.57
   4  -8   8    3.56    3.94
   4   8   8    2.56    4.33
  -4   8  -8    4.89    4.91
   7  -9  -8    6.82    3.66
  -7  -9   8   -1.75    3.51
   7   9  -8   -0.88    3.80
  -7   9   8   -3.26    3.78
  -7   9   8    2.30    3.09
   6  -9  -8    8.38    3.62
  -6  -9   8    3.65    1.28
  -6  -9   8    9.08    4.13
   6   9  -8    1.77    3.76
  -6   9   8    6.60    3.42
   6   9  -8    4.26    3.96
  -6   9   8    0.43    3.89
  -5  -9   8   28.67    3.26
  -5  -9   8   21.32    4.48
   5  -9  -8   25.16    4.73
  -5   9   8   24.01    5.08
   5   9  -8   22.67    5.09
   5   9  -8   22.86    4.97
  -5   9   8   23.83    4.61
   4  -9  -8   34.84    4.89
  -4  -9   8   26.13    4.58
  -4  -9   8   22.83    3.07
  -4   9   8   32.63    4.84
  -4   9   8   32.89    5.23
   4   9  -8   33.63    5.49
   3  -9  -8   -1.20    3.01
  -3  -9   8    6.44    3.51
  -3  -9   8    3.75    2.23
  -3  -9   8   -4.69    3.06
  -3   9   8    5.77    3.32
  -3   9   8    6.98    3.53
   3   9  -8    2.78    3.89
  -2  -9   8   17.10    3.12
  -2  -9   8   15.64    4.08
  -2  -9   8   17.28    4.28
   2  -9  -8   20.57    4.14
   2   9  -8   16.42    4.49
  -2   9   8   11.06    3.82
  -2   9   8   16.75    4.22
  -1  -9   8    0.95    3.12
  -1  -9   8    1.75    3.10
   1  -9  -8    3.35    3.23
  -1  -9   8    1.52    2.52
  -1   9   8   -1.61    3.61
   1   9  -8   -0.82    3.58
   0  -9   8   -0.66    3.09
   0  -9   8    1.62    2.61
   0  -9   8    3.21    3.38
   0  -9  -8    0.21    2.86
   0   9   8   -0.18    3.59
   0   9  -8    2.44    3.93
   1  -9   8    2.15    3.48
   1  -9   8   -0.58    3.08
  -1  -9  -8    0.95    3.02
   1  -9   8   -1.28    2.70
  -1   9  -8    5.16    3.87
   1   9   8   -4.43    3.39
  -2  -9  -8    6.17    3.34
   2  -9   8    2.06    3.09
   2  -9   8    5.96    3.76
  -2   9  -8    7.17    4.77
   2   9   8    6.59    4.27
  -3  -9  -8   19.50    4.30
   3  -9   8   27.44    7.46
  -3   9  -8   23.72    6.28
   3   9   8   21.93    8.34
  -6 -10   8   -0.12    1.39
  -6  10   8  -10.62    2.83
  -5 -10   8   29.61    3.61
   5 -10  -8   34.57    5.45
  -5 -10   8   25.12    5.21
   5  10  -8   31.05    5.34
  -5  10   8   25.77    5.29
   5  10  -8   35.29    5.83
   4 -10  -8  154.30    9.50
  -4 -10   8  132.52    9.33
  -4 -10   8  123.41    7.09
   4  10  -8  139.14    9.98
   4  10  -8  143.23   10.47
  -4  10   8  128.10    9.84
   3 -10  -8   15.98    4.37
  -3 -10   8   18.00    4.44
  -3 -10   8   22.53    3.35
  -3  10   8   15.02    4.45
   3  10  -8   16.96    4.68
   3  10  -8   18.82    5.08
   2 -10  -8  131.84    8.97
  -2 -10   8  129.73    7.59
  -2 -10   8  110.66    9.06
  -2  10   8  102.28    8.69
  -2  10   8  117.97    8.96
   2  10  -8  127.28    9.00
  -1 -10   8   11.84    3.24
   1 -10  -8   11.00    3.96
  -1 -10   8    6.10    3.81
   1  10  -8   16.38    4.93
  -1  10   8    1.59    3.81
   0 -10   8   13.08    4.31
   0 -10   8   16.15    3.86
   0 -10  -8   20.41    4.48
   0  10   8   20.37    4.84
   0  10  -8   24.19    5.24
   1 -10   8   -2.90    2.87
  -1 -10  -8    4.47    3.63
   1 -10   8   -2.53    3.49
  -1  10  -8   -1.71    4.30
   1  10   8   -4.81    3.78
   2 -10   8   31.71    4.99
   3  11  -8    8.00    6.26
  -3  11   8    0.23    3.58
   2  11  -8    1.66    5.91
  -2  11   8   -3.23    5.85
  -1  11   8   -0.38    3.86
  11   0  -9    4.93    3.44
 -11   0   9    4.54    3.24
  10   0  -9    3.87    3.13
 -10   0   9    2.78    3.04
 -10   0   9    4.02    3.25
   9   0  -9    9.79    3.08
  -9   0   9    4.43    3.24
   8   0  -9    2.49    2.69
   8   0  -9   -3.57    2.04
  -8   0   9    0.88    2.92
   7   0  -9  350.52   15.36
   7   0  -9  340.36   14.08
  -7   0   9  356.49   15.21
  -7   0   9  338.57   14.22
   6   0  -9    0.35    1.67
  -6   0   9    1.55    2.73
   6   0  -9    1.87    2.67
  -6   0   9   -2.82    2.10
  -6   0   9    0.86    1.20
  -5   0   9  160.54    6.83
  -5   0   9  160.76    8.18
  -5   0   9  180.22    8.92
   5   0  -9  155.96    7.21
   5   0  -9  148.61    8.64
   4   0  -9    2.60    2.50
  -4   0   9   -1.36    1.50
  -4   0   9    1.30    2.30
  -4   0   9    0.83    2.46
   3   0  -9   17.50    3.25
  -3   0   9   12.95    2.86
  -3   0   9   19.04    3.19
  -3   0   9   18.86    2.58
  -2   0   9    1.75    2.36
   2   0  -9   -1.99    2.24
  -2   0   9   -0.70    2.26
  -2   0   9   -1.04    1.82
  -1   0   9  223.92   10.63
   1   0  -9  238.82   11.05
  -1   0   9  244.00   10.43
  -1   0   9  229.77   10.84
   0   0   9   -1.26    1.70
   0   0   9   -1.09    2.18
   0   0  -9    2.00    2.49
   0   0  -9    2.55    2.37
   0   0   9   -1.57    2.25
  -1   0  -9    2.78    2.51
   1   0   9    2.12    2.00
  -1   0  -9    4.84    3.02
   1   0   9    2.35    2.64
   1   0   9    3.46    2.59
   2   0   9   -1.09    2.48
  -2   0  -9    5.67    2.87
   2   0   9    3.54    2.30
  -2   0  -9   -2.36    2.16
   2   0   9   -4.44    2.29
   3   0   9   27.66    4.38
  -3   0  -9   22.49    4.17
   3   0   9   34.17    4.92
  -4   0  -9    0.25    3.08
   4   0   9   -1.55    2.40
   4   0   9   -1.87    2.55
   5   0   9    4.36    3.13
   5   0   9    6.71    3.27
  -5   0  -9    2.73    3.70
   6   0   9   -0.66    2.96
  -6   0  -9   -5.13    3.14
  11  -1  -9   -1.59    3.23
 -11  -1   9    4.60    3.44
  11   1  -9    1.81    3.03
 -11   1   9    4.56    3.52
  10  -1  -9  103.98    7.76
 -10  -1   9  109.80    7.88
 -10  -1   9  108.50    7.85
 -10   1   9  107.99    8.07
  10   1  -9  108.36    7.52
 -10   1   9  106.77    7.80
  -9  -1   9   39.51    5.24
   9  -1  -9   26.05    4.05
   9   1  -9   27.28    4.00
  -9   1   9   22.45    4.28
  -9   1   9   36.92    5.34
   8  -1  -9   -1.97    2.21
  -8  -1   9   -1.24    2.74
   8  -1  -9   -0.25    2.94
   8   1  -9   -0.80    2.51
  -8   1   9    3.90    3.01
  -8   1   9   -0.62    0.97
   8   1  -9   -1.67    1.96
  -7  -1   9  132.87    8.06
   7  -1  -9  126.13    7.14
  -7  -1   9  126.64    7.38
   7  -1  -9  143.25    8.47
  -7   1   9  139.74    8.22
   7   1  -9  120.22    6.73
  -7   1   9  130.22    5.56
   7   1  -9  133.09    8.05
  -7   1   9  138.22    9.89
  -6  -1   9    5.70    0.95
  -6  -1   9    5.61    2.98
   6  -1  -9    4.22    2.17
  -6  -1   9    4.26    0.97
   6  -1  -9    8.05    3.08
  -6  -1   9    8.86    2.78
  -6   1   9    6.58    1.65
   6   1  -9    6.18    2.68
  -6   1   9    3.06    2.94
  -6   1   9    3.38    2.48
   5  -1  -9   47.49    5.08
   5  -1  -9   43.99    3.81
  -5  -1   9   41.96    5.04
  -5  -1   9   47.75    3.11
  -5  -1   9   48.35    4.89
   5   1  -9   51.56    4.85
  -5   1   9   49.37    5.16
  -5   1   9   36.59    3.37
  -5   1   9   49.03    4.70
  -4  -1   9   19.21    3.53
  -4  -1   9   19.67    3.41
   4  -1  -9   16.47    3.27
   4  -1  -9   14.63    2.26
  -4  -1   9   16.80    2.15
   4   1  -9   17.93    3.13
  -4   1   9   22.46    3.65
  -4   1   9   17.04    3.09
  -4   1   9   23.31    3.10
   3  -1  -9   23.94    2.86
  -3  -1   9   28.19    4.11
  -3  -1   9   28.12    3.26
   3  -1  -9   37.48    4.61
  -3  -1   9   24.45    3.66
  -3   1   9   28.81    4.22
  -3   1   9   30.91    3.66
   3   1  -9   26.18    4.06
  -3   1   9   29.51    4.41
  -2  -1   9  173.16    7.82
  -2  -1   9  185.31    9.10
   2  -1  -9  184.87    9.03
  -2  -1   9  172.09    8.06
  -2  -1   9  182.54    8.84
   2   1  -9  185.69    9.15
  -2   1   9  162.08    8.84
  -2   1   9  181.31    8.92
  -2   1   9  169.45    8.24
  -1  -1   9    8.51    2.15
  -1  -1   9    4.25    2.54
  -1  -1   9    6.22    2.33
   1  -1  -9    6.65    2.85
  -1   1   9    0.85    2.20
  -1   1   9    4.49    2.23
   1   1  -9    7.72    2.86
   1   1  -9    3.90    2.67
  -1   1   9    0.28    2.27
   0  -1   9    1.89    1.95
   0  -1   9   -2.35    2.29
   0  -1  -9    0.01    2.48
   0  -1   9   -2.39    2.10
   0   1   9    0.32    2.29
   0   1   9   -2.22    1.98
   0   1  -9    2.38    2.48
   0   1  -9   -0.67    2.51
   0   1   9   -1.52    2.32
  -1  -1  -9   19.25    3.59
   1  -1   9   12.63    3.26
  -1  -1  -9   16.06    3.03
   1  -1   9   16.04    2.81
   1  -1   9   14.44    3.47
   1   1   9   20.75    3.53
  -1   1  -9   28.53    4.06
  -1   1  -9   18.49    3.36
   1   1   9   22.66    3.84
   2  -1   9    2.07    2.76
   2  -1   9   -0.96    2.06
  -2  -1  -9    5.57    2.98
   2  -1   9    1.60    2.60
   2   1   9   -1.98    2.67
   2   1   9    1.04    2.75
  -2   1  -9   -0.12    2.38
  -2   1  -9    4.63    2.67
   2   1   9   -0.95    1.97
   3  -1   9   14.01    3.13
   3  -1   9   15.23    3.53
  -3  -1  -9    8.90    3.52
   3   1   9    6.63    3.22
   3   1   9   11.53    2.98
  -3   1  -9   12.72    3.56
   4  -1   9   -0.56    2.58
   4  -1   9   -0.55    2.56
  -4  -1  -9   -0.70    2.96
   4   1   9    2.11    2.51
  -4   1  -9    0.94    3.30
   4   1   9   -2.58    2.77
   5  -1   9   -0.01    2.78
   5  -1   9   -5.09    3.30
  -5  -1  -9   -3.94    3.12
   5   1   9    3.18    3.12
   5   1   9    1.82    3.11
  -5   1  -9   -3.39    3.19
   6  -1   9   71.42    7.10
  -6  -1  -9   79.48    8.10
  -6   1  -9   72.26    8.43
   6   1   9   86.45    7.57
 -11  -2   9    1.88    3.09
  11  -2  -9    0.36    3.37
  11   2  -9   10.56    3.54
 -11   2   9    3.36    3.59
 -11   2   9   11.82    5.47
  10  -2  -9   12.24    3.52
 -10   2   9   12.80    3.73
  10   2  -9   15.29    3.49
 -10   2   9   11.19    4.00
  -9  -2   9   24.96    4.03
   9  -2  -9   25.63    4.21
   9   2  -9   34.73    5.22
   9   2  -9   25.05    3.94
  -9   2   9   21.46    4.07
  -9   2   9   23.77    2.42
  -9   2   9   13.16    3.79
   8  -2  -9    5.72    2.99
  -8  -2   9   10.40    3.02
  -8  -2   9    3.08    3.00
   8  -2  -9    4.69    2.58
   8   2  -9    7.23    2.83
  -8   2   9    5.41    1.59
  -8   2   9    0.45    3.09
   7  -2  -9    5.71    2.45
  -7  -2   9    3.94    2.72
   7  -2  -9    5.34    3.01
  -7  -2   9    1.77    2.84
  -7   2   9    2.92    2.89
  -7   2   9    5.72    1.73
   7   2  -9    4.39    2.66
  -6  -2   9   21.09    3.54
  -6  -2   9   24.65    3.90
   6  -2  -9   32.95    4.89
   6  -2  -9   25.40    3.70
  -6   2   9   18.48    3.63
  -6   2   9   26.13    3.84
  -6   2   9   23.88    3.02
   6   2  -9   18.62    3.26
   5  -2  -9    7.52    2.24
  -5  -2   9    4.78    2.67
   5  -2  -9    5.45    2.96
  -5  -2   9    7.55    1.34
  -5  -2   9    6.48    2.90
  -5  -2   9    6.33    1.37
  -5   2   9    7.64    2.02
  -5   2   9    6.10    2.89
   5   2  -9    4.80    2.46
  -5   2   9    4.14    2.32
  -4  -2   9  467.78   17.17
   4  -2  -9  476.39   17.85
  -4  -2   9  484.74   19.05
  -4  -2   9  481.59   18.52
  -4  -2   9  481.90   18.75
   4  -2  -9  476.02   19.02
  -4   2   9  472.51   18.94
  -4   2   9  446.84   17.70
  -4   2   9  459.48   18.43
   4   2  -9  482.23   18.65
  -3  -2   9   39.20    4.79
  -3  -2   9   41.90    3.83
   3  -2  -9   38.35    3.65
  -3  -2   9   46.95    3.68
   3  -2  -9   57.28    5.21
  -3   2   9   42.55    4.12
  -3   2   9   40.55    4.73
   3   2  -9   55.37    4.87
  -3   2   9   40.59    4.48
   2  -2  -9   13.30    3.14
   2  -2  -9   16.43    2.36
  -2  -2   9   17.14    2.65
  -2  -2   9    8.77    2.74
  -2  -2   9   15.72    2.47
  -2   2   9   14.12    3.14
   2   2  -9   21.95    3.43
  -2   2   9   14.13    2.70
   2   2  -9    9.32    2.79
  -2   2   9   26.69    4.16
   1  -2  -9    0.73    2.30
  -1  -2   9    1.63    1.92
  -1  -2   9   -0.50    2.11
   1  -2  -9    1.64    1.66
  -1  -2   9   -2.13    2.34
   1   2  -9   -1.08    2.58
  -1   2   9   -0.65    2.16
  -1   2   9   -3.05    2.01
  -1   2   9   -3.26    2.46
   1   2  -9   -1.66    2.15
   0  -2   9  192.34   10.20
   0  -2   9  210.21   10.00
   0  -2   9  211.82    9.61
   0  -2  -9  220.65   10.49
   0   2  -9  219.92   10.46
   0   2   9  200.58   10.19
   0   2  -9  238.47   10.54
   0   2   9  222.59    9.88
   0   2   9  211.25   10.18
   1  -2   9   13.40    3.38
  -1  -2  -9    8.92    3.07
   1  -2   9    3.83    2.62
   1  -2   9    5.62    2.40
  -1   2  -9    5.19    2.90
   1   2   9    6.95    2.98
   1   2   9    8.82    2.56
  -1   2  -9    6.23    3.11
   1   2   9    2.81    2.77
   2  -2   9  131.12    7.76
   2  -2   9  128.81    7.89
  -2  -2  -9  126.11    8.11
   2  -2   9  129.96    7.53
  -2   2  -9  123.47    7.64
   2   2   9  135.63    8.14
  -2   2  -9  125.61    8.27
   2   2   9  117.27    7.98
  -3  -2  -9   -1.72    2.72
   3  -2   9   -1.33    2.40
   3  -2   9    1.86    4.27
   3  -2   9   -0.09    2.56
  -3   2  -9   -1.57    2.72
   3   2   9   -4.05    2.80
   3   2   9    2.06    2.86
  -3   2  -9    3.18    3.09
   4  -2   9   86.87    6.81
   4  -2   9   92.39    6.87
  -4  -2  -9   82.11    7.14
   4   2   9   90.95    7.48
  -4   2  -9   89.04    7.89
   4   2   9   77.83    6.46
   5  -2   9   22.35    4.27
  -5  -2  -9   25.54    4.85
   5   2   9   22.06    4.43
  -5   2  -9   20.63    4.78
   5   2   9   23.55    4.21
  -6  -2  -9    7.93    4.18
   6  -2   9    9.95    3.83
   6   2   9    7.73    3.69
   6   2   9    7.60    3.85
  -6   2  -9    5.63    4.11
  11  -3  -9   22.63    4.52
 -11   3   9   21.38    2.49
 -11   3   9   26.78    4.88
  10  -3  -9   -0.05    2.71
 -10   3   9    0.21    2.91
  10   3  -9   -2.25    2.52
 -10   3   9    0.91    1.52
 -10   3   9    1.85    3.23
   9  -3  -9   10.98    3.23
  -9  -3   9    1.16    2.83
   9   3  -9    1.85    2.37
  -9   3   9    3.45    3.22
  -9   3   9    2.12    3.01
  -9   3   9    2.51    1.76
  -8  -3   9    1.69    2.74
  -8  -3   9    1.21    2.86
   8  -3  -9    3.89    2.69
   8  -3  -9    7.81    3.64
  -8   3   9    3.19    1.82
   8   3  -9    3.22    2.45
  -8   3   9    6.85    3.33
  -7  -3   9   18.79    3.55
   7  -3  -9   19.85    4.14
  -7  -3   9   15.75    3.70
   7  -3  -9   18.95    3.23
  -7   3   9   13.89    2.30
   7   3  -9   17.08    3.12
  -7   3   9   13.50    3.49
   6  -3  -9   -0.87    2.56
   6  -3  -9    0.83    2.23
  -6  -3   9    2.75    2.83
  -6  -3   9    0.80    2.54
  -6   3   9    4.57    2.38
  -6   3   9    0.85    1.77
   6   3  -9    1.07    2.05
  -6   3   9   -2.69    2.71
   5  -3  -9  123.38    6.76
  -5  -3   9  116.36    7.30
  -5  -3   9  115.20    6.55
  -5  -3   9  129.09    5.02
   5  -3  -9  116.96    7.63
  -5   3   9  120.02    6.90
  -5   3   9  121.28    6.34
  -5   3   9  122.41    7.66
   5   3  -9  125.15    7.01
   4  -3  -9   12.65    3.22
  -4  -3   9    7.05    2.26
   4  -3  -9    8.26    2.38
  -4  -3   9   13.50    3.21
  -4  -3   9    8.78    1.77
   4   3  -9   10.40    2.60
   4   3  -9   14.76    3.37
  -4   3   9    7.79    2.76
  -4   3   9    8.50    2.76
  -4   3   9   13.95    2.57
  -3  -3   9  136.00    7.01
   3  -3  -9  126.11    7.79
  -3  -3   9  130.61    7.79
   3  -3  -9  146.85    6.98
  -3  -3   9  138.22    6.45
  -3   3   9  133.61    7.20
   3   3  -9  141.92    8.13
  -3   3   9  140.60    7.82
  -3   3   9  125.33    7.71
   3   3  -9  139.16    7.41
  -2  -3   9    9.77    2.85
   2  -3  -9   16.39    3.16
  -2  -3   9   10.41    2.38
  -2  -3   9    7.39    2.31
   2  -3  -9    9.26    2.24
  -2   3   9   13.12    3.03
   2   3  -9    8.70    2.69
  -2   3   9    6.46    2.85
  -2   3   9   10.40    2.70
   2   3  -9    6.64    3.26
  -1  -3   9  375.49   15.15
   1  -3  -9  385.17   15.94
  -1  -3   9  381.16   15.18
   1  -3  -9  382.73   14.79
  -1  -3   9  356.26   15.76
   1   3  -9  385.34   16.16
  -1   3   9  386.77   15.60
   1   3  -9  388.00   15.68
  -1   3   9  387.63   15.54
  -1   3   9  372.31   15.98
   0  -3   9   20.90    3.70
   0  -3   9   14.65    2.87
   0  -3  -9   18.07    2.64
   0  -3   9   16.07    3.11
   0  -3  -9   11.79    3.20
   0   3   9   11.58    2.74
   0   3  -9   12.71    3.26
   0   3  -9   19.59    3.50
   0   3   9   13.01    3.44
   0   3   9   15.36    3.03
   1  -3   9  279.21   13.01
   1  -3   9  280.05   12.60
  -1  -3  -9  282.37   13.21
  -1  -3  -9  287.17   11.93
   1  -3   9  272.11   12.71
   1   3   9  315.14   13.67
  -1   3  -9  294.60   13.29
  -1   3  -9  306.60   13.28
   1   3   9  297.93   13.14
   1   3   9  302.24   12.34
   2  -3   9   89.10    6.78
  -2  -3  -9   83.99    6.87
   2  -3   9   82.75    6.40
   2  -3   9   84.90    6.62
  -2   3  -9   83.69    6.69
   2   3   9   91.01    7.08
  -2   3  -9   88.89    6.74
   3  -3   9   -2.37    2.48
   3  -3   9    1.71    2.69
   3  -3   9    2.31    3.16
  -3  -3  -9    0.22    2.89
   3   3   9   -2.45    2.83
  -3   3  -9   -3.39    2.88
  -3   3  -9    1.90    2.88
   4  -3   9   90.45    7.07
  -4  -3  -9   74.84    7.34
   4  -3   9   74.71    6.47
   4   3   9   84.69    7.22
  -4   3  -9   78.74    7.42
   5  -3   9    9.75    3.67
  -5  -3  -9    0.60    3.40
  -5   3  -9    4.28    3.59
   5   3   9    8.18    3.79
   6  -3   9   10.29    4.08
  -6  -3  -9   10.35    4.33
   6   3   9    2.30    3.67
  -6   3  -9    7.44    4.42
  10  -4  -9   34.22    4.94
 -10   4   9   27.26    3.56
 -10   4   9   24.05    4.74
 -10   4   9   30.75    4.87
   9  -4  -9   48.92    5.59
  -9   4   9   37.71    5.91
   9   4  -9   42.84    6.06
  -9   4   9   38.03    3.96
  -8  -4   9   10.97    3.53
   8  -4  -9    6.61    3.02
   8  -4  -9   12.46    3.82
  -8   4   9    8.56    3.47
   8   4  -9   13.43    3.45
  -8   4   9   12.75    2.53
  -7  -4   9   14.64    3.47
  -7  -4   9   15.51    3.25
   7  -4  -9   20.02    4.20
   7  -4  -9   12.58    3.16
  -7   4   9    7.36    3.35
  -7   4   9    9.05    2.39
   7   4  -9   16.58    2.90
   7   4  -9   10.01    3.41
  -6  -4   9   -1.30    2.63
   6  -4  -9    0.59    2.13
   6  -4  -9   -3.12    2.41
  -6  -4   9    5.53    2.55
  -6   4   9    1.25    2.90
  -6   4   9    1.81    2.10
   6   4  -9    1.25    2.86
   6   4  -9    0.58    2.02
   5  -4  -9   67.79    5.90
   5  -4  -9   57.87    5.06
  -5  -4   9   60.69    5.62
  -5  -4   9   53.14    3.42
  -5  -4   9   53.79    2.87
  -5  -4   9   52.77    4.92
  -5   4   9   49.39    4.84
   5   4  -9   61.79    5.93
  -5   4   9   52.41    5.57
   5   4  -9   50.41    4.52
  -5   4   9   48.80    4.55
  -4  -4   9   47.82    5.26
   4  -4  -9   46.61    4.42
  -4  -4   9   48.51    3.37
   4  -4  -9   51.05    5.41
  -4  -4   9   52.76    4.69
  -4   4   9   48.53    4.58
  -4   4   9   47.72    5.36
  -4   4   9   46.97    4.77
   4   4  -9   47.61    5.80
   4   4  -9   44.07    4.30
   3  -4  -9   20.15    3.03
  -3  -4   9   14.68    2.91
   3  -4  -9   19.18    3.67
  -3  -4   9   16.10    2.37
  -3  -4   9   19.87    3.57
   3   4  -9   16.04    2.89
   3   4  -9   22.44    4.10
  -3   4   9   19.57    3.17
  -3   4   9   15.39    3.29
  -3   4   9   17.45    3.41
  -2  -4   9   89.54    5.68
  -2  -4   9   67.29    4.80
  -2  -4   9   77.19    6.05
   2  -4  -9   72.58    5.08
   2  -4  -9   69.26    6.13
  -2   4   9   72.58    5.75
   2   4  -9   74.71    6.53
  -2   4   9   82.46    5.86
  -2   4   9   70.56    6.10
   2   4  -9   81.15    5.51
   1  -4  -9  168.23    8.17
  -1  -4   9  166.65    8.23
   1  -4  -9  173.62    9.03
  -1  -4   9  172.36    8.99
  -1  -4   9  155.59    8.46
   1   4  -9  167.58    8.60
  -1   4   9  156.34    8.76
   1   4  -9  184.18    9.57
  -1   4   9  164.67    8.64
  -1   4   9  170.88    9.26
   0  -4   9  249.25   11.62
   0  -4  -9  264.75   12.36
   0  -4   9  273.14   12.20
   0  -4  -9  250.59   11.25
   0  -4   9  271.00   12.03
   0   4  -9  271.22   12.09
   0   4   9  276.59   12.69
   0   4   9  260.05   12.23
   0   4   9  262.29   11.64
   0   4  -9  286.28   12.88
   1  -4   9  243.25   11.12
  -1  -4  -9  231.87   11.61
   1  -4   9  225.28   11.33
   1  -4   9  241.94   11.14
  -1  -4  -9  248.94   10.62
   1   4   9  228.57   11.34
   1   4   9  230.01   11.77
  -1   4  -9  238.96   11.47
  -1   4  -9  236.71   11.56
   2  -4   9   48.86    5.61
  -2  -4  -9   49.40    6.08
   2  -4   9   62.84    5.69
   2  -4   9   45.64    5.59
  -2  -4  -9   41.51    4.44
  -2   4  -9   47.90    5.76
  -2   4  -9   47.41    5.34
   2   4   9   50.64    6.04
   3  -4   9   51.88    6.06
   3  -4   9   55.71    6.05
  -3  -4  -9   52.95    6.14
   3  -4   9   55.10    5.64
  -3   4  -9   52.66    6.12
  -3   4  -9   61.36    6.53
   3   4   9   66.35    6.65
   4  -4   9   17.90    4.04
  -4  -4  -9   21.35    4.41
   4   4   9   17.15    4.21
  -4   4  -9   20.92    4.41
  -5  -4  -9    4.76    3.83
   5  -4   9    6.35    3.53
  -5   4  -9    2.93    3.70
   5   4   9    6.69    3.73
  -6  -4  -9   -0.37    3.62
   6  -4   9    1.90    5.76
  -6   4  -9    1.42    4.00
   6   4   9    7.05    4.21
  10  -5  -9   19.75    4.50
 -10   5   9   15.80    6.06
 -10   5   9    7.15    4.13
   9  -5  -9    5.14    3.32
  -9   5   9   -0.80    2.12
  -9   5   9   -1.00    3.36
   9   5  -9    4.77    3.26
   8  -5  -9    1.28    2.76
  -8  -5   9    2.76    3.32
  -8  -5   9    3.32    2.98
   8  -5  -9    5.23    3.20
   8   5  -9    0.13    2.78
  -8   5   9   -2.00    3.13
  -8   5   9   -1.97    1.99
  -7  -5   9   -4.14    2.44
  -7  -5   9    1.61    2.60
   7  -5  -9   -2.99    2.75
   7  -5  -9    0.24    2.49
  -7   5   9   -2.64    2.03
  -7   5   9   -1.19    3.05
   7   5  -9   -0.51    2.76
  -6  -5   9   15.09    3.27
   6  -5  -9   14.02    3.69
  -6  -5   9   10.11    3.37
   6  -5  -9   12.02    3.18
   6   5  -9   14.79    3.72
  -6   5   9    9.12    2.66
  -6   5   9   15.24    3.93
   5  -5  -9   41.03    4.85
  -5  -5   9   46.15    4.75
  -5  -5   9   39.35    2.57
  -5  -5   9   36.18    4.83
   5  -5  -9   36.87    5.46
   5   5  -9   38.56    5.89
  -5   5   9   30.97    4.47
  -5   5   9   37.84    4.59
  -5   5   9   42.24    5.42
  -4  -5   9   42.51    3.31
   4  -5  -9   39.57    5.48
   4  -5  -9   39.99    4.73
  -4  -5   9   32.95    5.07
  -4  -5   9   44.24    4.92
  -4   5   9   37.32    4.71
  -4   5   9   54.23    5.63
  -4   5   9   40.07    4.90
   4   5  -9   50.16    5.81
  -3  -5   9   13.22    3.03
   3  -5  -9    4.07    2.63
  -3  -5   9    7.61    3.02
  -3  -5   9    8.73    2.17
   3  -5  -9   10.58    3.17
  -3   5   9   13.27    3.28
  -3   5   9    6.95    3.10
   3   5  -9   14.87    2.79
   3   5  -9   11.49    3.59
  -3   5   9   13.17    2.94
  -2  -5   9   42.31    4.86
  -2  -5   9   37.53    5.03
   2  -5  -9   32.79    4.34
   2  -5  -9   34.85    4.92
  -2  -5   9   49.31    4.21
  -2   5   9   41.27    5.22
   2   5  -9   37.76    4.37
   2   5  -9   41.16    5.72
  -2   5   9   41.79    5.10
  -2   5   9   40.96    4.84
   1  -5  -9   60.49    5.45
  -1  -5   9   46.82    4.88
   1  -5  -9   47.29    4.67
  -1  -5   9   45.01    5.25
  -1  -5   9   45.21    4.50
   1   5  -9   46.89    6.00
   1   5  -9   39.25    4.63
  -1   5   9   43.85    5.64
  -1   5   9   40.92    5.16
  -1   5   9   49.87    5.12
   0  -5  -9  150.79    8.19
   0  -5   9  159.62    8.34
   0  -5   9  159.80    8.82
   0  -5   9  156.09    8.87
   0  -5  -9  170.14    9.06
   0   5   9  151.77    8.91
   0   5   9  164.57    8.41
   0   5   9  162.44    9.44
   0   5  -9  158.74    8.53
   0   5  -9  185.88    9.67
   1  -5   9   45.76    5.23
   1  -5   9   49.28    5.33
   1  -5   9   50.72    5.47
  -1  -5  -9   54.04    5.92
  -1  -5  -9   51.36    5.07
   1   5   9   56.52    6.29
  -1   5  -9   53.95    5.35
  -1   5  -9   45.64    6.05
   2  -5   9   38.10    5.30
  -2  -5  -9   30.84    4.63
  -2  -5  -9   31.51    4.45
   2  -5   9   33.40    5.06
   2  -5   9   36.67    5.18
  -2   5  -9   32.63    4.82
   2   5   9   31.51    4.87
  -2   5  -9   29.16    4.39
  -3  -5  -9   71.19    5.98
   3  -5   9   80.95    6.43
  -3  -5  -9   90.90    7.29
   3  -5   9   72.09    6.78
   3  -5   9   78.88    7.69
   3   5   9   78.99    7.40
  -3   5  -9   71.68    6.89
  -3   5  -9   69.93    7.74
   4  -5   9   -0.22    3.06
  -4  -5  -9    5.23    3.61
  -4  -5  -9    8.25    3.78
   4   5   9    2.41    3.72
  -4   5  -9    6.51    3.75
  -4   5  -9    9.36    3.90
   5  -5   9   20.72    4.81
  -5  -5  -9   13.18    4.42
  -5   5  -9   25.12    4.95
   5   5   9   20.34    4.97
   9  -6  -9   14.48    4.09
  -9  -6   9   16.09    4.23
   9  -6  -9   13.21    4.41
  -9   6   9   10.41    4.33
   9   6  -9    8.22    3.92
  -9   6   9   12.20    3.07
   8  -6  -9   18.15    4.01
  -8  -6   9   17.36    3.93
   8  -6  -9   24.58    4.73
  -8   6   9   18.57    4.66
  -8   6   9   18.39    3.32
   8   6  -9   17.08    4.11
   7  -6  -9   14.05    3.75
  -7  -6   9   15.14    4.12
   7  -6  -9   15.81    4.05
  -7  -6   9   15.49    3.78
  -7   6   9   12.38    3.96
   7   6  -9   20.46    4.17
  -7   6   9   17.41    3.28
   6  -6  -9   -0.46    2.46
   6  -6  -9    1.51    2.94
  -6  -6   9    0.51    2.82
  -6  -6   9    8.46    3.51
  -6   6   9    6.96    2.69
   6   6  -9    4.73    3.20
  -6   6   9    2.75    3.34
  -5  -6   9   -1.87    2.85
  -5  -6   9    6.82    2.99
  -5  -6   9    5.88    1.43
   5  -6  -9    2.77    2.85
   5  -6  -9    7.63    3.29
  -5   6   9    4.54    3.42
  -5   6   9    5.71    2.65
   5   6  -9    5.80    3.58
   4  -6  -9    8.77    3.20
  -4  -6   9   10.83    3.16
  -4  -6   9    9.77    2.00
   4  -6  -9   11.08    3.20
  -4  -6   9    8.09    3.21
  -4   6   9   12.50    3.20
  -4   6   9   11.74    3.69
   4   6  -9    7.86    3.62
  -4   6   9   10.17    3.04
  -3  -6   9   31.92    5.11
  -3  -6   9   41.31    5.24
  -3  -6   9   31.90    3.76
   3  -6  -9   46.91    5.45
   3  -6  -9   42.24    4.69
  -3   6   9   36.54    5.33
   3   6  -9   50.48    6.20
  -3   6   9   50.93    5.50
  -3   6   9   39.89    5.19
   2  -6  -9   36.13    4.91
  -2  -6   9   38.22    5.22
   2  -6  -9   30.78    4.52
  -2  -6   9   34.22    5.09
  -2  -6   9   32.73    3.99
  -2   6   9   34.63    5.08
   2   6  -9   36.55    5.14
  -2   6   9   41.12    5.25
  -2   6   9   32.32    5.10
  -1  -6   9   11.26    3.17
   1  -6  -9   15.98    3.51
  -1  -6   9   18.09    3.56
   1  -6  -9   17.90    3.30
  -1  -6   9   17.47    2.96
   1   6  -9   19.74    4.23
  -1   6   9   17.79    4.06
  -1   6   9   17.46    3.76
  -1   6   9   20.33    3.48
   0  -6   9    3.88    2.52
   0  -6  -9    0.42    2.59
   0  -6   9    1.52    2.77
   0  -6   9    4.33    2.75
   0  -6  -9    3.33    2.46
   0   6   9    8.63    3.48
   0   6  -9   -3.11    3.26
  -1  -6  -9    8.06    3.25
   1  -6   9   10.36    3.15
   1  -6   9    4.43    3.14
  -1  -6  -9    5.31    2.90
   1  -6   9    7.46    3.15
  -1   6  -9    5.59    3.29
  -1   6  -9    3.19    3.41
   1   6   9    9.47    3.58
   2  -6   9    0.66    3.11
  -2  -6  -9    0.48    2.55
   2  -6   9    5.51    3.01
  -2  -6  -9    2.81    3.10
   2  -6   9    2.70    2.74
  -2   6  -9   -0.78    2.72
  -2   6  -9   -1.58    3.33
   2   6   9   -1.63    3.28
  -3  -6  -9    8.33    3.79
   3  -6   9    4.97    3.34
  -3  -6  -9    1.82    2.76
  -3   6  -9   11.81    4.62
  -3   6  -9    4.72    3.37
   3   6   9    0.36    3.58
   4  -6   9    0.15    3.22
  -4  -6  -9    0.32    2.99
  -4  -6  -9    1.19    3.15
   4   6   9   -1.31    3.65
  -4   6  -9   -1.12    3.16
  -4   6  -9   15.14    4.82
  -5  -6  -9   17.50    4.54
  -5   6  -9   24.10    4.85
   5   6   9   14.12    5.71
  -9  -7   9   30.89    5.20
   9  -7  -9   33.41    7.10
   9   7  -9   25.95    5.32
   8  -7  -9   18.51    4.58
  -8  -7   9   15.83    4.17
   8  -7  -9   26.20    4.74
  -8   7   9   22.18    4.94
  -8   7   9   22.93    3.83
   8   7  -9   27.24    5.13
   7  -7  -9    3.35    3.54
  -7  -7   9    9.50    3.55
   7  -7  -9   -3.07    3.07
  -7   7   9   -2.50    2.37
  -7   7   9   -2.62    3.41
   7   7  -9   -3.81    3.04
  -6  -7   9    6.95    3.30
   6  -7  -9    5.74    3.29
  -6  -7   9    2.63    3.44
   6  -7  -9    6.60    3.40
  -6   7   9    3.09    2.76
   6   7  -9    4.59    3.69
  -6   7   9    2.37    3.68
  -5  -7   9   53.44    6.06
  -5  -7   9   54.23    5.67
   5  -7  -9   44.08    5.42
  -5  -7   9   43.21    3.13
   5  -7  -9   33.70    4.83
  -5   7   9   33.94    5.25
  -5   7   9   31.36    5.11
   5   7  -9   36.59    5.42
   4  -7  -9   24.04    3.95
  -4  -7   9   19.67    3.92
  -4  -7   9   23.41    4.27
  -4  -7   9   28.97    3.32
   4  -7  -9   31.71    4.51
   4   7  -9   28.27    4.75
  -4   7   9   25.00    4.04
  -4   7   9   33.75    4.87
  -4   7   9   26.02    4.02
   3  -7  -9  105.95    7.31
  -3  -7   9  101.03    7.52
  -3  -7   9   96.74    7.19
  -3  -7   9  106.17    5.92
   3  -7  -9  108.91    7.30
  -3   7   9  107.91    7.40
  -3   7   9  104.07    7.52
  -3   7   9  102.81    7.79
   3   7  -9   98.33    8.04
   2  -7  -9   81.37    6.24
   2  -7  -9   85.46    6.66
  -2  -7   9   77.76    5.44
  -2  -7   9   73.44    6.42
  -2  -7   9   81.35    6.82
  -2   7   9   86.36    6.62
  -2   7   9   72.20    6.92
  -2   7   9   76.84    6.78
   2   7  -9   72.48    7.29
   1  -7  -9   75.85    6.05
  -1  -7   9   69.31    5.65
  -1  -7   9   72.53    6.47
   1  -7  -9   71.63    6.33
  -1  -7   9   66.16    6.19
  -1   7   9   76.29    6.27
  -1   7   9   73.61    6.74
   1   7  -9   64.76    7.14
   0  -7  -9   -2.37    2.48
   0  -7  -9    2.28    2.88
   0  -7   9   -1.28    2.69
   0  -7   9   -1.03    2.32
   0  -7   9   -3.16    2.61
   0   7  -9   -4.08    3.30
   0   7   9    3.08    3.49
  -1  -7  -9   16.16    3.67
   1  -7   9   20.11    4.03
   1  -7   9   16.33    3.45
  -1  -7  -9   16.20    3.88
   1  -7   9   15.36    3.82
   1   7   9   22.77    4.60
  -1   7  -9    8.48    4.26
  -2  -7  -9    8.99    3.54
   2  -7   9   22.66    4.10
   2  -7   9   15.30    4.09
  -2  -7  -9   24.31    4.12
   2  -7   9   25.78    4.25
   2   7   9   15.20    4.59
  -2   7  -9   16.24    5.06
  -3  -7  -9    2.06    2.98
   3  -7   9    5.89    3.58
   3   7   9    2.02    3.73
  -3   7  -9   25.55    5.59
  -4  -7  -9    8.22    3.58
   4  -7   9   12.81    4.29
   4   7   9   15.02    4.88
  -4   7  -9   23.83    5.82
  -8  -8   9    2.34    3.69
   8  -8  -9   14.95    4.47
   8   8  -9    7.50    4.35
   7  -8  -9   13.85    4.06
  -7  -8   9   13.04    4.06
   7  -8  -9    9.77    3.88
  -7   8   9    7.22    3.33
   7   8  -9    7.52    4.09
   7   8  -9    2.25    3.70
  -7   8   9   14.32    4.77
  -6  -8   9   52.10    6.37
   6  -8  -9   63.46    6.71
   6  -8  -9   67.43    6.78
  -6   8   9   64.43    6.41
   6   8  -9   60.68    7.47
  -6   8   9   68.15    7.37
  -5  -8   9   17.66    2.20
  -5  -8   9   24.65    4.64
   5  -8  -9   18.71    4.33
   5  -8  -9   22.01    4.20
  -5  -8   9   22.22    4.41
  -5   8   9   17.22    3.76
  -5   8   9   14.48    4.38
   5   8  -9   18.27    4.75
  -4  -8   9   15.60    2.62
  -4  -8   9   20.83    4.22
  -4  -8   9   22.47    4.46
   4  -8  -9   17.52    4.01
   4  -8  -9   21.64    4.26
  -4   8   9   20.48    4.00
   4   8  -9   15.36    4.65
  -4   8   9   18.98    4.41
  -3  -8   9    1.53    3.27
  -3  -8   9    3.57    2.10
   3  -8  -9   -0.85    2.60
  -3  -8   9    1.40    3.14
   3  -8  -9   -0.98    2.83
   3   8  -9   -0.36    3.64
  -3   8   9    6.63    3.38
  -3   8   9    5.81    3.26
  -3   8   9    3.23    3.52
  -2  -8   9   39.18    4.49
   2  -8  -9   34.15    4.70
  -2  -8   9   35.70    5.14
  -2  -8   9   35.78    5.38
   2  -8  -9   38.07    5.57
   2   8  -9   27.56    5.21
  -2   8   9   31.90    4.75
  -2   8   9   41.90    6.00
  -1  -8   9    7.74    3.42
  -1  -8   9    0.82    2.48
   1  -8  -9    0.80    2.88
  -1  -8   9    4.27    3.21
  -1   8   9    1.66    3.36
   1   8  -9   -1.88    3.72
   0  -8   9   55.44    6.23
   0  -8   9   51.60    6.13
   0  -8   9   43.54    5.43
   0  -8  -9   48.70    5.99
   0   8  -9   46.58    7.51
   0   8   9   48.53    6.93
   1  -8   9   36.08    5.73
   1  -8   9   28.13    4.71
   1  -8   9   32.96    4.60
  -1  -8  -9   39.98    5.89
   1   8   9   38.94    5.80
  -1   8  -9   28.68    5.54
  -2  -8  -9    1.10    3.01
   2  -8   9    2.77    3.07
   2  -8   9    3.35    3.58
  -2   8  -9    0.71    4.31
   2   8   9   -3.48    3.49
   3  -8   9    8.28    4.18
  -3  -8  -9    3.57    3.18
   3   8   9    5.63    6.57
  -3   8  -9   19.47    5.69
   7  -9  -9    2.60    5.60
  -6  -9   9   18.65    4.58
   6  -9  -9   25.33    4.93
   6   9  -9   13.93    4.74
  -6   9   9   19.49    4.96
   6   9  -9   23.69    5.48
  -6   9   9   20.93    4.30
  -5  -9   9   26.89    3.32
   5  -9  -9   19.35    4.62
  -5  -9   9   28.88    5.00
   5   9  -9   36.29    5.95
  -5   9   9   28.36    5.45
  -5   9   9   25.71    4.69
  -4  -9   9    1.04    1.91
   4  -9  -9   -1.44    3.18
  -4  -9   9    2.16    3.16
  -4  -9   9   -1.88    3.59
   4   9  -9    3.94    4.34
  -4   9   9   -2.50    3.02
  -4   9   9   -5.04    3.37
  -3  -9   9    4.31    2.37
  -3  -9   9   -0.29    3.15
   3  -9  -9   -3.66    2.65
  -3  -9   9   -2.27    3.06
  -3   9   9   -1.48    3.53
  -3   9   9    3.27    3.25
   3   9  -9    4.84    4.07
  -2  -9   9   20.12    3.43
  -2  -9   9   24.55    4.69
   2  -9  -9   23.97    4.47
  -2  -9   9   25.93    4.77
   2   9  -9   26.15    5.37
  -2   9   9   22.24    4.46
  -2   9   9   24.92    4.70
   1  -9  -9   -0.07    2.99
  -1  -9   9   -4.21    2.98
  -1  -9   9    3.85    2.70
  -1  -9   9    1.44    3.35
  -1   9   9   -6.26    3.07
   1   9  -9    1.59    3.91
   0  -9   9   10.46    3.33
   0  -9   9   15.64    4.13
   0  -9  -9   11.48    3.63
   0  -9   9    5.91    3.52
   0   9  -9    9.48    4.71
   0   9   9   11.35    4.30
   1  -9   9    8.87    3.96
  -1  -9  -9    7.57    3.68
   1  -9   9    7.74    3.29
   1  -9   9    8.23    3.69
  -1   9  -9    1.58    4.03
   1   9   9    3.32    4.05
  -2  -9  -9    1.16    3.38
   2  -9   9    0.20    3.13
   5  10  -9   58.20    7.81
   4 -10  -9    0.46    3.84
  -4 -10   9    0.85    3.79
   4  10  -9   -2.14    3.83
  -4  10   9    1.51    3.99
  -3 -10   9   37.25    5.59
  -3 -10   9   29.78    5.24
   3 -10  -9   37.70    5.44
  -3  10   9   28.01    5.35
   3  10  -9   31.73    5.69
  -2 -10   9    2.72    2.67
   2 -10  -9    3.75    3.38
  -2 -10   9   -1.97    3.45
  -2  10   9    1.58    3.63
   2  10  -9    4.44    4.45
  -1 -10   9   14.92    4.66
  -1 -10   9    8.41    3.28
  -1 -10   9   14.81    4.64
   1 -10  -9   25.80    4.88
  -1  10   9   13.79    4.57
   0 -10   9    6.56    3.52
   0 -10  -9   -3.05    5.13
   0 -10   9   -2.73    3.50
   0  10   9   -1.54    4.81
  11   0 -10   -0.05    3.25
  10   0 -10    4.09    3.24
 -10   0  10    8.23    3.67
  10   0 -10   15.47    4.34
   9   0 -10    0.78    3.15
  -9   0  10   -3.71    2.74
   9   0 -10   -1.34    3.92
   8   0 -10   10.25    3.31
  -8   0  10   13.64    3.79
  -7   0  10   -1.09    0.95
  -7   0  10    2.93    2.50
   7   0 -10    0.47    2.60
  -7   0  10   -2.69    2.75
  -6   0  10   16.70    2.41
  -6   0  10    9.22    3.43
   6   0 -10   14.94    3.60
  -6   0  10   11.15    2.98
  -5   0  10    1.89    2.85
  -5   0  10   -1.29    1.48
  -5   0  10   -1.73    2.40
   5   0 -10    1.17    2.69
  -4   0  10   19.78    3.69
  -4   0  10   20.71    3.51
   4   0 -10   14.13    3.22
  -4   0  10   19.05    2.57
  -3   0  10   -0.40    1.83
  -3   0  10   -0.29    2.52
   3   0 -10   -0.93    2.55
  -3   0  10    1.28    2.58
  -2   0  10  208.27    9.53
   2   0 -10  217.04   10.41
  -2   0  10  198.69   10.11
  -2   0  10  204.15   10.11
  -1   0  10    0.91    2.31
  -1   0  10    2.92    2.69
  -1   0  10   -1.50    2.45
   1   0 -10   -2.73    2.42
   0   0  10  177.61    9.15
   0   0  10  180.17    9.68
   0   0 -10  180.97    9.89
   0   0 -10  186.44    9.37
  -1   0 -10   -3.54    2.73
   1   0  10   -0.59    2.66
  -1   0 -10   -3.27    2.40
   1   0  10    1.25    2.95
  -2   0 -10   35.19    5.36
   2   0  10   30.48    4.45
   2   0  10   24.59    4.24
  -3   0 -10    4.02    3.17
   3   0  10    5.40    3.17
   3   0  10    1.23    2.60
   4   0  10   10.17    3.58
   4   0  10   11.54    3.22
  -4   0 -10    8.01    3.73
   5   0  10    1.05    3.04
  -5   0 -10    2.33    3.71
   5   0  10   -0.14    2.88
  11  -1 -10   11.14    4.00
  11   1 -10    3.91    3.73
 -11   1  10    5.74    3.84
 -10  -1  10   -0.21    3.12
  10  -1 -10   -0.16    2.90
  10  -1 -10    0.03    3.33
 -10   1  10    1.26    3.28
  10   1 -10   -1.11    2.84
   9  -1 -10   21.52    3.81
   9  -1 -10   24.49    4.67
  -9  -1  10   15.43    3.84
  -9   1  10   20.68    4.24
   9   1 -10   22.17    4.33
   8  -1 -10    4.41    3.23
   8  -1 -10   -1.05    2.24
  -8  -1  10   -1.77    2.80
   8   1 -10    2.40    2.90
  -8   1  10    0.60    1.06
  -8   1  10    2.79    3.20
   7  -1 -10   -2.51    1.84
   7  -1 -10    2.78    2.93
  -7  -1  10    4.34    2.60
  -7  -1  10    4.37    3.09
  -7   1  10    5.20    2.94
   7   1 -10    2.25    2.72
  -7   1  10    0.17    1.33
  -7   1  10    2.21    2.41
  -6  -1  10   16.76    3.37
  -6  -1  10   10.88    3.49
  -6  -1  10   22.73    2.09
   6  -1 -10   18.19    3.59
  -6   1  10   15.89    2.22
  -6   1  10   17.51    3.88
  -6   1  10   19.35    3.43
   6   1 -10   19.03    3.71
  -5  -1  10  171.30    8.57
  -5  -1  10  143.65    8.73
  -5  -1  10  154.40    6.78
   5  -1 -10  149.53    8.87
   5   1 -10  174.16    8.84
  -5   1  10  157.52    7.23
  -5   1  10  150.49    8.90
  -5   1  10  150.81    8.22
   4  -1 -10   92.69    6.68
  -4  -1  10   88.16    6.57
  -4  -1  10   89.52    5.10
  -4  -1  10  103.79    6.73
   4   1 -10   98.02    6.62
  -4   1  10   84.17    6.60
  -4   1  10   89.35    6.28
  -4   1  10  102.20    5.57
   3  -1 -10  141.42    8.54
  -3  -1  10  152.87    8.55
  -3  -1  10  162.38    8.52
  -3  -1  10  153.13    7.34
  -3   1  10  142.90    7.49
  -3   1  10  156.38    8.43
   3   1 -10  164.27    8.51
  -3   1  10  143.94    8.42
  -2  -1  10   85.34    6.45
   2  -1 -10   85.42    6.57
  -2  -1  10   81.44    5.45
  -2   1  10   76.85    6.13
  -2   1  10   97.08    5.91
   2   1 -10   80.79    6.47
  -2   1  10   83.75    6.34
  -1  -1  10    5.31    3.02
   1  -1 -10    4.87    3.05
  -1  -1  10    4.29    2.47
  -1   1  10    2.34    2.40
  -1   1  10    3.52    2.83
   1   1 -10    1.25    2.67
   1   1 -10    0.63    2.43
  -1   1  10    8.99    2.78
   0  -1  10   17.82    3.46
   0  -1  10   18.37    3.41
   0  -1 -10   19.76    3.55
   0   1 -10   19.87    3.83
   0   1 -10   21.01    3.80
   0   1  10   27.71    3.90
   0   1  10   18.22    3.71
   1  -1  10   39.48    5.34
  -1  -1 -10   37.36    5.00
   1  -1  10   39.02    4.42
   1  -1  10   39.64    5.16
  -1  -1 -10   40.26    4.84
   1   1  10   39.24    5.26
  -1   1 -10   33.14    5.33
  -1   1 -10   37.04    5.18
   1   1  10   38.61    5.32
   2  -1  10    9.64    2.84
   2  -1  10    5.60    3.07
  -2  -1 -10   13.21    3.38
   2  -1  10    7.93    3.30
   2   1  10    5.65    3.08
  -2   1 -10    8.49    3.10
   2   1  10    5.27    3.14
  -2   1 -10    8.62    3.45
   3  -1  10   18.19    3.60
   3  -1  10   16.54    3.81
  -3  -1 -10   19.44    4.30
  -3   1 -10   19.06    4.28
   3   1  10   15.42    3.93
   4  -1  10   -0.57    2.82
  -4  -1 -10   -1.77    3.13
   4  -1  10    1.08    2.77
   4   1  10   -0.31    3.11
  -4   1 -10   -0.33    3.56
   5  -1  10    7.77    3.46
  -5  -1 -10    2.44    3.77
   5   1  10    4.90    3.61
  -5   1 -10    5.56    4.07
  10  -2 -10    8.92    3.36
 -10  -2  10    8.15    3.57
  10  -2 -10   12.65    3.99
 -10   2  10    8.19    3.86
  10   2 -10    9.25    3.47
   9  -2 -10   13.36    3.36
   9  -2 -10    9.12    3.99
  -9  -2  10   10.49    3.48
   9   2 -10   17.55    3.72
  -9   2  10    8.76    1.55
  -9   2  10   10.57    3.72
  -8  -2  10    7.47    3.19
  -8  -2  10    6.23    3.23
   8  -2 -10    9.20    2.91
   8  -2 -10   16.49    4.15
  -8   2  10    9.13    3.64
  -8   2  10   12.18    1.89
   8   2 -10   11.69    3.33
  -7  -2  10   -1.15    2.70
  -7  -2  10    0.27    2.84
   7  -2 -10    3.62    2.35
   7  -2 -10   -0.04    2.68
  -7   2  10    2.79    1.62
  -7   2  10    0.05    3.05
   7   2 -10   -0.57    2.34
   6  -2 -10    3.81    2.81
  -6  -2  10    7.66    3.21
  -6  -2  10    0.62    2.72
   6  -2 -10    3.69    2.17
   6   2 -10    2.14    2.65
  -6   2  10    5.95    3.11
  -6   2  10    7.47    2.00
  -6   2  10    5.60    2.56
   5  -2 -10    0.69    1.91
  -5  -2  10    6.45    3.10
  -5  -2  10    7.21    1.58
  -5  -2  10   -0.49    2.57
   5  -2 -10   -0.41    2.89
  -5   2  10    1.84    2.94
   5   2 -10    6.28    2.68
  -5   2  10    9.12    2.19
  -5   2  10    5.02    2.57
  -4  -2  10    4.17    2.88
   4  -2 -10    2.85    2.86
  -4  -2  10   10.67    3.34
  -4  -2  10    6.00    1.90
  -4   2  10    2.35    2.53
  -4   2  10   -0.96    2.65
   4   2 -10    7.76    2.85
  -4   2  10    3.92    2.16
  -3  -2  10   11.49    2.37
   3  -2 -10   17.82    3.64
  -3  -2  10   19.50    3.60
  -3   2  10   11.21    3.06
   3   2 -10    8.90    3.13
  -3   2  10   13.28    3.32
   3   2 -10   17.18    3.45
  -3   2  10    9.63    2.60
  -2  -2  10    1.57    2.11
   2  -2 -10   -0.20    2.68
  -2  -2  10   -1.78    2.71
   2   2 -10    1.96    2.40
  -2   2  10    0.92    2.34
  -2   2  10   -0.98    2.44
   2   2 -10    0.84    2.79
  -2   2  10   -0.27    2.66
  -1  -2  10   25.24    3.37
  -1  -2  10   18.82    3.73
   1  -2 -10   20.78    3.87
  -1  -2  10   20.28    2.99
  -1   2  10   16.34    3.38
   1   2 -10   21.31    3.79
   1   2 -10   18.94    3.60
  -1   2  10   20.62    3.52
  -1   2  10   20.04    3.70
   0  -2 -10   13.11    3.26
   0  -2  10    8.91    2.94
   0  -2  10    2.66    2.87
   0  -2  10    6.12    2.54
   0   2  10    9.96    2.86
   0   2 -10   16.12    3.45
   0   2 -10   10.99    3.27
   0   2  10    5.85    2.70
   0   2  10    5.39    3.25
   1  -2  10    1.37    2.31
   1  -2  10    3.04    2.91
   1  -2  10    0.47    2.75
  -1  -2 -10    0.00    3.04
  -1   2 -10    2.76    2.88
   1   2  10   -0.20    2.64
   1   2  10   -1.04    2.78
  -1   2 -10    0.69    2.66
  -2  -2 -10   39.64    5.56
   2  -2  10   36.52    5.34
   2  -2  10   33.49    4.55
   2  -2  10   38.14    5.05
  -2   2 -10   47.13    5.93
  -2   2 -10   34.94    5.34
   2   2  10   49.67    5.84
  -3  -2 -10    7.05    3.60
   3  -2  10   -4.98    2.34
   3  -2  10    3.09    3.19
  -3   2 -10   -1.53    2.96
   3   2  10    0.34    3.01
  -4  -2 -10   43.26    6.40
   4  -2  10   50.52    5.95
   4  -2  10   40.69    5.96
  -4   2 -10   60.77    7.32
   4   2  10   36.99    5.90
   5  -2  10    3.42    3.50
  -5  -2 -10    8.32    4.19
   5   2  10    9.26    4.14
  -5   2 -10   12.93    4.43
  10  -3 -10    3.85    3.11
  10  -3 -10    1.62    3.91
 -10   3  10   -0.60    3.50
 -10   3  10    1.41    1.54
   9  -3 -10    6.41    3.01
   9  -3 -10   11.43    4.01
  -9   3  10    8.48    1.96
  -9   3  10   -1.27    3.46
   9   3 -10    1.94    2.54
   8  -3 -10   63.94    6.63
  -8  -3  10   64.50    6.24
   8  -3 -10   59.95    5.53
  -8   3  10   59.48    6.48
  -8   3  10   55.54    4.14
   8   3 -10   71.14    5.92
   7  -3 -10   26.30    4.34
  -7  -3  10   16.54    3.64
   7  -3 -10   23.63    3.56
  -7   3  10   16.97    2.53
   7   3 -10   22.27    3.57
  -7   3  10   12.05    3.60
   6  -3 -10   35.10    5.39
   6  -3 -10   44.18    4.54
  -6  -3  10   48.44    5.32
  -6   3  10   33.41    5.35
   6   3 -10   44.85    4.81
  -6   3  10   36.46    4.63
  -6   3  10   42.77    4.01
  -5  -3  10    4.86    1.41
  -5  -3  10    4.68    2.97
   5  -3 -10    0.73    2.70
   5  -3 -10    6.56    2.46
  -5   3  10    3.05    2.55
   5   3 -10    6.91    3.16
  -5   3  10    2.22    1.97
  -5   3  10    3.96    3.13
   5   3 -10    7.43    2.64
   4  -3 -10   -1.06    2.04
  -4  -3  10   -0.11    2.62
   4  -3 -10   -1.36    2.53
  -4  -3  10   -0.91    1.46
   4   3 -10   -0.48    2.95
  -4   3  10    4.34    2.72
  -4   3  10    3.97    2.32
   4   3 -10    1.19    2.25
  -4   3  10   -1.03    2.72
  -3  -3  10   23.07    3.75
   3  -3 -10   23.48    3.58
  -3  -3  10   21.75    3.41
   3  -3 -10   22.13    3.84
  -3  -3  10   19.16    2.69
   3   3 -10   24.26    4.24
   3   3 -10   24.55    3.70
  -3   3  10   20.82    3.68
  -3   3  10   19.46    3.61
  -3   3  10   21.21    3.15
  -2  -3  10   -0.60    2.02
   2  -3 -10    3.59    2.99
  -2  -3  10    3.98    2.75
  -2  -3  10    1.90    2.19
   2   3 -10   -2.59    2.70
  -2   3  10    4.56    2.98
  -2   3  10    4.45    2.67
  -2   3  10    1.81    2.42
   2   3 -10    6.99    2.80
  -1  -3  10    8.65    3.18
  -1  -3  10    4.03    2.55
   1  -3 -10    9.66    3.28
  -1  -3  10    5.28    2.50
   1   3 -10    6.98    2.84
  -1   3  10   11.93    3.12
  -1   3  10    5.71    2.66
  -1   3  10    6.17    3.25
   1   3 -10    6.45    3.20
   0  -3  10   10.70    3.44
   0  -3 -10    7.79    3.21
   0  -3  10    8.12    2.94
   0  -3  10   11.07    2.94
   0   3  10   12.39    2.98
   0   3 -10    8.02    3.25
   0   3  10   15.13    3.67
   0   3 -10   12.64    3.50
   0   3  10    3.52    2.77
   1  -3  10    3.85    2.52
   1  -3  10    5.86    2.94
  -1  -3 -10    5.08    3.16
   1  -3  10   -2.24    2.67
  -1   3 -10    2.52    3.02
   1   3  10   -3.99    2.74
  -1   3 -10    1.07    2.88
   1   3  10    8.41    3.25
  -2  -3 -10   45.69    5.83
   2  -3  10   60.84    6.18
   2  -3  10   60.36    6.25
   2  -3  10   46.58    5.59
  -2   3 -10   46.80    6.28
  -2   3 -10   51.62    6.16
   2   3  10   46.31    6.10
   3  -3  10    5.45    3.18
  -3  -3 -10    3.10    3.66
   3  -3  10   -0.35    2.84
  -3   3 -10    0.28    3.18
   3   3  10    0.64    3.34
  -4  -3 -10   48.68    7.01
   4  -3  10   48.30    6.02
  -4   3 -10   46.72    6.93
   4   3  10   59.51    6.82
  -5  -3 -10   -0.26    3.94
   5  -3  10    6.54    3.63
   5   3  10   -3.36    3.25
  -5   3 -10  -10.44    3.09
  10  -4 -10   32.49    5.12
 -10   4  10   31.55    5.31
 -10   4  10   29.47    4.02
   9  -4 -10    7.81    3.33
   9  -4 -10   -1.62    3.47
  -9  -4  10    4.99    5.42
  -9   4  10    1.24    2.00
  -9   4  10    7.44    3.92
   9   4 -10    8.62    3.48
  -8  -4  10    4.70    3.23
   8  -4 -10   12.23    3.32
   8  -4 -10    9.42    3.59
  -8   4  10    8.17    3.77
  -8   4  10    6.68    2.20
   8   4 -10    3.24    2.97
   7  -4 -10    8.19    2.89
  -7  -4  10    8.68    3.49
   7  -4 -10    4.54    3.17
   7   4 -10    6.67    3.48
  -7   4  10    7.52    2.31
  -7   4  10    0.95    3.41
  -6  -4  10   45.58    5.87
   6  -4 -10   56.55    5.22
   6  -4 -10   60.37    6.15
  -6   4  10   57.83    6.09
  -6   4  10   41.77    4.40
   6   4 -10   50.85    4.85
   6   4 -10   46.40    6.02
   5  -4 -10   13.20    3.61
  -5  -4  10   11.80    1.65
   5  -4 -10   10.21    2.86
  -5  -4  10    7.40    3.20
  -5   4  10   12.46    3.01
   5   4 -10    9.27    3.36
   5   4 -10    7.03    2.54
  -5   4  10    8.90    3.42
  -5   4  10   12.37    2.73
  -4  -4  10   37.70    5.10
   4  -4 -10   30.85    4.26
   4  -4 -10   32.83    5.28
  -4  -4  10   36.08    4.53
  -4  -4  10   34.19    3.27
  -4   4  10   31.14    4.40
   4   4 -10   38.65    4.41
  -4   4  10   28.65    4.50
   4   4 -10   41.80    5.84
  -4   4  10   39.68    5.17
   3  -4 -10   68.29    5.25
  -3  -4  10   55.19    5.74
  -3  -4  10   62.40    4.58
   3  -4 -10   73.89    6.17
  -3  -4  10   63.17    5.20
  -3   4  10   71.26    6.08
  -3   4  10   71.42    6.05
   3   4 -10   62.38    5.50
  -3   4  10   69.87    5.68
   3   4 -10   61.14    6.44
  -2  -4  10   60.83    5.36
   2  -4 -10   73.99    6.40
   2  -4 -10   76.61    5.27
  -2  -4  10   70.66    6.07
  -2  -4  10   71.87    5.11
  -2   4  10   72.54    6.01
  -2   4  10   79.86    6.44
   2   4 -10   80.76    5.83
   2   4 -10   70.51    6.69
  -2   4  10   70.51    6.01
  -1  -4  10   99.74    6.31
   1  -4 -10   92.91    5.90
   1  -4 -10  103.17    7.50
  -1  -4  10   90.95    6.85
  -1  -4  10  100.54    6.55
  -1   4  10   95.89    6.72
  -1   4  10   94.23    7.31
   1   4 -10  105.85    7.70
  -1   4  10   94.18    6.83
   1   4 -10  108.15    6.94
   0  -4  10   33.02    4.67
   0  -4  10   38.58    4.98
   0  -4  10   30.17    4.78
   0  -4 -10   28.86    4.39
   0   4  10   25.98    3.74
   0   4  10   39.91    5.57
   0   4 -10   32.97    4.92
   0   4  10   36.66    5.07
   0   4 -10   35.37    5.04
   1  -4  10   74.38    6.06
  -1  -4 -10   67.14    6.35
   1  -4  10   57.36    6.03
   1  -4  10   65.78    5.94
   1   4  10   64.63    6.71
  -1   4 -10   75.19    6.71
  -1   4 -10   84.33    6.77
  -2  -4 -10   14.36    3.74
   2  -4  10   13.59    3.52
   2  -4  10   14.51    3.46
   2  -4  10   16.78    3.70
  -2   4 -10    6.46    3.72
   2   4  10   19.02    4.20
  -2   4 -10    8.83    3.48
   3  -4  10   14.66    3.69
   3  -4  10    6.97    3.15
  -3  -4 -10    6.64    3.90
  -3   4 -10   16.65    4.19
   3   4  10   11.50    4.12
  -3   4 -10    9.29    4.12
  -4  -4 -10   30.58    5.19
   4  -4  10   19.17    4.43
   4   4  10   19.05    4.79
  -4   4 -10   23.41    4.84
   5  -4  10   -1.44    3.37
  -5  -4 -10    0.25    3.92
   5   4  10    3.36    4.04
  -5   4 -10   -1.67    3.91
   9  -5 -10   15.12    3.99
   9  -5 -10   19.63    5.00
  -9   5  10    9.19    4.03
  -9   5  10   13.10    2.84
   8  -5 -10    0.24    3.26
  -8  -5  10    3.35    3.48
   8  -5 -10    2.61    2.96
   8   5 -10    3.40    3.31
  -8   5  10    1.79    3.42
  -8   5  10   -0.83    2.06
  -7  -5  10    0.02    3.04
   7  -5 -10    7.24    3.56
   7  -5 -10    1.53    2.82
  -7   5  10    6.81    2.55
   7   5 -10    9.45    3.71
  -7   5  10    3.12    3.40
  -6  -5  10    4.48    3.23
  -6  -5  10    3.52    3.07
   6  -5 -10   -2.28    2.98
   6  -5 -10   -0.45    2.56
   6   5 -10    4.15    3.32
  -6   5  10    5.20    3.38
  -6   5  10    0.77    2.16
  -5  -5  10   43.28    5.71
   5  -5 -10   58.68    5.44
  -5  -5  10   41.91    5.05
  -5  -5  10   51.61    3.13
   5  -5 -10   46.46    5.99
  -5   5  10   55.80    6.00
   5   5 -10   44.16    6.14
  -5   5  10   38.40    4.90
  -5   5  10   51.94    4.95
  -4  -5  10    1.98    1.63
   4  -5 -10    2.63    2.55
  -4  -5  10   -0.55    2.73
   4  -5 -10   -0.38    2.77
  -4  -5  10   -0.85    2.45
  -4   5  10   -1.76    2.26
  -4   5  10   -1.62    2.82
  -4   5  10    5.33    2.85
   4   5 -10   -0.85    2.86
  -3  -5  10  158.70    8.64
   3  -5 -10  168.40    8.45
  -3  -5  10  154.61    7.51
  -3  -5  10  151.05    8.97
   3  -5 -10  144.15    9.16
   3   5 -10  151.82    9.59
  -3   5  10  167.00    8.85
   3   5 -10  166.13   10.66
  -3   5  10  177.25    9.18
  -3   5  10  148.34    9.05
  -2  -5  10    1.62    2.55
  -2  -5  10   -0.17    2.80
   2  -5 -10   -1.87    2.55
  -2  -5  10    1.65    2.04
   2  -5 -10    1.92    2.30
  -2   5  10    0.90    3.19
  -2   5  10    7.29    2.84
   2   5 -10   -0.97    2.22
  -2   5  10   -2.76    2.59
   2   5 -10    1.52    3.09
  -1  -5  10   24.36    3.44
   1  -5 -10   10.08    3.47
  -1  -5  10   16.06    3.58
  -1  -5  10   21.91    3.65
   1  -5 -10   19.85    3.24
   1   5 -10   18.69    3.58
   1   5 -10   12.90    4.17
  -1   5  10   21.52    4.20
  -1   5  10   22.04    3.68
  -1   5  10   22.96    3.76
   0  -5 -10   37.99    4.59
   0  -5  10   36.59    4.93
   0  -5  10   36.51    5.14
   0  -5 -10   33.05    5.27
   0  -5  10   41.54    5.02
   0   5  10   39.83    5.66
   0   5 -10   39.72    5.12
   0   5  10   40.47    5.25
   0   5 -10   24.79    4.31
   1  -5  10    6.45    3.14
  -1  -5 -10    4.11    3.16
   1  -5  10    1.98    2.72
  -1  -5 -10   -1.39    2.87
   1  -5  10    2.27    2.79
   1   5  10   -2.06    3.13
  -1   5 -10    0.45    3.36
  -1   5 -10   -1.54    2.58
   2  -5  10   12.92    3.61
  -2  -5 -10   16.13    4.16
   2  -5  10   16.84    3.74
   2  -5  10    9.51    3.60
  -2   5 -10   13.50    4.45
  -2   5 -10    9.91    3.66
   2   5  10   12.24    4.16
   3  -5  10    8.27    3.31
  -3  -5 -10   11.13    4.18
   3  -5  10    5.83    3.31
   3   5  10   -6.12    3.23
  -3   5 -10    5.56    3.57
  -3   5 -10    3.87    4.03
  -4  -5 -10    0.17    3.51
   4  -5  10    3.44    3.45
   4   5  10    8.81    4.40
  -4   5 -10    7.08    3.66
   9  -6 -10    7.87    3.44
   9   6 -10   10.06    3.90
   8  -6 -10    8.90    4.08
  -8  -6  10    6.99    3.86
   8  -6 -10    9.25    3.72
  -8   6  10   12.67    2.96
  -8   6  10    3.11    3.83
   8   6 -10    8.06    3.85
   7  -6 -10   24.90    4.26
  -7  -6  10   27.17    4.44
  -7  -6  10   23.99    4.58
   7  -6 -10   27.51    4.86
   7   6 -10   23.40    4.74
  -7   6  10   23.42    4.66
  -7   6  10   20.97    3.54
  -6  -6  10    1.99    3.23
   6  -6 -10    2.20    2.87
   6  -6 -10    7.70    3.46
  -6  -6  10    3.81    2.81
   6   6 -10    1.40    3.26
  -6   6  10    0.53    2.45
  -6   6  10    1.64    3.26
  -5  -6  10    0.18    1.35
  -5  -6  10   -2.59    2.58
   5  -6 -10    2.39    3.05
  -5  -6  10    0.08    2.98
   5  -6 -10   -2.97    2.72
  -5   6  10    2.85    3.17
   5   6 -10   -0.77    3.28
  -5   6  10   -1.93    2.47
  -4  -6  10   10.02    1.95
  -4  -6  10    1.95    2.80
  -4  -6  10   12.01    3.45
   4  -6 -10    2.10    3.00
   4  -6 -10    4.64    2.90
  -4   6  10    8.83    3.28
   4   6 -10    2.55    3.34
  -4   6  10    5.87    2.90
  -4   6  10    9.46    3.31
  -3  -6  10   -4.35    2.54
  -3  -6  10   -1.51    2.55
   3  -6 -10    0.68    2.33
   3  -6 -10   -1.50    2.82
  -3  -6  10    2.24    1.98
  -3   6  10   -4.33    2.67
  -3   6  10    4.23    2.79
   3   6 -10    4.89    3.49
  -3   6  10   -0.32    2.70
   2  -6 -10    8.92    3.45
  -2  -6  10   15.03    3.70
  -2  -6  10   10.21    2.60
   2  -6 -10   13.74    3.17
  -2  -6  10   11.62    3.27
  -2   6  10    9.52    3.52
   2   6 -10   10.43    4.02
  -2   6  10   13.39    4.02
  -2   6  10   11.19    3.30
   1  -6 -10    4.90    3.10
  -1  -6  10    3.28    2.51
  -1  -6  10    3.94    2.86
  -1  -6  10    5.01    3.23
   1  -6 -10    3.51    2.74
  -1   6  10    2.30    3.11
   1   6 -10    1.82    3.50
  -1   6  10    0.94    3.17
  -1   6  10    2.00    2.73
   0  -6 -10    8.92    3.44
   0  -6  10   14.69    3.21
   0  -6 -10    7.98    3.04
   0  -6  10   17.63    3.89
   0  -6  10   13.08    3.57
   0   6  10   12.24    3.91
   0   6 -10    9.85    3.94
   1  -6  10    1.29    2.95
  -1  -6 -10   -3.71    2.45
  -1  -6 -10   -1.88    2.98
   1  -6  10    7.60    2.97
   1  -6  10    1.05    2.98
  -1   6 -10   -2.46    3.72
   1   6  10   -3.12    3.24
  -2  -6 -10    9.71    3.68
   2  -6  10    7.78    3.35
  -2  -6 -10    6.83    3.26
   2  -6  10    6.73    3.60
   2  -6  10   10.17    3.44
   2   6  10    6.04    4.14
  -2   6 -10   -4.80    3.85
   3  -6  10   34.84    5.32
  -3  -6 -10   34.45    5.33
  -3   6 -10   36.45    5.95
   3   6  10   18.73    4.94
  -3   6 -10   34.93    5.55
  -4  -6 -10   -0.49    3.48
  -4   6 -10    4.80    4.08
  -8  -7  10    0.99    4.00
   8  -7 -10    2.36    3.68
   8  -7 -10   -3.81    3.37
   8   7 -10    1.69    3.42
  -8   7  10    1.41    3.10
  -7  -7  10    5.29    3.41
   7  -7 -10    5.10    3.37
   7  -7 -10    0.19    3.27
  -7  -7  10    1.82    3.79
  -7   7  10   -1.15    3.70
  -7   7  10   -0.05    2.72
   7   7 -10   -3.29    3.25
   6  -7 -10   11.66    3.96
   6  -7 -10   13.09    3.98
  -6  -7  10   14.44    3.62
  -6  -7  10   10.82    3.96
  -6   7  10    9.78    3.31
   6   7 -10    6.06    4.03
  -6   7  10   16.29    4.47
   5  -7 -10   18.38    4.05
  -5  -7  10   14.46    3.85
  -5  -7  10   18.09    3.88
  -5  -7  10   21.86    2.67
   5  -7 -10   18.96    4.18
  -5   7  10   24.48    4.04
   5   7 -10   29.64    5.13
  -5   7  10   18.00    4.46
  -4  -7  10  131.09    6.63
  -4  -7  10  127.93    8.77
  -4  -7  10  126.92    8.52
   4  -7 -10  138.21    8.48
   4  -7 -10  140.89    8.93
  -4   7  10  146.27    8.59
  -4   7  10  131.06    8.68
   4   7 -10  132.43    9.60
  -4   7  10  158.02    9.51
  -3  -7  10    9.82    3.45
   3  -7 -10    5.31    3.17
  -3  -7  10    5.25    2.09
   3  -7 -10    1.25    2.72
  -3  -7  10   -1.71    2.76
   3   7 -10    3.39    3.56
  -3   7  10   -1.22    2.74
  -3   7  10    2.85    3.27
  -3   7  10    2.20    3.10
   2  -7 -10   55.60    6.14
  -2  -7  10   45.12    5.94
  -2  -7  10   45.07    4.83
  -2  -7  10   40.96    5.55
   2  -7 -10   50.42    5.48
  -2   7  10   60.16    6.44
   2   7 -10   41.00    5.90
  -2   7  10   45.77    6.10
  -2   7  10   46.44    5.89
  -1  -7  10   -3.44    2.21
  -1  -7  10    3.77    3.06
   1  -7 -10    1.76    3.09
   1  -7 -10    0.07    2.67
  -1  -7  10    2.85    3.14
  -1   7  10   -0.80    3.21
   1   7 -10    5.07    4.21
   0  -7  10   24.83    4.24
   0  -7 -10   20.40    3.77
   0  -7 -10   13.58    3.87
   0  -7  10   24.18    4.50
   0  -7  10   19.64    3.66
   0   7  10   17.88    4.64
   0   7 -10   20.78    5.18
  -1  -7 -10    2.82    3.30
   1  -7  10   -0.55    2.79
   1  -7  10   -1.81    2.84
  -1  -7 -10    4.01    3.12
   1  -7  10   -1.53    2.99
  -1   7 -10    0.20    3.85
   1   7  10   -1.35    3.57
  -2  -7 -10    9.77    3.47
   2  -7  10   13.18    3.73
   2  -7  10    9.45    3.79
  -2  -7 -10    3.69    3.42
   2  -7  10   11.95    3.86
  -2   7 -10    9.63    4.68
   2   7  10    4.58    4.02
   3  -7  10    5.37    4.32
  -3  -7 -10    1.68    4.71
  -3   7 -10   21.84    5.38
  -7  -8  10   11.59    3.92
   7  -8 -10    6.50    3.85
   7  -8 -10   -0.70    3.44
   7   8 -10    0.06    3.72
  -7   8  10   -5.32    2.72
  -6  -8  10   13.35    3.86
   6  -8 -10   22.63    4.48
  -6  -8  10   35.86    5.65
   6  -8 -10   27.44    4.61
  -6   8  10   11.22    3.70
   6   8 -10   14.48    4.65
  -6   8  10   10.35    4.47
  -5  -8  10   23.59    2.98
  -5  -8  10    6.91    3.92
  -5  -8  10   11.19    3.77
   5  -8 -10   19.05    4.26
   5  -8 -10    6.59    3.42
   5   8 -10   14.18    4.66
  -5   8  10   19.46    4.74
  -5   8  10   12.19    3.58
  -4  -8  10    2.56    2.01
   4  -8 -10    1.25    3.13
  -4  -8  10    1.38    3.40
  -4  -8  10   -1.33    2.88
   4  -8 -10    1.75    2.98
  -4   8  10    0.78    3.52
  -4   8  10    1.72    3.07
   4   8 -10   -4.79    3.74
   3  -8 -10   35.27    5.36
  -3  -8  10   38.08    4.31
  -3  -8  10   39.13    5.84
  -3  -8  10   28.47    4.66
   3  -8 -10   27.42    4.48
   3   8 -10   31.05    5.56
  -3   8  10   25.59    4.73
  -3   8  10   24.82    4.40
  -3   8  10   34.46    5.16
   2  -8 -10    0.79    3.01
   2  -8 -10    0.15    3.03
  -2  -8  10   -1.80    2.80
  -2  -8  10    3.77    2.36
  -2  -8  10   -0.90    2.90
  -2   8  10   -1.21    3.04
  -2   8  10   -2.86    3.19
   2   8 -10    2.97    3.92
   1  -8 -10   13.89    3.68
  -1  -8  10   15.49    4.16
  -1  -8  10   14.70    4.04
  -1  -8  10   11.90    3.13
  -1   8  10   12.56    4.18
   1   8 -10    3.62    4.38
   0  -8  10   19.43    4.53
   0  -8  10   22.33    4.72
   0  -8 -10   25.98    4.49
   0  -8  10   21.34    3.96
   0   8  10   22.83    4.98
   0   8 -10   24.05    5.40
   1  -8  10    7.55    3.31
  -1  -8 -10    4.24    3.53
   1  -8  10    6.51    3.51
   1  -8  10   11.68    3.82
   1   8  10    2.93    4.02
  -1   8 -10   11.38    4.83
   2  -8  10   42.62    5.53
  -2  -8 -10   42.67    5.59
  -2   8 -10   44.44   10.54
  -5  -9  10    4.93    3.82
   5  -9 -10    4.52    3.57
  -5  -9  10    7.91    1.99
  -5   9  10    6.58    4.22
   5   9 -10    5.45    4.65
  -5   9  10   -0.70    3.27
  -4  -9  10   32.90    3.99
  -4  -9  10   22.02    4.62
  -4  -9  10   26.82    5.16
   4  -9 -10   30.92    4.88
  -4   9  10   27.17    5.36
   4   9 -10   30.35    5.91
  -4   9  10   26.82    5.28
  -3  -9  10   73.06    5.45
  -3  -9  10   48.67    7.29
   3  -9 -10   66.14    6.84
  -3  -9  10   74.40    7.17
   3   9 -10   57.02    8.80
  -3   9  10   68.89    7.01
  -3   9  10   52.90    7.18
  -2  -9  10    7.89    3.96
  -2  -9  10   12.36    3.25
  -2  -9  10    5.39    3.76
   2  -9 -10   12.76    3.94
   2   9 -10    2.42    4.25
  -2   9  10    8.64    4.23
  -1  -9  10   11.47    3.22
  -1  -9  10   18.54    4.58
   1  -9 -10   12.67    3.87
  -1  -9  10   14.48    4.19
  -1   9  10    7.45    4.19
   1   9 -10    4.67    4.54
   0  -9  10   -0.96    3.78
   0  -9  10    5.41    3.17
   0  -9 -10   -0.10    3.21
   0  -9  10    3.53    3.73
   0   9  10    0.80    4.49
 -10   0  11   -2.24    3.18
  10   0 -11    5.07    3.70
   9   0 -11    5.72    3.46
  -9   0  11    1.94    3.39
  -8   0  11   -2.03    3.07
   8   0 -11    1.12    3.00
  -7   0  11   -1.44    2.60
  -7   0  11   -0.37    1.16
   7   0 -11    1.52    3.01
  -7   0  11   -0.82    3.00
   6   0 -11   -3.38    2.65
  -6   0  11    1.16    2.96
  -6   0  11    2.30    2.44
  -6   0  11   -0.26    1.44
  -5   0  11  193.32    9.91
  -5   0  11  192.72   10.36
   5   0 -11  189.45   10.43
  -5   0  11  190.52    8.36
  -4   0  11   -1.59    2.48
  -4   0  11   -3.38    2.58
   4   0 -11   -0.81    2.61
  -4   0  11   -0.52    1.87
  -3   0  11   74.09    6.09
   3   0 -11   74.52    6.40
  -3   0  11   72.44    6.22
  -3   0  11   58.73    5.05
  -2   0  11   -0.42    2.49
  -2   0  11    2.33    2.86
  -2   0  11   -2.80    2.08
   2   0 -11   -1.36    2.56
  -1   0  11   11.88    2.95
  -1   0  11    9.03    3.17
   1   0 -11   15.10    3.57
   1   0 -11    7.98    3.37
   0   0 -11    1.03    2.71
   0   0  11   -1.78    2.66
   0   0 -11   -2.76    2.70
   0   0  11    2.44    2.70
  -1   0 -11   -3.84    2.51
   1   0  11    5.21    3.05
   1   0  11    5.55    3.31
  -1   0 -11    0.83    3.05
  -2   0 -11   -0.71    3.20
   2   0  11   -0.46    3.04
  -3   0 -11   46.40    6.66
   3   0  11   51.41    6.53
  -4   0 -11   -9.80    3.26
   4   0  11    0.09    3.21
 -10  -1  11  124.40    8.98
  10  -1 -11  143.30   10.05
  10   1 -11  129.76    9.22
 -10   1  11  134.69    9.60
   9  -1 -11    1.52    3.25
  -9  -1  11    3.77    3.46
   9   1 -11    3.17    3.29
  -9   1  11    7.01    3.84
  -8  -1  11  114.47    8.01
   8  -1 -11  117.36    8.24
  -8   1  11   91.25    8.04
   8   1 -11  102.50    7.68
  -8   1  11   99.30    4.42
  -7  -1  11   12.01    3.78
  -7  -1  11   15.45    3.51
   7  -1 -11   15.25    3.89
   7   1 -11   19.19    3.86
  -7   1  11   18.33    2.68
  -7   1  11   13.40    3.25
  -7   1  11   13.24    3.84
  -6  -1  11   -0.98    2.85
   6  -1 -11    3.12    2.98
  -6  -1  11   -1.10    1.23
  -6  -1  11    0.57    2.73
  -6   1  11   -1.85    1.59
  -6   1  11   -0.56    3.00
   6   1 -11    0.07    2.74
  -6   1  11    1.52    2.51
   5  -1 -11    4.80    3.14
  -5  -1  11    4.56    2.93
  -5  -1  11    1.74    1.69
  -5  -1  11    5.31    3.04
  -5   1  11    3.37    1.98
  -5   1  11   -0.09    2.81
  -5   1  11   -1.59    2.57
   5   1 -11    4.09    2.75
  -4  -1  11    3.82    3.05
  -4  -1  11    2.96    1.93
   4  -1 -11    3.22    3.09
  -4  -1  11    3.08    2.87
  -4   1  11    5.14    3.13
  -4   1  11    4.83    2.85
   4   1 -11    5.30    2.94
  -4   1  11    9.60    2.35
  -3  -1  11   -2.87    2.49
  -3  -1  11    2.62    2.08
  -3  -1  11    2.50    2.99
   3  -1 -11   -1.61    2.79
  -3   1  11    4.27    2.46
   3   1 -11    3.65    2.83
  -3   1  11   -0.68    2.63
  -3   1  11   -1.40    2.48
  -2  -1  11  100.86    7.42
  -2  -1  11  128.30    6.98
   2  -1 -11  115.16    7.83
   2   1 -11  121.25    7.91
  -2   1  11  127.76    7.86
  -2   1  11  108.71    7.39
  -2   1  11  111.65    7.04
   2   1 -11  120.18    7.79
  -1  -1  11   23.82    4.19
   1  -1 -11   27.55    4.54
  -1  -1  11   26.19    3.85
   1   1 -11   27.51    4.30
  -1   1  11   26.49    4.03
   1   1 -11   31.94    4.48
  -1   1  11   25.98    3.97
  -1   1  11   23.72    4.10
   0  -1  11  299.20   13.45
   0  -1 -11  288.47   13.05
   0  -1  11  267.67   12.81
   0  -1 -11  267.40   13.43
   0   1  11  276.51   13.32
   0   1  11  274.34   12.93
   0   1 -11  276.89   13.46
   0   1 -11  296.96   13.28
  -1  -1 -11   13.14    3.59
   1  -1  11   13.94    3.66
   1  -1  11   21.80    4.05
   1   1  11   11.65    3.32
  -1   1 -11   16.43    4.05
  -1   1 -11   14.74    3.60
   1   1  11   17.25    4.02
   2  -1  11    8.76    3.71
   2  -1  11   15.02    3.68
  -2  -1 -11    9.20    3.77
  -2   1 -11   10.12    3.65
   2   1  11    7.00    3.67
  -3  -1 -11    1.34    3.41
   3  -1  11   11.55    3.80
  -3   1 -11    9.11    3.75
   3   1  11   -4.14    3.10
   4  -1  11   -0.47    3.13
  -4  -1 -11    4.51    3.83
   4   1  11    1.46    3.36
  -4   1 -11   -4.15    3.66
 -10  -2  11   36.10    5.29
  10  -2 -11   35.81    7.09
  10   2 -11   41.53    5.92
 -10   2  11   33.91    5.48
   9  -2 -11    3.33    3.52
  -9  -2  11   -2.02    2.97
  -9   2  11    1.96    3.59
   9   2 -11    0.62    2.77
  -9   2  11    0.47    1.22
  -8  -2  11   22.78    4.39
   8  -2 -11   23.62    4.43
  -8  -2  11   26.00    4.27
  -8   2  11   26.23    2.92
   8   2 -11   26.65    4.49
  -8   2  11   22.74    4.55
  -7  -2  11   35.67    5.42
   7  -2 -11   25.72    4.55
  -7  -2  11   24.81    4.17
  -7   2  11   20.61    4.36
   7   2 -11   20.39    3.83
  -7   2  11   19.53    2.56
   6  -2 -11   52.58    6.44
  -6  -2  11   52.80    5.64
  -6  -2  11   55.74    3.01
  -6  -2  11   54.08    6.10
  -6   2  11   59.15    4.35
   6   2 -11   63.14    5.81
  -6   2  11   64.06    6.37
  -6   2  11   63.48    5.48
  -5  -2  11    2.36    3.11
   5  -2 -11   -2.07    2.69
  -5  -2  11    3.00    1.67
  -5  -2  11    7.11    3.13
  -5   2  11    4.55    2.15
  -5   2  11    2.51    3.16
  -5   2  11    3.02    2.65
   5   2 -11   -0.42    2.53
  -4  -2  11   78.97    6.28
   4  -2 -11   87.87    6.81
  -4  -2  11   73.25    4.75
   4   2 -11   64.94    5.82
  -4   2  11   67.27    6.31
  -4   2  11   73.99    5.33
  -4   2  11   75.32    6.28
   3  -2 -11   45.12    5.46
  -3  -2  11   36.64    5.35
  -3  -2  11   45.71    4.31
  -3   2  11   43.71    5.32
  -3   2  11   42.55    5.60
   3   2 -11   36.55    5.65
   3   2 -11   47.77    5.16
  -3   2  11   45.49    4.79
  -2  -2  11  101.81    6.43
  -2  -2  11  101.66    7.35
   2  -2 -11  109.43    7.54
  -2   2  11  115.29    7.51
  -2   2  11  110.43    6.95
   2   2 -11  101.77    7.38
  -2   2  11   85.10    7.10
   2   2 -11  109.17    7.74
  -1  -2  11   39.75    4.80
  -1  -2  11   39.25    5.43
   1  -2 -11   49.21    5.80
  -1   2  11   45.54    5.02
   1   2 -11   41.41    5.68
  -1   2  11   42.78    5.09
  -1   2  11   43.78    5.53
   1   2 -11   36.68    5.24
   0  -2 -11   11.62    3.71
   0  -2  11    1.47    2.66
   0  -2  11    4.35    3.18
   0   2 -11    8.46    3.54
   0   2  11    2.30    2.71
   0   2  11    1.76    2.84
   0   2 -11    4.19    3.00
   0   2  11    7.48    3.09
  -1  -2 -11    5.37    3.31
   1  -2  11    9.64    3.46
   1  -2  11    8.63    3.30
  -1   2 -11   10.93    3.60
  -1   2 -11    0.97    2.88
   1   2  11   15.10    3.84
   1   2  11    6.85    3.31
  -2  -2 -11   21.45    4.42
   2  -2  11   27.27    4.49
   2  -2  11   28.74    4.71
   2   2  11   27.29    4.73
  -2   2 -11   28.49    4.79
   3  -2  11    9.36    3.69
   3  -2  11   11.42    3.49
  -3  -2 -11   16.75    4.65
   3   2  11    7.22    3.74
  -3   2 -11   10.70    4.01
  -4  -2 -11   28.76    5.30
   4  -2  11   25.30    4.75
   4  -2  11   29.94    4.85
  -4   2 -11   17.69    4.93
   4   2  11   26.92    5.04
  10  -3 -11   28.83    4.65
 -10   3  11   18.55    2.47
   9  -3 -11   88.80    6.98
   9  -3 -11   91.61    8.37
   9   3 -11   84.20    7.63
  -9   3  11   75.71    4.69
  -9   3  11  100.53    8.07
   8  -3 -11   20.09    4.45
  -8  -3  11   18.63    4.11
   8  -3 -11   13.98    3.32
  -8   3  11   17.70    4.43
   8   3 -11    8.86    3.23
  -8   3  11   17.41    2.53
  -7  -3  11    5.25    3.20
   7  -3 -11    5.05    3.57
   7  -3 -11    3.33    2.77
  -7   3  11    2.18    3.41
  -7   3  11    4.35    2.14
   7   3 -11    6.34    2.90
  -6  -3  11   12.47    3.52
   6  -3 -11    8.16    3.45
   6   3 -11    8.97    3.11
  -6   3  11    9.11    3.53
  -6   3  11    9.17    2.46
   6   3 -11   14.95    4.04
  -6   3  11   11.49    3.20
   5  -3 -11    0.65    2.80
  -5  -3  11    2.33    1.49
  -5  -3  11    3.52    2.79
  -5   3  11    3.23    2.72
  -5   3  11   -0.77    2.87
  -5   3  11   -3.76    1.91
   5   3 -11   -2.26    2.23
   5   3 -11   -0.22    3.03
  -4  -3  11    1.41    1.71
  -4  -3  11   -0.93    2.71
   4  -3 -11    1.88    2.71
  -4   3  11    1.07    2.26
  -4   3  11    2.87    2.88
   4   3 -11    1.13    2.49
  -4   3  11    1.71    2.84
   4   3 -11    4.24    3.25
  -3  -3  11   84.20    6.43
   3  -3 -11   76.16    6.42
  -3  -3  11   71.09    5.06
   3   3 -11   69.03    6.15
   3   3 -11   75.40    6.93
  -3   3  11   68.01    5.65
  -3   3  11   60.46    6.10
  -3   3  11   53.80    5.79
   2  -3 -11   13.75    3.48
  -2  -3  11   14.98    2.92
  -2  -3  11   15.12    3.67
  -2   3  11    9.63    3.18
   2   3 -11   13.10    3.63
  -2   3  11   15.39    3.24
  -2   3  11   12.05    3.39
   2   3 -11   24.18    3.86
  -1  -3  11   -3.00    2.28
  -1  -3  11   -0.64    2.98
   1  -3 -11    0.23    3.06
  -1   3  11    0.72    2.61
   1   3 -11   -2.47    2.90
  -1   3  11   -1.77    2.43
  -1   3  11    2.22    3.09
   1   3 -11    4.40    2.91
   0  -3  11   41.56    5.36
   0  -3  11   29.68    4.19
   0  -3 -11   23.28    4.45
   0   3 -11   28.40    4.59
   0   3  11   28.13    4.41
   0   3  11   21.46    4.27
   0   3 -11   21.50    4.21
   0   3  11   21.98    3.87
  -1  -3 -11    4.66    3.26
   1  -3  11    3.83    3.33
   1  -3  11    1.56    2.72
   1  -3  11   12.50    3.60
  -1   3 -11    8.44    3.54
  -1   3 -11    8.26    3.58
   1   3  11    4.36    3.38
  -2  -3 -11   13.41    3.90
   2  -3  11   14.65    4.01
   2  -3  11   11.31    3.86
   2  -3  11   14.49    3.61
  -2   3 -11   17.38    4.18
   2   3  11   14.16    4.18
  -2   3 -11    3.04    3.67
   3  -3  11   26.73    4.56
   3  -3  11   35.88    5.62
  -3  -3 -11   28.34    5.32
  -3   3 -11   43.86    6.92
   3   3  11   28.84    5.12
   4  -3  11   11.09    3.74
  -4  -3 -11    3.00    3.79
  -4   3 -11    2.04    3.70
   4   3  11   -3.31    3.37
  -9  -4  11   -5.25    5.45
   9  -4 -11   -0.77    3.67
   9  -4 -11    3.70    3.13
  -9   4  11   -2.68    1.81
   9   4 -11    0.37    3.22
  -9   4  11    5.56    4.18
   8  -4 -11    8.69    3.85
  -8  -4  11    9.13    3.68
   8  -4 -11    7.78    2.93
   8   4 -11   11.17    3.83
  -8   4  11    9.41    4.13
  -8   4  11    8.09    2.40
   7  -4 -11   -4.74    2.59
   7  -4 -11    1.46    2.73
  -7  -4  11    2.71    3.30
  -7   4  11    6.20    2.29
   7   4 -11    2.10    3.31
  -7   4  11   -1.91    3.38
   6  -4 -11   -0.73    3.29
  -6  -4  11    2.16    3.09
   6  -4 -11    9.45    2.87
  -6   4  11    2.49    3.08
  -6   4  11    3.65    2.27
   6   4 -11    3.20    2.86
   6   4 -11    2.34    3.21
   5  -4 -11    0.55    2.41
  -5  -4  11    2.59    1.43
   5  -4 -11    4.82    3.42
  -5  -4  11    0.79    2.83
  -5   4  11   -1.80    2.13
   5   4 -11   -0.79    3.23
   5   4 -11   -0.20    2.27
  -5   4  11    2.54    3.03
  -5   4  11    2.95    2.80
   4  -4 -11   -1.93    2.79
  -4  -4  11   -2.03    2.77
  -4  -4  11    0.03    1.70
  -4   4  11   -4.63    2.28
   4   4 -11    3.29    3.40
  -4   4  11    4.97    3.02
   4   4 -11    0.52    2.48
  -4   4  11   -0.48    2.32
  -3  -4  11   19.55    3.80
   3  -4 -11   17.06    3.96
  -3  -4  11   19.44    2.78
  -3   4  11   19.82    4.01
  -3   4  11   14.54    3.29
   3   4 -11   13.75    3.32
   3   4 -11   16.72    4.10
  -3   4  11    9.88    3.45
  -2  -4  11   14.23    2.90
  -2  -4  11   16.35    3.75
   2  -4 -11   11.83    3.56
   2   4 -11   22.75    4.38
  -2   4  11   13.92    3.82
  -2   4  11   21.06    3.76
  -2   4  11   21.35    3.90
   2   4 -11   17.38    3.62
   1  -4 -11   11.15    3.61
  -1  -4  11   11.19    3.33
  -1  -4  11   11.49    3.03
  -1  -4  11   16.07    3.32
  -1   4  11    8.81    3.32
   1   4 -11    8.76    3.59
   1   4 -11   18.52    3.69
  -1   4  11    8.60    3.11
  -1   4  11    7.60    3.57
   0  -4  11   26.44    4.48
   0  -4  11   39.52    5.00
   0  -4  11   23.40    3.75
   0  -4 -11   24.30    4.63
   0   4 -11   34.63    4.63
   0   4  11   25.44    4.52
   0   4  11   30.55    5.03
   0   4 -11   23.00    4.69
   1  -4  11    0.17    2.84
   1  -4  11    0.63    3.10
   1  -4  11    1.12    2.79
  -1  -4 -11    4.10    3.34
  -1   4 -11   -0.98    3.30
  -1   4 -11    1.40    2.93
   1   4  11   -4.66    3.02
  -2  -4 -11   29.10    4.78
   2  -4  11   47.25    6.09
   2  -4  11   29.25    4.57
   2  -4  11   25.66    4.27
  -2   4 -11   39.96    5.70
  -2   4 -11   37.48    5.28
   2   4  11   28.64    5.20
  -3  -4 -11    5.60    3.86
   3  -4  11    0.11    3.20
   3  -4  11    0.08    3.07
   3   4  11   -1.26    3.58
  -3   4 -11   -3.70    3.26
   4  -4  11    4.27    3.62
  -4   4 -11    6.72    4.48
   9  -5 -11   31.54    4.85
  -9  -5  11   51.75    7.18
   9   5 -11   49.09    6.47
  -8  -5  11   28.71    4.91
   8  -5 -11   36.08    4.97
   8  -5 -11   35.52    5.51
  -8   5  11   35.49    5.77
   8   5 -11   37.28    5.52
  -8   5  11   27.90    4.27
  -7  -5  11   -0.41    3.25
   7  -5 -11    4.96    3.17
   7  -5 -11    8.65    3.90
  -7   5  11    8.58    3.91
  -7   5  11    6.31    2.63
   7   5 -11   10.63    3.92
   6  -5 -11    1.09    3.01
  -6  -5  11   -0.60    3.03
   6  -5 -11    0.70    2.84
  -6   5  11    3.26    3.32
  -6   5  11    1.94    2.51
   6   5 -11   -2.22    3.16
  -5  -5  11   -0.48    1.32
   5  -5 -11   -3.53    2.89
   5  -5 -11   -2.35    2.36
  -5  -5  11   -4.23    2.77
   5   5 -11    4.90    3.52
  -5   5  11    4.72    2.64
  -5   5  11   -0.72    2.67
  -5   5  11    6.59    3.31
  -4  -5  11   22.96    4.19
  -4  -5  11   20.61    2.64
   4  -5 -11   17.33    3.38
   4  -5 -11   20.80    4.31
  -4   5  11   25.03    4.20
  -4   5  11   16.71    3.40
   4   5 -11   22.50    4.78
  -4   5  11   19.73    3.95
  -3  -5  11   -0.37    2.88
  -3  -5  11    2.55    2.06
   3  -5 -11    4.51    3.33
   3  -5 -11    1.04    2.58
  -3  -5  11   -0.14    2.67
  -3   5  11    4.06    3.19
  -3   5  11   -2.81    2.82
  -3   5  11   -1.73    2.59
   3   5 -11    3.30    3.38
  -2  -5  11    5.54    2.38
   2  -5 -11    2.32    2.86
  -2  -5  11    1.44    2.78
  -2  -5  11    4.86    2.96
  -2   5  11    3.20    2.97
   2   5 -11    2.59    3.31
   2   5 -11    2.72    3.46
  -2   5  11    3.37    2.99
  -2   5  11    1.35    3.16
  -1  -5  11   13.00    3.42
  -1  -5  11   12.05    3.01
  -1  -5  11    8.01    3.33
   1  -5 -11   12.19    3.80
  -1   5  11    4.54    3.10
   1   5 -11   10.42    4.06
  -1   5  11   15.59    3.55
  -1   5  11   15.04    4.15
   1   5 -11   12.35    3.53
   0  -5  11   29.01    4.50
   0  -5  11   28.33    4.15
   0  -5 -11   44.10    6.28
   0  -5  11   34.55    4.96
   0   5 -11   28.33    4.79
   0   5  11   31.47    5.24
   0   5 -11   29.26    4.56
   1  -5  11   25.96    4.38
   1  -5  11   20.89    4.08
  -1  -5 -11   28.37    4.79
   1  -5  11   23.10    4.24
  -1   5 -11   18.54    4.94
  -1   5 -11   20.05    4.16
   1   5  11   19.41    4.71
   2  -5  11    7.01    3.66
   2  -5  11    5.74    3.18
   2  -5  11    3.25    3.29
  -2  -5 -11    7.42    3.67
  -2   5 -11   -2.60    3.94
  -2   5 -11    6.24    3.74
   2   5  11   10.82    4.22
  -3  -5 -11   41.18    6.12
   3  -5  11   37.15    5.93
  -3   5 -11   24.55    7.21
   3   5  11   36.55    6.16
  -3   5 -11   45.67    6.84
  -8  -6  11    1.41    3.95
   8  -6 -11   -0.68    3.39
   8  -6 -11   -2.46    3.18
   8   6 -11   -1.24    3.48
   7  -6 -11   34.91    5.26
   7  -6 -11   34.94    4.93
  -7  -6  11   32.79    5.27
   7   6 -11   38.10    5.95
  -7   6  11   41.78    5.01
  -7   6  11   49.94    6.40
   6  -6 -11   -0.07    3.38
  -6  -6  11    6.37    3.42
   6  -6 -11   -0.09    2.96
  -6   6  11    0.99    2.48
  -6   6  11    2.10    3.59
   6   6 -11    1.66    3.47
   5  -6 -11    2.63    3.28
  -5  -6  11    5.86    1.61
  -5  -6  11    2.12    3.27
   5  -6 -11    7.38    2.92
  -5   6  11    5.09    3.57
   5   6 -11    4.69    3.83
  -5   6  11    8.47    3.05
  -4  -6  11    4.90    3.27
   4  -6 -11    3.79    3.31
  -4  -6  11    3.25    2.99
  -4  -6  11    1.76    1.86
   4  -6 -11    2.89    2.72
  -4   6  11    3.47    3.08
   4   6 -11   -2.60    3.49
  -4   6  11    1.66    3.10
  -4   6  11    4.32    3.27
  -3  -6  11   12.83    2.56
   3  -6 -11   14.24    3.46
  -3  -6  11   17.81    3.74
  -3  -6  11   16.97    4.15
   3  -6 -11   13.53    4.00
  -3   6  11   15.90    4.08
  -3   6  11   10.60    3.60
  -3   6  11   16.23    3.77
   3   6 -11   12.69    4.26
   2  -6 -11    3.22    2.68
  -2  -6  11    3.94    3.21
  -2  -6  11    2.78    2.27
   2  -6 -11   -4.19    2.54
  -2  -6  11   -3.51    2.56
  -2   6  11   -5.90    3.09
  -2   6  11    3.78    3.24
   2   6 -11    0.06    3.28
  -2   6  11    3.20    2.95
  -1  -6  11    2.47    2.96
   1  -6 -11    0.14    2.74
  -1  -6  11   -3.28    2.75
  -1  -6  11   -0.59    2.34
  -1   6  11   -2.57    3.23
   1   6 -11   -2.07    3.44
  -1   6  11    3.05    4.95
   0  -6  11    4.40    3.24
   0  -6  11    5.33    3.02
   0  -6 -11   -0.55    3.18
   0  -6  11    8.44    3.48
   0   6  11    3.49    3.72
   0   6 -11    0.70    3.96
   1  -6  11   26.40    4.61
   1  -6  11   32.21    4.56
  -1  -6 -11   24.29    4.86
   1  -6  11   26.56    4.66
   1   6  11   37.73    5.83
  -1   6 -11   19.84    5.30
  -2  -6 -11   15.68    4.50
   2  -6  11   15.81    4.05
   2  -6  11   12.98    4.15
   2  -6  11   13.36    3.82
  -2   6 -11   15.07    4.93
   2   6  11    1.77    3.75
   7  -7 -11   32.29    5.10
   7  -7 -11   20.70    4.93
  -7  -7  11   26.44    5.21
  -7   7  11   23.61    4.31
   7   7 -11   28.68    5.54
   6  -7 -11    4.77    3.22
  -6  -7  11    5.98    3.89
   6  -7 -11    3.19    3.75
   6   7 -11    2.83    4.05
  -6   7  11    9.64    4.02
  -6   7  11    3.24    3.04
   5  -7 -11   14.27    3.66
   5  -7 -11   13.89    3.73
  -5  -7  11    6.48    1.82
  -5  -7  11    9.87    3.95
  -5  -7  11    4.07    3.24
  -5   7  11   12.72    3.56
   5   7 -11    5.41    4.13
  -5   7  11    3.23    3.66
  -4  -7  11   10.11    2.34
  -4  -7  11    5.09    3.34
  -4  -7  11    3.31    3.42
   4  -7 -11    6.48    3.09
   4  -7 -11    7.80    3.74
   4   7 -11    4.65    4.15
  -4   7  11    6.99    3.35
  -4   7  11    5.36    3.55
  -4   7  11    6.47    3.56
  -3  -7  11    6.78    3.50
  -3  -7  11    9.33    2.47
   3  -7 -11   10.75    3.74
  -3  -7  11    4.75    3.54
   3  -7 -11    6.83    3.21
  -3   7  11    5.75    3.47
  -3   7  11    4.66    3.66
  -3   7  11    0.27    3.16
   3   7 -11    7.82    4.19
  -2  -7  11    0.44    3.29
   2  -7 -11    3.60    3.23
   2  -7 -11    1.32    2.87
  -2  -7  11   -0.91    2.29
  -2  -7  11    0.33    3.02
  -2   7  11   -0.63    3.16
   2   7 -11   -1.87    4.01
  -2   7  11    0.90    2.93
  -2   7  11    4.57    3.62
  -1  -7  11  129.27    7.89
   1  -7 -11  134.31    9.01
  -1  -7  11  127.50    8.69
  -1  -7  11  127.45    8.81
   1  -7 -11  124.44    8.20
   1   7 -11  123.73    9.99
  -1   7  11  115.99    9.11
   0  -7 -11   21.33    4.44
   0  -7  11   21.88    4.64
   0  -7  11   19.79    3.88
   0  -7  11   16.42    4.29
   0   7  11   28.08    5.32
   0   7 -11   26.91    5.53
   1  -7  11   93.94    7.46
   1  -7  11   99.68    8.02
  -1  -7 -11  101.05    8.38
   1  -7  11   95.86    7.95
   1   7  11   96.57    9.42
  -1   7 -11   91.97    9.35
   6  -8 -11    7.91    4.03
   6  -8 -11    7.01    3.57
  -6  -8  11    7.72    3.65
  -6   8  11   15.21    4.38
   6   8 -11    0.40    4.07
   5  -8 -11    3.17    3.39
   5  -8 -11    5.29    3.25
  -5  -8  11    4.75    3.57
  -5  -8  11    0.78    1.65
  -5   8  11   -2.00    3.52
  -5   8  11   -1.01    3.04
   5   8 -11   -2.19    4.01
  -4  -8  11    5.66    3.73
  -4  -8  11   10.09    3.72
   4  -8 -11    8.13    3.42
   4  -8 -11    8.38    3.78
  -4  -8  11   10.15    2.50
  -4   8  11    6.56    3.57
  -4   8  11    5.22    3.81
   4   8 -11    0.88    4.44
  -3  -8  11    3.52    2.31
  -3  -8  11    2.44    3.59
   3  -8 -11    2.35    3.12
   3  -8 -11    0.31    3.12
  -3  -8  11    1.24    3.33
  -3   8  11    2.69    3.65
   3   8 -11    1.93    4.33
  -3   8  11    6.83    3.76
  -3   8  11   -4.30    3.29
   2  -8 -11    7.17    3.74
  -2  -8  11   -0.51    2.31
   2  -8 -11   -0.80    3.16
  -2  -8  11    3.33    3.52
  -2  -8  11   -0.78    3.21
   2   8 -11   -2.16    4.19
  -2   8  11    3.50    3.93
  -1  -8  11   -0.93    3.17
  -1  -8  11   -1.81    3.32
   1  -8 -11   -3.04    2.71
  -1  -8  11   -1.08    2.68
   1   8 -11   -7.08    4.21
  -1   8  11    0.12    3.85
   0  -8 -11   -0.30    3.18
   0  -8  11    1.49    3.65
   0  -8  11    5.71    3.75
   0  -8  11    1.83    3.17
   9   0 -12   -2.04    3.07
  -9   0  12    6.83    3.96
  -8   0  12   -2.33    3.40
   8   0 -12    0.48    2.86
  -7   0  12   -0.59    2.78
  -7   0  12   -2.49    2.98
   7   0 -12   -3.37    2.86
  -7   0  12   -0.42    1.28
   6   0 -12    1.40    3.13
  -6   0  12    1.17    3.23
  -6   0  12    0.44    1.63
  -6   0  12    5.58    3.10
   5   0 -12   -2.12    2.79
  -5   0  12    0.19    1.87
  -5   0  12   -0.61    2.80
  -5   0  12    0.80    2.83
  -4   0  12   51.15    4.57
  -4   0  12   52.76    6.08
   4   0 -12   55.89    6.06
  -4   0  12   52.81    5.84
  -3   0  12   -2.31    2.08
   3   0 -12   -1.15    2.96
  -3   0  12    0.94    2.84
  -3   0  12    6.25    3.18
   2   0 -12    4.85    3.21
  -2   0  12    1.02    2.95
  -2   0  12   -3.72    2.15
  -1   0  12    0.71    2.54
   1   0 -12    1.38    2.94
  -1   0  12   -0.03    2.77
   1   0 -12    2.66    2.81
   0   0 -12   13.06    3.70
   0   0  12   13.85    4.03
   0   0  12   10.89    3.42
   0   0 -12   21.63    4.47
   1   0  12   -7.61    2.69
   1   0  12   -3.30    2.94
  -1   0 -12    4.25    3.56
  -2   0 -12   -0.27    3.57
   2   0  12   -2.75    3.07
   3   0  12    0.30    3.42
  -3   0 -12   -1.52    3.52
  -9  -1  12   23.94    4.74
   9  -1 -12   22.79    4.94
   9   1 -12   26.15    5.04
  -9   1  12   30.16    5.00
   8  -1 -12    0.11    3.08
  -8  -1  12    1.07    3.47
   8   1 -12    1.69    3.09
  -8   1  12    0.99    1.20
  -8   1  12    3.53    3.39
  -7  -1  12   31.30    4.55
   7  -1 -12   33.08    5.19
  -7  -1  12   22.97    4.55
  -7   1  12   24.74    3.01
  -7   1  12   26.68    4.67
   7   1 -12   28.20    4.51
  -7   1  12   38.11    5.23
  -6  -1  12    4.61    3.03
  -6  -1  12    1.91    1.56
  -6  -1  12    1.55    3.02
   6  -1 -12    3.70    3.37
   6   1 -12   -1.98    2.63
  -6   1  12   -0.32    1.84
  -6   1  12   -2.46    2.96
  -6   1  12    5.72    2.96
   5  -1 -12    2.58    3.02
  -5  -1  12   -3.67    1.63
  -5  -1  12    6.54    3.33
  -5  -1  12   -0.45    2.92
  -5   1  12    1.21    2.90
  -5   1  12    6.57    3.41
  -5   1  12   -2.93    1.92
   5   1 -12    0.40    2.70
  -4  -1  12    1.98    2.08
   4  -1 -12    1.73    2.98
  -4  -1  12    2.52    3.34
  -4  -1  12    0.57    3.07
  -4   1  12    7.17    3.31
   4   1 -12   -0.93    2.68
  -4   1  12    5.98    2.48
  -4   1  12    7.38    3.21
  -3  -1  12    0.67    3.11
   3  -1 -12   -0.32    2.94
  -3  -1  12   -0.23    2.19
  -3   1  12    3.38    2.53
  -3   1  12    0.88    2.79
   3   1 -12    1.94    2.75
  -3   1  12   -1.85    2.64
  -2  -1  12   20.89    3.58
   2  -1 -12   25.55    4.59
  -2  -1  12   27.81    4.35
   2   1 -12   28.99    4.60
  -2   1  12   18.46    3.84
  -2   1  12   22.97    3.70
  -2   1  12   18.55    3.94
   2   1 -12   30.47    4.66
   1  -1 -12   -2.04    2.95
  -1  -1  12    2.62    2.91
  -1  -1  12    2.84    3.26
   1   1 -12    0.98    3.06
  -1   1  12   -2.64    2.42
   1   1 -12    7.32    3.50
  -1   1  12    2.09    3.18
   0  -1 -12   53.86    6.53
   0  -1  12   56.72    6.10
   0  -1  12   49.61    6.26
   0  -1 -12   53.91    6.08
   0   1 -12   62.46    6.60
   0   1  12   59.59    6.14
   0   1 -12   60.60    6.68
   0   1  12   60.62    6.55
  -1  -1 -12   10.38    4.09
   1  -1  12    5.94    3.42
   1  -1  12    7.65    3.47
   1   1  12   11.42    3.95
  -1   1 -12    5.98    3.48
  -1   1 -12    9.32    4.10
   1   1  12   15.34    4.02
  -2  -1 -12   64.42    7.26
   2  -1  12   58.22    6.53
  -2   1 -12   51.72    7.10
   2   1  12   45.61    6.60
  -3  -1 -12    9.69    4.46
   3  -1  12    6.39    3.54
  -3   1 -12    3.88    3.80
   3   1  12    3.17    3.60
  -9  -2  12   -0.07    3.52
   9  -2 -12   -0.45    3.33
   9   2 -12   -0.08    2.98
  -9   2  12   -0.15    1.20
  -9   2  12   -0.75    3.69
  -8  -2  12   10.54    3.61
  -8  -2  12   12.62    4.18
   8  -2 -12    8.89    3.92
  -8   2  12    7.68    1.93
  -8   2  12    1.75    3.76
   8   2 -12    6.75    3.32
   7  -2 -12   28.62    5.03
  -7  -2  12   18.05    4.35
  -7  -2  12   18.58    3.96
  -7   2  12   21.64    4.57
  -7   2  12   22.35    2.79
   7   2 -12   13.27    3.78
  -6  -2  12    4.57    1.49
  -6  -2  12    5.17    3.24
   6  -2 -12    7.84    3.51
  -6  -2  12   10.75    3.67
   6   2 -12    3.31    3.06
  -6   2  12    3.03    3.47
  -6   2  12    5.54    3.03
  -6   2  12    5.75    2.19
  -5  -2  12    2.53    3.22
  -5  -2  12    2.02    1.74
   5  -2 -12   -3.78    2.70
   5   2 -12    1.34    2.88
  -5   2  12   -2.38    2.03
  -5   2  12    0.88    2.80
  -5   2  12   -0.87    3.03
  -4  -2  12   -1.57    1.87
  -4  -2  12   -2.13    2.76
   4  -2 -12   -5.42    2.78
   4   2 -12    2.71    2.84
  -4   2  12   -0.79    2.94
   4   2 -12   -0.58    3.16
  -4   2  12    1.11    2.87
  -4   2  12    1.17    2.34
  -3  -2  12   13.41    2.79
  -3  -2  12   11.93    3.68
   3  -2 -12   12.62    3.86
   3   2 -12   12.12    3.82
   3   2 -12    9.95    3.41
  -3   2  12   16.38    3.31
  -3   2  12   16.48    3.71
  -3   2  12    8.52    3.43
  -2  -2  12    8.21    3.46
   2  -2 -12    6.50    3.43
  -2  -2  12    7.02    2.73
  -2   2  12    6.32    3.40
  -2   2  12    6.15    3.01
  -2   2  12    4.33    3.02
   2   2 -12    9.90    3.42
   2   2 -12   10.23    3.70
  -1  -2  12  131.53    8.88
   1  -2 -12  139.34    9.28
  -1  -2  12  140.36    8.13
   1   2 -12  128.49    8.87
  -1   2  12  144.66    8.68
   1   2 -12  145.09    9.11
  -1   2  12  136.76    9.03
  -1   2  12  131.34    8.35
   0  -2  12    5.28    3.38
   0  -2  12    0.46    2.73
   0  -2 -12    0.31    3.15
   0   2  12    0.43    3.20
   0   2  12   -1.23    3.01
   0   2 -12    3.60    3.37
   0   2 -12    6.49    3.62
   1  -2  12   37.92    5.87
   1  -2  12   42.23    5.73
  -1  -2 -12   47.80    6.46
   1   2  12   49.89    6.25
  -1   2 -12   45.30    6.58
  -1   2 -12   37.10    5.18
   2  -2  12    6.84    5.44
  -2  -2 -12    6.49    4.15
   2  -2  12    3.54    3.48
   2   2  12   -2.79    3.38
  -2   2 -12   -3.44    3.13
  -3  -2 -12   15.47    7.34
   3  -2  12   20.20    4.44
   3   2  12   24.65    4.89
  -3   2 -12   18.01    4.71
   9   3 -12    4.59    3.75
  -9   3  12    1.86    1.81
  -8  -3  12   47.90    6.51
   8  -3 -12   51.27    6.74
  -8   3  12   38.75    5.88
   8   3 -12   50.77    5.99
  -8   3  12   47.90    4.11
   8   3 -12   58.95    7.04
   7  -3 -12   23.79    4.51
  -7  -3  12   36.08    5.48
   7   3 -12   26.79    4.36
  -7   3  12   29.61    5.11
  -7   3  12   20.82    2.94
   7   3 -12   23.37    4.85
   6  -3 -12    9.17    3.85
  -6  -3  12    3.21    1.19
  -6  -3  12   -2.02    2.87
  -6   3  12    4.54    2.26
  -6   3  12    1.60    2.92
  -6   3  12    4.63    3.43
   6   3 -12    7.96    3.98
   6   3 -12    3.48    2.80
  -5  -3  12    2.24    1.63
   5  -3 -12    1.49    3.01
  -5  -3  12   -1.99    2.74
  -5   3  12   -0.69    2.57
   5   3 -12    0.17    3.28
   5   3 -12   -1.57    2.49
  -5   3  12    1.06    2.26
  -5   3  12    4.09    3.31
   4  -3 -12   10.01    3.85
  -4  -3  12   13.97    2.52
  -4  -3  12   11.04    3.67
  -4   3  12   13.53    3.74
  -4   3  12   16.20    3.86
   4   3 -12   16.47    4.23
  -4   3  12   11.65    3.05
   4   3 -12    5.91    3.06
   3  -3 -12   14.45    4.05
  -3  -3  12   20.39    3.25
  -3  -3  12   27.24    4.50
   3   3 -12   27.22    4.21
   3   3 -12   26.23    4.88
  -3   3  12   21.49    3.76
  -3   3  12   19.59    4.00
  -3   3  12   26.14    4.41
  -2  -3  12   11.97    3.06
   2  -3 -12   17.67    4.11
  -2  -3  12   14.91    3.81
  -2   3  12   13.25    3.49
  -2   3  12   12.35    3.41
   2   3 -12   14.93    4.07
   2   3 -12   14.57    3.64
  -2   3  12    5.99    3.35
   1  -3 -12   17.85    4.23
  -1  -3  12   10.77    3.20
  -1  -3  12   10.85    3.60
  -1   3  12   16.33    4.06
  -1   3  12   17.17    3.72
   1   3 -12    8.21    3.82
   1   3 -12   11.06    3.93
  -1   3  12   14.51    3.50
   0  -3 -12    1.44    3.47
   0  -3  12    0.95    2.92
   0  -3  12    6.97    3.44
   0   3 -12    0.87    3.21
   0   3  12    3.71    3.67
   0   3  12   -3.63    2.85
   0   3 -12    3.80    3.36
  -1  -3 -12    4.53    3.40
   1  -3  12    0.76    3.25
   1  -3  12    3.35    3.39
  -1   3 -12   -2.55    3.34
  -1   3 -12    0.48    3.25
   1   3  12    1.56    3.47
   2  -3  12   12.10    3.85
   2  -3  12    3.09    3.47
  -2  -3 -12    1.08    3.75
  -2   3 -12    3.65    3.63
   2   3  12    9.64    4.11
   3  -3  12    5.40    3.71
  -3   3 -12    0.42    5.67
  -8  -4  12   -5.64    3.02
   8  -4 -12    4.29    3.84
  -8   4  12   -0.64    2.02
   8   4 -12   -1.70    3.39
  -8   4  12    5.27    3.76
  -7  -4  12    4.43    3.48
   7  -4 -12    2.07    3.68
  -7   4  12    5.78    3.71
   7   4 -12    4.87    3.80
  -7   4  12    1.63    2.24
  -6  -4  12    1.20    3.20
   6  -4 -12    4.81    3.49
  -6   4  12   -3.10    3.10
  -6   4  12    3.92    2.47
   6   4 -12    5.97    3.80
  -5  -4  12    6.02    3.36
  -5  -4  12   11.10    1.95
   5  -4 -12    6.65    3.73
  -5   4  12    7.97    2.86
   5   4 -12    8.22    3.95
   5   4 -12    6.31    2.90
  -5   4  12   14.75    3.66
  -5   4  12    8.23    3.75
  -4  -4  12   35.22    5.54
  -4  -4  12   34.07    3.70
   4  -4 -12   28.23    4.85
   4   4 -12   31.86    4.69
  -4   4  12   29.25    4.69
  -4   4  12   22.74    4.27
   4   4 -12   29.97    5.17
  -4   4  12   27.12    3.98
   3  -4 -12   -1.03    3.09
  -3  -4  12    1.09    2.08
  -3  -4  12   -3.69    2.90
  -3   4  12    2.05    2.99
  -3   4  12   -1.58    2.52
   3   4 -12    0.08    2.68
   3   4 -12   -3.55    3.00
  -3   4  12    1.06    2.87
  -2  -4  12   -0.31    2.27
  -2  -4  12    1.00    3.12
   2  -4 -12    2.94    3.31
   2   4 -12    1.73    3.31
   2   4 -12   -1.98    2.81
  -2   4  12    1.12    3.26
  -2   4  12   -3.18    2.58
  -2   4  12   -5.05    2.59
  -1  -4  12   48.14    6.14
   1  -4 -12   48.77    6.75
  -1  -4  12   42.86    5.27
  -1   4  12   41.40    6.06
   1   4 -12   51.59    6.59
  -1   4  12   39.90    6.36
   1   4 -12   57.51    6.47
  -1   4  12   48.34    6.98
   0  -4  12  112.19    7.61
   0  -4  12  119.00    8.24
   0  -4 -12  109.77    8.55
   0   4 -12   99.65    8.32
   0   4  12  104.96    8.60
   0   4 -12  109.83    8.71
   1  -4  12   51.23    6.45
  -1  -4 -12   43.91    6.55
   1  -4  12   48.78    5.97
   1   4  12   29.80    5.29
  -1   4 -12   34.18    5.74
  -1   4 -12   45.58    6.57
   2  -4  12   23.00    4.66
  -2  -4 -12   36.23    5.91
   2  -4  12   38.78    5.80
   2   4  12   30.63    5.75
  -2   4 -12   37.65    5.63
  -2   4 -12   19.88    5.31
  -8  -5  12    7.37    3.85
   8   5 -12   -1.65    3.52
   7  -5 -12   29.86    5.07
  -7  -5  12   43.71    6.27
   7   5 -12   32.34    5.48
  -7   5  12   32.47    4.05
  -7   5  12   25.28    5.15
   6  -5 -12    5.83    3.68
  -6  -5  12    0.20    3.34
   6   5 -12    4.35    3.78
  -6   5  12    1.09    2.63
  -6   5  12   -1.39    3.32
  -5  -5  12    2.41    1.63
   5  -5 -12    3.27    3.56
  -5  -5  12    3.55    3.31
  -5   5  12    3.46    3.35
  -5   5  12    1.98    2.91
  -5   5  12    0.96    2.60
   5   5 -12    0.72    3.40
  -4  -5  12    8.52    3.53
   4  -5 -12    9.36    3.77
  -4  -5  12    6.56    2.11
  -4   5  12   -1.99    2.80
  -4   5  12   -2.96    2.68
   4   5 -12   -3.20    3.28
  -4   5  12    4.37    3.46
   3  -5 -12   -5.02    2.97
  -3  -5  12    0.57    3.14
  -3  -5  12    1.20    2.16
   3   5 -12   -7.06    3.02
  -3   5  12   -0.07    2.90
  -3   5  12   -3.50    2.96
  -3   5  12   -0.97    3.10
   2  -5 -12    2.07    3.29
  -2  -5  12   -1.89    2.15
  -2  -5  12    3.67    3.12
  -2   5  12   -1.27    2.81
  -2   5  12   -4.04    2.58
  -2   5  12   -6.36    2.95
   2   5 -12   -4.53    3.23
  -1  -5  12    7.42    2.88
  -1  -5  12    6.00    3.36
   1  -5 -12    8.36    3.70
   1   5 -12    7.51    4.26
  -1   5  12    3.79    3.32
  -1   5  12    2.39    3.68
   0  -5 -12    1.69    3.60
   0  -5  12    2.75    2.85
   0  -5  12    1.11    3.16
   0   5 -12    2.41    3.24
   0   5 -12   -6.00    3.48
   0   5  12    0.30    3.40
  -1  -5 -12    0.35    3.55
   1  -5  12    2.08    3.29
   1  -5  12    4.54    3.40
   1  -5  12    3.64    3.19
   1   5  12    0.57    3.59
  -1   5 -12    3.39    3.52
  -1   5 -12   -3.63    3.53
   2  -5  12    1.50    3.43
   2  -5  12    0.08    3.18
  -2  -5 -12   -6.70    4.25
   2  -5  12    3.67    3.22
  -2   5 -12   -3.14    3.54
  -2   5 -12   -4.58    3.97
   7  -6 -12    4.27    3.49
  -7  -6  12    2.19    5.49
   7   6 -12    0.66    3.97
   6  -6 -12   64.62    7.69
  -6  -6  12   67.71    7.58
  -6   6  12   65.53    7.45
  -6   6  12   54.25    6.14
   6   6 -12   75.25    8.07
  -5  -6  12    2.56    1.68
   5  -6 -12    3.52    3.69
  -5  -6  12    1.05    3.28
  -5   6  12    2.45    3.54
   5   6 -12    6.14    4.23
  -5   6  12    2.70    3.09
  -4  -6  12   27.02    4.78
   4  -6 -12   25.65    4.87
  -4  -6  12   25.78    3.62
  -4   6  12   30.32    4.67
   4   6 -12   26.87    5.34
  -4   6  12   29.56    4.61
  -4   6  12   19.15    4.45
  -3  -6  12    4.05    2.27
   3  -6 -12   -3.27    3.17
  -3  -6  12   -3.16    2.93
  -3   6  12   -3.59    2.86
   3   6 -12    1.19    4.08
  -3   6  12   -0.87    2.98
  -3   6  12   -1.76    3.35
   2  -6 -12   24.30    4.86
  -2  -6  12   27.86    3.84
  -2  -6  12   28.43    4.82
   2   6 -12   23.11    5.44
  -2   6  12   25.64    4.65
  -2   6  12   24.44    5.15
  -2   6  12   25.13    4.91
  -1  -6  12   37.78    5.29
  -1  -6  12   38.48    6.17
  -1  -6  12   38.00    5.93
   1  -6 -12   34.12    5.42
   1   6 -12   23.52    5.35
  -1   6  12   44.92    6.73
   0  -6 -12   13.76    4.30
   0  -6  12   11.09    4.02
   0  -6  12   16.67    4.01
   0  -6  12   10.76    3.39
   0   6 -12    4.35    4.37
   0   6  12   12.25    4.46
   1  -6  12   17.17    4.36
  -1  -6 -12   26.36    5.17
   1  -6  12   20.89    4.36
   1  -6  12   23.53    4.46
  -1   6 -12   27.50    5.95
   6  -7 -12   15.06    3.98
   5  -7 -12    4.74    3.13
   5  -7 -12    2.90    3.65
  -5  -7  12   -0.17    1.62
  -5   7  12   -8.50    2.94
   5   7 -12    4.05    4.74
  -5   7  12   -2.52    2.81
  -4  -7  12    1.60    2.11
  -4  -7  12   -6.61    3.24
   4  -7 -12    4.08    3.57
  -4   7  12    2.67    3.51
  -4   7  12   -1.65    3.39
  -4   7  12    4.59    3.48
   4   7 -12    1.64    4.18
  -3  -7  12   29.74    4.26
  -3  -7  12   24.87    4.95
   3  -7 -12   24.06    4.75
   3   7 -12   29.67    5.68
  -3   7  12   26.96    4.82
  -3   7  12   29.97    5.10
  -3   7  12   28.21    5.06
   2  -7 -12    5.10    3.66
  -2  -7  12    4.00    2.85
  -2  -7  12    3.57    3.20
  -2  -7  12    0.86    3.36
  -2   7  12    4.77    4.06
   2   7 -12    1.69    4.85
   1  -7 -12   29.39    5.26
  -1  -7  12   35.96    5.42
  -1  -7  12   32.22    4.91
  -1   7  12   25.71    6.77
  -8   0  13   -7.59    3.21
   8   0 -13    5.24    3.61
  -7   0  13   10.39    3.65
  -7   0  13    6.29    3.94
  -7   0  13    6.10    1.70
   7   0 -13   12.84    4.03
  -6   0  13    1.34    3.01
  -6   0  13   -4.77    3.03
   6   0 -13   -7.42    2.72
  -6   0  13   -1.17    1.77
   5   0 -13    3.06    3.38
  -5   0  13    2.95    2.10
  -5   0  13    1.26    3.06
  -5   0  13    6.96    3.43
  -4   0  13   -2.40    2.07
   4   0 -13    3.01    3.21
  -4   0  13   -1.46    2.85
  -4   0  13   -0.14    3.00
   3   0 -13   59.34    6.72
  -3   0  13   43.53    5.92
  -3   0  13   49.97    5.19
  -2   0  13   -0.55    3.13
   2   0 -13   -4.48    2.96
  -2   0  13    0.12    2.48
   2   0 -13    0.30    3.18
   1   0 -13    0.77    3.57
  -1   0  13   -1.93    2.61
  -1   0  13   -0.34    2.84
   1   0 -13    1.49    3.18
   0   0 -13   -1.02    3.20
   0   0  13    0.64    3.11
   0   0  13    2.43    3.28
   0   0 -13    2.32    3.66
   1   0  13    5.85    3.79
   1   0  13   -0.30    3.40
  -1   0 -13    5.43    3.90
   2   0  13    0.45    5.52
   8  -1 -13    5.72    3.84
  -8  -1  13    1.00    3.62
  -8   1  13    6.92    3.95
   8   1 -13   12.32    4.06
  -8   1  13    4.03    1.52
  -7  -1  13   14.48    4.33
   7  -1 -13   11.11    3.89
  -7  -1  13    6.24    3.46
  -7   1  13    3.14    3.20
  -7   1  13    6.89    2.08
   7   1 -13   10.05    3.81
  -7   1  13    3.02    3.78
  -6  -1  13   26.05    3.13
   6  -1 -13   30.56    5.10
  -6  -1  13   34.20    4.98
  -6  -1  13   16.70    4.54
  -6   1  13   19.40    4.35
   6   1 -13   23.61    4.48
  -6   1  13   22.01    4.27
  -6   1  13   20.53    2.96
   5  -1 -13   12.20    3.96
  -5  -1  13    7.14    2.32
  -5  -1  13    0.62    3.26
  -5  -1  13    9.28    3.78
   5   1 -13   17.69    4.16
  -5   1  13   16.72    4.02
  -5   1  13   11.62    2.72
  -5   1  13   10.70    4.03
   4  -1 -13   10.76    3.96
  -4  -1  13    9.85    2.77
  -4  -1  13   13.96    3.88
  -4   1  13   10.07    2.86
   4   1 -13    9.94    3.51
  -4   1  13    6.70    3.39
  -4   1  13    9.06    3.72
   3  -1 -13   19.04    4.21
  -3  -1  13   16.78    3.26
  -3  -1  13   22.15    4.44
   3   1 -13   15.16    4.01
  -3   1  13   16.17    3.40
   3   1 -13   13.87    4.19
  -3   1  13   13.01    3.85
  -3   1  13   18.22    4.19
  -2  -1  13   16.71    3.51
   2  -1 -13    9.07    3.85
  -2  -1  13   16.35    4.13
  -2   1  13   15.55    4.01
   2   1 -13   10.80    3.77
  -2   1  13   21.37    4.43
   2   1 -13   19.48    4.47
  -2   1  13   22.36    3.87
   1  -1 -13   -2.17    2.98
   1  -1 -13   -2.40    3.20
  -1  -1  13   -1.26    2.96
  -1  -1  13    0.28    2.96
  -1   1  13    1.73    2.85
   1   1 -13    0.87    3.12
  -1   1  13    0.77    3.14
   1   1 -13    0.92    3.18
   0  -1  13   21.16    4.48
   0  -1 -13   20.32    5.03
   0  -1  13   19.06    4.15
   0   1 -13   17.94    4.62
   0   1  13   17.49    4.33
   0   1  13   14.26    3.82
   0   1 -13   20.93    4.32
   1  -1  13   20.51    4.37
  -1  -1 -13   20.91    4.75
   1  -1  13   22.39    4.87
   1   1  13   17.38    4.54
  -1   1 -13   20.55    4.70
   2  -1  13   16.83    5.99
   8  -2 -13   11.09    4.77
  -8  -2  13    5.00    4.23
  -8  -2  13    5.21    3.55
  -8   2  13    7.82    2.10
  -8   2  13    6.50    5.75
   8   2 -13    3.77    3.41
   7  -2 -13   -0.03    3.64
  -7  -2  13    4.83    3.41
   7   2 -13   11.54    3.78
  -7   2  13    1.89    3.59
  -7   2  13    3.22    2.15
   6  -2 -13    9.07    3.73
  -6  -2  13    8.91    1.80
  -6  -2  13    5.93    3.39
  -6   2  13    4.65    2.44
   6   2 -13    9.19    3.67
  -6   2  13    6.09    3.50
  -6   2  13    3.90    3.67
   5  -2 -13    0.09    3.29
  -5  -2  13   -1.02    1.79
  -5  -2  13    2.76    3.30
   5   2 -13    1.65    3.19
  -5   2  13   -8.96    2.51
   5   2 -13    0.59    3.61
  -5   2  13    1.06    3.38
  -5   2  13    0.29    2.31
  -4  -2  13   18.37    3.04
   4  -2 -13   17.67    4.34
  -4  -2  13   15.10    4.02
   4   2 -13   10.64    4.02
  -4   2  13   23.57    4.28
   4   2 -13   23.53    4.40
  -4   2  13   20.13    4.43
  -4   2  13   23.24    3.63
   3  -2 -13   -1.14    2.91
  -3  -2  13   -3.41    2.99
  -3  -2  13   -0.55    2.39
  -3   2  13    3.19    3.13
   3   2 -13    6.27    3.27
  -3   2  13    2.31    3.28
   3   2 -13    7.43    3.88
  -3   2  13    1.10    2.71
  -2  -2  13    8.98    3.05
   2  -2 -13   12.02    4.17
  -2  -2  13   10.57    3.89
  -2   2  13   12.98    3.50
   2   2 -13   14.42    3.82
   2   2 -13    9.95    4.14
  -2   2  13   12.42    3.73
  -2   2  13    8.02    3.91
   1  -2 -13    8.14    3.72
  -1  -2  13    9.60    3.41
  -1  -2  13   11.17    3.94
  -1   2  13    4.09    3.59
  -1   2  13    5.54    3.33
   1   2 -13   14.46    4.39
   1   2 -13    9.01    3.64
   0  -2  13    2.09    3.28
   0  -2  13   -3.46    3.12
   0  -2 -13    6.68    3.97
   0   2 -13   -2.55    3.37
   0   2  13    5.27    3.46
   0   2 -13    3.48    3.42
   0   2  13   -0.25    3.35
   1  -2  13   13.92    4.08
   1  -2  13   14.53    4.38
  -1  -2 -13   11.90    4.64
   1   2  13   13.39    4.41
  -1   2 -13   12.31    4.26
  -8  -3  13    3.12    3.74
  -7  -3  13  117.56    8.69
   7  -3 -13  124.08    9.45
   7   3 -13   88.78    8.76
  -7   3  13  104.69    6.49
   7   3 -13  121.03    8.38
  -7   3  13  106.54    8.89
  -6  -3  13    4.67    3.48
   6  -3 -13    4.45    3.80
  -6  -3  13    4.57    1.50
  -6   3  13    5.86    2.57
  -6   3  13    2.95    3.60
  -6   3  13    2.40    3.08
   6   3 -13   10.48    3.35
   6   3 -13    4.87    3.90
  -5  -3  13   30.40    3.49
   5  -3 -13   42.57    6.34
  -5  -3  13   19.15    4.44
   5   3 -13   32.23    4.77
  -5   3  13   33.43    5.29
  -5   3  13   27.99    3.92
  -5   3  13   36.68    5.44
   5   3 -13   38.07    5.64
   4  -3 -13    3.30    3.54
  -4  -3  13    6.25    3.49
  -4  -3  13    6.93    2.34
  -4   3  13   10.00    3.08
  -4   3  13    4.38    3.35
  -4   3  13    6.97    3.64
   4   3 -13    2.72    3.14
   4   3 -13    5.20    4.02
  -3  -3  13   23.67    4.57
   3  -3 -13   26.56    4.83
  -3  -3  13   20.15    3.33
  -3   3  13   22.87    4.04
  -3   3  13   19.16    4.25
  -3   3  13   22.59    4.53
   3   3 -13   25.53    4.92
   3   3 -13   23.35    4.44
   2  -3 -13    2.71    3.56
  -2  -3  13    2.25    2.66
  -2  -3  13   -3.59    2.94
  -2   3  13    5.17    3.49
   2   3 -13   -0.40    3.21
   2   3 -13   -2.14    2.94
  -2   3  13   -0.05    2.99
  -2   3  13    6.65    3.24
  -1  -3  13   -0.27    3.44
  -1  -3  13    7.25    3.22
   1  -3 -13    0.60    3.36
  -1   3  13    8.24    3.92
  -1   3  13   -0.08    3.29
   1   3 -13   -2.67    2.94
   1   3 -13    3.38    3.78
   0  -3 -13    0.70    3.72
   0  -3  13    7.41    3.41
   0  -3  13   -2.11    3.24
   0   3  13    6.35    3.72
   0   3 -13    7.81    3.82
   0   3 -13   -5.86    2.96
   0   3  13   -2.30    3.21
   1  -3  13   16.55    4.43
   1  -3  13    6.22    3.71
  -1   3 -13   11.61    4.37
  -1   3 -13    6.78    3.98
  -7  -4  13   -0.06    3.48
   7   4 -13    1.76    4.09
  -6  -4  13   -1.38    3.26
   6  -4 -13    3.73    3.72
  -6   4  13   -0.80    2.46
   6   4 -13   -2.61    3.72
  -6   4  13   -0.47    3.67
  -5  -4  13    8.98    2.08
   5  -4 -13    6.23    3.98
  -5  -4  13    7.85    3.82
  -5   4  13   11.28    3.18
   5   4 -13    6.00    4.06
  -5   4  13    0.91    3.48
  -5   4  13    1.89    3.12
   4  -4 -13   29.94    5.17
  -4  -4  13   26.46    3.81
  -4  -4  13   21.62    4.42
   4   4 -13   30.31    5.32
  -4   4  13   24.29    4.67
   4   4 -13   26.68    4.50
  -4   4  13   18.44    4.43
  -4   4  13   24.98    3.99
  -3  -4  13   14.33    4.04
   3  -4 -13   12.38    4.21
  -3  -4  13   12.23    2.88
   3   4 -13   11.08    3.82
  -3   4  13    6.66    3.57
  -3   4  13   12.72    4.09
   3   4 -13   18.50    4.67
  -3   4  13   14.69    3.61
  -2  -4  13    3.01    3.46
   2  -4 -13    5.73    3.85
  -2  -4  13    2.68    2.61
  -2   4  13   10.83    3.65
  -2   4  13    3.94    3.37
  -2   4  13    6.49    3.38
   2   4 -13    6.13    3.78
   2   4 -13   -2.39    3.30
  -1  -4  13    5.40    3.63
  -1  -4  13    1.28    2.77
   1  -4 -13    6.86    3.99
  -1   4  13   -1.53    3.36
   1   4 -13    3.20    3.81
  -1   4  13    1.53    3.27
   1   4 -13    2.49    3.65
   0  -4  13   10.98    4.05
   0  -4  13    6.78    3.33
   0  -4 -13   12.36    4.49
   0   4 -13   11.19    4.26
   0   4 -13    4.70    4.27
   0   4  13    4.64    4.28
   6  -5 -13   20.71    8.16
  -6  -5  13   40.87    6.41
   6   5 -13   43.49    9.53
  -6   5  13   47.06    8.95
   5  -5 -13    2.61    3.64
  -5  -5  13    6.37    3.67
  -5  -5  13    0.61    1.70
  -5   5  13   -4.59    2.63
  -5   5  13    1.08    3.58
   5   5 -13   -0.54    3.73
  -5   5  13    2.35    3.36
  -4  -5  13   17.95    4.30
  -4  -5  13   28.13    3.91
   4  -5 -13   31.52    5.48
  -4   5  13   23.57    4.20
   4   5 -13   30.47    5.35
  -4   5  13   22.93    4.73
  -4   5  13   30.26    5.18
  -3  -5  13    0.31    3.21
  -3  -5  13    3.88    2.44
   3  -5 -13    7.59    3.57
  -3   5  13    4.68    3.15
  -3   5  13    6.66    3.70
  -3   5  13    3.94    3.31
   3   5 -13    0.23    3.94
  -2  -5  13    9.64    3.99
   2  -5 -13   12.53    4.48
  -2  -5  13    7.59    2.96
   2   5 -13   21.02    5.20
  -2   5  13   17.72    4.63
  -2   5  13   22.14    4.61
  -1  -5  13    3.35    3.01
  -1  -5  13   -2.86    3.22
   1  -5 -13    7.52    4.20
   1   5 -13    7.69    4.35
  -1   5  13    3.33    5.43
  -1   5  13    4.34    4.64
   0  -5  13   -1.01    4.42
   0   5 -13   -2.31    5.08
   4  -6 -13    6.14    4.25
  -4   6  13    3.55    3.71
  -4   6  13    0.54    3.35
  -4   6  13    3.49    3.49
   3  -6 -13   22.30    4.99
  -3   6  13   13.12    4.29
  -3   6  13   11.76    4.18
  -3   6  13   17.13    4.19
   2  -6 -13    5.43    4.46
  -2   6  13   -0.70    3.47
   7   0 -14    4.13    4.42
  -7   0  14    1.58    1.75
  -7   0  14    0.61    3.34
  -6   0  14  153.68    7.78
  -6   0  14  155.00   10.37
  -6   0  14  163.29    9.84
   6   0 -14  167.15   10.71
  -5   0  14    0.32    2.30
  -5   0  14    7.27    3.91
  -5   0  14    2.43    3.61
   5   0 -14   -2.08    3.59
  -4   0  14   32.52    5.27
  -4   0  14   37.46    4.83
   4   0 -14   37.09    5.52
   3   0 -14    5.04    3.62
  -3   0  14    2.28    2.76
  -3   0  14    4.58    3.57
   3   0 -14   -2.55    3.35
   2   0 -14   10.17    3.99
  -2   0  14    9.38    3.44
  -2   0  14   13.83    4.32
   2   0 -14   12.76    4.11
   1   0 -14   -0.83    3.62
  -1   0  14   -1.66    3.69
   1   0 -14    4.88    3.63
  -1   0  14    0.61    3.10
   0   0  14    3.26    3.50
  -7  -1  14   63.45    6.96
  -7  -1  14   51.06    3.21
   7   1 -14   65.67    7.49
  -7   1  14   52.32    8.17
  -6  -1  14    1.26    4.00
   6  -1 -14    6.60    3.76
  -6  -1  14    4.28    2.06
  -6  -1  14   11.57    4.12
  -6   1  14    5.51    4.27
  -6   1  14    1.12    3.54
  -6   1  14    6.17    2.50
   6   1 -14    5.05    3.65
  -5  -1  14    7.37    3.75
   5  -1 -14    5.37    3.62
  -5  -1  14    5.80    2.44
  -5   1  14   10.58    4.19
  -5   1  14    7.64    2.69
  -5   1  14    8.39    3.86
   5   1 -14    6.69    3.70
  -4  -1  14    5.72    3.75
  -4  -1  14    7.55    2.80
   4  -1 -14    8.79    3.95
  -4   1  14   10.16    4.12
   4   1 -14   10.76    4.31
   4   1 -14   14.85    4.25
  -4   1  14   11.90    3.12
  -4   1  14   15.91    4.32
  -3  -1  14    1.28    2.67
   3  -1 -14    3.76    3.76
  -3  -1  14    1.29    3.59
  -3   1  14    2.00    2.76
   3   1 -14   -0.85    3.18
  -3   1  14    6.69    3.86
   3   1 -14    5.33    3.72
  -3   1  14   -1.69    3.32
   2  -1 -14   40.30    6.32
  -2  -1  14   43.20    5.71
  -2  -1  14   46.21    7.10
   2  -1 -14   40.39    5.99
   2   1 -14   36.61    5.95
  -2   1  14   30.42    4.46
   2   1 -14   61.96    7.41
  -2   1  14   45.24    6.53
  -1  -1  14   17.29    3.99
  -1  -1  14   27.62    5.79
   1  -1 -14   18.65    5.48
  -1   1  14   23.31    4.28
  -1   1  14   16.90    6.66
   1   1 -14   16.26    4.95
   1   1 -14   22.00    4.58
   0  -1  14   32.97    4.89
   0   1  14   43.92    6.31
  -7  -2  14    2.24    3.47
   7   2 -14   -1.75    3.14
   6  -2 -14    2.83    5.46
  -6  -2  14   -3.64    3.15
  -6  -2  14   -0.64    1.64
   6   2 -14   -1.03    3.25
  -6   2  14    0.79    3.14
  -6   2  14   -3.66    3.98
  -5  -2  14    2.44    3.60
  -5  -2  14    6.29    2.35
   5  -2 -14   10.69    4.29
   5   2 -14    2.88    3.51
  -5   2  14    9.73    3.09
   5   2 -14   12.40    4.47
  -5   2  14    8.41    3.72
  -5   2  14   12.71    4.13
  -4  -2  14   -2.41    2.27
   4  -2 -14    1.49    3.38
  -4  -2  14    1.57    3.48
   4   2 -14    2.05    3.71
  -4   2  14    5.59    3.55
  -4   2  14    2.53    3.51
   4   2 -14    6.02    3.41
  -4   2  14   -0.11    2.60
  -3  -2  14    5.01    3.64
   3  -2 -14   -2.53    3.50
  -3  -2  14    3.09    2.72
  -3   2  14    1.24    3.20
   3   2 -14   -1.23    3.54
   3   2 -14    4.71    3.56
  -3   2  14    3.25    3.46
  -3   2  14    2.56    3.05
  -2  -2  14    0.41    2.75
  -2  -2  14   -0.84    3.60
   2  -2 -14    8.83    4.07
  -2   2  14   -2.40    2.81
  -2   2  14   -2.27    3.24
   2   2 -14    0.94    3.40
   2   2 -14    5.91    3.78
  -2   2  14    2.02    3.47
  -1  -2  14    2.75    3.31
   1   2 -14   10.02    4.10
  -1   2  14   10.06    3.68
   1   2 -14   10.55    4.31
  -6  -3  14  148.62    6.56
   6   3 -14  156.80   10.06
  -6   3  14  144.14    9.68
  -5  -3  14    9.38    4.45
  -5  -3  14    9.90    2.81
  -5   3  14   -0.19    3.30
  -5   3  14   13.56    4.37
   5   3 -14    2.90    3.65
   4  -3 -14   89.15    9.48
  -4  -3  14   79.63    6.31
  -4  -3  14   75.37    7.72
   4   3 -14   96.13    8.99
  -4   3  14   96.20    7.13
  -4   3  14   91.23    8.05
  -4   3  14   88.72    8.01
   4   3 -14   69.36    7.41
  -3  -3  14    0.07    2.72
  -3  -3  14    1.30    3.77
   3  -3 -14   -1.04    4.07
  -3   3  14   -0.76    3.22
  -3   3  14   -2.11    3.38
   3   3 -14    5.02    3.99
  -3   3  14    1.47    3.06
   3   3 -14   -5.02    2.87
  -2  -3  14   89.51    8.50
  -2   3  14   85.25    7.57
  -2   3  14   80.35    7.57
   2   3 -14   85.95    8.48
   2   3 -14   88.79    8.77
   1   3 -14    4.59    3.92
  -1   3  14    3.62    3.56
   1   3 -14    1.99    3.76
  -5   4  14    1.80    3.29
  -4   4  14   -7.30    3.11
  -4   4  14   -0.18    3.52
  -3   4  14   20.25    4.28
  -3   4  14   12.71    4.04
   2   4 -14    2.76    3.79


 _exptl_absorpt_process_details 'SADABS 2014/5'
 _exptl_absorpt_correction_type   multi-scan
 _exptl_absorpt_correction_T_max  0.7461
 _exptl_absorpt_correction_T_min  0.6626
 _exptl_special_details
)
 The following wavelength and cell were deduced by SADABS from the
 direction cosines etc. They are given here for emergency use only:
 CELL 0.71063    8.517    9.223   10.390   89.953  108.378   90.029
)

_computing_structure_solution     'SHELXT 2014/4 (Sheldrick, 2014)'
;
_shelx_hkl_checksum              43096
_olex2_date_sample_completion    2016-09-21
_olex2_date_sample_data_collection 2016-09-21
_olex2_date_sample_submission    2016-09-21
_olex2_submission_original_sample_id AB3_179
_olex2_submission_special_instructions 'No special instructions were received'
loop_
_space_group_symop_operation_xyz
'x, y, z'
'-x+1/2, y+1/2, -z+1/2'
'-x, -y, -z'
'x-1/2, -y-1/2, z-1/2'
loop_
_atom_site_label
_atom_site_type_symbol
_atom_site_fract_x
_atom_site_fract_y
_atom_site_fract_z
_atom_site_U_iso_or_equiv
_atom_site_adp_type
_atom_site_occupancy
_atom_site_site_symmetry_order
_atom_site_calc_flag
_atom_site_refinement_flags_posn
C2 C 0.75910(14) 0.40722(12) 0.56022(11) 0.0148(2) Uani 1 1 d .
C1 C 0.62746(14) 0.89278(14) 0.37355(12) 0.0183(2) Uani 1 1 d .
H1A H 0.595844 0.976870 0.312987 0.028 Uiso 1 1 calc GR
H1B H 0.561055 0.891265 0.435530 0.028 Uiso 1 1 calc GR
H1C H 0.607698 0.803476 0.319445 0.028 Uiso 1 1 calc GR
N1 N 0.80574(11) 0.90297(10) 0.45332(9) 0.01223(18) Uani 1 1 d .
H1D H 0.8240(17) 0.9834(16) 0.5014(14) 0.015 Uiso 1 1 d R
H1E H 0.8308(17) 0.8271(16) 0.5090(14) 0.015 Uiso 1 1 d R
N2 N 0.91849(12) 0.90458(13) 0.37406(10) 0.0184(2) Uani 1 1 d .
H2A H 0.8776(19) 0.9745(18) 0.3116(15) 0.022 Uiso 1 1 d R
H2B H 0.8970(19) 0.8211(18) 0.3262(16) 0.022 Uiso 1 1 d R
N4 N 0.71611(13) 0.40942(10) 0.68595(10) 0.0172(2) Uani 1 1 d .
N3 N 0.80074(11) 0.53776(10) 0.51720(9) 0.01345(19) Uani 1 1 d .
N5 N 0.75328(12) 0.27390(10) 0.49968(9) 0.01360(19) Uani 1 1 d .
O5 O 0.70890(10) 0.17019(9) 0.55842(8) 0.01702(17) Uani 1 1 d .
O6 O 0.79253(11) 0.25796(9) 0.39466(8) 0.02068(19) Uani 1 1 d .
O1 O 0.82704(10) 0.55239(9) 0.40655(8) 0.01772(18) Uani 1 1 d .
O2 O 0.80966(11) 0.64261(9) 0.59747(8) 0.01860(18) Uani 1 1 d .
O4 O 0.57205(13) 0.43793(11) 0.67690(11) 0.0316(2) Uani 1 1 d .
O3 O 0.82540(13) 0.38219(11) 0.79135(9) 0.0285(2) Uani 1 1 d .
loop_
_atom_site_aniso_label
_atom_site_aniso_U_11
_atom_site_aniso_U_22
_atom_site_aniso_U_33
_atom_site_aniso_U_23
_atom_site_aniso_U_13
_atom_site_aniso_U_12
C2 0.0212(5) 0.0133(5) 0.0134(5) -0.0006(4) 0.0104(4) -0.0003(4)
C1 0.0122(5) 0.0249(6) 0.0183(5) -0.0013(4) 0.0053(4) -0.0017(4)
N1 0.0145(4) 0.0114(4) 0.0113(4) 0.0002(3) 0.0048(3) -0.0010(3)
N2 0.0151(4) 0.0274(6) 0.0147(5) -0.0019(4) 0.0073(4) -0.0015(4)
N4 0.0261(5) 0.0119(4) 0.0178(5) -0.0035(4) 0.0128(4) -0.0064(4)
N3 0.0151(4) 0.0126(4) 0.0134(4) 0.0011(3) 0.0054(3) 0.0010(3)
N5 0.0150(4) 0.0129(4) 0.0133(4) 0.0000(3) 0.0050(3) 0.0014(3)
O5 0.0195(4) 0.0120(4) 0.0225(4) 0.0004(3) 0.0108(3) -0.0019(3)
O6 0.0328(5) 0.0184(4) 0.0146(4) -0.0009(3) 0.0129(4) 0.0035(3)
O1 0.0237(4) 0.0187(4) 0.0135(4) 0.0030(3) 0.0098(3) 0.0007(3)
O2 0.0290(4) 0.0123(4) 0.0168(4) -0.0026(3) 0.0105(3) -0.0022(3)
O4 0.0317(5) 0.0300(5) 0.0446(6) -0.0062(4) 0.0284(5) -0.0009(4)
O3 0.0410(6) 0.0268(5) 0.0145(4) 0.0016(4) 0.0043(4) -0.0131(4)
loop_
_atom_type_symbol
_atom_type_description
_atom_type_scat_dispersion_real
_atom_type_scat_dispersion_imag
_atom_type_scat_source
C C 0.0033 0.0016 'International Tables Vol C Tables 4.2.6.8 and 6.1.1.4'
H H 0.0000 0.0000 'International Tables Vol C Tables 4.2.6.8 and 6.1.1.4'
N N 0.0061 0.0033 'International Tables Vol C Tables 4.2.6.8 and 6.1.1.4'
O O 0.0106 0.0060 'International Tables Vol C Tables 4.2.6.8 and 6.1.1.4'
loop_
_geom_angle_atom_site_label_1
_geom_angle_atom_site_label_2
_geom_angle_atom_site_label_3
_geom_angle
N3 C2 N4 116.25(9)
N3 C2 N5 127.81(9)
N5 C2 N4 115.94(9)
H1A C1 H1B 109.5
H1A C1 H1C 109.5
H1B C1 H1C 109.5
N1 C1 H1A 109.5
N1 C1 H1B 109.5
N1 C1 H1C 109.5
C1 N1 H1D 109.7(9)
C1 N1 H1E 107.9(9)
H1D N1 H1E 109.3(13)
N2 N1 C1 115.29(9)
N2 N1 H1D 106.5(9)
N2 N1 H1E 108.1(9)
N1 N2 H2A 104.0(9)
N1 N2 H2B 104.4(9)
H2A N2 H2B 104.3(14)
O4 N4 C2 117.31(10)
O3 N4 C2 117.65(10)
O3 N4 O4 125.03(11)
O1 N3 C2 122.45(9)
O1 N3 O2 122.35(9)
O2 N3 C2 115.19(9)
O5 N5 C2 115.63(9)
O6 N5 C2 121.66(9)
O6 N5 O5 122.70(9)
loop_
_geom_bond_atom_site_label_1
_geom_bond_atom_site_label_2
_geom_bond_distance
C2 N4 1.4609(14)
C2 N3 1.3673(14)
C2 N5 1.3729(14)
C1 H1A 0.9800
C1 H1B 0.9800
C1 H1C 0.9800
C1 N1 1.4834(15)
N1 H1D 0.879(15)
N1 H1E 0.889(15)
N1 N2 1.4459(13)
N2 H2A 0.902(16)
N2 H2B 0.902(17)
N4 O4 1.2268(14)
N4 O3 1.2172(14)
N3 O1 1.2436(12)
N3 O2 1.2616(12)
N5 O5 1.2533(12)
N5 O6 1.2442(12)
