#------------------------------------------------------------------------------
#$Date: 2019-11-26 06:45:24 +0200 (Tue, 26 Nov 2019) $
#$Revision: 242856 $
#$URL: file:///home/coder/svn-repositories/cod/cif/4/13/30/4133003.cif $
#------------------------------------------------------------------------------
#
# This file is available in the Crystallography Open Database (COD),
# http://www.crystallography.net/
#
# All data on this site have been placed in the public domain by the
# contributors.
#
data_4133003
loop_
_publ_author_name
'Liu, Siyuan'
'L\'egar\'e, Marc-Andr\'e'
'Hofmann, Alexander'
'Braunschweig, Holger'
_publ_section_title
;
 A Boradiselenirane and a Boraditellurirane: Isolable Heavy Analogs of
 Dioxiranes and Dithiiranes.
;
_journal_issue                   36
_journal_name_full               'Journal of the American Chemical Society'
_journal_page_first              11223
_journal_page_last               11226
_journal_paper_doi               10.1021/jacs.8b07829
_journal_volume                  140
_journal_year                    2018
_chemical_formula_moiety         'C18 H34 B2 N4 S2'
_chemical_formula_sum            'C18 H34 B2 N4 S2'
_chemical_formula_weight         392.23
_space_group_crystal_system      triclinic
_space_group_IT_number           2
_space_group_name_Hall           '-P 1'
_space_group_name_H-M_alt        'P -1'
_atom_sites_solution_hydrogens   geom
_atom_sites_solution_primary     iterative
_atom_sites_solution_secondary   difmap
_audit_creation_method           SHELXL-2016/6
_cell_angle_alpha                105.103(9)
_cell_angle_beta                 104.95(2)
_cell_angle_gamma                106.457(18)
_cell_formula_units_Z            1
_cell_length_a                   8.0243(20)
_cell_length_b                   8.053(3)
_cell_length_c                   9.721(4)
_cell_measurement_reflns_used    8309
_cell_measurement_temperature    100(2)
_cell_measurement_theta_max      27.54
_cell_measurement_theta_min      2.32
_cell_volume                     543.0(4)
_computing_cell_refinement       'Saint+ ver. V8.38A (Bruker AXS)'
_computing_data_collection       'APEX2 ver. 2014.9 (Bruker AXS)'
_computing_data_reduction        'Saint+ ver. V8.38A (Bruker AXS)'
_computing_molecular_graphics    'ShelXLe (Huebschle et all, 2011)'
_computing_publication_material  'SHELXL-2016/6 (Sheldrick, 2016)'
_computing_structure_refinement  'SHELXL-2016/6 (Sheldrick, 2016)'
_computing_structure_solution    'SHELXT (Sheldrick, 2014)'
_diffrn_ambient_temperature      100(2)
_diffrn_detector                 'CCD area detector (Apex2)'
_diffrn_detector_area_resol_mean 8.333
_diffrn_measured_fraction_theta_full 0.999
_diffrn_measured_fraction_theta_max 0.999
_diffrn_measurement_device_type  'Bruker X8-APEX II'
_diffrn_measurement_method       '\f and \w scans'
_diffrn_radiation_monochromator  'multi-layer mirror'
_diffrn_radiation_type           MoK\a
_diffrn_radiation_wavelength     0.71073
_diffrn_reflns_av_R_equivalents  0.0367
_diffrn_reflns_av_unetI/netI     0.0242
_diffrn_reflns_Laue_measured_fraction_full 0.999
_diffrn_reflns_Laue_measured_fraction_max 0.999
_diffrn_reflns_limit_h_max       9
_diffrn_reflns_limit_h_min       -9
_diffrn_reflns_limit_k_max       9
_diffrn_reflns_limit_k_min       -6
_diffrn_reflns_limit_l_max       11
_diffrn_reflns_limit_l_min       -11
_diffrn_reflns_number            13340
_diffrn_reflns_point_group_measured_fraction_full 0.999
_diffrn_reflns_point_group_measured_fraction_max 0.999
_diffrn_reflns_theta_full        26.000
_diffrn_reflns_theta_max         26.010
_diffrn_reflns_theta_min         2.324
_diffrn_source                   'rotating-anode (Nonius FR-591)'
_exptl_absorpt_coefficient_mu    0.255
_exptl_absorpt_correction_T_max  0.7456
_exptl_absorpt_correction_T_min  0.6716
_exptl_absorpt_correction_type   multi-scan
_exptl_absorpt_process_details   'SadAbs 2016/2 (Bruker AXS)'
_exptl_crystal_colour            colourless
_exptl_crystal_density_diffrn    1.199
_exptl_crystal_description       block
_exptl_crystal_F_000             212
_exptl_crystal_size_max          0.307
_exptl_crystal_size_mid          0.296
_exptl_crystal_size_min          0.283
_refine_diff_density_max         0.386
_refine_diff_density_min         -0.231
_refine_diff_density_rms         0.054
_refine_ls_extinction_method     none
_refine_ls_goodness_of_fit_ref   1.173
_refine_ls_hydrogen_treatment    constr
_refine_ls_matrix_type           full
_refine_ls_number_parameters     123
_refine_ls_number_reflns         2137
_refine_ls_number_restraints     0
_refine_ls_restrained_S_all      1.173
_refine_ls_R_factor_all          0.0431
_refine_ls_R_factor_gt           0.0387
_refine_ls_shift/su_max          0.000
_refine_ls_shift/su_mean         0.000
_refine_ls_structure_factor_coef Fsqd
_refine_ls_weighting_details
'w=1/[\s^2^(Fo^2^)+(0.0234P)^2^+0.5742P] where P=(Fo^2^+2Fc^2^)/3'
_refine_ls_weighting_scheme      calc
_refine_ls_wR_factor_gt          0.0904
_refine_ls_wR_factor_ref         0.0928
_reflns_Friedel_coverage         0.000
_reflns_number_gt                1975
_reflns_number_total             2137
_reflns_threshold_expression     'I > 2\s(I)'
_cod_data_source_file            ja8b07829_si_007.cif
_cod_data_source_block           AlHo077_a
_cod_original_cell_volume        543.0(3)
_cod_database_code               4133003
_shelx_shelxl_version_number     2016/6
_shelx_space_group_comment
;
The symmetry employed for this shelxl refinement is uniquely defined
by the following loop, which should always be used as a source of
symmetry information in preference to the above space-group names.
They are only intended as comments.
;
_shelx_estimated_absorpt_t_min   0.926
_shelx_estimated_absorpt_t_max   0.931
_shelx_res_file
;
TITL AlHo077_a.res in P-1
    AlHo077_a.res
    created by SHELXL-2016/6 at 12:17:54 on 14-Mar-2018
REM Old TITL AlHo077 in P1

REM SHELXT solution in P-1
REM R1 0.098,  Rweak 0.010,  Alpha 0.037,  Orientation as input
REM Formula found by SHELXT:  C10 N2 S

CELL  0.71073   8.02431    8.05338    9.72085  105.1032  104.9516  106.4569
ZERR    1.000   0.00195    0.00332    0.00371    0.0089    0.0238    0.0181
LATT  1
SFAC C H B N S
UNIT 18 34 2 4 2
TEMP -173.15
SIZE 0.283 0.296 0.307
L.S. 10
BOND $H
LIST 4
Acta 52
Shel 999. 0.81
Conf
OMIT  -2  -1   2
FMAP 2
PLAN 20
WGHT    0.023400    0.574200
FVAR       1.10499
S1    5    0.374733    0.595020    0.508895    11.00000    0.01601    0.01511 =
         0.01455    0.00763    0.00795    0.00742
B2    3    0.481509    0.501350    0.361004    11.00000    0.01431    0.01257 =
         0.01376    0.00626    0.00758    0.00406
RESI 1 TBU
C1    1    0.329251    0.338477    0.198835    11.00000    0.01725    0.01317 =
         0.01222    0.00408    0.00496    0.00244
C2    1    0.429431    0.241035    0.109523    11.00000    0.02801    0.01969 =
         0.01550    0.00421    0.00858    0.00624
AFIX 137
H2A   2    0.336995    0.138058    0.017525    11.00000   -1.50000
H2B   2    0.503724    0.193064    0.173915    11.00000   -1.50000
H2C   2    0.511237    0.330060    0.080375    11.00000   -1.50000
AFIX   0
C3    1    0.187417    0.192757    0.229291    11.00000    0.02064    0.01560 =
         0.01928    0.00544    0.00382   -0.00110
AFIX 137
H3A   2    0.110121    0.087549    0.133720    11.00000   -1.50000
H3B   2    0.108165    0.248232    0.270124    11.00000   -1.50000
H3C   2    0.253455    0.149497    0.303465    11.00000   -1.50000
AFIX   0
C4    1    0.218900    0.415439    0.094895    11.00000    0.02263    0.02034 =
         0.01595    0.00682    0.00279    0.00357
AFIX 137
H4A   2    0.128225    0.313089    0.001706    11.00000   -1.50000
H4B   2    0.304687    0.503858    0.068084    11.00000   -1.50000
H4C   2    0.153464    0.478415    0.148655    11.00000   -1.50000
AFIX   0
RESI 0
RESI 2 IME
C1    1    0.617962    0.676533    0.334213    11.00000    0.01613    0.01449 =
         0.01095    0.00487    0.00454    0.00199
N1    4    0.790484    0.706714    0.328556    11.00000    0.01686    0.02113 =
         0.01628    0.00962    0.00688    0.00332
C2    1    0.864834    0.877901    0.317785    11.00000    0.02190    0.02277 =
         0.01700    0.00928    0.00608   -0.00488
AFIX  43
H2    2    0.984233    0.930725    0.313123    11.00000   -1.20000
AFIX   0
N2    4    0.585716    0.830538    0.323768    11.00000    0.02262    0.01278 =
         0.01495    0.00701    0.00719    0.00283
C3    1    0.737881    0.955381    0.315140    11.00000    0.02869    0.01469 =
         0.01672    0.00813    0.00644   -0.00263
AFIX  43
H3    2    0.749849    1.073590    0.308587    11.00000   -1.20000
AFIX   0
C4    1    0.891615    0.581582    0.326711    11.00000    0.02121    0.03823 =
         0.03183    0.02329    0.01633    0.01355
AFIX 137
H4A   2    0.918412    0.554099    0.232302    11.00000   -1.50000
H4B   2    0.815555    0.465971    0.331910    11.00000   -1.50000
H4C   2    1.008691    0.640767    0.414683    11.00000   -1.50000
AFIX   0
C5    1    0.414532    0.864968    0.308300    11.00000    0.02872    0.01790 =
         0.02354    0.01121    0.01071    0.01061
AFIX 137
H5A   2    0.444833    0.997335    0.360450    11.00000   -1.50000
H5B   2    0.341440    0.792401    0.354136    11.00000   -1.50000
H5C   2    0.342033    0.828357    0.199896    11.00000   -1.50000
RESI 0
AFIX   0
HKLF 4




REM  AlHo077_a.res in P-1
REM R1 =  0.0387 for    1975 Fo > 4sig(Fo)  and  0.0431 for all    2137 data
REM    123 parameters refined using      0 restraints

END

WGHT      0.0234      0.5742

REM Highest difference peak  0.386,  deepest hole -0.231,  1-sigma level  0.054
Q1    1   0.4708  0.5759  0.4871  11.00000  0.05    0.39
Q2    1   0.4057  0.4227  0.2792  11.00000  0.05    0.37
Q3    1   0.5644  0.5941  0.3549  11.00000  0.05    0.35
Q4    1   0.2766  0.6183  0.5263  11.00000  0.05    0.34
Q5    1   0.2693  0.2728  0.2211  11.00000  0.05    0.29
Q6    1   1.0097  0.6321  0.3207  11.00000  0.05    0.29
Q7    1   0.3783  0.3007  0.1670  11.00000  0.05    0.29
Q8    1   0.8360  0.6435  0.3176  11.00000  0.05    0.27
Q9    1   0.4494  0.6957  0.4997  11.00000  0.05    0.26
Q10   1   0.2761  0.3636  0.1455  11.00000  0.05    0.25
Q11   1   0.5014  0.8381  0.3032  11.00000  0.05    0.25
Q12   1   0.8224  0.7864  0.3045  11.00000  0.05    0.25
Q13   1   0.7764  0.8874  0.2660  11.00000  0.05    0.25
Q14   1   0.8066  0.4623  0.2518  11.00000  0.05    0.25
Q15   1   0.6437  0.8932  0.3090  11.00000  0.05    0.24
Q16   1   0.6972  0.6643  0.3126  11.00000  0.05    0.24
Q17   1   0.9119  0.5688  0.4058  11.00000  0.05    0.24
Q18   1   0.6597  1.0775  0.3041  11.00000  0.05    0.23
Q19   1   0.5565  0.5055  0.4412  11.00000  0.05    0.21
Q20   1   0.9766  0.8716  0.2969  11.00000  0.05    0.21
;
_shelx_res_checksum              16859
_shelx_hkl_file
;
  -1   0   0 2594.14  100.09
  -1   0   0 2782.82  100.29
  -1   0   0 2625.24  100.09
  -1   0   0 2774.62  100.29
  -1   0   0 2652.03  104.19
  -1   0   0 2617.74   99.69
  -1   0   0 2573.94   99.89
   1   0   0 2668.23  100.09
   1   0   0 2672.13   99.99
   1   0   0 2790.82  104.79
   1   0   0 2832.32   99.79
   1   0   0 2710.53   99.89
   1   0   0 2517.25   99.69
   1   0   0 2771.82  100.69
  -2   0   0  213.58    9.30
  -2   0   0  228.58    9.40
  -2   0   0  211.88    9.20
  -2   0   0  221.98    9.20
  -2   0   0  218.58   10.40
  -2   0   0  234.68    9.30
  -2   0   0  225.88    8.90
  -2   0   0  229.38    9.10
   2   0   0  202.28    9.30
   2   0   0  226.18    9.30
   2   0   0  222.28   10.20
   2   0   0  217.18    9.10
   2   0   0  223.58    8.90
   2   0   0  213.28    9.20
  -3   0   0   15.40    2.30
  -3   0   0   13.50    2.30
  -3   0   0   11.00    2.10
  -3   0   0   15.20    2.00
  -3   0   0   14.40    2.40
  -3   0   0   15.70    2.50
  -3   0   0   12.90    2.10
  -3   0   0   16.40    3.60
   3   0   0   15.70    2.40
   3   0   0   15.10    2.30
   3   0   0   16.70    1.90
   3   0   0   20.60    3.70
   3   0   0   11.90    2.30
   3   0   0   16.30    2.30
   3   0   0   13.00    2.10
  -4   0   0  789.42   30.70
  -4   0   0  735.23   32.90
  -4   0   0  767.12   29.70
  -4   0   0  719.73   30.20
  -4   0   0  796.92   30.00
  -4   0   0  813.12   30.40
  -4   0   0  723.13   30.40
   4   0   0  822.42   30.50
   4   0   0  795.32   30.80
   4   0   0  735.73   30.00
   4   0   0  799.62   29.60
   4   0   0  730.43   30.30
   4   0   0  721.83   30.60
  -5   0   0  502.15   22.40
  -5   0   0  567.64   23.30
  -5   0   0  565.14   22.70
  -5   0   0  523.15   22.70
  -5   0   0  482.05   25.20
  -5   0   0  530.45   21.70
   5   0   0  529.85   22.60
   5   0   0  524.55   22.20
   5   0   0  510.35   23.00
   5   0   0  564.84   22.60
   5   0   0  572.14   21.60
  -6   0   0   31.60    4.80
  -6   0   0   38.80    8.20
  -6   0   0   43.70    5.80
  -6   0   0   35.20    4.40
   6   0   0   32.50    4.70
   6   0   0   38.10    5.80
   6   0   0   35.90    5.20
  -7   0   0   60.39    9.70
  -7   0   0   77.79    6.30
  -7   0   0   77.09    8.00
  -7   0   0   81.39    7.50
   7   0   0   73.79    7.00
   7   0   0   84.79    8.00
   7   0   0   76.59    8.20
  -8   0   0  109.19   13.40
  -8   0   0  123.39   10.00
   8   0   0  117.09    9.70
   8   0   0  130.19   15.00
   8   0   0  116.19    9.10
  -9   0   0    8.30    7.40
  -9   0   0    9.50    5.00
   9   0   0    9.20    4.60
   9  -1   0   42.00    7.10
  -9   1   0   36.80   10.00
  -9   1   0   36.80    7.10
   8  -1   0  165.68    9.90
   8  -1   0  175.48   11.60
  -8   1   0  170.28   11.40
  -8   1   0  168.88   11.60
  -8   1   0  131.99   14.40
  -8   1   0  150.18    9.90
   7  -1   0  456.45   20.20
   7  -1   0  480.75   21.30
   7  -1   0  472.05   21.90
  -7   1   0  459.45   21.20
  -7   1   0  448.56   21.40
  -7   1   0  441.06   25.30
  -7   1   0  453.45   20.20
   6  -1   0   82.59    6.80
   6  -1   0   84.19    6.00
   6  -1   0   97.89    7.60
  -6   1   0   84.39    6.20
  -6   1   0   92.79    7.00
  -6   1   0   84.49    7.00
  -6   1   0   84.49    7.10
  -6   1   0   87.99    9.60
   5  -1   0    3.40    2.10
   5  -1   0    2.70    1.80
   5  -1   0    3.30    2.00
   5  -1   0    3.30    2.20
  -5   1   0   10.80    3.90
  -5   1   0   -0.40    1.80
  -5   1   0    2.80    2.10
  -5   1   0    2.00    2.00
  -5   1   0    0.80    1.50
  -5   1   0    1.80    2.20
   4  -1   0   12.20    2.20
   4  -1   0    6.70    2.40
   4  -1   0   10.00    2.30
   4  -1   0   10.90    2.80
   4  -1   0    8.60    2.20
  -4   1   0    5.10    1.90
  -4   1   0    9.50    2.50
  -4   1   0    6.70    1.80
  -4   1   0   11.80    2.40
  -4   1   0    6.90    2.40
  -4   1   0    5.60    2.20
   3  -1   0   87.29    4.70
   3  -1   0   94.19    4.80
   3  -1   0   87.19    4.50
   3  -1   0   74.59    5.50
   3  -1   0   71.99    4.40
   3  -1   0   81.19    4.80
   3  -1   0   89.89    4.50
   3  -1   0   83.09    4.30
  -3   1   0   83.09    4.90
  -3   1   0   86.19    4.80
  -3   1   0   84.69    4.20
  -3   1   0   67.99    5.50
  -3   1   0   90.69    4.60
  -3   1   0   85.39    4.70
  -3   1   0   81.79    4.60
   2  -1   0  375.66   14.20
   2  -1   0  370.66   14.00
   2  -1   0  350.36   14.40
   2  -1   0  384.66   15.40
   2  -1   0  370.26   14.30
   2  -1   0  356.26   14.30
   2  -1   0  384.26   14.40
   2  -1   0  370.46   14.20
  -2   1   0  352.86   15.30
  -2   1   0  379.96   14.30
  -2   1   0  358.16   14.40
  -2   1   0  368.26   14.20
  -2   1   0  356.46   14.50
  -2   1   0  342.77   14.30
  -2   1   0  351.36   14.30
  -2   1   0  368.26   13.90
   1  -1   0 4405.26  167.98
   1  -1   0 4797.52  168.58
   1  -1   0 4522.95  168.88
   1  -1   0 4613.14  168.28
   1  -1   0 4679.03  172.58
  -1   1   0 4492.25  172.08
  -1   1   0 4583.74  168.98
  -1   1   0 4409.86  168.48
  -1   1   0 4515.85  168.78
  -1   1   0 4683.93  169.68
  -1   1   0 4641.74  168.18
  -1   1   0 4280.77  168.08
   0  -1   0 1245.88   42.40
   0  -1   0 1163.78   42.30
   0   1   0 1086.99   42.70
   0   1   0 1129.09   42.30
   0   1   0 1065.09   42.30
   0   1   0 1182.48   42.40
   0   1   0 1146.49   42.30
  -1  -1   0 1378.46   50.99
  -1  -1   0 1391.56   50.89
  -1  -1   0 1386.06   50.69
  -1  -1   0 1312.27   50.69
  -1  -1   0 1397.96   50.79
  -1  -1   0 1460.35   51.49
   1   1   0 1308.67   50.79
   1   1   0 1307.37   50.69
   1   1   0 1390.16   50.79
   1   1   0 1298.67   50.99
   1   1   0 1360.46   50.69
   1   1   0 1428.36   51.49
   1   1   0 1405.06   51.89
   1   1   0 1327.97   50.69
  -2  -1   0  363.76   15.00
  -2  -1   0  359.86   16.70
  -2  -1   0  393.26   14.50
  -2  -1   0  417.66   14.80
  -2  -1   0  380.36   15.00
  -2  -1   0  363.86   15.10
  -2  -1   0  390.26   15.30
  -2  -1   0  385.16   15.30
   2   1   0  388.46   15.00
   2   1   0  353.46   15.00
   2   1   0  369.56   15.10
   2   1   0  373.96   14.40
   2   1   0  375.46   16.50
   2   1   0  358.16   15.30
   2   1   0  392.86   14.90
   2   1   0  357.26   15.30
  -3  -1   0   51.29    4.00
  -3  -1   0   46.30    5.40
  -3  -1   0   47.90    3.50
  -3  -1   0   43.50    4.00
  -3  -1   0   44.80    3.10
  -3  -1   0   44.80    3.90
  -3  -1   0   43.10    3.90
  -3  -1   0   47.80    3.80
   3   1   0   43.40    3.40
   3   1   0   46.30    4.30
   3   1   0   46.40    2.90
   3   1   0   39.40    3.80
   3   1   0   41.70    4.10
   3   1   0   45.40    3.90
   3   1   0   50.49    5.00
  -4  -1   0  653.03   27.10
  -4  -1   0  678.73   26.00
  -4  -1   0  624.64   29.80
  -4  -1   0  654.23   26.90
  -4  -1   0  731.13   26.50
   4   1   0  711.43   25.90
   4   1   0  658.13   27.50
   4   1   0  693.33   27.10
   4   1   0  639.14   27.10
   4   1   0  639.94   27.00
  -5  -1   0   69.59    5.90
  -5  -1   0   67.29    5.80
  -5  -1   0   72.89    5.20
  -5  -1   0   71.59    8.50
  -5  -1   0   68.89    4.70
   5   1   0   70.19    6.00
   5   1   0   72.09    5.70
   5   1   0   64.59    5.80
   5   1   0   74.09    4.50
   5   1   0   63.89    6.20
  -6  -1   0    7.30    3.70
  -6  -1   0    8.10    2.60
  -6  -1   0    5.50    5.90
  -6  -1   0    9.80    3.50
   6   1   0    4.20    3.50
   6   1   0    7.00    3.90
   6   1   0    9.00    3.70
  -7  -1   0  139.89   14.30
  -7  -1   0  160.18   10.80
   7   1   0  150.18   11.20
   7   1   0  158.48   10.70
   7   1   0  155.78   10.40
  -8  -1   0   39.20    9.90
  -8  -1   0   53.59    7.30
   8   1   0   53.99    8.00
   8   1   0   35.60    6.30
   8   1   0   36.40    6.10
   9  -2   0   25.80    6.00
  -9   2   0   30.10    9.40
  -9   2   0   26.10    6.40
  -9   2   0   21.00    5.20
   8  -2   0  358.96   18.10
   8  -2   0  347.97   17.10
  -8   2   0  361.96   18.40
  -8   2   0  369.26   18.40
  -8   2   0  358.46   22.40
  -8   2   0  348.67   17.30
   7  -2   0  111.99    7.10
   7  -2   0  100.89    8.50
   7  -2   0  104.59    8.30
  -7   2   0  101.29    7.90
  -7   2   0  121.59   11.40
  -7   2   0   90.49    8.30
  -7   2   0  106.09    8.40
   6  -2   0   62.69    5.50
   6  -2   0   65.09    5.00
   6  -2   0   64.59    5.80
   6  -2   0   65.09    6.20
  -6   2   0   67.99    4.50
  -6   2   0   66.89    5.80
  -6   2   0   60.39    5.90
  -6   2   0   65.59    6.10
  -6   2   0   57.29    8.00
  -6   2   0   68.09    5.70
   5  -2   0  523.05   21.30
   5  -2   0  514.45   22.00
   5  -2   0  519.95   21.60
   5  -2   0  533.75   20.80
  -5   2   0  512.45   21.60
  -5   2   0  477.65   24.00
  -5   2   0  548.55   22.20
  -5   2   0  512.45   21.60
  -5   2   0  518.15   21.90
  -5   2   0  547.15   20.60
   4  -2   0    4.40    2.00
   4  -2   0    7.90    2.20
   4  -2   0    2.70    1.90
   4  -2   0    7.00    2.00
  -4   2   0    8.80    2.30
  -4   2   0    4.00    1.40
  -4   2   0    1.30    1.70
  -4   2   0    3.20    1.70
  -4   2   0    4.30    1.90
  -4   2   0    4.80    2.00
   3  -2   0  296.37   11.50
   3  -2   0  312.87   13.50
   3  -2   0  291.77   11.60
   3  -2   0  293.27   11.80
   3  -2   0  296.37   12.30
   3  -2   0  277.87   11.90
   3  -2   0  287.17   11.80
  -3   2   0  281.37   12.10
  -3   2   0  301.97   11.90
  -3   2   0  266.47   12.00
  -3   2   0  282.67   13.40
  -3   2   0  303.27   11.70
  -3   2   0  272.07   12.20
  -3   2   0  263.77   11.80
  -3   2   0  279.77   11.30
   2  -2   0  148.39    6.40
   2  -2   0  161.88    6.40
   2  -2   0  150.98    6.50
   2  -2   0  147.59    6.40
   2  -2   0  156.38    6.30
   2  -2   0  159.58    7.60
  -2   2   0  144.59    6.40
  -2   2   0  145.19    6.50
  -2   2   0  166.68    6.50
  -2   2   0  156.78    6.40
  -2   2   0  151.98    7.00
  -2   2   0  155.18    7.60
  -2   2   0  149.59    6.50
  -2   2   0  142.49    6.30
   1  -2   0  227.68    8.00
  -1   2   0  209.88    8.10
  -1   2   0  204.78    8.10
  -1   2   0  209.38    9.50
  -1   2   0  220.78    8.10
   0  -2   0   55.09    2.20
   0   2   0   47.30    2.90
   0   2   0   51.19    2.30
   0   2   0   48.20    2.30
   0   2   0   52.49    2.20
   0   2   0   52.19    2.40
  -1  -2   0    8.90    1.20
  -1  -2   0    5.20    1.20
  -1  -2   0    5.50    1.10
  -1  -2   0    5.80    1.20
   1   2   0    6.30    1.30
   1   2   0    6.70    1.20
   1   2   0    6.30    1.20
   1   2   0    8.20    1.90
   1   2   0    9.50    1.20
   1   2   0   11.50    1.60
  -2  -2   0  117.19    6.00
  -2  -2   0  126.59    5.60
  -2  -2   0  113.89    6.00
  -2  -2   0  125.09    5.90
   2   2   0  110.29    6.00
   2   2   0  118.39    6.10
   2   2   0  118.19    5.80
   2   2   0  126.39    5.70
   2   2   0  123.19    7.70
   2   2   0  114.99    6.70
   2   2   0  123.69    5.20
   2   2   0  112.59    6.30
  -3  -2   0   79.79    5.40
  -3  -2   0  102.89    4.60
  -3  -2   0   87.99    5.50
  -3  -2   0   91.59    5.00
   3   2   0   94.79    5.60
   3   2   0  107.89    4.50
   3   2   0   96.79    6.00
   3   2   0   91.99    5.30
   3   2   0  102.09    5.40
   3   2   0   89.49    6.30
   3   2   0   90.59    5.60
  -4  -2   0   57.09    4.90
  -4  -2   0   74.79    7.50
  -4  -2   0   59.99    3.80
  -4  -2   0   55.59    4.10
  -4  -2   0   53.79    4.70
   4   2   0   58.19    5.00
   4   2   0   65.69    4.90
   4   2   0   52.89    5.20
   4   2   0   59.99    3.40
   4   2   0   63.59    5.50
  -5  -2   0    4.60    2.10
  -5  -2   0    3.40    1.90
  -5  -2   0    5.40    2.80
  -5  -2   0    4.60    2.70
  -5  -2   0    4.80    4.40
   5   2   0    5.20    3.00
   5   2   0    5.30    3.30
   5   2   0    8.20    3.40
  -6  -2   0   18.80    4.60
   6   2   0   14.70    4.40
   6   2   0   19.40    4.30
   6   2   0   18.50    5.00
  -7  -2   0    9.50    4.10
   7   2   0   10.30    4.20
   7   2   0    2.30    4.00
   7   2   0    9.90    4.40
  -8  -2   0   24.50    5.80
   8   2   0   10.80    5.50
   8   2   0   12.40    4.50
   8   2   0   17.80    5.40
  10  -3   0   49.90    7.20
 -10   3   0   45.30    6.80
   9  -3   0    4.40    4.00
  -9   3   0    0.30    4.00
  -9   3   0    0.00    4.00
  -9   3   0   -6.40    6.20
  -9   3   0   -2.60    4.30
   8  -3   0    2.20    3.40
  -8   3   0   21.70    7.20
  -8   3   0    1.90    3.40
  -8   3   0    5.00    3.90
  -8   3   0   -1.20    3.90
   7  -3   0   28.90    4.70
   7  -3   0   25.10    3.70
  -7   3   0   23.70    4.50
  -7   3   0   22.60    4.80
  -7   3   0   18.40    6.70
  -7   3   0   28.80    5.10
   6  -3   0  352.86   14.40
   6  -3   0  339.37   15.80
   6  -3   0  331.07   14.60
   6  -3   0  326.67   15.40
  -6   3   0  322.47   18.50
  -6   3   0  329.37   15.50
  -6   3   0  322.57   15.70
  -6   3   0  357.06   14.10
  -6   3   0  375.66   16.30
  -6   3   0  328.37   15.90
   5  -3   0   65.99    4.10
   5  -3   0   64.59    4.80
   5  -3   0   57.09    5.70
  -5   3   0   62.99    5.00
  -5   3   0   54.99    6.50
  -5   3   0   65.39    5.20
  -5   3   0   66.19    3.80
  -5   3   0   62.89    4.90
  -5   3   0   60.09    5.00
  -5   3   0   73.89    4.80
   4  -3   0  284.07   11.60
   4  -3   0  274.07   11.90
   4  -3   0  265.97   12.90
  -4   3   0  284.97   11.60
  -4   3   0  283.87   11.20
  -4   3   0  289.77   11.90
  -4   3   0  258.67   12.10
  -4   3   0  263.67   12.50
  -4   3   0  273.47   14.00
  -4   3   0  258.37   11.80
  -4   3   0  285.77   12.30
   3  -3   0    3.10    2.20
   3  -3   0    5.10    1.30
   3  -3   0    5.10    1.50
   3  -3   0    6.70    1.70
   3  -3   0    6.50    1.40
   3  -3   0    6.30    1.50
  -3   3   0    2.20    2.40
  -3   3   0    5.20    1.70
  -3   3   0    6.70    1.60
  -3   3   0    4.90    2.10
  -3   3   0    7.20    1.70
  -3   3   0    5.10    1.50
  -3   3   0    6.20    1.70
  -3   3   0    6.30    1.70
   2  -3   0  529.75   22.50
   2  -3   0  594.54   20.30
   2  -3   0  570.24   20.40
   2  -3   0  585.14   20.50
  -2   3   0  510.95   20.60
  -2   3   0  541.65   21.70
  -2   3   0  554.34   20.60
  -2   3   0  512.75   20.60
  -2   3   0  539.85   21.70
  -2   3   0  545.55   22.60
  -2   3   0  527.55   20.70
   0  -3   0   42.90    2.00
   0   3   0   39.50    2.20
   0   3   0   39.10    2.30
   0   3   0   39.80    2.30
   0   3   0   43.70    3.20
   0   3   0   41.60    3.50
   0   3   0   42.80    2.10
  -1  -3   0  154.48    6.50
  -1  -3   0  162.68    6.60
  -1  -3   0  145.09    6.60
   1   3   0  138.79    6.90
   1   3   0  149.88    6.50
   1   3   0  146.29    6.70
   1   3   0  151.68    8.00
   1   3   0  154.78    7.00
   1   3   0  146.09    6.70
  -2  -3   0 1790.02   68.39
  -2  -3   0 1880.81   68.19
  -2  -3   0 1838.72   68.39
   2   3   0 1786.32   68.49
   2   3   0 1907.01   68.19
   2   3   0 1835.72   68.19
   2   3   0 1923.41   67.69
   2   3   0 1851.21   68.59
   2   3   0 1706.43   68.79
   2   3   0 1745.13   69.59
  -3  -3   0  920.31   36.10
  -3  -3   0  895.01   36.10
  -3  -3   0  968.00   35.40
   3   3   0  891.11   37.20
   3   3   0  940.51   35.50
   3   3   0  895.81   36.10
   3   3   0  888.71   36.60
   3   3   0  922.41   36.20
   3   3   0  964.50   35.90
   3   3   0  959.80   34.80
  -4  -3   0   78.59    5.80
  -4  -3   0   82.09    4.90
   4   3   0   75.09    6.00
   4   3   0   81.99    6.00
   4   3   0   69.59    6.40
   4   3   0   65.69    7.00
   4   3   0   84.29    4.20
   4   3   0   78.29    5.70
  -5  -3   0   40.10    5.10
   5   3   0   32.00    5.20
   5   3   0   35.10    4.80
   5   3   0   42.60    6.00
  -6  -3   0  243.08   13.10
   6   3   0  250.37   14.50
   6   3   0  224.08   13.00
   6   3   0  217.98   13.60
  -7  -3   0  103.29   12.50
   7   3   0   54.99    7.60
   7   3   0   60.19    7.30
   7   3   0   56.59    7.60
 -10   4   0   82.29    9.00
 -10   4   0   64.29    8.70
   9  -4   0  135.99   10.00
  -9   4   0  116.69   13.20
  -9   4   0  147.79   10.80
  -9   4   0  112.89   10.00
  -9   4   0  123.49   10.40
   8  -4   0  112.89    8.40
  -8   4   0  102.29    8.80
  -8   4   0   82.59   11.20
  -8   4   0  118.09    9.00
  -8   4   0  101.49    8.70
   7  -4   0    3.70    2.70
  -7   4   0    0.70    3.20
  -7   4   0    4.90    4.00
  -7   4   0    1.80    3.00
  -7   4   0   15.20    5.90
   6  -4   0  229.08   11.20
   6  -4   0  221.98   10.20
  -6   4   0  244.88   11.90
  -6   4   0  224.08   11.40
  -6   4   0  241.08    9.90
  -6   4   0  240.28   11.10
  -6   4   0  185.98   13.70
  -6   4   0  231.88   11.80
  -6   4   0  230.38   12.10
   5  -4   0  490.35   19.40
   5  -4   0  464.75   19.80
   5  -4   0  490.65   19.80
  -5   4   0  466.35   19.80
  -5   4   0  509.05   19.00
  -5   4   0  449.95   19.20
  -5   4   0  496.85   20.40
  -5   4   0  542.45   19.90
  -5   4   0  472.45   20.90
  -5   4   0  476.25   20.20
  -5   4   0  443.46   22.50
   4  -4   0 1249.77   48.30
   4  -4   0 1273.17   48.30
  -4   4   0 1195.88   48.50
  -4   4   0 1296.97   49.70
  -4   4   0 1371.86   48.20
  -4   4   0 1335.27   48.30
  -4   4   0 1300.27   51.19
  -4   4   0 1294.17   48.80
  -4   4   0 1275.87   48.50
  -4   4   0 1205.28   48.20
   3  -4   0  281.87   11.40
   3  -4   0  276.17   13.90
   3  -4   0  289.57   11.20
   3  -4   0  312.47   11.40
  -3   4   0  275.87   13.90
  -3   4   0  271.97   11.60
  -3   4   0  281.47   12.50
  -3   4   0  281.07   12.90
  -3   4   0  303.37   11.40
  -3   4   0  280.97   11.80
  -2   4   0  500.25   19.20
  -2   4   0  495.85   21.90
  -2   4   0  503.45   19.20
  -2   4   0  522.85   21.50
  -2   4   0  528.25   20.80
  -1   4   0  392.76   16.80
   0  -4   0  486.65   17.50
   0   4   0  460.95   17.80
   0   4   0  484.95   17.60
   0   4   0  441.56   18.00
   0   4   0  475.55   19.20
   0   4   0  458.35   17.70
   0   4   0  465.55   19.70
  -1  -4   0   74.19    3.80
  -1  -4   0   61.09    3.50
   1   4   0   59.99    3.60
   1   4   0   59.09    3.90
   1   4   0   63.29    5.20
   1   4   0   63.19    4.20
   1   4   0   69.79    3.50
   1   4   0   59.49    3.70
  -2  -4   0  394.16   16.30
   2   4   0  372.26   16.80
   2   4   0  416.06   16.30
   2   4   0  390.26   16.50
   2   4   0  389.86   18.10
   2   4   0  418.16   15.80
   2   4   0  400.16   16.50
   2   4   0  402.46   16.10
  -3  -4   0  194.48    8.60
  -3  -4   0  183.38    9.20
   3   4   0  179.58   10.80
   3   4   0  178.58    8.80
   3   4   0  167.78    9.30
   3   4   0  174.78    9.80
   3   4   0  178.18    9.20
   3   4   0  191.78    8.80
   3   4   0  196.68    8.00
  -4  -4   0  165.58    9.00
   4   4   0  153.08    9.70
   4   4   0  151.48    9.10
   4   4   0  159.68   10.60
  -5  -4   0   -1.60    2.40
   5   4   0    0.00    2.70
   5   4   0    2.00    3.10
   5   4   0    6.20    4.70
   6   4   0   37.40    5.50
   6   4   0   43.70    6.60
   6   4   0   35.90    6.90
   7   4   0   44.20    8.10
   7   4   0   35.90    6.80
  -9   5   0   41.20    7.20
  -9   5   0   43.30    6.80
  -9   5   0   54.19   11.70
  -9   5   0   36.70    6.30
   8  -5   0   57.09    8.60
  -8   5   0   61.59    7.90
  -8   5   0   64.29    7.30
  -8   5   0   54.39    9.80
  -8   5   0   60.89    7.10
   7  -5   0   84.79    6.30
  -7   5   0   78.19    7.40
  -7   5   0   76.79    9.70
  -7   5   0   70.49    6.60
  -7   5   0   80.29    7.10
   6  -5   0  109.59    6.30
  -6   5   0  104.19    6.60
  -6   5   0   98.59    7.10
  -6   5   0   96.49    8.00
  -6   5   0  106.29    7.10
  -6   5   0   71.29    8.90
   5  -5   0  606.94   24.30
   5  -5   0  614.04   24.30
  -5   5   0  669.13   24.50
  -5   5   0  609.94   24.50
  -5   5   0  583.34   27.80
  -5   5   0  634.34   25.10
  -5   5   0  599.74   24.80
  -5   5   0  591.64   24.40
  -5   5   0  591.74   26.00
  -5   5   0  644.84   24.20
   4  -5   0  403.46   16.40
  -4   5   0  384.66   16.80
  -4   5   0  429.66   17.10
  -4   5   0  423.26   16.50
  -4   5   0  443.56   20.10
  -4   5   0  412.16   18.40
  -4   5   0  422.96   17.70
   3  -5   0   49.50    2.30
   3  -5   0   49.50    2.30
  -3   5   0   51.69    5.40
  -3   5   0   50.19    2.50
  -3   5   0   47.50    4.60
  -3   5   0   50.19    2.60
  -3   5   0   49.20    4.60
  -3   5   0   45.00    3.00
  -3   5   0   46.90    3.00
  -2   5   0   45.10    4.20
  -2   5   0   49.30    5.00
  -1   5   0   90.79    6.10
  -1   5   0   78.89    5.70
   0  -5   0  168.48    6.10
   0  -5   0  148.19    6.10
   0   5   0  148.59    8.80
   0   5   0  157.48    6.70
   0   5   0  144.79    6.80
   0   5   0  167.78    6.30
   0   5   0  158.08    8.30
   0   5   0  149.79    6.40
   1   5   0   29.40    2.70
   1   5   0   27.80    3.00
   1   5   0   28.10    3.40
   1   5   0   33.10    4.90
   1   5   0   25.80    2.60
   1   5   0   28.30    2.30
   2   5   0   52.29    6.40
   2   5   0   53.19    4.30
   2   5   0   49.30    4.10
   2   5   0   51.19    4.10
   2   5   0   51.19    4.70
   3   5   0  155.58    9.30
   3   5   0  158.58    8.60
   3   5   0  160.58   10.80
   4   5   0   53.69    5.50
   4   5   0   54.89    6.50
   4   5   0   51.39    7.90
   5   5   0    0.10    2.70
   5   5   0    0.20    4.10
   5   5   0    3.50    3.30
   6   5   0   -2.30    3.10
   6   5   0   -0.60    4.40
   6   5   0    3.60    3.40
  -9   6   0   27.80    5.60
  -9   6   0   21.00    6.20
  -9   6   0   25.80    9.10
  -8   6   0   26.10    6.20
  -8   6   0   31.10    5.40
  -8   6   0   42.50    9.00
  -7   6   0  103.09    8.70
  -7   6   0  101.89   10.30
  -7   6   0  112.59    8.10
  -6   6   0    2.10    3.40
  -6   6   0   -0.10    2.60
  -6   6   0    0.70    3.90
   5  -6   0   20.40    2.70
  -5   6   0   15.80    2.90
  -5   6   0   12.90    3.20
  -5   6   0   24.50    5.50
  -5   6   0   20.80    3.20
  -5   6   0   22.10    4.30
   4  -6   0   60.89    3.20
  -4   6   0   71.29    4.20
  -4   6   0   55.99    4.10
  -4   6   0   65.19    3.60
  -4   6   0   68.29    6.30
  -4   6   0   67.29    3.40
  -4   6   0   71.09    5.90
  -3   6   0   78.39    6.80
  -3   6   0   74.99    6.00
  -3   6   0   90.09    7.70
  -2   6   0    8.60    3.20
  -2   6   0   12.30    3.00
  -2   6   0   13.70    4.30
  -2   6   0   12.00    4.20
  -2   6   0    9.80    2.90
  -1   6   0   46.80    4.40
  -1   6   0   45.50    5.10
  -1   6   0   43.20    5.10
   0   6   0   20.00    4.70
   0   6   0   21.20    2.10
   0   6   0   18.80    3.00
   0   6   0   16.20    2.20
   0   6   0   18.90    3.50
   1   6   0   -1.60    2.10
   1   6   0    0.30    1.30
   1   6   0   -2.40    3.40
   1   6   0   -0.40    1.70
   1   6   0   -0.10    1.50
   2   6   0    6.70    4.30
   2   6   0    7.70    2.70
   2   6   0    9.70    2.40
   3   6   0    5.10    2.50
   3   6   0    0.70    2.50
   3   6   0    7.80    4.50
   4   6   0   40.10    7.40
   4   6   0   46.80    6.20
   4   6   0   51.29    5.40
   5   6   0  103.49    9.70
   5   6   0  100.49    7.90
   5   6   0  112.09   12.20
  -9   7   0   23.80    7.20
  -9   7   0   20.90    5.40
  -9   7   0   19.60    8.30
  -8   7   0   77.79   11.00
  -8   7   0   79.49    9.30
  -8   7   0   83.99    7.80
  -7   7   0  104.19    9.70
  -7   7   0  103.79   10.80
  -7   7   0  132.49    8.30
  -6   7   0   43.80    7.80
  -6   7   0   49.00    4.30
  -6   7   0   48.20    7.10
  -6   7   0   58.39    5.20
  -5   7   0    9.40    3.90
  -5   7   0   10.60    2.00
  -5   7   0   17.60    5.50
  -5   7   0   11.20    3.60
  -5   7   0    7.00    2.30
  -4   7   0  127.29   10.30
  -4   7   0  135.79    6.30
  -4   7   0  140.89    9.40
  -4   7   0  127.79    9.00
  -3   7   0   72.99    6.20
  -3   7   0   76.49    7.40
  -3   7   0   77.29    7.40
  -3   7   0   71.19    6.40
  -3   7   0   71.79    7.90
  -2   7   0  479.65   21.70
  -2   7   0  435.56   22.80
  -2   7   0  463.15   22.80
  -2   7   0  464.35   20.30
  -2   7   0  481.05   21.10
  -1   7   0  183.38   11.30
  -1   7   0  195.08   10.10
  -1   7   0  207.28   11.40
   0   7   0   92.89    8.10
   0   7   0   77.39    4.60
   0   7   0   82.79    6.70
   0   7   0   86.69    4.30
   0   7   0   80.79    5.80
   1   7   0  209.88   12.80
   1   7   0  189.08    8.20
   1   7   0  168.08    9.10
   1   7   0  194.28    8.70
   2   7   0  183.58    8.80
   2   7   0  164.38    9.60
   2   7   0  201.88   12.90
   3   7   0    9.00    5.50
   3   7   0   11.50    2.80
   3   7   0    9.70    3.30
   4   7   0   43.30    5.10
  -8   8   0    0.50    5.10
  -8   8   0    2.20    5.80
  -8   8   0    0.10    2.50
  -7   8   0   67.19    5.10
  -7   8   0   65.49    9.90
  -7   8   0   65.19    8.90
  -6   8   0   89.19    8.30
  -6   8   0   81.69    9.90
  -5   8   0   82.99    5.10
  -5   8   0  102.99   10.10
  -5   8   0   94.39    8.50
  -4   8   0   21.80    5.10
  -4   8   0   13.30    4.10
  -4   8   0   19.00    5.90
  -4   8   0   15.90    5.10
  -4   8   0   15.50    3.80
  -3   8   0  210.58   12.10
  -3   8   0  200.28   14.00
  -3   8   0  236.88   13.60
  -3   8   0  229.08   14.00
  -3   8   0  219.98   12.20
  -2   8   0  696.03   29.50
  -2   8   0  662.83   29.00
  -2   8   0  656.73   31.30
  -2   8   0  643.04   27.80
  -2   8   0  647.94   31.20
  -1   8   0   79.09    9.60
  -1   8   0   57.09    7.40
  -1   8   0   73.99    6.10
  -1   8   0   75.99    7.10
   0   8   0    7.20    5.00
   0   8   0    7.40    1.80
   1   8   0    4.00    2.20
   1   8   0    0.80    4.70
   2   8   0   18.90    6.00
   2   8   0   24.40    3.90
  -7   9   0    4.70    5.20
  -7   9   0    0.20    5.70
  -6   9   0   17.70    2.70
  -6   9   0   23.80    6.60
  -6   9   0   15.40    6.60
  -6   9   0   18.80    5.80
  -5   9   0  101.09   11.10
  -5   9   0  123.49   10.90
  -5   9   0  108.59    9.40
  -4   9   0   21.50    5.60
  -4   9   0   14.70    4.30
  -4   9   0   27.00    6.80
  -4   9   0   21.50    5.10
  -3   9   0   27.00    7.20
  -3   9   0   32.40    6.00
  -3   9   0   22.10    6.20
  -3   9   0   35.40    6.30
  -3   9   0   34.80    5.60
  -2   9   0  105.49   10.90
  -2   9   0  106.69   10.90
  -2   9   0   98.59    9.50
  -2   9   0  113.99    9.50
  -2   9   0  112.79    8.10
  -1   9   0   22.50    5.80
  -1   9   0   46.20    9.00
  -1   9   0   38.00    8.70
   0   9   0   30.70    6.90
   0   9   0   38.60    8.60
  -5  10   0   23.90    5.90
  -5  10   0   29.40    7.10
  -4  10   0    1.60    3.60
  -4  10   0    1.10    4.40
  -3  10   0    8.20    4.80
  -3  10   0    8.40    5.20
  -2  10  -1   72.59   10.60
  -2  10  -1   76.09    8.50
  -2  10  -1   76.99   10.40
  -3  10  -1    1.40    3.60
  -3  10  -1    5.80    4.40
  -3  10  -1   -0.20    5.00
  -3  10  -1   -3.20    5.00
  -4  10  -1  113.59   12.10
  -4  10  -1  129.09   11.10
  -4  10  -1  116.29    9.70
  -5  10  -1   47.80    8.20
  -5  10  -1   23.90    5.70
  -5  10  -1   30.10    8.50
   1   9  -1    6.80    2.10
   1   9  -1   11.10    5.90
   1   9  -1    6.20    5.90
   0   9  -1   49.00    9.50
   0   9  -1   45.70    7.30
  -1   9  -1  273.17   18.60
  -1   9  -1  289.77   16.00
  -1   9  -1  275.27   18.20
  -2   9  -1  164.78   11.10
  -2   9  -1  155.08   10.80
  -2   9  -1  163.08   13.20
  -2   9  -1  157.68    9.90
  -2   9  -1  148.49   13.30
  -3   9  -1   27.70    5.30
  -3   9  -1   22.30    6.40
  -3   9  -1   23.60    4.90
  -3   9  -1   30.70    6.10
  -3   9  -1   33.80    7.60
  -4   9  -1   43.90    7.40
  -4   9  -1   41.10    8.10
  -4   9  -1   44.50    7.40
  -4   9  -1   42.90    6.60
  -5   9  -1   25.10    5.70
  -5   9  -1   21.40    6.90
  -6   9  -1   86.49    9.20
  -6   9  -1   80.19   10.70
  -7   9  -1   -0.10    5.90
  -7   9  -1   -2.30    4.20
   2   8  -1    2.80    4.70
   2   8  -1    2.50    2.20
   1   8  -1    8.90    4.90
   1   8  -1    5.00    2.10
   0   8  -1   80.99    9.70
   0   8  -1   86.89    6.40
   0   8  -1   85.49    8.30
  -1   8  -1   34.20    5.00
  -1   8  -1   36.60    6.20
  -1   8  -1   39.10    5.60
  -1   8  -1   30.20    6.70
  -2   8  -1    6.30    5.20
  -2   8  -1    5.90    4.70
  -2   8  -1    3.60    3.50
  -2   8  -1    2.00    3.10
  -2   8  -1    0.10    3.40
  -3   8  -1    8.00    4.50
  -3   8  -1   11.60    5.20
  -3   8  -1   11.70    4.50
  -3   8  -1   11.20    3.80
  -3   8  -1   11.20    3.80
  -4   8  -1   10.50    4.30
  -4   8  -1   12.10    5.50
  -4   8  -1    4.30    2.90
  -4   8  -1    6.80    3.90
  -5   8  -1  162.48    7.80
  -5   8  -1  161.28   13.80
  -5   8  -1  145.69   10.70
  -5   8  -1  155.48    7.80
  -5   8  -1  149.49   12.60
  -6   8  -1  140.59   12.60
  -6   8  -1  171.28    8.80
  -6   8  -1  158.28   11.50
  -7   8  -1    5.80    6.10
  -7   8  -1    8.00    5.60
  -7   8  -1   15.40    3.80
  -8   8  -1    4.20    6.40
  -8   8  -1    3.00    3.50
  -8   8  -1   -1.60    4.70
   4   7  -1   17.70    4.20
   4   7  -1   22.60    7.00
   4   7  -1   22.90    3.90
   3   7  -1    4.90    2.30
   3   7  -1    8.90    5.50
   3   7  -1    4.60    2.70
   2   7  -1  306.97   17.00
   2   7  -1  290.07   13.90
   2   7  -1  308.87   13.00
   1   7  -1  241.68   11.30
   1   7  -1  252.87   11.00
   1   7  -1  261.97   10.40
   1   7  -1  260.57   14.60
   0   7  -1  167.38    9.20
   0   7  -1  154.98    7.10
   0   7  -1  161.38    6.90
   0   7  -1  144.49   10.50
  -1   7  -1   35.40    6.80
  -1   7  -1   36.70    5.20
  -1   7  -1   36.50    5.00
  -2   7  -1  378.56   18.40
  -2   7  -1  391.96   17.80
  -2   7  -1  393.46   20.70
  -2   7  -1  401.76   20.10
  -2   7  -1  381.66   17.70
  -3   7  -1  271.87   14.90
  -3   7  -1  270.47   13.90
  -3   7  -1  282.37   16.30
  -3   7  -1  266.67   13.10
  -4   7  -1  196.88   11.50
  -4   7  -1  200.38   11.60
  -4   7  -1  182.58   13.00
  -4   7  -1  190.78    8.60
  -4   7  -1  198.28    8.80
  -4   7  -1  195.78    9.70
  -5   7  -1  124.49    7.10
  -5   7  -1  113.49   10.60
  -5   7  -1  125.19    7.00
  -5   7  -1  123.89    8.60
  -5   7  -1  133.09    9.50
  -6   7  -1   20.80    3.90
  -6   7  -1   27.40    7.40
  -6   7  -1   24.10    5.60
  -7   7  -1  167.18   14.20
  -7   7  -1  163.78   11.80
  -7   7  -1  176.28   10.50
  -8   7  -1  131.49   10.80
  -8   7  -1  155.08   10.30
  -8   7  -1  142.59   14.00
  -9   7  -1    2.90    6.70
  -9   7  -1    5.30    4.30
  -9   7  -1   -1.30    6.00
   5   6  -1   59.59    8.90
   5   6  -1   67.89    6.60
   5   6  -1   66.79    7.20
   4   6  -1  100.19    9.60
   4   6  -1   86.39    6.70
   4   6  -1   94.39    7.60
   3   6  -1   12.60    3.30
   3   6  -1    8.80    2.60
   3   6  -1    2.40    4.20
   2   6  -1   23.30    3.40
   2   6  -1   22.00    5.10
   2   6  -1   23.40    2.90
   2   6  -1   20.10    2.90
   1   6  -1   37.20    3.90
   1   6  -1   32.80    5.30
   1   6  -1   34.50    3.10
   1   6  -1   35.00    3.40
   1   6  -1   33.60    2.70
   0   6  -1  247.48   11.00
   0   6  -1  258.77   10.90
   0   6  -1  301.77   14.20
   0   6  -1  290.87   12.90
  -1   6  -1    6.40    2.60
  -1   6  -1    5.80    3.80
  -1   6  -1    4.40    2.60
  -2   6  -1  178.28   11.00
  -2   6  -1  185.68    9.50
  -2   6  -1  180.48   11.70
  -3   6  -1  172.58   11.40
  -3   6  -1  178.98    8.70
  -3   6  -1  179.78   10.40
  -3   6  -1  166.28    9.70
  -3   6  -1  166.78    7.40
  -3   6  -1  173.38    7.40
  -4   6  -1  826.02   37.40
  -4   6  -1  895.21   35.50
  -4   6  -1  896.31   33.70
  -4   6  -1  831.42   33.40
  -4   6  -1  899.41   32.90
  -4   6  -1  849.91   35.50
  -4   6  -1  893.11   33.60
  -5   6  -1   54.49    5.00
  -5   6  -1   59.19    3.80
  -5   6  -1   63.79    4.90
  -5   6  -1   63.89    5.90
  -5   6  -1   55.99    6.10
  -5   6  -1   56.69    4.40
  -5   6  -1   78.69    8.00
   5  -6   1   59.19    4.20
  -6   6  -1  257.67   14.10
  -6   6  -1  256.87   12.70
  -6   6  -1  252.77   12.50
  -6   6  -1  251.87   12.00
  -6   6  -1  250.37   16.30
  -7   6  -1  269.97   13.00
  -7   6  -1  266.27   17.60
  -7   6  -1  234.48   14.10
  -7   6  -1  256.47   13.60
  -8   6  -1  111.29   10.00
  -8   6  -1  120.19   13.00
  -8   6  -1  133.49    9.60
  -8   6  -1  116.09    8.80
  -9   6  -1    6.10    4.30
  -9   6  -1    8.70    4.60
  -9   6  -1   12.20    7.10
  -9   6  -1   -2.10    4.20
   6   5  -1    6.60    3.50
   6   5  -1    0.10    3.30
   6   5  -1   -3.20    4.40
   5   5  -1    3.10    2.80
   5   5  -1    2.40    3.30
   5   5  -1    1.80    4.20
   4   5  -1   35.70    4.50
   4   5  -1   37.30    6.70
   4   5  -1   26.10    4.70
   3   5  -1  830.52   32.90
   3   5  -1  807.72   33.50
   3   5  -1  846.12   36.10
   3   5  -1  833.72   35.40
   2   5  -1  340.27   17.10
   2   5  -1  372.36   14.90
   2   5  -1  339.77   14.90
   2   5  -1  361.16   14.50
   2   5  -1  330.07   15.30
   2   5  -1  357.86   14.40
   2   5  -1  340.07   14.80
  -2  -5   1  398.16   15.50
  -2  -5   1  335.37   14.50
   1   5  -1   45.70    3.00
   1   5  -1   38.70    3.30
   1   5  -1   45.80    5.60
   1   5  -1   39.70    3.10
   1   5  -1   46.00    3.60
   1   5  -1   43.70    2.70
   0   5  -1   11.60    1.60
   0   5  -1   11.20    2.50
   0   5  -1   12.50    1.50
   0   5  -1   11.50    1.20
   0   5  -1    9.50    2.90
   0   5  -1   11.30    1.10
  -1   5  -1   28.60    4.70
  -1   5  -1   26.10    3.60
  -2   5  -1   46.30    4.90
  -2   5  -1   45.10    3.80
  -2   5  -1   53.59    5.70
  -2   5  -1   47.00    2.50
  -2   5  -1   44.20    2.40
  -3   5  -1   31.60    4.10
  -3   5  -1   17.40    1.80
  -3   5  -1   23.70    2.50
  -3   5  -1   20.50    2.30
  -4   5  -1  181.28    7.70
  -4   5  -1  160.78    8.00
  -4   5  -1  177.18   11.10
  -4   5  -1  169.68    8.10
  -4   5  -1  162.88    9.40
  -4   5  -1  161.78    8.90
  -4   5  -1  155.88    7.60
  -4   5  -1  178.28    7.60
   4  -5   1  157.48    7.50
   4  -5   1  163.88    7.50
  -5   5  -1  106.99    6.40
  -5   5  -1   74.59    5.40
  -5   5  -1   81.19    3.90
  -5   5  -1   88.49    7.10
  -5   5  -1   72.79    5.80
  -5   5  -1   90.29    5.90
  -5   5  -1   86.19    5.20
   5  -5   1   88.49    5.90
   5  -5   1   85.89    5.30
   5  -5   1   73.99    5.20
  -6   5  -1  129.29    9.00
  -6   5  -1  121.49    8.20
  -6   5  -1  119.79    7.50
  -6   5  -1  124.19   10.60
  -6   5  -1  125.59    7.70
   6  -5   1  121.29    7.30
  -7   5  -1   28.30    5.20
  -7   5  -1   26.80    7.60
  -7   5  -1   31.60    4.80
  -7   5  -1   31.80    5.10
   7  -5   1   19.40    3.70
  -8   5  -1   63.99    7.90
  -8   5  -1   58.89    9.50
  -8   5  -1   51.69    6.70
  -8   5  -1   73.69    7.60
   8  -5   1   78.99    7.70
  -9   5  -1   30.40    6.00
  -9   5  -1   37.30    6.90
  -9   5  -1   35.60    6.70
  -9   5  -1   27.70    8.30
   7   4  -1    2.30    4.60
   7   4  -1    4.10    3.70
   7   4  -1    7.30    4.20
   6   4  -1   11.10    4.00
   6   4  -1    6.50    4.70
   6   4  -1    9.00    3.90
   5   4  -1   34.00    5.50
   5   4  -1   31.10    6.00
   5   4  -1   37.90    5.00
   4   4  -1  864.51   35.60
   4   4  -1  859.21   34.90
   4   4  -1  889.61   36.80
   3   4  -1  664.93   28.70
   3   4  -1  698.23   28.20
   3   4  -1  714.23   27.90
   3   4  -1  707.03   28.30
   3   4  -1  751.12   27.50
   3   4  -1  701.23   29.90
   2   4  -1  108.89    5.00
   2   4  -1  104.89    5.40
   2   4  -1  105.89    7.30
   2   4  -1  115.49    5.60
   2   4  -1   98.79    6.00
   2   4  -1   97.19    5.60
   2   4  -1  102.49    5.80
  -2  -4   1  114.29    5.50
   1   4  -1    1.70    0.90
   1   4  -1    1.60    1.20
   1   4  -1    1.10    1.30
   1   4  -1    4.50    2.60
   1   4  -1    1.60    1.20
   1   4  -1    1.10    1.10
  -1  -4   1    1.30    0.80
  -1  -4   1    1.20    0.90
  -1  -4   1    1.80    1.00
   0   4  -1   68.69    4.90
   0   4  -1   65.99    3.00
   0   4  -1   58.59    3.30
   0   4  -1   68.29    3.10
   0  -4   1   70.29    3.00
  -1   4  -1 1119.89   44.30
  -1   4  -1 1122.79   42.80
  -2   4  -1 1015.10   40.00
  -2   4  -1 1060.19   37.70
  -2   4  -1 1000.00   37.90
  -2   4  -1 1051.89   38.00
  -2   4  -1 1023.50   38.60
  -2   4  -1  961.00   40.80
  -2   4  -1  975.50   37.80
   2  -4   1 1053.19   37.70
  -3   4  -1   41.20    4.00
  -3   4  -1   36.70    4.20
  -3   4  -1   35.70    4.90
  -3   4  -1   42.30    3.20
  -3   4  -1   43.80    2.80
  -3   4  -1   36.40    3.00
  -3   4  -1   39.70    2.80
   3  -4   1   42.90    2.80
   3  -4   1   36.70    2.70
   3  -4   1   41.60    3.70
   3  -4   1   43.40    2.60
  -4   4  -1  475.75   24.20
  -4   4  -1  536.75   21.80
  -4   4  -1  510.05   22.20
  -4   4  -1  573.44   20.70
  -4   4  -1  611.74   21.80
  -4   4  -1  545.55   22.00
  -4   4  -1  564.54   22.20
   4  -4   1  554.74   22.40
   4  -4   1  539.55   21.90
   4  -4   1  567.24   21.80
  -5   4  -1   47.40    4.00
  -5   4  -1   42.90    4.80
  -5   4  -1   44.60    4.40
  -5   4  -1   46.50    5.10
  -5   4  -1   44.00    4.40
   5  -4   1   44.70    4.20
   5  -4   1   44.60    4.10
   5  -4   1   47.90    4.10
  -6   4  -1  232.78   11.10
  -6   4  -1  218.58   12.10
  -6   4  -1  231.48   11.60
  -6   4  -1  218.98   14.40
  -6   4  -1  223.58   11.90
   6  -4   1  223.08   11.00
   6  -4   1  216.68   11.20
  -7   4  -1  175.78   13.90
  -7   4  -1  158.98   10.40
  -7   4  -1  161.08   10.40
  -7   4  -1  164.18   10.10
   7  -4   1  147.89    9.60
  -8   4  -1   46.60    6.40
  -8   4  -1   53.49   10.80
  -8   4  -1   45.30    6.80
  -8   4  -1   45.20    6.80
   8  -4   1   38.70    5.70
  -9   4  -1  101.89    9.50
  -9   4  -1  103.69    9.80
  -9   4  -1   95.29    9.00
  -9   4  -1   85.69   12.70
   9  -4   1   94.49    9.00
   8   3  -1    2.80    4.10
   8   3  -1    2.80    4.80
   7   3  -1    8.30    4.40
   7   3  -1    6.20    4.50
   7   3  -1    8.70    3.70
   6   3  -1  355.86   18.20
   6   3  -1  329.17   17.60
   6   3  -1  342.97   16.90
   5   3  -1   13.70    3.50
   5   3  -1   20.50    4.30
   5   3  -1   16.70    4.80
  -5  -3   1   15.90    3.50
   4   3  -1  282.57   12.70
   4   3  -1  268.77   13.00
   4   3  -1  282.07   13.10
   4   3  -1  274.67   14.30
   4   3  -1  302.27   11.90
   4   3  -1  260.97   13.50
  -4  -3   1  277.77   11.20
  -4  -3   1  277.17   13.00
   3   3  -1    0.80    1.30
   3   3  -1    0.50    1.50
   3   3  -1    1.00    1.20
   3   3  -1    1.00    2.30
   3   3  -1    0.10    1.70
   3   3  -1    0.50    1.60
  -3  -3   1   -1.10    1.40
   2   3  -1  276.67   10.50
   2   3  -1  250.97   11.70
   2   3  -1  267.77   12.50
   2   3  -1  274.07   11.30
   2   3  -1  259.07   11.40
   2   3  -1  283.67   11.20
   2   3  -1  257.07   11.40
   1   3  -1 1230.18   44.90
   1   3  -1 1130.19   45.10
   1   3  -1 1169.58   44.90
   1   3  -1 1172.98   45.10
   1   3  -1 1195.38   44.90
   1   3  -1 1145.69   46.10
  -1  -3   1 1177.68   44.80
  -1  -3   1 1318.37   46.20
  -1  -3   1 1265.77   44.90
  -1  -3   1 1224.68   44.90
   0   3  -1  316.47   12.40
   0   3  -1  318.27   12.20
   0   3  -1  305.97   12.30
   0   3  -1  325.87   13.50
   0  -3   1  337.67   12.20
  -1   3  -1  757.32   31.30
  -1   3  -1  732.53   30.70
  -1   3  -1  791.82   29.00
  -1   3  -1  769.92   29.70
  -1   3  -1  790.32   28.90
  -1   3  -1  813.92   28.80
  -1   3  -1  802.22   28.80
   1  -3   1  776.62   28.80
  -2   3  -1  540.85   21.10
  -2   3  -1  540.15   22.20
  -2   3  -1  550.44   21.20
  -2   3  -1  586.04   21.10
  -2   3  -1  492.95   23.00
  -2   3  -1  562.94   21.30
   2  -3   1  587.84   21.00
   2  -3   1  572.34   22.30
   2  -3   1  577.24   20.90
   2  -3   1  540.85   21.10
   2  -3   1  553.74   21.10
  -3   3  -1   50.19    3.70
  -3   3  -1   45.10    2.30
  -3   3  -1   45.70    4.30
  -3   3  -1   38.30    4.50
  -3   3  -1   43.40    3.90
  -3   3  -1   42.90    3.60
  -3   3  -1   47.10    3.30
  -3   3  -1   53.19    3.30
   3  -3   1   45.00    4.60
   3  -3   1   46.40    3.80
   3  -3   1   46.30    3.30
   3  -3   1   42.50    3.40
   3  -3   1   49.70    3.10
   3  -3   1   52.59    3.20
  -4   3  -1   17.10    2.80
  -4   3  -1   17.40    1.40
  -4   3  -1   22.00    3.00
  -4   3  -1   26.50    4.30
  -4   3  -1   22.40    2.70
  -4   3  -1   17.50    2.50
  -4   3  -1   19.50    3.30
   4  -3   1   19.70    2.80
   4  -3   1   19.80    2.60
  -5   3  -1   24.20    3.50
  -5   3  -1   19.10    3.30
  -5   3  -1   23.20    3.60
  -5   3  -1   28.20    3.20
  -5   3  -1   30.50    4.10
   5  -3   1   33.20    3.50
   5  -3   1   27.50    3.70
   5  -3   1   19.90    3.00
  -6   3  -1 1051.79   41.00
  -6   3  -1  956.80   44.20
  -6   3  -1 1053.99   41.00
  -6   3  -1 1124.69   41.80
  -6   3  -1 1032.90   41.30
   6  -3   1 1042.60   39.00
   6  -3   1 1021.60   41.30
   6  -3   1  945.41   40.80
   6  -3   1 1035.10   40.90
  -7   3  -1  155.78   10.00
  -7   3  -1  169.68   10.50
  -7   3  -1  162.28   10.60
  -7   3  -1  164.18   13.20
   7  -3   1  141.89    8.20
   7  -3   1  148.09    9.80
  -8   3  -1   34.40    6.10
  -8   3  -1   45.40    6.10
  -8   3  -1   47.80    6.90
  -8   3  -1   74.49   12.40
   8  -3   1   34.60    5.50
  -9   3  -1   64.89   11.10
  -9   3  -1   68.49    8.70
  -9   3  -1   63.49    7.30
  -9   3  -1   46.90    7.30
   9  -3   1   51.29    7.60
   8   2  -1   40.60    6.70
   8   2  -1   31.70    5.60
   8   2  -1   28.30    6.60
   7   2  -1  129.79   10.50
   7   2  -1  138.89   10.00
   7   2  -1  137.69   10.20
  -7  -2   1  141.89   10.10
   6   2  -1  248.98   13.60
   6   2  -1  238.68   13.80
   6   2  -1  240.78   13.20
  -6  -2   1  250.17   11.60
  -6  -2   1  254.57   13.30
   5   2  -1   24.60    4.50
   5   2  -1   19.90    3.60
   5   2  -1   26.10    4.50
   5   2  -1   30.60    3.00
   5   2  -1   30.80    4.20
  -5  -2   1   26.40    3.40
  -5  -2   1   22.00    2.90
  -5  -2   1   29.00    4.40
  -5  -2   1   24.20    4.10
   4   2  -1    0.90    2.30
   4   2  -1    3.10    1.40
   4   2  -1    1.30    1.70
   4   2  -1    1.60    2.00
   4   2  -1    0.90    2.10
   4   2  -1    3.00    1.50
  -4  -2   1    1.90    1.60
  -4  -2   1    2.60    1.90
  -4  -2   1    1.10    1.20
  -4  -2   1    2.40    1.80
   3   2  -1    3.10    2.30
   3   2  -1    1.60    1.70
   3   2  -1    5.90    1.50
   3   2  -1    2.50    2.00
   3   2  -1    2.90    1.70
   3   2  -1    2.30    1.50
  -3  -2   1    2.30    1.00
  -3  -2   1    3.60    1.60
  -3  -2   1    2.70    1.80
  -3  -2   1    1.10    1.60
   2   2  -1 1170.78   45.30
   2   2  -1 1260.57   45.00
   2   2  -1 1097.09   45.40
   2   2  -1 1150.58   45.20
   2   2  -1 1175.88   45.10
   2   2  -1 1165.28   45.90
   2   2  -1 1231.58   47.60
  -2  -2   1 1221.78   45.00
  -2  -2   1 1167.78   45.20
  -2  -2   1 1255.77   45.90
  -2  -2   1 1237.98   45.20
  -2  -2   1 1258.87   45.40
   1   2  -1 2306.87   79.29
   1   2  -1 2081.09   78.99
   1   2  -1 2113.89   79.09
   1   2  -1 2127.79   79.79
   1   2  -1 2018.80   79.19
   1   2  -1 2072.69   79.19
   1   2  -1 2115.69   79.09
  -1  -2   1 2234.18   79.79
  -1  -2   1 2165.98   79.19
  -1  -2   1 2236.88   79.09
  -1  -2   1 2083.49   78.99
   0   2  -1 1259.07   48.10
   0   2  -1 1272.37   49.30
   0   2  -1 1300.97   47.80
   0   2  -1 1319.37   48.50
   0   2  -1 1302.87   47.80
   0   2  -1 1266.57   47.90
   0  -2   1 1319.37   47.80
   0  -2   1 1327.17   48.40
   0  -2   1 1346.97   47.90
   0  -2   1 1277.27   47.80
   0  -2   1 1281.87   47.80
  -1   2  -1  442.76   18.00
  -1   2  -1  416.76   18.40
  -1   2  -1  458.45   17.00
  -1   2  -1  458.75   17.10
  -1   2  -1  449.46   17.00
  -1   2  -1  453.45   17.00
  -1   2  -1  451.05   17.10
   1  -2   1  461.45   16.90
   1  -2   1  456.95   17.00
   1  -2   1  451.75   18.00
   1  -2   1  466.85   17.10
   1  -2   1  463.45   17.00
  -2   2  -1  153.58    6.60
  -2   2  -1  154.28    7.20
  -2   2  -1  148.49    6.60
  -2   2  -1  153.08    6.80
  -2   2  -1  147.09    6.70
  -2   2  -1  143.89    7.80
   2  -2   1  156.58    8.00
   2  -2   1  153.28    6.60
   2  -2   1  162.58    6.60
   2  -2   1  157.08    7.10
   2  -2   1  165.48    6.60
  -3   2  -1  405.76   16.50
  -3   2  -1  389.56   16.40
  -3   2  -1  381.66   16.30
  -3   2  -1  375.96   16.20
  -3   2  -1  379.86   16.10
  -3   2  -1  380.06   17.80
  -3   2  -1  419.56   16.10
   3  -2   1  405.86   15.10
   3  -2   1  437.26   16.20
   3  -2   1  417.46   16.00
   3  -2   1  367.36   16.10
   3  -2   1  397.66   16.40
   3  -2   1  410.46   16.50
   3  -2   1  420.66   18.00
  -4   2  -1  344.27   17.10
  -4   2  -1  375.86   14.90
  -4   2  -1  332.77   14.80
  -4   2  -1  350.06   14.90
  -4   2  -1  365.06   15.30
  -4   2  -1  351.36   15.10
  -4   2  -1  321.07   15.00
   4  -2   1  386.26   15.00
   4  -2   1  333.67   15.20
   4  -2   1  318.97   14.80
   4  -2   1  361.06   15.30
   4  -2   1  343.77   13.70
  -5   2  -1   79.59    6.00
  -5   2  -1   82.19    6.20
  -5   2  -1   75.99    5.70
  -5   2  -1   78.89    5.60
  -5   2  -1   72.59    7.60
   5  -2   1   81.89    4.60
   5  -2   1   81.59    5.80
   5  -2   1   87.69    6.20
   5  -2   1   84.69    6.10
  -6   2  -1  260.97   13.20
  -6   2  -1  243.08   16.10
  -6   2  -1  295.17   13.80
  -6   2  -1  245.88   13.40
  -6   2  -1  258.27   12.70
   6  -2   1  269.77   11.70
   6  -2   1  252.97   13.10
   6  -2   1  251.77   13.40
  -7   2  -1    9.70    5.80
  -7   2  -1    4.10    3.80
  -7   2  -1    1.30    3.10
  -7   2  -1    3.10    3.50
   7  -2   1    5.00    3.50
   7  -2   1    2.20    2.60
   7  -2   1    1.20    3.30
  -8   2  -1    8.60    4.60
  -8   2  -1    4.40    4.10
  -8   2  -1    6.00    3.70
  -8   2  -1   22.40    8.70
   8  -2   1    4.90    4.10
  -9   2  -1   38.00    7.20
  -9   2  -1   25.10    8.90
   9  -2   1   51.29    7.50
   9   1  -1  104.29   10.10
   9   1  -1  122.49   11.20
   8   1  -1   15.50    5.20
   8   1  -1   28.30    5.80
   8   1  -1   16.20    4.80
  -8  -1   1   21.10    5.50
  -8  -1   1   23.10    8.60
   7   1  -1  154.08   10.60
   7   1  -1  150.98   10.60
   7   1  -1  157.88   11.00
  -7  -1   1  156.28    9.10
  -7  -1   1  171.18   10.80
  -7  -1   1  165.98   14.90
   6   1  -1  100.89    7.80
   6   1  -1   94.09    8.00
   6   1  -1   93.29    7.60
  -6  -1   1   95.99    6.60
  -6  -1   1  107.69    7.70
  -6  -1   1   85.49   10.30
  -6  -1   1   92.19    7.40
  -6  -1   1  103.79    6.60
   5   1  -1    0.90    2.30
   5   1  -1   -1.10    2.40
   5   1  -1    3.00    2.80
   5   1  -1    0.50    1.60
   5   1  -1    1.30    2.00
  -5  -1   1    3.40    3.50
  -5  -1   1    0.20    2.10
  -5  -1   1    0.30    1.80
  -5  -1   1    3.70    2.50
  -5  -1   1    0.60    1.90
   4   1  -1  111.49    7.30
   4   1  -1  125.09    6.10
   4   1  -1  118.79    6.90
   4   1  -1  113.39    7.00
   4   1  -1  135.09    6.80
   4   1  -1  126.59    7.00
  -4  -1   1  125.99    6.40
  -4  -1   1  128.89    6.30
  -4  -1   1  114.89    8.90
  -4  -1   1  113.89    6.80
  -4  -1   1  135.09    7.20
  -4  -1   1  116.89    7.00
   3   1  -1  228.48   10.40
   3   1  -1  219.68   10.50
   3   1  -1  217.58   10.70
   3   1  -1  238.88    9.80
   3   1  -1  213.58   10.30
   3   1  -1  229.28   10.20
  -3  -1   1  220.58   10.30
  -3  -1   1  247.08   10.10
  -3  -1   1  240.08    9.70
  -3  -1   1  207.18   10.30
  -3  -1   1  267.07   12.90
  -3  -1   1  241.08   10.60
  -3  -1   1  230.98   10.60
  -3  -1   1  235.08   10.20
   2   1  -1 1113.09   40.00
   2   1  -1 1005.20   38.10
   2   1  -1 1059.69   38.00
   2   1  -1  950.10   38.10
   2   1  -1  965.90   38.20
   2   1  -1  981.60   38.50
   2   1  -1  955.30   38.30
  -2  -1   1  994.90   38.30
  -2  -1   1 1046.80   38.00
  -2  -1   1 1005.10   39.80
  -2  -1   1  964.80   38.20
  -2  -1   1  973.20   38.10
  -2  -1   1 1085.19   37.70
  -2  -1   1 1028.00   38.40
  -2  -1   1 1031.10   38.20
   1   1  -1 1182.38   43.80
   1   1  -1 1156.78   43.50
   1   1  -1 1162.88   43.60
   1   1  -1 1270.57   43.60
  -1  -1   1 1230.38   43.60
  -1  -1   1 1105.79   43.50
  -1  -1   1 1158.18   43.50
  -1  -1   1 1157.38   43.60
  -1  -1   1 1089.49   43.40
  -1  -1   1 1195.18   43.80
   0   1  -1   22.00    1.30
   0   1  -1   22.50    1.30
   0   1  -1   20.20    1.50
   0   1  -1   23.90    1.90
   0   1  -1   22.90    1.30
   0   1  -1   22.80    1.70
   0   1  -1   24.30    1.30
   0  -1   1   22.20    1.30
   0  -1   1   23.40    1.30
   0  -1   1   22.00    1.80
   0  -1   1   23.60    1.50
   0  -1   1   23.70    1.30
  -1   1  -1   32.60    2.00
  -1   1  -1   31.50    2.00
  -1   1  -1   33.50    2.20
  -1   1  -1   34.20    2.00
  -1   1  -1   26.80    2.60
   1  -1   1   34.60    2.00
   1  -1   1   29.00    2.00
   1  -1   1   42.20    2.60
   1  -1   1   41.10    2.10
   1  -1   1   34.70    2.20
  -2   1  -1  408.86   15.50
  -2   1  -1  322.47   14.00
  -2   1  -1  352.66   14.20
  -2   1  -1  355.76   14.70
  -2   1  -1  328.97   13.90
  -2   1  -1  332.77   13.90
  -2   1  -1  364.26   14.00
   2  -1   1  326.47   13.30
   2  -1   1  366.06   13.90
   2  -1   1  347.37   14.20
   2  -1   1  333.37   13.90
   2  -1   1  387.66   14.10
  -3   1  -1   58.09    4.80
  -3   1  -1   57.49    4.10
  -3   1  -1   64.19    5.60
  -3   1  -1   57.59    3.80
  -3   1  -1   55.89    4.40
  -3   1  -1   53.89    3.90
  -3   1  -1   68.19    4.50
  -3   1  -1   62.79    4.70
   3  -1   1   49.40    4.00
   3  -1   1   61.59    3.90
   3  -1   1   70.49    4.70
   3  -1   1   61.29    4.10
   3  -1   1   57.79    4.40
   3  -1   1   65.29    5.20
   3  -1   1   57.09    3.50
  -4   1  -1   40.70    4.10
  -4   1  -1   41.10    4.50
  -4   1  -1   38.50    3.80
  -4   1  -1   42.90    3.60
  -4   1  -1   47.20    4.20
   4  -1   1   35.80    3.90
   4  -1   1   40.90    4.30
   4  -1   1   46.70    3.90
   4  -1   1   37.70    3.30
  -5   1  -1   20.90    3.10
  -5   1  -1    8.90    2.60
   5  -1   1    9.10    3.10
   5  -1   1    8.70    2.50
  -6   1  -1  159.38    9.80
  -6   1  -1  137.69   12.20
  -6   1  -1  153.08    8.50
  -6   1  -1  152.98    9.80
   6  -1   1  163.28   10.10
   6  -1   1  150.18    9.60
   6  -1   1  158.28    8.60
  -7   1  -1  111.39   11.70
  -7   1  -1  105.29    7.60
  -7   1  -1  112.29    9.10
  -7   1  -1  114.39    9.20
   7  -1   1  111.09    7.70
   7  -1   1  115.49    9.10
   7  -1   1  110.09    9.10
  -8   1  -1   12.30    6.90
  -8   1  -1    2.90    3.50
  -8   1  -1    3.80    4.40
   8  -1   1    7.40    4.40
  -9   1  -1    7.00    7.20
  -9   1  -1    1.10    4.70
   9  -1   1   10.60    5.10
   9   0  -1   31.40    6.30
   9   0  -1   21.60    5.20
  -9   0   1   34.00   10.70
   8   0  -1  356.26   17.70
   8   0  -1  375.46   19.30
   8   0  -1  363.36   18.40
  -8   0   1  325.87   22.30
  -8   0   1  375.56   18.60
  -8   0   1  342.07   16.80
   7   0  -1  447.56   21.30
   7   0  -1  436.96   20.60
   7   0  -1  444.76   20.30
  -7   0   1  451.55   19.80
  -7   0   1  443.36   21.00
  -7   0   1  451.55   20.70
  -7   0   1  422.76   24.70
   6   0  -1    5.10    3.10
   6   0  -1    3.50    3.00
   6   0  -1    6.20    3.20
  -6   0   1    7.50    2.90
  -6   0   1    4.70    3.00
  -6   0   1    3.90    2.80
   5   0  -1  130.29    7.40
   5   0  -1  129.59    8.10
   5   0  -1  126.79    7.40
   5   0  -1  119.89    7.50
  -5   0   1  130.19   10.10
  -5   0   1  134.89    7.80
  -5   0   1  137.29    7.60
  -5   0   1  117.69    7.60
  -5   0   1  132.69    7.20
  -5   0   1  129.09    7.60
   4   0  -1  537.15   21.10
   4   0  -1  574.14   21.40
   4   0  -1  493.55   21.30
   4   0  -1  517.45   20.50
   4   0  -1  483.05   20.90
   4   0  -1  512.35   21.00
  -4   0   1  508.65   20.70
  -4   0   1  485.45   21.10
  -4   0   1  524.35   20.80
  -4   0   1  505.75   21.00
  -4   0   1  515.95   21.30
  -4   0   1  492.25   23.30
   3   0  -1  332.17   13.80
   3   0  -1  318.47   14.00
   3   0  -1  333.67   13.90
   3   0  -1  335.57   15.20
   3   0  -1  314.07   13.70
   3   0  -1  343.97   13.50
   3   0  -1  347.37   13.80
  -3   0   1  319.97   13.70
  -3   0   1  362.06   13.90
  -3   0   1  312.27   15.30
  -3   0   1  337.57   14.10
  -3   0   1  326.27   13.90
  -3   0   1  332.37   13.70
  -3   0   1  339.77   13.70
   2   0  -1  597.94   23.20
   2   0  -1  623.84   23.10
   2   0  -1  666.53   24.40
   2   0  -1  585.84   23.30
   2   0  -1  567.14   23.10
   2   0  -1  592.54   23.10
   2   0  -1  610.74   23.20
  -2   0   1  556.64   23.20
  -2   0   1  615.54   23.20
  -2   0   1  612.24   23.20
  -2   0   1  647.04   24.50
  -2   0   1  621.54   23.20
  -2   0   1  581.44   23.10
  -2   0   1  585.84   23.30
   1   0  -1  185.58    7.60
   1   0  -1  189.68    7.60
   1   0  -1  185.08    7.70
   1   0  -1  191.58    7.60
   1   0  -1  207.48    8.10
   1   0  -1  206.78    7.70
   1   0  -1  195.18    7.80
  -1   0   1  179.48    7.70
  -1   0   1  195.28    7.60
  -1   0   1  201.88    7.70
  -1   0   1  205.18    8.10
  -1   0   1  187.98    7.60
  -1   0   1  188.38    7.60
  -1   0   1  184.78    7.60
  -1   0   1  201.28    7.80
  -1   0   1  174.08    7.60
   0   0  -1 2681.53   97.99
   0   0  -1 2695.33   97.79
   0   0  -1 2528.95   97.39
   0   0  -1 2678.93  100.09
   0   0  -1 2623.34   97.79
   0   0  -1 2683.13   98.49
   0   0  -1 2651.03   98.39
   0   0  -1 2696.63   97.89
   0   0   1 2722.93   99.29
   0   0   1 2626.94   97.79
   0   0   1 2517.95   97.69
   0   0   1 2584.84   98.49
   0   0   1 2501.25   97.69
   0   0   1 2612.14   97.79
  -1   0  -1 1149.48   42.00
  -1   0  -1 1138.19   42.20
  -1   0  -1 1136.29   41.60
  -1   0  -1 1084.19   42.40
  -1   0  -1 1115.69   41.80
  -1   0  -1 1084.09   41.70
  -1   0  -1 1083.99   41.60
   1   0   1 1089.39   41.60
   1   0   1 1159.68   42.40
   1   0   1 1171.38   41.70
   1   0   1 1143.19   41.70
   1   0   1 1183.78   42.30
   1   0   1 1045.00   41.80
   1   0   1 1090.49   41.90
  -2   0  -1   50.59    4.20
  -2   0  -1   62.99    3.70
  -2   0  -1   54.99    3.40
  -2   0  -1   63.29    3.80
  -2   0  -1   60.59    3.40
  -2   0  -1   57.29    2.90
  -2   0  -1   60.29    3.60
   2   0   1   56.29    3.70
   2   0   1   63.39    3.60
   2   0   1   61.79    3.60
   2   0   1   61.39    4.00
   2   0   1   51.99    3.90
   2   0   1   57.09    3.30
   2   0   1   60.79    3.40
   2   0   1   55.39    4.30
  -3   0  -1   80.69    6.80
  -3   0  -1   79.99    4.40
  -3   0  -1   84.29    5.40
  -3   0  -1   86.49    5.50
  -3   0  -1   88.49    5.00
  -3   0  -1   88.29    5.40
  -3   0  -1   82.79    5.20
   3   0   1   76.09    5.50
   3   0   1   93.19    5.90
   3   0   1   80.39    4.90
   3   0   1   74.09    5.10
   3   0   1   85.59    5.20
   3   0   1   93.19    5.00
   3   0   1   91.99    6.60
  -4   0  -1  456.15   18.00
  -4   0  -1  480.95   19.40
  -4   0  -1  452.35   19.20
  -4   0  -1  476.85   19.20
  -4   0  -1  425.26   18.90
  -4   0  -1  432.66   21.50
   4   0   1  424.06   18.90
   4   0   1  431.36   19.40
   4   0   1  434.26   18.60
   4   0   1  495.15   19.10
  -5   0  -1  138.89    7.10
  -5   0  -1  142.69    8.50
  -5   0  -1  142.29    8.40
  -5   0  -1  122.79   10.40
   5   0   1  153.48    8.30
   5   0   1  142.79    8.90
   5   0   1  142.09    8.50
   5   0   1  128.19    7.80
  -6   0  -1    6.20    3.40
  -6   0  -1    5.50    4.90
  -6   0  -1    4.30    2.40
  -6   0  -1    2.60    3.20
   6   0   1    1.30    3.00
   6   0   1    4.90    3.50
   6   0   1    2.10    3.40
  -7   0  -1   23.50    3.90
  -7   0  -1   35.60    6.20
  -7   0  -1   29.70    9.00
   7   0   1   22.40    4.60
   7   0   1   29.50    5.70
   7   0   1   28.90    5.80
  -8   0  -1  128.59   10.30
  -8   0  -1  117.59   13.30
   8   0   1  116.19   10.00
   8   0   1  111.39    9.00
  -9   0  -1  137.09   11.60
   9  -1  -1  100.29    9.50
  -9   1   1   92.39   13.20
  -9   1   1   85.59    8.00
   8  -1  -1  265.97   13.70
   8  -1  -1  258.17   14.40
  -8   1   1  249.88   14.60
  -8   1   1  263.17   14.70
  -8   1   1  244.18   18.20
  -8   1   1  253.47   13.80
   7  -1  -1  157.48    9.90
   7  -1  -1  142.29    9.90
   7  -1  -1  157.98    9.30
  -7   1   1  154.28   13.30
  -7   1   1  149.09   10.00
  -7   1   1  142.09    9.80
  -7   1   1  139.49    9.10
   6  -1  -1   30.60    4.10
   6  -1  -1   34.10    4.80
   6  -1  -1   35.20    4.40
   6  -1  -1   27.70    4.20
  -6   1   1   35.40    4.80
  -6   1   1   39.20    5.10
  -6   1   1   37.50    5.20
  -6   1   1   36.70    7.60
  -6   1   1   33.60    4.50
   5  -1  -1   27.90    3.40
   5  -1  -1   32.10    4.10
   5  -1  -1   32.40    4.20
   5  -1  -1   34.10    3.60
   5  -1  -1   21.90    2.90
  -5   1   1   28.60    3.80
  -5   1   1   27.20    5.70
  -5   1   1   25.60    3.70
  -5   1   1   32.50    4.10
  -5   1   1   30.60    3.10
  -5   1   1   27.60    3.80
   4  -1  -1 1050.99   41.70
   4  -1  -1 1029.70   39.50
   4  -1  -1 1077.79   39.30
   4  -1  -1 1109.29   40.00
   4  -1  -1 1047.50   39.60
   4  -1  -1  967.50   40.00
   4  -1  -1 1010.50   39.80
  -4   1   1 1005.00   42.00
  -4   1   1 1060.39   39.80
  -4   1   1 1059.79   39.50
  -4   1   1  979.10   39.70
  -4   1   1 1002.80   40.00
  -4   1   1 1026.20   40.10
  -4   1   1 1027.20   39.80
   3  -1  -1 1406.86   51.39
   3  -1  -1 1455.45   52.79
   3  -1  -1 1322.97   51.49
   3  -1  -1 1283.77   51.19
   3  -1  -1 1394.86   51.19
   3  -1  -1 1384.86   51.39
   3  -1  -1 1423.66   51.29
   3  -1  -1 1381.56   50.69
  -3   1   1 1367.96   51.59
  -3   1   1 1434.36   51.19
  -3   1   1 1311.07   51.29
  -3   1   1 1320.17   52.69
  -3   1   1 1331.17   51.39
  -3   1   1 1373.66   51.29
  -3   1   1 1279.47   51.39
   2  -1  -1   14.10    1.50
   2  -1  -1   14.90    1.60
   2  -1  -1   15.20    1.70
   2  -1  -1   17.10    1.80
   2  -1  -1   17.60    1.90
  -2   1   1   24.50    2.00
  -2   1   1   18.10    2.10
  -2   1   1   15.90    1.90
  -2   1   1   14.10    1.70
  -2   1   1   16.10    1.70
   1  -1  -1  284.97   11.00
   1  -1  -1  291.67   11.20
   1  -1  -1  286.37   11.00
   1  -1  -1  305.37   11.30
  -1   1   1  287.17   11.00
  -1   1   1  294.77   11.30
  -1   1   1  287.97   11.20
  -1   1   1  279.57   11.10
  -1   1   1  285.37   11.00
  -1   1   1  275.27   11.60
  -1   1   1  286.07   11.00
   0  -1  -1 1253.07   47.10
   0  -1  -1 1263.57   47.30
   0  -1  -1 1270.77   46.80
   0  -1  -1 1276.77   46.90
   0  -1  -1 1273.87   46.80
   0  -1  -1 1237.28   47.30
   0   1   1 1253.77   47.10
   0   1   1 1320.97   47.70
   0   1   1 1259.77   46.90
   0   1   1 1297.17   47.20
   0   1   1 1226.28   47.20
   0   1   1 1266.47   47.30
   0   1   1 1290.07   48.20
  -1  -1  -1  511.45   19.30
  -1  -1  -1  480.25   20.20
  -1  -1  -1  481.75   19.10
  -1  -1  -1  517.15   19.10
  -1  -1  -1  522.75   19.40
   1   1   1  481.75   19.10
   1   1   1  486.35   19.40
   1   1   1  508.75   19.20
   1   1   1  521.35   19.10
   1   1   1  513.75   20.20
   1   1   1  463.45   19.30
  -2  -1  -1  898.41   33.00
  -2  -1  -1  966.80   34.30
  -2  -1  -1  892.31   34.20
  -2  -1  -1  924.71   34.00
  -2  -1  -1  872.01   35.90
  -2  -1  -1  874.91   34.10
  -2  -1  -1  918.11   34.30
   2   1   1  897.21   35.70
   2   1   1  890.91   34.20
   2   1   1  859.31   34.40
   2   1   1  880.51   34.20
   2   1   1  871.41   34.10
   2   1   1  861.71   34.40
  -3  -1  -1   58.89    4.50
  -3  -1  -1   56.69    4.20
  -3  -1  -1   55.79    3.10
  -3  -1  -1   62.19    4.50
  -3  -1  -1   53.19    4.20
  -3  -1  -1   52.89    5.90
   3   1   1   64.89    4.30
   3   1   1   57.79    3.90
   3   1   1   54.49    4.60
   3   1   1   51.09    4.70
   3   1   1   50.59    4.30
   3   1   1   52.29    4.20
  -4  -1  -1  347.77   19.20
  -4  -1  -1  380.26   16.70
  -4  -1  -1  379.46   16.90
  -4  -1  -1  409.76   16.50
  -4  -1  -1  383.86   15.20
   4   1   1  378.16   17.30
   4   1   1  373.86   16.70
   4   1   1  422.56   16.90
   4   1   1  363.86   16.60
  -5  -1  -1  278.47   14.30
  -5  -1  -1  297.17   14.20
  -5  -1  -1  298.17   17.70
  -5  -1  -1  292.47   12.40
   5   1   1  322.57   14.30
   5   1   1  294.97   14.30
   5   1   1  293.07   14.90
   5   1   1  278.37   14.20
  -6  -1  -1  220.68    9.80
  -6  -1  -1  208.08   15.50
  -6  -1  -1  209.18   12.00
   6   1   1  196.28   11.90
   6   1   1  199.38   11.80
   6   1   1  216.28   12.80
  -7  -1  -1    4.80    4.20
  -7  -1  -1    7.80    6.40
   7   1   1    2.40    3.90
   7   1   1    6.10    4.20
   7   1   1    5.60    4.10
  -8  -1  -1  191.58   12.90
  -8  -1  -1  196.08   17.70
   8   1   1  179.68   15.80
   8   1   1  201.78   13.20
   8   1   1  176.48   12.10
  10  -2  -1   11.70    4.80
 -10   2   1    5.60    4.70
   9  -2  -1    9.80    4.50
  -9   2   1   11.50    5.30
  -9   2   1    9.80    4.50
  -9   2   1   15.20    7.50
   8  -2  -1   39.70    5.60
   8  -2  -1   76.19    7.60
  -8   2   1   70.59    7.70
  -8   2   1   42.90    6.30
  -8   2   1   63.69    9.60
  -8   2   1   38.50    5.70
   7  -2  -1  206.28   11.10
   7  -2  -1  222.88   12.30
   7  -2  -1  226.88   12.20
  -7   2   1  222.98   12.70
  -7   2   1  212.98   12.00
  -7   2   1  212.18   15.10
  -7   2   1  230.58   12.40
   6  -2  -1  102.89    6.40
   6  -2  -1  103.49    7.00
   6  -2  -1  108.29    7.30
   6  -2  -1  105.99    6.10
  -6   2   1  109.79    7.40
  -6   2   1  109.39    6.10
  -6   2   1   99.09    7.50
  -6   2   1  106.29    7.20
  -6   2   1  103.99    7.30
  -6   2   1   95.19    9.30
   5  -2  -1  281.47   12.50
   5  -2  -1  284.07   11.90
   5  -2  -1  289.27   13.20
   5  -2  -1  266.87   12.80
  -5   2   1  266.27   12.80
  -5   2   1  304.77   12.40
  -5   2   1  292.87   13.30
  -5   2   1  312.97   13.00
  -5   2   1  272.07   13.10
  -5   2   1  281.67   13.10
  -5   2   1  282.17   15.20
   4  -2  -1   81.79    5.40
   4  -2  -1   85.29    5.20
   4  -2  -1   91.59    5.20
  -4   2   1   93.89    5.70
  -4   2   1   83.79    5.20
  -4   2   1   93.59    5.00
  -4   2   1   80.39    5.50
  -4   2   1   93.79    5.70
  -4   2   1   92.99    5.20
   3  -2  -1   13.70    1.90
   3  -2  -1   11.30    1.70
   3  -2  -1   17.40    2.30
   3  -2  -1   10.00    1.70
  -3   2   1    9.80    1.90
  -3   2   1   18.10    2.50
  -3   2   1    8.90    1.70
  -3   2   1   10.90    1.90
   2  -2  -1   15.00    1.40
   2  -2  -1   14.40    1.40
   2  -2  -1   13.70    1.40
   2  -2  -1   18.10    2.10
   2  -2  -1   13.90    1.40
  -2   2   1   13.70    1.50
  -2   2   1   15.10    2.10
  -2   2   1   14.10    1.50
  -2   2   1   13.60    1.40
   1  -2  -1 1157.48   43.20
   1  -2  -1 1267.87   43.90
   1  -2  -1 1186.08   43.10
  -1   2   1 1147.99   44.40
  -1   2   1 1156.48   43.50
  -1   2   1 1169.28   43.80
  -1   2   1 1132.89   43.30
  -1   2   1 1161.68   43.50
  -1   2   1 1163.98   43.20
   0  -2  -1    2.20    1.30
   0  -2  -1    4.40    0.80
   0  -2  -1    5.80    0.80
   0  -2  -1    4.50    0.80
   0  -2  -1    4.40    0.90
   0   2   1    5.40    0.90
   0   2   1    4.70    0.90
   0   2   1    2.30    1.20
   0   2   1    6.80    0.90
   0   2   1    7.00    1.10
   0   2   1    5.20    0.90
  -1  -2  -1  572.14   22.40
  -1  -2  -1  588.54   22.10
  -1  -2  -1  584.14   21.90
  -1  -2  -1  560.14   22.10
  -1  -2  -1  556.34   22.00
   1   2   1  550.94   22.30
   1   2   1  606.24   22.00
   1   2   1  593.44   23.70
   1   2   1  587.14   22.10
   1   2   1  538.25   22.00
   1   2   1  557.24   22.40
  -2  -2  -1  389.66   16.30
  -2  -2  -1  423.76   16.50
   2   2   1  421.76   18.40
   2   2   1  416.16   16.20
   2   2   1  370.86   16.30
   2   2   1  405.16   16.40
   2   2   1  399.46   17.20
   2   2   1  399.56   16.50
   2   2   1  380.06   16.70
  -3  -2  -1   81.19    5.10
  -3  -2  -1   78.59    5.20
  -3  -2  -1  102.49    7.90
  -3  -2  -1   74.69    5.20
   3   2   1   93.19    5.40
   3   2   1   76.39    5.30
   3   2   1   89.99    5.00
   3   2   1   75.19    5.20
   3   2   1   74.79    5.90
   3   2   1   83.49    5.90
  -4  -2  -1   33.30    3.80
  -4  -2  -1   38.80    4.40
  -4  -2  -1   50.39    6.70
  -4  -2  -1   27.80    3.80
   4   2   1   31.60    4.60
   4   2   1   41.10    4.80
   4   2   1   39.40    4.20
   4   2   1   34.90    4.40
   4   2   1   37.00    4.80
  -5  -2  -1   58.79    9.00
  -5  -2  -1   51.89    5.70
   5   2   1   58.79    6.30
   5   2   1   45.40    6.00
   5   2   1   53.79    6.30
  -6  -2  -1    7.00    5.80
  -6  -2  -1    8.70    3.60
   6   2   1    5.80    3.80
   6   2   1    5.90    3.90
   6   2   1    5.00    3.70
  -7  -2  -1    0.80    3.50
   7   2   1    0.60    3.90
   7   2   1   -2.80    3.50
   7   2   1    1.50    3.60
  -8  -2  -1    3.80    4.50
   8   2   1    7.60    4.80
   8   2   1   -3.60    4.30
  10  -3  -1   12.90    5.10
 -10   3   1    0.10    7.50
 -10   3   1    8.00    4.80
 -10   3   1   12.40    6.30
   9  -3  -1   90.79    8.20
  -9   3   1   68.99    8.40
  -9   3   1   74.29    8.60
  -9   3   1   54.09   11.20
   8  -3  -1    3.50    3.50
   8  -3  -1    7.50    3.70
  -8   3   1    8.60    4.30
  -8   3   1   12.80    6.30
  -8   3   1    3.20    3.80
  -8   3   1    3.30    4.20
   7  -3  -1   39.90    4.80
   7  -3  -1   34.30    4.80
   7  -3  -1   38.80    7.40
  -7   3   1   33.90    5.20
  -7   3   1   51.99    8.50
  -7   3   1   41.60    5.50
  -7   3   1   39.40    5.90
   6  -3  -1  132.89    7.50
   6  -3  -1  124.59    7.70
   6  -3  -1  125.79    5.90
   6  -3  -1  119.69    7.60
  -6   3   1  132.49    8.00
  -6   3   1  120.99    8.00
  -6   3   1  128.69    7.80
  -6   3   1  121.39    8.30
  -6   3   1  133.29   10.40
  -6   3   1  130.29    6.80
   5  -3  -1  858.91   33.40
  -5   3   1  850.91   33.40
  -5   3   1  834.72   33.70
  -5   3   1  936.31   33.50
  -5   3   1  885.01   32.90
  -5   3   1  850.71   33.90
  -5   3   1  747.73   35.40
  -5   3   1  848.22   34.10
   4  -3  -1    8.20    2.60
   4  -3  -1    6.10    1.80
   4  -3  -1    7.10    1.80
  -4   3   1    8.00    1.90
  -4   3   1   12.80    3.40
  -4   3   1    6.50    2.30
  -4   3   1    6.30    2.00
  -4   3   1    8.70    2.00
  -4   3   1    8.00    2.20
   3  -3  -1    2.70    1.30
   3  -3  -1    3.00    1.30
   3  -3  -1    2.30    1.20
   3  -3  -1    1.30    1.80
   3  -3  -1    6.00    2.30
   3  -3  -1    2.90    1.30
  -3   3   1    3.40    1.30
  -3   3   1    1.50    1.50
  -3   3   1    9.30    2.70
  -3   3   1    2.10    1.90
  -3   3   1    1.90    1.50
  -3   3   1    2.00    1.30
  -3   3   1    3.70    2.20
   2  -3  -1    8.50    1.10
   2  -3  -1   12.10    1.10
  -2   3   1    9.40    1.30
  -2   3   1    9.40    1.20
  -2   3   1   14.60    2.40
  -2   3   1   10.30    1.40
   1  -3  -1   44.30    2.20
  -1   3   1   47.00    2.30
  -1   3   1   47.50    2.40
  -1   3   1   44.40    2.20
  -1   3   1   49.20    2.20
  -1   3   1   45.00    3.20
  -1   3   1   44.80    4.00
   0  -3  -1  110.69    4.60
   0  -3  -1  107.89    4.80
   0  -3  -1  113.79    4.70
   0  -3  -1  101.59    5.90
   0  -3  -1  101.59    4.70
   0   3   1  105.59    5.10
   0   3   1  112.09    4.90
   0   3   1  113.79    5.10
   0   3   1  107.49    4.90
   0   3   1  108.29    6.00
   0   3   1  110.69    4.70
  -1  -3  -1   21.90    2.30
  -1  -3  -1   24.50    2.50
  -1  -3  -1   28.80    2.30
  -1  -3  -1   22.10    2.90
   1   3   1   23.00    2.70
   1   3   1   22.70    1.70
   1   3   1   30.40    3.90
   1   3   1   23.90    2.50
   1   3   1   24.20    2.50
   1   3   1   23.80    2.20
   1   3   1   23.20    2.90
  -2  -3  -1  828.82   32.80
  -2  -3  -1  850.71   32.80
  -2  -3  -1  874.81   33.00
   2   3   1  867.31   32.90
   2   3   1  860.81   33.00
   2   3   1  828.62   34.00
   2   3   1  801.22   33.20
   2   3   1  816.52   32.80
   2   3   1  888.01   32.60
  -3  -3  -1  308.37   13.10
  -3  -3  -1  274.77   13.10
  -3  -3  -1  286.97   13.10
   3   3   1  285.87   14.40
   3   3   1  293.47   13.20
   3   3   1  301.37   13.40
   3   3   1  304.27   12.90
   3   3   1  283.37   13.80
   3   3   1  303.27   13.20
  -4  -3  -1   64.39    6.90
  -4  -3  -1   56.99    5.30
   4   3   1   56.69    5.60
   4   3   1   61.69    5.40
   4   3   1   58.39    6.70
   4   3   1   56.09    6.10
  -5  -3  -1    7.10    3.10
   5   3   1    6.90    4.10
   5   3   1    9.50    3.60
   5   3   1   10.70    4.00
  -6  -3  -1  105.49    8.50
   6   3   1  103.69    9.60
   6   3   1   99.19    9.20
   6   3   1   96.29    8.60
   7   3   1  165.08   12.00
   7   3   1  184.28   12.90
   7   3   1  170.98   12.70
 -10   4   1   30.00    7.00
 -10   4   1   30.90    9.20
 -10   4   1   35.40    7.20
   9  -4  -1  139.49    9.60
  -9   4   1  113.49    9.70
  -9   4   1   99.69    9.20
  -9   4   1  110.79   13.40
   8  -4  -1  109.69    8.20
  -8   4   1   88.39    8.60
  -8   4   1  106.49    8.60
  -8   4   1  100.39   11.00
   7  -4  -1   -1.40    2.40
  -7   4   1   -0.50    3.00
  -7   4   1   16.20    6.00
  -7   4   1    3.90    4.00
   6  -4  -1  652.53   27.40
   6  -4  -1  681.53   27.30
  -6   4   1  697.63   28.10
  -6   4   1  652.23   28.50
  -6   4   1  637.54   27.70
  -6   4   1  698.93   30.90
  -6   4   1  728.23   27.40
  -6   4   1  649.54   26.60
   5  -4  -1  656.83   27.00
   5  -4  -1  691.73   27.20
  -5   4   1  694.73   27.80
  -5   4   1  674.63   28.40
  -5   4   1  645.94   27.40
  -5   4   1  714.23   27.10
  -5   4   1  736.43   27.20
  -5   4   1  677.53   30.00
   4  -4  -1   65.39    4.10
   4  -4  -1   83.19    4.20
  -4   4   1   68.09    4.20
  -4   4   1   82.09    5.70
  -4   4   1   69.29    4.60
   3  -4  -1  212.68    8.40
   3  -4  -1  216.38    8.10
  -3   4   1  203.78    8.50
  -3   4   1  200.58    8.80
  -3   4   1  198.38    8.50
  -3   4   1  204.88    9.60
  -3   4   1  204.18   10.60
  -3   4   1  205.08   10.00
  -2   4   1   86.39    5.70
  -2   4   1   79.89    3.20
  -2   4   1   62.69    5.40
  -2   4   1   70.49    3.20
  -2   4   1   68.59    3.40
  -2   4   1   72.99    4.80
  -2   4   1   70.99    3.50
  -1   4   1  522.05   21.40
  -1   4   1  502.85   19.00
  -1   4   1  503.65   19.10
  -1   4   1  513.95   19.30
  -1   4   1  506.55   20.30
  -1   4   1  510.05   19.00
   0  -4  -1  559.04   20.70
   0   4   1  545.35   21.30
   0   4   1  532.85   21.20
   0   4   1  528.75   20.90
   0   4   1  537.05   22.40
   0   4   1  571.04   20.70
   0   4   1  552.24   20.90
  -1  -4  -1   96.99    4.90
  -1  -4  -1  100.19    5.90
  -1  -4  -1   99.59    5.10
   1   4   1   95.99    6.80
   1   4   1   94.79    5.90
   1   4   1   96.69    5.60
   1   4   1  109.19    5.00
   1   4   1   97.09    5.20
   1   4   1  105.19    4.70
   1   4   1  109.99    5.30
  -2  -4  -1  416.96   16.70
  -2  -4  -1  386.26   16.00
  -2  -4  -1  391.26   16.20
   2   4   1  376.96   16.20
   2   4   1  361.66   16.20
   2   4   1  400.86   16.60
   2   4   1  395.16   15.90
   2   4   1  372.96   17.90
   2   4   1  373.66   16.80
  -3  -4  -1   27.70    3.50
   3   4   1   32.80    5.50
   3   4   1   29.40    4.40
   3   4   1   24.70    3.70
   3   4   1   27.90    3.70
  -4  -4  -1   79.89    6.20
   4   4   1   86.89    8.10
   4   4   1   80.59    6.60
   4   4   1   80.29    7.30
   5   4   1  171.98   10.70
   5   4   1  174.98   12.00
   5   4   1  176.58   11.50
   6   4   1  105.39    9.10
   6   4   1  127.69   11.00
   6   4   1  112.59    9.90
 -10   5   1    3.90    6.30
 -10   5   1    1.50    4.40
 -10   5   1    3.20    5.10
  -9   5   1   66.39   11.20
  -9   5   1   71.19    8.80
  -9   5   1   84.99    8.70
  -8   5   1  110.29    8.70
  -8   5   1   95.09    8.70
  -8   5   1  106.19   11.60
   7  -5  -1    0.70    2.20
  -7   5   1    4.50    3.80
  -7   5   1    9.90    5.50
  -7   5   1    2.30    3.10
   6  -5  -1  355.16   15.60
  -6   5   1  385.16   16.60
  -6   5   1  337.87   16.30
  -6   5   1  377.46   19.50
  -6   5   1  358.06   17.40
   5  -5  -1  379.06   14.80
   5  -5  -1  339.67   14.80
  -5   5   1  354.76   14.70
  -5   5   1  380.16   15.80
  -5   5   1  357.96   18.20
  -5   5   1  385.96   15.70
  -5   5   1  350.56   15.50
  -5   5   1  345.47   16.70
  -5   5   1  365.36   15.10
  -5   5   1  351.26   15.10
   4  -5  -1  246.38   10.10
  -4   5   1  238.68   10.10
  -4   5   1  255.37   10.20
  -4   5   1  240.28   10.60
  -4   5   1  245.78   12.10
  -4   5   1  243.08   11.20
  -4   5   1  224.18   12.70
   3  -5  -1  302.67   10.70
   3  -5  -1  271.27   10.60
  -3   5   1  256.87   13.70
  -3   5   1  285.97   13.10
  -3   5   1  280.87   11.40
  -3   5   1  293.17   10.90
  -3   5   1  284.47   13.40
  -3   5   1  258.97   11.20
  -3   5   1  288.47   10.90
  -3   5   1  287.17   14.20
  -2   5   1  101.29    4.40
  -2   5   1  103.09    7.20
  -2   5   1  103.59    7.20
  -2   5   1  102.49    6.10
  -1   5   1  758.42   28.70
  -1   5   1  756.52   28.90
  -1   5   1  782.52   30.20
  -1   5   1  784.02   31.40
   0   5   1  180.98    9.60
   0   5   1  171.78    7.60
   0   5   1  174.18    8.10
   0   5   1  183.48   10.20
   0   5   1  179.88    8.30
   0   5   1  183.68    7.40
   0   5   1  189.18    7.80
  -1  -5  -1   24.70    2.60
   1   5   1   31.60    3.60
   1   5   1   34.70    3.10
   1   5   1   31.70    2.60
   1   5   1   31.70    3.10
   1   5   1   33.30    2.70
   1   5   1   31.70    5.10
   1   5   1   30.80    4.10
  -2  -5  -1  167.98    9.00
   2   5   1  166.58   11.00
   2   5   1  163.38    8.20
   2   5   1  164.68    8.90
   2   5   1  159.58    8.30
   2   5   1  150.28    8.80
   3   5   1   76.09    6.50
   3   5   1   69.69    7.70
   3   5   1   72.99    5.80
   4   5   1  696.73   31.90
   4   5   1  693.73   30.60
   4   5   1  734.33   29.80
   5   5   1   48.00    6.90
   5   5   1   47.40    6.00
   5   5   1   44.60    7.60
  -9   6   1    3.20    4.30
  -9   6   1    3.80    4.70
  -9   6   1    5.50    6.50
  -8   6   1   29.30    5.30
  -8   6   1   23.80    5.70
  -8   6   1   32.80    8.20
  -7   6   1   13.10    4.50
  -7   6   1   19.90    4.30
  -7   6   1   10.30    3.20
  -7   6   1   11.00    5.60
  -6   6   1   34.30    3.90
  -6   6   1   33.90    6.00
  -6   6   1   40.80    6.80
  -5   6   1  211.78   11.70
  -5   6   1  197.88    9.80
  -5   6   1  200.68    9.70
  -5   6   1  192.08    9.00
  -5   6   1  204.28   12.60
   4  -6  -1   23.10    1.60
  -4   6   1   20.30    2.60
  -4   6   1   23.10    4.00
  -4   6   1   20.60    2.00
  -4   6   1   25.30    4.50
  -4   6   1   36.00    5.50
  -4   6   1   23.80    2.60
  -4   6   1   22.40    2.00
  -3   6   1  382.56   17.50
  -3   6   1  391.46   15.20
  -3   6   1  437.86   19.40
  -3   6   1  384.16   18.60
  -3   6   1  401.46   19.00
  -3   6   1  372.16   15.30
  -2   6   1    7.10    3.30
  -2   6   1    6.20    2.50
  -2   6   1   13.10    4.00
  -1   6   1   44.30    5.30
  -1   6   1   45.90    4.20
  -1   6   1   42.00    2.90
  -1   6   1   53.89    2.70
   0   6   1   27.20    2.60
   0   6   1   27.00    3.20
   0   6   1   21.00    4.60
   0   6   1   28.30    4.60
   0   6   1   26.10    3.00
   0   6   1   26.70    2.20
   1   6   1   81.49    8.70
   1   6   1   69.99    4.60
   1   6   1   70.39    5.20
   1   6   1   69.59    4.50
   1   6   1   68.59    6.10
   2   6   1    7.10    4.50
   2   6   1    8.40    2.90
   2   6   1    7.20    2.30
   3   6   1  153.58    9.70
   3   6   1  158.68    8.90
   3   6   1  154.18   11.70
   4   6   1   35.10    5.60
   4   6   1   51.39    5.60
   4   6   1   62.99    9.40
  -9   7   1   27.60    8.90
  -9   7   1   32.40    5.00
  -9   7   1   21.40    7.60
  -8   7   1    6.40    6.00
  -8   7   1    9.80    5.40
  -8   7   1   17.30    3.80
  -7   7   1   54.29    7.90
  -7   7   1   60.89    5.30
  -7   7   1   66.69    9.40
  -6   7   1  263.57   11.50
  -6   7   1  250.07   14.30
  -6   7   1  263.07   16.30
  -5   7   1   38.30    2.80
  -5   7   1   37.80    6.60
  -5   7   1   38.80    5.90
  -5   7   1   37.80    3.80
  -5   7   1   42.60    3.70
  -5   7   1   39.60    6.40
  -4   7   1  302.17   16.50
  -4   7   1  296.27   16.30
  -4   7   1  298.37   15.20
  -4   7   1  294.77   12.10
  -4   7   1  293.27   12.00
  -4   7   1  304.47   15.10
  -3   7   1  168.28   11.50
  -3   7   1  174.08   11.50
  -3   7   1  182.58   11.50
  -3   7   1  180.38   10.10
  -2   7   1  175.38   12.00
  -2   7   1  185.98   10.00
  -2   7   1  193.48   11.70
  -1   7   1  340.97   15.30
  -1   7   1  320.07   17.10
  -1   7   1  366.26   17.20
   0   7   1    8.50    3.60
   0   7   1   12.80    2.40
   0   7   1   16.00    2.20
   0   7   1   10.00    4.50
   1   7   1  127.59    6.30
   1   7   1  131.89   10.50
   1   7   1  119.49    7.30
   2   7   1   73.29    9.10
   2   7   1   83.29    5.30
   2   7   1   67.89    6.10
   3   7   1   44.80    4.70
   3   7   1   33.20    5.10
   3   7   1   52.79    8.90
  -8   8   1    8.80    5.50
  -8   8   1   17.10    3.30
  -8   8   1   10.50    6.40
  -7   8   1   61.99    5.00
  -7   8   1   52.09    8.10
  -7   8   1   63.39    9.30
  -6   8   1   44.10    7.00
  -6   8   1   49.60    4.40
  -6   8   1   46.60    7.80
  -6   8   1   44.80    7.90
  -5   8   1    4.80    4.70
  -5   8   1    2.90    1.70
  -5   8   1   -1.00    1.60
  -5   8   1    2.90    4.10
  -5   8   1    0.70    3.50
  -4   8   1   34.70    6.00
  -4   8   1   36.10    5.70
  -4   8   1   30.30    6.40
  -4   8   1   30.40    6.30
  -3   8   1  211.58   12.70
  -3   8   1  220.58   14.00
  -3   8   1  213.98   14.00
  -3   8   1  220.98   12.10
  -3   8   1  228.48   13.70
  -2   8   1  407.36   20.70
  -2   8   1  447.56   21.10
  -2   8   1  416.86   22.00
  -2   8   1  425.26   19.10
  -1   8   1   27.20    5.20
  -1   8   1   24.90    5.70
   0   8   1   52.49    4.00
   0   8   1   54.59    8.10
   1   8   1   86.19    6.00
   1   8   1   88.89   10.50
  -7   9   1    5.60    4.30
  -7   9   1    0.00    4.10
  -7   9   1    7.10   10.40
  -6   9   1   59.49    4.10
  -6   9   1   60.69    9.00
  -6   9   1   48.50    7.30
  -5   9   1  200.28   14.10
  -5   9   1  182.28   12.20
  -4   9   1    7.30    4.00
  -4   9   1   13.10    5.30
  -4   9   1    9.90    4.20
  -3   9   1    2.40    4.30
  -3   9   1   -3.90    3.60
  -3   9   1    2.50    4.20
  -3   9   1    1.40    3.20
  -2   9   1   -2.00    4.50
  -2   9   1   -2.90    3.70
  -2   9   1   -3.50    4.30
  -1   9   1   41.50    7.20
  -1  10  -2  129.69   14.10
  -1  10  -2  154.78   14.20
  -2  10  -2    9.80    6.00
  -2  10  -2   11.10    4.50
  -2  10  -2    4.60    3.70
  -2  10  -2    6.50    6.60
  -3  10  -2  115.19   12.80
  -3  10  -2  106.69    9.20
  -3  10  -2  120.39    9.90
  -3  10  -2  103.69   11.20
  -4  10  -2  209.98   17.00
  -4  10  -2  254.97   15.30
  -4  10  -2  230.58   14.20
  -5  10  -2  151.78   14.60
  -5  10  -2  151.38   11.80
   1   9  -2   73.49    4.80
   1   9  -2   74.09    9.50
   1   9  -2   75.09   10.50
   0   9  -2   51.79   10.20
   0   9  -2   40.80    7.20
  -1   9  -2   55.69    6.20
  -1   9  -2   60.49    7.80
  -1   9  -2   64.39   10.30
  -1   9  -2   68.69    9.80
  -2   9  -2   16.50    4.40
  -2   9  -2   24.90    5.10
  -2   9  -2   10.90    4.20
  -2   9  -2   18.40    6.50
  -2   9  -2   18.70    6.90
  -3   9  -2    8.30    3.60
  -3   9  -2    6.00    4.00
  -3   9  -2    7.00    4.90
  -3   9  -2   10.30    5.70
  -4   9  -2    3.10    3.80
  -4   9  -2    5.70    4.60
  -4   9  -2    3.10    5.30
  -5   9  -2   42.30    4.00
  -5   9  -2   41.90    7.40
  -5   9  -2   30.70    7.50
  -6   9  -2   64.29   10.50
  -6   9  -2   75.69    9.00
  -6   9  -2   76.29    5.90
  -7   9  -2    2.30    7.70
  -7   9  -2    6.10    6.60
  -7   9  -2    6.30    5.40
   3   8  -2    1.60    5.30
   3   8  -2    3.10    5.30
   3   8  -2    8.50    3.10
   2   8  -2  108.79    7.00
   2   8  -2  111.39   12.00
   2   8  -2  129.89   10.70
   1   8  -2    9.40    5.70
   1   8  -2    8.40    2.30
   1   8  -2    5.00    4.60
   0   8  -2   86.69    9.10
   0   8  -2   68.99    3.90
   0   8  -2   73.79    4.00
   0   8  -2   76.49   10.00
  -1   8  -2    1.60    2.80
  -1   8  -2   -4.40    3.10
  -1   8  -2   -1.00    4.00
  -2   8  -2   -1.90    3.80
  -2   8  -2   -1.20    2.70
  -2   8  -2    3.70    5.20
  -3   8  -2  131.49   10.50
  -3   8  -2  122.99   11.10
  -3   8  -2  137.79    8.40
  -3   8  -2  129.09    9.30
  -4   8  -2    4.50    3.90
  -4   8  -2    9.10    2.10
  -4   8  -2    7.70    5.40
  -4   8  -2    6.60    2.00
  -4   8  -2    3.10    4.00
  -5   8  -2  138.39   10.50
  -5   8  -2  144.79   12.70
  -5   8  -2  137.09   10.40
  -5   8  -2  137.99    7.70
  -6   8  -2  112.99   12.20
  -6   8  -2  110.99   10.10
  -6   8  -2  131.29    8.00
  -7   8  -2   33.80    6.90
  -7   8  -2   51.39   10.70
  -7   8  -2   35.50    5.40
  -7   8  -2   49.70    5.10
  -8   8  -2   16.30    6.00
  -8   8  -2    9.40    7.00
  -8   8  -2   11.90    5.90
  -8   8  -2   17.60    4.00
   4   7  -2   75.89    6.90
   4   7  -2   77.29    6.00
   4   7  -2   76.09    9.60
   3   7  -2   10.60    3.10
   3   7  -2   15.70    5.20
   3   7  -2   10.90    2.70
   2   7  -2   17.10    3.10
   2   7  -2   17.20    5.10
   2   7  -2   19.10    2.70
   1   7  -2   34.20    2.70
   1   7  -2   31.00    3.20
   1   7  -2   31.50    3.50
   1   7  -2   36.30    7.60
   1   7  -2   36.60    6.00
   0   7  -2  111.59    7.10
   0   7  -2  107.19    9.90
   0   7  -2  107.59    5.30
   0   7  -2  115.19    8.60
   0   7  -2   97.39    5.20
  -1   7  -2  175.08   12.50
  -1   7  -2  173.68   10.20
  -2   7  -2  308.97   15.20
  -2   7  -2  325.37   17.70
  -2   7  -2  352.66   19.20
  -3   7  -2  497.65   23.10
  -3   7  -2  505.75   19.00
  -3   7  -2  487.75   20.50
  -3   7  -2  474.45   18.90
  -3   7  -2  465.25   24.40
  -4   7  -2    6.50    1.60
  -4   7  -2    9.30    2.40
  -4   7  -2   12.30    4.40
  -4   7  -2    7.10    2.20
  -4   7  -2    9.20    4.00
  -4   7  -2   17.30    5.90
  -4   7  -2    7.10    2.20
  -5   7  -2   21.20    4.70
  -5   7  -2   22.80    3.50
  -5   7  -2   35.40    5.70
  -5   7  -2   25.50    3.10
  -5   7  -2   27.00    6.60
  -5   7  -2   25.10    3.70
  -6   7  -2  135.19   10.20
  -6   7  -2  132.69   12.30
  -6   7  -2  119.59    8.20
  -6   7  -2  126.69    7.60
  -7   7  -2  220.28   16.50
  -7   7  -2  240.58   12.80
  -7   7  -2  235.38   12.00
  -7   7  -2  213.68   13.60
  -8   7  -2   90.99   12.70
  -8   7  -2  128.69    9.50
  -8   7  -2  118.19   10.50
  -8   7  -2  123.09    8.80
   5   6  -2  338.67   18.80
   5   6  -2  308.87   16.60
   5   6  -2  315.27   15.60
   4   6  -2  305.17   14.10
   4   6  -2  284.57   14.80
   4   6  -2  296.87   17.00
   3   6  -2   15.70    3.40
   3   6  -2   13.50    2.90
   3   6  -2    8.00    4.70
   2   6  -2  156.68   10.50
   2   6  -2  151.38    8.30
   2   6  -2  164.78    7.80
   2   6  -2  153.88    8.00
   1   6  -2  388.76   15.70
   1   6  -2  396.66   20.90
   1   6  -2  419.86   16.60
   1   6  -2  381.06   16.20
   1   6  -2  380.16   16.30
   1   6  -2  405.36   19.00
   1   6  -2  408.06   15.80
   0   6  -2  716.13   27.40
   0   6  -2  774.72   30.70
   0   6  -2  709.83   27.90
   0   6  -2  738.23   29.50
   0   6  -2  720.73   28.00
   0   6  -2  762.62   27.40
   0   6  -2  717.43   32.80
  -1   6  -2  169.78    9.10
  -1   6  -2  164.68    6.70
  -1   6  -2  157.28   10.70
  -2   6  -2  318.37   12.40
  -2   6  -2  320.47   14.10
  -2   6  -2  302.07   16.90
  -2   6  -2  309.97   16.10
  -2   6  -2  321.57   12.50
  -3   6  -2  143.29    6.60
  -3   6  -2  127.59   10.20
  -3   6  -2  138.19    7.10
  -3   6  -2  132.69    6.40
  -3   6  -2  130.19    6.00
  -3   6  -2  145.39    6.00
  -3   6  -2  138.89    9.10
  -4   6  -2  287.97   11.50
  -4   6  -2  248.18   15.50
  -4   6  -2  282.67   12.20
  -4   6  -2  280.37   11.70
  -4   6  -2  268.77   14.00
  -4   6  -2  283.17   11.40
  -4   6  -2  261.97   13.70
  -4   6  -2  271.37   12.10
   4  -6   2  270.07   11.50
  -5   6  -2  107.59    7.00
  -5   6  -2  108.99    6.70
  -5   6  -2  116.59   10.00
  -5   6  -2  109.49    7.90
  -5   6  -2  104.59    6.40
  -5   6  -2   96.79    7.80
   5  -6   2   97.69    6.00
  -6   6  -2  101.89    6.70
  -6   6  -2   87.29    8.20
  -6   6  -2   70.09    9.10
  -6   6  -2   70.99    7.00
  -6   6  -2   94.89    7.20
  -7   6  -2  161.48    9.60
  -7   6  -2  151.88   10.80
  -7   6  -2  129.19   12.50
  -7   6  -2  147.99    9.90
  -8   6  -2  206.38   12.80
  -8   6  -2  205.78   13.40
  -8   6  -2  204.68   17.00
  -8   6  -2  224.08   12.60
  -9   6  -2   29.20    6.70
  -9   6  -2   31.10    6.10
  -9   6  -2   40.50    7.10
  -9   6  -2   43.00   11.90
   6   5  -2   21.10    5.00
   6   5  -2   12.20    6.00
   6   5  -2   23.40    4.50
   5   5  -2  174.08   10.40
   5   5  -2  187.78   11.40
   5   5  -2  181.58   12.60
   4   5  -2   42.00    5.40
   4   5  -2   50.19    5.30
   4   5  -2   27.30    5.80
  -4  -5   2   41.50    5.00
   3   5  -2   91.79    6.60
   3   5  -2  100.99    6.20
   3   5  -2  101.29    6.30
   3   5  -2   89.19    8.30
  -3  -5   2   92.79    5.80
   2   5  -2   71.29    3.50
   2   5  -2   64.09    4.90
   2   5  -2   64.09    4.40
   2   5  -2   64.99    4.60
   2   5  -2   73.09    4.20
   2   5  -2   68.89    6.40
  -2  -5   2   68.29    4.20
  -2  -5   2   67.19    3.90
   1   5  -2   58.59    3.40
   1   5  -2   65.79    3.90
   1   5  -2   57.19    5.60
   1   5  -2   62.29    3.60
   1   5  -2   55.09    3.70
   1   5  -2   54.89    3.90
  -1  -5   2   60.79    3.30
   0   5  -2  250.47   10.30
   0   5  -2  267.77   12.50
   0   5  -2  260.47   14.20
   0   5  -2  254.87   10.60
   0   5  -2  270.57   10.30
   0  -5   2  268.67   10.30
  -1   5  -2   55.09    2.80
  -1   5  -2   53.99    2.50
  -1   5  -2   46.50    4.10
  -1   5  -2   51.49    2.60
  -1   5  -2   52.79    2.90
  -1   5  -2   52.49    5.40
   1  -5   2   51.99    2.40
   1  -5   2   51.29    2.40
  -2   5  -2   19.50    2.10
  -2   5  -2   16.50    4.00
  -2   5  -2   21.20    2.70
  -2   5  -2   20.30    1.70
  -2   5  -2   18.20    1.70
  -2   5  -2   23.50    4.00
  -2   5  -2   18.00    1.90
   2  -5   2   20.60    1.50
  -3   5  -2    7.90    1.60
  -3   5  -2    9.40    1.60
   3  -5   2   11.30    1.60
   3  -5   2   10.60    1.50
  -4   5  -2    8.00    1.70
  -4   5  -2    6.70    2.80
  -4   5  -2   13.70    4.30
  -4   5  -2    6.00    2.10
  -4   5  -2    9.60    2.40
  -4   5  -2    9.40    3.20
  -4   5  -2    6.30    1.90
   4  -5   2    6.20    1.80
   4  -5   2    7.60    1.90
  -5   5  -2    7.40    2.10
  -5   5  -2    7.60    2.60
  -5   5  -2    8.30    2.90
  -5   5  -2   12.00    2.80
  -5   5  -2    7.90    3.20
   5  -5   2    8.40    2.30
   5  -5   2    7.20    2.30
  -6   5  -2    0.90    2.90
  -6   5  -2   -0.10    3.40
  -6   5  -2   -1.20    2.60
   6  -5   2   -1.00    2.10
  -7   5  -2   33.50    6.00
  -7   5  -2   21.00    4.80
  -7   5  -2   40.80    8.90
  -7   5  -2   43.80    5.90
  -7   5  -2   29.00    5.10
   7  -5   2   23.00    4.40
  -8   5  -2  149.19   10.30
  -8   5  -2  137.09   13.90
  -8   5  -2  136.19   10.30
  -8   5  -2  118.49    9.90
  -9   5  -2   16.80    5.70
  -9   5  -2   16.10    8.40
  -9   5  -2    8.90    5.40
  -9   5  -2   11.60    4.90
   7   4  -2   52.29    7.50
   7   4  -2   73.99    7.60
   7   4  -2   53.59    8.10
   6   4  -2    0.40    4.20
   6   4  -2    6.30    3.80
   6   4  -2    5.60    3.20
   5   4  -2   36.80    6.20
   5   4  -2   36.70    5.60
   5   4  -2   31.50    4.60
   4   4  -2   19.30    4.60
   4   4  -2   19.30    3.50
   4   4  -2   21.50    4.10
   3   4  -2  247.78   11.40
   3   4  -2  238.98   12.90
   3   4  -2  267.17   11.30
   3   4  -2  270.17   11.30
   3   4  -2  227.58   11.80
   3   4  -2  244.48   11.60
  -3  -4   2  240.58   11.10
  -3  -4   2  249.38   11.30
   2   4  -2    3.60    1.40
   2   4  -2    3.90    1.60
   2   4  -2    2.50    1.50
   2   4  -2    4.60    2.50
   2   4  -2    5.00    1.80
   2   4  -2    3.90    1.80
  -2  -4   2    4.00    1.50
  -2  -4   2    3.80    1.40
   1   4  -2   12.20    1.60
   1   4  -2   15.10    3.20
   1   4  -2   14.50    1.80
   1   4  -2   14.40    3.90
   1   4  -2   12.30    2.00
  -1  -4   2   15.10    1.80
  -1  -4   2   14.90    1.80
  -1  -4   2   16.80    1.80
   0   4  -2   17.50    1.70
   0   4  -2   13.60    1.60
   0   4  -2   12.80    2.80
   0   4  -2   11.50    3.40
   0   4  -2   11.20    1.60
   0  -4   2   16.90    1.40
   0  -4   2   14.50    1.90
   0  -4   2   13.50    1.50
   0  -4   2   14.90    2.40
  -1   4  -2  154.28    6.30
  -1   4  -2  153.18    6.20
  -1   4  -2  151.38    8.90
  -1   4  -2  154.28    6.60
  -1   4  -2  144.39    7.30
  -1   4  -2  155.88    6.40
   1  -4   2  157.28    6.10
   1  -4   2  146.89    6.20
   1  -4   2  146.09    6.00
  -2   4  -2   15.00    2.00
  -2   4  -2   26.00    2.20
  -2   4  -2   33.20    4.80
  -2   4  -2   19.90    2.10
  -2   4  -2   22.30    3.70
  -2   4  -2   22.80    2.50
  -2   4  -2   23.10    1.90
   2  -4   2   16.20    2.00
   2  -4   2   17.80    1.90
   2  -4   2   23.60    1.90
   2  -4   2   14.20    3.00
  -3   4  -2  513.85   20.80
  -3   4  -2  522.85   23.60
  -3   4  -2  509.45   20.60
  -3   4  -2  546.05   21.10
  -3   4  -2  553.54   20.60
  -3   4  -2  522.55   22.10
  -3   4  -2  511.35   19.60
   3  -4   2  534.95   22.10
   3  -4   2  531.05   20.80
   3  -4   2  516.15   20.60
  -4   4  -2   25.60    5.00
  -4   4  -2   27.60    2.90
  -4   4  -2   21.40    3.70
  -4   4  -2   22.90    3.20
  -4   4  -2   24.20    3.20
  -4   4  -2   25.70    3.10
  -4   4  -2   24.40    3.70
   4  -4   2   25.80    3.00
   4  -4   2   24.50    3.30
   4  -4   2   23.30    3.00
  -5   4  -2  396.86   18.40
  -5   4  -2  409.16   18.10
  -5   4  -2  440.76   17.90
  -5   4  -2  448.06   21.80
  -5   4  -2  414.46   18.80
  -5   4  -2  458.45   19.00
  -5   4  -2  443.46   18.70
   5  -4   2  378.46   17.90
  -6   4  -2   58.19    6.30
  -6   4  -2   52.39    7.80
  -6   4  -2   55.89    6.00
  -6   4  -2   58.79    6.00
  -6   4  -2   57.09    5.80
   6  -4   2   52.09    8.20
   6  -4   2   55.39    5.60
  -7   4  -2   13.00    6.50
  -7   4  -2    2.00    3.50
  -7   4  -2    4.50    3.60
  -7   4  -2    4.30    3.50
   7  -4   2    4.00    3.10
  -8   4  -2   75.09    8.30
  -8   4  -2   57.99    7.10
  -8   4  -2   64.89    8.20
  -8   4  -2   64.79   11.80
   8  -4   2   46.80    6.10
  -9   4  -2   94.19    9.50
  -9   4  -2   89.19    9.40
  -9   4  -2   93.19    8.60
  -9   4  -2   71.29   12.60
   9  -4   2   94.39    9.40
   8   3  -2   -3.90    4.10
   8   3  -2   -0.80    3.60
   8   3  -2    9.90    4.70
   7   3  -2   19.20    5.10
   7   3  -2   31.40    5.70
   7   3  -2   23.90    5.80
   6   3  -2   35.80    5.80
   6   3  -2   33.50    5.90
   6   3  -2   27.30    4.60
  -6  -3   2   31.80    4.30
   5   3  -2   78.49    7.20
   5   3  -2   84.29    6.60
   5   3  -2   82.59    8.00
  -5  -3   2   88.49    6.10
   4   3  -2    4.20    3.00
   4   3  -2    3.30    1.70
   4   3  -2    7.50    2.70
   4   3  -2    9.50    2.20
   4   3  -2    1.90    2.00
   4   3  -2    2.50    1.90
  -4  -3   2    7.60    2.30
   3   3  -2    3.40    2.40
   3   3  -2    4.80    1.90
   3   3  -2    5.50    2.10
   3   3  -2    4.30    1.70
   3   3  -2    4.30    1.90
   3   3  -2    5.60    1.70
   2   3  -2  424.56   17.80
   2   3  -2  387.56   16.70
   2   3  -2  437.26   16.70
   2   3  -2  395.66   16.60
   2   3  -2  386.26   16.40
   2   3  -2  398.56   16.40
  -2  -3   2  383.76   16.30
  -2  -3   2  388.66   16.30
  -2  -3   2  480.35   18.70
   1   3  -2 1416.36   49.00
   1   3  -2 1229.58   49.30
   1   3  -2 1226.08   48.50
   1   3  -2 1275.87   50.69
   1   3  -2 1247.48   48.20
  -1  -3   2 1351.06   49.30
  -1  -3   2 1263.77   48.20
  -1  -3   2 1305.57   48.30
  -1  -3   2 1289.67   48.40
  -1  -3   2 1318.17   48.20
   0   3  -2  444.06   16.80
   0   3  -2  443.16   16.90
   0   3  -2  418.26   17.60
   0   3  -2  443.96   16.70
   0   3  -2  429.76   18.90
   0   3  -2  427.36   16.90
   0  -3   2  442.76   16.80
   0  -3   2  435.96   16.70
   0  -3   2  436.76   16.70
   0  -3   2  441.66   17.50
   0  -3   2  458.45   16.70
  -1   3  -2  120.49    7.50
  -1   3  -2  127.89    5.40
  -1   3  -2  123.49    7.10
  -1   3  -2  131.19    5.50
  -1   3  -2  131.49    5.70
  -1   3  -2  129.29    5.40
  -1   3  -2  118.69    5.70
   1  -3   2  122.39    5.50
   1  -3   2  123.99    5.30
   1  -3   2  125.19    7.00
   1  -3   2  128.29    5.30
   1  -3   2  127.09    5.60
   1  -3   2  129.69    5.30
  -2   3  -2 1125.39   46.80
  -2   3  -2 1145.89   44.60
  -2   3  -2 1185.68   44.60
  -2   3  -2 1159.28   45.90
  -2   3  -2 1218.88   44.90
  -2   3  -2 1214.18   44.60
  -2   3  -2 1176.88   44.00
   2  -3   2 1174.28   46.00
   2  -3   2 1176.68   44.60
   2  -3   2 1238.18   44.50
   2  -3   2 1222.38   47.10
   2  -3   2 1169.78   44.80
   2  -3   2 1269.37   44.50
  -3   3  -2  685.33   28.40
  -3   3  -2  764.92   29.50
  -3   3  -2  754.32   28.80
  -3   3  -2  728.93   30.70
  -3   3  -2  680.93   28.30
  -3   3  -2  779.92   28.30
   3  -3   2  751.02   29.40
   3  -3   2  707.53   28.30
  -4   3  -2  355.96   13.70
  -4   3  -2  299.67   14.30
  -4   3  -2  318.37   14.10
  -4   3  -2  342.57   14.30
  -4   3  -2  293.87   13.60
  -4   3  -2  309.97   13.90
  -4   3  -2  307.77   16.10
   4  -3   2  312.17   13.70
   4  -3   2  311.47   14.40
   4  -3   2  303.67   14.00
  -5   3  -2  104.29    6.90
  -5   3  -2   98.49    7.10
  -5   3  -2  109.99    7.10
  -5   3  -2   97.39    6.70
  -5   3  -2  128.89    9.80
   5  -3   2   99.49    7.00
   5  -3   2  105.89    6.90
  -6   3  -2  161.78   12.60
  -6   3  -2  188.08   10.60
  -6   3  -2  185.58   10.80
  -6   3  -2  180.18   10.10
   6  -3   2  179.98    7.70
   6  -3   2  174.78   10.10
   6  -3   2  174.78   10.50
  -7   3  -2  151.08   10.60
  -7   3  -2  169.28   10.10
  -7   3  -2  178.18   11.00
  -7   3  -2  155.88   13.80
   7  -3   2  163.18   10.40
  -8   3  -2   60.39    7.00
  -8   3  -2   68.79    8.40
  -8   3  -2   56.09    7.50
  -8   3  -2   53.49   10.90
   8  -3   2   63.49    7.50
  -9   3  -2  125.59   14.40
  -9   3  -2  116.69   10.10
  -9   3  -2  156.58   11.60
   9  -3   2  136.99   11.10
   8   2  -2   16.20    4.90
   8   2  -2   28.20    6.00
   8   2  -2   21.60    6.10
   7   2  -2   27.20    5.40
   7   2  -2   27.40    5.70
   7   2  -2   29.90    6.30
  -7  -2   2   27.30    4.50
   6   2  -2  223.78   12.90
   6   2  -2  217.98   12.60
   6   2  -2  224.38   12.20
  -6  -2   2  216.48   11.10
   5   2  -2  488.15   21.70
   5   2  -2  538.65   22.10
   5   2  -2  496.75   22.60
   5   2  -2  498.45   22.40
  -5  -2   2  507.15   21.10
  -5  -2   2  517.35   19.70
   4   2  -2   83.69    5.50
   4   2  -2   76.49    5.90
   4   2  -2   78.79    4.80
   4   2  -2   78.59    6.00
   4   2  -2   82.69    5.40
   4   2  -2   88.99    5.30
  -4  -2   2   73.09    4.40
  -4  -2   2   81.79    5.20
   3   2  -2  745.03   29.20
   3   2  -2  765.62   29.00
   3   2  -2  748.73   29.90
   3   2  -2  787.12   28.90
   3   2  -2  718.13   29.00
   3   2  -2  671.83   29.30
  -3  -2   2  749.33   29.50
  -3  -2   2  742.23   28.90
   2   2  -2 3229.68  122.39
   2   2  -2 3153.68  121.99
   2   2  -2 3102.79  121.59
   2   2  -2 3275.27  121.89
   2   2  -2 3504.35  121.89
   2   2  -2 3357.36  121.69
  -2  -2   2 3281.47  121.79
  -2  -2   2 3350.76  121.89
  -2  -2   2 3443.16  122.39
  -2  -2   2 3327.07  121.69
  -2  -2   2 3190.68  121.69
   1   2  -2 1574.84   61.49
   1   2  -2 1584.14   61.39
   1   2  -2 1764.12   61.79
   1   2  -2 1675.13   61.39
   1   2  -2 1790.32   60.99
   1   2  -2 1648.14   62.89
   1   2  -2 1587.74   61.89
   1   2  -2 1596.74   61.29
  -1  -2   2 1624.64   61.49
  -1  -2   2 1653.93   61.29
  -1  -2   2 1661.93   61.89
  -1  -2   2 1672.13   61.29
   0   2  -2  457.35   18.00
   0   2  -2  477.65   17.70
   0   2  -2  467.25   17.80
   0   2  -2  510.55   18.30
   0   2  -2  450.85   19.00
   0   2  -2  437.36   17.70
   0   2  -2  454.35   17.60
   0  -2   2  463.35   18.60
   0  -2   2  454.05   17.70
   0  -2   2  463.05   17.60
   0  -2   2  461.95   18.00
   0  -2   2  478.95   19.00
   0  -2   2  463.35   17.60
  -1   2  -2    4.90    1.60
  -1   2  -2   11.40    1.50
   1  -2   2   14.10    2.20
   1  -2   2    9.30    1.20
   1  -2   2    6.30    0.90
  -2   2  -2 2600.24   95.89
  -2   2  -2 2602.84   96.09
  -2   2  -2 2656.93   96.99
  -2   2  -2 2423.46   97.29
  -2   2  -2 2524.85   96.69
  -2   2  -2 2753.12   95.79
  -2   2  -2 2469.85   95.69
   2  -2   2 2645.74   95.69
   2  -2   2 2550.64   95.79
   2  -2   2 2818.72   95.79
   2  -2   2 2546.15   96.69
   2  -2   2 2468.65   95.99
  -3   2  -2 1267.67   46.00
  -3   2  -2 1109.19   44.40
  -3   2  -2 1136.69   44.60
  -3   2  -2 1061.49   46.30
  -3   2  -2 1038.10   45.00
  -3   2  -2 1219.88   44.90
  -3   2  -2 1251.07   44.50
   3  -2   2 1177.28   45.40
   3  -2   2 1140.99   43.20
   3  -2   2 1254.17   44.50
   3  -2   2 1184.88   44.50
   3  -2   2 1170.88   44.90
   3  -2   2 1198.38   45.40
  -4   2  -2  384.96   16.80
  -4   2  -2  395.26   16.60
  -4   2  -2  398.16   17.10
  -4   2  -2  355.46   18.70
  -4   2  -2  422.96   17.30
  -4   2  -2  354.96   17.20
   4  -2   2  419.56   15.50
   4  -2   2  405.26   17.70
   4  -2   2  406.36   17.30
   4  -2   2  420.56   17.00
  -5   2  -2   19.90    3.50
  -5   2  -2   20.50    3.90
  -5   2  -2   26.10    3.70
  -5   2  -2   23.00    5.40
  -5   2  -2   22.00    3.80
   5  -2   2   17.50    3.60
   5  -2   2   21.50    2.50
   5  -2   2   21.50    3.80
  -6   2  -2  208.88   11.60
  -6   2  -2  205.98   10.70
  -6   2  -2  189.28   14.00
  -6   2  -2  212.58   11.80
   6  -2   2  197.98   11.70
   6  -2   2  209.08    9.70
   6  -2   2  207.78   11.50
  -7   2  -2   -0.50    3.80
  -7   2  -2    5.30    3.70
  -7   2  -2    7.70    3.40
  -7   2  -2    6.70    5.70
   7  -2   2    8.30    4.30
   7  -2   2    0.50    3.60
  -8   2  -2   11.20    7.50
  -8   2  -2    9.70    3.80
  -8   2  -2   12.30    5.20
  -8   2  -2    7.00    4.90
   8  -2   2    9.80    4.70
  -9   2  -2   20.80   12.80
  -9   2  -2    5.30    5.40
   9  -2   2    9.20    5.00
   9   1  -2  226.38   14.50
   9   1  -2  232.58   14.30
   8   1  -2   88.49    8.30
   8   1  -2   84.69    8.60
   8   1  -2   74.89    8.30
  -8  -1   2   65.09   10.70
  -8  -1   2   71.79    7.00
   7   1  -2   16.80    4.10
   7   1  -2   23.70    5.30
   7   1  -2   15.50    4.50
  -7  -1   2   18.60    4.30
  -7  -1   2   33.00    8.90
   6   1  -2   12.80    4.10
   6   1  -2    9.00    3.40
   6   1  -2    7.20    3.20
   6   1  -2   10.10    3.20
  -6  -1   2   20.50    6.00
  -6  -1   2    4.90    2.50
  -6  -1   2    7.30    3.20
   5   1  -2   81.69    6.20
   5   1  -2   81.89    6.60
   5   1  -2   82.79    6.00
   5   1  -2   95.89    6.20
  -5  -1   2   91.89    5.40
  -5  -1   2   85.99    5.70
  -5  -1   2   69.09    7.70
   4   1  -2    1.50    2.20
   4   1  -2    3.70    1.70
   4   1  -2    1.00    2.00
   4   1  -2    2.30    1.70
   4   1  -2    1.30    1.80
   4   1  -2    1.70    1.60
  -4  -1   2    2.70    2.80
  -4  -1   2    3.60    2.10
  -4  -1   2    1.30    1.90
   3   1  -2  107.59    5.90
   3   1  -2  111.19    6.50
   3   1  -2  107.19    6.10
   3   1  -2  124.79    6.00
   3   1  -2  102.29    6.10
   3   1  -2  116.29    6.60
  -3  -1   2  117.69    6.30
  -3  -1   2  122.69    6.50
  -3  -1   2  115.79    6.10
  -3  -1   2  123.19    6.20
   2   1  -2   33.40    3.00
   2   1  -2   39.30    2.70
   2   1  -2   33.50    3.00
  -2  -1   2   35.30    2.80
  -2  -1   2   33.50    2.80
  -2  -1   2   40.00    2.80
   1   1  -2  980.40   34.80
   1   1  -2  889.91   34.60
   1   1  -2  898.51   34.50
   1   1  -2  908.61   34.50
   1   1  -2  892.81   35.20
   1   1  -2  863.11   34.60
   1   1  -2  968.00   34.40
   1   1  -2  919.71   34.90
  -1  -1   2  937.91   34.90
  -1  -1   2  872.31   34.50
  -1  -1   2  899.21   34.50
  -1  -1   2  903.81   34.60
  -1  -1   2  980.80   34.40
  -1  -1   2  949.11   35.30
  -1  -1   2  967.30   34.90
  -1  -1   2  916.81   34.70
   0   1  -2 1012.10   37.10
   0   1  -2 1002.60   37.80
   0   1  -2 1006.10   36.90
   0   1  -2  956.60   36.90
   0   1  -2  998.80   36.90
   0   1  -2  940.51   37.00
   0   1  -2 1012.70   37.30
   0  -1   2  982.70   37.30
   0  -1   2 1047.00   37.00
   0  -1   2 1014.40   37.70
   0  -1   2  976.00   37.00
   0  -1   2  968.30   37.00
   0  -1   2  977.70   36.90
   0  -1   2  980.10   36.90
  -1   1  -2  614.94   23.10
  -1   1  -2  667.13   23.90
  -1   1  -2  590.14   23.20
  -1   1  -2  555.44   23.90
  -1   1  -2  624.84   23.40
  -1   1  -2  589.94   24.00
  -1   1  -2  634.24   23.20
   1  -1   2  614.94   23.20
   1  -1   2  601.64   24.10
   1  -1   2  609.34   24.00
   1  -1   2  596.84   23.00
   1  -1   2  601.74   23.10
   1  -1   2  599.44   23.10
   1  -1   2  625.84   23.90
   1  -1   2  607.14   23.40
  -2   1  -2  121.49    6.40
  -2   1  -2  129.69    5.80
  -2   1  -2  109.19    6.40
  -2   1  -2  109.99    6.80
  -2   1  -2  109.89    5.70
  -2   1  -2  119.29    5.90
  -2   1  -2  116.89    6.00
   2  -1   2  129.39    5.70
   2  -1   2  116.49    6.70
   2  -1   2  116.79    6.10
   2  -1   2  112.89    6.50
   2  -1   2  123.39    6.70
   2  -1   2  113.59    5.70
   2  -1   2  125.99    5.80
  -3   1  -2  464.45   19.20
  -3   1  -2  433.16   17.80
  -3   1  -2  427.96   18.40
  -3   1  -2  479.55   18.30
  -3   1  -2  420.36   20.00
  -3   1  -2  425.56   18.20
  -3   1  -2  420.16   19.00
  -3   1  -2  455.45   18.70
   3  -1   2  469.25   20.10
   3  -1   2  474.45   18.40
   3  -1   2  432.06   18.30
   3  -1   2  485.55   18.20
   3  -1   2  459.95   19.50
   3  -1   2  429.16   17.50
   3  -1   2  442.16   18.70
  -4   1  -2   50.59    4.40
  -4   1  -2   42.20    4.50
  -4   1  -2   48.90    3.80
  -4   1  -2   51.69    4.60
  -4   1  -2   50.89    6.10
   4  -1   2   53.89    4.20
   4  -1   2   49.20    4.40
   4  -1   2   49.00    3.70
   4  -1   2   49.10    4.80
  -5   1  -2   10.10    3.10
  -5   1  -2   12.00    3.30
  -5   1  -2   14.10    2.80
  -5   1  -2   14.20    3.50
   5  -1   2   10.40    2.60
   5  -1   2   13.20    3.50
   5  -1   2    7.10    3.00
  -6   1  -2   18.70    4.40
  -6   1  -2   14.90    4.30
  -6   1  -2   23.00    3.60
  -6   1  -2   19.00    6.60
   6  -1   2   16.60    3.40
   6  -1   2   20.20    4.60
   6  -1   2   19.60    4.70
  -7   1  -2    9.60    4.10
  -7   1  -2   18.50    3.70
  -7   1  -2   26.30    8.80
  -7   1  -2   15.40    4.90
   7  -1   2   19.40    4.00
   7  -1   2   21.30    5.10
   7  -1   2   21.40    5.00
  -8   1  -2  136.89   14.50
  -8   1  -2  111.99   10.40
   8  -1   2  123.49   10.40
   9  -1   2   20.20    6.00
   9   0  -2   99.09    9.30
   9   0  -2   89.19    9.10
  -9   0   2   85.39    7.90
  -9   0   2   96.19   13.50
   8   0  -2  108.79    9.10
   8   0  -2  113.79    9.30
   8   0  -2  118.69    9.70
  -8   0   2  107.89    8.40
  -8   0   2  117.69   12.70
   7   0  -2  330.67   16.20
   7   0  -2  312.77   16.80
   7   0  -2  342.37   16.50
  -7   0   2  321.47   20.10
  -7   0   2  331.67   16.70
  -7   0   2  326.07   15.80
   6   0  -2   69.89    6.30
   6   0  -2   68.79    6.50
   6   0  -2   66.59    6.20
  -6   0   2   95.39    9.20
  -6   0   2   73.89    6.10
  -6   0   2   67.69    6.70
   5   0  -2   10.50    2.70
   5   0  -2    9.40    3.00
   5   0  -2   10.70    2.80
   5   0  -2   12.80    2.70
  -5   0   2    8.40    2.80
  -5   0   2   12.20    2.80
  -5   0   2   16.20    3.10
   4   0  -2  408.26   17.40
   4   0  -2  443.46   18.60
   4   0  -2  402.16   17.30
   4   0  -2  376.76   17.10
   4   0  -2  411.06   17.00
   4   0  -2  392.86   17.50
  -4   0   2  405.76   19.50
  -4   0   2  423.86   17.60
  -4   0   2  419.46   17.20
  -4   0   2  421.06   17.20
  -4   0   2  416.16   17.20
   3   0  -2  761.32   31.40
   3   0  -2  808.92   30.20
   3   0  -2  758.92   30.10
   3   0  -2  788.42   30.30
   3   0  -2  731.33   30.30
   3   0  -2  801.32   30.10
   3   0  -2  780.42   30.40
  -3   0   2  807.42   30.20
  -3   0   2  758.02   31.70
  -3   0   2  789.72   30.30
  -3   0   2  798.72   30.50
  -3   0   2  741.43   30.10
  -3   0   2  820.22   30.40
   2   0  -2  240.48    9.90
   2   0  -2  244.48    9.70
   2   0  -2  215.28    9.40
   2   0  -2  219.88    9.60
   2   0  -2  233.48    9.50
   2   0  -2  257.87   10.40
   2   0  -2  222.38    9.50
  -2   0   2  240.78    9.80
  -2   0   2  216.48    9.40
  -2   0   2  213.98    9.40
  -2   0   2  244.78   10.40
  -2   0   2  212.98    9.50
  -2   0   2  238.78    9.80
  -2   0   2  217.18    9.60
  -2   0   2  209.38    9.50
   1   0  -2 2514.35   86.09
   1   0  -2 2312.67   85.79
   1   0  -2 2344.57   86.19
   1   0  -2 2223.08   85.79
   1   0  -2 2285.17   85.79
   1   0  -2 2338.07   86.69
   1   0  -2 2347.67   87.39
   1   0  -2 2270.07   86.69
  -1   0   2 2343.97   85.99
  -1   0   2 2397.66   86.19
  -1   0   2 2255.17   87.29
  -1   0   2 2308.97   88.19
  -1   0   2 2422.66   87.89
  -1   0   2 2245.98   85.89
  -1   0   2 2268.87   86.99
  -1   0   2 2356.86   86.49
   0   0  -2 1480.45   53.99
   0   0  -2 1452.75   53.69
   0   0  -2 1448.76   53.49
   0   0  -2 1439.16   53.49
   0   0  -2 1432.56   54.79
   0   0  -2 1468.55   53.49
   0   0  -2 1414.06   53.49
   0   0  -2 1387.46   54.19
   0   0   2 1402.66   53.49
   0   0   2 1501.95   53.49
   0   0   2 1377.76   53.69
   0   0   2 1462.85   53.59
   0   0   2 1516.05   54.29
   0   0   2 1460.35   54.09
   0   0   2 1453.75   53.99
   0   0   2 1415.66   53.49
  -1   0  -2 5137.09  202.98
  -1   0  -2 5498.05  204.18
  -1   0  -2 5501.55  203.48
  -1   0  -2 5437.06  208.28
  -1   0  -2 5772.32  206.08
  -1   0  -2 5354.76  203.68
  -1   0  -2 5274.97  204.38
   1   0   2 5073.19  204.68
   1   0   2 5702.23  203.98
   1   0   2 5752.42  203.68
   1   0   2 5158.08  202.58
   1   0   2 5968.60  206.58
   1   0   2 5910.41  206.98
   1   0   2 5269.37  204.68
  -2   0  -2   79.69    4.70
  -2   0  -2   77.69    4.90
  -2   0  -2   95.39    6.10
  -2   0  -2   80.99    4.50
  -2   0  -2   73.59    4.70
  -2   0  -2   85.79    4.90
   2   0   2   84.69    4.60
   2   0   2   75.99    4.70
   2   0   2   71.29    5.20
   2   0   2   76.19    5.00
   2   0   2   82.19    4.50
  -3   0  -2  222.68   10.00
  -3   0  -2  193.68    9.60
  -3   0  -2  187.88    9.40
  -3   0  -2  206.68    9.70
  -3   0  -2  191.78    8.30
  -3   0  -2  192.38   11.30
   3   0   2  195.18   10.20
   3   0   2  187.58    9.80
   3   0   2  206.88    9.20
   3   0   2  191.68    9.10
   3   0   2  214.88    9.50
   3   0   2  186.48    9.40
  -4   0  -2    3.50    3.60
  -4   0  -2    1.60    2.10
  -4   0  -2   -1.00    1.70
  -4   0  -2    0.90    1.40
   4   0   2    0.00    1.90
   4   0   2    0.10    2.20
   4   0   2    1.30    2.20
   4   0   2    2.20    1.90
  -5   0  -2   60.79    6.00
  -5   0  -2   82.79    9.00
  -5   0  -2   57.09    5.90
  -5   0  -2   62.99    4.40
   5   0   2   62.29    5.30
   5   0   2   52.19    6.30
   5   0   2   57.89    5.50
   5   0   2   55.79    5.90
  -6   0  -2   25.50    4.70
  -6   0  -2   30.20    3.60
  -6   0  -2   46.00    9.10
  -6   0  -2   21.20    4.60
   6   0   2   21.20    4.20
   6   0   2   24.30    4.90
   6   0   2   21.50    4.60
  -7   0  -2    5.90    6.60
  -7   0  -2    7.10    4.20
   7   0   2    4.20    4.00
   7   0   2    0.70    3.50
   7   0   2    3.90    4.20
  -8   0  -2   84.69   12.00
  -8   0  -2   94.89    9.40
   8   0   2   93.39    9.30
  10  -1  -2    7.20    4.40
 -10   1   2   -5.90    5.00
   9  -1  -2   26.90    5.70
   9  -1  -2   26.20    5.70
  -9   1   2   22.00    5.30
  -9   1   2   53.59   11.50
   8  -1  -2    6.30    4.20
   8  -1  -2    4.50    4.00
  -8   1   2    5.30    5.60
  -8   1   2    6.80    4.40
  -8   1   2    0.90    3.50
   7  -1  -2   91.19    7.30
   7  -1  -2  100.69    8.00
   7  -1  -2   96.29    7.80
  -7   1   2   90.19    7.50
  -7   1   2   80.49   10.30
  -7   1   2   82.39    7.80
   6  -1  -2   76.49    6.40
   6  -1  -2   74.49    5.00
   6  -1  -2   73.59    6.20
   6  -1  -2   68.29    5.90
  -6   1   2   74.49    6.10
  -6   1   2   84.09    6.40
  -6   1   2   73.49    6.50
  -6   1   2   73.09    8.30
   5  -1  -2  142.79    8.20
   5  -1  -2  149.59    8.00
   5  -1  -2  134.69    7.80
  -5   1   2  146.39    8.20
  -5   1   2  156.48    8.30
  -5   1   2  134.09    8.10
  -5   1   2  145.99    9.90
  -5   1   2  155.98    8.10
   4  -1  -2  592.54   24.60
   4  -1  -2  593.34   24.80
   4  -1  -2  610.54   24.60
   4  -1  -2  636.94   25.20
   4  -1  -2  634.34   26.10
   4  -1  -2  588.14   24.50
  -4   1   2  614.34   26.50
  -4   1   2  638.24   24.60
  -4   1   2  599.24   24.90
  -4   1   2  624.64   24.90
  -4   1   2  641.94   24.60
   3  -1  -2  146.99    7.00
   3  -1  -2  140.69    7.20
   3  -1  -2  142.49    7.00
   3  -1  -2  142.99    5.90
   3  -1  -2  141.79    6.80
   3  -1  -2  148.19    7.00
   3  -1  -2  154.68    7.70
   3  -1  -2  141.59    6.80
  -3   1   2  143.59    7.80
  -3   1   2  156.98    6.90
  -3   1   2  156.78    7.10
  -3   1   2  136.19    6.80
  -3   1   2  144.19    7.20
  -3   1   2  147.09    7.10
   2  -1  -2  231.28    9.70
   2  -1  -2  221.38    9.70
   2  -1  -2  218.58    9.10
   2  -1  -2  236.48    9.50
   2  -1  -2  237.78    9.50
   2  -1  -2  227.18   10.00
   2  -1  -2  231.18    9.60
  -2   1   2  235.88    9.60
  -2   1   2  237.48    9.90
  -2   1   2  234.28    9.50
  -2   1   2  240.48    9.50
  -2   1   2  231.58   10.10
  -2   1   2  237.28    9.10
  -2   1   2  232.58    9.70
  -2   1   2  235.28    9.90
  -2   1   2  219.08    9.80
   1  -1  -2  154.78    6.50
   1  -1  -2  142.39    6.20
   1  -1  -2  148.39    6.20
   1  -1  -2  144.29    6.30
   1  -1  -2  139.89    6.80
  -1   1   2  156.38    6.50
  -1   1   2  158.48    6.30
  -1   1   2  159.98    6.30
  -1   1   2  144.69    6.90
  -1   1   2  141.59    6.30
  -1   1   2  146.59    6.20
   0  -1  -2 9376.76  356.76
   0  -1  -2 9541.15  356.56
   0  -1  -2 9709.23  357.06
   0  -1  -2 9686.63  359.16
   0  -1  -2 9106.29  358.06
   0  -1  -2 9999.00  355.96
   0   1   2 9531.95  358.16
   0   1   2 9876.41  361.26
   0   1   2 9520.75  357.36
   0   1   2 9875.01  358.36
   0   1   2 9736.03  357.46
   0   1   2 9731.43  359.76
   0   1   2 9932.71  357.06
   0   1   2 9559.74  355.66
  -1  -1  -2 4874.71  182.18
  -1  -1  -2 5206.18  182.88
  -1  -1  -2 4651.73  185.58
  -1  -1  -2 4917.41  182.28
  -1  -1  -2 4956.40  182.18
  -1  -1  -2 5107.39  183.18
   1   1   2 4983.70  183.98
   1   1   2 4775.62  182.48
   1   1   2 5188.78  183.68
   1   1   2 4652.13  183.78
   1   1   2 4822.92  182.78
   1   1   2 5209.98  182.88
   1   1   2 5067.49  184.68
  -2  -1  -2    5.70    2.00
  -2  -1  -2    9.00    2.10
  -2  -1  -2   14.80    3.50
  -2  -1  -2    7.90    2.30
  -2  -1  -2    7.30    2.00
   2   1   2    9.30    2.40
   2   1   2    5.30    1.90
   2   1   2    7.90    1.80
   2   1   2    8.90    2.00
   2   1   2    8.80    2.50
  -3  -1  -2   29.70    4.90
  -3  -1  -2   31.70    1.90
  -3  -1  -2   29.80    3.60
  -3  -1  -2   30.40    3.60
  -3  -1  -2   26.10    3.10
   3   1   2   32.40    3.80
   3   1   2   29.10    3.80
   3   1   2   29.60    3.30
   3   1   2   32.80    4.10
   3   1   2   33.60    3.10
   3   1   2   34.20    3.90
  -4  -1  -2  128.79   10.40
  -4  -1  -2  120.39    7.80
  -4  -1  -2  129.49    5.70
  -4  -1  -2  123.19    7.60
   4   1   2  130.89    7.90
   4   1   2  128.09    7.90
   4   1   2  127.49    8.40
   4   1   2  135.79    7.60
   4   1   2  132.89    8.40
  -5  -1  -2  959.70   39.70
  -5  -1  -2 1018.20   39.70
  -5  -1  -2  990.80   43.90
  -5  -1  -2  964.00   37.00
   5   1   2  984.10   40.50
   5   1   2  997.30   39.80
   5   1   2  962.90   39.50
  -6  -1  -2  511.45   22.80
  -6  -1  -2  464.95   26.80
   6   1   2  518.95   23.70
   6   1   2  491.35   22.40
   6   1   2  501.35   22.90
  -7  -1  -2   10.00    4.50
  -7  -1  -2    7.00    6.40
   7   1   2    9.70    4.70
   7   1   2    3.70    3.90
   7   1   2   11.50    4.50
  -8  -1  -2   95.49    9.60
  -8  -1  -2   73.49   12.70
   8   1   2  119.19   16.40
  10  -2  -2   22.50    5.80
 -10   2   2    3.70    4.80
 -10   2   2    0.20    7.00
   9  -2  -2   91.39   11.40
   9  -2  -2  120.09    9.40
  -9   2   2   94.89    8.90
  -9   2   2  101.39   12.40
   8  -2  -2    0.90    3.70
   8  -2  -2    1.40    3.50
  -8   2   2   -1.40    3.80
  -8   2   2    2.30    4.90
  -8   2   2   -0.30    3.70
   7  -2  -2  964.80   37.20
   7  -2  -2  914.11   37.40
   7  -2  -2  864.11   36.50
  -7   2   2  939.61   37.70
  -7   2   2  900.21   37.30
  -7   2   2  880.31   40.90
   6  -2  -2  328.37   15.20
   6  -2  -2  325.57   13.00
   6  -2  -2  318.67   14.80
   6  -2  -2  328.47   14.80
  -6   2   2  310.17   15.20
  -6   2   2  311.17   15.10
  -6   2   2  322.07   17.70
  -6   2   2  319.47   15.10
   5  -2  -2   36.30    3.90
   5  -2  -2   44.00    4.00
   5  -2  -2   41.40    4.30
  -5   2   2   42.60    3.80
  -5   2   2   40.50    4.20
  -5   2   2   38.90    4.40
  -5   2   2   39.50    5.10
  -5   2   2   42.60    3.60
  -5   2   2   37.90    4.30
   4  -2  -2  359.46   15.40
   4  -2  -2  374.36   15.50
   4  -2  -2  333.07   14.80
   4  -2  -2  370.46   16.30
  -4   2   2  319.87   14.80
  -4   2   2  345.47   15.40
  -4   2   2  358.26   15.00
  -4   2   2  362.46   16.60
  -4   2   2  371.56   15.40
  -4   2   2  377.96   15.10
   3  -2  -2  325.27   12.60
   3  -2  -2  274.47   12.00
   3  -2  -2  278.37   11.60
   3  -2  -2  273.57   11.50
   3  -2  -2  275.57   11.50
  -3   2   2  268.47   11.80
  -3   2   2  262.57   12.10
  -3   2   2  299.17   12.20
  -3   2   2  263.37   11.60
  -3   2   2  260.97   12.60
  -3   2   2  279.57   11.60
  -3   2   2  245.88   11.60
  -3   2   2  305.87   12.70
   2  -2  -2 1810.12   66.09
   2  -2  -2 1844.52   65.59
   2  -2  -2 1792.42   66.29
   2  -2  -2 1714.13   65.69
   2  -2  -2 1722.23   65.59
  -2   2   2 1755.82   65.69
  -2   2   2 1904.21   66.19
  -2   2   2 1656.33   65.79
  -2   2   2 1710.93   65.69
  -2   2   2 1729.03   66.29
  -2   2   2 1660.13   66.89
  -2   2   2 2019.70   65.99
  -2   2   2 1722.43   65.79
   1  -2  -2  110.29    5.10
   1  -2  -2  107.29    5.90
   1  -2  -2  103.69    4.70
   1  -2  -2  110.49    4.70
   1  -2  -2  107.29    4.70
   1  -2  -2  101.19    4.80
  -1   2   2  106.69    5.00
  -1   2   2  104.59    6.00
  -1   2   2  120.89    5.80
  -1   2   2  109.39    4.80
  -1   2   2  111.49    4.80
  -1   2   2  111.59    5.20
  -1   2   2  104.59    4.70
   0  -2  -2  379.66   14.80
   0  -2  -2  387.26   15.90
   0  -2  -2  385.56   14.80
   0  -2  -2  375.76   14.60
   0  -2  -2  377.66   14.90
   0  -2  -2  378.96   14.90
   0   2   2  379.06   15.90
   0   2   2  383.86   14.90
   0   2   2  381.16   14.90
   0   2   2  379.76   14.60
   0   2   2  382.76   15.70
   0   2   2  382.76   14.80
   0   2   2  374.66   15.10
  -1  -2  -2  113.09    5.70
  -1  -2  -2  116.59    5.90
  -1  -2  -2  120.19    5.60
  -1  -2  -2  127.29    7.00
  -1  -2  -2  113.49    6.30
   1   2   2  123.29    6.50
   1   2   2  107.99    6.70
   1   2   2  108.09    5.80
   1   2   2  115.29    5.70
   1   2   2  108.79    6.10
   1   2   2  117.39    5.60
  -2  -2  -2   10.50    2.30
  -2  -2  -2   11.90    2.30
  -2  -2  -2   12.80    3.60
   2   2   2   13.70    2.10
   2   2   2   15.30    3.40
   2   2   2   10.60    2.50
   2   2   2   10.60    2.30
   2   2   2   11.30    2.60
   2   2   2   11.50    2.10
  -3  -2  -2    3.30    3.40
  -3  -2  -2    3.80    2.00
  -3  -2  -2    4.90    2.20
   3   2   2    5.40    2.70
   3   2   2    1.30    1.60
   3   2   2    3.90    1.90
   3   2   2    7.10    2.60
   3   2   2    5.20    2.90
   3   2   2    4.40    2.30
  -4  -2  -2  266.47   13.00
  -4  -2  -2  258.17   13.00
  -4  -2  -2  265.27   16.30
   4   2   2  267.17   13.80
   4   2   2  274.87   14.00
   4   2   2  267.07   13.20
   4   2   2  273.27   13.40
  -5  -2  -2  342.67   16.50
  -5  -2  -2  321.77   20.00
   5   2   2  353.26   16.90
   5   2   2  349.47   17.00
   5   2   2  366.46   17.80
  -6  -2  -2   14.90    4.00
  -6  -2  -2   15.50    7.10
   6   2   2   16.20    4.90
   6   2   2   18.00    4.90
   6   2   2   15.50    4.70
  -7  -2  -2    5.20    4.10
   7   2   2    8.70    4.80
   7   2   2   10.90    4.80
   7   2   2    5.70    4.70
  10  -3  -2   48.40    6.70
 -10   3   2   38.80   10.40
 -10   3   2   32.20    6.60
   9  -3  -2  219.38   12.60
  -9   3   2  188.98   16.50
  -9   3   2  191.08   12.70
   8  -3  -2   72.49    7.10
   8  -3  -2   62.09    6.90
  -8   3   2   63.49    7.50
  -8   3   2   58.29    9.60
  -8   3   2   68.39    7.80
   7  -3  -2  203.68   10.80
   7  -3  -2  181.18   10.50
  -7   3   2  180.68   11.20
  -7   3   2  207.28   13.90
  -7   3   2  178.88   11.00
   6  -3  -2   18.40    3.60
   6  -3  -2   12.20    3.00
   6  -3  -2    8.40    2.70
  -6   3   2    7.50    3.30
  -6   3   2    6.70    2.50
  -6   3   2    8.60    3.20
   5  -3  -2  876.21   34.50
  -5   3   2  919.51   34.70
  -5   3   2  882.31   35.50
  -5   3   2  813.82   34.50
  -5   3   2  936.51   34.70
  -5   3   2  875.21   36.90
  -5   3   2  896.21   35.20
   4  -3  -2  206.98    9.90
   4  -3  -2  169.88    8.20
   4  -3  -2  185.98    8.40
  -4   3   2  203.28   10.20
  -4   3   2  183.38    9.30
  -4   3   2  167.38    8.70
  -4   3   2  192.18    9.00
  -4   3   2  169.88    8.30
  -4   3   2  165.98    8.40
   3  -3  -2 1035.00   38.40
   3  -3  -2 1047.60   38.30
   3  -3  -2 1013.30   38.30
   3  -3  -2 1012.40   39.60
  -3   3   2  961.00   38.60
  -3   3   2 1007.50   38.80
  -3   3   2 1050.59   38.50
  -3   3   2 1027.00   39.50
  -3   3   2  993.70   40.30
  -3   3   2 1016.60   38.50
  -3   3   2 1087.59   39.70
  -3   3   2  985.50   39.60
   2  -3  -2  504.95   19.60
   2  -3  -2  480.35   19.70
   2  -3  -2  542.85   20.70
   2  -3  -2  576.54   19.50
  -2   3   2  517.05   19.70
  -2   3   2  583.34   20.90
  -2   3   2  492.15   19.70
  -2   3   2  515.45   20.70
  -2   3   2  494.35   19.90
  -2   3   2  474.45   21.50
  -2   3   2  488.05   19.90
   1  -3  -2  394.86   14.40
   1  -3  -2  365.56   14.40
   1  -3  -2  372.36   14.40
   1  -3  -2  364.96   14.40
   1  -3  -2  369.46   16.10
  -1   3   2  386.66   14.50
  -1   3   2  369.56   14.50
  -1   3   2  389.16   14.60
  -1   3   2  369.76   14.70
  -1   3   2  358.96   16.20
  -1   3   2  375.36   15.10
   0  -3  -2   20.00    2.20
   0  -3  -2   19.90    3.00
   0  -3  -2   22.30    2.00
   0  -3  -2   23.30    2.10
   0   3   2   23.50    2.30
   0   3   2   23.80    2.60
   0   3   2   26.70    2.30
   0   3   2   20.00    3.20
   0   3   2   26.80    2.10
   0   3   2   19.30    1.90
   0   3   2   29.40    3.30
  -1  -3  -2   79.89    4.60
  -1  -3  -2   84.29    5.50
  -1  -3  -2   78.29    4.60
   1   3   2   83.99    4.80
   1   3   2   75.49    5.00
   1   3   2   87.29    4.50
   1   3   2   85.19    6.00
   1   3   2   85.79    5.60
   1   3   2   87.79    4.70
  -2  -3  -2    4.40    1.90
  -2  -3  -2    4.30    1.90
   2   3   2    4.60    1.80
   2   3   2    2.30    1.40
   2   3   2    4.90    2.40
   2   3   2    4.30    2.30
   2   3   2    4.00    2.00
   2   3   2    2.40    2.50
  -3  -3  -2  137.79    7.70
  -3  -3  -2  133.89    7.60
   3   3   2  134.39    7.60
   3   3   2  133.19    9.10
   3   3   2  129.79    8.10
   3   3   2  130.09    7.80
   3   3   2  139.99    7.30
   3   3   2  129.69    8.40
  -4  -3  -2    6.90    2.90
   4   3   2    4.20    3.00
   4   3   2   14.10    4.40
   4   3   2    8.10    3.50
   4   3   2   10.80    3.60
  -5  -3  -2    0.00    2.70
   5   3   2    1.50    3.40
   5   3   2   -1.30    3.00
   5   3   2   -3.10    3.30
   6   3   2    1.30    3.70
   6   3   2    3.50    4.10
   6   3   2    4.00    3.90
 -10   4   2   19.20    8.10
 -10   4   2    8.90    5.80
 -10   4   2   17.40    6.20
   9  -4  -2   73.49    7.40
  -9   4   2   47.30   10.30
  -9   4   2   60.99    8.50
   8  -4  -2   30.40    4.60
  -8   4   2   29.10    8.00
  -8   4   2   23.50    5.90
   7  -4  -2   85.59    6.40
  -7   4   2   66.69    8.70
  -7   4   2   69.59    7.00
   6  -4  -2    9.90    2.40
   6  -4  -2   12.20    2.70
  -6   4   2   13.30    3.70
  -6   4   2   11.30    3.00
  -6   4   2    9.80    2.90
  -6   4   2    9.00    2.50
   5  -4  -2  102.79    5.70
   5  -4  -2   98.89    5.60
  -5   4   2  101.69    6.40
  -5   4   2  100.69    7.20
  -5   4   2   96.89    7.50
  -5   4   2   93.89    5.90
  -5   4   2  104.09    5.80
   4  -4  -2   53.89    3.50
   4  -4  -2   64.19    3.50
   4  -4  -2   61.89    5.10
  -4   4   2   56.89    5.10
  -4   4   2   53.39    3.80
  -4   4   2   56.09    5.00
  -4   4   2   58.29    3.70
  -4   4   2   57.69    4.10
  -4   4   2   59.59    3.50
  -4   4   2   51.89    3.90
  -4   4   2   52.39    5.30
   3  -4  -2    4.90    1.10
   3  -4  -2    7.70    1.20
  -3   4   2    5.40    1.40
  -3   4   2    5.00    1.20
  -3   4   2    5.20    1.40
  -3   4   2    6.60    1.40
  -3   4   2    7.30    2.30
  -3   4   2    3.80    2.40
  -2   4   2   18.50    3.70
  -2   4   2   20.60    2.80
  -2   4   2   30.30    1.90
  -2   4   2   20.90    1.80
  -2   4   2   29.00    2.10
  -2   4   2   20.10    2.20
   1  -4  -2   39.90    2.30
  -1   4   2   39.20    3.20
  -1   4   2   40.70    2.40
  -1   4   2   42.10    2.90
  -1   4   2   40.50    4.30
  -1   4   2   42.00    2.50
  -1   4   2   40.50    2.50
   0  -4  -2   52.89    3.00
   0  -4  -2   56.29    3.20
   0   4   2   55.49    4.90
   0   4   2   54.69    4.80
   0   4   2   54.99    3.10
   0   4   2   49.99    3.30
   0   4   2   52.29    3.20
   0   4   2   51.99    3.70
   0   4   2   52.29    3.30
  -1  -4  -2   24.90    2.60
  -1  -4  -2   26.60    2.80
   1   4   2   25.40    3.70
   1   4   2   28.90    2.60
   1   4   2   26.50    2.80
   1   4   2   25.40    1.70
   1   4   2   26.20    3.40
   1   4   2   27.50    3.10
  -2  -4  -2  210.58   10.10
  -2  -4  -2  215.98   10.10
   2   4   2  227.78   11.20
   2   4   2  203.08   11.90
   2   4   2  221.18   10.30
   2   4   2  216.58   10.40
   2   4   2  211.18   11.00
  -3  -4  -2  275.17   13.10
   3   4   2  298.57   15.50
   3   4   2  283.57   13.50
   3   4   2  284.37   13.80
   3   4   2  265.87   14.00
   4   4   2   38.70    5.10
   4   4   2   58.09    7.80
   5   4   2   16.50    4.30
   5   4   2   15.40    4.60
   5   4   2   10.40    5.30
   6   4   2   82.19    8.80
   6   4   2   69.99    9.10
 -10   5   2    3.30    5.40
 -10   5   2   15.90    7.80
  -9   5   2  103.09   12.40
  -9   5   2  130.39    9.50
  -9   5   2  111.29    9.90
  -8   5   2  137.09    9.00
  -8   5   2  122.39   11.90
  -8   5   2  117.89    9.70
   7  -5  -2   59.49    5.40
  -7   5   2   48.70    5.40
  -7   5   2   34.10    7.30
  -7   5   2   52.09    7.20
   6  -5  -2    2.00    1.90
  -6   5   2    0.60    2.20
  -6   5   2    5.40    4.00
  -6   5   2    1.90    2.30
  -6   5   2    2.80    3.20
   5  -5  -2  300.67   12.70
   5  -5  -2  317.37   13.50
  -5   5   2  300.27   13.00
  -5   5   2  291.57   12.10
  -5   5   2  294.87   15.60
  -5   5   2  296.27   13.30
  -5   5   2  304.27   15.00
  -5   5   2  318.87   13.10
  -5   5   2  303.97   13.60
   4  -5  -2  736.43   26.90
  -4   5   2  698.43   27.00
  -4   5   2  675.63   30.00
  -4   5   2  703.83   28.00
  -4   5   2  697.63   29.50
  -4   5   2  720.73   29.10
  -4   5   2  697.03   26.90
  -4   5   2  689.73   27.30
  -4   5   2  691.03   27.50
   3  -5  -2  444.56   17.50
   3  -5  -2  461.15   17.30
  -3   5   2  453.65   19.50
  -3   5   2  452.35   19.90
  -3   5   2  474.15   17.40
  -3   5   2  450.65   20.70
  -3   5   2  446.76   18.00
  -3   5   2  451.25   17.50
  -3   5   2  451.65   17.80
   2  -5  -2    0.40    0.60
  -2   5   2    1.80    0.90
  -2   5   2    1.00    2.60
  -2   5   2    1.40    0.90
  -2   5   2    1.00    2.10
  -2   5   2    0.80    1.10
  -2   5   2    0.50    1.30
  -2   5   2   -0.90    1.80
   1  -5  -2  253.57    9.80
   1  -5  -2  245.88   10.40
  -1   5   2  252.67   12.50
  -1   5   2  231.28    9.50
  -1   5   2  233.88    9.80
  -1   5   2  234.48   10.70
  -1   5   2  237.28   10.20
  -1   5   2  229.98    9.60
   0   5   2  340.87   15.50
   0   5   2  326.57   13.20
   0   5   2  316.67   12.80
   0   5   2  319.97   13.10
   0   5   2  317.67   13.20
   0   5   2  303.97   13.60
  -1  -5  -2  239.48   11.10
   1   5   2  237.18   11.70
   1   5   2  256.17   12.60
   1   5   2  253.07   13.70
   1   5   2  276.27   11.30
   1   5   2  234.78   11.10
   2   5   2   23.80    4.30
   2   5   2   23.70    5.30
   2   5   2   26.10    3.60
   2   5   2   25.60    4.20
   3   5   2   60.09    6.30
   3   5   2   78.39    9.30
   3   5   2   61.19    5.70
   4   5   2  174.18   10.30
   4   5   2  167.78   12.20
   4   5   2  152.78   10.70
   5   5   2   26.50    5.10
   5   5   2   28.90    5.80
   5   5   2   22.50    6.40
  -9   6   2   24.00    6.30
  -9   6   2   27.60    8.40
  -9   6   2   19.60    4.50
  -8   6   2    9.80    3.60
  -8   6   2    9.70    4.80
  -8   6   2   14.80    6.50
  -7   6   2   99.89    9.00
  -7   6   2  109.99    7.00
  -7   6   2   92.39    9.80
  -6   6   2    8.60    4.50
  -6   6   2    9.60    2.70
  -6   6   2   10.00    4.10
  -6   6   2   23.40    5.70
  -6   6   2    9.60    2.80
  -5   6   2  209.48    9.00
  -5   6   2  206.08    9.60
  -5   6   2  217.98   13.20
  -5   6   2  199.38    9.80
  -5   6   2  190.38   10.40
  -5   6   2  204.78   11.50
  -5   6   2  175.18   11.80
  -4   6   2  206.48    9.20
  -4   6   2  201.38    9.40
  -4   6   2  196.38   12.30
  -4   6   2  205.78   11.10
  -4   6   2  217.68   11.20
  -4   6   2  213.08    8.60
  -4   6   2  208.98   11.90
  -3   6   2  284.57   15.10
  -3   6   2  277.27   11.80
  -3   6   2  282.57   13.70
  -3   6   2  293.57   11.80
  -3   6   2  304.07   14.80
  -2   6   2   35.60    2.80
  -2   6   2   34.70    4.00
  -2   6   2   28.80    5.10
  -2   6   2   36.90    2.70
  -2   6   2   45.80    5.40
  -1   6   2   52.89    3.80
  -1   6   2   54.39    6.10
  -1   6   2   53.79    4.50
  -1   6   2   58.79    3.00
  -1   6   2   55.79    3.40
   0   6   2  263.07   11.10
   0   6   2  255.87   10.90
   0   6   2  267.07   13.80
   0   6   2  264.97   14.30
   0   6   2  247.78   11.60
   1   6   2  381.76   16.30
   1   6   2  407.76   18.40
   1   6   2  382.76   17.10
   1   6   2  384.86   19.60
   2   6   2    0.40    2.10
   2   6   2    1.00    2.40
   2   6   2    1.90    4.20
   3   6   2   64.19    5.80
   3   6   2   55.19    6.20
   3   6   2   63.89    8.80
   4   6   2    4.50    3.00
  -9   7   2  134.59    8.90
  -9   7   2  128.39   13.70
  -8   7   2   40.80    8.70
  -8   7   2   24.80    6.70
  -8   7   2   24.70    6.70
  -8   7   2   31.70    4.40
  -8   7   2   28.10    4.90
  -7   7   2  138.39    7.80
  -7   7   2  142.19   12.10
  -7   7   2  138.29    8.50
  -7   7   2  125.89   10.20
  -7   7   2  142.09   11.70
  -6   7   2  154.08    8.20
  -6   7   2  151.18   11.40
  -6   7   2  132.99    9.90
  -6   7   2  142.49    7.20
  -6   7   2  120.09   10.80
  -5   7   2   74.29    8.60
  -5   7   2   56.89    7.10
  -5   7   2   70.49    3.70
  -5   7   2   69.59    7.10
  -5   7   2   66.79    4.70
  -5   7   2   62.29    4.70
  -4   7   2    9.60    3.60
  -4   7   2    4.50    1.70
  -4   7   2    6.40    1.90
  -4   7   2    9.10    4.30
  -4   7   2    9.70    4.10
  -4   7   2    8.50    3.70
  -3   7   2   65.89    6.20
  -3   7   2   70.99    7.00
  -3   7   2   62.79    7.50
  -2   7   2   -0.80    1.20
  -2   7   2   -0.10    3.40
  -2   7   2   -0.50    3.10
  -2   7   2    0.90    2.30
  -1   7   2   12.30    1.90
  -1   7   2   13.70    4.30
  -1   7   2    8.30    4.10
  -1   7   2   10.00    2.10
   0   7   2   -0.40    1.90
   0   7   2   -3.70    3.00
   0   7   2    4.60    4.20
   1   7   2    2.20    5.00
   1   7   2    2.40    2.60
   1   7   2    3.30    1.90
   2   7   2   -0.40    2.40
   2   7   2    2.50    2.10
   2   7   2   -1.30    4.50
  -8   8   2   17.50   11.80
  -8   8   2    3.00    3.00
  -8   8   2    6.30    5.60
  -7   8   2   68.09    8.10
  -7   8   2   82.09    6.30
  -7   8   2   86.29   10.50
  -6   8   2   44.40    7.60
  -6   8   2   51.39    4.50
  -6   8   2   44.20    6.60
  -5   8   2   14.60    2.40
  -5   8   2   19.30    5.90
  -5   8   2    8.00    2.10
  -5   8   2   14.50    4.60
  -4   8   2    2.40    3.40
  -4   8   2   -0.40    4.20
  -3   8   2    8.10    4.30
  -3   8   2    2.80    4.20
  -3   8   2    6.80    3.30
  -2   8   2  119.39   10.20
  -2   8   2  115.89   10.00
  -1   8   2  205.38   13.10
  -1   8   2  202.08    8.70
  -1   8   2  205.98   13.80
   0   8   2    5.50    2.30
   0   8   2    4.80    5.30
  -6   9   2   26.40    5.90
  -6   9   2   24.30    6.60
  -6   9   2   22.40    2.90
  -5   9   2   88.89   10.20
  -5   9   2   82.69    8.20
  -4   9   2   48.60    6.40
  -4   9   2   28.30    5.70
  -4   9   2   63.79    9.20
  -3   9   2    4.00    4.70
  -3   9   2    4.80    5.00
  -2   9   2  116.89   10.80
  -2   9   2  111.59   10.20
  -1   9   2  150.58   18.10
  -1  10  -3   82.99    8.80
  -1  10  -3   80.99   11.30
  -1  10  -3   72.19   11.90
  -2  10  -3    3.20    4.00
  -2  10  -3    8.20    7.00
  -2  10  -3   13.20    6.20
  -3  10  -3   58.49    7.90
  -3  10  -3   67.79   11.30
  -3  10  -3   76.49    9.80
  -4  10  -3  115.59   12.00
  -4  10  -3  102.09   12.60
  -4  10  -3  110.59    9.80
  -5  10  -3  126.59   12.00
  -5  10  -3  131.89   14.40
  -5  10  -3  152.18    7.30
   2   9  -3   50.89    8.30
   1   9  -3   39.50    7.00
   1   9  -3   56.29   10.60
   1   9  -3   38.20    3.80
   0   9  -3    0.50    1.50
   0   9  -3   -1.20    4.60
   0   9  -3    7.60    4.50
  -1   9  -3   50.79    6.80
  -1   9  -3   62.29    9.80
  -1   9  -3   64.79    9.90
  -2   9  -3  188.38   14.20
  -2   9  -3  176.88   15.40
  -2   9  -3  190.08   11.50
  -3   9  -3  107.09   12.10
  -3   9  -3  113.99   10.70
  -3   9  -3   96.19    8.40
  -4   9  -3   71.59    4.70
  -4   9  -3   75.19    4.80
  -4   9  -3   81.69    9.40
  -4   9  -3   68.99    8.20
  -4   9  -3   78.79   10.80
  -5   9  -3  147.29   11.40
  -5   9  -3  141.69   13.40
  -5   9  -3  153.38    8.20
  -6   9  -3  102.49   10.40
  -6   9  -3  102.79    7.50
  -6   9  -3  105.99   12.80
  -7   9  -3  109.99   14.70
  -7   9  -3  115.59    9.40
   3   8  -3   44.70    9.70
   3   8  -3   55.49    8.80
   3   8  -3   50.79    4.40
   3   8  -3   47.50    5.30
   2   8  -3  115.59    6.20
   2   8  -3  105.99   11.60
   2   8  -3  104.99    6.80
   2   8  -3  113.89   10.20
   1   8  -3  173.68    8.60
   1   8  -3  178.98   14.60
   1   8  -3  180.18   12.50
   0   8  -3   39.80    8.50
   0   8  -3   31.20    5.80
   0   8  -3   31.50    2.90
   0   8  -3   30.90    3.10
  -1   8  -3  177.18   14.10
  -1   8  -3  171.48    7.50
  -1   8  -3  185.18   11.10
  -1   8  -3  180.48   13.30
  -2   8  -3  182.48   14.40
  -2   8  -3  175.38    7.80
  -2   8  -3  195.08   10.60
  -2   8  -3  192.68   13.40
  -2   8  -3  182.98    7.90
  -3   8  -3    9.40    3.00
  -3   8  -3   12.30    6.20
  -3   8  -3   11.80    4.90
  -3   8  -3    8.50    2.00
  -3   8  -3   11.20    2.10
  -4   8  -3   12.50    2.80
  -4   8  -3   18.20    5.40
  -4   8  -3   10.50    2.50
  -4   8  -3   16.30    6.50
  -4   8  -3   12.80    5.00
  -4   8  -3   13.50    1.90
  -5   8  -3   46.20    5.10
  -5   8  -3   52.89    8.70
  -5   8  -3   56.69    7.70
  -5   8  -3   51.69    4.20
  -5   8  -3   46.60    7.10
  -6   8  -3  246.28   11.60
  -6   8  -3  237.78   17.50
  -6   8  -3  231.68   14.20
  -6   8  -3  235.48   12.30
  -7   8  -3  138.09    8.80
  -7   8  -3  149.69   11.70
  -7   8  -3  144.89   14.70
  -7   8  -3  141.09    9.80
  -8   8  -3    3.30    3.30
   5   7  -3  231.18   12.20
   4   7  -3   34.20    4.30
   4   7  -3   31.10    4.90
   4   7  -3   33.20    8.60
   4   7  -3   31.40    7.10
   3   7  -3    9.90    2.60
   3   7  -3    7.40    5.60
   3   7  -3    7.10    2.80
   3   7  -3    7.60    4.60
   2   7  -3   12.60    6.10
   2   7  -3    8.50    4.40
   2   7  -3    9.60    2.30
   2   7  -3    6.50    2.40
   1   7  -3  195.18    9.40
   1   7  -3  204.98    9.50
   1   7  -3  194.98   12.10
   1   7  -3  207.38    8.80
   1   7  -3  200.08   14.30
   0   7  -3   36.40    2.40
   0   7  -3   35.90    3.10
   0   7  -3   36.70    5.60
   0   7  -3   37.20    7.20
  -1   7  -3    1.90    2.80
  -1   7  -3    4.70    1.50
  -1   7  -3    4.60    4.50
  -2   7  -3   29.10    6.70
  -2   7  -3   16.90    1.70
  -2   7  -3   23.70    2.50
  -2   7  -3   16.10    3.50
  -2   7  -3   18.30    2.30
  -2   7  -3   19.90    1.80
  -2   7  -3   24.30    5.70
  -3   7  -3   29.20    6.50
  -3   7  -3   34.40    3.50
  -3   7  -3   34.50    2.80
  -3   7  -3   36.70    3.40
  -3   7  -3   35.40    3.90
  -3   7  -3   34.90    6.10
  -4   7  -3   16.60    6.10
  -4   7  -3   14.30    2.90
  -4   7  -3   15.10    4.90
  -4   7  -3   16.30    2.50
  -4   7  -3   16.60    3.00
  -5   7  -3  107.09    7.20
  -5   7  -3  103.89    9.00
  -5   7  -3  109.29    6.60
  -5   7  -3   99.59    8.40
  -5   7  -3  110.69   10.70
  -6   7  -3  147.79   13.40
  -6   7  -3  143.19    9.30
  -6   7  -3  134.59   10.70
  -6   7  -3  144.39   10.50
  -6   7  -3  155.18    8.80
  -7   7  -3   59.09    6.20
  -7   7  -3   49.00    6.40
  -7   7  -3   58.09    8.10
  -7   7  -3   32.90    8.40
  -8   7  -3   -2.10    3.80
  -8   7  -3    0.40    6.60
  -8   7  -3    3.10    4.00
  -8   7  -3    4.60    4.70
   6   6  -3   66.19    7.00
   6   6  -3   72.29    8.00
   5   6  -3   62.69    6.10
   5   6  -3   62.19    6.80
   5   6  -3   71.19    9.30
   4   6  -3   72.19    5.80
   4   6  -3   63.89    6.30
   4   6  -3   82.09    9.50
   3   6  -3   61.29    7.70
   3   6  -3   65.99    5.10
   3   6  -3   78.09    9.70
   3   6  -3   65.39    5.70
   2   6  -3  314.47   16.10
   2   6  -3  301.67   13.80
   2   6  -3  303.87   13.70
   2   6  -3  307.87   18.10
   2   6  -3  312.97   13.20
   1   6  -3  847.12   33.80
   1   6  -3  897.01   33.90
   1   6  -3  857.31   33.90
   1   6  -3  893.71   33.40
   1   6  -3  845.72   33.30
   1   6  -3  864.61   38.50
   1   6  -3  884.61   36.30
  -1  -6   3  905.81   33.30
   0   6  -3  298.87   12.70
   0   6  -3  311.97   12.30
   0   6  -3  309.27   14.80
   0   6  -3  320.87   17.30
  -1   6  -3  358.46   14.30
  -1   6  -3  373.06   14.50
  -1   6  -3  359.06   16.40
  -1   6  -3  373.46   14.70
  -1   6  -3  370.46   14.90
  -1   6  -3  379.86   19.00
   1  -6   3  378.16   15.10
  -2   6  -3   18.20    4.70
  -2   6  -3   14.50    2.80
  -2   6  -3   16.50    1.90
  -2   6  -3   15.00    1.80
  -2   6  -3   23.40    2.40
  -2   6  -3   12.30    4.00
  -2   6  -3   15.20    2.30
  -3   6  -3  182.38    8.50
  -3   6  -3  175.78    8.20
  -3   6  -3  178.08   12.40
  -3   6  -3  165.38    7.90
  -3   6  -3  173.48    8.10
  -3   6  -3  176.18   10.90
  -3   6  -3  184.58    7.80
   3  -6   3  169.38    7.80
  -4   6  -3  148.09    7.80
  -4   6  -3  134.69    7.60
  -4   6  -3  140.49    9.50
  -4   6  -3  140.39    7.30
  -4   6  -3  128.29   11.10
   4  -6   3  139.19    8.00
   4  -6   3  139.09    7.00
  -5   6  -3  299.07   18.20
  -5   6  -3  323.37   14.70
  -5   6  -3  306.97   16.10
  -5   6  -3  317.97   15.80
  -5   6  -3  322.57   14.30
   5  -6   3  313.07   14.00
  -6   6  -3    6.50    3.20
  -6   6  -3    9.90    4.20
  -6   6  -3   11.10    4.50
  -6   6  -3   15.00    6.60
  -6   6  -3    9.70    3.80
  -7   6  -3   87.69    8.10
  -7   6  -3  101.19    9.00
  -7   6  -3   86.79   10.80
  -7   6  -3   92.99    7.90
  -8   6  -3  196.58   16.90
  -8   6  -3  163.08   12.00
  -8   6  -3  194.48   12.10
  -8   6  -3  187.68   12.70
   7   5  -3   41.80    6.90
   6   5  -3   24.90    6.50
   6   5  -3   25.40    4.60
   6   5  -3   23.80    5.10
   5   5  -3   69.39    7.00
   5   5  -3   58.49    8.00
   5   5  -3   80.59    6.60
   4   5  -3   55.59    5.20
   4   5  -3   54.09    7.20
   4   5  -3   50.69    5.70
  -4  -5   3   47.70    4.60
   3   5  -3   11.80    2.70
   3   5  -3   13.90    3.20
   3   5  -3   14.20    5.10
   3   5  -3   12.60    2.70
   3   5  -3    9.70    4.00
  -3  -5   3   13.20    2.60
  -3  -5   3   13.10    2.50
   2   5  -3    8.30    1.70
   2   5  -3   17.00    2.80
   2   5  -3    9.30    2.20
   2   5  -3    8.10    3.20
   2   5  -3   11.10    2.10
   2   5  -3   20.30    5.30
  -2  -5   3   12.90    2.10
  -2  -5   3   15.70    2.20
   1   5  -3   37.60    4.70
   1   5  -3   39.80    3.40
   1   5  -3   42.50    2.90
   1   5  -3   44.20    5.80
   1   5  -3   41.10    3.10
  -1  -5   3   43.90    2.80
  -1  -5   3   42.10    2.80
   0   5  -3  470.05   18.90
   0   5  -3  472.25   22.30
   0   5  -3  468.85   18.80
   0   5  -3  475.95   20.30
   0   5  -3  487.05   18.60
   0   5  -3  487.95   18.70
   0  -5   3  472.25   18.40
   0  -5   3  500.15   18.30
  -1   5  -3  338.07   18.10
  -1   5  -3  354.86   14.10
  -1   5  -3  360.86   14.50
  -1   5  -3  359.06   15.40
  -1   5  -3  366.36   14.30
  -1   5  -3  372.36   17.70
  -1   5  -3  365.16   14.30
   1  -5   3  357.76   14.10
   1  -5   3  380.36   14.00
   1  -5   3  356.66   14.10
  -2   5  -3    4.40    1.40
  -2   5  -3    4.10    2.60
  -2   5  -3    4.60    3.30
  -2   5  -3    3.60    1.50
  -2   5  -3    4.20    1.20
  -2   5  -3    5.00    1.40
  -2   5  -3    5.20    1.60
   2  -5   3    5.80    1.40
   2  -5   3    3.10    1.20
  -3   5  -3   52.99    3.70
  -3   5  -3   48.50    3.30
  -3   5  -3   49.70    5.40
  -3   5  -3   56.09    6.60
  -3   5  -3   43.80    2.70
  -3   5  -3   47.30    3.70
  -3   5  -3   49.50    4.00
   3  -5   3   44.70    3.40
   3  -5   3   42.40    3.30
  -4   5  -3  313.37   13.80
  -4   5  -3  289.27   13.90
  -4   5  -3  309.87   17.20
  -4   5  -3  335.47   14.30
  -4   5  -3  332.47   13.50
  -4   5  -3  327.37   15.70
   4  -5   3  304.97   13.80
   4  -5   3  314.57   13.70
  -5   5  -3  351.16   18.80
  -5   5  -3  344.97   16.90
  -5   5  -3  345.37   15.50
  -5   5  -3  334.87   15.90
  -5   5  -3  353.36   16.60
  -5   5  -3  327.97   19.10
   5  -5   3  367.66   19.40
   5  -5   3  353.56   15.50
  -6   5  -3   15.00    5.80
  -6   5  -3    9.40    4.10
  -6   5  -3    3.10    3.50
  -6   5  -3    1.00    3.90
  -6   5  -3    2.60    3.30
   6  -5   3    3.30    2.90
  -7   5  -3  149.39   10.80
  -7   5  -3  171.28   10.90
  -7   5  -3  181.58   11.10
  -7   5  -3  161.28   10.90
  -7   5  -3  169.28   14.50
   7  -5   3  168.68   10.30
  -8   5  -3  207.88   13.10
  -8   5  -3  203.68   13.20
  -8   5  -3  192.88   12.70
  -8   5  -3  200.58   17.10
   8  -5   3  234.18   14.60
  -9   5  -3  150.78   11.30
  -9   5  -3  141.69   11.90
   7   4  -3  203.08   12.40
   7   4  -3  198.78   13.10
   7   4  -3  191.78   13.70
   6   4  -3   57.79    8.30
   6   4  -3   57.49    6.70
   6   4  -3   52.99    6.80
  -6  -4   3   47.40    5.60
   5   4  -3   19.80    5.00
   5   4  -3   20.10    4.40
   5   4  -3   20.20    3.90
  -5  -4   3   29.70    4.40
   4   4  -3   79.79    6.00
   4   4  -3   82.69    6.30
   4   4  -3   79.39    6.60
   4   4  -3   87.39    5.70
   4   4  -3   83.59    7.50
  -4  -4   3   81.89    5.70
  -4  -4   3   89.69    5.90
   3   4  -3  750.92   29.50
   3   4  -3  739.93   31.10
   3   4  -3  706.53   29.90
   3   4  -3  750.42   29.80
   3   4  -3  760.52   29.40
  -3  -4   3  749.42   29.40
  -3  -4   3  749.23   29.40
   2   4  -3 1163.38   48.00
   2   4  -3 1132.09   45.00
   2   4  -3 1170.18   44.60
   2   4  -3 1184.28   46.20
   2   4  -3 1183.98   44.70
  -2  -4   3 1172.88   44.50
  -2  -4   3 1206.78   44.60
   1   4  -3   -0.80    1.20
   1   4  -3    0.80    1.30
   1   4  -3    1.30    1.30
   1   4  -3   -0.50    1.30
   1   4  -3   -0.40    2.30
   1   4  -3   -0.80    1.90
  -1  -4   3    0.90    1.10
  -1  -4   3    0.50    1.20
   0   4  -3    4.00    2.80
   0   4  -3    4.00    1.50
   0   4  -3    6.40    1.40
   0   4  -3    4.90    2.20
   0   4  -3    4.40    1.40
   0   4  -3    5.80    1.50
   0   4  -3    4.10    2.00
   0  -4   3    6.10    1.40
   0  -4   3    5.40    1.20
   0  -4   3    7.80    1.30
   0  -4   3    7.60    1.90
  -1   4  -3   93.59    4.40
  -1   4  -3   83.49    4.70
  -1   4  -3   89.69    6.10
  -1   4  -3   93.09    7.40
  -1   4  -3   92.89    4.50
  -1   4  -3   75.99    4.80
  -1   4  -3   86.49    4.40
  -1   4  -3   84.49    6.40
   1  -4   3   87.89    4.80
   1  -4   3   90.49    4.50
   1  -4   3   82.89    4.20
   1  -4   3   86.79    4.30
  -2   4  -3  469.15   18.70
  -2   4  -3  472.45   18.80
  -2   4  -3  499.85   19.20
  -2   4  -3  473.55   20.80
  -2   4  -3  478.65   18.40
  -2   4  -3  488.25   18.70
  -2   4  -3  487.35   21.90
   2  -4   3  457.45   18.60
   2  -4   3  462.95   18.90
  -3   4  -3  558.14   20.80
  -3   4  -3  479.95   22.40
  -3   4  -3  506.65   20.90
  -3   4  -3  537.55   20.90
  -3   4  -3  476.25   23.60
  -3   4  -3  563.94   21.40
   3  -4   3  541.55   20.90
   3  -4   3  510.55   21.00
  -4   4  -3    0.60    1.30
  -4   4  -3    3.80    2.90
  -4   4  -3   -0.70    1.80
  -4   4  -3   -0.70    1.70
  -4   4  -3    8.40    3.40
  -4   4  -3    1.50    1.80
   4  -4   3   -0.10    1.70
  -5   4  -3   81.79    7.00
  -5   4  -3   78.89    8.40
  -5   4  -3   86.59    6.70
  -5   4  -3   77.59    6.20
  -5   4  -3   80.39    6.30
  -5   4  -3   78.19    6.30
   5  -4   3   75.29    6.10
   5  -4   3   77.19    6.00
  -6   4  -3   83.79    7.40
  -6   4  -3   70.39    6.80
  -6   4  -3   72.89    6.90
  -6   4  -3   70.79    7.20
  -6   4  -3   66.99    8.80
   6  -4   3   78.69    6.70
  -7   4  -3   45.30    9.70
  -7   4  -3   58.09    7.10
  -7   4  -3   51.99    6.70
  -7   4  -3   54.69    6.90
   7  -4   3   54.69    6.30
  -8   4  -3   22.00    5.80
  -8   4  -3   23.20    5.60
  -8   4  -3   13.80    4.70
  -8   4  -3   25.80    9.00
   8  -4   3   13.70    4.40
  -9   4  -3   86.19    9.90
  -9   4  -3   92.29    8.80
   9  -4   3   60.89    7.70
   8   3  -3   18.50    5.40
   8   3  -3   13.60    4.60
   8   3  -3    8.30    5.20
  -8  -3   3   12.00    4.00
   7   3  -3    8.80    4.00
   7   3  -3    2.70    4.90
   7   3  -3    4.40    3.80
  -7  -3   3    5.50    3.30
  -7  -3   3    1.80    3.20
   6   3  -3    4.70    3.60
   6   3  -3    3.30    3.10
   6   3  -3    0.20    3.80
  -6  -3   3    5.50    2.80
  -6  -3   3    2.50    2.90
   5   3  -3  316.57   15.60
   5   3  -3  342.97   16.50
   5   3  -3  343.47   17.00
  -5  -3   3  333.87   15.30
  -5  -3   3  339.27   15.60
  -5  -3   3  343.57   15.60
   4   3  -3    8.50    2.40
   4   3  -3    4.30    2.10
   4   3  -3   13.40    3.10
   4   3  -3    7.60    3.20
   4   3  -3    7.80    2.10
  -4  -3   3    5.40    2.10
  -4  -3   3   15.80    3.10
  -4  -3   3    9.10    2.30
   3   3  -3  767.22   32.90
   3   3  -3  777.92   30.50
   3   3  -3  775.42   30.50
   3   3  -3  777.52   31.70
   3   3  -3  781.82   30.80
   3   3  -3  744.63   30.90
  -3  -3   3  807.52   30.90
  -3  -3   3  777.92   30.50
   2   3  -3   13.60    3.00
   2   3  -3   15.50    2.40
   2   3  -3   16.40    3.80
   2   3  -3   17.10    2.60
   2   3  -3   15.70    2.60
  -2  -3   3   15.20    2.30
   1   3  -3   36.30    3.10
   1   3  -3   36.80    4.50
   1   3  -3   40.30    3.50
   1   3  -3   39.10    3.10
   1   3  -3   34.40    3.70
   1   3  -3   34.30    3.00
   1   3  -3   40.40    2.90
   1   3  -3   36.40    3.10
  -1  -3   3   34.90    2.90
  -1  -3   3   36.10    3.00
  -1  -3   3   41.70    3.80
  -1  -3   3   36.30    2.80
  -1  -3   3   34.80    2.80
   0   3  -3   11.30    1.70
   0   3  -3   13.00    2.40
   0   3  -3   13.90    2.00
   0   3  -3   10.70    2.10
   0   3  -3   16.90    3.20
   0  -3   3   17.50    3.20
   0  -3   3   14.50    2.30
   0  -3   3   18.50    1.90
  -1   3  -3 1634.24   66.29
  -1   3  -3 1675.53   63.79
  -1   3  -3 1643.44   65.69
  -1   3  -3 1726.43   64.19
  -1   3  -3 1696.13   63.89
  -1   3  -3 1818.82   65.29
  -1   3  -3 1726.03   63.89
  -1   3  -3 1729.53   63.89
   1  -3   3 1713.33   64.09
   1  -3   3 1740.23   63.79
   1  -3   3 1670.73   63.79
   1  -3   3 1773.92   63.89
   1  -3   3 1733.53   65.79
   1  -3   3 1767.62   63.79
  -2   3  -3 1955.60   71.69
  -2   3  -3 1927.41   68.99
  -2   3  -3 1768.52   68.99
  -2   3  -3 1731.13   70.49
  -2   3  -3 1713.73   71.19
  -2   3  -3 1786.72   68.89
  -2   3  -3 1958.30   69.49
   2  -3   3 1831.02   70.59
   2  -3   3 1972.90   68.99
   2  -3   3 1811.92   68.09
   2  -3   3 1825.02   68.99
   2  -3   3 1917.61   68.99
  -3   3  -3  226.48    9.70
  -3   3  -3  241.08   10.40
  -3   3  -3  192.88   11.60
  -3   3  -3  193.68   11.00
  -3   3  -3  216.28   10.00
  -3   3  -3  205.98    9.70
   3  -3   3  216.58    9.80
   3  -3   3  220.48   12.00
   3  -3   3  218.28   10.10
  -4   3  -3  267.17   14.50
  -4   3  -3  270.37   15.80
  -4   3  -3  326.07   14.30
  -4   3  -3  321.97   14.10
  -4   3  -3  315.27   13.80
  -4   3  -3  341.17   14.40
   4  -3   3  324.67   14.20
   4  -3   3  314.67   13.80
  -5   3  -3   49.70    5.10
  -5   3  -3   51.89    6.20
  -5   3  -3   55.79    5.80
  -5   3  -3   56.09    7.60
  -5   3  -3   46.40    5.30
  -5   3  -3   44.60    5.40
   5  -3   3   45.80    5.40
   5  -3   3   41.90    4.80
  -6   3  -3    3.30    3.80
  -6   3  -3    0.00    3.00
  -6   3  -3    6.90    5.30
  -6   3  -3   -0.90    3.40
  -6   3  -3   18.50    4.50
   6  -3   3   -1.00    3.10
   6  -3   3   -1.30    3.20
  -7   3  -3  278.67   15.20
  -7   3  -3  286.97   14.10
  -7   3  -3  243.88   14.70
  -7   3  -3  275.57   18.90
   7  -3   3  273.67   14.70
  -8   3  -3    1.80    4.20
  -8   3  -3    1.40    3.60
  -8   3  -3    1.70    6.30
  -8   3  -3    2.40    4.60
   8  -3   3    6.90    4.40
   9  -3   3   56.59    7.40
   9   2  -3   32.30    7.20
  -9  -2   3   38.00    6.30
   8   2  -3   57.49    8.40
   8   2  -3   56.69    7.40
   8   2  -3   51.99    6.60
  -8  -2   3   50.49    6.60
  -8  -2   3   48.30    6.60
   7   2  -3    3.60    4.30
   7   2  -3    9.10    4.40
   7   2  -3   10.00    4.30
  -7  -2   3   11.80    3.40
  -7  -2   3    7.80    3.80
   6   2  -3  409.26   19.30
   6   2  -3  404.96   18.60
   6   2  -3  404.56   19.30
  -6  -2   3  390.76   18.40
  -6  -2   3  406.56   16.30
  -6  -2   3  381.66   18.00
  -6  -2   3  405.56   18.50
   5   2  -3  871.21   37.00
   5   2  -3  873.01   36.90
   5   2  -3  976.80   36.80
   5   2  -3  895.91   36.30
  -5  -2   3  867.51   36.20
  -5  -2   3  896.91   36.10
  -5  -2   3  907.11   34.00
  -5  -2   3  961.70   34.40
  -5  -2   3  909.21   36.40
   4   2  -3   46.20    4.70
   4   2  -3   50.49    4.30
   4   2  -3   44.50    4.80
   4   2  -3   45.40    4.20
   4   2  -3   42.10    4.00
  -4  -2   3   58.19    4.70
  -4  -2   3   43.10    4.20
  -4  -2   3   38.70    4.00
   3   2  -3   83.69    6.60
   3   2  -3   81.39    5.90
   3   2  -3   87.09    5.10
   3   2  -3   90.39    5.50
   3   2  -3   88.69    5.30
   3   2  -3   83.19    5.20
   3   2  -3   78.79    5.60
  -3  -2   3   84.29    5.30
  -3  -2   3   91.99    5.50
  -3  -2   3   82.49    5.30
  -3  -2   3   92.69    5.60
   2   2  -3   41.30    2.30
   2   2  -3   34.90    3.30
   2   2  -3   38.20    4.00
   2   2  -3   39.80    3.30
   2   2  -3   35.80    3.50
   2   2  -3   40.20    3.30
   2   2  -3   40.60    3.60
   2   2  -3   34.00    4.10
  -2  -2   3   44.50    3.70
  -2  -2   3   36.70    3.20
  -2  -2   3   44.30    3.50
  -2  -2   3   41.40    2.60
  -2  -2   3   34.60    3.00
  -2  -2   3   36.40    3.30
  -2  -2   3   39.70    3.70
   1   2  -3  569.44   21.90
   1   2  -3  527.15   21.90
   1   2  -3  573.84   22.00
   1   2  -3  584.04   22.30
   1   2  -3  548.35   22.30
   1   2  -3  560.24   23.30
   1   2  -3  602.24   21.80
   1   2  -3  547.85   21.80
  -1  -2   3  541.35   21.80
  -1  -2   3  595.74   22.40
  -1  -2   3  554.14   21.90
  -1  -2   3  589.54   21.90
  -1  -2   3  552.94   21.90
  -1  -2   3  545.25   21.70
  -1  -2   3  580.14   23.30
   0   2  -3   47.30    4.00
   0   2  -3   54.79    3.50
   0   2  -3   51.79    3.20
   0   2  -3   48.40    2.90
   0   2  -3   45.40    2.90
   0   2  -3   48.60    3.20
   0   2  -3   51.89    3.00
   0  -2   3   47.70    2.90
   0  -2   3   48.70    2.90
   0  -2   3   49.90    3.10
   0  -2   3   49.00    4.00
   0  -2   3   49.40    3.70
   0  -2   3   48.40    3.10
   0  -2   3   47.60    2.90
  -1   2  -3  769.82   29.70
  -1   2  -3  758.12   30.30
  -1   2  -3  735.33   28.60
  -1   2  -3  743.03   28.50
  -1   2  -3  769.62   29.00
  -1   2  -3  753.32   28.70
  -1   2  -3  728.53   30.00
  -1   2  -3  777.42   28.70
   1  -2   3  723.63   28.90
   1  -2   3  756.42   28.40
   1  -2   3  715.33   28.60
   1  -2   3  797.82   28.70
   1  -2   3  772.72   28.70
   1  -2   3  746.33   30.30
   1  -2   3  742.03   29.90
   1  -2   3  757.12   30.00
  -2   2  -3  345.77   17.00
  -2   2  -3  405.96   15.50
  -2   2  -3  374.06   15.60
  -2   2  -3  379.26   15.50
  -2   2  -3  356.46   16.70
  -2   2  -3  396.56   16.00
  -2   2  -3  400.46   16.80
   2  -2   3  386.46   14.80
   2  -2   3  371.26   16.70
   2  -2   3  368.06   15.50
   2  -2   3  363.96   16.90
   2  -2   3  403.66   15.40
   2  -2   3  402.96   15.50
   2  -2   3  373.06   15.80
   2  -2   3  385.66   17.30
  -3   2  -3   60.19    5.70
  -3   2  -3   69.49    4.30
  -3   2  -3   62.79    4.50
  -3   2  -3   62.39    4.70
  -3   2  -3   64.39    4.90
  -3   2  -3   68.79    5.70
   3  -2   3   57.99    4.60
   3  -2   3   60.79    4.80
   3  -2   3   69.29    4.40
  -4   2  -3  126.79    9.50
  -4   2  -3  158.18    8.50
  -4   2  -3  140.79    8.90
  -4   2  -3  134.89    7.90
  -4   2  -3  151.38    8.30
  -4   2  -3  141.49    7.60
   4  -2   3  147.09    8.00
   4  -2   3  143.99    8.40
   4  -2   3  148.99    6.50
  -5   2  -3   98.99    7.20
  -5   2  -3  102.59    7.60
  -5   2  -3   89.79    9.00
  -5   2  -3  116.39    7.80
  -5   2  -3  101.89    8.00
  -5   2  -3  105.29    6.50
   5  -2   3   99.49    7.80
   5  -2   3  108.79    7.50
   5  -2   3  110.29    5.60
  -6   2  -3  199.68   14.60
  -6   2  -3  215.48   12.10
  -6   2  -3  210.78   10.50
  -6   2  -3  202.28   11.80
   6  -2   3  193.48    9.50
   6  -2   3  197.98   11.70
   6  -2   3  207.68   12.40
  -7   2  -3  289.07   16.00
  -7   2  -3  305.97   14.30
  -7   2  -3  282.77   19.30
  -7   2  -3  295.27   15.90
   7  -2   3  291.37   15.70
  -8   2  -3   -4.80    6.10
  -8   2  -3    0.20    4.30
   8  -2   3   -3.90    3.90
   9   1  -3   58.29    8.20
   9   1  -3   44.30    6.30
  -9  -1   3   52.29    6.80
   8   1  -3  130.99   10.10
   8   1  -3  141.59   11.00
   8   1  -3  149.39   10.40
  -8  -1   3  135.29    9.70
  -8  -1   3  125.69    9.50
   7   1  -3  177.58   11.40
   7   1  -3  163.78   10.70
   7   1  -3  173.58   10.80
  -7  -1   3  152.98   10.10
  -7  -1   3  164.68   10.20
   6   1  -3  595.74   24.40
   6   1  -3  561.14   24.10
   6   1  -3  548.35   24.70
   6   1  -3  554.14   24.50
  -6  -1   3  536.85   23.90
  -6  -1   3  553.14   23.80
   5   1  -3  388.16   17.80
   5   1  -3  368.56   17.20
   5   1  -3  402.16   17.90
   5   1  -3  417.86   17.60
  -5  -1   3  396.66   16.10
  -5  -1   3  391.06   17.40
  -5  -1   3  400.46   17.30
  -5  -1   3  377.76   17.30
   4   1  -3    3.90    2.50
   4   1  -3    4.20    1.90
   4   1  -3    6.90    2.60
   4   1  -3    4.40    2.40
   4   1  -3    5.80    2.00
  -4  -1   3    5.20    2.30
  -4  -1   3    5.70    2.10
  -4  -1   3    6.20    2.10
  -4  -1   3    4.50    2.00
  -4  -1   3    5.20    1.60
   3   1  -3  119.19    7.00
   3   1  -3  118.19    7.00
   3   1  -3  123.59    6.50
   3   1  -3  122.19    6.50
   3   1  -3  122.49    7.90
   3   1  -3  115.99    6.80
  -3  -1   3  134.69    6.90
  -3  -1   3  109.69    6.50
  -3  -1   3  128.19    6.90
  -3  -1   3  124.59    6.80
  -3  -1   3  118.69    6.50
  -3  -1   3  127.19    5.80
  -3  -1   3  123.49    6.30
   2   1  -3   46.20    3.60
   2   1  -3   43.90    3.10
   2   1  -3   32.00    2.80
   2   1  -3   33.10    2.80
   2   1  -3   33.40    2.50
   2   1  -3   36.10    2.90
   2   1  -3   36.00    3.00
   2   1  -3   37.20    3.40
  -2  -1   3   37.50    2.70
  -2  -1   3   34.50    2.70
  -2  -1   3   40.00    3.00
  -2  -1   3   42.60    3.40
  -2  -1   3   46.40    3.40
  -2  -1   3   43.90    3.50
  -2  -1   3   33.80    3.00
  -2  -1   3   34.50    2.90
   1   1  -3 4650.53  168.88
   1   1  -3 4376.76  171.38
   1   1  -3 4806.92  168.58
   1   1  -3 4452.05  170.08
   1   1  -3 4439.46  172.38
   1   1  -3 4392.06  168.18
   1   1  -3 4629.14  171.28
   1   1  -3 4528.35  169.68
  -1  -1   3 4414.16  170.88
  -1  -1   3 4710.73  169.68
  -1  -1   3 4623.84  171.68
  -1  -1   3 4620.24  171.98
  -1  -1   3 4638.44  171.68
  -1  -1   3 4483.25  170.78
  -1  -1   3 4753.52  169.78
  -1  -1   3 4669.13  172.98
   0   1  -3 1873.61   71.69
   0   1  -3 1920.31   71.89
   0   1  -3 1808.42   72.39
   0   1  -3 2012.60   71.79
   0   1  -3 1876.81   71.99
   0   1  -3 1877.71   71.69
   0   1  -3 2082.79   72.09
   0   1  -3 2044.90   72.29
   0   1  -3 1807.02   72.69
   0  -1   3 1991.50   71.69
   0  -1   3 1888.41   71.89
   0  -1   3 1960.20   71.99
   0  -1   3 1998.50   72.39
   0  -1   3 1898.61   71.69
   0  -1   3 1922.11   72.79
   0  -1   3 1979.40   71.79
  -1   1  -3    3.70    1.80
  -1   1  -3    8.20    1.50
  -1   1  -3   10.50    1.60
  -1   1  -3    5.10    1.50
   1  -1   3    2.40    1.80
   1  -1   3    7.60    1.30
   1  -1   3    6.60    1.60
   1  -1   3    6.30    1.40
  -2   1  -3    0.90    2.30
  -2   1  -3    0.90    2.30
  -2   1  -3    3.10    2.80
  -2   1  -3    1.40    1.70
  -2   1  -3    1.80    1.80
  -2   1  -3   -0.20    1.60
  -2   1  -3    1.50    1.80
   2  -1   3    0.40    2.00
   2  -1   3   -1.20    2.60
   2  -1   3    2.30    2.20
   2  -1   3    1.80    1.40
   2  -1   3    1.20    1.50
   2  -1   3   -0.30    2.50
   2  -1   3    1.50    1.50
  -3   1  -3  557.44   22.20
  -3   1  -3  555.74   23.10
  -3   1  -3  520.25   21.60
  -3   1  -3  516.85   21.80
  -3   1  -3  524.25   23.60
   3  -1   3  526.55   21.70
   3  -1   3  504.25   22.70
   3  -1   3  515.55   22.10
   3  -1   3  563.04   21.70
  -4   1  -3  599.34   25.50
  -4   1  -3  669.83   25.90
  -4   1  -3  605.84   24.30
  -4   1  -3  587.74   25.20
  -4   1  -3  605.54   28.00
   4  -1   3  602.54   25.90
   4  -1   3  610.44   24.40
   4  -1   3  578.54   25.20
   4  -1   3  681.73   25.40
  -5   1  -3  125.69    8.50
  -5   1  -3  131.99    8.80
  -5   1  -3  131.89    7.10
  -5   1  -3  141.59   11.40
   5  -1   3  126.49    9.00
   5  -1   3  124.09    8.50
   5  -1   3  129.49    7.30
  -6   1  -3    1.60    3.40
  -6   1  -3    4.70    2.50
  -6   1  -3    2.50    3.70
   6  -1   3    2.60    3.70
   6  -1   3   -0.60    2.50
   6  -1   3   -0.70    3.40
  -7   1  -3   33.10    5.70
  -7   1  -3   46.60   10.70
   7  -1   3   39.70    6.10
  -8   1  -3   36.40    9.90
  -8   1  -3   39.90    7.10
   8  -1   3   41.50    7.10
   9   0  -3   30.40    6.30
   9   0  -3   39.00    6.50
  -9   0   3   25.10    5.60
  -9   0   3   27.70    5.30
  -9   0   3   36.00   10.40
   8   0  -3    7.20    4.30
   8   0  -3    6.70    4.40
   8   0  -3   15.40    4.80
  -8   0   3    7.50    4.30
  -8   0   3   13.10    4.10
  -8   0   3   20.30    7.80
   7   0  -3   93.79    8.10
   7   0  -3   96.39    8.00
   7   0  -3   87.59    7.80
  -7   0   3   85.49   10.60
  -7   0   3   89.99    7.50
   6   0  -3  270.47   13.70
   6   0  -3  277.77   14.00
   6   0  -3  272.57   13.50
  -6   0   3  263.97   13.30
  -6   0   3  274.57   13.50
  -6   0   3  269.47   16.30
   5   0  -3   46.90    4.40
   5   0  -3   49.50    4.80
   5   0  -3   50.99    4.40
   5   0  -3   52.19    4.80
   5   0  -3   42.60    4.50
  -5   0   3   53.19    4.90
  -5   0   3   44.90    4.40
  -5   0   3   52.29    4.70
   4   0  -3   33.80    3.50
   4   0  -3   33.30    3.80
   4   0  -3   41.90    4.60
   4   0  -3   31.10    3.20
   4   0  -3   29.60    4.20
   4   0  -3   24.00    3.10
  -4   0   3   34.90    3.70
  -4   0   3   35.90    3.80
  -4   0   3   24.40    3.20
  -4   0   3   28.70    4.60
  -4   0   3   30.80    3.60
  -4   0   3   31.50    3.50
  -4   0   3   32.00    3.40
   3   0  -3  819.52   32.00
   3   0  -3  787.12   33.10
   3   0  -3  842.62   32.00
   3   0  -3  842.72   32.20
   3   0  -3  815.92   32.30
   3   0  -3  825.92   32.60
  -3   0   3  810.02   32.00
  -3   0   3  864.01   32.50
  -3   0   3  842.02   32.40
  -3   0   3  831.42   32.30
  -3   0   3  773.52   32.20
  -3   0   3  853.11   32.10
  -3   0   3  874.11   32.10
   2   0  -3   42.10    3.20
   2   0  -3   37.80    2.90
   2   0  -3   42.20    3.00
   2   0  -3   39.10    3.00
   2   0  -3   43.70    3.10
   2   0  -3   40.90    2.90
   2   0  -3   39.70    3.50
   2   0  -3   40.40    3.20
   2   0  -3   39.00    2.90
  -2   0   3   45.40    2.90
  -2   0   3   41.60    3.00
  -2   0   3   39.50    2.90
  -2   0   3   37.50    3.00
  -2   0   3   42.60    3.40
  -2   0   3   39.40    2.90
  -2   0   3   39.40    3.10
  -2   0   3   39.20    3.10
   1   0  -3  253.17   11.30
   1   0  -3  277.57   11.40
   1   0  -3  322.87   11.40
   1   0  -3  276.97   11.20
   1   0  -3  258.97   11.10
   1   0  -3  251.07   11.50
  -1   0   3  307.47   11.90
  -1   0   3  263.37   11.40
  -1   0   3  311.17   11.40
  -1   0   3  254.07   11.60
  -1   0   3  258.07   11.10
  -1   0   3  284.97   11.20
  -1   0   3  277.47   11.40
   0   0  -3 1015.10   38.70
   0   0  -3 1081.09   39.50
   0   0  -3 1016.50   38.90
   0   0  -3 1045.40   38.80
   0   0  -3 1013.90   39.00
   0   0  -3 1013.00   39.80
   0   0  -3 1032.40   38.80
   0   0  -3 1028.80   38.80
   0   0   3 1052.69   38.90
   0   0   3 1011.60   39.50
   0   0   3 1010.70   38.80
   0   0   3 1065.79   38.80
   0   0   3  984.20   38.70
   0   0   3 1063.29   39.00
   0   0   3 1083.89   40.00
   0   0   3  981.70   39.00
  -1   0  -3   41.10    3.20
  -1   0  -3   36.60    2.60
  -1   0  -3   40.50    3.00
  -1   0  -3   40.50    3.40
  -1   0  -3   40.60    3.20
  -1   0  -3   38.30    3.70
   1   0   3   31.00    3.60
   1   0   3   40.90    3.60
   1   0   3   39.40    3.10
   1   0   3   46.50    3.10
   1   0   3   52.99    3.20
  -2   0  -3    6.20    1.90
  -2   0  -3    6.10    3.00
  -2   0  -3    5.80    2.80
  -2   0  -3    6.60    2.30
  -2   0  -3    4.70    2.40
  -2   0  -3    7.10    2.20
   2   0   3    6.60    2.00
   2   0   3    5.50    2.20
   2   0   3    5.90    2.40
   2   0   3    8.10    2.00
   2   0   3    8.30    2.00
   2   0   3    7.30    2.90
  -3   0  -3  353.26   17.50
  -3   0  -3  366.96   15.80
  -3   0  -3  356.16   15.50
  -3   0  -3  355.86   14.10
  -3   0  -3  357.16   15.40
   3   0   3  341.47   16.20
   3   0   3  366.66   15.30
   3   0   3  334.37   15.30
   3   0   3  353.26   15.90
  -4   0  -3  174.68    9.90
  -4   0  -3  188.08   12.40
  -4   0  -3  178.98    8.00
  -4   0  -3  183.08    9.80
   4   0   3  200.08    9.70
   4   0   3  172.38   10.70
   4   0   3  175.48    9.80
   4   0   3  178.48    9.30
   4   0   3  177.88   10.30
  -5   0  -3  173.38    8.00
  -5   0  -3  172.18   10.20
  -5   0  -3  202.88   13.90
  -5   0  -3  164.68   10.20
   5   0   3  155.68   10.80
   5   0   3  157.48   10.10
   5   0   3  158.58    9.50
  -6   0  -3   13.30    4.60
   6   0   3   14.90    4.50
   6   0   3   12.50    3.90
   6   0   3   10.90    4.30
  -7   0  -3  107.39   13.10
  -7   0  -3  114.89    9.70
   7   0   3  107.09   10.00
   7   0   3  108.29    9.70
   7   0   3  108.89    8.50
  -8   0  -3    0.70    6.30
  -8   0  -3    1.60    4.40
   8   0   3    0.90    4.40
  10  -1  -3  127.09   10.40
 -10   1   3   82.39    9.30
 -10   1   3   72.69   15.00
 -10   1   3  114.59   10.40
   9  -1  -3   -1.70    4.40
   9  -1  -3    6.50    4.20
  -9   1   3    3.90    3.60
  -9   1   3    1.00    3.70
  -9   1   3    2.70    6.20
   8  -1  -3   80.39    8.40
   8  -1  -3   64.29    7.60
  -8   1   3   68.99    7.20
  -8   1   3   67.09   10.30
  -8   1   3   68.89    7.50
   7  -1  -3  310.57   15.60
   7  -1  -3  331.57   15.70
   7  -1  -3  309.07   14.10
   7  -1  -3  336.37   16.00
  -7   1   3  304.27   19.00
  -7   1   3  309.27   15.50
  -7   1   3  285.07   15.10
   6  -1  -3  208.28   11.10
   6  -1  -3  197.88   10.80
   6  -1  -3  208.28   11.10
   6  -1  -3  205.18    9.60
  -6   1   3  207.28   13.50
  -6   1   3  193.78   10.80
  -6   1   3  215.78   11.20
  -6   1   3  204.88   11.00
   5  -1  -3   12.80    1.90
   5  -1  -3    7.00    2.20
   5  -1  -3    8.40    2.90
   5  -1  -3   11.10    2.80
  -5   1   3    5.10    2.20
  -5   1   3    8.60    2.60
  -5   1   3    7.60    2.50
   4  -1  -3  179.58    9.40
   4  -1  -3  182.08    9.00
   4  -1  -3  175.38    9.60
   4  -1  -3  177.68    8.70
   4  -1  -3  193.28    9.00
   4  -1  -3  183.98    7.70
  -4   1   3  174.58    9.20
  -4   1   3  175.78    8.90
  -4   1   3  166.88    8.70
  -4   1   3  189.68    9.20
  -4   1   3  169.48   10.00
  -4   1   3  201.98    8.90
  -4   1   3  188.28    9.00
  -4   1   3  182.38    9.20
   3  -1  -3 1805.32   68.19
   3  -1  -3 1805.62   68.09
   3  -1  -3 1893.81   67.49
   3  -1  -3 1890.21   68.49
   3  -1  -3 1813.72   68.69
   3  -1  -3 1785.72   68.79
   3  -1  -3 1808.12   67.99
  -3   1   3 1811.42   68.39
  -3   1   3 1875.81   68.59
  -3   1   3 1853.71   68.09
  -3   1   3 1858.01   68.59
  -3   1   3 1833.52   67.49
  -3   1   3 1750.32   68.69
  -3   1   3 1806.72   68.89
  -3   1   3 1757.82   68.09
  -3   1   3 1759.72   68.29
   2  -1  -3 1125.69   40.90
   2  -1  -3 1097.09   41.10
   2  -1  -3 1110.99   41.30
   2  -1  -3 1088.39   41.10
   2  -1  -3 1111.29   41.90
   2  -1  -3 1036.60   41.10
   2  -1  -3 1070.39   41.00
  -2   1   3 1053.79   41.20
  -2   1   3 1138.09   41.90
  -2   1   3 1026.30   41.00
  -2   1   3 1066.49   41.30
  -2   1   3 1097.99   41.10
  -2   1   3 1133.79   41.30
  -2   1   3 1116.29   41.60
  -2   1   3 1080.99   41.90
   1  -1  -3  227.08   10.10
   1  -1  -3  221.48    9.20
   1  -1  -3  223.88    9.40
   1  -1  -3  214.78    9.50
   1  -1  -3  198.68    9.80
   1  -1  -3  220.48    9.20
   1  -1  -3  225.18    9.40
  -1   1   3  221.88    9.20
  -1   1   3  233.88    9.30
  -1   1   3  229.58   10.20
  -1   1   3  221.48    9.30
  -1   1   3  223.08   10.10
  -1   1   3  227.48    9.50
  -1   1   3  220.28    9.50
   0  -1  -3  366.86   14.40
   0  -1  -3  373.76   14.20
   0  -1  -3  371.16   15.40
   0  -1  -3  362.76   14.60
   0  -1  -3  331.37   15.50
   0  -1  -3  357.56   14.40
   0  -1  -3  353.86   14.60
   0  -1  -3  360.46   14.50
   0   1   3  373.46   14.40
   0   1   3  366.96   15.80
   0   1   3  355.26   14.80
   0   1   3  347.37   15.30
   0   1   3  354.96   14.50
   0   1   3  372.46   14.20
   0   1   3  366.16   14.50
   0   1   3  372.46   14.40
  -1  -1  -3  595.94   24.10
  -1  -1  -3  595.14   23.20
  -1  -1  -3  653.63   24.60
  -1  -1  -3  602.14   24.30
  -1  -1  -3  618.04   24.40
  -1  -1  -3  610.04   25.20
  -1  -1  -3  631.34   25.10
   1   1   3  645.24   24.30
   1   1   3  647.24   25.10
   1   1   3  594.04   24.20
   1   1   3  616.74   24.10
   1   1   3  590.24   24.60
   1   1   3  586.94   25.00
   1   1   3  702.93   27.60
  -2  -1  -3   13.30    3.50
  -2  -1  -3    4.80    1.90
  -2  -1  -3    6.20    2.00
   2   1   3    8.50    2.10
   2   1   3    4.90    2.60
   2   1   3    8.90    2.60
   2   1   3   10.80    2.80
   2   1   3    7.20    1.90
   2   1   3    9.70    2.10
  -3  -1  -3    7.20    2.40
  -3  -1  -3   11.10    4.10
  -3  -1  -3    3.60    2.20
   3   1   3    7.60    2.80
   3   1   3    4.60    2.00
   3   1   3    6.00    2.80
   3   1   3    3.70    2.80
   3   1   3    5.50    2.30
  -4  -1  -3  117.29    7.80
  -4  -1  -3  123.29   10.00
  -4  -1  -3  120.59    7.90
   4   1   3  118.89    8.80
   4   1   3  126.29    8.90
   4   1   3  118.39    7.80
   4   1   3  110.59    7.50
   4   1   3  111.99    8.30
  -5  -1  -3  196.28   15.00
  -5  -1  -3  215.78   12.10
   5   1   3  213.18   12.00
   5   1   3  232.88   12.40
   5   1   3  222.78   12.90
  -6  -1  -3   14.70    4.40
  -6  -1  -3   26.30    8.10
   6   1   3   25.40    5.60
   6   1   3   25.40    5.70
   6   1   3   14.10    4.50
  -7  -1  -3   64.89    7.80
  -7  -1  -3   74.99   11.60
   7   1   3   86.59    8.20
   7   1   3   62.49    7.80
   7   1   3   86.19    9.40
 -10   2   3   67.79   12.30
 -10   2   3   94.59    9.60
 -10   2   3   64.99    9.00
   9  -2  -3   -0.30    4.00
   9  -2  -3   12.20    4.70
  -9   2   3    0.00    4.40
  -9   2   3   11.70    7.30
  -9   2   3    4.70    4.00
   8  -2  -3    5.40    4.20
   8  -2  -3    3.60    3.90
  -8   2   3    4.10    3.90
  -8   2   3    5.40    3.60
  -8   2   3   24.80    7.50
   7  -2  -3  252.57   12.90
   7  -2  -3  229.78   12.70
   7  -2  -3  252.37   13.00
  -7   2   3  263.67   16.30
  -7   2   3  227.18   13.10
  -7   2   3  228.98   12.70
   6  -2  -3  233.78   11.70
   6  -2  -3  235.88   11.90
   6  -2  -3  234.78   11.60
  -6   2   3  233.78   12.00
  -6   2   3  217.78   11.40
  -6   2   3  214.98   13.70
  -6   2   3  242.08   12.40
   5  -2  -3   28.00    3.40
   5  -2  -3   24.10    4.00
   5  -2  -3   20.80    3.10
  -5   2   3   24.10    3.50
  -5   2   3   26.40    4.20
  -5   2   3   25.80    3.50
  -5   2   3   21.60    2.80
  -5   2   3   19.00    4.20
  -5   2   3   20.80    3.90
  -5   2   3   23.90    3.30
   4  -2  -3  645.84   26.70
   4  -2  -3  620.54   27.40
   4  -2  -3  618.14   26.50
   4  -2  -3  650.43   25.80
  -4   2   3  665.63   27.10
  -4   2   3  695.73   26.00
  -4   2   3  669.23   26.50
  -4   2   3  646.14   26.10
  -4   2   3  673.13   25.90
  -4   2   3  643.14   27.10
  -4   2   3  657.63   26.30
  -4   2   3  664.93   26.60
   3  -2  -3 1860.11   71.19
   3  -2  -3 1824.72   71.29
   3  -2  -3 2064.69   71.69
   3  -2  -3 1920.71   71.79
  -3   2   3 2023.90   72.29
  -3   2   3 2013.70   71.89
  -3   2   3 1809.62   71.49
  -3   2   3 1846.32   72.59
  -3   2   3 1895.21   71.29
  -3   2   3 1747.43   71.39
  -3   2   3 1809.62   71.19
  -3   2   3 1951.10   72.09
  -3   2   3 2057.89   70.89
   2  -2  -3  471.15   20.40
   2  -2  -3  450.35   19.20
   2  -2  -3  528.85   19.10
   2  -2  -3  486.75   19.10
   2  -2  -3  471.25   19.10
   2  -2  -3  511.45   19.70
  -2   2   3  488.45   19.20
  -2   2   3  517.85   18.80
  -2   2   3  485.75   19.30
  -2   2   3  473.95   20.50
  -2   2   3  462.65   19.40
  -2   2   3  477.35   19.10
  -2   2   3  496.25   19.80
  -2   2   3  556.34   20.70
   1  -2  -3   19.10    3.00
   1  -2  -3   20.80    2.40
   1  -2  -3   23.20    2.50
   1  -2  -3   21.40    2.30
   1  -2  -3   22.00    2.20
   1  -2  -3   22.00    2.20
  -1   2   3   20.90    2.20
  -1   2   3   25.60    2.70
  -1   2   3   22.20    2.40
  -1   2   3   23.10    2.70
  -1   2   3   19.70    1.50
  -1   2   3   22.70    3.60
  -1   2   3   21.50    2.30
  -1   2   3   24.50    3.60
   0  -2  -3    4.40    2.20
   0  -2  -3    3.90    1.20
   0  -2  -3    5.50    1.40
   0  -2  -3    5.60    1.60
   0  -2  -3    5.70    1.60
   0   2   3    8.60    1.50
   0   2   3    6.80    2.50
   0   2   3    5.50    1.90
   0   2   3    5.60    1.50
   0   2   3    6.10    1.60
   0   2   3    7.10    1.80
   0   2   3    7.00    2.80
   0   2   3    6.00    1.70
  -1  -2  -3   57.69    3.90
   1   2   3   58.69    4.00
   1   2   3   53.49    4.80
   1   2   3   58.09    4.60
   1   2   3   67.09    3.90
   1   2   3   57.99    4.40
   1   2   3   57.89    3.90
  -2  -2  -3  447.76   19.10
  -2  -2  -3  436.16   21.00
   2   2   3  460.95   19.70
   2   2   3  450.55   19.90
   2   2   3  490.35   22.30
   2   2   3  497.65   19.00
   2   2   3  466.95   19.10
   2   2   3  448.16   19.20
  -3  -2  -3   84.29    8.10
  -3  -2  -3   88.39    6.10
  -3  -2  -3   81.69    6.00
   3   2   3   92.09    7.10
   3   2   3   80.99    6.20
   3   2   3   85.59    7.00
   3   2   3   80.09    6.80
   3   2   3   87.09    5.80
  -4  -2  -3   65.69    6.10
  -4  -2  -3   57.69    8.20
   4   2   3   66.89    7.20
   4   2   3   54.99    6.80
   4   2   3   62.69    6.80
   4   2   3   63.39    6.20
  -5  -2  -3  170.98   10.40
  -5  -2  -3  146.79   13.10
   5   2   3  154.38   10.40
   5   2   3  174.68   10.70
   5   2   3  153.98   11.10
   5   2   3  159.08   11.00
  -6  -2  -3  228.98   13.30
  -6  -2  -3  232.48   17.50
   6   2   3  230.48   13.80
   6   2   3  208.28   13.90
   6   2   3  219.48   13.60
   7   2   3   97.29   10.10
   7   2   3   90.49    9.40
  10  -3  -3  156.38   11.00
 -10   3   3   92.69   10.30
 -10   3   3  127.59   10.80
 -10   3   3  112.99   14.10
   9  -3  -3   57.99    7.80
   9  -3  -3   85.29    7.90
  -9   3   3   86.59    8.70
  -9   3   3   75.09   11.00
  -9   3   3   58.69    7.90
   8  -3  -3    5.30    4.30
   8  -3  -3   21.00    4.20
  -8   3   3   10.90    5.90
  -8   3   3   12.40    4.90
  -8   3   3   13.50    4.10
   7  -3  -3  128.19    9.40
   7  -3  -3  142.79    8.70
  -7   3   3  137.49    8.90
  -7   3   3  135.89   11.30
  -7   3   3  136.79    9.40
   6  -3  -3   58.49    5.10
  -6   3   3   55.49    6.70
  -6   3   3   50.69    5.80
  -6   3   3   60.69    5.50
  -6   3   3   53.59    5.20
  -6   3   3   61.49    7.60
   5  -3  -3  115.69    6.40
   5  -3  -3  126.19    8.30
  -5   3   3  107.89    6.80
  -5   3   3  112.09    7.30
  -5   3   3  107.49    8.00
  -5   3   3  102.29    6.40
  -5   3   3  104.69    6.70
  -5   3   3  129.09    8.20
  -5   3   3  112.69    6.40
   4  -3  -3  142.19    6.80
   4  -3  -3  149.99    6.80
  -4   3   3  136.29    7.90
  -4   3   3  132.19    8.50
  -4   3   3  123.09    7.00
  -4   3   3  128.39    6.80
  -4   3   3  134.89    7.20
  -4   3   3  138.29    6.80
   3  -3  -3  117.49    5.60
   3  -3  -3  134.79    5.60
  -3   3   3  122.69    6.80
  -3   3   3  102.79    5.90
  -3   3   3  117.79    6.00
  -3   3   3  111.89    5.70
  -3   3   3  108.89    5.70
  -3   3   3  102.99    7.20
   2  -3  -3   95.39    5.40
   2  -3  -3   96.29    4.60
   2  -3  -3   99.59    4.50
   2  -3  -3   90.79    4.70
  -2   3   3   94.69    4.70
  -2   3   3   94.39    5.50
  -2   3   3   96.09    4.80
  -2   3   3   93.89    4.90
  -2   3   3   91.09    6.60
  -2   3   3  105.59    6.00
  -2   3   3   93.19    5.10
  -2   3   3   90.79    4.70
   1  -3  -3  550.04   21.30
   1  -3  -3  539.85   21.20
   1  -3  -3  567.34   21.60
  -1   3   3  547.95   21.80
  -1   3   3  552.54   23.20
  -1   3   3  550.34   21.70
  -1   3   3  538.85   21.40
  -1   3   3  553.04   21.40
  -1   3   3  557.44   21.40
  -1   3   3  543.95   21.70
  -1   3   3  575.84   23.30
   0  -3  -3  296.97   12.70
   0  -3  -3  309.37   12.80
   0   3   3  311.97   12.80
   0   3   3  304.77   13.20
   0   3   3  302.47   14.30
   0   3   3  316.07   12.80
   0   3   3  303.77   12.30
   0   3   3  325.57   12.70
   0   3   3  313.97   13.70
  -1  -3  -3   42.40    3.60
  -1  -3  -3   48.90    3.80
   1   3   3   54.69    3.60
   1   3   3   51.29    5.00
   1   3   3   48.00    4.30
   1   3   3   46.80    4.60
   1   3   3   51.49    3.80
   1   3   3   47.50    3.90
  -2  -3  -3   13.90    2.70
  -2  -3  -3   12.90    2.60
   2   3   3   21.10    3.70
   2   3   3   15.00    2.60
   2   3   3   21.40    4.00
   2   3   3   13.90    2.90
   2   3   3   15.00    2.70
  -3  -3  -3   74.69    5.90
   3   3   3   71.29    6.60
   3   3   3   73.09    7.40
   3   3   3   75.49    6.80
   3   3   3   69.49    6.10
  -4  -3  -3   43.30    5.50
   4   3   3   40.30    6.00
   4   3   3   40.90    6.30
   4   3   3   45.60    5.90
   4   3   3   42.90    6.00
  -5  -3  -3   40.90    7.60
   5   3   3   43.90    6.30
   5   3   3   53.79    7.50
   5   3   3   39.30    6.30
   6   3   3   38.40    6.70
   6   3   3   37.70    6.20
   6   3   3   46.10    7.70
 -10   4   3    2.90    5.10
 -10   4   3    6.70    7.20
 -10   4   3    2.70    4.50
   9  -4  -3   61.99    8.50
  -9   4   3   36.10    7.00
  -9   4   3   48.60    9.80
  -9   4   3   45.20    6.70
   8  -4  -3  142.49    8.70
  -8   4   3   99.49   11.20
  -8   4   3  121.69   10.20
  -8   4   3  140.09    9.20
   7  -4  -3  112.19    7.30
  -7   4   3  101.79    7.70
  -7   4   3  107.59   10.30
  -7   4   3  108.59    8.60
   6  -4  -3   12.30    2.70
   6  -4  -3   10.30    2.60
  -6   4   3    9.50    2.80
  -6   4   3    8.30    3.10
  -6   4   3    6.70    3.50
  -6   4   3   21.90    5.30
  -6   4   3    5.40    2.50
  -6   4   3    9.80    4.30
   5  -4  -3  204.68    9.20
   5  -4  -3  202.28    9.30
  -5   4   3  189.98    9.50
  -5   4   3  206.78   11.30
  -5   4   3  200.78   11.90
  -5   4   3  191.68   10.00
  -5   4   3  183.98    9.80
  -5   4   3  206.58   10.90
  -5   4   3  203.88    9.50
   4  -4  -3  104.19    5.20
   4  -4  -3   98.69    5.00
  -4   4   3  104.59    5.90
  -4   4   3   89.79    6.30
  -4   4   3   84.89    5.10
  -4   4   3   97.49    5.70
  -4   4   3  101.69    5.40
  -4   4   3   98.29    7.40
  -4   4   3  107.99    6.90
  -4   4   3  106.99    5.40
   3  -4  -3   24.40    2.10
  -3   4   3   22.60    2.30
  -3   4   3   14.40    3.60
  -3   4   3   16.20    2.30
  -3   4   3   16.90    2.30
  -3   4   3   21.00    3.30
  -3   4   3   16.50    2.00
   2  -4  -3   11.40    1.50
   2  -4  -3    9.30    1.30
   2  -4  -3   11.60    2.70
  -2   4   3   10.60    1.60
  -2   4   3    7.50    3.10
  -2   4   3    7.70    1.40
  -2   4   3   11.90    2.40
  -2   4   3   12.70    1.60
  -2   4   3   11.20    2.00
   1  -4  -3  121.59    5.80
   1  -4  -3  125.69    5.70
  -1   4   3  123.89    5.90
  -1   4   3  139.29    6.10
  -1   4   3  125.09    5.80
  -1   4   3  125.29    8.10
  -1   4   3  119.49    6.30
  -1   4   3  125.19    6.40
   0  -4  -3   86.89    4.90
   0  -4  -3   85.19    4.80
   0   4   3   86.39    5.60
   0   4   3   88.39    5.10
   0   4   3   86.79    6.70
   0   4   3   98.99    6.50
   0   4   3   87.19    4.60
   0   4   3   92.09    5.00
   0   4   3   92.09    4.80
  -1  -4  -3  141.39    7.40
  -1  -4  -3  143.19    7.50
   1   4   3  145.69    8.30
   1   4   3  144.89    9.10
   1   4   3  145.69    7.80
   1   4   3  156.08    7.70
   1   4   3  176.28    9.70
  -2  -4  -3   35.60    4.10
   2   4   3   40.30    5.40
   2   4   3   40.60    4.40
   2   4   3   31.20    4.70
   2   4   3   37.10    6.20
   3   4   3  278.07   13.80
   3   4   3  287.17   14.60
   3   4   3  270.47   14.40
   3   4   3  278.47   15.40
   4   4   3   15.90    4.50
   4   4   3   19.70    4.30
   4   4   3   14.70    5.20
   5   4   3   35.90    6.00
   5   4   3   28.80    6.40
   5   4   3   24.20    5.40
 -10   5   3   23.90    6.40
 -10   5   3   26.80    8.80
 -10   5   3   19.10    5.30
  -9   5   3   29.40    5.20
  -9   5   3   37.10    6.20
  -9   5   3   22.10    6.70
  -9   5   3   36.10    8.50
  -8   5   3  199.88   11.20
  -8   5   3  180.08   14.20
  -8   5   3  211.38   11.90
  -8   5   3  213.78   13.90
  -8   5   3  167.78   12.10
  -7   5   3  152.38   10.50
  -7   5   3  143.69    8.90
  -7   5   3  151.18   11.90
  -7   5   3  157.18   12.00
  -7   5   3  181.88   10.00
   6  -5  -3   28.10    3.40
  -6   5   3   24.90    3.70
  -6   5   3   19.70    5.20
  -6   5   3   29.00    5.40
  -6   5   3   27.60    4.20
   5  -5  -3  147.29    7.10
  -5   5   3  142.69    6.70
  -5   5   3  147.59    8.00
  -5   5   3  139.89   10.10
  -5   5   3  140.09    8.00
  -5   5   3  153.88    7.50
  -5   5   3  141.29    9.10
   4  -5  -3  213.28    9.50
  -4   5   3  218.08   11.70
  -4   5   3  232.48   11.70
  -4   5   3  262.77   10.90
  -4   5   3  219.18   13.10
  -4   5   3  235.48    9.90
  -4   5   3  206.78    9.80
  -4   5   3  223.88   10.40
  -4   5   3  221.58   10.30
  -3   5   3  127.29    6.40
  -3   5   3  115.29    6.20
  -3   5   3  127.29    7.50
  -3   5   3  118.09    9.00
  -3   5   3  117.29    5.80
  -3   5   3  127.89    5.80
  -3   5   3  131.09    7.40
  -2   5   3   12.70    2.80
  -2   5   3   20.90    3.30
  -2   5   3   13.80    1.80
  -2   5   3   13.10    1.80
  -2   5   3   13.20    2.30
  -2   5   3   14.10    2.00
  -2   5   3   10.10    4.10
   1  -5  -3  210.08   10.50
  -1   5   3  210.08    9.80
  -1   5   3  209.68   12.00
  -1   5   3  221.38   11.40
  -1   5   3  218.88    9.30
  -1   5   3  218.38    9.40
  -1   5   3  213.48    9.20
  -1   5   3  217.98    9.90
   0   5   3  727.43   26.90
   0   5   3  668.63   27.20
   0   5   3  719.23   27.30
   0   5   3  687.23   29.60
   0   5   3  678.73   27.90
   1   5   3   92.89    6.00
   1   5   3   93.69    7.90
   1   5   3   88.79    6.60
   2   5   3   33.70    4.30
   2   5   3   27.70    4.60
   2   5   3   35.70    5.60
   2   5   3   34.80    6.60
   3   5   3   16.00    4.40
   3   5   3   16.60    4.00
   3   5   3   17.50    5.90
   4   5   3    1.30    3.20
   4   5   3   -4.20    4.30
   4   5   3    3.40    3.30
  -9   6   3   24.70    4.60
  -9   6   3   24.60    7.70
  -9   6   3   26.60    6.70
  -9   6   3   23.10    6.70
  -9   6   3   37.10    5.90
  -8   6   3  242.18   12.50
  -8   6   3  223.28   11.50
  -8   6   3  222.98   15.10
  -8   6   3  190.68   14.90
  -8   6   3  179.18   13.40
  -7   6   3  213.38   10.60
  -7   6   3  199.78   14.20
  -7   6   3  189.18   12.50
  -7   6   3  209.48   11.20
  -7   6   3  194.68   13.60
  -6   6   3    0.50    4.40
  -6   6   3    4.20    3.90
  -6   6   3    2.40    2.20
  -6   6   3    1.20    2.50
  -6   6   3    1.20    3.30
  -5   6   3  237.68   11.90
  -5   6   3  260.57   15.40
  -5   6   3  268.77   11.30
  -5   6   3  257.77   11.90
  -5   6   3  264.27   13.90
  -5   6   3  263.87   14.00
  -4   6   3   62.99    5.90
  -4   6   3   62.79    4.60
  -4   6   3   58.79    4.40
  -4   6   3   59.79    7.50
  -4   6   3   59.29    3.60
  -4   6   3   62.89    6.00
  -3   6   3  101.39    4.70
  -3   6   3   99.19    7.10
  -3   6   3  103.59    8.60
  -3   6   3  107.79    7.20
  -3   6   3  100.19    5.60
  -3   6   3  103.59    5.60
  -2   6   3   50.39    5.20
  -2   6   3   37.40    2.80
  -2   6   3   37.80    3.60
  -2   6   3   41.10    6.40
  -2   6   3   35.80    4.30
  -2   6   3   40.20    3.30
  -1   6   3  388.06   15.90
  -1   6   3  383.46   15.60
  -1   6   3  397.36   16.60
  -1   6   3  380.26   16.30
  -1   6   3  405.36   19.40
   0   6   3  338.97   16.70
   0   6   3  306.07   13.50
   0   6   3  314.47   14.40
   1   6   3   96.49    8.00
   1   6   3   91.79    9.40
   1   6   3   81.89    5.70
   1   6   3   78.89    6.50
   2   6   3  170.48    9.40
   2   6   3  159.08   10.10
   2   6   3  183.18   12.70
   3   6   3   10.10    4.00
   3   6   3    8.50    3.30
   3   6   3    1.20    4.90
  -9   7   3   14.50    3.80
  -8   7   3   63.39    6.80
  -8   7   3   49.90    8.20
  -8   7   3   54.59    9.00
  -8   7   3   56.09    5.70
  -7   7   3   71.69    5.50
  -7   7   3   59.69    9.10
  -7   7   3   68.69    6.20
  -7   7   3   54.29    7.90
  -6   7   3   38.60    6.30
  -6   7   3   52.09    5.00
  -6   7   3   47.10    8.20
  -6   7   3   47.90    4.10
  -5   7   3  205.98    8.70
  -5   7   3  201.48   13.60
  -5   7   3  221.88   12.40
  -5   7   3  216.98    9.90
  -5   7   3  187.68   10.10
  -4   7   3   60.69    6.50
  -4   7   3   56.39    4.30
  -4   7   3   60.69    4.30
  -4   7   3   67.19    8.80
  -3   7   3  191.88   10.50
  -3   7   3  196.38   12.90
  -3   7   3  182.68    8.50
  -3   7   3  183.88    8.50
  -2   7   3    7.70    3.10
  -2   7   3   10.00    4.60
  -2   7   3   10.20    2.30
  -2   7   3   14.20    2.20
  -1   7   3    4.20    2.20
  -1   7   3    0.80    4.10
   0   7   3   50.29    7.20
   0   7   3   65.29    5.30
   0   7   3   47.70    7.40
   1   7   3    9.60    3.00
   1   7   3    5.20    3.00
   1   7   3    7.70    5.60
   2   7   3   53.19    5.40
  -7   8   3    4.20    2.80
  -7   8   3    3.00    5.40
  -7   8   3   -3.90    4.20
  -6   8   3  123.39   10.00
  -6   8   3  136.49   11.70
  -6   8   3  120.79    7.20
  -5   8   3  174.48   10.90
  -5   8   3  141.69    7.50
  -5   8   3  152.08   12.10
  -4   8   3   -0.10    2.90
  -4   8   3   -0.50    4.80
  -4   8   3    3.30    1.60
  -3   8   3    1.50    4.70
  -2   8   3   14.10    5.50
  -2   8   3   15.20    2.40
  -2   8   3   21.90    3.20
  -1   8   3  219.78   14.00
  -1   8   3  190.08    9.50
  -1   8   3  196.58   14.10
   0   8   3   34.80    5.10
  -5   9   3   52.39    8.60
  -5   9   3   68.39    7.50
  -4   9   3   65.49    9.60
  -3   9   3    0.10    5.00
  -3   9   3   -1.60    4.50
   0  10  -4    5.90    4.70
   0  10  -4    9.50   10.80
  -1  10  -4  126.89   10.20
  -1  10  -4  116.99   13.10
  -1  10  -4  135.49   15.10
  -2  10  -4   60.29   11.70
  -2  10  -4   46.10    9.30
  -3  10  -4    5.20    5.20
  -3  10  -4   -4.60    5.50
  -4  10  -4   44.00    7.40
  -4  10  -4   54.89   11.50
  -4  10  -4   45.80    8.80
  -4  10  -4   40.00    4.00
  -5  10  -4  171.18   17.50
   2   9  -4   70.79    9.50
   2   9  -4   89.09    7.30
   2   9  -4   87.79   18.70
   1   9  -4    5.30    5.70
   1   9  -4   12.00    2.60
   1   9  -4    8.50    5.20
   0   9  -4   10.60    6.40
   0   9  -4    7.20    2.00
   0   9  -4    4.00    4.30
  -1   9  -4  105.59   12.90
  -1   9  -4  114.69    8.90
  -1   9  -4   97.09   10.70
  -1   9  -4   95.79    5.10
  -2   9  -4   48.20    3.40
  -2   9  -4   45.50    6.50
  -2   9  -4   45.70    9.40
  -2   9  -4   38.20    7.70
  -3   9  -4    0.00    1.80
  -3   9  -4   -0.20    4.40
  -3   9  -4    2.30    6.10
  -4   9  -4  159.08   14.50
  -4   9  -4  137.69    7.80
  -4   9  -4  146.19   12.00
  -5   9  -4  285.07   14.10
  -5   9  -4  300.87   20.80
  -5   9  -4  325.67   18.20
  -6   9  -4  117.39   13.30
  -6   9  -4  140.49    9.20
  -6   9  -4  143.59    8.00
   4   8  -4   60.99    5.50
   3   8  -4  165.78    9.90
   3   8  -4  187.48   16.00
   3   8  -4  181.08    9.10
   3   8  -4  174.68   13.20
   2   8  -4  374.76   15.40
   2   8  -4  349.57   16.20
   2   8  -4  369.36   22.40
   2   8  -4  376.36   19.80
   1   8  -4  509.45   27.40
   1   8  -4  518.65   20.00
   1   8  -4  515.35   24.50
   1   8  -4  492.95   20.80
   0   8  -4   83.69    4.20
   0   8  -4   81.39    8.00
   0   8  -4   83.99   10.30
   0   8  -4   78.39    4.90
  -1   8  -4  245.78    9.80
  -1   8  -4  253.07   13.20
  -1   8  -4  233.88   10.30
  -1   8  -4  238.98   16.10
  -1   8  -4  240.78   10.60
  -1   8  -4  232.68   16.90
  -2   8  -4  165.28   12.80
  -2   8  -4  176.38    8.00
  -2   8  -4  163.48    7.00
  -2   8  -4  159.48    7.70
  -2   8  -4  170.68    9.80
  -2   8  -4  162.18   13.70
  -3   8  -4   20.30    6.60
  -3   8  -4   16.90    5.60
  -3   8  -4   13.20    2.10
  -3   8  -4   15.00    2.70
  -3   8  -4   16.30    2.70
  -4   8  -4   24.80    6.40
  -4   8  -4   18.50    7.00
  -4   8  -4   16.20    2.70
  -4   8  -4   12.60    3.00
  -5   8  -4    4.80    3.20
  -5   8  -4    9.10    5.10
  -5   8  -4    8.70    2.70
  -5   8  -4    3.60    4.20
  -5   8  -4   13.80    6.60
  -6   8  -4   85.09    7.60
  -6   8  -4   87.59   11.30
  -6   8  -4   85.99    9.30
  -6   8  -4   88.89    6.80
  -7   8  -4   28.00    4.80
  -7   8  -4   13.90    5.40
  -7   8  -4   22.10    8.90
  -7   8  -4   20.80    4.90
   5   7  -4    3.50    3.60
   5   7  -4    0.00    8.60
   5   7  -4    1.00    5.00
   5   7  -4    6.90    2.90
   4   7  -4   17.80    3.40
   4   7  -4   12.00    5.40
   4   7  -4   14.10    6.30
   4   7  -4   14.40    3.80
   3   7  -4   46.00    5.30
   3   7  -4   30.10    7.30
   3   7  -4   35.60    6.70
   3   7  -4   37.80    4.20
   2   7  -4  128.59    7.60
   2   7  -4  128.89    6.90
   2   7  -4  129.99   12.20
   2   7  -4  134.79   10.10
   1   7  -4  148.79   12.20
   1   7  -4  158.68    7.40
   1   7  -4  156.48    8.00
   1   7  -4  151.78   10.60
   0   7  -4   17.70    5.70
   0   7  -4   15.10    2.10
   0   7  -4   14.70    2.40
   0   7  -4    9.00    3.70
  -1   7  -4   29.00    2.60
  -1   7  -4   22.00    4.20
  -1   7  -4   25.10    5.80
  -1   7  -4   27.10    3.00
  -1   7  -4   29.60    7.60
  -1   7  -4   31.00    3.00
  -2   7  -4  114.29    5.90
  -2   7  -4   96.89    5.10
  -2   7  -4   98.09    8.90
  -2   7  -4  101.59    6.60
  -2   7  -4   97.69   10.00
  -2   7  -4   93.19    5.40
  -3   7  -4  154.58    7.60
  -3   7  -4  157.38    8.00
  -3   7  -4  152.18    8.00
  -3   7  -4  162.28   11.50
  -3   7  -4  169.48   12.80
  -3   7  -4  159.28    8.20
  -4   7  -4  155.98   13.00
  -4   7  -4  142.89    8.30
  -4   7  -4  161.68   11.50
  -4   7  -4  148.29    7.90
  -5   7  -4   81.39    8.40
  -5   7  -4   94.89   10.90
  -5   7  -4   71.29    6.50
  -5   7  -4   85.29    8.60
  -5   7  -4   82.49    6.20
  -6   7  -4   55.39    6.50
  -6   7  -4   57.39   10.10
  -6   7  -4   56.69    6.10
  -6   7  -4   51.19    7.30
  -6   7  -4   50.99    7.70
  -7   7  -4   44.20   10.30
  -7   7  -4   28.40    5.50
  -7   7  -4   29.60    5.00
  -7   7  -4   32.50    6.20
  -8   7  -4   22.30    5.90
  -8   7  -4   24.00    5.40
  -8   7  -4   18.70    5.50
   6   6  -4   52.89    9.80
   6   6  -4   56.49    9.90
   6   6  -4   50.89    7.00
   6   6  -4   66.29    7.20
   5   6  -4    4.80    4.70
   5   6  -4    6.40    5.30
   5   6  -4    3.20    3.20
   5   6  -4    2.00    2.60
   4   6  -4  113.09    7.20
   4   6  -4  103.49    7.90
   4   6  -4   95.89    9.40
   4   6  -4  113.49   11.60
   3   6  -4  128.69   10.00
   3   6  -4  130.89    8.20
   3   6  -4  131.89   11.90
   3   6  -4  137.59    7.60
   2   6  -4    2.20    2.20
   2   6  -4   -0.10    1.80
   2   6  -4    3.00    4.20
   2   6  -4    0.70    3.70
   2   6  -4    1.70    1.90
  -2  -6   4    2.40    1.70
   1   6  -4   33.50    3.60
   1   6  -4   41.40    5.60
   1   6  -4   32.80    3.20
   1   6  -4   42.20    7.60
  -1  -6   4   31.70    2.80
   0   6  -4   33.10    4.50
   0   6  -4   36.30    3.30
   0   6  -4   35.10    3.00
   0   6  -4   47.90    7.40
   0   6  -4   37.20    3.00
   0   6  -4   36.40    4.70
   0   6  -4   38.20    3.30
   0  -6   4   32.80    2.60
  -1   6  -4  534.75   27.00
  -1   6  -4  565.24   26.30
  -1   6  -4  559.04   22.10
  -1   6  -4  589.74   22.10
  -1   6  -4  540.45   23.30
  -1   6  -4  576.54   21.90
  -1   6  -4  578.04   22.40
   1  -6   4  553.64   21.70
  -2   6  -4   70.49    7.30
  -2   6  -4   70.29    7.90
  -2   6  -4   63.29    4.10
  -2   6  -4   58.19    4.50
  -2   6  -4   64.19    4.00
  -2   6  -4   62.19    4.60
  -2   6  -4   67.39    4.30
   2  -6   4   62.99    3.90
  -3   6  -4  293.77   13.30
  -3   6  -4  330.57   15.30
  -3   6  -4  316.87   13.80
  -3   6  -4  320.57   12.70
  -3   6  -4  312.67   16.40
  -3   6  -4  305.27   17.60
  -3   6  -4  299.77   13.20
   3  -6   4  304.27   13.10
   3  -6   4  295.17   13.00
  -4   6  -4    2.20    4.20
  -4   6  -4    1.50    2.40
  -4   6  -4   -0.60    2.40
  -4   6  -4    1.80    2.40
  -4   6  -4   -1.80    3.80
   4  -6   4    1.60    1.90
  -5   6  -4    8.30    4.70
  -5   6  -4    8.40    4.00
  -5   6  -4   12.30    3.60
  -5   6  -4    9.30    3.20
  -5   6  -4   15.70    6.30
   5  -6   4   10.10    2.90
  -6   6  -4   14.50    6.80
  -6   6  -4   -0.40    3.40
  -6   6  -4   12.80    4.80
  -6   6  -4    8.60    3.70
  -6   6  -4    4.50    4.50
  -7   6  -4  137.99   10.40
  -7   6  -4  146.99   10.30
  -7   6  -4  155.48   14.50
  -7   6  -4  147.59   11.80
  -7   6  -4  154.98   11.10
  -8   6  -4  122.99   14.60
  -8   6  -4  130.09   10.60
  -8   6  -4  135.29   10.50
  -8   6  -4  130.79   10.70
   7   5  -4   40.00    6.50
   7   5  -4   64.89   10.80
   7   5  -4   48.80    9.40
   7   5  -4   59.69    7.60
   6   5  -4  170.88   11.60
   6   5  -4  177.68   14.60
   6   5  -4  183.08   13.10
   6   5  -4  169.18   10.70
   5   5  -4   87.19   10.40
   5   5  -4   91.59    7.10
   5   5  -4   94.99    9.20
   5   5  -4   85.49    7.70
  -5  -5   4   96.69    9.40
   4   5  -4  464.75   21.40
   4   5  -4  492.65   25.10
   4   5  -4  490.75   23.00
   4   5  -4  480.65   20.60
  -4  -5   4  475.25   20.40
   3   5  -4   12.00    2.80
   3   5  -4   15.10    5.70
   3   5  -4   15.70    4.30
   3   5  -4   12.80    2.80
   3   5  -4   12.20    3.20
  -3  -5   4   14.00    3.30
  -3  -5   4   13.60    2.60
   2   5  -4   11.60    2.40
   2   5  -4   11.50    4.40
   2   5  -4   11.60    1.50
   2   5  -4   10.60    2.60
   2   5  -4    6.90    3.20
   2   5  -4   10.00    2.00
  -2  -5   4   13.90    2.30
  -2  -5   4   12.30    2.20
   1   5  -4   77.39    4.80
   1   5  -4   75.29    4.40
   1   5  -4   70.79    4.50
   1   5  -4   66.69    4.40
   1   5  -4   67.19    6.00
   1   5  -4   78.59    7.60
   1   5  -4   68.39    4.60
  -1  -5   4   75.29    4.30
  -1  -5   4   75.69    4.20
   0   5  -4 1007.20   40.50
   0   5  -4 1082.09   40.60
   0   5  -4 1071.49   40.80
   0   5  -4 1073.59   40.40
   0   5  -4 1172.18   41.90
   0   5  -4 1047.80   44.10
   0   5  -4 1056.19   41.80
   0  -5   4 1053.29   40.30
   0  -5   4 1044.50   40.20
  -1   5  -4 1376.96   56.49
  -1   5  -4 1494.65   53.39
  -1   5  -4 1337.17   57.49
  -1   5  -4 1434.26   53.19
  -1   5  -4 1488.65   53.79
  -1   5  -4 1348.97   53.29
  -1   5  -4 1432.96   54.09
   1  -5   4 1477.25   53.29
   1  -5   4 1418.26   53.79
   1  -5   4 1385.66   53.09
  -2   5  -4   61.69    4.10
  -2   5  -4   67.99    4.60
  -2   5  -4   58.79    6.90
  -2   5  -4   64.19    6.40
  -2   5  -4   61.69    4.00
  -2   5  -4   63.29    4.20
  -2   5  -4   67.19    4.00
   2  -5   4   54.69    3.80
   2  -5   4   66.69    4.20
  -3   5  -4  122.89    7.00
  -3   5  -4  133.59    7.30
  -3   5  -4  146.89    7.70
  -3   5  -4  128.59    9.30
  -3   5  -4  126.79   10.10
  -3   5  -4  147.79    6.90
   3  -5   4  136.29    7.20
   3  -5   4  135.59    7.00
  -4   5  -4  346.47   19.00
  -4   5  -4  384.46   15.10
  -4   5  -4  360.26   15.80
  -4   5  -4  352.06   15.50
  -4   5  -4  329.77   15.20
  -4   5  -4  339.27   17.40
   4  -5   4  325.77   15.00
   4  -5   4  324.07   15.30
  -5   5  -4  407.16   18.70
  -5   5  -4  372.46   19.20
  -5   5  -4  386.06   17.90
  -5   5  -4  372.36   21.10
  -5   5  -4  410.66   17.70
   5  -5   4  402.26   17.50
  -6   5  -4   15.60    4.20
  -6   5  -4   29.80    6.20
  -6   5  -4   26.80    7.60
  -6   5  -4   15.00    4.50
  -6   5  -4   20.10    4.80
   6  -5   4   18.80    4.00
  -7   5  -4   42.30    9.90
  -7   5  -4   54.29    7.10
  -7   5  -4   40.80    6.70
  -7   5  -4   47.00    6.50
  -7   5  -4   47.20    6.70
   7  -5   4   62.19    7.10
  -8   5  -4  113.99   10.20
  -8   5  -4  119.59    9.70
  -8   5  -4  103.09   12.70
  -8   5  -4  119.29   10.20
   8   4  -4   35.20    8.30
   8   4  -4   31.10   10.60
   8   4  -4   39.10    6.90
   7   4  -4  300.97   17.70
   7   4  -4  306.17   17.00
   7   4  -4  293.87   18.80
   7   4  -4  307.17   16.10
  -7  -4   4  304.67   18.60
   6   4  -4  220.08   12.30
   6   4  -4  225.28   13.20
   6   4  -4  208.68   14.80
   6   4  -4  221.58   14.10
  -6  -4   4  235.18   12.30
   5   4  -4   52.39    7.10
   5   4  -4   66.79    8.50
   5   4  -4   52.09    5.60
   5   4  -4   51.99    6.20
  -5  -4   4   47.70    5.20
   4   4  -4    0.60    3.90
   4   4  -4   -2.00    3.00
   4   4  -4    1.90    3.30
   4   4  -4   -1.20    1.90
   4   4  -4   -0.30    2.60
  -4  -4   4   -1.40    1.80
   3   4  -4  135.39    7.60
   3   4  -4  133.59    8.60
   3   4  -4  124.89    7.60
   3   4  -4  132.29    9.70
   3   4  -4  123.69    7.00
   3   4  -4  136.49    7.30
  -3  -4   4  130.79    7.10
  -3  -4   4  132.99    7.10
   2   4  -4  646.94   25.90
   2   4  -4  646.84   26.30
   2   4  -4  622.04   26.10
   2   4  -4  688.33   24.80
   2   4  -4  662.03   27.40
   2   4  -4  649.34   28.90
  -2  -4   4  652.53   25.80
  -2  -4   4  682.43   26.00
   1   4  -4  125.69    6.40
   1   4  -4  131.49    8.90
   1   4  -4  118.49    6.50
   1   4  -4  129.49    6.30
   1   4  -4  124.19    7.40
   1   4  -4  135.19    6.60
   1   4  -4  131.59    6.40
  -1  -4   4  129.19    6.30
  -1  -4   4  124.29    6.10
   0   4  -4  657.23   28.40
   0   4  -4  644.54   26.40
   0   4  -4  654.23   25.60
   0   4  -4  708.33   26.70
   0   4  -4  679.83   26.10
   0   4  -4  642.84   25.80
   0   4  -4  677.03   25.80
   0  -4   4  657.73   25.70
   0  -4   4  663.03   26.30
   0  -4   4  653.73   25.50
  -1   4  -4  591.84   22.90
  -1   4  -4  614.44   23.40
  -1   4  -4  578.74   23.00
  -1   4  -4  615.74   23.00
  -1   4  -4  558.34   26.10
  -1   4  -4  569.04   25.40
  -1   4  -4  593.54   23.20
   1  -4   4  594.24   23.10
   1  -4   4  600.74   23.10
   1  -4   4  564.74   22.80
  -2   4  -4   59.89    6.30
  -2   4  -4   52.99    3.60
  -2   4  -4   46.40    5.20
  -2   4  -4   53.09    3.90
  -2   4  -4   53.59    3.80
  -2   4  -4   52.99    3.30
  -2   4  -4   51.69    4.20
   2  -4   4   50.09    3.90
   2  -4   4   49.40    3.00
   2  -4   4   48.30    3.60
  -3   4  -4  100.19    8.00
  -3   4  -4   76.39    5.40
  -3   4  -4   82.49    5.00
  -3   4  -4   75.99    5.20
  -3   4  -4   99.19    7.50
  -3   4  -4   82.59    5.70
   3  -4   4   72.79    5.20
  -4   4  -4    9.60    2.90
  -4   4  -4    8.30    2.80
  -4   4  -4    8.90    3.00
   4  -4   4    6.70    2.50
   4  -4   4    5.00    2.60
  -5   4  -4   40.50    5.40
  -5   4  -4   46.60    5.70
  -5   4  -4   46.40    7.90
  -5   4  -4   50.29    7.10
  -5   4  -4   46.50    5.50
   5  -4   4   38.10    5.20
   5  -4   4   36.60    4.60
  -6   4  -4  118.19    9.10
  -6   4  -4  108.19   10.80
  -6   4  -4   85.09    7.60
  -6   4  -4   71.59    7.90
  -6   4  -4   89.99    7.80
   6  -4   4   72.79    7.40
  -7   4  -4   -4.00    5.60
  -7   4  -4   -0.90    3.70
  -7   4  -4   -2.50    3.60
  -7   4  -4   -1.30    4.00
   7  -4   4   -5.90    3.00
  -8   4  -4   17.50    5.30
  -8   4  -4   29.20    6.00
  -8   4  -4   43.00   10.70
  -8   4  -4   28.80    5.40
   8  -4   4   35.20    6.30
   8   3  -4    4.50    4.80
   8   3  -4    6.40    3.80
   8   3  -4   -3.10    4.20
   8   3  -4    5.90    4.20
  -8  -3   4    8.80    3.90
   7   3  -4  224.18   15.10
   7   3  -4  238.28   13.20
   7   3  -4  217.68   14.10
   7   3  -4  227.38   13.90
  -7  -3   4  201.98   12.30
  -7  -3   4  241.38   13.00
   6   3  -4  174.98   12.30
   6   3  -4  181.98   10.60
   6   3  -4  181.98   11.90
   6   3  -4  176.18   11.40
  -6  -3   4  184.48   10.60
  -6  -3   4  171.88   10.30
   5   3  -4  154.28   10.30
   5   3  -4  163.58    9.90
   5   3  -4  151.68    9.10
   5   3  -4  155.18   11.20
  -5  -3   4  147.59    8.90
  -5  -3   4  150.98    9.30
  -5  -3   4  159.58    9.00
   4   3  -4   45.90    6.60
   4   3  -4   45.40    4.30
   4   3  -4   41.70    4.40
   4   3  -4   39.30    5.40
   4   3  -4   43.30    4.90
  -4  -3   4   38.10    4.70
  -4  -3   4   41.80    4.30
  -4  -3   4   44.10    4.30
   3   3  -4  175.98   10.80
   3   3  -4  186.48    9.00
   3   3  -4  181.88   10.00
   3   3  -4  173.08    9.20
  -3  -3   4  183.38    8.90
  -3  -3   4  183.88    8.90
  -3  -3   4  186.68    9.60
   2   3  -4   17.70    2.50
   2   3  -4   13.10    1.70
   2   3  -4   18.50    2.60
   2   3  -4   12.80    3.00
   2   3  -4   16.60    2.50
   2   3  -4   19.40    4.10
   2   3  -4   11.90    2.30
  -2  -3   4   19.00    2.50
   1   3  -4   -0.10    1.30
   1   3  -4    0.00    1.40
   1   3  -4    0.40    1.40
   1   3  -4   -0.80    1.40
   1   3  -4    0.90    2.50
   1   3  -4    0.10    2.30
   1   3  -4    1.10    1.40
  -1  -3   4   -0.50    1.80
  -1  -3   4    0.70    2.10
  -1  -3   4   -0.50    1.30
   0   3  -4  101.99    7.10
   0   3  -4  114.39    5.50
   0   3  -4   93.59    5.50
   0   3  -4  108.09    6.20
   0   3  -4   95.89    5.30
   0   3  -4  100.29    5.30
   0   3  -4  101.59    5.80
   0  -3   4   93.79    6.40
   0  -3   4   99.69    5.50
   0  -3   4  100.69    5.20
   0  -3   4  107.09    5.40
   0  -3   4  102.39    5.20
  -1   3  -4  224.08   12.00
  -1   3  -4  229.38    9.80
  -1   3  -4  212.38   11.50
  -1   3  -4  233.28   11.00
  -1   3  -4  222.88   10.10
  -1   3  -4  222.68    9.70
  -1   3  -4  220.98    9.60
  -1   3  -4  222.38    9.70
   1  -3   4  211.48    9.60
   1  -3   4  208.18   12.10
   1  -3   4  240.58   10.80
   1  -3   4  212.98    9.50
  -2   3  -4   10.80    3.50
  -2   3  -4    9.50    2.10
  -2   3  -4    8.90    1.80
  -2   3  -4    8.90    2.40
  -2   3  -4    8.30    2.00
  -2   3  -4    9.50    3.20
   2  -3   4    8.80    2.10
   2  -3   4    9.30    1.50
   2  -3   4    8.00    2.20
  -3   3  -4  211.78   10.30
  -3   3  -4  212.98   11.90
  -3   3  -4  237.98   10.30
  -3   3  -4  206.18   10.50
  -3   3  -4  238.28   11.00
  -3   3  -4  218.78   12.60
   3  -3   4  212.88   10.30
   3  -3   4  228.58   10.80
   3  -3   4  224.68    8.80
  -4   3  -4  151.98    9.60
  -4   3  -4  149.79   10.30
  -4   3  -4  130.59    8.20
  -4   3  -4  129.49    7.80
  -4   3  -4  124.39    7.90
   4  -3   4  137.89    8.30
   4  -3   4  125.19    5.50
   4  -3   4  121.39    7.70
  -5   3  -4  190.18   10.60
  -5   3  -4  186.78   10.10
  -5   3  -4  192.38   10.80
  -5   3  -4  173.48   11.50
  -5   3  -4  178.68   12.90
   5  -3   4  176.78   10.70
   5  -3   4  185.78    7.50
   5  -3   4  183.88   10.40
  -6   3  -4   23.00    5.30
  -6   3  -4   38.80    6.10
  -6   3  -4   52.09    7.10
  -6   3  -4   32.00    4.80
  -6   3  -4   46.90    9.40
   6  -3   4   31.80    5.20
  -7   3  -4   16.50    5.30
  -7   3  -4    9.30    3.70
  -7   3  -4   13.90    7.30
  -7   3  -4    7.60    4.60
   7  -3   4    7.00    4.30
  -8   3  -4   13.50    8.20
  -8   3  -4    2.70    4.80
   8  -3   4    8.70    4.70
   9   2  -4   43.10    7.50
   9   2  -4   49.80    7.90
  -9  -2   4   41.30    6.10
   8   2  -4   12.20    5.20
   8   2  -4   24.00    5.40
   8   2  -4   17.00    4.90
   8   2  -4   18.40    5.40
  -8  -2   4   17.20    4.70
  -8  -2   4   19.60    4.90
   7   2  -4    8.20    4.50
   7   2  -4    6.90    4.60
   7   2  -4    9.40    4.20
   7   2  -4    6.70    3.90
  -7  -2   4    7.90    3.40
  -7  -2   4    6.50    3.90
   6   2  -4   57.39    6.30
   6   2  -4   65.69    6.90
   6   2  -4   54.59    6.50
   6   2  -4   66.89    7.20
  -6  -2   4   62.49    6.20
  -6  -2   4   59.59    6.00
  -6  -2   4   67.49    6.40
  -6  -2   4   52.09    3.90
   5   2  -4  117.39    8.80
   5   2  -4  124.69    7.70
   5   2  -4  130.89    7.80
   5   2  -4  104.49    8.10
   5   2  -4  119.59    8.10
  -5  -2   4  111.49    7.40
  -5  -2   4  118.59    7.60
  -5  -2   4  107.69    5.50
  -5  -2   4  127.39    7.90
   4   2  -4  364.36   16.40
   4   2  -4  341.97   15.80
   4   2  -4  358.76   16.80
   4   2  -4  368.16   17.40
   4   2  -4  366.16   16.20
  -4  -2   4  363.66   16.00
  -4  -2   4  377.46   16.20
  -4  -2   4  384.66   14.40
  -4  -2   4  358.36   16.30
   3   2  -4  413.46   18.80
   3   2  -4  407.36   17.40
   3   2  -4  425.76   18.40
   3   2  -4  405.46   17.80
  -3  -2   4  453.05   16.60
  -3  -2   4  433.76   18.00
  -3  -2   4  411.56   17.60
  -3  -2   4  411.36   17.90
  -3  -2   4  413.86   17.50
   2   2  -4    7.80    1.90
   2   2  -4    7.90    2.10
   2   2  -4    8.70    2.30
   2   2  -4    8.00    3.00
   2   2  -4    7.80    2.10
   2   2  -4    8.40    3.20
   2   2  -4    7.40    1.70
   2   2  -4    9.10    2.30
  -2  -2   4    8.80    2.20
  -2  -2   4    3.70    1.80
  -2  -2   4    4.10    1.70
  -2  -2   4    8.40    2.00
  -2  -2   4    8.40    2.90
  -2  -2   4    7.10    2.10
  -2  -2   4    8.20    2.30
  -2  -2   4    5.20    2.20
   1   2  -4  598.94   24.10
   1   2  -4  594.84   25.60
   1   2  -4  577.24   24.20
   1   2  -4  611.14   24.70
   1   2  -4  616.34   24.40
   1   2  -4  660.83   24.80
   1   2  -4  642.74   24.30
   1   2  -4  637.04   24.20
  -1  -2   4  606.54   24.10
  -1  -2   4  592.94   24.20
  -1  -2   4  631.94   25.60
  -1  -2   4  650.63   24.60
  -1  -2   4  600.84   24.00
  -1  -2   4  618.64   24.30
  -1  -2   4  653.73   24.70
   0   2  -4    5.70    2.20
   0   2  -4    8.50    2.00
   0   2  -4    9.50    2.30
   0   2  -4    8.20    1.70
   0   2  -4   14.00    2.00
   0  -2   4   15.40    2.00
   0  -2   4   20.60    2.30
   0  -2   4   16.60    3.20
   0  -2   4    8.20    2.10
   0  -2   4    8.50    2.70
   0  -2   4   14.10    2.00
   0  -2   4   15.10    2.40
  -1   2  -4    6.20    1.80
  -1   2  -4    0.70    2.00
  -1   2  -4    3.90    1.60
  -1   2  -4    9.90    2.70
  -1   2  -4   10.00    3.00
  -1   2  -4    4.50    2.00
  -1   2  -4    1.60    1.60
   1  -2   4    3.70    1.70
   1  -2   4    3.80    1.50
   1  -2   4    4.30    2.50
   1  -2   4    1.40    1.70
   1  -2   4    5.70    1.60
   1  -2   4   -0.10    2.40
   1  -2   4    7.50    2.60
   1  -2   4    5.50    2.00
  -2   2  -4   92.49    5.30
  -2   2  -4   94.79    5.70
  -2   2  -4   89.09    5.40
  -2   2  -4   98.79    6.80
  -2   2  -4  111.39    7.50
  -2   2  -4   98.69    6.00
   2  -2   4   81.29    5.30
   2  -2   4   96.19    5.10
   2  -2   4   92.59    5.90
   2  -2   4   85.09    6.70
   2  -2   4   97.39    5.40
  -3   2  -4  752.62   31.70
  -3   2  -4  714.03   29.50
  -3   2  -4  764.82   30.00
  -3   2  -4  736.13   29.40
  -3   2  -4  800.82   31.40
   3  -2   4  706.43   31.10
   3  -2   4  725.63   29.30
   3  -2   4  707.63   29.80
  -4   2  -4  146.19    8.50
  -4   2  -4  161.78   10.80
  -4   2  -4  123.49    7.90
  -4   2  -4  123.69    8.00
   4  -2   4  120.19    6.30
   4  -2   4  126.19    7.90
   4  -2   4  120.89    8.30
  -5   2  -4    6.30    4.40
  -5   2  -4    3.60    3.20
  -5   2  -4    1.60    3.30
  -5   2  -4    2.90    2.60
  -5   2  -4    7.10    4.90
   5  -2   4    3.40    3.40
   5  -2   4    2.00    2.00
   5  -2   4    2.00    2.90
  -6   2  -4   59.79   10.30
  -6   2  -4   48.00    6.40
  -6   2  -4   46.60    5.20
  -6   2  -4   49.00    6.10
   6  -2   4   54.39    6.40
   6  -2   4   52.79    7.50
  -7   2  -4  243.18   18.50
  -7   2  -4  257.87   14.90
   7  -2   4  255.57   14.70
  -8   2  -4   18.90    6.00
  -8   2  -4   27.70    9.20
   8  -2   4   20.70    6.10
   9   1  -4   15.20    5.40
   9   1  -4   15.80    6.00
  -9  -1   4   16.10    5.10
  -9  -1   4   11.50    4.70
   8   1  -4  121.09    9.80
   8   1  -4  129.59   10.40
   8   1  -4  125.89    9.70
   8   1  -4  114.19   10.30
  -8  -1   4  132.49    9.80
  -8  -1   4  123.29    9.40
   7   1  -4   33.50    5.70
   7   1  -4   28.80    5.60
   7   1  -4   30.90    5.50
   7   1  -4   36.70    5.80
  -7  -1   4   24.80    3.70
  -7  -1   4   33.10    5.60
  -7  -1   4   30.30    5.30
  -7  -1   4   33.70    5.60
   6   1  -4  127.39    8.30
   6   1  -4  122.09    8.60
   6   1  -4  116.79    8.10
   6   1  -4  103.69    7.90
   6   1  -4  112.29    8.80
  -6  -1   4  106.79    7.90
  -6  -1   4  114.59    8.20
  -6  -1   4  116.29    6.60
  -6  -1   4  109.39    8.10
   5   1  -4  471.75   20.60
   5   1  -4  456.95   20.60
   5   1  -4  454.95   20.70
   5   1  -4  453.45   20.00
   5   1  -4  482.75   20.40
  -5  -1   4  484.05   19.00
  -5  -1   4  463.85   20.10
  -5  -1   4  465.15   20.30
  -5  -1   4  467.85   20.40
   4   1  -4  815.52   32.70
   4   1  -4  804.12   33.30
   4   1  -4  822.62   33.50
   4   1  -4  807.92   33.10
   4   1  -4  857.71   33.10
  -4  -1   4  828.62   33.20
  -4  -1   4  866.91   32.10
  -4  -1   4  812.22   32.80
  -4  -1   4  829.02   33.00
  -4  -1   4  851.81   33.20
   3   1  -4   20.50    3.60
   3   1  -4   15.40    3.40
   3   1  -4   18.00    2.70
   3   1  -4   19.70    2.90
   3   1  -4   19.50    2.60
   3   1  -4   18.10    2.80
   3   1  -4   21.40    3.50
   3   1  -4   25.70    3.50
  -3  -1   4   23.10    3.20
  -3  -1   4   18.70    2.70
  -3  -1   4   18.60    3.20
  -3  -1   4   23.00    2.70
  -3  -1   4   15.60    2.60
   2   1  -4  318.47   13.30
   2   1  -4  310.77   13.40
   2   1  -4  306.07   13.50
   2   1  -4  328.17   14.20
   2   1  -4  331.07   13.70
   2   1  -4  310.57   14.10
   2   1  -4  314.67   13.30
   2   1  -4  307.87   13.30
  -2  -1   4  317.37   14.10
  -2  -1   4  307.47   13.30
  -2  -1   4  306.27   13.40
  -2  -1   4  318.97   13.90
  -2  -1   4  317.37   13.20
  -2  -1   4  331.37   13.90
  -2  -1   4  330.77   13.50
  -2  -1   4  315.57   13.50
   1   1  -4  673.23   26.50
   1   1  -4  663.93   27.00
   1   1  -4  667.43   26.60
   1   1  -4  697.83   26.80
   1   1  -4  692.53   26.40
   1   1  -4  693.63   26.80
   1   1  -4  688.93   27.60
   1   1  -4  652.13   26.30
  -1  -1   4  692.63   26.90
  -1  -1   4  694.23   26.40
  -1  -1   4  690.23   26.90
  -1  -1   4  702.23   27.50
  -1  -1   4  674.23   26.40
  -1  -1   4  682.53   26.70
  -1  -1   4  686.53   26.50
  -1  -1   4  673.23   26.80
   0   1  -4 2175.98   87.99
   0   1  -4 2286.87   86.69
   0   1  -4 2432.66   87.09
   0   1  -4 2259.27   86.59
   0   1  -4 2237.58   87.39
   0   1  -4 2413.16   86.89
   0   1  -4 2348.36   86.69
   0   1  -4 2447.66   87.49
   0  -1   4 2336.57   86.69
   0  -1   4 2427.36   86.69
   0  -1   4 2338.77   86.99
   0  -1   4 2392.06   87.09
   0  -1   4 2335.97   87.59
   0  -1   4 2270.27   86.59
   0  -1   4 2288.37   87.99
  -1   1  -4  213.28   10.50
  -1   1  -4  224.48    9.50
  -1   1  -4  207.68   10.70
  -1   1  -4  206.98   10.90
  -1   1  -4  203.78    9.50
  -1   1  -4  215.78    9.60
  -1   1  -4  194.98    9.40
  -1   1  -4  226.58   10.00
   1  -1   4  218.28   10.50
   1  -1   4  225.18    9.60
   1  -1   4  217.88    9.90
   1  -1   4  186.08   10.60
   1  -1   4  200.38    9.50
   1  -1   4  210.28   10.00
   1  -1   4  226.78    9.50
   1  -1   4  224.78   11.20
  -2   1  -4  413.06   17.60
  -2   1  -4  417.06   19.00
  -2   1  -4  419.06   17.40
  -2   1  -4  400.26   18.80
  -2   1  -4  441.86   18.00
   2  -1   4  436.86   17.50
   2  -1   4  399.46   17.40
   2  -1   4  427.46   18.00
   2  -1   4  447.16   19.00
   2  -1   4  413.16   18.80
  -3   1  -4 1059.89   43.40
  -3   1  -4 1085.29   41.90
  -3   1  -4 1119.49   42.30
  -3   1  -4 1070.69   41.70
  -3   1  -4 1051.89   43.80
   3  -1   4 1076.29   42.30
   3  -1   4 1029.90   43.00
   3  -1   4 1075.69   41.70
  -4   1  -4  745.63   30.60
  -4   1  -4  795.92   31.10
  -4   1  -4  687.13   31.90
  -4   1  -4  760.12   29.40
  -4   1  -4  734.73   33.40
   4  -1   4  760.22   32.40
   4  -1   4  752.92   29.70
   4  -1   4  751.92   30.70
   4  -1   4  767.72   31.40
  -5   1  -4   87.39    5.60
  -5   1  -4   84.99    7.40
  -5   1  -4   75.99    9.40
  -5   1  -4   88.39    7.50
   5  -1   4   85.19    6.00
   5  -1   4   89.39    7.40
   5  -1   4   89.49    8.10
  -6   1  -4    7.60    4.40
  -6   1  -4   19.20    7.60
  -6   1  -4   17.10    5.30
   6  -1   4    9.00    4.50
   6  -1   4   13.80    3.50
   6  -1   4   12.30    4.70
  -7   1  -4   59.49   11.40
  -7   1  -4   69.69    8.40
   7  -1   4   77.19    8.90
  -8   1  -4   15.60    5.30
  -8   1  -4   20.10    9.20
   8  -1   4   21.40    6.20
  10   0  -4   35.50    6.60
 -10   0   4   32.00    6.40
   9   0  -4   32.60    7.20
   9   0  -4   57.29    7.80
  -9   0   4   50.19    7.40
  -9   0   4   60.79    8.10
   8   0  -4   56.39    7.50
   8   0  -4   68.19    9.70
   8   0  -4   79.19    7.90
  -8   0   4   61.89    9.70
  -8   0   4   75.79    8.30
  -8   0   4   70.89    6.60
  -8   0   4   78.89    7.70
  -8   0   4   61.59    7.50
   7   0  -4   47.10    6.70
   7   0  -4   38.60    5.70
   7   0  -4   39.60    4.90
   7   0  -4   48.20    6.00
  -7   0   4   47.20    6.50
  -7   0   4   43.30    5.80
  -7   0   4   45.30    5.90
  -7   0   4   50.59    9.60
  -7   0   4   41.20    5.10
   6   0  -4   74.19    6.60
   6   0  -4   77.49    6.50
   6   0  -4   76.69    5.80
   6   0  -4   74.09    6.80
  -6   0   4   81.79    6.70
  -6   0   4   72.49    6.40
  -6   0   4   76.89    6.00
  -6   0   4   81.59    8.70
  -6   0   4   76.99    6.50
  -6   0   4   85.19    6.70
   5   0  -4  239.48   12.00
   5   0  -4  236.38   11.30
   5   0  -4  237.88   11.50
   5   0  -4  244.58   11.00
   5   0  -4  225.88   11.60
  -5   0   4  224.98   11.60
  -5   0   4  217.18   11.20
  -5   0   4  226.78   11.50
  -5   0   4  228.78   11.60
  -5   0   4  230.48   11.10
   4   0  -4  441.36   17.80
   4   0  -4  433.56   18.10
   4   0  -4  427.76   18.60
   4   0  -4  421.36   18.10
   4   0  -4  417.16   17.80
   4   0  -4  425.26   19.20
  -4   0   4  420.06   18.10
  -4   0   4  422.06   17.90
  -4   0   4  415.86   18.30
  -4   0   4  429.06   17.80
  -4   0   4  421.46   18.20
   3   0  -4  531.35   21.90
   3   0  -4  545.55   21.90
   3   0  -4  512.75   21.70
   3   0  -4  555.64   22.00
   3   0  -4  545.15   22.70
   3   0  -4  586.64   22.20
   3   0  -4  524.55   21.90
   3   0  -4  549.15   22.70
  -3   0   4  542.55   22.00
  -3   0   4  535.05   21.70
  -3   0   4  523.45   21.70
  -3   0   4  534.05   22.20
  -3   0   4  550.24   22.10
  -3   0   4  557.34   21.90
  -3   0   4  542.55   22.00
   2   0  -4  419.66   17.40
   2   0  -4  457.75   17.90
   2   0  -4  444.76   18.00
   2   0  -4  429.46   18.50
   2   0  -4  414.26   17.60
   2   0  -4  449.86   17.60
   2   0  -4  448.86   17.60
   2   0  -4  406.36   18.00
  -2   0   4  425.56   17.50
  -2   0   4  429.86   17.40
  -2   0   4  420.56   17.80
  -2   0   4  443.96   18.10
  -2   0   4  442.66   17.80
  -2   0   4  463.75   18.30
  -2   0   4  405.26   17.50
  -2   0   4  440.26   18.00
   1   0  -4 1026.00   39.00
   1   0  -4  980.30   38.70
   1   0  -4 1159.38   40.20
   1   0  -4  970.50   39.40
   1   0  -4  978.60   38.80
   1   0  -4 1045.90   38.70
   1   0  -4 1071.29   38.90
   1   0  -4  973.90   39.00
  -1   0   4  998.40   39.00
  -1   0   4 1103.19   39.70
  -1   0   4 1017.10   38.90
  -1   0   4  989.50   39.10
  -1   0   4  970.60   38.70
  -1   0   4  940.91   39.40
  -1   0   4 1121.89   40.10
  -1   0   4 1018.40   38.80
   0   0  -4    1.30    1.60
   0   0  -4    0.60    1.40
   0   0  -4    2.80    1.80
   0   0  -4    0.10    1.20
   0   0  -4    0.30    1.50
   0   0  -4    1.20    2.20
   0   0  -4    1.70    2.30
   0   0  -4    1.10    1.50
   0   0   4    1.00    1.60
   0   0   4    1.00    1.40
   0   0   4    2.90    2.70
   0   0   4    0.60    1.40
   0   0   4    0.30    1.40
   0   0   4    4.50    2.40
   0   0   4    2.70    1.90
   0   0   4    2.70    2.50
  -1   0  -4  502.05   20.60
  -1   0  -4  526.45   20.30
  -1   0  -4  482.75   19.30
  -1   0  -4  487.05   19.80
  -1   0  -4  508.95   21.60
  -1   0  -4  474.75   19.70
   1   0   4  522.85   20.60
   1   0   4  490.95   19.80
   1   0   4  457.85   20.70
   1   0   4  490.05   19.70
   1   0   4  484.55   20.30
   1   0   4  472.75   19.70
  -2   0  -4    0.80    1.80
  -2   0  -4    7.40    2.90
  -2   0  -4    1.30    1.10
  -2   0  -4    1.60    1.90
  -2   0  -4   -1.00    1.90
  -2   0  -4    6.60    2.80
   2   0   4    0.80    2.70
   2   0   4    3.80    2.10
   2   0   4    2.00    1.70
   2   0   4    2.10    2.20
   2   0   4    1.90    1.60
  -3   0  -4  200.98   10.30
  -3   0  -4  198.98   10.10
  -3   0  -4  204.48   12.10
   3   0   4  207.58   10.00
   3   0   4  200.88   10.80
   3   0   4  201.48   10.30
   3   0   4  192.08   11.30
  -4   0  -4  202.08   10.80
  -4   0  -4  192.68   13.10
  -4   0  -4  190.78   10.80
  -4   0  -4  188.88    8.50
   4   0   4  204.48   12.20
   4   0   4  193.98   11.30
   4   0   4  202.48   10.30
   4   0   4  195.38   10.80
  -5   0  -4    6.40    3.40
  -5   0  -4    3.00    3.60
  -5   0  -4   11.30    6.10
   5   0   4    4.80    3.30
   5   0   4    5.70    3.90
   5   0   4    6.20    4.10
  -6   0  -4   10.80    6.70
  -6   0  -4    6.50    4.10
   6   0   4    3.50    4.20
   6   0   4    0.80    3.30
   6   0   4    2.90    4.20
  -7   0  -4   33.90    6.50
  -7   0  -4   53.69   11.20
   7   0   4   40.40    7.20
  10  -1  -4  130.09   11.70
 -10   1   4  204.48   13.20
 -10   1   4  151.28   16.30
 -10   1   4  141.99   11.60
   9  -1  -4   12.00    4.60
   9  -1  -4    0.80    4.70
  -9   1   4   12.10    5.10
  -9   1   4    8.80    5.40
  -9   1   4    1.50    4.40
  -9   1   4   17.60    5.30
  -9   1   4    9.80    7.10
   8  -1  -4  102.79    8.80
   8  -1  -4   72.69    7.80
  -8   1   4  105.09   11.60
  -8   1   4   97.59    8.60
  -8   1   4   89.09    8.50
  -8   1   4   86.99    7.80
  -8   1   4   96.29    8.60
   7  -1  -4  196.08   11.00
   7  -1  -4  177.98    9.00
   7  -1  -4  211.18   11.50
   7  -1  -4  179.08   11.40
  -7   1   4  204.58   11.70
  -7   1   4  184.88   11.00
  -7   1   4  187.88   14.00
  -7   1   4  176.58   10.90
  -7   1   4  180.18   11.20
   6  -1  -4  104.99    7.40
   6  -1  -4  108.79    8.20
   6  -1  -4  117.59    5.90
   6  -1  -4  103.49    7.40
  -6   1   4  106.29    7.70
  -6   1   4   99.49    7.70
  -6   1   4  108.89    7.60
  -6   1   4  133.39   10.10
  -6   1   4   98.79    7.50
  -6   1   4   91.99    7.20
   5  -1  -4   39.30    4.20
   4  -1  -4  240.08   11.10
   4  -1  -4  241.78   11.90
   4  -1  -4  283.57   12.10
   4  -1  -4  224.58   10.80
  -4   1   4  230.88   11.50
  -4   1   4  216.78   10.80
  -4   1   4  218.78   11.10
  -4   1   4  262.87   12.30
  -4   1   4  227.38   11.20
  -4   1   4  241.58   11.70
  -4   1   4  230.78   10.90
   3  -1  -4  699.23   28.40
   3  -1  -4  643.24   27.60
   3  -1  -4  719.63   27.70
   3  -1  -4  750.62   27.80
   3  -1  -4  747.63   27.60
   3  -1  -4  680.63   27.50
   3  -1  -4  684.43   28.60
  -3   1   4  683.73   27.90
  -3   1   4  670.13   28.30
  -3   1   4  739.13   27.50
  -3   1   4  723.43   27.60
  -3   1   4  709.23   28.20
  -3   1   4  712.53   27.90
  -3   1   4  700.93   27.60
   2  -1  -4  152.48    8.10
   2  -1  -4  158.18    7.60
   2  -1  -4  156.68    7.40
   2  -1  -4  143.49    7.90
   2  -1  -4  157.38    7.40
   2  -1  -4  152.58    7.30
   2  -1  -4  162.18    7.50
  -2   1   4  152.48    8.30
  -2   1   4  163.98    8.10
  -2   1   4  151.68    7.60
  -2   1   4  151.98    7.30
  -2   1   4  154.68    7.50
  -2   1   4  169.88    8.00
  -2   1   4  153.88    7.30
  -2   1   4  159.98    8.50
   1  -1  -4  342.57   14.30
   1  -1  -4  336.77   14.00
   1  -1  -4  351.16   14.20
   1  -1  -4  316.87   15.00
   1  -1  -4  341.87   14.00
   1  -1  -4  347.57   14.00
   1  -1  -4  358.06   15.80
  -1   1   4  338.87   14.20
  -1   1   4  343.87   14.10
  -1   1   4  356.66   14.10
  -1   1   4  324.77   14.40
  -1   1   4  364.46   15.50
  -1   1   4  338.07   15.30
  -1   1   4  340.87   14.20
  -1   1   4  355.26   15.50
   0  -1  -4  733.63   32.30
   0  -1  -4  802.52   30.60
   0  -1  -4  786.02   31.00
   0  -1  -4  835.92   31.30
   0  -1  -4  817.72   31.00
   0  -1  -4  799.02   30.90
   0   1   4  805.92   30.70
   0   1   4  814.72   31.10
   0   1   4  795.12   31.40
   0   1   4  761.32   32.00
   0   1   4  855.31   31.00
   0   1   4  806.82   31.00
   0   1   4  834.22   30.80
  -1  -1  -4  354.56   14.40
  -1  -1  -4  368.16   15.40
  -1  -1  -4  370.76   15.50
  -1  -1  -4  360.66   16.30
   1   1   4  383.26   16.10
   1   1   4  393.16   15.60
   1   1   4  365.86   16.70
   1   1   4  388.66   15.40
   1   1   4  358.26   16.00
   1   1   4  363.56   15.50
  -2  -1  -4  369.96   16.90
  -2  -1  -4  309.77   13.30
  -2  -1  -4  341.37   15.00
  -2  -1  -4  326.57   15.10
   2   1   4  358.86   16.40
   2   1   4  344.87   15.10
   2   1   4  391.46   15.30
   2   1   4  341.67   15.70
  -3  -1  -4   49.50    5.40
  -3  -1  -4   50.79    6.40
  -3  -1  -4   44.40    5.10
   3   1   4   45.90    6.10
   3   1   4   34.00    4.40
   3   1   4   43.80    5.50
   3   1   4   47.20    4.40
  -4  -1  -4    3.80    3.10
  -4  -1  -4    9.30    5.10
  -4  -1  -4    2.60    3.90
   4   1   4    1.70    3.40
   4   1   4   -4.30    3.00
   4   1   4    3.00    2.90
   4   1   4   -0.50    3.70
  -5  -1  -4   -2.70    3.20
  -5  -1  -4    1.20    5.30
   5   1   4    0.00    3.50
   5   1   4    1.20    4.70
   5   1   4    5.80    3.70
   5   1   4   -1.80    3.60
  -6  -1  -4   63.49   10.10
  -6  -1  -4   49.20    7.10
   6   1   4   55.29    6.90
   6   1   4   36.80    6.20
   6   1   4   39.30    6.70
  -7  -1  -4   47.20    6.80
  -7  -1  -4   64.09   11.30
  10  -2  -4  178.58   11.90
 -10   2   4  135.39   15.20
 -10   2   4  119.89   11.40
 -10   2   4  185.08   12.60
   9  -2  -4    8.50    4.40
   9  -2  -4   -0.60    4.70
  -9   2   4    5.10    6.10
  -9   2   4   -1.80    4.00
  -9   2   4    5.50    4.30
  -9   2   4   -0.80    4.30
  -9   2   4    5.60    4.40
   8  -2  -4   49.40    6.00
   8  -2  -4   35.30    6.10
  -8   2   4   48.80    6.80
  -8   2   4   31.20    5.90
  -8   2   4   45.20    6.60
  -8   2   4   50.89    6.90
  -8   2   4   49.40    8.90
   7  -2  -4   22.60    4.10
   7  -2  -4   25.70    4.90
   7  -2  -4   20.40    5.10
  -7   2   4   27.50    5.50
  -7   2   4   31.90    7.00
  -7   2   4   35.00    5.40
  -7   2   4   26.70    5.00
  -7   2   4   20.80    4.90
   6  -2  -4  237.18   13.20
   6  -2  -4  257.37   12.30
   6  -2  -4  249.78   12.40
  -6   2   4  261.57   12.90
  -6   2   4  244.48   13.20
  -6   2   4  251.67   12.70
  -6   2   4  246.48   12.30
  -6   2   4  250.27   13.00
  -6   2   4  244.78   14.30
   5  -2  -4    6.90    2.20
   5  -2  -4    8.20    3.20
   5  -2  -4    5.90    2.20
   5  -2  -4   11.90    3.00
  -5   2   4   11.80    3.50
  -5   2   4    5.60    2.10
  -5   2   4    4.20    2.90
  -5   2   4    4.30    2.30
  -5   2   4    3.70    2.00
  -5   2   4    5.70    2.90
  -5   2   4    5.90    2.00
   4  -2  -4  252.47   13.40
   4  -2  -4  261.57   11.60
   4  -2  -4  282.27   12.10
  -4   2   4  264.77   13.10
  -4   2   4  269.37   12.60
  -4   2   4  280.87   12.60
  -4   2   4  267.87   10.70
  -4   2   4  243.58   12.00
  -4   2   4  249.68   12.00
  -4   2   4  254.37   11.70
  -4   2   4  260.57   11.70
   3  -2  -4   40.60    3.40
   3  -2  -4   44.40    2.90
  -3   2   4   39.60    3.70
  -3   2   4   41.70    4.00
  -3   2   4   37.90    3.50
  -3   2   4   39.80    3.30
  -3   2   4   42.70    4.50
  -3   2   4   37.90    3.50
  -3   2   4   50.89    3.60
  -3   2   4   46.20    3.20
   2  -2  -4  145.89    7.10
   2  -2  -4  131.79    6.60
  -2   2   4  140.99    6.90
  -2   2   4  140.19    7.80
  -2   2   4  137.39    7.10
  -2   2   4  146.59    8.40
  -2   2   4  144.29    6.80
  -2   2   4  136.19    6.80
  -2   2   4  145.99    7.30
   1  -2  -4  290.67   12.30
   1  -2  -4  291.87   12.20
   1  -2  -4  311.67   12.90
  -1   2   4  297.37   12.30
  -1   2   4  292.47   12.40
  -1   2   4  279.57   12.70
  -1   2   4  278.57   13.80
  -1   2   4  334.67   14.30
  -1   2   4  285.57   12.40
  -1   2   4  294.07   12.30
   0  -2  -4   54.19    3.20
   0  -2  -4   51.59    3.70
   0   2   4   57.19    3.70
   0   2   4   51.69    3.50
   0   2   4   53.19    4.30
   0   2   4   51.99    3.90
   0   2   4   49.30    4.80
   0   2   4   54.39    3.30
   0   2   4   50.69    3.60
  -1  -2  -4  882.91   35.00
   1   2   4  894.41   36.50
   1   2   4  931.11   35.20
   1   2   4  883.41   35.70
   1   2   4  910.01   35.90
   1   2   4  876.11   35.10
   1   2   4  946.01   35.00
  -2  -2  -4  330.17   14.70
  -2  -2  -4  320.87   16.50
  -2  -2  -4  340.67   16.20
   2   2   4  320.17   15.40
   2   2   4  345.87   14.80
   2   2   4  328.57   14.90
   2   2   4  335.97   16.10
  -3  -2  -4   41.20    6.70
  -3  -2  -4   38.50    4.60
   3   2   4   38.80    5.40
   3   2   4   34.30    4.80
   3   2   4   37.80    5.80
   3   2   4   38.20    5.50
  -4  -2  -4   10.80    3.70
  -4  -2  -4    9.50    5.30
   4   2   4    9.90    4.50
   4   2   4    5.60    4.00
   4   2   4    5.80    3.80
   4   2   4    5.40    3.40
  -5  -2  -4  292.37   19.10
  -5  -2  -4  322.27   15.70
   5   2   4  285.97   16.40
   5   2   4  297.77   16.80
   5   2   4  287.77   15.70
   5   2   4  294.27   16.10
   6   2   4  600.64   29.30
   6   2   4  635.84   28.70
   6   2   4  638.54   28.70
  10  -3  -4   94.29    8.80
 -10   3   4   71.49    8.90
 -10   3   4   62.39   11.30
 -10   3   4  104.09    9.80
 -10   3   4   52.89    8.60
   9  -3  -4   88.49    9.30
   9  -3  -4  134.79    9.50
  -9   3   4   90.59    9.30
  -9   3   4  119.99    9.60
  -9   3   4  130.09   10.80
  -9   3   4  103.19   12.20
  -9   3   4  127.19   10.30
   8  -3  -4  234.18   13.90
   8  -3  -4  265.27   13.30
  -8   3   4  244.08   14.70
  -8   3   4  236.88   14.50
  -8   3   4  230.48   16.40
  -8   3   4  266.27   14.40
  -8   3   4  262.07   13.80
   7  -3  -4  216.98   13.10
   7  -3  -4  230.38   12.00
  -7   3   4  242.28   13.00
  -7   3   4  233.18   12.30
  -7   3   4  240.58   14.90
  -7   3   4  238.78   13.90
  -7   3   4  228.88   13.40
   6  -3  -4  389.46   17.00
  -6   3   4  389.16   17.60
  -6   3   4  392.66   18.40
  -6   3   4  391.26   19.10
  -6   3   4  376.56   17.10
  -6   3   4  398.26   19.40
  -6   3   4  362.76   18.50
   5  -3  -4    3.20    1.90
   5  -3  -4    4.60    1.90
  -5   3   4    0.40    2.20
  -5   3   4    2.60    1.90
  -5   3   4   10.30    3.10
  -5   3   4    0.90    1.50
  -5   3   4    1.10    2.70
  -5   3   4   -0.20    2.50
  -5   3   4    2.30    2.00
   4  -3  -4  367.16   15.60
   4  -3  -4  365.76   15.30
   4  -3  -4  375.36   15.20
  -4   3   4  356.66   15.80
  -4   3   4  354.26   15.70
  -4   3   4  380.66   16.60
  -4   3   4  371.96   17.50
  -4   3   4  364.86   15.50
  -4   3   4  362.06   15.90
  -4   3   4  376.26   15.50
  -4   3   4  364.46   14.80
   3  -3  -4   24.20    2.60
   3  -3  -4   29.00    2.60
  -3   3   4   21.10    3.30
  -3   3   4   20.70    2.70
  -3   3   4   20.50    3.80
  -3   3   4   24.20    2.80
  -3   3   4   19.30    2.70
  -3   3   4   23.60    2.60
   2  -3  -4  924.51   35.60
   2  -3  -4  904.71   34.90
   2  -3  -4  932.11   34.90
  -2   3   4  904.81   35.70
  -2   3   4  902.11   37.10
  -2   3   4  915.21   35.10
  -2   3   4  960.80   36.80
  -2   3   4  927.61   35.50
  -2   3   4  897.21   35.30
  -2   3   4  913.21   35.10
   1  -3  -4  985.30   37.80
   1  -3  -4  997.80   37.80
   1  -3  -4 1008.10   37.90
  -1   3   4  963.10   38.40
  -1   3   4 1000.20   38.10
  -1   3   4  967.50   37.90
  -1   3   4 1026.90   37.40
  -1   3   4 1020.30   38.10
  -1   3   4  958.60   39.80
  -1   3   4 1008.10   37.90
   0  -3  -4  103.79    5.90
   0  -3  -4  114.69    6.10
   0   3   4  104.89    7.40
   0   3   4  120.59    6.00
   0   3   4  127.79    6.50
   0   3   4  112.09    6.20
   0   3   4  113.99    5.40
   0   3   4  110.49    6.00
   0   3   4  111.59    6.70
  -1  -3  -4  120.19    6.70
  -1  -3  -4  122.59    6.70
   1   3   4  119.69    6.70
   1   3   4  112.59    7.40
   1   3   4  116.59    6.90
   1   3   4  122.19    7.60
   1   3   4  120.39    8.40
   1   3   4  120.69    6.40
  -2  -3  -4   13.50    3.00
   2   3   4   18.20    4.60
   2   3   4   16.00    3.30
   2   3   4   15.10    3.80
  -3  -3  -4   20.20    3.90
   3   3   4   22.30    4.20
   3   3   4   24.20    5.40
   3   3   4   26.80    5.00
   3   3   4   18.80    4.90
  -4  -3  -4   10.70    3.80
   4   3   4    8.00    3.70
   4   3   4   11.50    4.90
   4   3   4    9.20    4.50
   4   3   4   10.00    4.40
   5   3   4  159.68   12.00
   5   3   4  166.28   11.50
   5   3   4  182.98   12.60
 -10   4   4    8.80    7.10
 -10   4   4    5.60    6.50
 -10   4   4   19.90    6.30
 -10   4   4    4.50    5.60
  -9   4   4  202.38   14.00
  -9   4   4  166.08   12.60
  -9   4   4  178.28   15.20
  -9   4   4  238.08   13.30
  -9   4   4  200.28   12.20
   8  -4  -4   94.09    7.30
  -8   4   4  113.39    8.90
  -8   4   4  100.09    7.90
  -8   4   4   76.89    9.00
  -8   4   4   98.79    9.90
  -8   4   4   87.89   10.10
   7  -4  -4   13.80    3.40
  -7   4   4   10.70    5.30
  -7   4   4   20.10    5.70
  -7   4   4   16.50    5.20
  -7   4   4   15.90    3.90
  -7   4   4   13.30    4.10
   6  -4  -4    6.50    2.40
  -6   4   4    5.40    4.20
  -6   4   4    5.10    3.40
  -6   4   4    4.40    3.50
  -6   4   4    1.40    2.60
  -6   4   4    2.40    2.90
   5  -4  -4  184.68    9.20
   5  -4  -4  205.28    9.20
   5  -4  -4  215.28   10.50
  -5   4   4  175.88   10.80
  -5   4   4  182.18   11.80
  -5   4   4  183.68    9.90
  -5   4   4  191.28    9.90
  -5   4   4  183.68    9.60
  -5   4   4  188.38    9.50
  -5   4   4  210.38   10.90
   4  -4  -4  419.76   17.60
   4  -4  -4  452.35   17.50
  -4   4   4  441.26   17.90
  -4   4   4  437.66   18.00
  -4   4   4  443.96   18.10
  -4   4   4  431.86   18.40
  -4   4   4  424.36   18.40
  -4   4   4  430.86   20.50
  -4   4   4  449.56   19.40
  -4   4   4  433.26   18.30
   3  -4  -4  173.98    7.50
   3  -4  -4  159.88    7.60
  -3   4   4  156.28    7.60
  -3   4   4  172.48    9.10
  -3   4   4  172.68    7.90
  -3   4   4  175.18    7.90
  -3   4   4  176.28    9.20
  -3   4   4  165.48    8.30
  -3   4   4  157.78    8.10
  -3   4   4  178.68   10.70
   2  -4  -4  596.44   23.80
   2  -4  -4  617.74   23.70
  -2   4   4  644.24   27.00
  -2   4   4  595.14   24.20
  -2   4   4  618.64   24.00
  -2   4   4  599.04   24.50
  -2   4   4  642.24   24.10
  -2   4   4  621.74   24.90
  -2   4   4  605.54   23.70
   1  -4  -4  446.36   17.90
   1  -4  -4  429.76   17.90
  -1   4   4  449.56   18.30
  -1   4   4  447.66   18.70
  -1   4   4  444.96   20.60
  -1   4   4  447.76   18.10
  -1   4   4  455.35   18.40
  -1   4   4  439.76   18.10
  -1   4   4  483.75   18.70
   0  -4  -4   92.59    5.60
   0  -4  -4   95.09    5.60
   0   4   4  103.89    8.10
   0   4   4  104.19    6.70
   0   4   4  104.99    6.10
   0   4   4  103.69    5.00
   0   4   4  103.29    5.80
  -1  -4  -4   75.59    5.40
   1   4   4   79.19    6.50
   1   4   4   88.59    7.70
   1   4   4   86.99    5.90
   2   4   4   30.20    4.30
   2   4   4   33.70    5.30
   2   4   4   25.40    5.30
   3   4   4  111.99    9.50
   3   4   4  130.79    9.40
   3   4   4  115.29    8.40
   3   4   4  121.89    9.90
   4   4   4   24.70    5.00
   4   4   4   31.20    5.90
   4   4   4   32.40    6.70
 -10   5   4    9.20    4.90
 -10   5   4    8.40    5.40
 -10   5   4   18.60    7.90
  -9   5   4   74.09   10.30
  -9   5   4   78.89    7.50
  -9   5   4   61.29    9.40
  -9   5   4   57.79    9.00
  -9   5   4   84.49    8.30
  -8   5   4  228.48   12.60
  -8   5   4  183.58   13.60
  -8   5   4  200.18   14.80
  -8   5   4  226.28   14.90
  -8   5   4  233.18   12.10
  -7   5   4  236.48   14.80
  -7   5   4  235.78   14.40
  -7   5   4  251.27   12.40
  -7   5   4  255.97   15.70
  -7   5   4  257.27   13.10
  -6   5   4  163.18   10.80
  -6   5   4  163.58   10.90
  -6   5   4  165.68   12.10
  -6   5   4  163.68    9.40
  -6   5   4  174.88    9.00
   5  -5  -4   16.60    3.30
  -5   5   4    2.70    4.30
  -5   5   4    8.20    2.50
  -5   5   4    7.60    2.70
  -5   5   4    8.30    2.40
  -5   5   4   11.70    4.10
   4  -5  -4    1.50    1.60
  -4   5   4    3.70    2.00
  -4   5   4   -1.20    2.70
  -4   5   4    0.70    2.20
  -4   5   4    5.00    2.30
  -4   5   4    4.80    4.10
  -4   5   4    3.30    1.90
   3  -5  -4    2.10    1.40
  -3   5   4   -0.40    1.60
  -3   5   4    1.90    2.50
  -3   5   4    1.60    3.70
  -3   5   4    2.50    1.70
  -3   5   4    0.90    2.10
  -2   5   4    9.30    2.70
  -2   5   4    7.60    2.50
  -2   5   4    5.70    3.60
  -2   5   4    7.50    2.10
  -2   5   4    5.40    1.90
  -2   5   4    6.80    1.90
  -1   5   4   -0.30    3.50
  -1   5   4    5.90    1.90
  -1   5   4    1.20    1.80
  -1   5   4    0.30    2.00
  -1   5   4    2.90    2.30
   0   5   4   40.50    4.70
   0   5   4   38.80    4.00
   0   5   4   37.60    6.00
   1   5   4   15.30    4.90
   1   5   4   26.00    4.50
   1   5   4   30.50    4.10
   2   5   4    5.30    5.10
   2   5   4    4.60    3.40
   2   5   4    4.70    3.00
   2   5   4    5.70    4.50
   3   5   4    6.80    3.80
   3   5   4   11.90    5.90
   3   5   4    8.00    3.60
  -9   6   4   51.29    6.70
  -9   6   4   45.00    5.90
  -9   6   4   35.40    7.80
  -9   6   4   36.60    7.60
  -8   6   4  244.98   13.30
  -8   6   4  234.28   12.30
  -8   6   4  212.98   14.80
  -8   6   4  244.88   16.20
  -7   6   4  171.98   10.10
  -7   6   4  161.98   12.90
  -7   6   4  164.98    9.20
  -7   6   4  159.78   11.70
  -6   6   4  113.09    6.80
  -6   6   4  101.49    9.80
  -6   6   4  110.29    8.80
  -6   6   4  120.29    7.60
  -5   6   4   12.00    2.50
  -5   6   4   12.80    5.00
  -5   6   4   19.50    3.40
  -5   6   4   12.80    4.00
  -4   6   4  197.18   11.20
  -4   6   4  197.08    8.70
  -4   6   4  187.68    9.60
  -4   6   4  193.58    9.60
  -4   6   4  205.58   13.40
  -3   6   4  140.19    6.70
  -3   6   4  138.99    7.40
  -3   6   4  153.58   11.20
  -3   6   4  149.39    8.90
  -3   6   4  139.49    7.60
  -2   6   4   96.89    6.60
  -2   6   4   97.79    5.30
  -2   6   4   97.69    5.70
  -2   6   4   89.89    6.00
  -2   6   4  103.29    9.30
  -1   6   4    2.50    4.10
  -1   6   4    0.70    2.30
  -1   6   4    1.40    1.90
   0   6   4   94.39    6.00
   0   6   4   94.09    6.90
   0   6   4  107.39    9.20
   1   6   4  227.68   12.60
   1   6   4  236.08   11.70
   1   6   4  253.07   14.50
   1   6   4  249.88   15.50
   2   6   4  309.87   15.00
   2   6   4  340.17   19.00
   2   6   4  297.77   15.90
  -8   7   4   18.30    5.80
  -8   7   4   22.60    7.00
  -8   7   4    9.00    3.30
  -8   7   4   15.80    4.20
  -7   7   4   33.30    4.80
  -7   7   4   31.80    6.50
  -7   7   4   28.30    3.80
  -7   7   4   22.80    6.70
  -6   7   4   85.99    5.40
  -6   7   4   82.29    6.30
  -6   7   4   80.09    8.40
  -6   7   4   93.99   10.50
  -5   7   4    7.40    4.00
  -5   7   4    4.20    1.90
  -5   7   4    2.50    2.50
  -5   7   4    6.50    5.40
  -4   7   4    9.80    5.20
  -4   7   4    3.70    2.40
  -4   7   4    9.20    3.80
  -3   7   4  109.59    6.50
  -3   7   4  122.29    8.20
  -3   7   4  118.69   10.60
  -2   7   4  115.59   10.40
  -2   7   4  100.59    6.40
  -1   7   4    2.50    2.50
  -1   7   4    3.10    4.80
   0   7   4   88.59    6.90
   0   7   4   91.69   10.30
   0   7   4  106.49   10.20
  -7   8   4   23.20    6.30
  -6   8   4  288.57   16.00
  -6   8   4  276.07   17.50
  -6   8   4  252.27   12.50
  -5   8   4  171.48    9.00
  -5   8   4  198.08   14.10
  -5   8   4  196.58   12.10
  -4   8   4   37.20    3.90
  -4   8   4   49.30    8.60
  -3   8   4   -1.20    5.00
  -3   8   4    1.30    2.00
  -2   8   4    3.00    5.30
  -2   8   4   -0.30    2.10
  -1   8   4    3.20    5.60
   0  10  -5    9.20    4.50
  -1  10  -5    6.60    7.70
  -1  10  -5    5.80    6.20
  -1  10  -5    4.30    2.00
  -2  10  -5  109.59   12.40
  -2  10  -5  113.39   14.20
  -2  10  -5   93.19    5.60
  -3  10  -5   -0.10    6.80
  -3  10  -5    3.00    6.00
  -3  10  -5   -3.90    2.10
  -4  10  -5   50.19    9.20
  -4  10  -5   49.60   14.20
   2   9  -5   90.59    8.00
   2   9  -5   99.69   10.00
   2   9  -5   88.59   18.50
   1   9  -5   -0.30    4.20
   1   9  -5    0.50    2.20
   1   9  -5    3.30    5.90
   0   9  -5    1.40    5.40
   0   9  -5    3.20    3.90
   0   9  -5    2.50    2.10
  -1   9  -5   54.49    4.30
  -1   9  -5   70.89    9.60
  -1   9  -5   69.29    7.20
  -1   9  -5   64.99   11.40
  -2   9  -5   28.50    3.30
  -2   9  -5   37.90    7.80
  -2   9  -5   30.90    8.50
  -3   9  -5   -1.90    4.80
  -3   9  -5   -2.70    2.20
  -3   9  -5   -0.30    6.30
  -4   9  -5    1.80    5.30
  -4   9  -5   11.90    6.80
  -4   9  -5    8.30    3.20
  -4   9  -5    5.10    2.90
  -5   9  -5   69.59   10.90
  -5   9  -5   75.49   10.50
  -5   9  -5   82.09    5.80
  -5   9  -5   66.39    6.50
  -5   9  -5   84.89   10.00
  -6   9  -5   22.80    4.20
   4   8  -5   93.79    6.80
   3   8  -5  141.19    7.90
   3   8  -5  134.79    8.80
   3   8  -5  139.09   13.40
   3   8  -5  145.09   12.30
   2   8  -5  117.69   10.20
   2   8  -5  131.59   13.00
   2   8  -5  122.39    6.80
   2   8  -5  114.59    7.50
   1   8  -5   67.19    9.50
   1   8  -5   67.39    4.70
   1   8  -5   78.39    7.90
   1   8  -5   70.79    5.20
   0   8  -5   47.50    3.80
   0   8  -5   47.60    6.50
   0   8  -5   59.39    4.50
   0   8  -5   55.39    9.70
  -1   8  -5   33.70    5.10
  -1   8  -5   30.20    3.50
  -1   8  -5   28.70    7.20
  -1   8  -5   33.00    8.10
  -1   8  -5   31.30    3.10
  -2   8  -5  358.96   22.10
  -2   8  -5  383.06   21.10
  -2   8  -5  366.76   15.80
  -2   8  -5  367.46   15.30
  -2   8  -5  398.86   17.40
  -3   8  -5  252.87   17.60
  -3   8  -5  244.28   11.80
  -3   8  -5  256.77   11.40
  -3   8  -5  273.97   16.50
  -4   8  -5    5.70    5.80
  -4   8  -5   12.90    3.10
  -4   8  -5   13.50    6.00
  -4   8  -5   10.20    3.20
  -5   8  -5   16.70    6.90
  -5   8  -5   22.90    3.90
  -5   8  -5    9.80    5.90
  -5   8  -5   14.60    4.10
  -6   8  -5   37.60    5.80
  -6   8  -5   32.70    6.90
  -6   8  -5   56.29   11.50
  -6   8  -5   35.70    5.20
  -6   8  -5   33.70    7.90
  -7   8  -5  126.39    9.50
  -7   8  -5  128.19   14.30
   5   7  -5    5.80    6.20
   5   7  -5    3.20    3.30
   5   7  -5    0.60    5.20
   5   7  -5    6.60    3.10
   4   7  -5   75.29   10.00
   4   7  -5   55.69    8.40
   4   7  -5   60.59    6.30
   4   7  -5   60.69    5.60
   3   7  -5   30.60    7.50
   3   7  -5   44.10    4.70
   3   7  -5   36.80    5.00
   3   7  -5   33.70    6.40
   2   7  -5  121.79    7.50
   2   7  -5  131.39   10.30
   2   7  -5  117.29    6.90
   2   7  -5  123.29   11.90
   1   7  -5  106.09   10.90
   1   7  -5  107.19    8.80
   1   7  -5  105.49    6.00
   1   7  -5  104.89    6.50
   0   7  -5  224.08   10.80
   0   7  -5  223.48   10.20
   0   7  -5  235.98   12.70
   0   7  -5  234.88   15.20
   0   7  -5  238.38   10.70
  -1   7  -5   33.50    3.40
  -1   7  -5   31.50    3.70
  -1   7  -5   36.80    7.40
  -1   7  -5   27.00    4.40
  -1   7  -5   35.90    3.70
  -1   7  -5   29.70    7.30
  -2   7  -5  185.88   14.30
  -2   7  -5  176.58    9.10
  -2   7  -5  196.78    9.60
  -2   7  -5  172.38    8.80
  -2   7  -5  170.68    8.50
  -2   7  -5  189.78   13.10
  -3   7  -5   84.69    9.80
  -3   7  -5   85.59    6.00
  -3   7  -5   91.19    8.80
  -3   7  -5   89.09    5.80
  -4   7  -5  153.88   13.10
  -4   7  -5  168.18   12.20
  -4   7  -5  155.38    8.70
  -4   7  -5  152.08    9.00
  -5   7  -5    3.70    3.00
  -5   7  -5   13.40    6.70
  -5   7  -5    2.40    3.30
  -5   7  -5    7.90    5.20
  -6   7  -5   52.59    6.20
  -6   7  -5   74.89    9.40
  -6   7  -5   73.89   10.30
  -6   7  -5   53.09    6.70
  -6   7  -5   71.49    7.80
  -7   7  -5  205.28   13.70
  -7   7  -5  195.28   12.40
  -7   7  -5  203.78   12.90
  -7   7  -5  216.98   18.00
   6   6  -5   36.90    5.20
   6   6  -5   35.30    5.90
   6   6  -5   37.80    9.00
   6   6  -5   33.30    8.00
   5   6  -5   75.29    7.30
   5   6  -5   65.39    9.40
   5   6  -5   69.49    9.40
   5   6  -5   73.59    6.50
   4   6  -5   75.59    6.30
   4   6  -5   84.89    8.90
   4   6  -5   82.49    7.10
   4   6  -5   78.99   10.10
   3   6  -5   85.99    6.00
   3   6  -5   78.99    6.40
   3   6  -5   79.29    9.20
   3   6  -5   87.79    8.80
   2   6  -5  272.47   16.40
   2   6  -5  277.27   14.70
   2   6  -5  253.87   11.90
   2   6  -5  255.87   12.40
  -2  -6   5  260.47   11.70
   1   6  -5   52.59    5.80
   1   6  -5   56.19    7.90
   1   6  -5   56.09    4.60
   1   6  -5   59.59    4.30
   1   6  -5   55.99    4.60
  -1  -6   5   56.99    3.90
  -1  -6   5   59.49    4.30
   0   6  -5  468.95   20.50
   0   6  -5  448.36   20.00
   0   6  -5  454.75   18.70
   0   6  -5  462.25   18.40
   0   6  -5  453.55   18.90
   0   6  -5  439.96   22.70
   0  -6   5  454.95   18.30
   0  -6   5  448.76   18.10
  -1   6  -5   46.40    7.20
  -1   6  -5   41.10    3.60
  -1   6  -5   40.50    3.70
  -1   6  -5   37.60    4.30
  -1   6  -5   41.30    7.70
  -1   6  -5   45.00    3.80
  -1   6  -5   40.10    3.90
   1  -6   5   37.70    3.50
   1  -6   5   37.50    3.20
  -2   6  -5   50.09    6.60
  -2   6  -5   42.60    4.40
  -2   6  -5   43.30    4.10
  -2   6  -5   46.10    4.20
  -2   6  -5   53.39    8.00
  -2   6  -5   44.20    4.10
   2  -6   5   43.10    3.70
   2  -6   5   46.00    3.90
  -3   6  -5   43.20    4.30
  -3   6  -5   51.29    8.10
  -3   6  -5   38.40    4.30
  -3   6  -5   31.70    4.30
  -3   6  -5   35.40    6.60
  -3   6  -5   39.40    3.80
   3  -6   5   34.90    3.90
  -4   6  -5   50.99    8.00
  -4   6  -5   60.39    7.70
  -4   6  -5   48.20    5.10
  -4   6  -5   45.20    5.20
   4  -6   5   31.20    4.00
  -5   6  -5    2.20    3.10
  -5   6  -5    3.00    3.40
  -5   6  -5   -0.80    5.40
  -5   6  -5    3.70    4.80
   5  -6   5   -1.00    2.50
  -6   6  -5    0.40    3.80
  -6   6  -5   -0.20    3.50
  -6   6  -5   14.90    6.80
  -6   6  -5    5.40    4.40
  -6   6  -5    6.50    5.00
  -7   6  -5   32.10    9.00
  -7   6  -5   29.30    6.50
  -7   6  -5   32.40    6.00
  -7   6  -5   13.70    5.70
  -7   6  -5   36.10    6.70
  -8   6  -5    3.10    4.70
  -8   6  -5    7.10    5.00
   7   5  -5  121.69   10.20
   7   5  -5  118.69   12.40
   7   5  -5  103.79   12.10
   7   5  -5  104.79    9.00
   6   5  -5   41.90    6.30
   6   5  -5   42.60    5.70
   6   5  -5   29.10    7.10
   6   5  -5   35.30    8.20
   5   5  -5    4.90    2.80
   5   5  -5    3.00    3.30
   5   5  -5    3.80    4.50
   5   5  -5    0.70    3.90
  -5  -5   5    5.70    2.70
   4   5  -5  161.68   11.30
   4   5  -5  162.68   12.50
   4   5  -5  156.58    9.90
   4   5  -5  173.78    9.40
  -4  -5   5  169.98    9.10
   3   5  -5  209.78   12.40
   3   5  -5  219.68   11.20
   3   5  -5  213.58   10.60
   3   5  -5  206.58   14.10
  -3  -5   5  219.58   10.40
   2   5  -5    5.30    1.40
   2   5  -5    8.90    2.50
   2   5  -5    7.00    2.20
   2   5  -5    4.60    3.50
   2   5  -5    7.80    3.90
   2   5  -5    7.70    2.30
  -2  -5   5    9.60    2.20
  -2  -5   5    8.00    2.20
   1   5  -5  523.95   21.30
   1   5  -5  497.85   21.40
   1   5  -5  521.45   22.60
   1   5  -5  487.95   24.40
   1   5  -5  536.85   21.20
   1   5  -5  520.75   21.00
   1   5  -5  543.35   21.30
  -1  -5   5  532.55   21.00
  -1  -5   5  527.45   20.80
   0   5  -5  370.86   16.60
   0   5  -5  366.26   15.90
   0   5  -5  387.66   15.70
   0   5  -5  364.96   15.40
   0   5  -5  368.56   18.80
   0   5  -5  388.96   15.80
   0  -5   5  374.46   15.50
   0  -5   5  376.36   15.30
  -1   5  -5  227.98   13.40
  -1   5  -5  234.48   10.60
  -1   5  -5  248.08   11.10
  -1   5  -5  242.38   11.10
  -1   5  -5  230.78   14.40
  -1   5  -5  247.18   10.70
  -1   5  -5  236.08   10.80
   1  -5   5  244.28   10.90
   1  -5   5  240.68   10.70
   1  -5   5  243.28   10.50
  -2   5  -5  120.79    9.50
  -2   5  -5  116.89    6.50
  -2   5  -5  110.49    6.30
  -2   5  -5  113.59    8.70
  -2   5  -5  110.09    6.70
  -2   5  -5  111.59    6.10
  -2   5  -5  117.29    6.10
   2  -5   5   99.99    6.30
   2  -5   5  107.99    5.60
   2  -5   5  109.29    6.10
  -3   5  -5   93.69    6.50
  -3   5  -5   82.19    8.30
  -3   5  -5   83.89    5.90
  -3   5  -5   93.09    5.60
  -3   5  -5   83.69    6.00
  -3   5  -5   86.19    9.00
   3  -5   5   86.09    5.90
   3  -5   5   87.19    5.80
  -4   5  -5  326.77   17.40
  -4   5  -5  311.47   15.00
  -4   5  -5  326.27   14.90
  -4   5  -5  316.67   18.60
   4  -5   5  326.87   14.80
  -5   5  -5  299.27   17.10
  -5   5  -5  334.77   15.70
  -5   5  -5  273.17   18.30
  -5   5  -5  332.67   15.40
   5  -5   5  334.07   15.10
  -6   5  -5  146.09   10.30
  -6   5  -5  138.29   13.40
  -6   5  -5  148.29   11.40
  -6   5  -5  139.79   10.30
  -6   5  -5  148.79   10.10
   6  -5   5  150.78    9.70
  -7   5  -5   -0.60    6.10
  -7   5  -5   -3.60    3.90
  -7   5  -5    2.10    4.50
  -7   5  -5   -5.80    4.00
  -7   5  -5   -4.10    3.50
   7  -5   5   -1.30    3.60
  -8   5  -5   21.80    6.30
  -8   5  -5   26.20    5.90
   8   4  -5  132.49   18.90
   8   4  -5  227.98   14.40
   8   4  -5  195.28   15.30
   7   4  -5  126.79   11.90
   7   4  -5  130.59   10.50
   7   4  -5  120.59    9.30
   7   4  -5  119.89   11.50
  -7  -4   5  121.89    9.20
   6   4  -5  237.48   16.00
   6   4  -5  238.68   15.00
   6   4  -5  245.88   14.10
   6   4  -5  251.17   13.20
  -6  -4   5  250.07   13.10
   5   4  -5    3.90    4.30
   5   4  -5    3.20    2.70
   5   4  -5    4.40    4.50
   5   4  -5    4.00    3.20
  -5  -4   5    5.10    2.80
   4   4  -5   59.99    6.00
   4   4  -5   64.39    5.50
   4   4  -5   64.39    6.90
   4   4  -5   63.09    7.70
  -4  -4   5   64.39    5.40
   3   4  -5    9.60    3.90
   3   4  -5   12.60    3.00
   3   4  -5   14.80    2.90
   3   4  -5   11.20    3.70
  -3  -4   5   13.80    2.70
   2   4  -5   91.69    5.40
   2   4  -5   77.09    5.30
   2   4  -5   73.69    6.40
   2   4  -5   80.99    4.40
   2   4  -5   82.19    7.30
   2   4  -5   82.09    5.30
   2   4  -5   87.29    5.60
  -2  -4   5   81.49    5.00
   1   4  -5   10.70    2.10
   1   4  -5   15.00    2.20
   0   4  -5  227.98   10.50
   0   4  -5  232.08   11.00
   0   4  -5  223.28   10.20
   0   4  -5  225.08   10.70
   0   4  -5  229.88   10.10
   0   4  -5  220.08   12.50
   0   4  -5  222.38   10.00
   0  -4   5  241.18   11.40
   0  -4   5  215.28   10.40
   0  -4   5  222.78    9.90
  -1   4  -5  224.58   10.30
  -1   4  -5  239.28   10.70
  -1   4  -5  209.98   12.80
  -1   4  -5  235.48   10.40
  -1   4  -5  215.28   12.40
  -1   4  -5  224.98   10.10
  -1   4  -5  226.88   10.20
   1  -4   5  242.18   10.20
   1  -4   5  220.58   10.00
  -2   4  -5   90.59    7.70
  -2   4  -5   94.49    5.80
  -2   4  -5   94.29    8.00
  -2   4  -5   97.59    6.20
  -2   4  -5   91.59    5.40
  -2   4  -5   92.29    5.70
   2  -4   5   94.79    4.80
   2  -4   5   93.49    5.60
  -3   4  -5   41.70    4.80
  -3   4  -5   38.80    6.20
  -3   4  -5   42.50    4.60
  -3   4  -5   38.80    4.20
  -3   4  -5   34.20    6.10
   3  -4   5   44.90    4.40
   3  -4   5   42.90    2.50
   3  -4   5   42.00    4.70
  -4   4  -5   82.49    8.80
  -4   4  -5   67.49    6.30
  -4   4  -5   77.99    8.10
  -4   4  -5   62.59    5.90
   4  -4   5   55.19    5.70
   4  -4   5   65.39    6.10
  -5   4  -5  195.78   12.90
  -5   4  -5  193.78   13.90
  -5   4  -5  194.58   11.10
  -5   4  -5  192.68   11.40
   5  -4   5  182.08   10.80
  -6   4  -5  287.77   15.20
  -6   4  -5  270.67   18.50
  -6   4  -5  267.97   16.10
  -6   4  -5  295.97   15.60
  -6   4  -5  277.77   14.50
   6  -4   5  293.87   14.90
  -7   4  -5    2.50    5.60
  -7   4  -5    0.00    4.30
  -7   4  -5   -3.90    3.50
  -7   4  -5   -0.10    4.30
   7  -4   5   -1.00    3.90
  -8   4  -5   37.70   15.50
   8  -4   5   22.40    5.30
   8   3  -5    8.00    5.20
   8   3  -5   19.00    6.00
   8   3  -5   16.80    4.50
   8   3  -5   15.00    5.00
  -8  -3   5   11.00    4.10
  -8  -3   5   11.20    4.60
   7   3  -5  169.88   12.80
   7   3  -5  162.28   12.70
   7   3  -5  178.28   11.20
   7   3  -5  185.38   12.20
  -7  -3   5  175.18   11.10
  -7  -3   5  184.08   11.20
   6   3  -5  269.67   14.80
   6   3  -5  270.27   14.00
   6   3  -5  256.97   15.80
   6   3  -5  261.87   15.20
  -6  -3   5  272.37   14.30
  -6  -3   5  291.07   14.10
   5   3  -5   25.90    4.40
   5   3  -5   30.80    6.10
   5   3  -5   24.10    4.50
   5   3  -5   25.80    5.60
  -5  -3   5   21.60    4.40
  -5  -3   5   17.70    3.60
  -5  -3   5   26.10    4.10
   4   3  -5   84.29    6.20
   4   3  -5   82.59    7.10
   4   3  -5   98.99    6.50
   4   3  -5   94.49    7.90
   4   3  -5   87.79    6.60
  -4  -3   5   92.69    6.30
  -4  -3   5   89.39    7.00
  -4  -3   5   82.19    6.10
   3   3  -5  209.38   11.40
   3   3  -5  222.78   10.50
   3   3  -5  223.28    9.30
   3   3  -5  211.18   12.30
   3   3  -5  205.78   10.50
   3   3  -5  217.28   10.80
   3   3  -5  215.18   10.50
  -3  -3   5  220.18   11.20
  -3  -3   5  226.18    9.50
  -3  -3   5  221.18   10.50
  -3  -3   5  222.98   10.40
   2   3  -5 1485.45   58.39
   2   3  -5 1526.95   59.19
   2   3  -5 1503.35   58.39
   2   3  -5 1459.95   60.29
   2   3  -5 1572.64   57.69
   2   3  -5 1517.15   58.09
   2   3  -5 1611.24   58.39
  -2  -3   5 1586.54   57.99
  -2  -3   5 1499.15   57.99
  -2  -3   5 1580.24   58.39
   1   3  -5  114.69    6.90
   1   3  -5  110.19    8.00
   1   3  -5  109.89    6.10
   1   3  -5  111.69    6.40
   1   3  -5  114.69    6.30
   1   3  -5  121.89    6.40
   1   3  -5  128.79    6.30
  -1  -3   5  118.89    6.90
  -1  -3   5  115.89    6.10
  -1  -3   5  116.99    6.30
   0   3  -5   79.59    4.70
   0   3  -5   73.69    5.20
   0   3  -5   70.79    4.80
   0   3  -5   71.49    6.20
   0   3  -5   72.99    4.60
   0   3  -5   78.29    5.30
   0   3  -5   75.39    4.70
   0   3  -5   66.79    6.30
   0  -3   5   75.79    4.90
   0  -3   5   73.69    4.80
   0  -3   5   75.99    4.50
   0  -3   5   66.09    5.70
  -1   3  -5    4.20    1.60
  -1   3  -5    4.80    1.70
  -1   3  -5    6.00    2.60
  -1   3  -5    6.20    3.00
  -1   3  -5    4.60    2.10
  -1   3  -5    5.60    1.80
  -1   3  -5    7.10    2.20
   1  -3   5    4.50    3.00
   1  -3   5    4.50    1.90
   1  -3   5    4.30    1.60
   1  -3   5    4.10    1.60
  -2   3  -5  295.27   15.00
  -2   3  -5  280.17   14.70
  -2   3  -5  278.67   12.60
  -2   3  -5  305.17   13.30
  -2   3  -5  281.57   14.80
  -2   3  -5  290.57   12.80
   2  -3   5  278.87   12.60
   2  -3   5  278.57   14.60
   2  -3   5  275.17   13.00
   2  -3   5  290.17   11.90
  -3   3  -5  491.75   25.00
  -3   3  -5  545.95   22.90
  -3   3  -5  620.94   23.80
  -3   3  -5  527.35   25.00
  -3   3  -5  566.24   23.20
   3  -3   5  573.34   21.60
   3  -3   5  560.74   23.40
   3  -3   5  545.65   22.80
  -4   3  -5  199.48   10.80
  -4   3  -5  164.78   11.80
  -4   3  -5  201.28   10.50
  -4   3  -5  172.58   12.60
   4  -3   5  193.38   10.40
   4  -3   5  206.68    8.50
   4  -3   5  181.88   10.70
   4  -3   5  188.98    8.10
  -5   3  -5  165.18   12.10
  -5   3  -5  189.38   10.10
  -5   3  -5  200.98   11.20
  -5   3  -5  179.38   11.20
  -5   3  -5  170.28   13.50
   5  -3   5  192.58   12.30
   5  -3   5  188.38   10.90
  -6   3  -5   45.40    9.00
  -6   3  -5   43.10    6.60
  -6   3  -5   45.10    6.40
  -6   3  -5   58.69    8.00
  -6   3  -5   47.80    5.70
   6  -3   5   55.29    7.00
  -7   3  -5   10.10    5.30
  -7   3  -5   15.50    5.40
  -7   3  -5    5.60    6.50
   7  -3   5   20.40    5.60
   8  -3   5   16.70    5.50
   9   2  -5  135.59   12.20
   9   2  -5  142.59   12.40
  -9  -2   5  138.49   10.60
  -9  -2   5  136.39   10.80
   8   2  -5   46.10    6.70
   8   2  -5   45.60    7.20
   8   2  -5   55.09    7.40
   8   2  -5   34.90    7.10
  -8  -2   5   45.70    6.80
  -8  -2   5   32.50    6.10
   7   2  -5   16.70    4.90
   7   2  -5   19.20    5.60
   7   2  -5   22.90    5.30
   7   2  -5   20.60    4.60
  -7  -2   5   17.20    4.10
  -7  -2   5   13.40    4.70
   6   2  -5   27.40    4.90
   6   2  -5   23.60    5.10
   6   2  -5   34.60    6.30
   6   2  -5   22.80    4.20
  -6  -2   5   22.20    2.70
  -6  -2   5   21.60    4.40
  -6  -2   5   27.30    5.20
  -6  -2   5   17.70    3.80
   5   2  -5  111.19    7.40
   5   2  -5  110.59    7.40
   5   2  -5  108.09    8.20
   5   2  -5  112.49    8.30
   5   2  -5  109.99    7.90
  -5  -2   5  114.29    5.80
  -5  -2   5  118.09    7.60
  -5  -2   5  106.49    7.40
  -5  -2   5  100.69    7.90
   4   2  -5  582.34   24.50
   4   2  -5  573.84   25.10
   4   2  -5  585.44   24.00
   4   2  -5  571.04   25.30
  -4  -2   5  618.04   22.90
  -4  -2   5  568.34   24.00
  -4  -2   5  558.14   24.50
  -4  -2   5  592.44   24.30
   3   2  -5   21.10    2.90
   3   2  -5   29.30    4.10
   3   2  -5   11.80    2.30
   3   2  -5   19.00    2.40
  -3  -2   5   19.50    2.60
  -3  -2   5   26.60    3.40
  -3  -2   5   20.00    2.70
   2   2  -5   38.30    3.70
   2   2  -5   41.90    3.60
   2   2  -5   42.70    3.40
   2   2  -5   36.20    3.60
   2   2  -5   39.10    4.50
   2   2  -5   41.90    4.60
   2   2  -5   38.30    3.70
  -2  -2   5   43.20    4.00
  -2  -2   5   44.60    3.90
  -2  -2   5   41.80    3.60
  -2  -2   5   37.30    4.10
  -2  -2   5   38.30    3.60
   1   2  -5    2.00    1.80
   1   2  -5    0.40    1.70
   1   2  -5    0.20    1.60
   1   2  -5    3.60    1.70
   1   2  -5    1.20    2.30
   1   2  -5    0.80    1.60
   1   2  -5    1.90    2.80
  -1  -2   5    1.70    1.40
  -1  -2   5    1.10    1.60
  -1  -2   5   -0.90    1.90
  -1  -2   5    0.10    1.70
  -1  -2   5    1.00    2.20
   0   2  -5  112.79    6.70
   0   2  -5  113.49    6.10
   0   2  -5  111.69    7.20
   0   2  -5  115.59    6.00
   0   2  -5  111.59    6.00
   0   2  -5  113.69    6.40
   0   2  -5  118.19    7.80
   0  -2   5  113.79    6.40
   0  -2   5  107.79    6.20
   0  -2   5  110.69    6.00
   0  -2   5  111.19    6.00
   0  -2   5  102.29    6.80
  -1   2  -5   66.49    5.50
  -1   2  -5   53.49    4.20
  -1   2  -5   51.59    4.40
  -1   2  -5   66.19    5.90
  -1   2  -5   54.79    4.10
  -1   2  -5   51.89    4.40
   1  -2   5   46.70    5.10
   1  -2   5   57.79    4.00
   1  -2   5   54.99    4.10
   1  -2   5   56.39    4.70
   1  -2   5   50.09    4.10
  -2   2  -5  837.32   31.00
  -2   2  -5  754.42   32.30
  -2   2  -5  742.83   30.20
  -2   2  -5  770.12   32.20
  -2   2  -5  790.72   30.50
   2  -2   5  749.73   30.70
   2  -2   5  683.33   31.60
   2  -2   5  807.42   30.00
   2  -2   5  746.63   30.20
  -3   2  -5  356.86   17.90
  -3   2  -5  342.27   15.90
  -3   2  -5  354.26   15.80
  -3   2  -5  333.97   17.60
  -3   2  -5  375.76   16.40
   3  -2   5  358.96   15.80
   3  -2   5  379.16   15.30
   3  -2   5  359.06   16.40
   3  -2   5  333.17   17.60
  -4   2  -5   58.39    6.00
  -4   2  -5   40.70    6.20
  -4   2  -5   60.29    6.00
  -4   2  -5   59.89    7.80
  -4   2  -5   62.49    7.00
   4  -2   5   57.19    6.10
   4  -2   5   57.49    6.20
  -5   2  -5   95.19    9.20
  -5   2  -5   90.59   10.10
  -5   2  -5   92.69    6.60
  -5   2  -5   92.89    8.10
  -5   2  -5   95.19    8.10
   5  -2   5  100.09    8.10
   5  -2   5   95.79    5.90
   5  -2   5   90.89    8.30
  -6   2  -5   -0.70    3.00
  -6   2  -5    3.70    5.20
  -6   2  -5   -1.40    3.80
  -6   2  -5    1.60    3.80
   6  -2   5   -1.70    3.60
  -7   2  -5  210.18   17.50
  -7   2  -5  209.18   13.60
   7  -2   5  213.28   13.60
   9   1  -5   12.20    4.50
   9   1  -5    6.20    5.80
  -9  -1   5   13.70    4.70
  -9  -1   5   11.10    4.90
   8   1  -5  132.09   10.80
   8   1  -5  140.69   10.80
   8   1  -5  154.58   10.80
  -8  -1   5  171.78   10.90
  -8  -1   5  137.39   10.50
   7   1  -5  302.97   15.50
   7   1  -5  283.87   15.90
   7   1  -5  297.67   15.50
   7   1  -5  309.37   16.00
  -7  -1   5  309.17   15.60
  -7  -1   5  300.87   13.60
  -7  -1   5  298.77   15.50
  -7  -1   5  279.77   15.50
   6   1  -5   65.49    6.60
   6   1  -5   58.69    5.90
   6   1  -5   51.39    5.80
   6   1  -5   53.59    6.80
  -6  -1   5   68.39    6.30
  -6  -1   5   62.39    6.50
  -6  -1   5   57.79    4.80
  -6  -1   5   56.69    6.60
   5   1  -5 1131.59   45.10
   5   1  -5 1114.29   44.70
   5   1  -5 1130.29   45.20
   5   1  -5 1106.89   45.10
   5   1  -5 1121.79   45.70
  -5  -1   5 1154.58   44.80
  -5  -1   5 1203.98   45.30
  -5  -1   5 1093.39   45.10
  -5  -1   5 1195.98   44.00
   4   1  -5 1133.59   45.40
   4   1  -5 1150.28   45.10
   4   1  -5 1160.78   44.40
   4   1  -5 1147.39   44.80
  -4  -1   5 1156.48   44.80
  -4  -1   5 1197.78   44.10
  -4  -1   5 1111.29   44.90
  -4  -1   5 1122.19   44.40
  -4  -1   5 1113.69   44.80
   3   1  -5    5.30    2.70
   3   1  -5    1.70    1.50
   3   1  -5    9.00    2.90
   3   1  -5    1.70    1.70
   3   1  -5    6.30    2.50
   3   1  -5    2.70    1.90
   3   1  -5    4.60    2.00
  -3  -1   5    6.10    2.30
  -3  -1   5    3.80    2.10
  -3  -1   5    2.60    1.60
  -3  -1   5    1.70    1.80
  -3  -1   5    2.30    2.10
  -3  -1   5    3.50    2.00
   2   1  -5    5.50    2.20
   2   1  -5    3.60    1.80
   2   1  -5    2.60    2.60
   2   1  -5    4.30    2.70
   2   1  -5    4.00    1.90
   2   1  -5    3.40    2.00
   2   1  -5    6.50    2.10
  -2  -1   5    3.80    2.40
  -2  -1   5    4.60    1.90
  -2  -1   5    5.40    2.30
  -2  -1   5    5.20    2.10
  -2  -1   5    3.40    2.20
  -2  -1   5    5.00    2.00
   1   1  -5    0.40    2.40
   1   1  -5    2.30    2.00
   1   1  -5    2.90    1.80
   1   1  -5    1.40    1.60
   1   1  -5    1.80    2.00
   1   1  -5    3.10    2.80
   1   1  -5    2.00    1.60
   1   1  -5    2.00    2.00
   1   1  -5    0.50    1.60
  -1  -1   5    1.50    1.50
  -1  -1   5    3.30    2.50
  -1  -1   5    1.60    1.90
  -1  -1   5    0.20    2.20
  -1  -1   5    0.20    1.50
  -1  -1   5   -0.30    1.80
  -1  -1   5    2.80    2.10
  -1  -1   5    0.40    1.60
   0   1  -5 1173.48   45.70
   0   1  -5 1171.58   46.40
   0   1  -5 1223.58   45.80
   0   1  -5 1185.68   45.90
   0   1  -5 1247.28   46.20
   0   1  -5 1179.78   47.50
   0  -1   5 1198.68   46.20
   0  -1   5 1158.68   46.80
   0  -1   5 1243.98   46.30
   0  -1   5 1186.58   45.70
   0  -1   5 1252.57   45.90
  -1   1  -5  132.19    6.90
  -1   1  -5  139.09    7.40
  -1   1  -5  133.49    7.00
  -1   1  -5  110.29    8.10
  -1   1  -5  140.19    6.90
  -1   1  -5  119.69    7.60
   1  -1   5  131.69    7.70
   1  -1   5  133.89    7.50
   1  -1   5  139.59    7.50
   1  -1   5  126.79    8.20
   1  -1   5  128.99    7.00
   1  -1   5  139.39    6.90
  -2   1  -5  215.88   10.10
  -2   1  -5  240.98   12.20
  -2   1  -5  223.28   10.90
  -2   1  -5  225.48   11.10
  -2   1  -5  219.58   10.60
  -2   1  -5  252.57   12.80
   2  -1   5  225.88   11.30
   2  -1   5  214.78   10.50
   2  -1   5  209.28   12.10
   2  -1   5  214.38   10.60
  -3   1  -5   13.50    3.30
  -3   1  -5   15.70    3.50
  -3   1  -5   14.90    4.20
  -3   1  -5   19.50    5.00
   3  -1   5   14.50    3.80
   3  -1   5    9.50    4.30
   3  -1   5    6.30    2.30
   3  -1   5   13.00    3.50
  -4   1  -5   51.29    4.40
  -4   1  -5   53.79    7.70
  -4   1  -5   56.29    6.00
  -4   1  -5   59.99    7.00
  -4   1  -5   53.39    6.00
   4  -1   5   42.40    6.60
   4  -1   5   62.99    6.80
   4  -1   5   53.29    5.90
   4  -1   5   50.49    4.70
  -5   1  -5   71.49    7.40
  -5   1  -5   72.19    9.40
  -5   1  -5   68.49    5.70
  -5   1  -5   65.59    7.60
   5  -1   5   73.69    7.40
   5  -1   5   67.99    6.00
   5  -1   5   67.59    7.70
  -6   1  -5   19.90    5.30
  -6   1  -5   16.90    6.50
   6  -1   5   20.50    5.50
  -7   1  -5  151.98   11.40
  -7   1  -5  141.49   14.80
   7  -1   5  140.99   11.30
   9   0  -5   -3.50    5.00
   9   0  -5    6.60    4.40
  -9   0   5    8.20    4.20
  -9   0   5    2.50    4.70
   8   0  -5  182.38   12.80
   8   0  -5  200.18   12.10
  -8   0   5  200.58   12.20
  -8   0   5  171.18   12.10
  -8   0   5  187.98   10.90
  -8   0   5  217.68   12.60
   7   0  -5    5.10    3.30
   7   0  -5    7.10    3.90
   7   0  -5   10.50    3.00
   7   0  -5    9.40    5.00
  -7   0   5    3.80    3.50
  -7   0   5    7.50    3.20
  -7   0   5    3.40    3.80
  -7   0   5    9.90    3.80
   6   0  -5  415.06   20.00
   6   0  -5  419.86   18.50
   6   0  -5  415.26   19.20
   6   0  -5  436.86   19.60
  -6   0   5  415.16   19.20
  -6   0   5  483.15   21.00
  -6   0   5  432.96   19.90
  -6   0   5  418.06   19.50
  -6   0   5  420.96   18.70
   5   0  -5  541.75   24.30
   5   0  -5  559.54   23.40
   5   0  -5  569.04   23.80
   5   0  -5  587.14   23.20
  -5   0   5  552.04   23.40
  -5   0   5  547.55   23.30
  -5   0   5  569.64   23.90
  -5   0   5  550.84   24.00
   4   0  -5  184.28    8.80
   4   0  -5  163.48    8.60
   4   0  -5  164.58    8.80
   4   0  -5  180.98    9.70
   4   0  -5  167.88    9.60
  -4   0   5  162.68    8.70
  -4   0   5  162.78    8.90
  -4   0   5  153.18    8.90
  -4   0   5  150.58    8.50
  -4   0   5  175.48    8.60
  -4   0   5  162.78    8.80
   3   0  -5   39.50    3.90
   3   0  -5   41.80    3.90
   3   0  -5   45.20    4.90
   3   0  -5   44.00    4.00
   3   0  -5   40.30    3.70
   3   0  -5   44.50    4.40
   3   0  -5   44.40    4.40
  -3   0   5   40.10    3.70
  -3   0   5   45.60    4.00
  -3   0   5   37.40    4.10
  -3   0   5   43.10    4.20
  -3   0   5   37.70    4.10
  -3   0   5   44.00    4.50
  -3   0   5   43.20    3.90
   2   0  -5  179.68    8.60
   2   0  -5  173.28    8.30
   2   0  -5  167.58    8.30
   2   0  -5  174.38    9.30
   2   0  -5  162.58    9.30
  -2   0   5  181.88    9.10
  -2   0   5  178.98    8.80
  -2   0   5  181.08    8.30
  -2   0   5  172.68    8.90
  -2   0   5  175.28    9.20
  -2   0   5  169.98    8.30
  -2   0   5  165.98    8.40
   1   0  -5 1251.07   47.70
   1   0  -5 1263.77   47.20
   1   0  -5 1273.07   47.50
   1   0  -5 1239.58   47.80
   1   0  -5 1211.18   47.40
   1   0  -5 1236.48   48.90
  -1   0   5 1295.47   47.50
  -1   0   5 1232.08   47.70
  -1   0   5 1285.57   49.00
  -1   0   5 1316.27   47.70
  -1   0   5 1210.38   47.40
  -1   0   5 1207.78   48.50
  -1   0   5 1225.48   47.90
   0   0  -5 2281.07   86.59
   0   0  -5 2438.96   87.09
   0   0  -5 2341.87   86.79
   0   0  -5 2338.87   86.49
   0   0  -5 2298.07   88.49
   0   0  -5 2373.96   86.69
   0   0   5 2355.26   86.59
   0   0   5 2330.17   86.79
   0   0   5 2226.38   87.79
   0   0   5 2222.88   86.59
   0   0   5 2306.87   87.19
  -1   0  -5    3.30    1.80
  -1   0  -5    6.70    2.00
  -1   0  -5    5.70    1.60
   1   0   5    4.50    3.00
   1   0   5    6.50    2.40
   1   0   5    5.70    2.10
   1   0   5    9.10    2.00
  -2   0  -5   44.90    4.60
  -2   0  -5   38.50    5.20
  -2   0  -5   42.80    4.50
  -2   0  -5   45.40    3.30
  -2   0  -5   40.70    5.00
   2   0   5   43.80    5.00
   2   0   5   44.90    4.40
   2   0   5   40.70    5.80
   2   0   5   45.00    4.10
  -3   0  -5    1.00    3.40
  -3   0  -5    0.70    1.30
  -3   0  -5   -1.30    2.50
  -3   0  -5   -0.60    2.40
   3   0   5   -1.40    2.90
   3   0   5   -1.20    3.70
   3   0   5   -2.50    1.80
   3   0   5   -1.00    2.60
  -4   0  -5  316.47   15.40
  -4   0  -5  306.57   15.40
  -4   0  -5  318.47   14.20
  -4   0  -5  315.87   18.20
   4   0   5  292.67   16.80
   4   0   5  306.77   15.50
   4   0   5  320.97   15.00
   4   0   5  308.37   16.10
  -5   0  -5  207.28   12.30
  -5   0  -5  201.28   15.00
   5   0   5  199.48   13.00
   5   0   5  213.88   11.60
   5   0   5  200.98   13.90
   5   0   5  185.58   12.00
  -6   0  -5   90.29    9.00
  -6   0  -5   91.39   11.80
   6   0   5   85.09   10.50
   6   0   5   90.99    9.50
   6   0   5   78.59    9.10
  -7   0  -5   10.90    5.40
  -7   0  -5   22.40    8.30
  10  -1  -5  134.29   12.00
 -10   1   5  149.88   12.00
   9  -1  -5   57.79    7.30
   9  -1  -5   31.20    6.90
  -9   1   5   38.20    7.20
  -9   1   5   40.60    8.90
  -9   1   5   53.39    7.50
  -9   1   5   49.10    7.40
   8  -1  -5   59.19    7.10
   8  -1  -5   40.20    7.00
  -8   1   5   50.29    7.40
  -8   1   5   48.10    9.40
  -8   1   5   47.60    6.50
  -8   1   5   52.49    7.00
  -8   1   5   42.50    6.00
   7  -1  -5   41.00    6.30
   7  -1  -5   67.39    7.10
   7  -1  -5   55.59    6.20
  -7   1   5   49.60    5.90
  -7   1   5   44.70    7.70
  -7   1   5   58.79    7.00
  -7   1   5   55.69    7.20
  -7   1   5   47.70    5.90
   6  -1  -5  102.69    8.80
   6  -1  -5  117.09    7.70
   6  -1  -5  109.99    6.00
   6  -1  -5  122.09    7.90
  -6   1   5  123.69    8.30
  -6   1   5  114.09    7.90
  -6   1   5  103.59    9.00
  -6   1   5  111.39    8.50
  -6   1   5  110.79    8.20
   5  -1  -5  144.19    6.90
   5  -1  -5  135.49    8.00
   5  -1  -5  132.09    7.80
   5  -1  -5  139.99    9.00
  -5   1   5  133.19    8.40
  -5   1   5  130.59    8.10
  -5   1   5  127.69    7.80
  -5   1   5  130.59    8.60
  -5   1   5  141.19    8.40
   4  -1  -5   17.60    3.00
   4  -1  -5   20.40    3.00
   4  -1  -5   25.80    4.30
  -4   1   5   13.50    3.10
  -4   1   5   11.00    2.40
  -4   1   5   15.50    2.40
  -4   1   5    8.40    2.20
  -4   1   5   15.80    2.90
  -4   1   5   11.90    3.20
   3  -1  -5  108.09    6.60
   3  -1  -5  125.59    6.50
   3  -1  -5  114.69    5.90
   3  -1  -5  113.59    6.30
  -3   1   5  117.39    6.60
  -3   1   5  118.59    6.50
  -3   1   5  109.59    6.50
  -3   1   5  119.39    6.30
  -3   1   5  122.49    6.90
  -3   1   5  125.49    7.20
  -3   1   5  119.79    7.50
   2  -1  -5  173.28    8.30
   2  -1  -5  171.68    8.30
   2  -1  -5  163.38    9.10
  -2   1   5  172.58    9.40
  -2   1   5  180.38    9.40
  -2   1   5  185.18    8.40
  -2   1   5  178.28    8.40
  -2   1   5  177.28    8.50
  -2   1   5  183.48    8.90
  -2   1   5  176.98    8.80
   1  -1  -5    8.70    1.90
   1  -1  -5    3.80    1.70
   1  -1  -5    4.80    1.70
  -1   1   5    4.60    1.90
  -1   1   5    7.30    2.00
  -1   1   5    6.40    1.70
  -1   1   5    3.40    1.90
  -1   1   5    4.50    1.70
  -1   1   5    2.50    2.60
   0  -1  -5  206.88    9.50
   0  -1  -5  176.48   10.90
   0  -1  -5  221.48    9.70
   0  -1  -5  218.48    9.30
   0  -1  -5  208.48    9.70
   0   1   5  215.48    9.40
   0   1   5  225.48    9.70
   0   1   5  203.98    9.70
   0   1   5  211.78    9.70
   0   1   5  199.48   10.20
   0   1   5  215.08    9.40
   0   1   5  205.28   10.90
  -1  -1  -5   13.60    1.80
  -1  -1  -5   18.00    2.90
  -1  -1  -5   12.70    2.70
  -1  -1  -5   18.30    3.60
   1   1   5   10.90    2.20
   1   1   5   14.20    2.80
   1   1   5   10.30    3.60
   1   1   5   14.90    3.30
   1   1   5   13.50    2.70
  -2  -1  -5  193.08   10.10
  -2  -1  -5  191.28    8.20
  -2  -1  -5  204.28   10.30
  -2  -1  -5  193.38   11.50
   2   1   5  200.18   10.30
   2   1   5  208.28   11.80
   2   1   5  210.98   11.20
   2   1   5  199.08   10.00
  -3  -1  -5   16.70    3.90
  -3  -1  -5   21.30    5.40
  -3  -1  -5   14.70    3.80
   3   1   5   13.70    3.70
   3   1   5   13.80    5.00
   3   1   5   16.30    4.30
  -4  -1  -5   59.09    8.40
  -4  -1  -5   42.30    5.50
   4   1   5   60.09    7.40
   4   1   5   47.50    7.50
   4   1   5   55.39    6.50
   4   1   5   56.99    6.60
  -5  -1  -5   92.29   11.00
  -5  -1  -5   82.59    8.00
   5   1   5   91.29    9.80
   5   1   5   78.89    8.70
   5   1   5   77.79    8.20
   5   1   5   84.49    7.90
  -6  -1  -5    8.30    6.60
  -6  -1  -5   11.10    5.10
   6   1   5    3.40    4.30
   6   1   5   11.00    4.70
   6   1   5    1.30    4.00
  10  -2  -5  162.08   13.20
 -10   2   5  197.68   17.30
 -10   2   5  162.48   13.00
   9  -2  -5   91.99    8.40
   9  -2  -5   56.79    8.60
  -9   2   5   93.89    9.00
  -9   2   5   52.29    8.40
  -9   2   5   83.59    8.70
  -9   2   5   88.79    8.60
  -9   2   5   68.69   11.00
   8  -2  -5    5.30    4.40
   8  -2  -5    8.30    3.80
  -8   2   5    2.50    4.50
  -8   2   5    8.50    3.70
  -8   2   5    5.50    4.20
  -8   2   5    0.40    4.00
  -8   2   5   21.70    6.70
   7  -2  -5    1.80    2.70
   7  -2  -5    3.40    4.10
  -7   2   5    3.30    3.40
  -7   2   5    2.70    3.60
  -7   2   5    1.00    3.70
  -7   2   5    1.80    3.40
  -7   2   5    8.70    4.70
   6  -2  -5  266.77   12.70
   6  -2  -5  241.18   13.60
   6  -2  -5  248.68   12.40
  -6   2   5  249.97   12.60
  -6   2   5  242.68   14.20
  -6   2   5  258.87   13.80
  -6   2   5  244.58   13.60
  -6   2   5  270.57   13.40
   5  -2  -5  306.67   16.20
   5  -2  -5  353.86   15.20
   5  -2  -5  344.07   15.60
   5  -2  -5  361.66   15.20
  -5   2   5  338.27   15.20
  -5   2   5  345.07   16.60
  -5   2   5  339.77   15.70
  -5   2   5  340.17   15.60
  -5   2   5  312.57   15.90
  -5   2   5  346.97   16.30
   4  -2  -5    7.50    1.90
   4  -2  -5    0.80    1.70
   4  -2  -5    2.40    1.90
  -4   2   5   -0.10    1.70
  -4   2   5    2.00    1.50
  -4   2   5    0.20    2.40
  -4   2   5   -0.30    1.90
  -4   2   5    2.60    1.70
  -4   2   5    2.80    2.70
  -4   2   5    2.20    1.50
   3  -2  -5  326.37   14.40
  -3   2   5  350.06   14.70
  -3   2   5  345.47   15.40
  -3   2   5  349.57   15.10
  -3   2   5  347.97   16.30
  -3   2   5  357.26   15.20
  -3   2   5  348.27   14.60
  -3   2   5  324.27   14.80
   2  -2  -5  925.71   36.60
  -2   2   5  952.60   37.30
  -2   2   5  923.31   38.50
  -2   2   5  970.30   36.80
  -2   2   5  922.41   37.00
  -2   2   5  981.70   36.90
  -2   2   5  948.71   37.30
  -2   2   5 1024.40   38.60
   1  -2  -5  537.65   20.80
   1  -2  -5  492.85   20.70
  -1   2   5  513.95   20.90
  -1   2   5  522.35   20.90
  -1   2   5  505.75   22.50
  -1   2   5  509.55   21.00
  -1   2   5  520.45   21.50
  -1   2   5  539.95   20.90
   0  -2  -5    5.40    1.90
   0  -2  -5    5.80    1.60
   0   2   5    4.50    2.40
   0   2   5    6.50    1.80
   0   2   5    5.00    2.10
   0   2   5    2.70    1.60
   0   2   5    1.00    3.00
   0   2   5    4.40    1.80
   0   2   5    8.40    1.80
  -1  -2  -5   79.39    3.80
  -1  -2  -5   76.29    5.50
   1   2   5   78.59    5.70
   1   2   5   82.79    5.40
   1   2   5   95.19    6.00
   1   2   5   74.69    6.40
   1   2   5   78.49    6.90
  -2  -2  -5   59.49    6.50
  -2  -2  -5   63.69    5.50
   2   2   5   66.29    7.30
   2   2   5   60.89    6.50
   2   2   5   59.79    5.90
  -3  -2  -5   85.99    7.00
  -3  -2  -5  112.79    9.60
   3   2   5   86.09    8.00
   3   2   5   88.59    8.90
   3   2   5   87.99    7.40
  -4  -2  -5   -3.90    2.70
  -4  -2  -5    1.70    4.40
   4   2   5   -1.30    3.60
   4   2   5    0.00    3.50
   4   2   5   -0.50    3.20
   4   2   5    1.80    4.50
  -5  -2  -5   59.79    7.60
   5   2   5   49.20    6.90
   5   2   5   47.80    8.00
   5   2   5   38.10    7.00
   5   2   5   45.10    7.30
 -10   3   5  115.09   13.90
 -10   3   5  107.09   11.10
 -10   3   5  148.49   15.00
 -10   3   5  134.69   11.20
   9  -3  -5  111.99   11.00
   9  -3  -5  170.18   10.60
  -9   3   5  163.68   11.50
  -9   3   5  153.08   10.50
  -9   3   5  119.09   11.30
  -9   3   5  143.69   11.30
  -9   3   5  130.39   13.40
   8  -3  -5  170.38   10.20
  -8   3   5  153.18   11.60
  -8   3   5  173.78   11.30
  -8   3   5  132.69   11.30
  -8   3   5  154.38   13.00
  -8   3   5  163.08   10.40
   7  -3  -5   11.10    3.30
  -7   3   5   10.40    4.60
  -7   3   5   15.60    4.30
  -7   3   5    6.10    3.50
  -7   3   5    9.40    4.60
  -7   3   5    2.70    3.80
   6  -3  -5  259.07   12.40
  -6   3   5  251.67   13.90
  -6   3   5  250.37   13.20
  -6   3   5  255.87   12.60
  -6   3   5  261.57   14.10
  -6   3   5  253.07   14.40
   5  -3  -5   38.70    4.00
   5  -3  -5   38.30    3.90
   5  -3  -5   43.50    4.30
  -5   3   5   29.60    5.20
  -5   3   5   38.50    4.70
  -5   3   5   35.20    2.50
  -5   3   5   36.20    4.20
  -5   3   5   38.10    5.80
  -5   3   5   29.60    3.70
  -5   3   5   29.90    4.10
  -5   3   5   32.20    4.30
   4  -3  -5   10.10    2.20
   4  -3  -5   10.20    2.30
  -4   3   5    8.40    2.30
  -4   3   5    7.30    2.20
  -4   3   5   11.90    2.90
  -4   3   5    7.40    2.40
  -4   3   5    5.10    3.30
  -4   3   5    7.60    2.00
  -4   3   5    4.30    3.00
   3  -3  -5  235.68    9.60
   3  -3  -5  213.98    9.60
  -3   3   5  208.68    9.70
  -3   3   5  210.38   10.70
  -3   3   5  210.78    9.80
  -3   3   5  198.98   10.20
  -3   3   5  196.88   11.70
  -3   3   5  207.38   10.00
   2  -3  -5  644.74   24.80
   2  -3  -5  639.34   24.80
  -2   3   5  643.44   25.00
  -2   3   5  638.64   25.00
  -2   3   5  636.74   25.50
  -2   3   5  605.64   27.10
  -2   3   5  615.34   25.20
  -2   3   5  619.94   25.50
   1  -3  -5   61.49    4.10
   1  -3  -5   55.59    4.20
   1  -3  -5   55.99    4.20
  -1   3   5   55.49    4.40
  -1   3   5   59.69    4.40
  -1   3   5   60.09    4.20
  -1   3   5   62.49    4.30
  -1   3   5   56.29    5.00
  -1   3   5   56.39    6.00
   0  -3  -5   25.00    3.20
   0  -3  -5   30.20    2.60
   0  -3  -5   32.20    3.60
   0   3   5   33.30    3.80
   0   3   5   31.50    5.50
   0   3   5   29.30    3.30
   0   3   5   34.30    4.50
   0   3   5   30.60    2.90
   0   3   5   34.50    4.50
   0   3   5   32.80    3.40
  -1  -3  -5   14.90    3.10
   1   3   5   17.60    3.50
   1   3   5   13.60    3.80
   1   3   5   10.60    4.10
  -2  -3  -5  467.65   20.50
   2   3   5  476.85   21.60
   2   3   5  481.45   22.50
   2   3   5  470.05   20.80
  -3  -3  -5  138.29    9.80
   3   3   5  123.39    9.60
   3   3   5  132.39   10.60
   3   3   5  118.39   10.10
   3   3   5  109.59    8.50
   4   3   5   -2.20    3.40
   4   3   5   -2.90    3.70
   4   3   5   -0.60    3.90
   4   3   5    0.30    4.70
   5   3   5    3.80    4.40
   5   3   5   -4.10    4.90
 -10   4   5  175.88   16.30
 -10   4   5  210.28   14.80
 -10   4   5  237.78   14.40
  -9   4   5  214.28   12.40
  -9   4   5  221.68   13.30
  -9   4   5  167.88   13.00
  -9   4   5  200.58   14.10
  -9   4   5  186.38   15.40
  -8   4   5  110.99    9.10
  -8   4   5  111.79   10.30
  -8   4   5  109.09    8.30
  -8   4   5   88.59    9.10
  -8   4   5   91.89   10.00
   7  -4  -5    0.60    2.50
  -7   4   5    2.30    4.20
  -7   4   5    2.90    3.00
  -7   4   5    1.00    3.40
  -7   4   5   -1.80    3.80
  -7   4   5   11.30    4.50
   6  -4  -5   66.79    5.40
  -6   4   5   53.29    6.50
  -6   4   5   52.69    6.00
  -6   4   5   66.89    8.10
  -6   4   5   63.29    5.80
  -6   4   5   69.39    6.30
   5  -4  -5  170.68    8.60
  -5   4   5  172.28   11.70
  -5   4   5  177.48    9.30
  -5   4   5  167.38    9.50
  -5   4   5  167.68    9.00
  -5   4   5  169.98   10.30
   4  -4  -5  187.38    9.10
   4  -4  -5  199.98    9.00
  -4   4   5  202.28   10.10
  -4   4   5  200.78   10.90
  -4   4   5  188.48    9.80
  -4   4   5  197.08    9.50
  -4   4   5  192.68    8.50
  -4   4   5  192.08   12.00
   3  -4  -5   39.10    3.50
  -3   4   5   31.80    3.50
  -3   4   5   38.90    3.80
  -3   4   5   32.90    4.40
  -3   4   5   26.20    5.20
  -3   4   5   28.30    3.90
   2  -4  -5   85.49    5.10
   2  -4  -5   85.79    5.00
  -2   4   5   86.49    5.40
  -2   4   5   81.19    8.00
  -2   4   5   90.29    6.10
  -2   4   5   94.49    6.20
  -2   4   5   83.69    5.40
   1  -4  -5  115.19    6.40
  -1   4   5  110.59    6.60
  -1   4   5  123.19    6.70
  -1   4   5  118.49    9.30
  -1   4   5  123.39    6.70
  -1   4   5  121.49    7.50
   0  -4  -5  184.78    9.50
   0   4   5  193.28   10.50
   0   4   5  203.28   12.30
   0   4   5  197.08    9.80
   1   4   5   -2.30    2.30
   1   4   5   -2.40    2.70
   1   4   5   -5.50    3.70
   2   4   5   -7.30    3.70
   2   4   5   -3.80    2.50
   2   4   5   -3.70    2.90
   3   4   5   12.50    5.60
   3   4   5   22.30    5.80
   3   4   5   18.60    5.20
   3   4   5   20.80    4.70
   4   4   5  151.48   11.80
   4   4   5  155.88   11.40
   4   4   5  182.78   13.30
  -9   5   5   22.00    4.90
  -9   5   5   16.70    6.40
  -9   5   5   18.40    6.50
  -9   5   5   21.70    5.20
  -8   5   5  154.58   10.20
  -8   5   5  123.19   11.10
  -8   5   5  138.29    9.30
  -8   5   5  137.69   12.10
  -7   5   5  163.08   12.60
  -7   5   5  148.89   11.00
  -7   5   5  165.08   10.30
  -7   5   5  165.18    9.60
  -6   5   5   16.70    4.80
  -6   5   5   10.50    3.10
  -6   5   5    5.00    4.90
  -6   5   5   14.10    3.70
  -5   5   5    3.40    3.40
  -5   5   5    4.00    2.80
  -5   5   5    4.90    2.40
  -5   5   5    6.40    4.90
  -4   5   5   24.00    3.90
  -4   5   5   27.00    4.80
  -4   5   5   27.40    3.30
  -4   5   5   26.70    6.20
  -3   5   5   63.29    6.10
  -3   5   5   66.59    6.80
  -3   5   5   65.49    4.70
  -3   5   5   72.09    5.60
  -3   5   5   63.89    8.20
  -2   5   5   68.59    4.80
  -2   5   5   72.89    5.80
  -2   5   5   63.09    5.50
  -2   5   5   60.89    8.00
  -1   5   5    0.30    2.00
  -1   5   5    0.40    2.50
  -1   5   5   -3.30    3.80
   0   5   5   65.89    8.20
   0   5   5   59.39    5.90
   0   5   5   59.99    5.30
   1   5   5  160.08   11.60
   1   5   5  151.98    9.00
   1   5   5  155.28   10.00
   2   5   5   11.70    5.20
   2   5   5   13.50    5.70
   2   5   5    8.00    4.00
   2   5   5   11.50    3.80
   3   5   5   78.39    7.50
   3   5   5   75.39   14.40
  -9   6   5   22.50    4.70
  -9   6   5   14.60    7.50
  -9   6   5   21.50    7.20
  -8   6   5   48.50    8.20
  -8   6   5   64.49    7.30
  -8   6   5   69.99    6.60
  -8   6   5   75.99   10.40
  -7   6   5  165.68    9.60
  -7   6   5  182.78   13.80
  -7   6   5  169.78   12.30
  -7   6   5  183.38   10.60
  -6   6   5  278.07   17.10
  -6   6   5  264.27   15.20
  -6   6   5  270.77   13.50
  -6   6   5  273.57   12.60
  -5   6   5   60.19    4.70
  -5   6   5   51.79    6.90
  -5   6   5   56.29    8.70
  -5   6   5   50.89    5.40
  -4   6   5  108.19    8.20
  -4   6   5  103.69    7.00
  -4   6   5  118.09   10.80
  -4   6   5  108.39    6.00
  -3   6   5   70.09    5.80
  -3   6   5   70.09    9.30
  -3   6   5   75.69    4.90
  -3   6   5   93.79    7.10
  -2   6   5   58.99    5.40
  -2   6   5   63.29    4.60
  -2   6   5   47.70    7.30
  -1   6   5    2.50    2.30
  -1   6   5    2.30    4.90
  -1   6   5    1.90    2.70
   0   6   5  194.58   11.10
   0   6   5  191.68   10.10
   0   6   5  208.88   14.00
   1   6   5  117.89    7.90
   1   6   5  141.19   11.20
   1   6   5  108.99   10.80
   1   6   5  114.49    8.90
  -8   7   5   54.99    5.80
  -8   7   5   53.19    9.50
  -7   7   5  212.88   15.50
  -7   7   5  213.68   13.90
  -7   7   5  219.18   10.80
  -7   7   5  221.98   11.90
  -6   7   5  139.69   10.90
  -6   7   5  140.29   12.60
  -6   7   5  118.49    6.90
  -6   7   5  122.09    8.20
  -5   7   5    2.30    3.00
  -5   7   5    7.90    2.70
  -5   7   5    7.10    3.90
  -5   7   5    3.90    6.10
  -4   7   5    1.30    2.70
  -4   7   5    8.00    3.80
  -4   7   5    5.40    5.00
  -3   7   5   24.60    6.80
  -3   7   5   18.40    3.70
  -2   7   5  229.08   15.10
  -2   7   5  197.08   10.70
  -1   7   5   11.30    6.00
  -1   7   5   12.40    3.60
   0   7   5  230.48   15.70
  -6   8   5   71.59    8.50
  -5   8   5  156.28   14.60
  -4   8   5   54.29    6.40
  -4   8   5   72.89   10.40
  -3   8   5   51.09    9.20
  -1  10  -6   52.79   10.30
  -2  10  -6   99.99   11.80
  -3  10  -6    0.80    5.60
   2   9  -6   29.80    7.00
   1   9  -6    8.50    6.00
   1   9  -6   14.30    5.00
   1   9  -6   14.70    3.20
   0   9  -6   20.50    3.40
   0   9  -6   17.90    5.10
   0   9  -6   17.90    6.60
   0   9  -6   28.80    9.80
  -1   9  -6  135.49   13.10
  -1   9  -6  119.29   14.10
  -1   9  -6  118.29    7.00
  -2   9  -6  112.99   12.10
  -2   9  -6  106.29   12.50
  -2   9  -6  100.69    6.10
  -2   9  -6   96.89    6.50
  -3   9  -6   28.20    9.20
  -3   9  -6   15.30    6.60
  -3   9  -6   13.00    2.90
  -3   9  -6   11.50    3.40
  -4   9  -6   19.50    3.50
  -4   9  -6   16.40    3.90
  -4   9  -6   22.90    7.40
  -4   9  -6   13.60    7.30
  -5   9  -6   18.80    7.20
  -5   9  -6   25.90   12.40
  -5   9  -6   19.00    3.80
  -5   9  -6   16.80    4.70
   4   8  -6   78.59    6.40
   3   8  -6    7.00    2.90
   3   8  -6    7.50    3.30
   3   8  -6    4.30    5.40
   3   8  -6    6.90    5.00
   2   8  -6   42.40    4.90
   2   8  -6   42.40    4.40
   2   8  -6   36.80    8.90
   2   8  -6   34.60    6.50
   1   8  -6   21.40    3.50
   1   8  -6   25.40    3.40
   1   8  -6   23.50    5.60
   1   8  -6   12.90    6.30
   0   8  -6   21.70    5.00
   0   8  -6   25.30    7.40
   0   8  -6   22.60    3.40
   0   8  -6   20.80    3.00
  -1   8  -6    2.70    2.40
  -1   8  -6    2.10    6.30
  -1   8  -6    4.20    3.20
  -1   8  -6   -2.30    2.20
  -1   8  -6    7.50    5.60
  -2   8  -6  170.78    8.90
  -2   8  -6  165.98    8.50
  -2   8  -6  165.08   13.10
  -2   8  -6  169.38   14.40
  -3   8  -6  186.28   15.20
  -3   8  -6  190.08    9.60
  -3   8  -6  181.78    9.90
  -3   8  -6  199.98   14.50
  -4   8  -6   -2.60    2.80
  -4   8  -6    1.20    5.40
  -4   8  -6   -2.30    5.30
  -4   8  -6    0.00    2.60
  -5   8  -6   64.29    7.00
  -5   8  -6   66.89   11.20
  -5   8  -6   59.19    6.40
  -5   8  -6   65.49    9.90
  -6   8  -6   97.49    8.10
  -6   8  -6   85.19   13.40
  -6   8  -6   76.39   11.00
  -6   8  -6   91.09    9.70
  -6   8  -6   84.69    8.30
   5   7  -6   80.69    6.90
   5   7  -6   75.59    7.70
   5   7  -6   75.09   11.30
   5   7  -6   75.89   10.60
   4   7  -6   60.69   10.50
   4   7  -6   61.89    6.50
   4   7  -6   59.79    5.70
   4   7  -6   56.59    8.20
   3   7  -6    4.90    2.50
   3   7  -6    4.70    4.50
   3   7  -6    5.20    5.00
   3   7  -6    4.30    3.00
   2   7  -6  354.36   18.50
   2   7  -6  361.76   15.80
   2   7  -6  353.06   16.30
   2   7  -6  364.26   21.50
   1   7  -6  542.95   23.20
   1   7  -6  553.74   22.80
   1   7  -6  566.54   25.40
   1   7  -6  582.24   28.60
   0   7  -6  493.95   25.70
   0   7  -6  489.95   20.70
   0   7  -6  494.55   20.30
   0   7  -6  505.75   22.40
  -1   7  -6   63.69    5.20
  -1   7  -6   64.09    5.00
  -1   7  -6   64.29    9.90
  -1   7  -6   71.69    6.30
  -1   7  -6   63.59    8.30
  -2   7  -6  678.13   26.60
  -2   7  -6  616.84   30.00
  -2   7  -6  627.04   25.30
  -2   7  -6  616.54   25.60
  -2   7  -6  610.94   31.40
  -3   7  -6  121.19    7.60
  -3   7  -6  120.19    7.90
  -3   7  -6  131.29   12.10
  -3   7  -6  130.79   11.50
  -4   7  -6  281.77   13.90
  -4   7  -6  276.57   17.20
  -4   7  -6  285.47   13.60
  -4   7  -6  270.37   18.30
  -5   7  -6   90.49   10.40
  -5   7  -6   96.79    7.80
  -5   7  -6   96.09   11.30
  -5   7  -6   94.79    8.00
  -6   7  -6   44.60    9.50
  -6   7  -6   50.49    6.60
  -6   7  -6   43.20    8.30
  -6   7  -6   47.30    6.80
  -6   7  -6   42.30    7.10
  -7   7  -6   47.00    7.60
  -7   7  -6   37.50    9.00
  -7   7  -6   54.29    8.00
   6   6  -6   -0.20    5.30
   6   6  -6   12.80    3.90
   6   6  -6   11.70    4.40
   6   6  -6   14.40    6.80
   5   6  -6   37.70    7.30
   5   6  -6   35.90    5.90
   5   6  -6   42.40    5.60
   5   6  -6   22.50    6.90
   4   6  -6   56.29    7.80
   4   6  -6   57.89    5.70
   4   6  -6   59.69    6.50
   4   6  -6   62.19    8.70
   3   6  -6   14.60    4.90
   3   6  -6   18.50    6.50
   3   6  -6   22.80    4.20
   3   6  -6   18.10    3.30
   2   6  -6    2.20    3.90
   2   6  -6   13.80    3.20
   2   6  -6    7.20    2.50
   2   6  -6   11.40    5.40
  -2  -6   6   11.10    2.50
   1   6  -6  145.89   11.30
   1   6  -6  140.19    8.00
   1   6  -6  147.59    7.70
   1   6  -6  140.79    9.40
  -1  -6   6  137.89    7.30
   0   6  -6   26.80    6.50
   0   6  -6   28.90    3.60
   0   6  -6   23.00    4.10
   0   6  -6   26.80    3.60
   0   6  -6   22.80    3.40
   0  -6   6   22.00    3.00
  -1   6  -6  145.99    8.50
  -1   6  -6  147.79    8.30
  -1   6  -6  153.48   12.20
  -1   6  -6  143.49   11.00
  -1   6  -6  148.29    8.00
  -1   6  -6  154.18    7.90
   1  -6   6  140.29    7.50
  -2   6  -6    0.70    4.00
  -2   6  -6    2.10    2.40
  -2   6  -6    2.10    2.30
  -2   6  -6    3.30    4.20
  -2   6  -6    1.60    2.40
   2  -6   6    4.20    2.20
  -3   6  -6   95.39    6.80
  -3   6  -6   88.39    6.50
  -3   6  -6   93.19   10.40
  -3   6  -6   97.89    9.90
   3  -6   6   95.09    6.40
  -4   6  -6  452.05   19.70
  -4   6  -6  453.45   23.10
  -4   6  -6  444.96   20.00
  -4   6  -6  443.66   24.20
   4  -6   6  436.46   19.40
  -5   6  -6   -2.20    5.10
  -5   6  -6   -0.70    3.30
  -5   6  -6   -0.10    3.50
  -5   6  -6   -4.40    4.60
   5  -6   6   -0.10    4.30
  -6   6  -6   18.80    6.60
  -6   6  -6   20.80    7.50
  -6   6  -6    9.60    4.70
  -6   6  -6   15.50    5.00
  -6   6  -6   14.10    5.50
  -7   6  -6    0.50    4.60
  -7   6  -6    2.10    5.10
  -7   6  -6   -0.70    7.30
  -7   6  -6    2.70    4.50
  -7   6  -6   -8.20    4.00
   7   5  -6   49.70    9.20
   7   5  -6   28.80    8.20
   7   5  -6   45.80    6.90
   7   5  -6   50.49    7.40
   6   5  -6   22.40    4.80
   6   5  -6   22.00    7.00
   6   5  -6   15.10    5.70
   6   5  -6   22.70    5.10
   5   5  -6  111.99   10.50
   5   5  -6   99.49    7.80
   5   5  -6  117.39   11.30
   5   5  -6  117.09    8.90
  -5  -5   6  111.79    7.70
   4   5  -6  121.19    8.10
   4   5  -6  131.09   11.50
   4   5  -6  114.99   10.20
   4   5  -6  138.29    9.00
  -4  -5   6  130.79    7.90
   3   5  -6  712.53   31.20
   3   5  -6  745.73   33.60
   3   5  -6  721.73   29.30
   3   5  -6  715.03   29.80
  -3  -5   6  718.63   29.10
   2   5  -6   74.69    8.00
   2   5  -6   71.99    5.70
   2   5  -6   61.69    5.20
   2   5  -6   61.49    6.40
   2   5  -6   67.09    5.20
   2   5  -6   85.09    5.80
  -2  -5   6   70.89    5.00
  -2  -5   6   67.69    5.10
   1   5  -6   11.60    2.70
   1   5  -6   10.90    2.60
   1   5  -6   11.80    3.40
   1   5  -6   13.20    2.50
   1   5  -6   12.10    4.50
   1   5  -6   14.40    2.90
   1   5  -6    8.90    2.80
  -1  -5   6   15.80    2.60
  -1  -5   6   13.50    2.70
   0   5  -6   81.19    5.50
   0   5  -6   70.89    7.60
   0   5  -6   80.89    5.30
   0   5  -6   75.49    6.10
   0   5  -6   83.49    5.70
   0   5  -6   85.79    5.30
   0   5  -6   77.59    8.30
   0  -5   6   77.39    5.10
   0  -5   6   80.79    5.40
  -1   5  -6  115.09    7.00
  -1   5  -6  105.19    6.50
  -1   5  -6  112.09    6.70
  -1   5  -6  108.89    9.80
  -1   5  -6  120.49    7.10
  -1   5  -6  103.69    9.00
  -1   5  -6  117.79    6.50
   1  -5   6  104.09    6.30
   1  -5   6  120.59    6.60
   1  -5   6  107.29    6.70
  -2   5  -6  260.27   11.70
  -2   5  -6  250.77   11.80
  -2   5  -6  239.08   14.80
  -2   5  -6  231.18   14.90
  -2   5  -6  244.78   11.90
  -2   5  -6  262.07   11.40
  -2   5  -6  253.67   12.40
   2  -5   6  256.67   10.90
   2  -5   6  258.97   12.90
   2  -5   6  240.18   11.60
  -3   5  -6    8.10    2.90
  -3   5  -6   15.10    5.00
  -3   5  -6   13.40    5.00
  -3   5  -6    8.40    3.10
   3  -5   6    4.00    2.60
  -4   5  -6   28.10    7.00
  -4   5  -6   28.20    4.90
  -4   5  -6   28.30    4.80
  -4   5  -6   25.60    7.10
   4  -5   6   29.00    4.60
  -5   5  -6   21.40    4.90
  -5   5  -6   15.20    6.90
  -5   5  -6    9.60    5.50
  -5   5  -6   19.20    4.90
   5  -5   6   12.80    3.60
  -6   5  -6  117.49    9.10
  -6   5  -6  114.99    9.60
  -6   5  -6  122.19   13.00
  -6   5  -6   97.69    9.40
  -6   5  -6  116.49   10.90
   6  -5   6  117.39    9.10
  -7   5  -6    0.40    6.00
  -7   5  -6    1.60    4.60
  -7   5  -6    9.60    4.70
  -7   5  -6    2.80    4.80
  -7   5  -6    5.20    5.30
   7  -5   6   -1.00    4.10
   8   4  -6   10.30    4.80
   8   4  -6   10.00    5.70
   7   4  -6   -4.10    4.40
   7   4  -6    2.10    4.40
   7   4  -6    5.60    3.50
   7   4  -6    4.20    3.80
  -7  -4   6    2.20    4.10
  -7  -4   6    4.60    3.40
   6   4  -6  194.88   12.30
   6   4  -6  202.38   13.70
   6   4  -6  184.68   11.40
   6   4  -6  200.58   14.10
  -6  -4   6  176.48   11.90
  -6  -4   6  207.78   11.50
   5   4  -6   35.40    5.50
   5   4  -6   35.90    6.70
   5   4  -6   49.20    5.90
   5   4  -6   45.70    7.80
  -5  -4   6   40.00    4.90
   4   4  -6  534.35   25.20
   4   4  -6  545.75   26.50
   4   4  -6  548.15   23.70
   4   4  -6  592.74   24.60
  -4  -4   6  579.64   23.70
   3   4  -6   28.10    4.10
   3   4  -6   18.90    3.30
   3   4  -6   18.90    2.30
   3   4  -6   21.60    5.50
   3   4  -6   20.20    4.70
   3   4  -6   17.90    3.20
  -3  -4   6   26.20    3.80
  -3  -4   6   23.50    3.60
   2   4  -6    7.60    2.20
   2   4  -6   12.00    2.60
   2   4  -6   10.80    4.30
   2   4  -6    8.00    2.60
   2   4  -6    9.10    2.50
   2   4  -6    7.80    2.00
   2   4  -6    9.70    3.40
  -2  -4   6   10.50    2.50
   1   4  -6  345.07   15.20
   1   4  -6  356.36   16.10
   1   4  -6  341.37   17.70
   1   4  -6  362.06   15.20
   1   4  -6  354.26   15.10
   1   4  -6  350.26   15.50
  -1  -4   6  346.27   14.90
  -1  -4   6  348.37   16.00
   0   4  -6  146.99    8.40
   0   4  -6  141.09    8.00
   0   4  -6  158.68   10.80
   0   4  -6  154.98   10.40
   0   4  -6  152.58    7.70
   0   4  -6  148.19    7.70
   0   4  -6  157.38    7.90
   0  -4   6  144.59    9.20
   0  -4   6  130.59    8.50
   0  -4   6  147.69    7.60
  -1   4  -6  862.51   34.00
  -1   4  -6  806.52   36.70
  -1   4  -6  912.51   34.70
  -1   4  -6  874.01   34.20
  -1   4  -6  821.32   37.00
  -1   4  -6  870.81   34.20
  -1   4  -6  931.81   34.20
   1  -4   6  874.31   34.40
   1  -4   6  862.51   33.80
   1  -4   6  863.71   33.90
  -2   4  -6  497.65   20.20
  -2   4  -6  439.76   22.20
  -2   4  -6  417.46   22.00
  -2   4  -6  463.25   19.40
  -2   4  -6  479.65   19.70
   2  -4   6  484.35   18.60
   2  -4   6  437.76   19.70
   2  -4   6  460.05   19.30
  -3   4  -6    0.90    3.60
  -3   4  -6   -2.50    2.40
  -3   4  -6   -1.20    2.40
  -3   4  -6    0.10    3.90
   3  -4   6    0.60    2.30
   3  -4   6   -0.70    1.60
   3  -4   6   -3.20    2.30
  -4   4  -6  283.97   17.30
  -4   4  -6  293.27   14.40
  -4   4  -6  294.97   17.00
  -4   4  -6  297.17   14.70
   4  -4   6  298.87   14.50
  -5   4  -6  312.17   17.80
  -5   4  -6  311.67   15.60
  -5   4  -6  308.07   18.80
  -5   4  -6  288.77   15.60
   5  -4   6  297.87   15.40
  -6   4  -6  318.07   20.80
  -6   4  -6  308.97   18.40
  -6   4  -6  346.57   16.20
  -6   4  -6  330.87   17.10
  -6   4  -6  305.87   17.20
   6  -4   6  316.27   16.60
  -7   4  -6   46.50    7.30
  -7   4  -6   38.30    6.90
  -7   4  -6   56.39   11.10
   7  -4   6   43.60    6.80
   8   3  -6   14.60    5.00
   8   3  -6   16.30    4.80
   8   3  -6    8.30    4.90
   8   3  -6    8.30    6.10
  -8  -3   6   12.70    4.50
  -8  -3   6    6.40    4.60
   7   3  -6   46.90    7.40
   7   3  -6   46.60    6.20
   7   3  -6   35.90    7.10
   7   3  -6   53.89    7.10
  -7  -3   6   58.79    7.10
  -7  -3   6   51.09    7.30
   6   3  -6  439.96   19.80
   6   3  -6  418.26   21.50
   6   3  -6  427.86   20.40
   6   3  -6  425.96   21.20
  -6  -3   6  405.66   20.10
  -6  -3   6  418.76   19.60
   5   3  -6   47.70    6.60
   5   3  -6   34.00    5.90
   5   3  -6   44.10    5.60
   5   3  -6   42.00    5.40
  -5  -3   6   30.40    4.00
  -5  -3   6   38.00    5.00
  -5  -3   6   37.40    5.00
  -5  -3   6   45.10    6.10
   4   3  -6    0.90    3.30
   4   3  -6    0.80    2.60
   4   3  -6    2.50    2.60
   4   3  -6   -1.00    3.00
  -4  -3   6   -0.80    3.10
  -4  -3   6    3.30    2.40
  -4  -3   6    1.10    1.80
  -4  -3   6    0.00    2.20
   3   3  -6   22.20    3.30
   3   3  -6   37.50    6.00
   3   3  -6   25.20    2.80
   3   3  -6   26.20    3.80
   3   3  -6   22.00    4.30
   3   3  -6   26.40    3.60
  -3  -3   6   26.60    4.70
  -3  -3   6   29.80    3.70
  -3  -3   6   30.60    3.90
  -3  -3   6   31.60    3.90
   2   3  -6 1297.97   48.70
   2   3  -6 1237.58   48.70
   2   3  -6 1227.98   49.00
   2   3  -6 1282.97   49.20
   2   3  -6 1274.57   49.99
   2   3  -6 1230.88   50.99
  -2  -3   6 1314.57   49.10
  -2  -3   6 1295.67   49.10
  -2  -3   6 1266.77   48.70
   1   3  -6  277.67   12.70
   1   3  -6  255.77   11.80
   1   3  -6  261.57   14.20
   1   3  -6  265.17   12.10
   1   3  -6  265.47   12.30
   1   3  -6  269.77   12.90
  -1  -3   6  261.97   11.80
  -1  -3   6  270.37   12.20
  -1  -3   6  257.47   12.70
   0   3  -6   57.29    4.30
   0   3  -6   49.00    4.10
   0   3  -6   52.79    5.90
   0   3  -6   54.19    5.80
   0   3  -6   48.00    4.30
   0   3  -6   50.39    4.80
   0  -3   6   53.59    5.50
   0  -3   6   47.40    4.10
   0  -3   6   49.00    4.50
  -1   3  -6  142.69    7.60
  -1   3  -6  135.19    7.90
  -1   3  -6  150.38   10.10
  -1   3  -6  129.39    7.40
  -1   3  -6  140.59    9.40
   1  -3   6  132.19    7.80
   1  -3   6  139.49    7.50
   1  -3   6  131.29    9.10
   1  -3   6  136.09    7.30
  -2   3  -6  287.27   13.10
  -2   3  -6  273.37   15.40
  -2   3  -6  265.47   15.10
  -2   3  -6  285.37   13.30
  -2   3  -6  313.37   13.90
   2  -3   6  291.07   12.40
   2  -3   6  278.37   15.30
   2  -3   6  283.27   13.10
   2  -3   6  278.27   13.50
  -3   3  -6    0.80    3.60
  -3   3  -6    6.60    4.50
  -3   3  -6   -1.40    2.70
  -3   3  -6    3.00    2.90
  -3   3  -6    5.70    4.20
   3  -3   6    0.10    2.80
   3  -3   6   -3.90    1.90
   3  -3   6   -1.70    4.40
   3  -3   6   -0.40    2.40
  -4   3  -6    1.30    3.00
  -4   3  -6    2.10    3.40
   4  -3   6    1.20    3.10
   4  -3   6   -3.00    3.00
  -5   3  -6   46.90    6.40
  -5   3  -6   55.49    9.60
  -5   3  -6   49.80    6.90
  -5   3  -6   46.30    8.10
  -5   3  -6   47.40    5.80
   5  -3   6   38.90    5.60
  -6   3  -6  337.77   21.10
  -6   3  -6  334.87   18.00
  -6   3  -6  327.47   17.60
  -6   3  -6  339.37   16.10
  -6   3  -6  335.07   19.00
   6  -3   6  330.67   17.30
  -7   3  -6   33.40    8.70
  -7   3  -6   23.40    6.20
   7  -3   6   31.90    6.70
   9   2  -6  141.19   13.10
   9   2  -6  166.98   13.10
  -9  -2   6  154.38   11.80
  -9  -2   6  154.18   11.70
   8   2  -6   35.60    7.20
   8   2  -6   49.40    9.50
   8   2  -6   41.70    6.60
   8   2  -6   42.20    6.30
  -8  -2   6   46.10    7.30
  -8  -2   6   60.59    7.50
   7   2  -6   60.89    7.50
   7   2  -6   41.60    5.60
   7   2  -6   55.09    8.10
   7   2  -6   53.29    6.90
  -7  -2   6   50.79    6.40
  -7  -2   6   57.19    7.70
   6   2  -6  238.38   13.30
   6   2  -6  234.98   12.70
   6   2  -6  232.18   13.50
   6   2  -6  227.48   14.10
  -6  -2   6  245.08   10.80
  -6  -2   6  239.38   12.70
  -6  -2   6  209.88   13.10
  -6  -2   6  252.47   13.20
   5   2  -6  213.68   12.80
   5   2  -6  223.98   11.80
   5   2  -6  220.38   12.30
   5   2  -6  264.67   14.10
   5   2  -6  220.48   12.70
  -5  -2   6  224.78   12.60
  -5  -2   6  222.78   11.80
  -5  -2   6  236.38   10.60
  -5  -2   6  223.38   12.00
   4   2  -6   64.79    6.80
   4   2  -6   66.89    5.70
   4   2  -6   73.59    4.70
   4   2  -6   64.99    5.80
   4   2  -6   69.69    5.40
   4   2  -6   72.39    6.50
  -4  -2   6   69.69    5.10
  -4  -2   6   66.39    5.60
  -4  -2   6   68.09    6.40
  -4  -2   6   62.69    5.70
   3   2  -6   48.40    5.60
   3   2  -6   44.60    4.40
   3   2  -6   57.79    4.80
  -3  -2   6   41.70    4.10
  -3  -2   6   31.00    4.10
  -3  -2   6   34.80    4.30
  -3  -2   6   46.90    4.80
   2   2  -6  170.58   10.10
   2   2  -6  169.98    8.60
   2   2  -6  172.78    9.50
   2   2  -6  167.78    9.20
   2   2  -6  167.18    8.50
   2   2  -6  161.28    8.60
  -2  -2   6  164.38    8.40
  -2  -2   6  157.18    9.20
  -2  -2   6  171.68    9.00
  -2  -2   6  172.28    8.80
   1   2  -6  205.88   11.40
   1   2  -6  203.38   11.80
   1   2  -6  217.78   10.20
   1   2  -6  226.68   10.60
   1   2  -6  215.68   11.20
   1   2  -6  215.38   10.30
  -1  -2   6  224.38   10.40
  -1  -2   6  218.28   10.20
  -1  -2   6  228.38   10.70
  -1  -2   6  230.98   11.30
   0   2  -6  242.78   12.70
   0   2  -6  232.78   13.40
   0   2  -6  239.38   11.40
   0   2  -6  246.28   11.50
   0   2  -6  263.67   11.90
   0  -2   6  257.07   11.40
   0  -2   6  257.97   12.90
   0  -2   6  275.57   12.10
   0  -2   6  252.87   11.90
  -1   2  -6   27.80    4.80
  -1   2  -6   11.20    2.60
  -1   2  -6    6.90    2.50
  -1   2  -6   13.40    2.60
   1  -2   6   16.90    3.10
   1  -2   6   13.90    3.10
   1  -2   6   14.80    2.90
   1  -2   6    7.80    3.40
  -2   2  -6    4.40    2.70
  -2   2  -6   12.20    3.10
  -2   2  -6   18.20    4.30
  -2   2  -6   14.90    4.10
  -2   2  -6    5.90    2.60
   2  -2   6    6.10    3.70
   2  -2   6    7.30    3.00
   2  -2   6    5.00    2.60
   2  -2   6    6.30    2.40
  -3   2  -6   -1.90    2.70
  -3   2  -6   -1.70    2.80
  -3   2  -6    2.20    3.60
  -3   2  -6   -0.20    3.70
   3  -2   6   -1.90    2.40
   3  -2   6   -1.10    2.90
   3  -2   6   -0.70    4.30
   3  -2   6    1.90    2.90
  -4   2  -6   33.20    5.10
  -4   2  -6   59.99    8.60
  -4   2  -6   26.30    4.80
  -4   2  -6   41.70    7.30
   4  -2   6   33.10    7.30
   4  -2   6   25.60    4.70
   4  -2   6   35.70    5.70
  -5   2  -6   26.90    6.30
  -5   2  -6   13.30    3.40
  -5   2  -6   12.00    4.60
  -5   2  -6   24.80    7.30
  -5   2  -6   20.00    5.30
   5  -2   6   18.80    5.20
  -6   2  -6   40.30    6.60
  -6   2  -6   52.69   10.30
   6  -2   6   26.80    5.70
  -7   2  -6   15.20    5.60
  -7   2  -6   10.00    7.60
   7  -2   6    8.10    5.30
   9   1  -6   36.00    7.60
   9   1  -6   52.19    6.90
  -9  -1   6   43.20    7.30
  -9  -1   6   48.80    6.70
   8   1  -6   76.09    9.60
   8   1  -6   77.49    7.90
  -8  -1   6   81.29    8.20
  -8  -1   6   73.29    8.40
   7   1  -6  194.78   11.70
   7   1  -6  175.78   11.00
   7   1  -6  166.28   12.40
   7   1  -6  173.88   10.90
  -7  -1   6  164.58    9.40
  -7  -1   6  178.68   11.20
  -7  -1   6  184.28   11.70
  -7  -1   6  182.68   11.80
   6   1  -6   12.10    3.60
   6   1  -6    6.90    4.50
   6   1  -6    9.10    3.30
   6   1  -6    8.00    3.50
  -6  -1   6    7.00    2.90
  -6  -1   6   13.50    4.00
  -6  -1   6   11.20    4.10
  -6  -1   6    7.00    3.30
   5   1  -6   29.00    4.60
   5   1  -6   20.60    4.20
   5   1  -6   25.00    4.40
   5   1  -6   23.20    4.90
  -5  -1   6   23.20    3.70
  -5  -1   6   24.30    4.80
  -5  -1   6   20.00    4.00
  -5  -1   6   22.20    4.20
   4   1  -6  240.58   11.80
   4   1  -6  242.68   12.30
   4   1  -6  236.48   11.60
   4   1  -6  240.08   11.60
   4   1  -6  237.18   12.60
  -4  -1   6  243.58   11.90
  -4  -1   6  217.28   11.60
  -4  -1   6  225.58   12.00
  -4  -1   6  227.78   11.40
  -4  -1   6  240.08   11.40
   3   1  -6  304.57   15.10
   3   1  -6  326.27   15.20
   3   1  -6  303.27   14.00
   3   1  -6  306.97   14.20
   3   1  -6  326.77   14.30
  -3  -1   6  330.97   14.50
  -3  -1   6  328.67   14.50
  -3  -1   6  304.47   14.60
  -3  -1   6  321.47   14.10
  -3  -1   6  302.77   14.20
   2   1  -6   67.59    5.90
   2   1  -6   48.30    4.20
   2   1  -6   46.90    4.20
   2   1  -6   55.59    4.30
   2   1  -6   56.09    5.30
  -2  -1   6   51.29    4.80
  -2  -1   6   49.80    4.60
  -2  -1   6   46.80    4.80
  -2  -1   6   51.49    4.10
  -2  -1   6   46.00    4.10
   1   1  -6   54.29    4.40
   1   1  -6   50.39    4.30
   1   1  -6   52.99    4.20
   1   1  -6   52.19    4.20
   1   1  -6   49.30    5.40
  -1  -1   6   49.99    4.60
  -1  -1   6   49.30    4.70
  -1  -1   6   56.59    4.30
  -1  -1   6   52.69    5.20
  -1  -1   6   54.89    4.20
   0   1  -6   14.70    4.30
   0   1  -6   10.10    2.60
   0   1  -6    6.10    2.10
   0   1  -6   11.80    2.60
   0   1  -6    9.30    2.60
   0  -1   6    8.50    3.20
   0  -1   6    8.90    2.10
   0  -1   6    6.90    2.10
   0  -1   6    7.40    2.50
  -1   1  -6  150.58   10.10
  -1   1  -6  161.68    8.50
  -1   1  -6  152.98    9.10
  -1   1  -6  183.68    9.40
  -1   1  -6  165.78    8.60
   1  -1   6  159.28   10.10
   1  -1   6  166.38    9.20
   1  -1   6  158.68    8.50
   1  -1   6  164.68    9.40
   1  -1   6  160.38    8.40
  -2   1  -6   85.39    6.50
  -2   1  -6   85.29    7.80
  -2   1  -6   84.99    6.30
  -2   1  -6   92.29    7.40
   2  -1   6   70.89    7.30
   2  -1   6   77.09    6.20
   2  -1   6   88.29    7.00
   2  -1   6   93.09    6.00
  -3   1  -6   14.60    4.80
  -3   1  -6   10.70    3.50
  -3   1  -6    4.40    3.00
  -3   1  -6   17.70    5.10
   3  -1   6    7.60    3.20
   3  -1   6   13.60    4.80
   3  -1   6   10.00    3.80
  -4   1  -6  174.78   11.00
  -4   1  -6  181.28   11.00
  -4   1  -6  194.48   13.50
   4  -1   6  170.78   11.50
   4  -1   6  166.68   12.80
   4  -1   6  172.38   11.00
  -5   1  -6   30.20    5.90
  -5   1  -6   30.00    7.50
   5  -1   6   23.20    4.40
   5  -1   6   31.80    6.30
   5  -1   6   33.50    6.40
  -6   1  -6   10.50    4.80
  -6   1  -6   15.30    7.00
   6  -1   6   10.90    4.90
   9   0  -6   12.80    4.40
   9   0  -6   -0.40    4.70
  -9   0   6    9.30    4.30
  -9   0   6   -4.80    4.60
   8   0  -6  169.78   12.50
   8   0  -6  212.58   12.40
  -8   0   6  202.88   12.30
  -8   0   6  174.38   12.20
  -8   0   6  217.58   12.90
  -8   0   6  184.68   11.70
   7   0  -6   27.30    4.60
   7   0  -6   44.90    4.80
   7   0  -6   36.70    6.60
   7   0  -6   30.80    5.00
  -7   0   6   17.00    4.10
  -7   0   6   27.80    6.00
  -7   0   6   35.20    5.60
  -7   0   6   22.90    4.70
   6   0  -6   12.50    4.60
   6   0  -6    9.40    3.20
   6   0  -6   18.20    4.20
   6   0  -6   13.80    3.30
  -6   0   6   12.20    3.70
  -6   0   6   11.40    3.90
  -6   0   6    7.90    3.20
  -6   0   6   14.30    4.70
   5   0  -6   10.10    3.10
   5   0  -6    0.10    2.50
   5   0  -6    8.50    4.10
   5   0  -6    3.00    2.60
  -5   0   6    0.30    2.60
  -5   0   6    2.90    2.70
  -5   0   6    1.60    2.70
  -5   0   6    2.30    2.00
  -5   0   6    0.80    2.70
   4   0  -6  403.26   18.00
   4   0  -6  389.86   18.20
   4   0  -6  416.46   17.80
   4   0  -6  409.86   17.60
   4   0  -6  391.36   18.90
  -4   0   6  402.26   18.00
  -4   0   6  407.76   18.10
  -4   0   6  410.76   17.70
  -4   0   6  417.06   18.20
  -4   0   6  395.26   18.30
  -4   0   6  429.26   18.00
   3   0  -6   89.89    5.80
   3   0  -6   98.29    6.00
   3   0  -6   90.29    5.80
   3   0  -6   88.69    6.50
   3   0  -6   94.19    7.10
  -3   0   6   93.29    5.90
  -3   0   6   98.59    6.40
  -3   0   6   94.79    6.60
  -3   0   6  101.69    6.10
  -3   0   6   94.99    6.30
  -3   0   6   93.99    6.60
   2   0  -6   13.00    2.50
   2   0  -6   15.20    2.50
  -2   0   6    9.00    3.00
  -2   0   6   11.30    2.60
  -2   0   6   11.50    2.50
  -2   0   6    8.30    2.00
  -2   0   6   12.60    2.90
   1   0  -6   17.60    2.60
   1   0  -6   17.40    2.40
   1   0  -6   18.80    3.80
   1   0  -6   26.20    3.20
  -1   0   6   26.00    3.40
  -1   0   6   15.60    3.00
  -1   0   6   21.80    3.10
  -1   0   6   17.00    3.60
  -1   0   6   23.90    3.40
   0   0  -6 1572.14   61.79
   0   0  -6 1609.84   59.69
   0   0  -6 1561.44   59.39
   0   0  -6 1575.94   59.59
   0   0  -6 1564.84   59.69
   0   0   6 1581.94   59.79
   0   0   6 1595.24   60.29
   0   0   6 1555.04   59.69
   0   0   6 1494.85   61.09
  -1   0  -6  735.73   29.20
  -1   0  -6  780.92   29.50
  -1   0  -6  668.23   29.70
  -1   0  -6  638.34   30.90
  -1   0  -6  718.43   28.50
   1   0   6  756.12   30.10
   1   0   6  778.62   29.40
   1   0   6  746.73   30.00
   1   0   6  723.93   30.90
   1   0   6  728.53   29.30
  -2   0  -6   14.80    4.30
  -2   0  -6   10.50    2.10
  -2   0  -6    9.70    3.30
  -2   0  -6   12.80    3.50
  -2   0  -6   18.20    5.10
   2   0   6   22.30    5.20
   2   0   6    8.10    2.90
   2   0   6    6.50    2.60
   2   0   6   12.00    4.00
  -3   0  -6   97.19    8.80
  -3   0  -6  104.59    7.70
  -3   0  -6   82.09    7.30
   3   0   6   86.89    7.50
   3   0   6   91.89    8.40
   3   0   6   95.29    8.70
  -4   0  -6  403.46   18.70
  -4   0  -6  372.76   21.20
   4   0   6  380.56   19.40
   4   0   6  378.76   20.50
   4   0   6  399.96   18.80
  -5   0  -6  124.49    9.90
  -5   0  -6  118.09   12.30
   5   0   6  117.29    9.80
   5   0   6  133.29    9.30
   5   0   6  129.59   11.90
   5   0   6  115.09   10.20
  -6   0  -6    7.10    4.50
  -6   0  -6    9.30    6.90
   6   0   6    8.70    5.00
  10  -1  -6   26.90    6.10
  10  -1  -6   24.90    7.40
 -10   1   6   19.50    6.70
   9  -1  -6    2.50    5.70
   9  -1  -6    6.20    3.90
  -9   1   6    7.10    4.20
  -9   1   6   -1.90    4.70
  -9   1   6   -0.30    4.00
   8  -1  -6   14.10    5.80
   8  -1  -6   21.00    4.90
  -8   1   6   13.80    4.40
  -8   1   6   20.90    5.30
  -8   1   6   14.40    4.90
  -8   1   6    5.70    4.60
   7  -1  -6   86.89    9.20
   7  -1  -6   98.99    7.90
  -7   1   6   82.19    8.70
  -7   1   6   91.39    8.00
  -7   1   6   98.49    8.10
  -7   1   6  100.39    8.70
   6  -1  -6  250.27   11.60
   6  -1  -6  260.87   13.10
   6  -1  -6  232.48   14.20
   6  -1  -6  274.07   13.40
  -6   1   6  261.77   14.20
  -6   1   6  271.27   13.80
  -6   1   6  260.07   13.30
  -6   1   6  258.17   13.60
   5  -1  -6   13.90    3.20
   5  -1  -6   15.20    3.30
   5  -1  -6    4.90    2.80
   5  -1  -6   16.30    4.70
  -5   1   6    8.60    2.50
  -5   1   6    7.40    3.50
  -5   1   6    7.50    3.00
  -5   1   6    5.90    3.00
  -5   1   6    6.00    3.50
  -5   1   6    8.80    2.20
   4  -1  -6  286.37   11.80
   4  -1  -6  260.37   11.90
   4  -1  -6  230.38   11.60
   4  -1  -6  267.57   13.60
  -4   1   6  246.78   12.30
  -4   1   6  238.68   12.80
  -4   1   6  223.58   11.80
  -4   1   6  244.28   11.80
  -4   1   6  230.38   12.50
  -4   1   6  244.98   11.70
   3  -1  -6  245.08   11.90
   3  -1  -6  231.88   10.00
   3  -1  -6  247.48   11.20
   3  -1  -6  246.28   11.20
  -3   1   6  238.58   11.80
  -3   1   6  236.28   12.50
  -3   1   6  245.18   11.80
  -3   1   6  237.58   11.20
  -3   1   6  238.38   11.90
   2  -1  -6  240.08   12.90
   2  -1  -6  269.37   11.90
   2  -1  -6  269.37   11.90
  -2   1   6  277.27   12.60
  -2   1   6  265.67   12.10
  -2   1   6  265.67   13.30
  -2   1   6  263.17   12.00
  -2   1   6  262.57   12.40
   1  -1  -6   73.19    5.90
   1  -1  -6   57.99    4.30
   1  -1  -6   52.99    4.50
  -1   1   6   51.59    4.40
  -1   1   6   52.49    4.70
  -1   1   6   42.60    5.30
  -1   1   6   49.40    5.00
  -1   1   6   53.49    4.30
   0  -1  -6  166.78    8.80
   0  -1  -6  158.18    8.10
   0  -1  -6  201.08    8.80
   0  -1  -6  184.98    8.90
   0   1   6  156.38   10.20
   0   1   6  163.98    9.50
   0   1   6  165.68    8.90
   0   1   6  179.38    8.90
  -1  -1  -6   10.20    2.90
  -1  -1  -6   12.60    3.00
  -1  -1  -6   11.40    3.30
  -1  -1  -6    7.90    1.80
   1   1   6   11.10    3.60
   1   1   6   11.40    4.30
   1   1   6    9.70    2.70
   1   1   6   10.50    3.10
   1   1   6   12.60    2.90
  -2  -1  -6  161.28   11.40
  -2  -1  -6  147.49   10.00
  -2  -1  -6  152.28    9.00
   2   1   6  146.69    9.90
   2   1   6  146.39    9.10
   2   1   6  149.59   10.90
  -3  -1  -6    5.80    4.40
  -3  -1  -6    2.40    3.10
   3   1   6    3.00    3.50
   3   1   6    5.10    3.90
   3   1   6    2.90    5.10
  -4  -1  -6  106.19    8.60
  -4  -1  -6   98.39   10.10
   4   1   6   99.79    9.40
   4   1   6  103.79    8.80
   4   1   6  106.89    8.30
   4   1   6   93.19   10.30
  -5  -1  -6   27.60    7.50
  -5  -1  -6   22.40    5.40
   5   1   6   20.70    5.60
   5   1   6   17.80    7.00
   5   1   6   22.10    5.90
   5   1   6   21.60    5.50
  10  -2  -6  115.09   12.10
 -10   2   6  132.09   15.40
   9  -2  -6  167.78   13.90
   9  -2  -6  247.08   13.40
  -9   2   6  211.08   12.90
  -9   2   6  181.08   13.80
  -9   2   6  205.68   13.30
  -9   2   6  232.38   13.90
   8  -2  -6   21.10    4.40
   8  -2  -6   14.80    5.50
  -8   2   6   16.10    4.70
  -8   2   6   13.80    5.10
  -8   2   6   12.00    5.60
  -8   2   6   24.60    5.70
   7  -2  -6  128.89    8.70
   7  -2  -6  140.99   11.00
  -7   2   6  113.89    9.40
  -7   2   6  111.29    9.80
  -7   2   6  126.19    9.50
  -7   2   6  107.09    8.40
   6  -2  -6  105.19    9.30
   6  -2  -6  120.69    7.90
  -6   2   6  119.19    8.10
  -6   2   6  110.19    8.60
  -6   2   6  107.59    8.90
  -6   2   6  120.79    8.60
   5  -2  -6  237.58   11.10
   5  -2  -6  233.68   11.30
   5  -2  -6  239.88   11.40
  -5   2   6  214.58   12.50
  -5   2   6  212.58   11.30
  -5   2   6  219.88   12.90
  -5   2   6  234.18   15.00
  -5   2   6  231.58   12.10
   4  -2  -6    8.00    2.40
  -4   2   6    6.50    2.80
  -4   2   6   13.40    2.70
  -4   2   6    3.90    2.80
  -4   2   6    4.00    3.10
  -4   2   6    6.00    2.50
  -4   2   6    5.10    2.00
   3  -2  -6  197.28    9.70
   3  -2  -6  241.08   11.00
  -3   2   6  204.98   10.00
  -3   2   6  201.48   10.50
  -3   2   6  192.28   10.50
  -3   2   6  187.28   11.40
  -3   2   6  193.48   10.00
  -3   2   6  207.98    9.80
   2  -2  -6  192.08    9.50
  -2   2   6  195.18   10.30
  -2   2   6  199.78    9.70
  -2   2   6  207.08    9.60
  -2   2   6  198.58    9.80
  -2   2   6  194.88   11.60
  -2   2   6  204.28   10.10
   1  -2  -6   94.19    6.00
   1  -2  -6   95.79    6.20
  -1   2   6   97.99    8.10
  -1   2   6  100.99    6.10
  -1   2   6   94.79    6.00
  -1   2   6  105.49    6.10
  -1   2   6   98.79    6.20
  -1   2   6   95.19    6.80
   0  -2  -6   34.10    3.20
   0  -2  -6   45.00    4.60
   0   2   6   39.60    6.10
   0   2   6   36.00    4.30
   0   2   6   39.20    5.20
   0   2   6   44.10    6.40
  -1  -2  -6   45.60    4.90
   1   2   6   40.50    4.60
   1   2   6   46.70    7.00
   1   2   6   47.10    5.90
  -2  -2  -6  203.08   11.20
   2   2   6  217.08   13.50
   2   2   6  207.18   11.50
   2   2   6  218.48   12.50
  -3  -2  -6   24.00    4.50
   3   2   6   34.40    5.80
   3   2   6   39.50    6.50
   3   2   6   41.80    7.50
  -4  -2  -6    5.30    4.20
   4   2   6    7.40    5.10
   4   2   6    6.50    4.90
   4   2   6    3.90    4.00
   4   2   6   10.40    5.80
   5   2   6   51.89    8.90
   5   2   6   56.59    8.30
   5   2   6   62.99    8.70
 -10   3   6  233.58   14.80
 -10   3   6  192.28   20.90
 -10   3   6  197.48   14.50
   9  -3  -6  140.49   10.40
  -9   3   6  129.39   12.80
  -9   3   6  107.09   11.30
  -9   3   6  157.48   11.40
  -9   3   6  141.19   11.90
  -9   3   6  150.58   10.60
   8  -3  -6   90.39    7.80
  -8   3   6   80.99    9.20
  -8   3   6   77.19    8.10
  -8   3   6   72.69    7.60
  -8   3   6   60.09    8.60
  -8   3   6   67.99    8.60
   7  -3  -6  139.99    8.80
  -7   3   6  115.69   10.20
  -7   3   6  122.49    8.70
  -7   3   6  122.49   10.50
  -7   3   6  130.99   10.00
  -7   3   6  138.09    9.70
   6  -3  -6  211.18   11.00
  -6   3   6  206.18   12.70
  -6   3   6  199.88   12.80
  -6   3   6  213.58   11.90
  -6   3   6  217.38   11.30
   5  -3  -6  258.17   12.20
  -5   3   6  269.57   13.30
  -5   3   6  253.87   14.50
  -5   3   6  264.87   12.60
  -5   3   6  244.68   13.80
   4  -3  -6   23.90    3.40
   4  -3  -6   22.00    3.30
  -4   3   6   21.80    5.50
  -4   3   6   19.90    3.30
  -4   3   6   23.50    4.50
  -4   3   6   21.50    4.00
  -4   3   6   22.60    5.00
   3  -3  -6    6.40    2.30
   3  -3  -6    6.20    2.00
  -3   3   6    7.60    3.00
  -3   3   6    9.40    2.40
  -3   3   6    6.10    2.20
  -3   3   6    6.50    4.30
  -3   3   6    8.00    3.20
  -3   3   6    8.60    2.60
   2  -3  -6   11.30    2.60
   2  -3  -6    9.70    2.40
  -2   3   6    8.80    4.00
  -2   3   6    9.30    3.00
  -2   3   6   10.30    2.60
  -2   3   6    9.90    2.40
  -2   3   6    7.60    3.00
   1  -3  -6   22.80    3.30
  -1   3   6   17.90    3.10
  -1   3   6   28.90    3.90
  -1   3   6   22.20    4.00
  -1   3   6   19.50    5.40
   0  -3  -6   24.20    3.40
   0   3   6   37.20    6.50
   0   3   6   34.20    5.00
   0   3   6   31.30    4.10
  -1  -3  -6   23.50    3.80
   1   3   6   31.20    4.50
   1   3   6   41.60    5.60
   1   3   6   30.70    6.60
   2   3   6  261.27   14.40
   2   3   6  243.58   13.30
   2   3   6  262.87   15.50
   3   3   6   83.99    9.80
   3   3   6   65.99    8.30
   3   3   6   69.89    8.20
   3   3   6   74.29    7.50
   4   3   6   46.90    7.80
   4   3   6   44.10    7.10
   4   3   6   58.69    8.50
   4   3   6   52.79    8.70
  -9   4   6   47.70    8.10
  -9   4   6   63.09    9.00
  -9   4   6   52.29    6.60
  -9   4   6   80.09    8.60
  -8   4   6  148.29   12.00
  -8   4   6  172.78   10.70
  -8   4   6  188.08   11.80
  -8   4   6  173.58   13.20
  -7   4   6    5.70    5.00
  -7   4   6   -3.70    2.70
  -7   4   6    2.60    4.70
  -7   4   6    1.50    3.50
   6  -4  -6  310.97   15.40
  -6   4   6  267.17   15.40
  -6   4   6  300.47   14.70
  -6   4   6  255.07   16.00
  -6   4   6  280.97   13.70
   5  -4  -6   43.20    4.50
  -5   4   6   36.80    6.50
  -5   4   6   48.10    5.10
  -5   4   6   40.70    6.20
  -5   4   6   47.80    5.60
   4  -4  -6  167.08    8.70
  -4   4   6  177.68    9.20
  -4   4   6  181.78   10.70
  -4   4   6  179.58   12.40
  -4   4   6  172.28    9.80
   3  -4  -6  369.76   15.80
  -3   4   6  371.06   16.10
  -3   4   6  385.66   19.50
  -3   4   6  352.66   16.80
  -3   4   6  389.16   17.30
   2  -4  -6   25.60    3.70
  -2   4   6   25.90    3.60
  -2   4   6   30.10    4.20
  -2   4   6   24.80    6.00
  -2   4   6   28.40    4.50
  -1   4   6  503.45   23.60
  -1   4   6  474.85   21.20
  -1   4   6  476.45   20.40
   0   4   6  274.07   15.80
   0   4   6  264.57   12.90
   0   4   6  260.27   13.80
   1   4   6    5.30    5.20
   1   4   6    2.00    3.60
   1   4   6   -3.20    2.70
   2   4   6   13.00    4.20
   2   4   6    6.90    5.50
   2   4   6   11.20    4.30
   3   4   6   18.00    6.50
   3   4   6   22.80    5.50
   3   4   6   22.20    6.10
   3   4   6   19.60    4.90
  -9   5   6   36.20    6.20
  -9   5   6   23.10    5.10
  -9   5   6   26.30    7.10
  -9   5   6    8.20    8.90
  -8   5   6  100.79    8.50
  -8   5   6   88.69    7.70
  -8   5   6   58.69    8.70
  -8   5   6   84.09   10.40
  -7   5   6   11.20    5.40
  -7   5   6   15.90    4.40
  -7   5   6   12.10    3.70
  -7   5   6   16.20    5.80
  -6   5   6    1.00    3.20
  -6   5   6   -3.10    3.80
  -6   5   6   -3.40    2.60
  -6   5   6   -4.10    5.10
  -5   5   6   13.50    6.10
  -5   5   6    9.80    4.50
  -5   5   6   10.70    3.10
  -5   5   6   11.60    3.80
  -4   5   6  255.17   15.40
  -4   5   6  251.87   13.40
  -4   5   6  241.58   11.50
  -4   5   6  240.88   12.50
  -3   5   6   85.89    6.70
  -3   5   6   91.69    9.30
  -3   5   6   96.89    7.40
  -3   5   6   89.79    6.00
  -2   5   6   70.29    5.40
  -2   5   6   76.79    9.40
  -2   5   6   70.59    6.30
  -1   5   6  161.48   12.20
  -1   5   6  140.19    8.30
  -1   5   6  144.29    9.20
   0   5   6   56.29    5.70
   0   5   6   60.09    6.50
   0   5   6   58.59    8.70
   1   5   6   62.59    6.30
   1   5   6   52.49    6.70
   1   5   6   75.39    9.60
   2   5   6   -0.80    5.50
   2   5   6    4.30    6.30
   2   5   6    8.20    3.80
  -8   6   6   56.19    7.10
  -8   6   6   61.49    9.90
  -8   6   6   62.39    6.50
  -8   6   6   48.60    8.20
  -7   6   6  196.68   13.90
  -7   6   6  210.78   12.20
  -7   6   6  213.48   11.20
  -7   6   6  222.08   15.80
  -6   6   6  246.18   14.80
  -6   6   6  240.78   12.90
  -6   6   6  271.07   17.20
  -6   6   6  233.68   11.80
  -5   6   6  113.19    8.10
  -5   6   6  116.49    9.80
  -5   6   6  116.09    7.00
  -5   6   6  115.79   11.80
  -4   6   6   18.50    3.10
  -4   6   6   18.60    3.90
  -4   6   6   19.00    6.70
  -4   6   6   27.40    5.20
  -3   6   6   61.69    5.00
  -3   6   6   63.19    6.00
  -3   6   6   66.59    9.70
  -2   6   6   11.00    6.10
  -2   6   6   14.10    3.10
  -2   6   6   10.90    3.60
  -1   6   6   34.40    5.30
  -1   6   6   40.30    7.90
  -1   6   6   39.50    4.70
   0   6   6   -3.50    5.30
   0   6   6   -0.10    3.40
   0   6   6    6.00    3.20
  -7   7   6  116.99    7.70
  -7   7   6  152.38   11.70
  -6   7   6  100.69   13.00
  -6   7   6   90.99    6.90
  -6   7   6   93.79    9.40
  -6   7   6   73.79    7.40
  -5   7   6   -1.60    5.90
  -5   7   6   -2.50    2.80
  -5   7   6    3.70    4.40
  -4   7   6   49.70    8.80
  -4   7   6   33.10    4.80
  -3   7   6   46.10    9.00
  -3   7   6   35.70    5.00
  -2   7   6  107.79   11.90
   2   9  -7  235.68   15.80
   2   9  -7  241.78   11.70
   1   9  -7   73.79   11.80
   1   9  -7   58.49    8.20
   1   9  -7   63.49    5.90
   1   9  -7   65.19    5.40
   0   9  -7   44.70   11.50
   0   9  -7   32.00    4.30
   0   9  -7   33.00    4.20
   0   9  -7   27.20    7.70
   0   9  -7   32.50    6.20
  -1   9  -7   41.20   10.80
  -1   9  -7   26.50    3.70
  -1   9  -7   47.30    9.90
  -1   9  -7   28.80    4.20
  -2   9  -7  226.08   16.90
  -2   9  -7  200.58   10.20
  -2   9  -7  219.98   17.70
  -2   9  -7  190.68   10.60
  -3   9  -7  124.49   13.10
  -3   9  -7  133.29   14.70
  -3   9  -7  116.19    7.60
  -3   9  -7  111.49    8.00
  -4   9  -7   -1.80    3.00
  -4   9  -7   -6.40    3.50
  -4   9  -7    0.60    8.30
  -4   9  -7  -11.80    5.60
   4   8  -7  243.68   12.70
   3   8  -7    6.40    5.20
   3   8  -7   13.10    7.10
   3   8  -7   15.90    3.60
   3   8  -7   11.40    3.70
   2   8  -7  103.99    7.10
   2   8  -7  142.29   11.20
   2   8  -7  116.39   12.30
   2   8  -7  114.09    7.80
   1   8  -7    3.60    5.20
   1   8  -7    7.50    3.20
   1   8  -7    9.00    4.70
   1   8  -7    2.60    2.60
   0   8  -7    0.80    2.50
   0   8  -7    6.20    6.60
   0   8  -7    4.50    2.80
   0   8  -7    4.70    5.80
   0   8  -7    8.30    4.00
  -1   8  -7    0.40    2.50
  -1   8  -7    4.10    6.00
  -1   8  -7   -4.20    2.40
  -1   8  -7    1.30    6.50
  -2   8  -7   94.19   12.10
  -2   8  -7  102.69   11.60
  -2   8  -7   95.39    6.70
  -2   8  -7   92.79    6.90
  -3   8  -7  139.29    8.40
  -3   8  -7  137.99    8.70
  -3   8  -7  139.09   13.40
  -3   8  -7  131.39   13.00
  -4   8  -7   -0.40    5.80
  -4   8  -7    1.20    5.80
  -4   8  -7    2.30    3.50
  -4   8  -7    1.60    3.20
  -5   8  -7    9.90    4.20
  -5   8  -7   19.30    8.60
  -5   8  -7    8.50    7.00
  -5   8  -7   20.70    5.20
   5   7  -7  304.17   20.20
   5   7  -7  289.37   20.40
   5   7  -7  271.47   14.60
   5   7  -7  300.77   16.00
   4   7  -7   20.30    4.10
   4   7  -7   11.10    5.50
   4   7  -7   28.70    8.20
   4   7  -7   30.40    5.20
   3   7  -7    2.90    4.50
   3   7  -7    5.10    5.20
   3   7  -7    8.80    3.10
   3   7  -7    7.60    3.40
   2   7  -7   63.19    6.00
   2   7  -7   53.69    9.10
   2   7  -7   71.29    8.20
   2   7  -7   63.69    5.50
   1   7  -7   76.39    5.90
   1   7  -7   77.29    9.50
   1   7  -7   79.59    6.30
   1   7  -7   81.89    8.10
   0   7  -7   88.89    6.40
   0   7  -7   66.69    5.80
   0   7  -7   71.09    7.20
   0   7  -7   96.89   11.20
   0   7  -7   81.49    9.60
  -1   7  -7    9.00    5.40
  -1   7  -7    3.30    2.80
  -1   7  -7    1.60    3.40
  -1   7  -7    4.20    2.90
  -1   7  -7   11.20    6.00
  -2   7  -7  386.66   22.20
  -2   7  -7  401.56   18.00
  -2   7  -7  417.16   17.80
  -2   7  -7  409.66   23.40
  -3   7  -7  294.47   13.90
  -3   7  -7  278.47   19.10
  -3   7  -7  287.67   18.30
  -3   7  -7  284.57   14.10
  -4   7  -7   61.69   10.10
  -4   7  -7   60.29    6.70
  -4   7  -7   44.30    5.50
  -4   7  -7   61.49   10.30
  -5   7  -7   33.10    8.40
  -5   7  -7   37.70    5.80
  -5   7  -7   34.20    5.90
  -5   7  -7   37.90    9.40
  -6   7  -7   -1.90    4.20
  -6   7  -7   -2.00    5.00
  -6   7  -7   -0.30    7.40
  -6   7  -7   -5.10    4.30
  -6   7  -7   -1.40    5.40
   6   6  -7   71.39   11.20
   6   6  -7   57.29   11.80
   6   6  -7   66.69    7.20
   6   6  -7   48.90    6.90
   5   6  -7  102.19    8.50
   5   6  -7   68.69    9.00
   5   6  -7   84.79   10.30
   5   6  -7   90.59    7.50
   4   6  -7  179.98   12.70
   4   6  -7  186.28   10.40
   4   6  -7  169.48   14.30
   4   6  -7  191.48   11.20
   3   6  -7    6.10    4.90
   3   6  -7   11.20    3.50
   3   6  -7   11.70    3.20
   3   6  -7   10.90    5.30
   2   6  -7   60.29    8.30
   2   6  -7   61.79    7.40
   2   6  -7   49.00    5.10
   2   6  -7   55.29    5.60
  -2  -6   7   54.99    4.70
   1   6  -7    0.50    3.60
   1   6  -7    4.70    4.40
   1   6  -7    7.10    2.70
   1   6  -7    3.00    2.40
  -1  -6   7    6.40    2.40
   0   6  -7  119.99   10.70
   0   6  -7  128.09    8.70
   0   6  -7  130.09    7.70
   0   6  -7  126.89    7.60
   0   6  -7  134.79   12.30
   0  -6   7  127.79    7.20
  -1   6  -7   41.70    4.80
  -1   6  -7   52.09    8.60
  -1   6  -7   42.00    8.00
  -1   6  -7   43.10    4.70
  -1   6  -7   43.90    5.20
   1  -6   7   36.80    4.20
  -2   6  -7   73.59    6.30
  -2   6  -7   86.39    6.50
  -2   6  -7   86.99   10.10
  -2   6  -7   77.59    9.10
  -2   6  -7   76.39    7.10
   2  -6   7   75.39    6.00
  -3   6  -7   74.19    6.70
  -3   6  -7   75.19    9.40
  -3   6  -7   68.99    6.60
  -3   6  -7   81.59    9.40
   3  -6   7   71.79    6.20
  -4   6  -7  298.77   15.00
  -4   6  -7  278.07   18.20
  -4   6  -7  304.87   19.50
  -4   6  -7  309.07   15.40
   4  -6   7  314.67   15.10
  -5   6  -7  151.18   14.20
  -5   6  -7  144.19   10.30
  -5   6  -7  165.78   13.40
  -5   6  -7  129.19   10.30
  -6   6  -7   -4.50    5.30
  -6   6  -7   -3.60    5.30
  -6   6  -7   -6.30    4.20
  -6   6  -7   -2.50    4.00
  -6   6  -7   -6.40    4.10
   7   5  -7   96.59   11.30
   7   5  -7   83.39    9.10
   6   5  -7    8.20    5.10
   6   5  -7    3.70    5.00
   6   5  -7    4.80    3.80
   6   5  -7    8.90    4.10
   5   5  -7   12.20    4.00
   5   5  -7    7.90    5.40
   5   5  -7   16.00    4.30
   5   5  -7   11.30    5.20
  -5  -5   7    9.60    3.20
   4   5  -7   50.79    6.20
   4   5  -7   44.50    6.90
   4   5  -7   39.80    5.00
   4   5  -7   48.90    8.50
  -4  -5   7   49.20    5.30
   3   5  -7  311.67   15.00
   3   5  -7  307.97   18.10
   3   5  -7  284.67   15.90
   3   5  -7  306.97   14.40
  -3  -5   7  311.67   14.20
   2   5  -7  609.94   25.20
   2   5  -7  597.54   28.80
   2   5  -7  604.64   25.50
   2   5  -7  624.64   27.00
  -2  -5   7  612.34   25.00
   1   5  -7  104.49    9.60
   1   5  -7  117.19    8.40
   1   5  -7  111.59    7.00
   1   5  -7  113.99    7.30
  -1  -5   7  111.09    6.60
   0   5  -7  213.28   14.30
   0   5  -7  199.68   13.70
   0   5  -7  213.28   10.40
   0   5  -7  204.08   11.10
   0   5  -7  196.58   10.40
   0  -5   7  202.88   10.00
  -1   5  -7  113.29   10.40
  -1   5  -7  119.89    7.40
  -1   5  -7  122.49    7.40
  -1   5  -7  116.09   10.50
  -1   5  -7  115.99    7.70
   1  -5   7  112.19    7.00
  -2   5  -7   22.10    6.50
  -2   5  -7   26.10    6.50
  -2   5  -7   21.50    4.00
  -2   5  -7   21.10    3.80
   2  -5   7   23.00    3.70
  -3   5  -7   11.30    3.60
  -3   5  -7   12.10    3.70
   3  -5   7    6.90    3.30
  -4   5  -7   32.70    7.50
  -4   5  -7   27.50    5.10
  -4   5  -7   24.80    4.70
  -4   5  -7   39.90    8.30
   4  -5   7   25.90    4.80
  -5   5  -7   81.39   10.40
  -5   5  -7   65.89    7.80
  -5   5  -7   66.59    7.90
  -5   5  -7   78.49   10.30
  -6   5  -7   24.20    5.50
  -6   5  -7   20.30    5.90
  -6   5  -7   26.00    6.10
  -6   5  -7   30.30    9.30
  -6   5  -7   16.50    6.90
   6  -5   7   30.80    6.10
   7   4  -7   88.89    9.80
   7   4  -7   86.39    8.20
   7   4  -7   89.49   10.10
   7   4  -7   98.29    9.30
  -7  -4   7   80.29    9.10
  -7  -4   7   95.09    8.40
   6   4  -7   56.29    8.60
   6   4  -7   61.99    8.50
   6   4  -7   69.69    7.20
   6   4  -7   63.39    7.40
  -6  -4   7   68.79    7.30
  -6  -4   7   49.80    7.40
   5   4  -7  143.09   11.10
   5   4  -7  157.98    9.90
   5   4  -7  163.58   10.60
   5   4  -7  161.78   12.30
  -5  -4   7  168.48    9.80
   4   4  -7   56.29    5.80
   4   4  -7   57.29    6.40
   4   4  -7   54.79    7.20
   4   4  -7   59.39    8.40
  -4  -4   7   58.09    5.60
   3   4  -7  370.56   17.20
   3   4  -7  373.16   18.50
   3   4  -7  361.06   19.40
   3   4  -7  367.06   16.80
  -3  -4   7  389.46   16.50
  -3  -4   7  365.96   16.60
  -3  -4   7  384.16   17.00
   2   4  -7  132.69   10.20
   2   4  -7  133.99    8.20
   2   4  -7  141.59    8.50
   2   4  -7  135.09    9.10
   2   4  -7  145.59    8.10
  -2  -4   7  130.29    7.70
  -2  -4   7  138.09    8.10
  -2  -4   7  141.19    8.60
   1   4  -7   28.80    3.70
   1   4  -7   28.10    4.60
   1   4  -7   26.70    3.80
   1   4  -7   35.30    6.10
   1   4  -7   38.60    4.50
  -1  -4   7   33.60    4.20
  -1  -4   7   36.40    4.00
  -1  -4   7   31.00    5.20
   0   4  -7   63.69    5.60
   0   4  -7   81.89    5.90
   0   4  -7   80.19    5.70
   0   4  -7   77.29    7.90
   0   4  -7   91.09    8.50
   0   4  -7   76.99    6.40
   0  -4   7   71.99    5.80
   0  -4   7   58.49    7.10
   0  -4   7   76.39    5.50
  -1   4  -7   97.09    6.60
  -1   4  -7   97.79    7.40
  -1   4  -7   86.19    8.70
  -1   4  -7  103.69    6.70
  -1   4  -7   89.99    8.70
   1  -4   7   98.09    6.90
   1  -4   7   98.09    8.90
   1  -4   7   95.19    6.40
  -2   4  -7  109.89    9.60
  -2   4  -7  105.29    7.30
  -2   4  -7  105.69    7.40
  -2   4  -7   98.49    9.50
   2  -4   7  106.79    7.10
   2  -4   7   99.29    9.20
   2  -4   7  101.79    7.60
  -3   4  -7   21.40    4.40
  -3   4  -7   24.20    6.30
  -3   4  -7   28.60    6.50
  -3   4  -7   17.00    4.10
   3  -4   7   24.10    4.50
  -4   4  -7  277.57   14.40
  -4   4  -7  272.27   14.20
  -4   4  -7  244.98   16.10
  -4   4  -7  268.17   17.20
   4  -4   7  272.17   14.00
  -5   4  -7  257.67   17.70
  -5   4  -7  269.17   17.20
  -5   4  -7  289.07   15.10
  -5   4  -7  273.17   15.20
   5  -4   7  266.07   14.80
  -6   4  -7   71.59   10.80
  -6   4  -7   76.39    9.20
  -6   4  -7   85.99    7.90
  -6   4  -7   80.19    8.90
  -6   4  -7   69.49   11.30
   6  -4   7   85.59    8.70
   8   3  -7   20.80    6.60
   8   3  -7   22.70    5.20
   8   3  -7   15.70    8.60
   8   3  -7   18.20    5.60
  -8  -3   7    7.20    5.10
  -8  -3   7   27.90    5.90
   7   3  -7   46.40    6.40
   7   3  -7   42.80    7.60
   7   3  -7   54.79    7.40
   7   3  -7   36.80    7.00
  -7  -3   7   53.79    7.00
  -7  -3   7   25.20    6.10
   6   3  -7  177.68   11.20
   6   3  -7  177.68   12.50
   6   3  -7  189.98   12.70
   6   3  -7  190.48   12.00
  -6  -3   7  198.28   11.40
  -6  -3   7  177.48   12.00
   5   3  -7  148.19    9.60
   5   3  -7  165.58   10.30
   5   3  -7  146.89   10.70
   5   3  -7  156.58   11.10
  -5  -3   7  137.79   10.00
  -5  -3   7  144.79    7.90
  -5  -3   7  163.48    9.60
   4   3  -7   37.20    6.40
   4   3  -7   37.00    4.90
   4   3  -7   22.70    3.90
   4   3  -7   29.10    5.70
  -4  -3   7   25.80    3.70
  -4  -3   7   29.80    4.40
  -4  -3   7   35.10    5.80
  -4  -3   7   24.30    4.00
   3   3  -7   32.60    5.40
   3   3  -7   34.90    4.60
   3   3  -7   35.20    4.40
   3   3  -7   33.50    4.20
   3   3  -7   33.60    5.70
  -3  -3   7   30.70    4.00
  -3  -3   7   32.70    5.30
  -3  -3   7   29.40    4.10
  -3  -3   7   34.10    4.50
   2   3  -7  380.26   18.30
   2   3  -7  392.56   17.60
   2   3  -7  393.06   17.20
   2   3  -7  407.56   17.50
   2   3  -7  377.26   19.50
  -2  -3   7  408.36   17.60
  -2  -3   7  398.26   17.90
  -2  -3   7  393.16   17.10
   1   3  -7  380.66   17.60
   1   3  -7  374.96   16.80
   1   3  -7  399.66   17.20
   1   3  -7  367.26   18.90
   1   3  -7  392.56   19.40
   1   3  -7  379.46   16.70
  -1  -3   7  396.16   17.20
  -1  -3   7  385.16   17.90
  -1  -3   7  387.06   16.60
   0   3  -7   26.80    3.80
   0   3  -7   23.50    3.70
   0   3  -7   25.10    5.30
   0   3  -7   30.30    5.20
   0   3  -7   14.20    3.10
   0   3  -7   21.50    4.10
   0  -3   7   15.90    3.40
   0  -3   7   16.80    4.60
   0  -3   7   15.90    3.10
  -1   3  -7   36.10    6.50
  -1   3  -7   36.70    4.90
  -1   3  -7   34.00    4.20
  -1   3  -7   38.10    5.80
  -1   3  -7   35.30    4.30
   1  -3   7   40.50    6.60
   1  -3   7   44.90    5.20
   1  -3   7   36.20    4.30
  -2   3  -7  101.49    8.70
  -2   3  -7   96.29    7.10
  -2   3  -7  102.79    9.40
  -2   3  -7  100.09    7.20
   2  -3   7   85.19    9.10
   2  -3   7   95.29    7.40
   2  -3   7  103.89    7.20
  -3   3  -7   -1.20    4.10
  -3   3  -7   -1.60    3.20
  -3   3  -7   -3.80    3.20
  -3   3  -7    2.70    4.30
   3  -3   7   -3.50    2.90
   3  -3   7   -4.60    4.70
   3  -3   7    0.00    3.00
  -4   3  -7   14.60    5.80
  -4   3  -7   11.10    4.40
  -4   3  -7    8.10    4.30
  -4   3  -7   24.90    7.00
   4  -3   7   10.10    4.20
  -5   3  -7   13.40    6.50
  -5   3  -7    5.20    4.80
  -5   3  -7    5.60    4.50
  -5   3  -7   -2.30    3.80
   5  -3   7    0.50    4.30
  -6   3  -7  261.07   15.20
  -6   3  -7  245.18   17.90
   6  -3   7  241.38   14.80
   9   2  -7   15.40    8.10
  -9  -2   7   23.00    6.20
  -9  -2   7   28.50    6.20
   8   2  -7    5.40    3.70
   8   2  -7   -0.40    5.00
  -8  -2   7    7.00    4.10
  -8  -2   7    5.00    5.10
   7   2  -7   39.80    6.40
   7   2  -7   38.40    7.20
   7   2  -7   48.90    6.50
   7   2  -7   45.80    6.30
  -7  -2   7   46.50    7.30
  -7  -2   7   46.50    6.70
   6   2  -7  196.48   12.20
   6   2  -7  212.38   12.00
   6   2  -7  200.98   12.10
   6   2  -7  184.28   12.70
  -6  -2   7  181.08   12.30
  -6  -2   7  208.68   11.80
  -6  -2   7  195.18   10.10
  -6  -2   7  220.88   13.70
   5   2  -7   61.89    7.70
   5   2  -7   70.19    6.80
   5   2  -7   71.29    6.90
   5   2  -7   61.69    6.50
  -5  -2   7   58.09    6.40
  -5  -2   7   51.59    5.90
  -5  -2   7   60.59    7.40
  -5  -2   7   44.70    5.00
   4   2  -7   11.00    4.20
   4   2  -7   20.40    4.00
   4   2  -7   17.40    3.50
   4   2  -7   20.50    3.90
   4   2  -7   22.10    4.90
  -4  -2   7   15.00    3.40
  -4  -2   7   11.90    3.30
  -4  -2   7   18.00    3.80
  -4  -2   7   14.10    4.10
   3   2  -7  111.19    7.10
   3   2  -7  103.79    8.00
   3   2  -7  127.89    8.90
   3   2  -7  121.79    7.40
   3   2  -7  105.09    7.10
  -3  -2   7  105.49    7.00
  -3  -2   7  102.29    7.60
  -3  -2   7  110.39    7.30
  -3  -2   7  106.29    7.40
   2   2  -7  643.94   27.90
   2   2  -7  658.13   26.70
   2   2  -7  679.73   26.90
   2   2  -7  659.83   27.10
   2   2  -7  669.33   29.00
  -2  -2   7  634.24   27.50
  -2  -2   7  648.94   26.60
  -2  -2   7  679.43   27.20
  -2  -2   7  635.34   27.50
   1   2  -7  451.05   19.00
   1   2  -7  474.25   19.60
   1   2  -7  419.86   20.10
   1   2  -7  424.56   20.00
   1   2  -7  447.16   19.00
   1   2  -7  414.46   21.10
  -1  -2   7  462.65   19.00
  -1  -2   7  460.25   19.60
  -1  -2   7  471.95   20.50
   0   2  -7  221.98   10.80
   0   2  -7  224.18   10.80
   0   2  -7  201.98   12.70
   0   2  -7  208.18   11.70
   0   2  -7  234.68   11.30
   0  -2   7  228.48   10.80
   0  -2   7  211.28   12.30
   0  -2   7  224.58   11.40
  -1   2  -7   89.29    6.40
  -1   2  -7   84.29    7.10
  -1   2  -7   86.29    8.30
  -1   2  -7   89.29    6.40
  -1   2  -7   92.69    6.70
   1  -2   7   84.49    6.40
   1  -2   7   86.09    7.00
   1  -2   7   81.69    7.70
  -2   2  -7    9.30    3.10
  -2   2  -7   10.20    3.40
  -2   2  -7   17.30    4.80
  -2   2  -7   21.30    5.90
   2  -2   7   12.50    3.90
   2  -2   7   12.90    5.30
   2  -2   7   13.80    3.60
  -3   2  -7  284.07   16.60
  -3   2  -7  294.57   14.80
  -3   2  -7  284.57   17.00
  -3   2  -7  318.17   15.20
   3  -2   7  314.07   15.80
   3  -2   7  280.67   16.80
   3  -2   7  303.77   14.80
  -4   2  -7  338.87   16.60
  -4   2  -7  320.07   19.00
  -4   2  -7  345.17   16.80
  -4   2  -7  290.87   18.10
   4  -2   7  309.37   19.00
   4  -2   7  338.67   16.70
   4  -2   7  344.97   18.70
  -5   2  -7    4.00    4.20
  -5   2  -7    8.60    6.00
   5  -2   7    2.10    3.90
  -6   2  -7  101.39    9.80
  -6   2  -7  101.49   12.30
   6  -2   7   82.19    9.50
   9   1  -7  153.18   13.10
   9   1  -7  200.98   12.70
  -9  -1   7  153.88   12.80
  -9  -1   7  206.08   13.00
   8   1  -7   73.09    8.20
   8   1  -7   40.70    7.60
  -8  -1   7   75.59    8.40
  -8  -1   7   43.20    7.30
   7   1  -7  142.49    9.60
   7   1  -7  140.19   11.80
   7   1  -7  155.08   10.70
   7   1  -7  163.28   10.40
  -7  -1   7  147.59   10.20
  -7  -1   7  161.78   11.10
  -7  -1   7  137.79    8.80
  -7  -1   7  129.69   10.40
   6   1  -7  226.88   14.20
   6   1  -7  246.38   13.20
   6   1  -7  249.08   13.20
   6   1  -7  259.37   13.70
  -6  -1   7  222.98   13.80
  -6  -1   7  244.68   13.10
  -6  -1   7  256.27   13.70
  -6  -1   7  247.48   12.40
   5   1  -7   40.10    5.30
   5   1  -7   42.50    5.70
   5   1  -7   49.99    5.80
   5   1  -7   42.40    6.70
  -5  -1   7   32.90    4.80
  -5  -1   7   31.00    5.50
  -5  -1   7   40.40    5.10
  -5  -1   7   44.00    5.80
   4   1  -7  160.08    9.10
   4   1  -7  158.08    9.20
   4   1  -7  160.08   10.40
   4   1  -7  166.58   10.00
  -4  -1   7  145.89    9.90
  -4  -1   7  163.78    9.20
  -4  -1   7  153.08    9.30
  -4  -1   7  161.88    9.50
   3   1  -7  361.16   17.90
   3   1  -7  383.76   17.90
   3   1  -7  376.36   16.50
   3   1  -7  363.66   16.30
  -3  -1   7  372.36   16.40
  -3  -1   7  358.46   17.00
  -3  -1   7  376.86   16.90
  -3  -1   7  354.26   17.00
   2   1  -7   23.10    3.40
  -2  -1   7   17.70    3.50
  -2  -1   7   17.50    3.50
  -2  -1   7   21.00    3.30
  -2  -1   7   18.30    3.00
  -2  -1   7   19.90    4.10
   1   1  -7   40.50    4.40
   1   1  -7   39.40    5.90
   1   1  -7   46.20    4.30
   1   1  -7   44.20    4.40
  -1  -1   7   42.80    4.40
  -1  -1   7   41.80    4.10
  -1  -1   7   47.70    5.80
  -1  -1   7   44.70    5.00
   0   1  -7    2.50    2.10
   0   1  -7   11.10    4.30
   0   1  -7    9.00    2.80
   0   1  -7    2.00    2.40
   0  -1   7    3.00    1.90
   0  -1   7    2.80    2.80
   0  -1   7    0.70    3.20
   0  -1   7    4.80    2.50
  -1   1  -7  191.88   11.00
  -1   1  -7  197.38   10.40
  -1   1  -7  187.78   12.30
  -1   1  -7  211.68   10.50
   1  -1   7  187.28   11.90
   1  -1   7  212.28   10.60
   1  -1   7  203.28   10.50
   1  -1   7  196.78   11.10
  -2   1  -7    4.80    4.30
  -2   1  -7    6.50    3.60
  -2   1  -7    1.00    2.90
  -2   1  -7    3.60    3.20
   2  -1   7   -4.10    3.50
   2  -1   7   -0.10    3.40
   2  -1   7    0.10    3.00
  -3   1  -7  203.38   13.20
  -3   1  -7  207.08   13.60
  -3   1  -7  202.98   11.70
  -3   1  -7  198.78   11.50
   3  -1   7  187.88   13.20
   3  -1   7  198.18   11.60
   3  -1   7  204.68   12.40
  -4   1  -7    2.10    4.90
  -4   1  -7   -4.70    3.30
   4  -1   7    0.40    5.00
   4  -1   7    2.20    4.10
   4  -1   7   -2.50    3.90
  -5   1  -7   22.80    7.50
  -5   1  -7   10.90    4.90
   5  -1   7   22.20    7.40
   5  -1   7   10.70    4.70
  -6   1  -7   -7.00    4.50
  -6   1  -7    2.30    6.20
   6  -1   7   -4.00    5.70
   9   0  -7   15.10    4.60
   9   0  -7    3.40    5.30
  -9   0   7   15.10    4.90
  -9   0   7    8.00    5.70
   8   0  -7   97.09    8.90
   8   0  -7   69.09    9.40
  -8   0   7   83.59    9.30
  -8   0   7  104.69   10.00
  -8   0   7   78.89    9.40
  -8   0   7   85.49    8.70
   7   0  -7  624.44   30.90
   7   0  -7  697.53   29.80
  -7   0   7  692.23   29.50
  -7   0   7  715.63   30.00
  -7   0   7  737.63   30.70
   6   0  -7  183.48   10.40
   6   0  -7  191.98   11.00
   6   0  -7  184.68   10.90
   6   0  -7  175.78   12.20
  -6   0   7  191.18   11.10
  -6   0   7  180.28   10.80
  -6   0   7  198.48   11.50
  -6   0   7  184.88   11.90
   5   0  -7  105.79    7.60
   5   0  -7  108.89    7.70
   5   0  -7  106.79    7.60
   5   0  -7   96.99    8.80
  -5   0   7   99.79    8.40
  -5   0   7  106.39    7.90
  -5   0   7  107.29    8.20
  -5   0   7  110.89    7.70
   4   0  -7  636.44   27.40
   4   0  -7  604.64   28.30
   4   0  -7  672.63   27.00
   4   0  -7  646.24   26.80
   4   0  -7  665.43   27.30
  -4   0   7  665.53   27.50
  -4   0   7  632.14   27.60
  -4   0   7  645.94   27.60
  -4   0   7  673.83   27.00
   3   0  -7  207.98   11.80
   3   0  -7  223.88   10.90
   3   0  -7  217.78   10.80
   3   0  -7  209.88   10.50
  -3   0   7  224.58   10.90
  -3   0   7  212.28   11.40
  -3   0   7  215.78   11.00
  -3   0   7  236.38   11.60
  -3   0   7  217.88   12.00
   2   0  -7   15.90    2.80
   2   0  -7   15.70    3.10
  -2   0   7   18.00    3.70
  -2   0   7   16.70    3.70
  -2   0   7   12.70    2.90
  -2   0   7    9.00    2.30
  -2   0   7   13.20    4.00
   1   0  -7  105.39    6.40
   1   0  -7   84.09    7.60
   1   0  -7   94.59    5.60
   1   0  -7  108.49    6.60
  -1   0   7  101.59    6.50
  -1   0   7   96.19    7.70
  -1   0   7  106.59    7.10
  -1   0   7  101.39    7.20
  -1   0   7  109.09    6.70
   0   0  -7  591.04   24.20
   0   0  -7  602.24   24.30
   0   0  -7  567.64   26.50
   0   0   7  598.44   25.20
   0   0   7  583.14   24.40
   0   0   7  585.64   24.40
   0   0   7  581.34   26.30
  -1   0  -7 1100.29   44.90
  -1   0  -7 1160.08   44.90
  -1   0  -7 1172.58   45.70
  -1   0  -7 1133.99   47.60
   1   0   7 1159.08   45.10
   1   0   7 1183.08   45.90
   1   0   7 1094.09   46.90
  -2   0  -7    0.60    3.20
  -2   0  -7    8.30    3.90
  -2   0  -7   -3.60    3.00
  -2   0  -7    7.90    4.50
   2   0   7   -0.50    4.10
   2   0   7   -0.80    2.90
   2   0   7    1.80    3.80
  -3   0  -7   -2.60    3.40
  -3   0  -7    1.20    4.00
   3   0   7   -4.50    3.20
   3   0   7   -0.50    5.00
   3   0   7   -4.00    3.80
  -4   0  -7    2.30    4.50
  -4   0  -7    0.90    3.90
   4   0   7   -1.10    3.90
   4   0   7   -7.20    3.30
   4   0   7    1.80    5.70
  -5   0  -7   37.90    6.70
  -5   0  -7   31.90    7.90
   5   0   7   26.00    6.40
   5   0   7   31.50    8.20
   9  -1  -7   20.20    7.20
   9  -1  -7   23.30    5.10
  -9   1   7    6.50    5.70
  -9   1   7   20.50    7.90
  -9   1   7   33.60    6.50
   8  -1  -7   23.80    4.90
   8  -1  -7   16.60    6.10
  -8   1   7   22.10    5.40
  -8   1   7   26.20    5.80
  -8   1   7   21.70    5.00
  -8   1   7   14.20    5.90
   7  -1  -7  185.68   13.60
   7  -1  -7  234.88   12.80
  -7   1   7  217.48   12.50
  -7   1   7  212.58   13.80
  -7   1   7  219.48   12.90
  -7   1   7  245.88   13.60
   6  -1  -7    8.10    5.30
   6  -1  -7    7.00    2.80
   6  -1  -7    4.00    3.60
  -6   1   7    7.30    3.30
  -6   1   7    4.00    3.60
  -6   1   7    7.60    4.20
  -6   1   7    1.70    3.60
   5  -1  -7   79.09    6.60
   5  -1  -7   82.59    6.40
   5  -1  -7   90.19    9.10
   5  -1  -7   95.29    6.50
  -5   1   7   73.39    7.60
  -5   1   7   78.99    7.60
  -5   1   7   84.19    7.40
  -5   1   7   79.99    6.80
   4  -1  -7  120.79    6.40
   4  -1  -7  132.09    8.00
   4  -1  -7  117.89    7.30
   4  -1  -7  104.59    7.30
  -4   1   7  112.29    8.40
  -4   1   7  107.59    8.00
  -4   1   7  128.99    9.00
  -4   1   7  106.19    7.30
  -4   1   7  105.59    8.70
   3  -1  -7   55.39    4.80
   3  -1  -7   52.49    5.00
   3  -1  -7   54.69    5.70
  -3   1   7   62.99    6.00
  -3   1   7   49.10    5.80
  -3   1   7   43.70    4.50
  -3   1   7   62.39    5.30
  -3   1   7   60.49    6.70
   2  -1  -7   75.49    5.70
   2  -1  -7   82.99    7.20
   2  -1  -7   82.69    5.60
  -2   1   7   79.19    6.30
  -2   1   7   81.29    5.80
  -2   1   7   84.29    6.60
  -2   1   7   80.19    6.00
  -2   1   7   78.99    7.60
   1  -1  -7  188.18    9.60
   1  -1  -7  193.98   11.70
   1  -1  -7  179.98    9.60
  -1   1   7  192.58   10.60
  -1   1   7  193.28   10.00
  -1   1   7  172.38   11.20
  -1   1   7  194.28    9.90
  -1   1   7  183.68    9.70
   0  -1  -7 1329.77   51.49
   0  -1  -7 1319.97   50.89
   0  -1  -7 1321.47   53.99
   0  -1  -7 1333.17   51.39
   0   1   7 1347.57   52.39
   0   1   7 1327.67   53.69
   0   1   7 1318.27   51.49
  -1  -1  -7  184.98   10.30
  -1  -1  -7  170.28    9.80
   1   1   7  176.28   11.00
   1   1   7  189.28   10.30
   1   1   7  172.58   11.80
  -2  -1  -7   54.09    6.60
  -2  -1  -7   57.39    6.30
   2   1   7   48.00    6.90
   2   1   7   46.20    5.70
   2   1   7   59.19    8.40
  -3  -1  -7   97.89    8.30
  -3  -1  -7  105.89    9.90
   3   1   7  108.59    8.80
   3   1   7   97.59   10.30
   3   1   7  106.89    9.60
  -4  -1  -7   27.20    5.60
   4   1   7   39.40    6.50
   4   1   7   40.70    6.80
   4   1   7   31.40    7.90
   4   1   7   52.19    7.70
   5   1   7  137.09   13.70
   9  -2  -7  177.28   11.60
   9  -2  -7  151.78   13.30
  -9   2   7  182.28   12.40
  -9   2   7  165.98   11.50
  -9   2   7  151.48   12.00
  -9   2   7  135.19   11.90
   8  -2  -7   44.30    6.40
   8  -2  -7   36.80    7.40
  -8   2   7   54.89    7.40
  -8   2   7   46.10    6.20
  -8   2   7   49.10    7.50
  -8   2   7   41.20    7.80
   7  -2  -7  336.67   16.40
  -7   2   7  311.77   17.80
  -7   2   7  355.86   17.60
  -7   2   7  329.47   17.80
  -7   2   7  341.57   16.70
   6  -2  -7   60.89    6.10
  -6   2   7   57.89    7.50
  -6   2   7   61.19    6.60
  -6   2   7   65.59    7.30
  -6   2   7   54.79    7.40
   5  -2  -7  187.88    9.90
   5  -2  -7  157.58    8.90
  -5   2   7  195.88   10.90
  -5   2   7  180.98   10.00
  -5   2   7  176.98   11.70
  -5   2   7  170.18   11.20
   4  -2  -7  156.28   11.20
   4  -2  -7  161.68    9.20
   4  -2  -7  167.48    9.00
  -4   2   7  158.48    9.10
  -4   2   7  162.48   11.20
  -4   2   7  158.48   10.10
  -4   2   7  162.88    9.80
   3  -2  -7    1.30    2.30
   3  -2  -7    1.40    2.00
  -3   2   7    1.90    2.90
  -3   2   7    1.70    3.10
  -3   2   7   -3.00    3.20
  -3   2   7   -0.10    2.40
   2  -2  -7   33.60    5.30
   2  -2  -7   39.90    4.50
  -2   2   7   34.70    4.70
  -2   2   7   28.50    4.00
  -2   2   7   36.50    5.10
  -2   2   7   32.00    6.00
   1  -2  -7   29.90    3.90
  -1   2   7   30.30    4.00
  -1   2   7   29.50    4.00
  -1   2   7   27.00    4.50
  -1   2   7   30.10    6.30
   0  -2  -7   30.90    4.10
   0   2   7   46.90    5.50
   0   2   7   46.20    6.10
   0   2   7   32.80    6.50
  -1  -2  -7    2.00    2.70
   1   2   7    3.30    3.70
   1   2   7    1.90    4.80
   1   2   7    3.20    3.10
  -2  -2  -7   94.69    7.60
   2   2   7   83.39    9.70
   2   2   7   80.59    8.50
   2   2   7   84.59    7.70
  -3  -2  -7   39.90    8.10
   3   2   7   37.90    7.50
   3   2   7   45.90    7.40
   3   2   7   37.90    6.10
   4   2   7   -3.50    4.10
   4   2   7   -1.50    4.30
   4   2   7    0.50    5.90
   4   2   7    1.60    6.00
  -9   3   7   49.99    8.50
  -9   3   7   60.89    7.30
  -9   3   7   86.39    9.20
  -9   3   7   50.19    8.10
   8  -3  -7    5.60    3.90
  -8   3   7    6.80    4.40
  -8   3   7    0.60    3.60
  -8   3   7    3.60    4.80
  -8   3   7    5.10    5.30
   7  -3  -7   17.70    3.80
  -7   3   7    7.40    5.50
  -7   3   7   20.00    5.00
  -7   3   7   21.20    4.70
  -7   3   7   15.00    5.70
   6  -3  -7   43.80    5.20
  -6   3   7   40.60    7.40
  -6   3   7   45.10    5.70
  -6   3   7   33.40    6.10
  -6   3   7   39.50    5.80
   5  -3  -7  545.05   23.10
  -5   3   7  544.35   24.80
  -5   3   7  550.74   26.10
  -5   3   7  537.95   23.30
  -5   3   7  572.04   24.30
   4  -3  -7  130.09    7.80
  -4   3   7  131.89    8.10
  -4   3   7  134.49    9.30
  -4   3   7  143.39   11.00
  -4   3   7  131.29    9.00
   3  -3  -7    4.60    2.50
  -3   3   7    3.40    3.50
  -3   3   7    4.50    3.30
  -3   3   7    7.80    2.80
  -3   3   7    4.00    4.70
   2  -3  -7   75.69    5.80
  -2   3   7   73.39    8.80
  -2   3   7   68.89    6.60
  -2   3   7   81.49    6.40
  -2   3   7   81.39    6.00
   1  -3  -7  272.37   13.00
  -1   3   7  289.67   13.50
  -1   3   7  268.37   14.10
  -1   3   7  284.07   12.90
   0  -3  -7   20.50    3.90
   0   3   7   18.20    4.70
   0   3   7   25.10    6.60
   0   3   7   29.70    4.80
   1   3   7    1.40    4.90
   1   3   7    3.20    3.20
   1   3   7    7.80    4.30
   2   3   7   19.60    4.50
   2   3   7   27.80    6.90
   2   3   7   29.20    6.00
   3   3   7  252.97   15.50
   3   3   7  238.88   15.10
   3   3   7  264.47   16.80
   3   3   7  228.98   14.40
  -9   4   7   66.29   12.20
  -9   4   7   71.39    8.70
  -9   4   7  105.29    9.70
  -9   4   7   76.79   10.20
  -8   4   7  174.88   11.70
  -8   4   7  175.98   10.90
  -8   4   7  139.49   12.60
  -8   4   7  168.68   13.50
  -7   4   7  103.49   10.70
  -7   4   7   91.19    7.80
  -7   4   7   89.39    9.80
  -7   4   7  102.19    8.80
  -6   4   7   26.70    5.10
  -6   4   7   16.70    6.30
  -6   4   7   33.60    6.40
  -6   4   7   27.10    4.60
  -5   4   7   78.59    8.20
  -5   4   7   84.09    6.60
  -5   4   7   82.29    7.50
  -5   4   7   86.49   10.00
  -4   4   7  118.79    8.70
  -4   4   7  120.79    9.10
  -4   4   7  132.39    7.80
  -4   4   7  120.39   11.10
  -3   4   7   87.89    7.50
  -3   4   7   80.39    6.10
  -3   4   7   85.19    9.70
  -3   4   7   75.39    7.00
  -2   4   7   67.69    9.20
  -2   4   7   63.09    6.50
  -2   4   7   71.49    7.30
  -2   4   7   58.39    5.50
  -1   4   7   55.79    6.60
  -1   4   7   54.29    8.50
  -1   4   7   50.69    5.60
   0   4   7   26.20    5.50
   0   4   7   26.50    6.90
   0   4   7   21.90    4.20
   1   4   7   -4.10    5.20
   1   4   7   -4.60    2.90
   1   4   7    2.80    4.00
   2   4   7  228.28   15.50
   2   4   7  192.98   12.30
   2   4   7  211.08   13.50
  -8   5   7   84.49   10.80
  -8   5   7   80.59    8.40
  -8   5   7   79.79    7.60
  -8   5   7   63.79    9.60
  -7   5   7   37.20    7.50
  -7   5   7   40.30    8.00
  -7   5   7   40.30    5.50
  -7   5   7   37.90    5.90
  -6   5   7    3.00    4.60
  -6   5   7    3.30    6.00
  -6   5   7    3.10    3.30
  -6   5   7    5.60    3.90
  -5   5   7  239.08   13.20
  -5   5   7  241.08   12.10
  -5   5   7  260.67   16.70
  -5   5   7  245.98   14.50
  -4   5   7  383.26   17.70
  -4   5   7  341.87   15.60
  -4   5   7  331.57   16.60
  -4   5   7  334.57   19.50
  -3   5   7   47.10    5.00
  -3   5   7   35.80    5.30
  -3   5   7   49.99    8.70
  -2   5   7    1.10    2.70
  -2   5   7   -2.20    3.00
  -2   5   7   -5.30    5.00
  -1   5   7    8.90    3.40
  -1   5   7    4.60    5.10
  -1   5   7    7.60    3.80
   0   5   7   35.20    5.00
   0   5   7   46.70    8.80
   0   5   7   33.70    5.80
  -7   6   7   84.69   14.90
  -7   6   7   47.40    6.90
  -7   6   7   42.90    5.20
  -7   6   7   51.09    8.10
  -6   6   7    1.90    3.80
  -6   6   7    3.20    3.00
  -6   6   7   -2.00    6.20
  -6   6   7    2.30    4.90
  -5   6   7    6.90    6.70
  -5   6   7    2.70    2.70
  -5   6   7    5.90    4.40
  -5   6   7   -0.10    3.40
  -4   6   7   -1.60    3.30
  -4   6   7    2.40    6.30
  -4   6   7   -1.00    2.60
  -3   6   7   79.09    6.10
  -3   6   7   68.29    7.00
  -3   6   7   87.89   11.20
  -2   6   7   68.39    5.90
  -2   6   7   76.19   10.40
  -2   6   7   61.69    6.90
  -1   6   7   29.60    4.60
  -1   6   7   25.00    7.90
   1   9  -8   19.80    3.90
   1   9  -8   13.50    5.30
   0   9  -8   16.60    8.00
   0   9  -8   11.70    8.00
   0   9  -8   22.20    4.80
   0   9  -8   16.80    3.90
  -1   9  -8  176.28   15.10
  -1   9  -8  156.58    9.50
  -1   9  -8  152.68    9.00
  -1   9  -8  155.38   15.80
  -2   9  -8  313.77   14.70
  -2   9  -8  297.57   15.40
  -2   9  -8  304.17   20.60
  -2   9  -8  325.87   23.90
  -3   9  -8   34.10    9.10
  -3   9  -8   42.40    5.30
   3   8  -8    0.80    5.30
   3   8  -8    4.00    3.20
   3   8  -8   -1.10    6.10
   3   8  -8   -1.80    2.90
   2   8  -8   -0.90    4.90
   2   8  -8   -1.10    2.80
   2   8  -8    2.30    3.00
   2   8  -8    3.40    4.50
   1   8  -8   54.59    5.70
   1   8  -8   40.40    8.80
   1   8  -8   53.79    7.50
   1   8  -8   49.90    5.70
   0   8  -8    7.70    3.20
   0   8  -8   15.70    8.10
   0   8  -8   11.10    4.60
   0   8  -8   11.70    7.00
   0   8  -8   15.60    3.90
  -1   8  -8  122.99    8.10
  -1   8  -8  121.79   13.10
  -1   8  -8  106.89    7.60
  -1   8  -8  103.39   12.50
  -2   8  -8   12.50    7.50
  -2   8  -8   18.80    4.20
  -2   8  -8   13.50    4.10
  -2   8  -8   20.60    7.90
  -3   8  -8   15.70    4.20
  -3   8  -8    9.80    4.00
  -3   8  -8    5.90    7.00
  -3   8  -8   16.80    8.40
  -4   8  -8   48.60    6.40
  -4   8  -8   48.40   10.60
  -4   8  -8   49.30   10.40
  -4   8  -8   36.00    5.70
   5   7  -8  263.87   17.60
   5   7  -8  258.87   18.30
   5   7  -8  241.08   23.40
   4   7  -8  111.99   12.60
   4   7  -8  117.09    9.00
   4   7  -8  101.29    8.00
   4   7  -8  107.29   10.70
   3   7  -8  227.08   12.60
   3   7  -8  230.88   15.00
   3   7  -8  214.28   16.40
   3   7  -8  237.18   12.10
   2   7  -8   33.30    6.60
   2   7  -8   38.40    8.10
   2   7  -8   40.50    5.00
   2   7  -8   36.20    5.10
   1   7  -8   35.30    8.60
   1   7  -8   37.90    4.90
   1   7  -8   43.00    6.50
   1   7  -8   50.59    5.90
   0   7  -8   30.00    7.40
   0   7  -8   28.70    5.50
   0   7  -8   52.39    5.50
   0   7  -8   32.60    4.60
  -1   7  -8  201.58   11.20
  -1   7  -8  225.58   16.50
  -1   7  -8  215.58   11.60
  -1   7  -8  218.38   15.60
  -2   7  -8   -2.00    3.00
  -2   7  -8   -3.10    3.00
  -2   7  -8    3.70    6.20
  -2   7  -8    3.40    5.60
  -3   7  -8  174.38   14.80
  -3   7  -8  187.98   10.80
  -3   7  -8  178.38   14.40
  -3   7  -8  180.28   11.00
  -4   7  -8   18.30    8.00
  -4   7  -8    7.90    7.30
  -4   7  -8   10.40    4.40
  -4   7  -8   12.80    4.70
  -5   7  -8   -0.70    4.20
  -5   7  -8    3.40    7.40
  -5   7  -8   -4.90    6.40
  -5   7  -8   -6.40    3.90
   6   6  -8   20.50    5.00
   6   6  -8   31.70    8.70
   5   6  -8   83.99    7.50
   5   6  -8   70.09    9.30
   5   6  -8   81.79    8.00
   5   6  -8   79.99   10.80
   4   6  -8  194.58   11.40
   4   6  -8  209.08   12.20
   4   6  -8  197.78   14.10
   4   6  -8  206.78   15.60
   3   6  -8  116.59    8.00
   3   6  -8  110.69    8.30
   3   6  -8  113.49    9.70
   3   6  -8  112.69   11.60
   2   6  -8   73.99    9.90
   2   6  -8   76.49    6.80
   2   6  -8   76.69    6.50
   2   6  -8   81.39    8.50
  -2  -6   8   76.29    5.90
   1   6  -8  258.77   12.90
   1   6  -8  248.68   16.30
   1   6  -8  253.07   12.50
   1   6  -8  252.67   14.10
  -1  -6   8  243.28   12.00
   0   6  -8  544.65   28.50
   0   6  -8  553.74   24.30
   0   6  -8  551.14   23.20
   0   6  -8  547.15   23.40
   0   6  -8  536.65   27.40
   0  -6   8  548.15   22.90
  -1   6  -8  181.08   10.30
  -1   6  -8  163.78    9.70
  -1   6  -8  168.08   13.70
  -1   6  -8  172.18    9.90
  -1   6  -8  168.28   13.40
   1  -6   8  163.18    9.30
  -2   6  -8  184.68   14.30
  -2   6  -8  192.48   11.10
  -2   6  -8  209.58   15.20
  -2   6  -8  196.88   10.90
   2  -6   8  192.18   10.60
  -3   6  -8  138.49    9.40
  -3   6  -8  134.59   13.00
  -3   6  -8  139.59    9.60
  -3   6  -8  144.59   13.10
   3  -6   8  140.59    9.20
  -4   6  -8  296.67   15.40
  -4   6  -8  267.37   18.50
  -4   6  -8  284.87   15.00
  -4   6  -8  273.67   19.10
  -5   6  -8  403.26   19.50
  -5   6  -8  379.76   24.00
  -5   6  -8  408.06   19.90
  -5   6  -8  366.76   22.10
   7   5  -8  204.38   13.50
   7   5  -8  191.18   15.50
   6   5  -8   18.60    6.80
   6   5  -8   22.60    5.10
   6   5  -8   18.90    5.10
   6   5  -8   16.60    6.70
   5   5  -8   76.29    9.90
   5   5  -8   82.49    7.80
   5   5  -8   85.09    7.50
   5   5  -8   82.99   10.00
  -5  -5   8   73.79    7.00
   4   5  -8   11.60    5.20
   4   5  -8   19.80    5.90
   4   5  -8   20.60    4.30
   4   5  -8   15.10    3.70
  -4  -5   8   21.50    4.00
   3   5  -8  131.79   11.40
   3   5  -8  141.89    8.80
   3   5  -8  133.39   10.70
   3   5  -8  149.79    9.30
  -3  -5   8  131.99    8.30
   2   5  -8  218.88   13.00
   2   5  -8  215.68   11.50
   2   5  -8  216.48   11.20
   2   5  -8  200.48   14.10
  -2  -5   8  205.38   10.70
   1   5  -8   28.30    4.30
   1   5  -8   26.00    5.40
   1   5  -8   32.50    4.50
   1   5  -8   37.70    7.80
   1   5  -8   34.30    7.70
  -1  -5   8   27.80    3.90
   0   5  -8  156.58   12.20
   0   5  -8  170.18    9.40
   0   5  -8  148.39   12.10
   0   5  -8  163.18    9.40
   0   5  -8  168.98   10.20
   0  -5   8  159.58    9.00
  -1   5  -8   -1.00    2.80
  -1   5  -8   -2.30    4.50
  -1   5  -8    4.10    4.30
  -1   5  -8   -0.40    2.60
  -1   5  -8    0.30    3.20
   1  -5   8   -3.00    2.40
  -2   5  -8   -0.30    3.00
  -2   5  -8    1.80    4.90
  -2   5  -8   -0.90    4.70
  -2   5  -8    0.30    3.20
   2  -5   8    1.90    2.90
  -3   5  -8   10.10    4.10
  -3   5  -8   24.30    7.40
  -3   5  -8   22.20    6.60
  -3   5  -8    9.60    4.20
   3  -5   8   11.50    3.80
  -4   5  -8  231.68   13.70
  -4   5  -8  233.98   13.40
  -4   5  -8  250.57   17.40
  -4   5  -8  233.78   16.70
   4  -5   8  240.88   13.40
  -5   5  -8   35.60    9.30
  -5   5  -8   35.00    6.40
  -5   5  -8   28.10    7.70
  -5   5  -8   33.10    6.10
   5  -5   8   45.10    6.70
  -6   5  -8   23.80    8.00
  -6   5  -8   18.60    6.50
  -6   5  -8   25.70    9.20
  -6   5  -8   13.20    5.20
   6  -5   8   18.50    5.80
   7   4  -8  140.69   12.40
   7   4  -8  154.08   11.40
   7   4  -8  138.89   12.20
   7   4  -8  128.09   10.00
  -7  -4   8  117.29   11.10
  -7  -4   8  139.59   10.20
   6   4  -8    9.70    5.10
   6   4  -8    5.70    3.40
   6   4  -8    6.80    5.20
   6   4  -8   10.90    4.20
  -6  -4   8    5.60    3.70
   5   4  -8  137.29    9.30
   5   4  -8  128.39   10.90
   5   4  -8  129.29   11.40
   5   4  -8  145.29   10.00
  -5  -4   8  143.39    9.20
   4   4  -8    8.30    4.60
   4   4  -8   10.30    4.00
   4   4  -8    6.60    3.10
   4   4  -8   10.90    5.40
  -4  -4   8    9.60    3.40
  -4  -4   8    4.40    3.40
   3   4  -8 1194.28   51.79
   3   4  -8 1238.58   50.69
   3   4  -8 1273.77   49.30
   3   4  -8 1273.67   48.90
  -3  -4   8 1209.38   48.60
  -3  -4   8 1266.17   48.90
   2   4  -8  222.58   11.30
   2   4  -8  212.48   12.50
   2   4  -8  226.58   11.60
   2   4  -8  199.98   14.00
  -2  -4   8  208.88   10.90
  -2  -4   8  218.68   13.20
  -2  -4   8  224.08   12.30
   1   4  -8   14.40    3.40
   1   4  -8   15.00    4.70
   1   4  -8   13.90    5.40
   1   4  -8   15.40    5.40
   1   4  -8   18.20    3.90
  -1  -4   8   12.60    4.70
  -1  -4   8    9.60    3.30
  -1  -4   8   12.00    2.90
   0   4  -8  177.68   10.80
   0   4  -8  167.28   12.60
   0   4  -8  175.88   12.40
   0   4  -8  187.78   10.10
   0   4  -8  184.88   10.20
   0  -4   8  179.68   12.00
   0  -4   8  197.18   10.60
   0  -4   8  186.88    9.90
  -1   4  -8   -2.50    2.50
  -1   4  -8   -1.10    2.70
  -1   4  -8    1.40    4.10
  -1   4  -8   -1.80    4.40
   1  -4   8   -2.70    4.90
   1  -4   8   -0.20    2.70
  -2   4  -8  146.89   11.60
  -2   4  -8  158.18    9.60
  -2   4  -8  147.59    9.40
  -2   4  -8  143.89   12.60
   2  -4   8  158.58    9.40
   2  -4   8  144.09   12.30
  -3   4  -8  113.29    9.00
  -3   4  -8  112.39   11.00
  -3   4  -8  130.09   11.40
  -3   4  -8  117.49    9.10
   3  -4   8  113.89    8.60
  -4   4  -8   -1.10    4.00
  -4   4  -8   -2.80    3.60
  -4   4  -8    1.40    5.80
  -4   4  -8    4.70    5.70
   4  -4   8   -1.10    3.80
  -5   4  -8   -3.40    4.30
  -5   4  -8    1.20    5.30
  -5   4  -8    0.90    4.40
  -5   4  -8   -1.70    5.80
   5  -4   8    1.60    4.40
  -6   4  -8    4.30    6.80
  -6   4  -8    5.90    6.30
   6  -4   8   -0.40    4.20
   8   3  -8    5.10    7.10
   8   3  -8   18.00    5.00
  -8  -3   8   16.30    4.80
  -8  -3   8    7.70    5.60
   7   3  -8   34.90    5.90
   7   3  -8   47.90    7.20
   7   3  -8   25.50    7.40
   7   3  -8   52.19    7.90
  -7  -3   8   42.80    6.50
  -7  -3   8   36.30    7.30
   6   3  -8    8.50    3.60
   6   3  -8    9.60    5.40
   6   3  -8   11.50    5.00
   6   3  -8   10.10    4.10
  -6  -3   8    5.30    3.50
  -6  -3   8    4.50    4.50
   5   3  -8  163.18   11.70
   5   3  -8  148.19   11.90
   5   3  -8  153.68    9.90
   5   3  -8  163.48   10.40
  -5  -3   8  134.79   11.00
  -5  -3   8  151.88    8.90
  -5  -3   8  165.78    9.90
   4   3  -8  148.19    9.40
   4   3  -8  161.58   11.10
   4   3  -8  177.68   11.80
   4   3  -8  181.18   10.20
  -4  -3   8  149.99   10.60
  -4  -3   8  155.98    9.40
  -4  -3   8  149.99    9.80
  -4  -3   8  131.89    9.00
   3   3  -8   52.09    7.60
   3   3  -8   34.30    4.80
   3   3  -8   31.30    5.80
   3   3  -8   29.60    4.20
  -3  -3   8   40.00    5.30
  -3  -3   8   41.00    4.90
  -3  -3   8   36.30    5.00
   2   3  -8    9.80    3.30
   2   3  -8    7.90    5.10
   2   3  -8    8.70    3.30
   2   3  -8    8.30    4.10
  -2  -3   8    7.30    4.00
  -2  -3   8   11.00    3.00
  -2  -3   8    8.50    3.20
   1   3  -8  394.06   20.90
   1   3  -8  406.56   20.30
   1   3  -8  404.76   19.30
   1   3  -8  436.96   18.40
   1   3  -8  413.66   18.20
  -1  -3   8  408.76   18.70
  -1  -3   8  426.86   18.20
  -1  -3   8  405.36   19.70
   0   3  -8   65.89    8.00
   0   3  -8   57.19    5.50
   0   3  -8   53.19    5.70
   0   3  -8   62.59    7.10
   0  -3   8   50.99    5.30
   0  -3   8   51.49    6.70
   0  -3   8   50.39    5.80
  -1   3  -8  191.78   10.50
  -1   3  -8  194.38   13.60
  -1   3  -8  190.78   12.10
  -1   3  -8  196.38   10.50
   1  -3   8  161.58   11.90
   1  -3   8  179.38   10.80
   1  -3   8  186.18   10.40
  -2   3  -8  301.07   14.90
  -2   3  -8  289.97   16.80
  -2   3  -8  267.77   17.10
  -2   3  -8  321.87   14.90
   2  -3   8  309.77   15.50
   2  -3   8  305.37   14.70
   2  -3   8  271.07   16.70
  -3   3  -8  126.09    9.20
  -3   3  -8  116.49   11.60
  -3   3  -8  121.89   10.90
  -3   3  -8  126.59    9.10
   3  -3   8  110.49   11.60
   3  -3   8  120.79    9.00
  -4   3  -8    9.40    4.90
  -4   3  -8   21.50    7.00
  -4   3  -8   17.40    6.50
  -4   3  -8   10.10    4.90
   4  -3   8    7.90    4.80
  -5   3  -8   23.20    7.20
  -5   3  -8   23.70    6.60
  -5   3  -8    5.80    4.80
   5  -3   8   11.20    5.20
   8   2  -8  143.59   12.70
   8   2  -8  168.78   11.70
  -8  -2   8  145.79   12.00
  -8  -2   8  171.28   11.70
   7   2  -8   28.30    5.70
   7   2  -8   19.00    6.40
   7   2  -8   27.40    5.40
   7   2  -8   24.70    5.70
  -7  -2   8   29.00    5.80
  -7  -2   8   34.20    6.90
   6   2  -8  137.39   10.20
   6   2  -8  112.69   11.00
   6   2  -8  133.49    9.70
   6   2  -8  134.99    9.50
  -6  -2   8  114.79    8.40
  -6  -2   8  118.29   10.20
  -6  -2   8  131.09    9.30
   5   2  -8  178.98   10.70
   5   2  -8  169.98   10.40
   5   2  -8  174.58   11.50
   5   2  -8  165.38   11.80
  -5  -2   8  177.48   10.70
  -5  -2   8  166.98   11.50
  -5  -2   8  153.78   10.20
  -5  -2   8  164.08    9.80
   4   2  -8   41.70    6.60
   4   2  -8   23.40    4.00
   4   2  -8   30.80    4.60
   4   2  -8   38.80    6.20
  -4  -2   8   27.30    4.40
  -4  -2   8   31.00    5.00
  -4  -2   8   36.30    5.80
  -4  -2   8   31.00    4.40
   3   2  -8    0.50    2.40
   3   2  -8    2.90    3.90
   3   2  -8    1.60    2.70
   3   2  -8   -0.20    3.90
  -3  -2   8   -0.10    3.70
  -3  -2   8    2.90    3.50
  -3  -2   8    2.80    3.00
  -3  -2   8    5.80    2.70
   2   2  -8  291.77   15.90
   2   2  -8  309.67   16.50
   2   2  -8  292.37   15.40
   2   2  -8  320.97   14.40
   2   2  -8  294.77   16.00
   2   2  -8  301.77   14.20
  -2  -2   8  301.47   14.70
  -2  -2   8  288.07   15.40
  -2  -2   8  306.57   14.20
   1   2  -8  611.14   25.00
   1   2  -8  582.54   27.70
   1   2  -8  617.94   25.00
   1   2  -8  578.44   26.00
  -1  -2   8  616.34   25.70
  -1  -2   8  617.64   25.00
  -1  -2   8  560.84   26.30
   0   2  -8  147.19    8.60
   0   2  -8  132.39   11.20
   0   2  -8  133.99    9.30
   0   2  -8  141.19    8.40
   0  -2   8  142.19   10.50
   0  -2   8  143.99    9.30
   0  -2   8  140.99    8.50
  -1   2  -8    2.10    4.30
  -1   2  -8    8.60    3.90
  -1   2  -8    3.10    2.80
  -1   2  -8   -0.50    2.50
   1  -2   8   -1.30    2.70
   1  -2   8    4.00    3.60
   1  -2   8    2.80    4.20
  -2   2  -8  161.88    9.70
  -2   2  -8  152.78    9.70
  -2   2  -8  143.79   10.60
  -2   2  -8  148.99   11.70
   2  -2   8  145.59   10.30
   2  -2   8  131.99    9.30
   2  -2   8  134.49   11.60
  -3   2  -8  153.58   10.00
  -3   2  -8  131.19   11.60
  -3   2  -8  141.19   10.10
  -3   2  -8  140.79   11.30
   3  -2   8  134.99    9.70
   3  -2   8  148.99   11.90
   3  -2   8  127.29   11.50
  -4   2  -8   41.70    6.80
  -4   2  -8   36.80    7.60
  -4   2  -8   48.80    8.80
   4  -2   8   42.10    6.90
   4  -2   8   42.60    9.00
  -5   2  -8    1.50    4.90
  -5   2  -8   -1.60    4.20
   5  -2   8   -5.40    4.30
   9   1  -8  185.88   12.40
   9   1  -8  158.28   14.10
  -9  -1   8  130.99   12.50
  -9  -1   8  171.28   12.20
   8   1  -8  126.89   12.40
   8   1  -8  148.29   10.80
  -8  -1   8  114.89   11.20
  -8  -1   8  156.88   10.90
   7   1  -8    7.80    3.90
   7   1  -8    6.70    5.60
  -7  -1   8    6.00    4.10
  -7  -1   8    6.10    5.20
  -7  -1   8   -2.20    3.50
   6   1  -8   13.90    5.60
   6   1  -8   24.20    5.20
   6   1  -8    6.40    3.50
   6   1  -8   17.40    4.60
  -6  -1   8   13.20    4.00
  -6  -1   8    0.80    3.50
  -6  -1   8    7.00    4.60
  -6  -1   8   10.30    3.90
   5   1  -8  122.29    8.40
   5   1  -8  112.49    8.90
   5   1  -8   95.99    9.90
   5   1  -8  113.09    8.30
  -5  -1   8  113.19    8.30
  -5  -1   8  100.99    8.80
  -5  -1   8  114.29    8.20
  -5  -1   8  127.39    9.00
   4   1  -8   56.89    6.10
   4   1  -8   53.79    7.50
   4   1  -8   58.09    5.90
   4   1  -8   47.80    6.50
  -4  -1   8   50.39    6.00
  -4  -1   8   62.39    6.00
  -4  -1   8   65.19    7.60
  -4  -1   8   47.20    6.10
   3   1  -8   87.09    8.50
   3   1  -8   65.49    6.00
   3   1  -8   71.59    6.00
  -3  -1   8   53.69    6.70
  -3  -1   8   69.29    6.50
  -3  -1   8   61.19    5.80
  -3  -1   8   54.99    6.70
   2   1  -8   19.70    3.50
  -2  -1   8   30.40    4.90
  -2  -1   8   22.00    5.10
  -2  -1   8   22.00    3.50
  -2  -1   8   19.90    4.00
   1   1  -8  579.84   26.70
   1   1  -8  553.24   23.90
   1   1  -8  592.44   24.20
   1   1  -8  578.44   24.00
  -1  -1   8  571.34   24.00
  -1  -1   8  575.74   24.80
  -1  -1   8  549.45   25.60
   0   1  -8  290.37   17.50
   0   1  -8  308.17   15.30
   0   1  -8  324.77   15.10
   0   1  -8  341.47   15.30
   0  -1   8  335.67   15.30
   0  -1   8  347.07   16.20
   0  -1   8  316.67   17.20
  -1   1  -8   14.10    5.50
  -1   1  -8   15.40    4.20
  -1   1  -8   17.90    4.30
  -1   1  -8   14.30    3.80
   1  -1   8    9.60    5.40
   1  -1   8   16.40    4.30
   1  -1   8   18.20    4.60
  -2   1  -8    7.10    4.00
  -2   1  -8    2.70    3.10
  -2   1  -8    6.30    5.00
  -2   1  -8    1.30    4.90
   2  -1   8   -2.30    3.70
   2  -1   8   -1.20    5.10
   2  -1   8    4.20    3.70
  -3   1  -8   11.80    5.10
  -3   1  -8   14.80    5.60
  -3   1  -8    6.00    4.00
   3  -1   8    4.00    4.00
   3  -1   8   -0.20    5.00
   3  -1   8    5.30    4.50
  -4   1  -8    9.40    4.90
  -4   1  -8   11.00    5.90
   4  -1   8   16.20    5.60
   4  -1   8   11.40    6.50
  -5   1  -8   19.30    8.20
  -5   1  -8    8.90    5.00
   5  -1   8    7.80    7.60
   5  -1   8    9.20    5.30
   9   0  -8   38.30    6.10
   9   0  -8   19.70    7.60
  -9   0   8   15.10    5.80
  -9   0   8   30.30    6.10
   8   0  -8   83.39   10.70
   8   0  -8  106.79    9.30
  -8   0   8  104.69    9.40
  -8   0   8   88.29   10.00
   7   0  -8  506.65   26.60
   7   0  -8  570.04   24.90
  -7   0   8  518.85   24.60
  -7   0   8  561.04   24.90
  -7   0   8  583.84   25.70
   6   0  -8  162.48   12.30
   6   0  -8  199.98   10.80
   6   0  -8  175.08   10.70
  -6   0   8  145.29   11.50
  -6   0   8  146.79   10.60
  -6   0   8  178.48   11.00
  -6   0   8  177.38   11.30
   5   0  -8    4.10    3.30
   5   0  -8   18.30    6.20
   5   0  -8    7.00    3.30
  -5   0   8    1.50    3.70
  -5   0   8    5.50    3.30
  -5   0   8    1.20    4.10
  -5   0   8   -1.10    3.20
   4   0  -8   33.00    6.30
   4   0  -8   24.40    3.90
   4   0  -8   19.50    3.70
  -4   0   8   20.60    5.10
  -4   0   8   15.80    4.10
  -4   0   8   22.70    4.20
  -4   0   8   18.70    4.60
   3   0  -8  232.88   11.70
   3   0  -8  228.08   10.90
   3   0  -8  238.68   11.90
   3   0  -8  224.28   13.20
  -3   0   8  238.28   12.00
  -3   0   8  253.37   12.90
  -3   0   8  225.88   13.20
  -3   0   8  234.18   12.70
   2   0  -8    0.70    2.60
   2   0  -8    6.10    2.70
  -2   0   8    1.90    3.00
  -2   0   8    1.80    3.10
  -2   0   8    5.30    4.20
  -2   0   8    0.60    2.50
   1   0  -8   21.00    3.60
   1   0  -8   11.40    3.10
  -1   0   8   16.40    5.30
  -1   0   8   17.20    4.10
  -1   0   8   18.90    3.70
   0   0  -8    2.50    4.20
   0   0  -8    4.70    2.90
   0   0  -8    4.20    3.00
   0   0  -8    7.10    2.70
   0   0   8    2.80    3.40
   0   0   8    6.50    3.40
   0   0   8    7.60    5.10
  -1   0  -8  121.49    8.40
  -1   0  -8  118.79   10.60
  -1   0  -8  122.19    8.30
   1   0   8  110.89   10.60
   1   0   8  123.49    8.60
   1   0   8  119.99    9.30
  -2   0  -8  122.89    8.80
  -2   0  -8  101.49   10.00
  -2   0  -8  123.39    9.70
   2   0   8  119.49   10.10
   2   0   8  111.89    8.70
   2   0   8  112.19   11.00
  -3   0  -8   13.10    4.80
   3   0   8   14.20    5.50
   3   0   8   24.60    5.80
   3   0   8   14.10    6.90
  -4   0  -8   10.20    5.00
   4   0   8   14.20    6.50
   4   0   8   14.60    5.10
   4   0   8    8.70    6.80
   9  -1  -8   17.60    5.00
   9  -1  -8   -0.70    6.50
  -9   1   8   17.30    5.40
  -9   1   8    0.60    5.70
   8  -1  -8  127.29   11.90
   8  -1  -8  146.59   10.50
  -8   1   8  131.89   10.80
  -8   1   8  147.99   10.80
  -8   1   8  131.79   11.80
  -8   1   8  142.69   11.20
   7  -1  -8  156.38   12.60
   7  -1  -8  168.38   10.80
  -7   1   8  148.29   12.00
  -7   1   8  182.08   12.00
  -7   1   8  160.18   11.70
  -7   1   8  175.28   11.20
   6  -1  -8   48.30    8.00
   6  -1  -8   46.70    5.50
  -6   1   8   67.09    7.10
  -6   1   8   56.49    7.60
  -6   1   8   63.19    7.30
  -6   1   8   43.70    6.90
   5  -1  -8   61.89    6.30
   5  -1  -8   82.79    6.80
  -5   1   8   77.79    7.40
  -5   1   8   83.59    8.30
  -5   1   8   72.09    8.10
  -5   1   8   84.59    7.10
   4  -1  -8   12.20    3.50
   4  -1  -8    9.70    3.80
  -4   1   8   12.30    5.10
  -4   1   8    4.40    3.80
  -4   1   8    7.40    3.90
  -4   1   8    7.10    3.10
   3  -1  -8  153.38   10.40
   3  -1  -8  183.68   11.60
   3  -1  -8  156.18    9.10
  -3   1   8  159.18    9.20
  -3   1   8  161.48   10.20
  -3   1   8  135.89   10.40
  -3   1   8  165.58   10.20
   2  -1  -8   40.50    6.50
   2  -1  -8   49.99    5.20
  -2   1   8   42.90    6.90
  -2   1   8   42.70    5.70
  -2   1   8   36.90    5.10
  -2   1   8   33.80    4.40
   1  -1  -8   14.80    3.70
   1  -1  -8   10.10    4.70
  -1   1   8   10.70    5.00
  -1   1   8   10.60    3.20
  -1   1   8   14.20    4.20
   0  -1  -8  151.68   11.00
   0  -1  -8  138.59    8.70
   0   1   8  134.29    8.90
   0   1   8  146.39   10.00
   0   1   8  141.09   11.00
  -1  -1  -8  330.77   15.70
   1   1   8  316.77   15.90
   1   1   8  343.77   17.20
   1   1   8  295.97   17.70
  -2  -1  -8  110.99    8.70
   2   1   8  101.89   10.90
   2   1   8  105.59    8.70
   2   1   8  101.79    9.80
  -3  -1  -8   17.80    5.30
   3   1   8   21.10    5.40
   3   1   8   10.10    5.10
   3   1   8   28.60    7.70
  -4  -1  -8   33.80    8.50
   4   1   8   43.90    7.40
   4   1   8   35.00    8.50
   4   1   8   45.20    8.00
   9  -2  -8    7.80    4.20
   9  -2  -8   19.50    7.10
  -9   2   8    6.40    4.70
  -9   2   8    8.90    5.20
  -9   2   8    3.10    5.20
  -9   2   8    8.90    6.90
   8  -2  -8    9.00    4.10
  -8   2   8    7.50    4.50
  -8   2   8    5.00    4.50
  -8   2   8   -1.10    4.90
  -8   2   8    0.30    5.50
   7  -2  -8  121.09    8.70
  -7   2   8   93.29    9.80
  -7   2   8   89.49   10.00
  -7   2   8  109.89    8.90
  -7   2   8  126.59   10.00
   6  -2  -8  219.08   11.90
  -6   2   8  215.08   12.10
  -6   2   8  221.78   13.10
  -6   2   8  205.78   13.50
  -6   2   8  209.58   13.80
   5  -2  -8  102.19    7.40
  -5   2   8   94.29    7.40
  -5   2   8   90.89    8.10
  -5   2   8   93.79    8.90
  -5   2   8   80.59    8.60
   4  -2  -8    0.90    2.70
  -4   2   8    3.50    4.00
  -4   2   8    2.50    3.60
  -4   2   8   -3.00    4.40
  -4   2   8    2.00    3.00
   3  -2  -8   85.59    6.50
  -3   2   8   73.19    8.80
  -3   2   8   75.29    7.40
  -3   2   8   72.49    6.40
  -3   2   8   80.49    7.50
   2  -2  -8  120.19    7.80
  -2   2   8  126.29    9.00
  -2   2   8  120.49   10.50
  -2   2   8  120.29    7.90
  -2   2   8  121.59    8.30
   1  -2  -8   63.29    5.90
  -1   2   8   55.29    8.20
  -1   2   8   53.89    6.60
  -1   2   8   47.20    5.70
   0  -2  -8   -0.90    2.60
   0   2   8   -0.40    3.30
   0   2   8   -2.00    3.60
   0   2   8   -4.20    4.40
  -1  -2  -8  101.59    7.90
   1   2   8   88.89    9.10
   1   2   8   99.39    8.30
   1   2   8   98.79   10.60
   2   2   8  191.38   14.40
   2   2   8  177.38   11.80
   2   2   8  194.18   13.10
   3   2   8   57.39    9.40
   3   2   8   70.59    9.30
  -9   3   8  118.89   10.70
  -9   3   8   93.39   10.70
  -8   3   8    8.70    5.60
  -8   3   8   18.00    5.90
  -8   3   8   22.00    5.40
  -8   3   8   10.10    5.90
  -7   3   8   23.20    6.20
  -7   3   8   32.10    5.90
  -7   3   8   25.00    6.60
  -7   3   8   25.20    4.90
   6  -3  -8   29.20    5.20
  -6   3   8   28.90    5.50
  -6   3   8   26.70    6.30
  -6   3   8   32.40    7.20
  -6   3   8   29.00    4.90
   5  -3  -8  327.87   15.50
  -5   3   8  320.27   15.70
  -5   3   8  333.77   16.70
  -5   3   8  341.27   19.00
  -5   3   8  331.97   17.30
   4  -3  -8  189.58   10.40
  -4   3   8  194.78   13.80
  -4   3   8  190.18   11.80
  -4   3   8  188.18   10.60
  -4   3   8  203.68   11.80
   3  -3  -8   12.90    3.50
  -3   3   8   13.70    5.90
  -3   3   8   16.30    4.50
  -3   3   8   14.50    3.50
  -3   3   8   11.30    4.20
   2  -3  -8  102.19   10.10
  -2   3   8   78.49    6.70
  -2   3   8   79.99    6.70
  -2   3   8   86.99    9.30
  -2   3   8   78.49    7.60
  -1   3   8   94.19    9.70
  -1   3   8   88.49    8.20
  -1   3   8   88.29    7.10
   0   3   8    6.00    3.70
   0   3   8    5.10    6.00
   0   3   8    4.70    4.20
   1   3   8    2.70    5.90
   1   3   8    1.80    4.30
   1   3   8    3.70    4.00
   2   3   8   21.60    7.40
   2   3   8   25.70    6.10
  -8   4   8  116.79   11.70
  -8   4   8  122.49    9.60
  -8   4   8  116.89   12.20
  -8   4   8  130.69   10.60
  -7   4   8  116.29   10.60
  -7   4   8  132.99   10.10
  -7   4   8  117.79   12.00
  -7   4   8  119.69    9.10
  -6   4   8   11.20    5.60
  -6   4   8   15.90    4.70
  -6   4   8    6.50    3.60
  -6   4   8    8.90    6.30
  -5   4   8  316.57   18.70
  -5   4   8  283.97   15.50
  -5   4   8  303.47   14.70
  -5   4   8  307.77   16.70
  -4   4   8   61.19    9.70
  -4   4   8   50.19    6.50
  -4   4   8   31.90    4.50
  -4   4   8   38.40    6.20
  -3   4   8   28.90    5.30
  -3   4   8   27.50    5.10
  -3   4   8   20.40    6.40
  -3   4   8   27.80    4.30
  -2   4   8   76.29    7.70
  -2   4   8   80.99    6.80
  -2   4   8   91.29   10.60
  -1   4   8    2.70    5.30
  -1   4   8   -0.30    3.20
  -1   4   8    2.40    3.90
   0   4   8   22.80    7.40
   0   4   8   17.20    5.30
   0   4   8   29.70    5.30
   1   4   8   14.30    6.00
   1   4   8    9.40    6.90
   1   4   8   14.20    7.00
  -7   5   8   12.50    6.10
  -7   5   8   12.90    4.10
  -7   5   8   21.10    5.40
  -7   5   8    8.40    6.10
  -6   5   8   36.00    7.10
  -6   5   8   59.79    6.10
  -6   5   8   32.80    5.80
  -6   5   8   34.00    8.70
  -5   5   8  129.19   10.10
  -5   5   8   97.69    7.50
  -5   5   8  109.69   12.30
  -5   5   8   93.89    8.70
  -4   5   8   63.29    7.30
  -4   5   8   90.49   11.30
  -4   5   8   61.79    6.10
  -3   5   8  180.58   11.60
  -3   5   8  202.68   15.40
  -3   5   8  193.68   10.60
  -2   5   8   50.89    9.10
  -2   5   8   66.99    6.50
  -2   5   8   64.69    7.60
  -1   5   8   46.80    8.80
  -1   5   8   27.50    7.50
  -1   5   8   44.90    5.50
  -5   6   8   -2.30    2.80
  -4   6   8   -0.20    3.00
  -1   9  -9   87.39    7.40
   3   8  -9    4.80    3.40
   3   8  -9    7.90    6.10
   2   8  -9  149.99    9.40
   2   8  -9  148.09   12.10
   2   8  -9  123.89   13.80
   2   8  -9  150.68    9.90
   1   8  -9  349.37   18.40
   1   8  -9  350.76   23.60
   1   8  -9  308.37   21.20
   1   8  -9  325.17   16.20
   1   8  -9  321.77   15.80
   0   8  -9   17.00    8.30
   0   8  -9   18.30    4.30
   0   8  -9    9.40    3.90
   0   8  -9   16.20    8.60
  -1   8  -9   21.90    4.80
  -1   8  -9   15.20    7.60
  -1   8  -9   21.80    4.80
  -1   8  -9   20.10    8.10
  -2   8  -9   26.40    9.20
  -2   8  -9   22.40    4.90
  -2   8  -9   17.90    7.80
  -2   8  -9   25.00    5.10
  -3   8  -9  117.69   13.40
  -3   8  -9  111.99    9.10
  -3   8  -9   94.89    8.60
  -3   8  -9  113.49   13.00
   4   7  -9  313.37   21.30
   4   7  -9  323.37   16.20
   4   7  -9  310.87   18.90
   4   7  -9  335.57   17.00
   3   7  -9   31.50    5.00
   3   7  -9   19.20    6.00
   3   7  -9   33.10    5.30
   3   7  -9   25.60    8.20
   2   7  -9    4.20    3.30
   2   7  -9    8.20    6.00
   2   7  -9   12.30    4.20
   2   7  -9   12.00    5.60
   1   7  -9   72.89   11.50
   1   7  -9   61.49    6.70
   1   7  -9   59.19    8.00
   1   7  -9   75.09   11.40
   1   7  -9   58.59    6.40
   0   7  -9   16.60    4.20
   0   7  -9   18.80    7.50
   0   7  -9   13.30    6.60
   0   7  -9   19.50    5.30
   0   7  -9   10.90    3.90
  -1   7  -9   83.99    7.40
  -1   7  -9   86.89    7.50
  -1   7  -9   82.69   10.90
  -1   7  -9   83.09   11.50
  -2   7  -9   11.90    4.40
  -2   7  -9    9.00    7.20
  -2   7  -9   16.90    4.70
  -2   7  -9   10.30    6.90
  -3   7  -9  181.88   16.40
  -3   7  -9  202.48   12.40
  -3   7  -9  227.58   17.40
  -3   7  -9  200.18   12.10
  -4   7  -9   16.10    8.40
  -4   7  -9   27.40    5.90
  -4   7  -9   27.60    5.90
  -4   7  -9   23.30    9.00
   5   6  -9  171.58   11.50
   5   6  -9  154.58   10.50
   5   6  -9  153.78   14.20
   5   6  -9  154.78   13.00
   4   6  -9  237.58   13.40
   4   6  -9  212.18   12.50
   4   6  -9  223.98   16.30
   4   6  -9  225.78   15.40
   3   6  -9  174.88   13.20
   3   6  -9  192.78   11.50
   3   6  -9  192.48   15.10
   3   6  -9  183.98   10.90
   2   6  -9   -2.90    2.90
   2   6  -9    1.20    3.40
   2   6  -9   -0.70    4.80
   2   6  -9   -5.30    4.50
   1   6  -9  115.39   12.20
   1   6  -9  133.39   10.20
   1   6  -9  121.59    8.60
   1   6  -9  119.39    8.60
   1   6  -9  124.59   12.60
  -1  -6   9  124.09    8.10
   0   6  -9  121.49   11.70
   0   6  -9  123.59    8.50
   0   6  -9  126.09    8.70
   0   6  -9  127.89    9.70
   0   6  -9  112.99   11.60
   0  -6   9  107.29    7.70
  -1   6  -9  180.18   10.80
  -1   6  -9  181.88   10.80
  -1   6  -9  174.08   14.30
  -1   6  -9  187.98   14.70
   1  -6   9  180.18   10.50
  -2   6  -9   25.50    7.60
  -2   6  -9   24.50    5.20
  -2   6  -9   18.10    4.70
  -2   6  -9   22.70    8.00
   2  -6   9   29.70    5.30
  -3   6  -9  110.19   12.00
  -3   6  -9  118.59   12.60
  -3   6  -9  106.39    9.30
  -3   6  -9  119.09    9.70
  -4   6  -9    3.80    4.90
  -4   6  -9    9.60    4.90
  -4   6  -9    4.00    6.70
  -4   6  -9    1.60    6.90
   6   5  -9    8.20    5.60
   6   5  -9    6.30    3.70
   6   5  -9   13.90    4.90
   6   5  -9    9.10    6.20
   5   5  -9  188.28   11.40
   5   5  -9  190.08   11.80
   5   5  -9  172.88   13.70
   5   5  -9  164.28   13.60
  -5  -5   9  170.68   10.80
   4   5  -9  200.08   14.30
   4   5  -9  203.08   15.20
   4   5  -9  214.48   12.50
   4   5  -9  203.68   11.90
  -4  -5   9  220.68   11.70
   3   5  -9   13.00    5.30
   3   5  -9   25.20    7.10
   3   5  -9   32.60    5.30
   3   5  -9   17.20    4.10
  -3  -5   9   23.70    4.10
   2   5  -9    7.80    3.50
   2   5  -9    9.20    5.10
   2   5  -9    4.90    5.00
   2   5  -9   11.70    3.60
  -2  -5   9    4.50    4.40
  -2  -5   9    9.00    3.20
   1   5  -9    8.40    3.50
   1   5  -9    7.20    5.40
   1   5  -9   10.60    4.80
   1   5  -9   13.70    3.90
   1   5  -9   14.40    5.60
  -1  -5   9   10.60    3.40
  -1  -5   9    9.70    5.30
   0   5  -9   86.39    8.80
   0   5  -9   99.09    7.70
   0   5  -9   95.39   10.50
   0   5  -9   89.49    7.40
   0   5  -9   98.49   10.30
   0  -5   9   98.49    7.20
   0  -5   9   88.39    9.60
  -1   5  -9  246.18   13.00
  -1   5  -9  232.28   16.30
  -1   5  -9  245.88   12.90
  -1   5  -9  235.38   15.90
   1  -5   9  237.78   12.60
  -2   5  -9   26.80    5.50
  -2   5  -9   18.70    6.70
  -2   5  -9   20.00    4.80
  -2   5  -9   15.40    7.40
   2  -5   9   29.90    5.30
  -3   5  -9   17.90    5.30
  -3   5  -9   19.60    6.90
  -3   5  -9   13.30    4.80
  -3   5  -9   13.40    7.50
   3  -5   9   16.80    4.80
  -4   5  -9   66.39    8.20
  -4   5  -9   76.79    8.80
  -4   5  -9   66.99   10.50
  -4   5  -9   50.39    9.70
   4  -5   9   50.79    7.00
  -5   5  -9   88.69   12.00
  -5   5  -9   53.09    8.00
  -5   5  -9   78.89   13.20
   5  -5   9   66.59    8.30
   7   4  -9   51.59   14.50
   7   4  -9   47.30    7.00
   7   4  -9   50.69    8.70
   7   4  -9   49.99    7.10
  -7  -4   9   61.69    7.60
   6   4  -9   17.20    6.40
   6   4  -9   17.60    4.50
   6   4  -9   26.30    6.70
   6   4  -9   31.80    5.80
  -6  -4   9   27.60    4.90
   5   4  -9   10.80    5.60
   5   4  -9    8.70    5.60
   5   4  -9   12.80    4.30
   5   4  -9    3.40    3.20
  -5  -4   9   11.70    4.00
   4   4  -9   15.80    6.00
   4   4  -9   13.10    4.20
   4   4  -9   10.60    5.20
   4   4  -9   10.10    3.60
  -4  -4   9   14.90    4.00
  -4  -4   9   11.40    4.50
   3   4  -9  123.49   11.50
   3   4  -9  133.29    9.20
   3   4  -9  131.79    8.90
   3   4  -9  126.59   10.20
  -3  -4   9  135.29    8.50
  -3  -4   9  123.99    9.20
   2   4  -9  345.37   18.00
   2   4  -9  336.27   19.60
   2   4  -9  361.26   16.70
   2   4  -9  355.66   16.90
  -2  -4   9  351.06   17.90
  -2  -4   9  360.46   16.40
   1   4  -9   98.89    7.60
   1   4  -9   93.19    9.80
   1   4  -9   98.09    7.50
   1   4  -9  102.09    9.10
   1   4  -9   96.89   10.10
  -1  -4   9   95.59    7.30
  -1  -4   9   99.99    9.30
   0   4  -9   -0.70    5.00
   0   4  -9   -2.10    2.70
   0   4  -9   -2.80    4.00
   0   4  -9   -0.80    3.30
   0  -4   9   -0.50    2.70
   0  -4   9    1.80    5.00
  -1   4  -9  165.48   13.40
  -1   4  -9  191.98   11.00
  -1   4  -9  179.38   12.90
  -1   4  -9  180.78   10.80
   1  -4   9  174.88   10.40
   1  -4   9  172.78   12.80
  -2   4  -9   77.09    7.60
  -2   4  -9   75.69   11.40
  -2   4  -9   79.09    9.20
  -2   4  -9   81.09    7.70
   2  -4   9   70.59    7.30
   2  -4   9   83.29   10.80
  -3   4  -9   79.79    8.30
  -3   4  -9   98.49   10.70
  -3   4  -9   81.19   11.20
  -3   4  -9   78.59    8.40
   3  -4   9   82.99    8.10
  -4   4  -9   76.69    8.60
  -4   4  -9   79.09   10.50
  -4   4  -9   54.89    9.70
  -4   4  -9   77.49    8.50
   4  -4   9   72.99    8.20
  -5   4  -9   39.70    9.40
   5  -4   9   29.20    6.70
  -8  -3   9  175.38   16.70
  -8  -3   9  172.78   12.30
   7   3  -9   12.30    4.20
   7   3  -9   12.50    5.60
   7   3  -9   14.70    6.00
   7   3  -9    9.60    6.00
  -7  -3   9   16.10    6.30
  -7  -3   9   15.10    4.40
   6   3  -9   37.60    7.40
   6   3  -9   38.50    8.00
   6   3  -9   36.90    6.10
   6   3  -9   29.90    5.10
  -6  -3   9   34.90    5.40
  -6  -3   9   32.60    7.10
   5   3  -9  165.58   12.60
   5   3  -9  176.18   12.70
   5   3  -9  191.38   11.20
   5   3  -9  184.88   11.50
  -5  -3   9  184.88   10.90
  -5  -3   9  159.88   12.50
  -5  -3   9  163.68   11.60
   4   3  -9  143.59    9.30
   4   3  -9  126.39   10.50
   4   3  -9  128.29    9.10
   4   3  -9  141.79   11.30
  -4  -3   9  123.79   10.20
  -4  -3   9  137.89    9.00
  -4  -3   9  122.99    9.20
   3   3  -9   19.10    5.60
   3   3  -9   29.80    4.70
   3   3  -9   27.00    6.60
   3   3  -9   20.00    4.00
  -3  -3   9   21.70    6.30
  -3  -3   9   22.40    3.80
  -3  -3   9   19.40    5.20
   2   3  -9   39.70    5.10
   2   3  -9   39.20    7.50
   2   3  -9   46.60    7.00
   2   3  -9   46.70    5.50
   2   3  -9   44.40    7.30
  -2  -3   9   33.90    5.30
  -2  -3   9   37.40    4.80
  -2  -3   9   42.10    6.80
   1   3  -9  215.58   11.90
   1   3  -9  235.98   12.10
   1   3  -9  224.08   13.70
   1   3  -9  220.38   15.10
  -1  -3   9  215.18   13.70
  -1  -3   9  225.68   11.90
  -1  -3   9  237.68   12.60
   0   3  -9   67.59    8.70
   0   3  -9   35.80    4.90
   0   3  -9   55.59    7.10
   0   3  -9   58.59    6.50
   0  -3   9   49.30    6.30
   0  -3   9   35.20    6.60
   0  -3   9   47.90    5.70
  -1   3  -9   59.19    6.60
  -1   3  -9   72.29    9.30
  -1   3  -9   78.99    8.10
  -1   3  -9   71.09    7.00
   1  -3   9   63.89    6.90
   1  -3   9   54.69    8.30
  -2   3  -9   60.79    8.10
  -2   3  -9   55.49    6.30
  -2   3  -9   58.49    9.30
  -2   3  -9   67.49    7.30
   2  -3   9   68.79    7.30
   2  -3   9   58.89    8.70
  -3   3  -9  206.48   12.50
  -3   3  -9  223.78   13.70
  -3   3  -9  172.28   14.30
  -3   3  -9  202.68   14.20
   3  -3   9  176.48   14.40
   3  -3   9  196.18   12.30
  -4   3  -9    3.20    5.70
  -4   3  -9   -1.10    5.20
  -4   3  -9   -7.90    4.30
   4  -3   9  -10.20    3.90
   8   2  -9   82.99   11.00
   8   2  -9  105.09    9.70
  -8  -2   9  115.59   10.10
  -8  -2   9  106.49   10.90
   7   2  -9    8.00    4.50
   7   2  -9   -0.50    5.70
  -7  -2   9   10.70    5.80
  -7  -2   9   13.20    4.60
   6   2  -9   41.40    6.30
   6   2  -9   34.20    6.60
   6   2  -9   30.50    5.70
   6   2  -9   29.70    7.40
  -6  -2   9   24.20    6.00
  -6  -2   9   39.10    6.30
  -6  -2   9   28.90    7.10
   5   2  -9  325.17   17.50
   5   2  -9  301.87   17.60
   5   2  -9  317.57   16.00
  -5  -2   9  331.77   16.00
  -5  -2   9  317.77   15.90
  -5  -2   9  285.17   16.60
  -5  -2   9  317.27   21.30
   4   2  -9  245.38   14.70
   4   2  -9  226.88   12.60
   4   2  -9  241.98   12.80
   4   2  -9  226.38   14.40
  -4  -2   9  226.88   13.30
  -4  -2   9  248.38   13.40
  -4  -2   9  218.18   13.80
  -4  -2   9  225.38   12.40
   3   2  -9    1.50    3.00
   3   2  -9   -1.20    5.00
   3   2  -9    0.90    2.80
   3   2  -9    1.40    4.60
  -3  -2   9    1.10    4.20
  -3  -2   9    0.50    4.20
  -3  -2   9    0.70    2.60
  -3  -2   9   -0.60    3.30
   2   2  -9  190.08   13.10
   2   2  -9  198.28   11.70
   2   2  -9  186.68   10.90
  -2  -2   9  200.98   11.60
  -2  -2   9  194.68   10.90
  -2  -2   9  203.18   12.60
   1   2  -9  274.37   17.40
   1   2  -9  322.97   15.20
   1   2  -9  312.87   15.90
   1   2  -9  331.67   15.30
  -1  -2   9  324.77   15.20
  -1  -2   9  328.27   16.10
  -1  -2   9  307.87   17.20
   0   2  -9   44.30    5.60
   0   2  -9   36.30    5.90
   0   2  -9   24.10    4.40
   0   2  -9   34.40    7.10
   0  -2   9   31.80    5.50
   0  -2   9   32.50    5.10
   0  -2   9   33.30    6.50
  -1   2  -9    1.90    3.20
  -1   2  -9    3.00    3.30
  -1   2  -9   15.10    5.90
  -1   2  -9    9.80    4.10
   1  -2   9   -6.30    4.80
   1  -2   9   -2.80    3.00
  -2   2  -9   42.90    5.80
  -2   2  -9   62.69    7.70
  -2   2  -9   66.69   10.20
   2  -2   9   47.30    8.70
   2  -2   9   54.49    6.80
  -3   2  -9   75.69    8.90
  -3   2  -9   64.19    7.30
  -3   2  -9   74.49   10.40
   3  -2   9   63.09    7.30
   3  -2   9   55.99    9.10
  -4   2  -9   14.70    6.00
  -4   2  -9    7.80    6.10
  -4   2  -9    7.20    5.80
   4  -2   9   18.40    6.20
   4  -2   9   13.70    7.70
   8   1  -9  137.79   12.40
   8   1  -9  130.49   10.50
  -8  -1   9  118.19   11.60
  -8  -1   9  125.39   10.40
   7   1  -9    5.20    6.40
   7   1  -9    7.10    4.00
  -7  -1   9    3.80    4.00
  -7  -1   9    2.60    4.80
   6   1  -9   59.89    8.90
   6   1  -9   60.99    7.50
   6   1  -9   72.89    7.40
  -6  -1   9   54.69    7.10
  -6  -1   9   55.99    6.60
  -6  -1   9   56.69    8.60
  -6  -1   9   67.59    7.60
   5   1  -9  130.49    9.20
   5   1  -9  126.89   11.10
   5   1  -9  143.69    9.50
   5   1  -9  122.19    9.90
  -5  -1   9  146.79   10.10
  -5  -1   9  129.49   10.60
  -5  -1   9  127.89    9.70
  -5  -1   9  139.39    9.50
   4   1  -9    6.10    3.20
   4   1  -9   15.00    5.30
   4   1  -9   10.80    5.90
   4   1  -9    6.60    3.90
  -4  -1   9    6.50    3.50
  -4  -1   9    5.70    4.70
  -4  -1   9    6.80    4.30
  -4  -1   9    9.50    3.90
   3   1  -9   47.00    5.30
   3   1  -9   41.70    5.40
   3   1  -9   60.69    7.90
   3   1  -9   48.00    5.60
  -3  -1   9   39.30    6.70
  -3  -1   9   29.70    5.20
  -3  -1   9   26.00    4.30
  -3  -1   9   41.50    6.60
   2   1  -9   67.69    5.60
   2   1  -9   74.99    8.10
   2   1  -9   49.10    6.00
   2   1  -9   48.60    5.50
  -2  -1   9   39.60    7.10
  -2  -1   9   35.40    5.70
  -2  -1   9   54.69    6.20
   1   1  -9  324.57   15.60
   1   1  -9  332.77   15.40
   1   1  -9  317.97   15.40
   1   1  -9  340.07   18.70
  -1  -1   9  324.17   16.50
  -1  -1   9  336.67   15.70
  -1  -1   9  305.47   17.40
   0   1  -9  235.58   12.40
   0   1  -9  221.88   14.80
   0   1  -9  212.68   12.10
   0  -1   9  248.58   13.70
   0  -1   9  234.38   15.00
   0  -1   9  250.97   12.70
  -1   1  -9    0.20    3.60
   1  -1   9    4.30    4.10
   1  -1   9   11.00    4.30
   1  -1   9    3.00    4.90
  -2   1  -9   -0.10    4.60
  -2   1  -9   -1.30    4.00
   2  -1   9   -1.40    5.50
   2  -1   9   -1.90    4.30
   2  -1   9   -2.30    3.90
  -3   1  -9  116.69    9.80
  -3   1  -9  118.69   11.50
   3  -1   9  112.69   12.40
   3  -1   9  115.29   10.00
  -4   1  -9  303.77   17.30
   4  -1   9  279.37   24.00
   4  -1   9  336.27   18.30
   8   0  -9   53.49    9.60
   8   0  -9   91.59    8.80
  -8   0   9   83.09    9.00
  -8   0   9   68.09    9.80
   7   0  -9   83.99   10.70
   7   0  -9  104.79    8.90
  -7   0   9  104.49    9.10
  -7   0   9   84.79    9.10
  -7   0   9   81.29    9.90
  -7   0   9  124.09    9.90
   6   0  -9  284.77   17.10
   6   0  -9  267.37   14.20
   6   0  -9  243.38   16.20
  -6   0   9  274.87   15.20
  -6   0   9  242.08   15.40
  -6   0   9  259.37   14.20
  -6   0   9  253.77   14.80
   5   0  -9   57.79    8.70
   5   0  -9   62.09    7.00
   5   0  -9   57.19    7.20
  -5   0   9   74.19    8.70
  -5   0   9   59.99    6.70
  -5   0   9   51.49    6.80
  -5   0   9   45.50    7.00
   4   0  -9    7.70    4.40
   4   0  -9    4.80    3.30
  -4   0   9    4.50    3.20
  -4   0   9    6.00    4.80
  -4   0   9    6.10    4.60
  -4   0   9    6.90    3.80
   3   0  -9  250.67   15.20
   3   0  -9  277.27   13.70
  -3   0   9  245.78   14.90
  -3   0   9  288.17   14.90
  -3   0   9  278.57   14.70
  -3   0   9  294.57   13.90
   2   0  -9   60.99    7.40
   2   0  -9   62.89    6.30
  -2   0   9   77.99    9.40
  -2   0   9   66.99    7.20
  -2   0   9   69.79    6.50
  -2   0   9   64.99    7.20
   1   0  -9    3.20    3.00
  -1   0   9    1.30    3.60
  -1   0   9    0.30    4.50
  -1   0   9    8.50    3.60
   0   0  -9  104.29   10.50
   0   0  -9  103.79    8.00
   0   0   9  114.29   10.80
   0   0   9  108.29    8.30
   0   0   9   95.59    9.00
  -1   0  -9   50.09    6.40
  -1   0  -9   44.50    8.30
   1   0   9   45.90    7.30
   1   0   9   35.80    5.70
   1   0   9   45.60    8.50
  -2   0  -9  147.49   10.60
   2   0   9  160.28   12.00
   2   0   9  157.78   11.00
   2   0   9  153.08   13.50
  -3   0  -9   27.40    5.70
   3   0   9   37.10    8.60
   3   0   9   39.60    6.80
   3   0   9   46.10    8.80
   8  -1  -9    4.50    6.40
   8  -1  -9   12.70    4.90
  -8   1   9    2.30    5.20
  -8   1   9   11.60    4.70
  -8   1   9    8.40    6.20
  -8   1   9   14.80    5.70
   7  -1  -9  176.28   11.00
  -7   1   9  153.08   12.50
  -7   1   9  154.28   12.30
  -7   1   9  179.18   12.30
  -7   1   9  161.48   11.20
   6  -1  -9  367.16   17.60
  -6   1   9  376.36   18.00
  -6   1   9  349.27   19.10
  -6   1   9  326.97   18.90
  -6   1   9  393.06   19.00
   5  -1  -9   58.49    6.50
  -5   1   9   43.40    5.50
  -5   1   9   38.20    6.60
  -5   1   9   67.89    8.30
  -5   1   9   44.60    6.30
   4  -1  -9   80.69    7.20
   4  -1  -9  103.39    8.50
  -4   1   9   84.59    8.60
  -4   1   9   78.39    8.50
  -4   1   9   74.59    7.00
  -4   1   9   85.59    8.20
   3  -1  -9  225.48   11.90
   3  -1  -9  214.68   13.30
  -3   1   9  229.38   13.00
  -3   1   9  215.58   14.40
  -3   1   9  220.98   12.70
  -3   1   9  228.48   12.10
   2  -1  -9  142.49   11.10
   2  -1  -9  163.78    9.60
  -2   1   9  173.98   10.50
  -2   1   9  154.78    9.60
  -2   1   9  151.58   10.60
  -2   1   9  151.88   11.70
   1  -1  -9  327.67   15.80
   1  -1  -9  295.87   18.00
  -1   1   9  349.87   17.20
  -1   1   9  348.27   16.10
  -1   1   9  324.37   18.70
   0  -1  -9    1.90    3.60
   0   1   9   -3.30    3.80
   0   1   9    4.30    5.80
   0   1   9    1.30    3.00
  -1  -1  -9  660.83   27.80
   1   1   9  637.24   28.00
   1   1   9  668.43   29.50
   1   1   9  585.04   30.50
  -2  -1  -9   68.59    8.00
   2   1   9   57.89    9.80
   2   1   9   59.79    8.60
   2   1   9   50.29    6.80
   8  -2  -9  117.19   10.60
  -8   2   9  100.89   10.90
  -8   2   9   96.89   11.10
  -8   2   9  120.49   10.70
  -8   2   9  104.19    9.60
   7  -2  -9   58.99    7.00
  -7   2   9   48.30    6.50
  -7   2   9   58.09    8.80
  -7   2   9   44.30    7.50
  -7   2   9   60.99    8.00
   6  -2  -9  268.47   14.00
  -6   2   9  271.37   16.10
  -6   2   9  267.47   16.50
  -6   2   9  261.17   14.30
  -6   2   9  273.47   15.30
   5  -2  -9   -1.60    3.00
  -5   2   9    0.20    4.00
  -5   2   9    2.30    5.20
  -5   2   9   -0.10    3.30
  -5   2   9   -0.30    4.30
   4  -2  -9    6.50    3.30
  -4   2   9    3.80    5.20
  -4   2   9    6.90    4.50
  -4   2   9   10.20    4.70
  -4   2   9    5.70    3.40
   3  -2  -9   11.70    3.50
  -3   2   9   18.10    5.00
  -3   2   9   20.00    6.60
  -3   2   9   23.40    5.40
  -3   2   9   21.90    4.50
   2  -2  -9  125.59    8.40
  -2   2   9  118.39    8.50
  -2   2   9  123.69    9.70
  -2   2   9  128.39   11.60
  -2   2   9  119.29    8.70
   1  -2  -9    1.00    3.00
  -1   2   9   -2.80    3.00
  -1   2   9   -1.50    3.60
  -1   2   9    2.70    6.10
   0   2   9  206.58   13.20
   0   2   9  205.28   15.20
   0   2   9  205.38   12.20
   1   2   9  125.19   12.70
   1   2   9  127.29   11.20
   1   2   9  129.09    9.80
   2   2   9   22.60   11.90
   2   2   9   36.00    7.40
  -8   3   9    1.30    5.70
  -8   3   9   17.70    8.00
  -8   3   9   21.80    5.90
  -8   3   9    2.40    6.60
  -7   3   9  281.47   14.80
  -7   3   9  254.87   16.60
  -7   3   9  276.87   15.80
  -7   3   9  256.67   17.40
  -6   3   9   87.89   10.90
  -6   3   9   97.39   10.10
  -6   3   9   95.89    8.10
  -6   3   9   84.79    8.70
  -5   3   9   41.90    5.50
  -5   3   9   55.39    7.30
  -5   3   9   49.40    7.40
  -5   3   9   57.09    8.80
  -4   3   9  225.68   13.30
  -4   3   9  210.78   13.00
  -4   3   9  212.98   11.80
  -4   3   9  205.48   15.10
  -3   3   9   -2.30    2.90
  -3   3   9   -0.20    3.70
  -3   3   9   -1.00    5.80
  -3   3   9    5.30    4.10
  -2   3   9   39.20    6.20
  -2   3   9   50.49    6.00
  -2   3   9   42.10    8.60
  -1   3   9   45.30    5.90
  -1   3   9   32.90    7.70
  -1   3   9   61.09    8.00
   0   3   9   35.80    7.60
   0   3   9   36.70    5.80
   0   3   9   42.80    7.30
  -7   4   9    2.10    4.10
  -7   4   9   -0.50    3.60
  -7   4   9   -1.80    6.30
  -7   4   9    1.20    5.90
  -6   4   9    2.00    6.30
  -6   4   9    1.20    5.50
  -6   4   9    3.30    3.60
  -6   4   9   -1.80    4.00
  -5   4   9  108.09   11.40
  -5   4   9  104.19    8.10
  -5   4   9  107.89    9.40
  -5   4   9  124.59   10.30
  -4   4   9   73.09    6.90
  -4   4   9   95.99    8.50
  -4   4   9   78.99    8.20
  -4   4   9   57.49    9.40
  -3   4   9    9.70    4.80
  -3   4   9   13.20    7.30
  -3   4   9    6.90    3.60
  -2   4   9   -4.00    3.10
  -2   4   9   -7.80    3.60
  -2   4   9    0.30    6.30
  -1   4   9   36.20    6.50
  -1   4   9   52.89    6.40
  -1   4   9   38.40    9.30
  -5   5   9   -5.80    2.80
  -4   5   9   31.70    5.00
   1   8 -10  158.98   12.70
   1   8 -10  165.58   18.60
   1   8 -10  138.99   10.00
   0   8 -10  101.19    8.70
   0   8 -10  106.49    8.90
   0   8 -10  112.59   14.40
  -1   8 -10   34.90    6.30
  -1   8 -10   32.70   10.50
  -1   8 -10   27.40    5.70
   3   7 -10   17.90    7.70
   3   7 -10    3.60    5.90
   3   7 -10   21.10    5.20
   3   7 -10   23.20    5.10
   2   7 -10    4.20    3.70
   2   7 -10    0.10    4.50
   2   7 -10    5.00    4.00
   2   7 -10   -4.60    5.50
   2   7 -10    3.60    6.80
   1   7 -10   83.49    9.30
   1   7 -10   93.89    8.10
   1   7 -10   86.69    8.00
   1   7 -10   85.39   12.30
   1   7 -10   92.39   12.60
   0   7 -10   63.39   11.00
   0   7 -10   79.29   10.80
   0   7 -10   68.39    7.40
   0   7 -10   76.39    7.70
  -1   7 -10   38.20   10.20
  -1   7 -10   41.40    6.30
  -1   7 -10   31.40    9.10
  -1   7 -10   33.00    5.60
  -2   7 -10   -4.20    6.10
  -2   7 -10   -5.50    7.10
  -2   7 -10   -6.60    3.90
  -2   7 -10   -4.20    3.90
  -3   7 -10    1.60    6.30
  -3   7 -10   -4.50    3.90
   5   6 -10   89.99    8.70
   5   6 -10   41.40   13.40
   5   6 -10   71.69   11.40
   4   6 -10   43.80    8.90
   4   6 -10   47.50    8.70
   4   6 -10   64.29    7.40
   4   6 -10   40.10    5.70
   3   6 -10  170.38   14.50
   3   6 -10  182.08   11.60
   3   6 -10  166.78   12.80
   3   6 -10  189.88   11.30
   2   6 -10  144.49    9.90
   2   6 -10  146.79   11.70
   2   6 -10  151.18   14.20
   2   6 -10  137.99    9.90
   2   6 -10  125.19   12.80
   1   6 -10   49.50    6.30
   1   6 -10   59.39   10.00
   1   6 -10   55.59    7.80
   1   6 -10   58.79   10.70
   1   6 -10   56.59    6.80
   0   6 -10   74.19    7.60
   0   6 -10   69.89    9.10
   0   6 -10   68.49    7.40
   0   6 -10   77.99   10.50
   0   6 -10   46.40    9.40
  -1   6 -10  219.58   12.90
  -1   6 -10  222.38   12.70
  -1   6 -10  225.38   16.50
  -1   6 -10  190.98   16.00
  -2   6 -10  213.48   17.20
  -2   6 -10  237.98   13.70
  -2   6 -10  245.08   17.60
  -2   6 -10  257.17   14.20
  -3   6 -10    0.80    6.60
  -3   6 -10   -2.80    4.40
  -3   6 -10    1.10    6.20
  -3   6 -10  -10.50    4.10
   6   5 -10   42.40    9.00
   6   5 -10   51.09    7.60
   5   5 -10    8.20    4.50
   5   5 -10    3.80    3.60
   5   5 -10   -2.80    5.90
   5   5 -10    0.00    5.80
  -5  -5  10    3.10    4.00
   4   5 -10   97.79    8.30
   4   5 -10   88.99   10.00
   4   5 -10  101.09    8.80
   4   5 -10   95.59   10.70
  -4  -5  10   90.99    7.70
   3   5 -10   20.50    6.60
   3   5 -10   31.30    5.50
   3   5 -10   26.40    5.00
   3   5 -10   26.60    7.10
  -3  -5  10   28.60    4.50
   2   5 -10    2.20    3.70
   2   5 -10    5.40    5.20
   2   5 -10   16.70    7.20
   2   5 -10   11.60    6.30
   2   5 -10   10.30    4.00
  -2  -5  10    8.90    5.30
  -2  -5  10    7.70    3.60
   1   5 -10   61.79    7.20
   1   5 -10   42.80    5.80
   1   5 -10   47.70    8.40
   1   5 -10   46.90    7.40
   1   5 -10   35.80    8.20
  -1  -5  10   51.09    8.20
  -1  -5  10   59.39    6.60
   0   5 -10  241.58   12.90
   0   5 -10  232.58   12.80
   0   5 -10  195.28   16.20
   0   5 -10  224.18   15.60
   0  -5  10  204.68   15.20
   0  -5  10  233.18   12.40
  -1   5 -10  422.96   23.40
  -1   5 -10  454.65   20.30
  -1   5 -10  458.15   20.60
  -1   5 -10  394.86   24.30
   1  -5  10  450.85   20.10
   1  -5  10  377.26   22.70
  -2   5 -10   56.59    9.70
  -2   5 -10   63.59    7.90
  -2   5 -10   62.79   11.50
  -2   5 -10   75.69    8.40
   2  -5  10   53.79    6.70
  -3   5 -10    4.70    6.00
  -3   5 -10    2.20    4.50
  -3   5 -10    2.30    4.50
  -3   5 -10    2.20    7.20
   3  -5  10    4.80    4.50
  -4   5 -10  114.89   15.70
   4  -5  10   76.59    8.90
   6   4 -10  248.08   14.40
   6   4 -10  226.38   13.50
   6   4 -10  189.68   15.30
   6   4 -10  231.88   16.10
  -6  -4  10  224.88   13.40
   5   4 -10   -2.40    3.00
   5   4 -10   -6.30    4.60
   5   4 -10    2.60    5.30
   5   4 -10    2.90    3.90
  -5  -4  10    0.60    3.10
   4   4 -10   30.80    7.80
   4   4 -10   41.40    6.30
   4   4 -10   37.20    7.70
   4   4 -10   37.20    6.00
  -4  -4  10   19.10    4.10
   3   4 -10    4.00    3.60
   3   4 -10    4.50    3.40
   3   4 -10    5.30    5.30
   3   4 -10    0.90    5.60
  -3  -4  10    0.40    4.40
  -3  -4  10    2.60    2.90
   2   4 -10  433.06   24.20
   2   4 -10  450.05   20.50
   2   4 -10  462.45   20.80
   2   4 -10  442.66   22.50
   2   4 -10  451.05   23.70
  -2  -4  10  412.36   21.90
  -2  -4  10  461.15   20.40
   1   4 -10    8.00    4.50
   1   4 -10   13.40    4.20
   1   4 -10   11.00    6.00
   1   4 -10   12.00    4.40
   1   4 -10   14.30    5.60
  -1  -4  10    8.20    5.90
  -1  -4  10   16.40    4.60
   0   4 -10  143.99   13.70
   0   4 -10  173.38   10.50
   0   4 -10  161.68   12.40
   0   4 -10  160.68   10.40
   0  -4  10  144.79   12.60
   0  -4  10  158.28   10.10
  -1   4 -10   93.39   10.00
  -1   4 -10   91.69    8.40
  -1   4 -10   94.39    8.30
  -1   4 -10   78.29   11.30
   1  -4  10   79.59   10.50
   1  -4  10  106.89    8.30
  -2   4 -10   39.30    6.10
  -2   4 -10   53.19    9.30
  -2   4 -10   36.40    6.70
  -2   4 -10   44.20   10.10
   2  -4  10   40.00    9.00
   2  -4  10   44.70    6.80
  -3   4 -10   -4.10    6.80
  -3   4 -10    6.50    5.20
  -3   4 -10    9.80    6.30
   3  -4  10   10.60    4.70
   4  -4  10    4.10    5.30
   7   3 -10   99.89   16.20
   7   3 -10  114.89    9.90
  -7  -3  10  107.89   12.00
  -7  -3  10  118.39    9.90
   6   3 -10   74.39   10.30
   6   3 -10   82.59    8.30
   6   3 -10   81.99   12.80
   6   3 -10   77.89    9.40
  -6  -3  10   63.69    9.30
  -6  -3  10   73.49    7.90
   5   3 -10  133.69   11.80
   5   3 -10  150.58   10.30
   5   3 -10  145.99   12.70
   5   3 -10  151.28   10.40
  -5  -3  10  145.49    9.90
  -5  -3  10  125.89   11.10
   4   3 -10  145.59   10.00
   4   3 -10  151.68   12.60
   4   3 -10  144.29   10.00
   4   3 -10  133.89   12.00
  -4  -3  10  147.49    9.60
  -4  -3  10  126.99   10.30
   3   3 -10  396.26   21.70
   3   3 -10  379.46   20.40
   3   3 -10  399.66   18.60
  -3  -3  10  380.26   18.20
  -3  -3  10  378.16   19.60
   2   3 -10  273.37   17.60
   2   3 -10  317.77   15.30
   2   3 -10  295.77   15.00
   2   3 -10  293.37   16.60
   2   3 -10  282.37   16.40
  -2  -3  10  302.37   14.90
  -2  -3  10  280.77   16.80
   1   3 -10   -1.50    3.50
   1   3 -10    1.40    5.90
   1   3 -10    0.60    3.10
   1   3 -10   -4.80    2.90
  -1  -3  10   -3.00    4.90
  -1  -3  10   -2.20    3.00
   0   3 -10   82.49    7.80
   0   3 -10   84.29    8.60
   0   3 -10   83.59    7.80
   0   3 -10   77.79   10.00
   0  -3  10   79.09    9.90
   0  -3  10   80.79    7.60
  -1   3 -10   -0.90    3.50
  -1   3 -10    2.70    4.20
  -1   3 -10   -2.60    3.30
  -1   3 -10    4.20    5.70
   1  -3  10    0.40    5.10
   1  -3  10   -2.30    3.40
  -2   3 -10  136.79   10.30
  -2   3 -10  127.79   13.30
  -2   3 -10  137.19   11.70
   2  -3  10  139.49   10.40
   2  -3  10  125.39   12.30
  -3   3 -10  212.98   17.50
  -3   3 -10  216.88   13.50
  -3   3 -10  199.38   16.50
   3  -3  10  210.18   13.30
   3  -3  10  186.18   15.50
   7   2 -10   63.29    9.60
   7   2 -10   89.29    8.60
  -7  -2  10   65.19    7.80
  -7  -2  10   74.49   10.10
   6   2 -10    5.30    6.00
   6   2 -10    2.70    4.90
   6   2 -10    3.30    3.90
  -6  -2  10    6.10    5.60
  -6  -2  10    0.20    3.60
   5   2 -10  191.48   11.60
   5   2 -10  165.88   12.60
   5   2 -10  183.18   14.20
  -5  -2  10  168.98   12.80
  -5  -2  10  175.98   11.20
  -5  -2  10  170.08   11.80
   4   2 -10  102.69   10.20
   4   2 -10   88.49    8.10
  -4  -2  10   84.99    9.00
  -4  -2  10   86.09    7.70
  -4  -2  10   85.69    8.90
   3   2 -10   25.70    6.80
   3   2 -10    8.60    3.60
   3   2 -10   15.30    4.40
   3   2 -10    1.40    3.70
  -3  -2  10    8.70    3.80
  -3  -2  10   -0.80    4.90
  -3  -2  10   -0.30    3.70
   2   2 -10   38.80    8.00
   2   2 -10   58.79    6.70
   2   2 -10   42.60    5.90
   2   2 -10   42.20    6.00
  -2  -2  10   45.20    8.00
  -2  -2  10   56.59    7.30
  -2  -2  10   46.70    5.80
   1   2 -10    8.50    3.80
   1   2 -10    8.50    3.80
   1   2 -10   11.50    4.80
   1   2 -10   13.10    6.50
  -1  -2  10   14.50    6.30
  -1  -2  10   12.10    4.80
  -1  -2  10   10.10    3.90
   0   2 -10   61.79    6.80
   0   2 -10   79.69    9.80
   0  -2  10   72.59    7.30
   0  -2  10   69.59    9.70
  -1   2 -10   17.70    7.20
  -1   2 -10   12.80    4.10
   1  -2  10   21.00    5.10
   1  -2  10    3.20    5.90
  -2   2 -10   94.49    8.90
  -2   2 -10   97.29   11.00
   2  -2  10   95.79    9.10
   2  -2  10   63.59    9.70
  -3   2 -10   98.59   10.30
  -3   2 -10   75.69   16.00
   3  -2  10  103.39   10.60
   3  -2  10   61.59   12.30
   8   1 -10  196.98   13.00
  -8  -1  10  182.28   13.10
   7   1 -10   53.09    6.80
   7   1 -10   63.69    9.90
  -7  -1  10   68.09    9.70
  -7  -1  10   79.49    8.40
   6   1 -10   65.49   10.10
   6   1 -10   58.79    7.30
   6   1 -10   48.50    8.80
  -6  -1  10   51.69    6.50
  -6  -1  10   53.79    8.10
  -6  -1  10   57.89    7.90
   5   1 -10  180.38   12.70
   5   1 -10  185.08   11.40
   5   1 -10  156.18   13.10
  -5  -1  10  182.98   11.20
  -5  -1  10  188.28   12.10
  -5  -1  10  160.18   11.80
  -5  -1  10  167.98   12.60
   4   1 -10  158.18   10.30
   4   1 -10  135.29   11.70
  -4  -1  10  160.78   11.20
  -4  -1  10  150.18   11.60
  -4  -1  10  156.28   10.10
  -4  -1  10  161.18   11.70
   3   1 -10   50.09    6.00
   3   1 -10   40.90    7.50
  -3  -1  10   49.80    7.50
  -3  -1  10   56.99    7.50
  -3  -1  10   68.49    7.20
  -3  -1  10   54.49    8.00
   2   1 -10   40.10    5.80
   2   1 -10   31.70    7.30
  -2  -1  10   29.40    5.30
  -2  -1  10   27.20    5.70
  -2  -1  10   19.90    5.90
   1   1 -10   41.50    6.00
   1   1 -10   36.90    8.20
  -1  -1  10   40.10    6.20
  -1  -1  10   29.60    7.30
  -1  -1  10   39.50    6.70
   0   1 -10  225.98   16.10
   0   1 -10  276.27   14.00
   0  -1  10  240.38   16.50
   0  -1  10  263.27   15.10
   0  -1  10  273.77   14.10
  -1   1 -10   62.19    7.60
  -1   1 -10   44.70    8.50
   1  -1  10   78.29    8.50
   1  -1  10   38.30    8.00
   1  -1  10   36.40    7.60
  -2   1 -10   14.20    5.20
  -2   1 -10   21.20    7.20
   2  -1  10   17.90    7.40
   2  -1  10    9.30    4.90
  -3   1 -10   75.59    8.70
   8   0 -10   51.19    6.90
   8   0 -10   38.50   15.20
  -8   0  10   52.29    9.80
   7   0 -10   -1.20    3.70
   7   0 -10    4.80    6.60
  -7   0  10    0.40    5.70
  -7   0  10    1.10    3.90
  -7   0  10   -7.00    4.60
   6   0 -10    6.30    4.20
  -6   0  10    5.90    5.00
  -6   0  10    7.80    5.60
  -6   0  10   15.30    4.70
  -6   0  10    9.60    4.90
   5   0 -10   20.20    5.20
  -5   0  10   14.20    4.30
  -5   0  10   13.50    5.00
  -5   0  10   15.20    5.90
  -5   0  10   13.70    5.60
   4   0 -10  105.39    8.60
   4   0 -10  114.29    9.80
  -4   0  10  107.19    9.60
  -4   0  10   91.59    9.80
  -4   0  10  110.49    8.40
  -4   0  10  104.19    9.70
   3   0 -10  146.39    9.60
   3   0 -10  143.79   11.40
  -3   0  10  141.39   10.70
  -3   0  10  132.09   11.10
  -3   0  10  149.69   10.70
  -3   0  10  145.19    9.60
   2   0 -10  106.39   10.30
   2   0 -10  110.49    8.30
  -2   0  10   95.79   10.50
  -2   0  10  102.89    8.20
  -2   0  10  110.29    9.40
   1   0 -10  139.09    9.70
   1   0 -10  174.08   12.80
  -1   0  10  126.29   12.20
  -1   0  10  143.49    9.80
  -1   0  10  142.89   10.90
   0   0 -10  249.58   13.50
   0   0 -10  238.38   16.20
   0   0  10  241.38   14.80
   0   0  10  239.98   13.60
  -1   0 -10   19.60    6.40
  -1   0 -10   12.90    4.80
   1   0  10    7.80    6.60
   1   0  10   11.90    4.90
   1   0  10    8.60    5.50
  -2   0 -10   -7.50    3.90
   2   0  10   -8.00    4.50
   2   0  10   -5.40    7.80
   8  -1 -10   18.90    5.50
  -8   1  10    0.20    5.70
   7  -1 -10  202.58   12.60
  -7   1  10  224.38   14.10
  -7   1  10  203.08   14.60
  -7   1  10  203.58   12.80
  -7   1  10  178.98   13.80
   6  -1 -10  264.67   14.20
  -6   1  10  245.68   15.90
  -6   1  10  226.08   15.60
  -6   1  10  280.57   15.60
  -6   1  10  266.97   14.50
   5  -1 -10   38.80    5.90
  -5   1  10   21.70    4.70
  -5   1  10   20.20    5.70
  -5   1  10   19.60    5.40
  -5   1  10   23.90    7.10
   4  -1 -10   16.40    5.10
   4  -1 -10   -1.30    3.30
  -4   1  10   -6.00    4.90
  -4   1  10   -4.60    3.80
  -4   1  10   -5.60    3.30
  -4   1  10   -2.30    4.20
   3  -1 -10  104.49    9.90
   3  -1 -10  111.19    8.50
  -3   1  10  101.69    9.50
  -3   1  10  119.39    9.80
  -3   1  10  111.69    8.40
  -3   1  10  108.49   11.10
   2  -1 -10  133.69   11.30
   2  -1 -10  144.89    9.60
  -2   1  10  148.49   11.10
  -2   1  10  145.29    9.60
  -2   1  10  123.79   12.20
   1  -1 -10   20.30    4.90
   1  -1 -10   32.40    6.80
  -1   1  10   22.30    7.30
  -1   1  10   17.20    5.20
  -1   1  10   25.70    5.00
   0  -1 -10   25.80    5.40
   0   1  10   19.20    6.00
   0   1  10   25.00    5.50
   0   1  10   18.20    7.10
  -1  -1 -10   -0.80    5.40
   1   1  10   -3.10    4.10
   1   1  10   -0.50    7.10
   1   1  10   -3.30    5.10
  -7   2  10   19.10    5.00
  -7   2  10   22.80    7.40
  -7   2  10   15.80    6.40
  -7   2  10   21.70    6.10
  -6   2  10   93.49    8.50
  -6   2  10   90.59    9.30
  -6   2  10  102.89   10.60
  -6   2  10   81.59   10.70
   5  -2 -10   87.79    9.00
  -5   2  10   83.69    9.50
  -5   2  10   80.29    8.70
  -5   2  10   83.59    7.90
  -5   2  10   85.29   11.00
   4  -2 -10    0.60    4.80
  -4   2  10    1.00    6.20
  -4   2  10   -4.50    3.10
  -4   2  10   -6.90    3.80
  -4   2  10   -0.80    4.70
  -3   2  10   77.19   10.60
  -3   2  10   69.19    7.10
  -3   2  10   72.79    8.10
  -3   2  10   56.69    7.50
  -2   2  10  128.59    9.30
  -2   2  10  116.39   12.40
  -2   2  10  127.69   10.50
  -1   2  10   51.89    9.40
  -1   2  10   37.10    6.20
  -1   2  10   44.40    7.60
   0   2  10    6.90    7.30
   0   2  10    3.80    5.40
   0   2  10   12.30    8.10
  -7   3  10    2.90    4.50
  -7   3  10    7.30    7.20
  -7   3  10    5.80    6.00
  -6   3  10   18.90    6.90
  -6   3  10   31.70    6.50
  -6   3  10   42.40    6.10
  -6   3  10   45.40    7.80
  -5   3  10   -3.10    6.40
  -5   3  10   14.80    5.70
  -5   3  10    3.90    4.70
  -5   3  10    3.30    3.80
  -4   3  10   -2.80    4.00
  -4   3  10    3.90    6.50
  -4   3  10    6.50    4.00
  -4   3  10   11.60    5.10
  -3   3  10   -2.60    4.30
  -3   3  10   -6.30    5.50
  -3   3  10    3.00    3.80
  -2   3  10   31.00    6.40
  -2   3  10   45.20   11.00
  -2   3  10   58.39    7.20
  -1   3  10   93.09    9.90
   2   7 -11  132.69   14.70
   2   7 -11  122.59    9.90
   2   7 -11  114.19   11.60
   1   7 -11  301.57   16.40
   1   7 -11  311.27   21.60
   0   7 -11  150.08   15.00
   0   7 -11  153.88   11.00
  -1   7 -11    1.70    4.50
  -1   7 -11    1.50    6.40
   4   6 -11   40.80    8.30
   4   6 -11   69.09    8.00
   4   6 -11   42.60   10.20
   3   6 -11   43.60    9.30
   3   6 -11   55.09    9.20
   3   6 -11   68.19    7.90
   3   6 -11   49.30    6.90
   2   6 -11   20.10    7.90
   2   6 -11   23.20    7.90
   2   6 -11   16.60    6.50
   2   6 -11   16.00    5.10
   2   6 -11   25.00    5.70
   1   6 -11    4.30    4.10
   1   6 -11    5.40    5.90
   1   6 -11   10.00    6.60
   1   6 -11    0.40    6.60
   1   6 -11    8.10    4.90
   0   6 -11   31.50   10.10
   0   6 -11   48.10    9.80
   0   6 -11   58.09    7.60
   0   6 -11   30.90    6.00
  -1   6 -11  101.59   13.30
  -1   6 -11  113.89   12.40
  -1   6 -11   99.99    9.90
  -1   6 -11  102.99    9.60
  -2   6 -11  195.38   13.10
  -2   6 -11  182.48   15.60
   5   5 -11   95.89    9.20
   5   5 -11   64.29   11.00
   5   5 -11   57.19   13.50
   4   5 -11  127.89   13.40
   4   5 -11  136.49   10.40
   4   5 -11  152.98   10.90
   4   5 -11  133.59   12.20
  -4  -5  11  138.29    9.70
   3   5 -11  246.48   16.20
   3   5 -11  230.78   18.00
   3   5 -11  260.87   18.20
   3   5 -11  276.67   14.90
   3   5 -11  259.17   14.50
  -3  -5  11  262.87   14.10
   2   5 -11   43.30    6.20
   2   5 -11   49.00    8.80
   2   5 -11   59.09    9.40
   2   5 -11   44.10    6.40
   2   5 -11   48.70   10.30
  -2  -5  11   52.69    8.30
  -2  -5  11   59.59    7.10
   1   5 -11   -7.50    3.70
   1   5 -11   -0.80    6.60
   1   5 -11   -1.10    3.70
   1   5 -11   -3.90    4.50
  -1  -5  11   -1.20    3.50
  -1  -5  11   -1.80    5.30
   0   5 -11   62.39    7.20
   0   5 -11   59.69   10.70
   0   5 -11   61.89    9.70
   0   5 -11   65.29    7.60
   0  -5  11   60.99   10.00
   0  -5  11   71.49    7.80
  -1   5 -11  221.48   13.20
  -1   5 -11  218.08   13.30
  -1   5 -11  215.58   15.60
  -1   5 -11  184.08   16.20
   1  -5  11  181.98   15.70
   1  -5  11  220.78   12.80
  -2   5 -11   95.89    9.80
  -2   5 -11  113.29   15.10
  -2   5 -11  110.59   12.00
   2  -5  11   98.99    9.50
   6   4 -11  198.18   16.10
  -6  -4  11  236.38   13.60
   5   4 -11    3.90    4.00
   5   4 -11   -2.00    5.50
   5   4 -11    2.10    4.40
   5   4 -11   -1.10    5.60
  -5  -4  11    6.90    3.90
   4   4 -11  122.59    9.70
   4   4 -11  110.29   12.50
   4   4 -11  113.69   11.70
   4   4 -11  114.19    9.50
  -4  -4  11  120.89    9.00
   3   4 -11    2.00    5.10
   3   4 -11   -4.10    5.60
   3   4 -11   -5.30    3.60
   3   4 -11    0.30    5.50
   3   4 -11    2.10    4.10
  -3  -4  11   -2.00    4.80
  -3  -4  11   -3.30    3.30
   2   4 -11   27.40    7.10
   2   4 -11   26.10    5.80
   2   4 -11   25.90    6.40
   2   4 -11   22.10    7.20
   2   4 -11   18.40    4.70
  -2  -4  11   18.30    6.50
  -2  -4  11   22.70    4.90
   1   4 -11    7.30    4.20
   1   4 -11   17.20    7.40
   1   4 -11   -1.20    3.60
  -1  -4  11    2.20    5.70
  -1  -4  11    1.80    3.80
   0   4 -11   94.59    8.90
   0   4 -11  102.49    9.10
   0   4 -11   89.59   11.50
   0   4 -11  100.99   10.40
   0  -4  11   97.89    8.80
   0  -4  11  103.89   11.70
  -1   4 -11  159.58   15.50
  -1   4 -11  187.78   12.10
  -1   4 -11  172.48   13.90
   1  -4  11  197.98   12.00
   1  -4  11  170.68   14.80
  -2   4 -11  151.08   11.80
   2  -4  11  149.88   11.30
   2  -4  11  121.19   14.80
   6   3 -11  149.19   13.40
   6   3 -11  155.88   11.10
   6   3 -11  127.89   13.20
  -6  -3  11  137.99   13.30
  -6  -3  11  151.08   10.80
   5   3 -11   25.70    8.00
   5   3 -11   13.90    4.50
   5   3 -11   26.20    7.60
  -5  -3  11   12.40    3.80
   4   3 -11   33.10    5.90
   4   3 -11   21.40    7.60
   4   3 -11   17.40    7.50
  -4  -3  11   27.60    6.70
  -4  -3  11   20.10    4.50
   3   3 -11    0.20    5.20
   3   3 -11   -2.10    3.50
   3   3 -11    2.70    4.20
   3   3 -11   -5.00    5.80
  -3  -3  11   -1.60    3.00
  -3  -3  11   -0.80    5.10
   2   3 -11  105.29    8.80
   2   3 -11  114.69   12.20
  -2  -3  11   87.09   10.50
  -2  -3  11  106.29    8.60
   1   3 -11   18.00    6.90
   1   3 -11    4.40    4.10
  -1  -3  11    0.40    3.40
  -1  -3  11    8.60    6.00
   0   3 -11    0.50    6.70
   0   3 -11    6.70    4.90
   0  -3  11    7.20    4.70
   0  -3  11   10.20    6.50
  -1   3 -11   27.00    7.90
  -1   3 -11   19.30    5.00
   1  -3  11   32.80    6.30
   1  -3  11   29.30    8.50
  -2   3 -11   83.69    9.50
   2  -3  11   81.79    9.10
   2  -3  11   82.39   17.30
   7   2 -11    4.60    4.90
  -7  -2  11    5.00    4.20
   6   2 -11   21.60    5.20
   6   2 -11   28.70    8.10
  -6  -2  11   34.00    7.80
  -6  -2  11   12.20    4.40
   5   2 -11   64.59    7.70
   5   2 -11   52.79    9.70
   5   2 -11   71.39   10.10
  -5  -2  11   72.69    9.20
  -5  -2  11   42.80    8.00
  -5  -2  11   63.19    7.60
   4   2 -11  225.88   13.20
   4   2 -11  212.58   15.30
  -4  -2  11  237.08   13.00
  -4  -2  11  200.58   14.10
   3   2 -11  195.38   12.20
   3   2 -11  189.78   14.70
  -3  -2  11  193.48   14.00
  -3  -2  11  211.98   12.10
   2   2 -11   16.00    7.10
   2   2 -11   15.70    4.80
  -2  -2  11   10.60    6.50
  -2  -2  11    9.10    4.30
   1   2 -11   74.99    8.10
   1   2 -11   87.29   12.00
  -1  -2  11   86.29   10.60
  -1  -2  11   76.29    8.00
   0   2 -11  103.89    8.90
   0   2 -11   79.19   10.60
   0  -2  11   90.19   11.30
   0  -2  11  105.69    8.90
  -1   2 -11   -6.30    3.80
  -1   2 -11    7.80    6.50
   1  -2  11   -7.40    5.80
   1  -2  11   -4.20    4.00
  -2   2 -11   -0.10    4.90
   2  -2  11   -2.10    4.80
   7   1 -11  118.99   10.20
  -7  -1  11  104.39   10.10
   6   1 -11    0.10    6.80
   6   1 -11    1.60    4.10
  -6  -1  11   -2.00    3.70
  -6  -1  11   -0.60    4.80
  -6  -1  11   -0.30    5.10
   5   1 -11   87.79    8.50
   5   1 -11   82.89   10.00
  -5  -1  11   76.69    9.50
  -5  -1  11   79.19    9.90
  -5  -1  11   92.69    8.40
   4   1 -11  472.95   25.40
   4   1 -11  534.85   23.80
  -4  -1  11  511.15   24.90
  -4  -1  11  537.95   23.70
   3   1 -11  186.08   14.40
   3   1 -11  213.28   12.60
  -3  -1  11  196.98   14.50
  -3  -1  11  253.27   18.50
   2   1 -11    4.30    4.20
   2   1 -11   15.00    6.60
  -2  -1  11   10.30    4.60
  -2  -1  11    8.50    6.40
  -2  -1  11    4.10    5.80
   1   1 -11   30.00    6.00
   1   1 -11   33.40    8.40
  -1  -1  11   28.20    8.10
  -1  -1  11   24.80    5.40
   0   1 -11   50.99    6.40
   0   1 -11   72.19   11.00
   0  -1  11   60.79    7.00
   0  -1  11   70.59   10.50
  -1   1 -11   69.39   12.20
  -1   1 -11   81.19    8.90
   1  -1  11   66.89   14.90
   1  -1  11   82.89    9.60
   7   0 -11   -1.00    3.90
  -7   0  11    2.20    5.70
   6   0 -11    1.40    4.40
  -6   0  11    1.50    5.60
  -6   0  11   -4.90    5.30
  -6   0  11    5.60    4.10
   5   0 -11   51.49    6.80
  -5   0  11   39.20    5.90
  -5   0  11   44.40    8.30
  -5   0  11   44.10    7.30
  -5   0  11   38.90    8.00
   4   0 -11  127.99    9.70
   4   0 -11  144.99   11.50
  -4   0  11  110.29   11.50
  -4   0  11  123.69   10.60
  -4   0  11  113.49    9.40
  -4   0  11  126.99   11.20
   3   0 -11    7.30    5.50
   3   0 -11    8.00    4.10
  -3   0  11    9.80    4.60
  -3   0  11    7.90    6.40
  -3   0  11    0.90    4.40
   2   0 -11    8.50    4.80
   2   0 -11   20.30    6.70
  -2   0  11    6.90    3.90
  -2   0  11    4.40    5.20
  -2   0  11   -0.50    5.90
   1   0 -11   24.80    5.00
   1   0 -11   49.90    8.50
  -1   0  11   31.70    5.50
  -1   0  11   20.10    6.70
  -1   0  11   19.80    5.90
   0   0 -11  205.38   12.90
   0   0 -11  219.88   15.60
   0   0  11  228.48   17.30
   0   0  11  226.18   13.80
   0   0  11  172.28   17.20
   6  -1 -11   45.30    6.40
  -6   1  11   58.09    8.30
  -6   1  11   55.39    9.20
  -6   1  11   54.39    7.60
  -6   1  11   63.29    9.10
   5  -1 -11    9.90    4.50
  -5   1  11    4.00    6.60
  -5   1  11   19.90    5.20
  -5   1  11   19.40    6.40
  -5   1  11   26.50    7.10
   4  -1 -11    9.00    5.00
  -4   1  11    1.00    4.80
  -4   1  11   10.60    5.70
  -4   1  11    6.00    6.30
  -4   1  11    1.40    3.60
   3  -1 -11  107.69    9.20
   3  -1 -11  121.89   10.80
  -3   1  11  129.69   10.30
  -3   1  11  101.19    8.80
  -3   1  11   92.69   10.10
  -3   1  11  113.79   12.20
   2  -1 -11   91.39    8.60
   2  -1 -11   96.99   10.20
  -2   1  11   92.29    8.60
  -2   1  11   94.89   11.60
  -2   1  11   87.19    9.90
  -1   1  11   14.30    5.60
  -1   1  11    7.30    5.80
  -6   2  11   44.50    8.70
  -6   2  11   24.20    8.20
  -6   2  11   19.20    5.90
  -5   2  11  130.89   11.40
  -5   2  11  116.29   13.00
  -5   2  11  116.09   10.90
  -4   2  11    2.30    5.40
  -4   2  11    2.80    5.10
  -4   2  11  -11.20    3.90
  -4   2  11   -7.20    6.30
  -3   2  11   47.10    9.50
  -3   2  11   25.80    6.40
  -2   2  11   84.49    9.90
   3   5 -12  189.38   16.40
   3   5 -12  163.68   15.30
   3   5 -12  180.88   14.40
  -3  -5  12  205.18   12.20
   2   5 -12  166.08   15.60
   2   5 -12  178.78   14.20
   2   5 -12  183.28   16.60
  -2  -5  12  212.78   12.30
  -2  -5  12  169.68   14.20
   1   5 -12   -7.60    4.00
  -1  -5  12   -7.90    3.50
  -1  -5  12   -4.50    5.60
   0  -5  12   30.00    5.90
   0  -5  12   48.70    9.90
   4   4 -12   18.80    9.10
   4   4 -12    1.90    6.50
   4   4 -12   10.40    8.00
  -4  -4  12   15.80    4.60
   3   4 -12   -1.70    4.50
   3   4 -12   -7.30    6.00
   3   4 -12   -6.80    6.20
  -3  -4  12   -1.00    3.70
  -3  -4  12    2.50    5.50
   2   4 -12   -0.60    6.30
   2   4 -12   -2.10    4.60
  -2  -4  12    5.90    6.40
  -2  -4  12    0.80    4.20
   1   4 -12   10.20    5.20
   1   4 -12   15.20    7.60
  -1  -4  12    1.70    4.40
  -1  -4  12   12.40    7.10
   0   4 -12    2.00    6.40
   0  -4  12    7.30    7.20
   0  -4  12    1.00    4.70
   5   3 -12   75.49   11.30
   5   3 -12   66.39   16.80
   5   3 -12   68.69   12.30
  -5  -3  12   80.69    9.00
   4   3 -12   23.10    5.60
   4   3 -12   20.60    7.50
   4   3 -12   43.50    9.30
  -4  -3  12   29.20    7.30
  -4  -3  12   32.20    5.60
   3   3 -12   35.80    8.20
   3   3 -12   31.50    6.00
  -3  -3  12   38.40    6.00
  -3  -3  12   36.30    8.00
   2   3 -12  190.18   15.70
   2   3 -12  208.98   13.00
  -2  -3  12  216.28   13.00
  -2  -3  12  197.98   15.10
   1   3 -12  163.88   11.50
   1   3 -12  154.18   14.30
  -1  -3  12  129.29   13.40
  -1  -3  12  174.88   11.50
   0   3 -12   -4.60    4.30
   0  -3  12    4.00    6.80
   0  -3  12   -5.40    4.00
   5   2 -12   55.69    7.50
   5   2 -12   76.09   10.70
  -5  -2  12   43.40    6.30
  -5  -2  12   40.50    8.20
   4   2 -12  133.29   13.30
  -4  -2  12  127.19   12.50
  -4  -2  12  144.49   10.60
   3   2 -12   -1.60    3.90
   3   2 -12   24.10    7.60
  -3  -2  12   -3.90    5.70
  -3  -2  12    0.20    3.70
   2   2 -12  185.48   12.20
   2   2 -12  203.98   15.90
  -2  -2  12  147.89   14.10
  -2  -2  12  192.88   12.20
   1   2 -12   37.90    9.60
   1   2 -12   53.49    7.70
  -1  -2  12   49.20    7.60
  -1  -2  12   55.89   10.00
   0   2 -12   27.20    5.60
   0  -2  12   32.40    6.60
   5   1 -12   65.99    8.20
  -5  -1  12   37.10    6.40
  -5  -1  12   45.60    8.30
  -5  -1  12   64.19    9.70
   4   1 -12  200.58   15.20
   4   1 -12  204.08   13.00
  -4  -1  12  188.48   14.70
   3   1 -12   94.49   10.90
   3   1 -12   86.49    8.80
  -3  -1  12   55.49    9.40
  -3  -1  12   59.69    7.30
   2   1 -12    5.60    6.40
   2   1 -12    6.50    5.10
  -2  -1  12    1.80    6.30
  -2  -1  12    7.40    5.10
   1   1 -12    9.90    6.50
   1   1 -12    2.70    4.30
  -1  -1  12   14.10    6.10
   5   0 -12   63.29    7.80
  -5   0  12   77.59   10.20
  -5   0  12   74.89   10.60
   4   0 -12   96.59   10.50
   4   0 -12   98.69    9.50
  -4   0  12  113.79   11.10
  -4   0  12   90.09   11.50
   3   0 -12   60.09    9.40
   3   0 -12   30.50    5.80
  -3   0  12   46.30   13.40
   2   0 -12   90.29    9.00
   2   0 -12   86.49   10.50
   0   0   0    0.00    0.00

_computing_structure_solution     'SHELXT 2014/5 (Sheldrick, 2014)'
;
_shelx_hkl_checksum              86344
loop_
_space_group_symop_operation_xyz
'x, y, z'
'-x, -y, -z'
loop_
_atom_site_label
_atom_site_type_symbol
_atom_site_fract_x
_atom_site_fract_y
_atom_site_fract_z
_atom_site_U_iso_or_equiv
_atom_site_adp_type
_atom_site_occupancy
_atom_site_site_symmetry_order
_atom_site_calc_flag
_atom_site_refinement_flags_posn
_atom_site_refinement_flags_adp
S1 S 0.37473(6) 0.59502(6) 0.50890(5) 0.01383(14) Uani 1 1 d . .
B2 B 0.4815(3) 0.5014(3) 0.3610(2) 0.0129(4) Uani 1 1 d . .
C1_1 C 0.3293(3) 0.3385(3) 0.1988(2) 0.0152(4) Uani 1 1 d . .
C2_1 C 0.4294(3) 0.2410(3) 0.1095(2) 0.0220(4) Uani 1 1 d . .
H2A_1 H 0.336995 0.138058 0.017525 0.033 Uiso 1 1 calc R U
H2B_1 H 0.503724 0.193064 0.173915 0.033 Uiso 1 1 calc R U
H2C_1 H 0.511237 0.330060 0.080375 0.033 Uiso 1 1 calc R U
C3_1 C 0.1874(3) 0.1928(3) 0.2293(2) 0.0213(4) Uani 1 1 d . .
H3A_1 H 0.110121 0.087549 0.133720 0.032 Uiso 1 1 calc R U
H3B_1 H 0.108165 0.248232 0.270124 0.032 Uiso 1 1 calc R U
H3C_1 H 0.253455 0.149497 0.303465 0.032 Uiso 1 1 calc R U
C4_1 C 0.2189(3) 0.4154(3) 0.0949(2) 0.0215(4) Uani 1 1 d . .
H4A_1 H 0.128225 0.313089 0.001706 0.032 Uiso 1 1 calc R U
H4B_1 H 0.304687 0.503858 0.068084 0.032 Uiso 1 1 calc R U
H4C_1 H 0.153464 0.478415 0.148655 0.032 Uiso 1 1 calc R U
C1_2 C 0.6180(3) 0.6765(3) 0.3342(2) 0.0147(4) Uani 1 1 d . .
N1_2 N 0.7905(2) 0.7067(2) 0.32856(18) 0.0182(4) Uani 1 1 d . .
C2_2 C 0.8648(3) 0.8779(3) 0.3178(2) 0.0234(5) Uani 1 1 d . .
H2_2 H 0.984233 0.930725 0.313123 0.028 Uiso 1 1 calc R U
N2_2 N 0.5857(2) 0.8305(2) 0.32377(18) 0.0172(3) Uani 1 1 d . .
C3_2 C 0.7379(3) 0.9554(3) 0.3151(2) 0.0224(5) Uani 1 1 d . .
H3_2 H 0.749849 1.073590 0.308587 0.027 Uiso 1 1 calc R U
C4_2 C 0.8916(3) 0.5816(3) 0.3267(3) 0.0261(5) Uani 1 1 d . .
H4A_2 H 0.918412 0.554099 0.232302 0.039 Uiso 1 1 calc R U
H4B_2 H 0.815555 0.465971 0.331910 0.039 Uiso 1 1 calc R U
H4C_2 H 1.008691 0.640767 0.414683 0.039 Uiso 1 1 calc R U
C5_2 C 0.4145(3) 0.8650(3) 0.3083(2) 0.0219(4) Uani 1 1 d . .
H5A_2 H 0.444833 0.997335 0.360450 0.033 Uiso 1 1 calc R U
H5B_2 H 0.341440 0.792401 0.354136 0.033 Uiso 1 1 calc R U
H5C_2 H 0.342033 0.828357 0.199896 0.033 Uiso 1 1 calc R U
loop_
_atom_site_aniso_label
_atom_site_aniso_U_11
_atom_site_aniso_U_22
_atom_site_aniso_U_33
_atom_site_aniso_U_23
_atom_site_aniso_U_13
_atom_site_aniso_U_12
S1 0.0160(2) 0.0151(2) 0.0146(2) 0.00763(18) 0.00795(18) 0.00742(18)
B2 0.0143(10) 0.0126(10) 0.0138(10) 0.0063(8) 0.0076(8) 0.0041(8)
C1_1 0.0172(9) 0.0132(9) 0.0122(9) 0.0041(7) 0.0050(7) 0.0024(7)
C2_1 0.0280(11) 0.0197(10) 0.0155(10) 0.0042(8) 0.0086(8) 0.0062(9)
C3_1 0.0206(10) 0.0156(10) 0.0193(10) 0.0054(8) 0.0038(8) -0.0011(8)
C4_1 0.0226(10) 0.0203(10) 0.0159(10) 0.0068(8) 0.0028(8) 0.0036(8)
C1_2 0.0161(9) 0.0145(9) 0.0109(9) 0.0049(7) 0.0045(7) 0.0020(7)
N1_2 0.0169(8) 0.0211(9) 0.0163(8) 0.0096(7) 0.0069(7) 0.0033(7)
C2_2 0.0219(10) 0.0228(11) 0.0170(10) 0.0093(8) 0.0061(8) -0.0049(8)
N2_2 0.0226(9) 0.0128(8) 0.0150(8) 0.0070(6) 0.0072(7) 0.0028(7)
C3_2 0.0287(11) 0.0147(10) 0.0167(10) 0.0081(8) 0.0064(8) -0.0026(8)
C4_2 0.0212(11) 0.0382(13) 0.0318(12) 0.0233(10) 0.0163(9) 0.0136(10)
C5_2 0.0287(11) 0.0179(10) 0.0235(10) 0.0112(8) 0.0107(9) 0.0106(9)
loop_
_atom_type_symbol
_atom_type_description
_atom_type_scat_dispersion_real
_atom_type_scat_dispersion_imag
_atom_type_scat_source
C C 0.0033 0.0016 'International Tables Vol C Tables 4.2.6.8 and 6.1.1.4'
H H 0.0000 0.0000 'International Tables Vol C Tables 4.2.6.8 and 6.1.1.4'
B B 0.0013 0.0007 'International Tables Vol C Tables 4.2.6.8 and 6.1.1.4'
N N 0.0061 0.0033 'International Tables Vol C Tables 4.2.6.8 and 6.1.1.4'
S S 0.1246 0.1234 'International Tables Vol C Tables 4.2.6.8 and 6.1.1.4'
loop_
_exptl_crystal_face_index_h
_exptl_crystal_face_index_k
_exptl_crystal_face_index_l
_exptl_crystal_face_perp_dist
1.00 -2.00 0.00 0.1000
1.00 -1.00 0.00 0.1160
-1.00 1.00 0.00 0.1060
2.00 -1.00 0.00 0.1500
-2.00 1.00 0.00 0.1060
1.00 2.00 0.00 0.1500
-1.00 -2.00 0.00 0.0540
0.00 -1.00 0.00 0.0730
2.00 2.00 1.00 0.1560
-2.00 0.00 -1.00 0.0880
2.00 -1.00 1.00 0.1520
-2.00 -1.00 -2.00 0.0770
2.00 -1.00 2.00 0.1500
-2.00 1.00 -2.00 0.0790
1.00 -1.00 1.00 0.1330
-1.00 1.00 -1.00 0.1040
1.00 1.00 2.00 0.1660
1.00 -1.00 2.00 0.1330
-1.00 1.00 -2.00 0.0930
0.00 1.00 2.00 0.1660
0.00 -1.00 -2.00 0.0740
0.00 -1.00 2.00 0.1360
0.00 1.00 -2.00 0.1010
-1.00 1.00 2.00 0.1610
1.00 -1.00 -2.00 0.0690
loop_
_geom_angle_atom_site_label_1
_geom_angle_atom_site_label_2
_geom_angle_atom_site_label_3
_geom_angle
_geom_angle_site_symmetry_1
_geom_angle_site_symmetry_3
B2 S1 B2 85.52(9) 2_666 .
C1_1 B2 C1_2 112.23(15) . .
C1_1 B2 S1 112.77(13) . 2_666
C1_2 B2 S1 111.51(13) . 2_666
C1_1 B2 S1 115.01(13) . .
C1_2 B2 S1 109.62(13) . .
S1 B2 S1 94.48(9) 2_666 .
C3_1 C1_1 C4_1 107.22(16) . .
C3_1 C1_1 C2_1 108.67(16) . .
C4_1 C1_1 C2_1 107.53(16) . .
C3_1 C1_1 B2 110.42(15) . .
C4_1 C1_1 B2 112.68(16) . .
C2_1 C1_1 B2 110.18(16) . .
C1_1 C2_1 H2A_1 109.5 . .
C1_1 C2_1 H2B_1 109.5 . .
H2A_1 C2_1 H2B_1 109.5 . .
C1_1 C2_1 H2C_1 109.5 . .
H2A_1 C2_1 H2C_1 109.5 . .
H2B_1 C2_1 H2C_1 109.5 . .
C1_1 C3_1 H3A_1 109.5 . .
C1_1 C3_1 H3B_1 109.5 . .
H3A_1 C3_1 H3B_1 109.5 . .
C1_1 C3_1 H3C_1 109.5 . .
H3A_1 C3_1 H3C_1 109.5 . .
H3B_1 C3_1 H3C_1 109.5 . .
C1_1 C4_1 H4A_1 109.5 . .
C1_1 C4_1 H4B_1 109.5 . .
H4A_1 C4_1 H4B_1 109.5 . .
C1_1 C4_1 H4C_1 109.5 . .
H4A_1 C4_1 H4C_1 109.5 . .
H4B_1 C4_1 H4C_1 109.5 . .
N1_2 C1_2 N2_2 104.56(16) . .
N1_2 C1_2 B2 128.47(17) . .
N2_2 C1_2 B2 126.82(17) . .
C1_2 N1_2 C2_2 110.56(17) . .
C1_2 N1_2 C4_2 128.18(16) . .
C2_2 N1_2 C4_2 121.21(17) . .
C3_2 C2_2 N1_2 107.35(18) . .
C3_2 C2_2 H2_2 126.3 . .
N1_2 C2_2 H2_2 126.3 . .
C1_2 N2_2 C3_2 110.70(17) . .
C1_2 N2_2 C5_2 128.34(16) . .
C3_2 N2_2 C5_2 120.72(17) . .
C2_2 C3_2 N2_2 106.81(18) . .
C2_2 C3_2 H3_2 126.6 . .
N2_2 C3_2 H3_2 126.6 . .
N1_2 C4_2 H4A_2 109.5 . .
N1_2 C4_2 H4B_2 109.5 . .
H4A_2 C4_2 H4B_2 109.5 . .
N1_2 C4_2 H4C_2 109.5 . .
H4A_2 C4_2 H4C_2 109.5 . .
H4B_2 C4_2 H4C_2 109.5 . .
N2_2 C5_2 H5A_2 109.5 . .
N2_2 C5_2 H5B_2 109.5 . .
H5A_2 C5_2 H5B_2 109.5 . .
N2_2 C5_2 H5C_2 109.5 . .
H5A_2 C5_2 H5C_2 109.5 . .
H5B_2 C5_2 H5C_2 109.5 . .
loop_
_geom_bond_atom_site_label_1
_geom_bond_atom_site_label_2
_geom_bond_distance
_geom_bond_site_symmetry_2
S1 B2 1.949(2) 2_666
S1 B2 1.951(2) .
B2 C1_1 1.649(3) .
B2 C1_2 1.649(3) .
C1_1 C3_1 1.536(3) .
C1_1 C4_1 1.538(3) .
C1_1 C2_1 1.542(3) .
C2_1 H2A_1 0.9800 .
C2_1 H2B_1 0.9800 .
C2_1 H2C_1 0.9800 .
C3_1 H3A_1 0.9800 .
C3_1 H3B_1 0.9800 .
C3_1 H3C_1 0.9800 .
C4_1 H4A_1 0.9800 .
C4_1 H4B_1 0.9800 .
C4_1 H4C_1 0.9800 .
C1_2 N1_2 1.354(2) .
C1_2 N2_2 1.360(2) .
N1_2 C2_2 1.382(3) .
N1_2 C4_2 1.461(3) .
C2_2 C3_2 1.335(3) .
C2_2 H2_2 0.9500 .
N2_2 C3_2 1.382(3) .
N2_2 C5_2 1.455(3) .
C3_2 H3_2 0.9500 .
C4_2 H4A_2 0.9800 .
C4_2 H4B_2 0.9800 .
C4_2 H4C_2 0.9800 .
C5_2 H5A_2 0.9800 .
C5_2 H5B_2 0.9800 .
C5_2 H5C_2 0.9800 .
loop_
_geom_torsion_atom_site_label_1
_geom_torsion_atom_site_label_2
_geom_torsion_atom_site_label_3
_geom_torsion_atom_site_label_4
_geom_torsion
_geom_torsion_site_symmetry_1
C1_2 B2 C1_1 C3_1 -171.69(16) .
S1 B2 C1_1 C3_1 61.36(18) 2_666
S1 B2 C1_1 C3_1 -45.45(19) .
C1_2 B2 C1_1 C4_1 -51.8(2) .
S1 B2 C1_1 C4_1 -178.77(13) 2_666
S1 B2 C1_1 C4_1 74.41(18) .
C1_2 B2 C1_1 C2_1 68.3(2) .
S1 B2 C1_1 C2_1 -58.69(17) 2_666
S1 B2 C1_1 C2_1 -165.50(13) .
C1_1 B2 C1_2 N1_2 -96.1(2) .
S1 B2 C1_2 N1_2 31.5(2) 2_666
S1 B2 C1_2 N1_2 134.78(17) .
C1_1 B2 C1_2 N2_2 89.0(2) .
S1 B2 C1_2 N2_2 -143.35(16) 2_666
S1 B2 C1_2 N2_2 -40.1(2) .
N2_2 C1_2 N1_2 C2_2 1.1(2) .
B2 C1_2 N1_2 C2_2 -174.61(17) .
N2_2 C1_2 N1_2 C4_2 -176.31(18) .
B2 C1_2 N1_2 C4_2 7.9(3) .
C1_2 N1_2 C2_2 C3_2 -0.6(2) .
C4_2 N1_2 C2_2 C3_2 177.06(18) .
N1_2 C1_2 N2_2 C3_2 -1.3(2) .
B2 C1_2 N2_2 C3_2 174.56(17) .
N1_2 C1_2 N2_2 C5_2 173.06(17) .
B2 C1_2 N2_2 C5_2 -11.1(3) .
N1_2 C2_2 C3_2 N2_2 -0.2(2) .
C1_2 N2_2 C3_2 C2_2 1.0(2) .
C5_2 N2_2 C3_2 C2_2 -173.88(17) .
