#------------------------------------------------------------------------------
#$Date: 2019-11-26 11:09:40 +0200 (Tue, 26 Nov 2019) $
#$Revision: 243307 $
#$URL: file:///home/coder/svn-repositories/cod/cif/4/13/35/4133550.cif $
#------------------------------------------------------------------------------
#
# This file is available in the Crystallography Open Database (COD),
# http://www.crystallography.net/
#
# All data on this site have been placed in the public domain by the
# contributors.
#
data_4133550
loop_
_publ_author_name
'Xiong, Yang'
'Du, Zhuanzhuan'
'Chen, Haohua'
'Yang, Zhao'
'Tan, Qiuyuan'
'Zhang, Changhui'
'Zhu, Lei'
'Lan, Yu'
'Zhang, Min'
_publ_section_title
;
 Well-Designed Phosphine-Urea Ligand for Highly Diastereo- and
 Enantioselective 1,3-Dipolar Cycloaddition of Methacrylonitrile: A
 Combined Experimental and Theoretical Study.
;
_journal_issue                   2
_journal_name_full               'Journal of the American Chemical Society'
_journal_page_first              961
_journal_page_last               971
_journal_paper_doi               10.1021/jacs.8b10939
_journal_volume                  141
_journal_year                    2019
_chemical_absolute_configuration ad
_chemical_formula_moiety         'C13 H13 Br N2 O2'
_chemical_formula_sum            'C13 H13 Br N2 O2'
_chemical_formula_weight         309.16
_space_group_crystal_system      monoclinic
_space_group_IT_number           4
_space_group_name_Hall           'P 2yb'
_space_group_name_H-M_alt        'P 1 21 1'
_atom_sites_solution_hydrogens   mixed
_atom_sites_solution_primary     dual
_audit_creation_date             2017-04-01
_audit_creation_method
;
Olex2 1.2-alpha
(compiled 2017.03.02 svn.r3394 for OlexSys, GUI svn.r5324)
;
_cell_angle_alpha                90
_cell_angle_beta                 110.754(7)
_cell_angle_gamma                90
_cell_formula_units_Z            2
_cell_length_a                   10.4672(6)
_cell_length_b                   5.7450(3)
_cell_length_c                   11.4377(7)
_cell_measurement_reflns_used    2477
_cell_measurement_temperature    295(2)
_cell_measurement_theta_max      22.6980
_cell_measurement_theta_min      3.6180
_cell_volume                     643.16(7)
_computing_molecular_graphics    'Olex2 (Dolomanov et al., 2009)'
_computing_publication_material  'Olex2 (Dolomanov et al., 2009)'
_computing_structure_refinement  'ShelXL (Sheldrick, 2015)'
_computing_structure_solution    'ShelXT (Sheldrick, 2015)'
_diffrn_ambient_temperature      295(2)
_diffrn_detector_area_resol_mean 16.0892
_diffrn_measured_fraction_theta_full 0.997
_diffrn_measured_fraction_theta_max 0.997
_diffrn_measurement_device_type  'SuperNova, Single source at offset, Eos'
_diffrn_measurement_method       '\w scans'
_diffrn_radiation_type           MoK\a
_diffrn_radiation_wavelength     0.71073
_diffrn_reflns_av_R_equivalents  0.0496
_diffrn_reflns_av_unetI/netI     0.0569
_diffrn_reflns_Laue_measured_fraction_full 0.997
_diffrn_reflns_Laue_measured_fraction_max 0.997
_diffrn_reflns_limit_h_max       13
_diffrn_reflns_limit_h_min       -13
_diffrn_reflns_limit_k_max       7
_diffrn_reflns_limit_k_min       -7
_diffrn_reflns_limit_l_max       14
_diffrn_reflns_limit_l_min       -14
_diffrn_reflns_number            8604
_diffrn_reflns_point_group_measured_fraction_full 0.998
_diffrn_reflns_point_group_measured_fraction_max 0.998
_diffrn_reflns_theta_full        25.242
_diffrn_reflns_theta_max         26.363
_diffrn_reflns_theta_min         3.637
_diffrn_source                   'micro-focus sealed X-ray tube'
_exptl_absorpt_coefficient_mu    3.191
_exptl_absorpt_correction_T_max  1.00000
_exptl_absorpt_correction_T_min  0.71622
_exptl_absorpt_correction_type   multi-scan
_exptl_absorpt_process_details
;
CrysAlisPro 1.171.38.41k (Rigaku Oxford Diffraction, 2015)
Empirical absorption correction using spherical harmonics,
 implemented in SCALE3 ABSPACK scaling algorithm.
;
_exptl_crystal_colour            Colorless
_exptl_crystal_density_diffrn    1.596
_exptl_crystal_description       Block
_exptl_crystal_F_000             312
_exptl_crystal_size_max          0.50
_exptl_crystal_size_mid          0.26
_exptl_crystal_size_min          0.24
_refine_diff_density_max         0.422
_refine_diff_density_min         -0.272
_refine_diff_density_rms         0.054
_refine_ls_abs_structure_details
;
 Flack x determined using 577 quotients [(I+)-(I-)]/[(I+)+(I-)]
 (Parsons, Flack and Wagner, Acta Cryst. B69 (2013) 249-259).
;
_refine_ls_abs_structure_Flack   -0.019(10)
_refine_ls_extinction_method     none
_refine_ls_goodness_of_fit_ref   1.030
_refine_ls_hydrogen_treatment    mixed
_refine_ls_matrix_type           full
_refine_ls_number_parameters     168
_refine_ls_number_reflns         2612
_refine_ls_number_restraints     1
_refine_ls_restrained_S_all      1.030
_refine_ls_R_factor_all          0.0800
_refine_ls_R_factor_gt           0.0454
_refine_ls_shift/su_max          0.000
_refine_ls_shift/su_mean         0.000
_refine_ls_structure_factor_coef Fsqd
_refine_ls_weighting_details
'w=1/[\s^2^(Fo^2^)+(0.0408P)^2^] where P=(Fo^2^+2Fc^2^)/3'
_refine_ls_weighting_scheme      calc
_refine_ls_wR_factor_gt          0.0861
_refine_ls_wR_factor_ref         0.0995
_reflns_Friedel_coverage         0.813
_reflns_Friedel_fraction_full    1.000
_reflns_Friedel_fraction_max     1.000
_reflns_number_gt                1820
_reflns_number_total             2612
_reflns_threshold_expression     'I > 2\s(I)'
_iucr_refine_instructions_details
;

    xy-3.res created by SHELXL-2014/7

TITL xy-3_b.res in P2(1)
REM Old TITL 20170330-Zhang Min-XY-3 in P2(1)
REM SHELXT solution in P2(1)
REM R1 0.141, Rweak 0.071, Alpha 0.053, Orientation as input
REM Flack x = -0.008 ( 0.011 ) from Parsons' quotients
REM Formula found by SHELXT: C14 N2 O Br
CELL 0.71073 10.4672 5.745 11.4377 90 110.754 90
ZERR 2 0.0006 0.0003 0.0007 0 0.007 0
LATT -1
SYMM -X,0.5+Y,-Z
SFAC C H Br N O
UNIT 26 26 2 4 4
 
L.S. 30
PLAN  20
BOND $H
LIST 6
fmap 2
ACTA
SHEL 999 0.8
REM <olex2.extras>
REM <HklSrc "%.\\XY-3.hkl">
REM </olex2.extras>
 
WGHT    0.040800
FVAR       0.94692
BR1   3   -0.172050    0.758410    0.153627    11.00000    0.06220    0.09773 =
         0.06694    0.01316    0.02131    0.02345
O2    5    0.636816    0.727002    0.411388    11.00000    0.06972    0.05230 =
         0.09962   -0.01237    0.03086    0.00859
O1    5    0.824617    0.514816    0.458713    11.00000    0.04558    0.04949 =
         0.08783    0.00344    0.01328    0.00180
C12   1    0.113322    0.707053    0.260972    11.00000    0.06732    0.04593 =
         0.04342   -0.00290    0.01933    0.00715
AFIX  43
H12   2    0.110001    0.850873    0.297107    11.00000   -1.20000
AFIX   0
C11   1   -0.003425    0.601948    0.184805    11.00000    0.05208    0.06095 =
         0.03967    0.00796    0.01205    0.00122
N2    4    0.422486    0.741619    0.084846    11.00000    0.08817    0.05630 =
         0.07110    0.01283    0.03412   -0.00188
C5    1    0.453416    0.309386    0.164231    11.00000    0.05323    0.03360 =
         0.04525   -0.00510    0.01640   -0.00010
AFIX  13
H5    2    0.418998    0.205158    0.091971    11.00000   -1.20000
AFIX   0
C10   1   -0.001466    0.390410    0.130656    11.00000    0.04779    0.06209 =
         0.04599    0.00025    0.00415   -0.01027
AFIX  43
H10   2   -0.082134    0.321877    0.078788    11.00000   -1.20000
AFIX   0
C4    1    0.601956    0.249728    0.240882    11.00000    0.05317    0.04366 =
         0.05425   -0.00406    0.02122    0.00520
AFIX  23
H4A   2    0.664059    0.340697    0.213271    11.00000   -1.20000
H4B   2    0.619730    0.085713    0.233455    11.00000   -1.20000
AFIX   0
C9    1    0.123192    0.279814    0.154545    11.00000    0.05959    0.03476 =
         0.04514   -0.00919    0.01289   -0.00825
AFIX  43
H9    2    0.125135    0.135725    0.118153    11.00000   -1.20000
AFIX   0
C7    1    0.379226    0.260088    0.256721    11.00000    0.04743    0.03655 =
         0.04956    0.00203    0.01465   -0.00676
AFIX  13
H7    2    0.364092    0.091846    0.257505    11.00000   -1.20000
AFIX   0
N1    4    0.480426    0.325037    0.377241    11.00000    0.04817    0.08416 =
         0.04338    0.00999    0.01894   -0.00392
C2    1    0.691536    0.541341    0.416662    11.00000    0.04996    0.04790 =
         0.04478    0.00157    0.02271    0.00645
C8    1    0.245240    0.379054    0.231523    11.00000    0.04550    0.03872 =
         0.04499    0.00318    0.01746   -0.00259
C13   1    0.237602    0.594250    0.283434    11.00000    0.05055    0.04284 =
         0.05153   -0.00606    0.00944   -0.00895
AFIX  43
H13   2    0.317680    0.665351    0.334698    11.00000   -1.20000
AFIX   0
C3    1    0.618393    0.311242    0.376158    11.00000    0.04425    0.04290 =
         0.04978    0.00761    0.01431    0.00463
AFIX  13
H3    2    0.668657    0.187171    0.432551    11.00000   -1.20000
AFIX   0
C1    1    0.904115    0.724291    0.497890    11.00000    0.06353    0.06783 =
         0.08174   -0.01151    0.01314   -0.01226
AFIX 137
H1A   2    0.855184    0.853285    0.448957    11.00000   -1.50000
H1B   2    0.989969    0.706454    0.486152    11.00000   -1.50000
H1C   2    0.920146    0.752661    0.584658    11.00000   -1.50000
AFIX   0
C6    1    0.436642    0.553485    0.122360    11.00000    0.05919    0.04704 =
         0.04003    0.00085    0.02225    0.00036
H1    2    0.468208    0.307748    0.445339    11.00000    0.01878
HKLF 4
 
REM  xy-3_b.res in P2(1)
REM R1 =  0.0454 for    1820 Fo > 4sig(Fo)  and  0.0800 for all    2612 data
REM    168 parameters refined using      1 restraints
 
END  
     
WGHT      0.0408      0.0000 

REM Highest difference peak  0.422,  deepest hole -0.272,  1-sigma level  0.054
Q1    1  -0.0953  0.7517  0.1131  11.00000  0.05    0.42
Q2    1  -0.2594  0.7442  0.1796  11.00000  0.05    0.41
Q3    1  -0.2150  0.8074  0.2385  11.00000  0.05    0.29
Q4    1   0.9566  0.7451  0.4137  11.00000  0.05    0.22
Q5    1  -0.1795  1.0086  0.1374  11.00000  0.05    0.22
Q6    1   0.0432  0.2875  0.0151  11.00000  0.05    0.20
Q7    1   0.5219  0.7534  0.0391  11.00000  0.05    0.20
Q8    1  -0.0969  0.3853  0.1792  11.00000  0.05    0.18
Q9    1   0.6560  0.6396  0.4964  11.00000  0.05    0.18
Q10   1  -0.1805  0.5979  0.0496  11.00000  0.05    0.17
Q11   1   0.4025  0.2941  0.2057  11.00000  0.05    0.17
Q12   1   0.6993  0.7533  0.2634  11.00000  0.05    0.17
Q13   1   0.8640  1.0031  0.3020  11.00000  0.05    0.17
Q14   1  -0.1664  0.5545  0.2797  11.00000  0.05    0.16
Q15   1   0.1778  0.7400  0.1862  11.00000  0.05    0.16
Q16   1   0.4999  0.2509  0.5602  11.00000  0.05    0.16
Q17   1   0.3213  0.3876  0.2062  11.00000  0.05    0.15
Q18   1  -0.2662  0.9221  0.1679  11.00000  0.05    0.15
Q19   1   0.6967  0.7503  0.5569  11.00000  0.05    0.15
Q20   1  -0.0378  0.7529  0.0740  11.00000  0.05    0.15

  REM The information below was added by Olex2.
  REM
  REM R1 = 0.0454 for 1820 Fo > 4sig(Fo) and 0.0800 for all 9345 data
  REM n/a parameters refined using n/a restraints
  REM Highest difference peak 0.42, deepest hole -0.27
  REM Mean Shift 0, Max Shift 0.000.

  REM +++ Tabular Listing of Refinement Information +++
  REM R1_all = 0.0800
  REM R1_gt = 0.0454
  REM wR_ref = 0.0995
  REM GOOF = 1.030
  REM Shift_max = 0.000
  REM Shift_mean = 0
  REM Reflections_all = 9345
  REM Reflections_gt = 1820
  REM Parameters = n/a
  REM Hole = -0.27
  REM Peak = 0.42
  REM Flack = -0.019(10)

  
;
_cod_data_source_file            ja8b10939_si_003.cif
_cod_data_source_block           xy-3
_cod_database_code               4133550
_shelx_shelxl_version_number     2014/7
_shelx_space_group_comment
;
The symmetry employed for this shelxl refinement is uniquely defined
by the following loop, which should always be used as a source of
symmetry information in preference to the above space-group names.
They are only intended as comments.
;
_oxdiff_exptl_absorpt_empirical_full_min 0.735
_oxdiff_exptl_absorpt_empirical_full_max 1.291
_oxdiff_exptl_absorpt_empirical_details
;
Empirical correction (ABSPACK) includes:
- Absorption correction using spherical harmonics
- Frame scaling
;
_olex2_refinement_description
;
1. Fixed Uiso
 At 1.2 times of:
  All C(H) groups, All C(H,H) groups
 At 1.5 times of:
  All C(H,H,H) groups
2.a Ternary CH refined with riding coordinates:
 C5(H5), C7(H7), C3(H3)
2.b Secondary CH2 refined with riding coordinates:
 C4(H4A,H4B)
2.c Aromatic/amide H refined with riding coordinates:
 C12(H12), C10(H10), C9(H9), C13(H13)
2.d Idealised Me refined as rotating group:
 C1(H1A,H1B,H1C)
;
_olex2_submission_special_instructions 'No special instructions were received'
loop_
_space_group_symop_operation_xyz
'x, y, z'
'-x, y+1/2, -z'
loop_
_atom_site_label
_atom_site_type_symbol
_atom_site_fract_x
_atom_site_fract_y
_atom_site_fract_z
_atom_site_U_iso_or_equiv
_atom_site_adp_type
_atom_site_occupancy
_atom_site_site_symmetry_order
_atom_site_calc_flag
_atom_site_refinement_flags_posn
Br1 Br -0.17205(7) 0.7584(2) 0.15363(6) 0.0760(3) Uani 1 1 d .
O2 O 0.6368(5) 0.7270(12) 0.4114(5) 0.0736(15) Uani 1 1 d .
O1 O 0.8246(4) 0.5148(9) 0.4587(5) 0.0638(14) Uani 1 1 d .
C12 C 0.1133(6) 0.7071(12) 0.2610(6) 0.0523(18) Uani 1 1 d .
H12 H 0.1100 0.8509 0.2971 0.063 Uiso 1 1 calc R
C11 C -0.0034(7) 0.6019(13) 0.1848(6) 0.0520(17) Uani 1 1 d .
N2 N 0.4225(6) 0.7416(14) 0.0848(5) 0.0703(16) Uani 1 1 d .
C5 C 0.4534(6) 0.3094(11) 0.1642(6) 0.0443(16) Uani 1 1 d .
H5 H 0.4190 0.2052 0.0920 0.053 Uiso 1 1 calc R
C10 C -0.0015(7) 0.3904(14) 0.1307(6) 0.0553(19) Uani 1 1 d .
H10 H -0.0821 0.3219 0.0788 0.066 Uiso 1 1 calc R
C4 C 0.6020(5) 0.2497(16) 0.2409(5) 0.0498(14) Uani 1 1 d .
H4A H 0.6641 0.3407 0.2133 0.060 Uiso 1 1 calc R
H4B H 0.6197 0.0857 0.2335 0.060 Uiso 1 1 calc R
C9 C 0.1232(5) 0.2798(15) 0.1545(5) 0.0480(15) Uani 1 1 d .
H9 H 0.1251 0.1357 0.1182 0.058 Uiso 1 1 calc R
C7 C 0.3792(5) 0.2601(15) 0.2567(5) 0.0452(13) Uani 1 1 d .
H7 H 0.3641 0.0918 0.2575 0.054 Uiso 1 1 calc R
N1 N 0.4804(5) 0.3250(11) 0.3772(5) 0.0578(19) Uani 1 1 d .
C2 C 0.6915(7) 0.5413(13) 0.4167(6) 0.0459(16) Uani 1 1 d .
C8 C 0.2452(6) 0.3791(11) 0.2315(6) 0.0427(16) Uani 1 1 d .
C13 C 0.2376(7) 0.5942(11) 0.2834(6) 0.0506(17) Uani 1 1 d .
H13 H 0.3177 0.6654 0.3347 0.061 Uiso 1 1 calc R
C3 C 0.6184(6) 0.3112(12) 0.3762(5) 0.0463(17) Uani 1 1 d .
H3 H 0.6687 0.1872 0.4326 0.056 Uiso 1 1 calc R
C1 C 0.9041(7) 0.7243(17) 0.4979(7) 0.074(2) Uani 1 1 d .
H1A H 0.8552 0.8533 0.4490 0.112 Uiso 1 1 calc GR
H1B H 0.9900 0.7065 0.4862 0.112 Uiso 1 1 calc GR
H1C H 0.9201 0.7527 0.5847 0.112 Uiso 1 1 calc GR
C6 C 0.4366(7) 0.5535(13) 0.1224(6) 0.0475(17) Uani 1 1 d .
H1 H 0.468(4) 0.308(10) 0.445(4) 0.019(14) Uiso 1 1 d .
loop_
_atom_site_aniso_label
_atom_site_aniso_U_11
_atom_site_aniso_U_22
_atom_site_aniso_U_33
_atom_site_aniso_U_23
_atom_site_aniso_U_13
_atom_site_aniso_U_12
Br1 0.0622(4) 0.0977(7) 0.0669(5) 0.0132(6) 0.0213(3) 0.0235(6)
O2 0.070(3) 0.052(4) 0.100(4) -0.012(4) 0.031(3) 0.009(3)
O1 0.046(3) 0.049(3) 0.088(4) 0.003(3) 0.013(3) 0.002(2)
C12 0.067(4) 0.046(5) 0.043(3) -0.003(3) 0.019(3) 0.007(4)
C11 0.052(4) 0.061(5) 0.040(4) 0.008(4) 0.012(3) 0.001(4)
N2 0.088(4) 0.056(4) 0.071(4) 0.013(5) 0.034(3) -0.002(5)
C5 0.053(3) 0.034(4) 0.045(3) -0.005(3) 0.016(3) 0.000(3)
C10 0.048(4) 0.062(5) 0.046(4) 0.000(4) 0.004(3) -0.010(4)
C4 0.053(3) 0.044(4) 0.054(3) -0.004(5) 0.021(3) 0.005(5)
C9 0.060(4) 0.035(4) 0.045(3) -0.009(4) 0.013(3) -0.008(4)
C7 0.047(3) 0.037(3) 0.050(3) 0.002(4) 0.015(3) -0.007(4)
N1 0.048(3) 0.084(6) 0.043(3) 0.010(3) 0.019(3) -0.004(3)
C2 0.050(4) 0.048(4) 0.045(4) 0.002(3) 0.023(3) 0.006(3)
C8 0.045(4) 0.039(4) 0.045(4) 0.003(3) 0.017(3) -0.003(3)
C13 0.051(4) 0.043(4) 0.052(4) -0.006(3) 0.009(3) -0.009(3)
C3 0.044(3) 0.043(5) 0.050(4) 0.008(3) 0.014(3) 0.005(3)
C1 0.064(4) 0.068(6) 0.082(5) -0.012(5) 0.013(4) -0.012(5)
C6 0.059(4) 0.047(5) 0.040(4) 0.001(3) 0.022(3) 0.000(3)
loop_
_atom_type_symbol
_atom_type_description
_atom_type_scat_dispersion_real
_atom_type_scat_dispersion_imag
_atom_type_scat_source
C C 0.0033 0.0016 'International Tables Vol C Tables 4.2.6.8 and 6.1.1.4'
H H 0.0000 0.0000 'International Tables Vol C Tables 4.2.6.8 and 6.1.1.4'
Br Br -0.2901 2.4595 'International Tables Vol C Tables 4.2.6.8 and 6.1.1.4'
N N 0.0061 0.0033 'International Tables Vol C Tables 4.2.6.8 and 6.1.1.4'
O O 0.0106 0.0060 'International Tables Vol C Tables 4.2.6.8 and 6.1.1.4'
loop_
_geom_angle_atom_site_label_1
_geom_angle_atom_site_label_2
_geom_angle_atom_site_label_3
_geom_angle
C2 O1 C1 116.0(6)
C11 C12 H12 120.7
C11 C12 C13 118.6(6)
C13 C12 H12 120.7
C12 C11 Br1 118.2(6)
C12 C11 C10 121.9(7)
C10 C11 Br1 119.9(5)
C4 C5 H5 110.0
C4 C5 C7 102.8(5)
C7 C5 H5 110.0
C6 C5 H5 110.0
C6 C5 C4 112.3(6)
C6 C5 C7 111.5(5)
C11 C10 H10 120.6
C11 C10 C9 118.8(7)
C9 C10 H10 120.6
C5 C4 H4A 110.8
C5 C4 H4B 110.8
C5 C4 C3 104.7(4)
H4A C4 H4B 108.9
C3 C4 H4A 110.8
C3 C4 H4B 110.8
C10 C9 H9 119.2
C10 C9 C8 121.7(7)
C8 C9 H9 119.2
C5 C7 H7 108.0
N1 C7 C5 103.1(4)
N1 C7 H7 108.0
N1 C7 C8 112.5(5)
C8 C7 C5 116.7(5)
C8 C7 H7 108.0
C7 N1 H1 123(3)
C3 N1 C7 111.7(5)
C3 N1 H1 119(3)
O2 C2 O1 123.1(7)
O2 C2 C3 125.3(6)
O1 C2 C3 111.5(6)
C9 C8 C7 121.6(6)
C13 C8 C9 117.2(6)
C13 C8 C7 121.2(6)
C12 C13 H13 119.1
C8 C13 C12 121.9(6)
C8 C13 H13 119.1
C4 C3 H3 109.8
N1 C3 C4 105.3(5)
N1 C3 C2 110.3(6)
N1 C3 H3 109.8
C2 C3 C4 111.9(5)
C2 C3 H3 109.8
O1 C1 H1A 109.5
O1 C1 H1B 109.5
O1 C1 H1C 109.5
H1A C1 H1B 109.5
H1A C1 H1C 109.5
H1B C1 H1C 109.5
N2 C6 C5 177.3(7)
loop_
_geom_bond_atom_site_label_1
_geom_bond_atom_site_label_2
_geom_bond_distance
Br1 C11 1.899(7)
O2 C2 1.202(9)
O1 C2 1.312(7)
O1 C1 1.441(10)
C12 H12 0.9300
C12 C11 1.365(8)
C12 C13 1.393(9)
C11 C10 1.367(10)
N2 C6 1.153(10)
C5 H5 0.9800
C5 C4 1.529(8)
C5 C7 1.544(8)
C5 C6 1.472(10)
C10 H10 0.9300
C10 C9 1.389(9)
C4 H4A 0.9700
C4 H4B 0.9700
C4 C3 1.536(8)
C9 H9 0.9300
C9 C8 1.391(8)
C7 H7 0.9800
C7 N1 1.458(7)
C7 C8 1.494(8)
N1 C3 1.451(7)
N1 H1 0.84(4)
C2 C3 1.516(9)
C8 C13 1.386(9)
C13 H13 0.9300
C3 H3 0.9800
C1 H1A 0.9600
C1 H1B 0.9600
C1 H1C 0.9600
loop_
_refln_index_h
_refln_index_k
_refln_index_l
_refln_F_squared_meas
_refln_F_squared_sigma
0 -7 0 12.38 14.06
0 -7 -1 25.53 17.87
0 -7 -1 -17.01 14.69
0 -7 1 0.01 12.7
0 -7 2 2.07 11.18
0 -7 -2 2.12 11.75
0 -7 -3 -0.01 11.18
0 -7 3 6.8 13.45
0 -6 0 92.39 20.85
0 -6 1 36.49 14.32
0 -6 -1 37.18 14.65
0 -6 -2 25.57 10.52
0 -6 -2 39.17 16.02
0 -6 2 15.52 11.4
0 -6 3 20.45 16.01
0 -6 -3 8 9.93
0 -6 4 -2.05 11.48
0 -6 -4 13.01 16.13
0 -6 5 1.96 11.98
0 -6 -5 -38.12 19.23
0 -6 -5 -33.08 16.15
0 -6 -6 9.64 13.44
0 -6 6 23.81 17.74
0 -6 -6 36.2 16.13
0 -6 -7 15.5 13.1
0 -6 -7 14.89 15.82
0 -6 7 10.52 15.81
0 -5 0 3.65 8.69
0 -5 1 115.8 20.52
0 -5 -1 108.66 19.79
0 -5 2 61.83 16.95
0 -5 -2 59.44 16.14
0 -5 -3 188.2 22.16
0 -5 3 150.35 24.57
0 -5 -3 180.66 27.5
0 -5 -4 40.73 16.49
0 -5 -4 44.67 11.27
0 -5 4 60.61 17.16
0 -5 -5 26.68 10.42
0 -5 -5 44.45 12.36
0 -5 5 40.78 16.57
0 -5 -6 4.27 10.54
0 -5 -6 2.46 9.86
0 -5 6 -1.54 10.67
0 -5 -7 19.86 14.7
0 -5 -7 14.69 11.94
0 -5 7 -8.88 13.78
0 -5 8 25.98 15.94
0 -5 -8 57.17 19.77
0 -5 -8 33.07 16.04
0 -5 -9 0.49 12.52
0 -5 9 1.24 12.07
0 -4 0 1048.75 53.45
0 -4 1 14.11 9.63
0 -4 -1 10.06 7.39
0 -4 -2 15.56 8.68
0 -4 2 29.42 11.28
0 -4 -2 38.16 11.18
0 -4 -3 308.22 24.47
0 -4 -3 319.51 31.65
0 -4 3 292.64 30.3
0 -4 -4 136.75 20.7
0 -4 4 108.23 20.01
0 -4 -4 129.93 15.06
0 -4 -5 34.06 8.17
0 -4 -5 25.14 10.23
0 -4 5 33.31 12.43
0 -4 -5 30.7 11.11
0 -4 6 43.86 14.34
0 -4 -6 44.27 13.9
0 -4 -6 43.61 11.91
0 -4 -6 29.4 6.86
0 -4 -7 103.77 20.94
0 -4 -7 90.71 18.37
0 -4 7 41.09 13.71
0 -4 -8 10.04 9.72
0 -4 8 -3.22 9.98
0 -4 -9 33.59 13.73
0 -4 9 10.92 10.85
0 -4 -10 37.38 16.29
0 -4 10 45.03 18.82
0 -4 -11 17.01 11.96
0 -4 11 3.25 12.57
0 -3 0 2.03 6.11
0 -3 -1 465.58 29.64
0 -3 1 396.33 28.37
0 -3 2 574.22 34.93
0 -3 -2 625.93 37.16
0 -3 3 192.42 21.35
0 -3 -3 211.78 22.39
0 -3 -3 201.71 16.28
0 -3 4 86.6 15.95
0 -3 -4 75.71 13.13
0 -3 -4 81.46 9.94
0 -3 -4 100.43 13.55
0 -3 -5 295.35 24.39
0 -3 5 287.44 28.45
0 -3 -5 277.06 26.23
0 -3 -5 277.61 17.97
0 -3 -5 268.27 12.98
0 -3 6 63.8 15.58
0 -3 -6 57.69 8.67
0 -3 -6 78.95 14.59
0 -3 -6 74.32 16.82
0 -3 -7 33.65 6.99
0 -3 -7 43.36 11.59
0 -3 7 38.25 12.19
0 -3 -8 34.05 12.71
0 -3 8 52.3 16.18
0 -3 -8 51.7 9.13
0 -3 9 47.28 17.45
0 -3 -9 42.42 14.29
0 -3 -10 12.52 11.76
0 -3 10 -1.61 10.61
0 -3 11 20.72 12.02
0 -3 -11 27.92 14.04
0 -3 12 15.43 15.09
0 -3 -12 23.06 16.05
0 -2 0 8032.22 101.17
0 -2 0 8199.45 101.97
0 -2 -1 667.4 30.08
0 -2 -1 637.85 28.36
0 -2 1 571.31 28.22
0 -2 1 603.12 26.8
0 -2 1 629.64 28.29
0 -2 -2 886.56 34.35
0 -2 -2 842.54 35.79
0 -2 -2 814.21 26.42
0 -2 2 772.68 33.55
0 -2 2 793.3 31.58
0 -2 2 767.04 32.68
0 -2 -3 1194.96 40.36
0 -2 3 1112.71 38.02
0 -2 -3 1209.88 39.88
0 -2 -3 1101.64 28.79
0 -2 -3 1138.51 41.64
0 -2 3 1072.98 42.26
0 -2 -4 667.1 23.1
0 -2 -4 753.7 32.37
0 -2 4 657.04 29.62
0 -2 -4 716.39 34.49
0 -2 4 667.75 36.13
0 -2 -5 123.1 10.53
0 -2 -5 171.2 20.13
0 -2 -5 156.51 16.31
0 -2 5 140.36 18.41
0 -2 -6 200.54 14.39
0 -2 -6 208.19 19.38
0 -2 6 228.3 24.78
0 -2 -7 144.94 18.25
0 -2 7 105.3 9.02
0 -2 -7 138.7 13.29
0 -2 7 132.6 20.19
0 -2 -8 88.88 16.79
0 -2 8 63.64 15.44
0 -2 8 60.55 7.61
0 -2 -8 89.21 11.38
0 -2 9 209.16 28.54
0 -2 -9 211.4 25.47
0 -2 10 121.39 23.55
0 -2 -10 105.88 20.08
0 -2 11 -15.81 14.89
0 -2 -11 -3.37 10.83
0 -2 12 27.52 14.97
0 -2 -12 55.54 18.45
0 -2 -13 28.52 17.19
0 -2 13 14.44 16.37
0 -1 0 -0.54 1.1
0 -1 0 0.56 1.49
0 -1 -1 3554.59 50.22
0 -1 1 3252.89 45.19
0 -1 -1 3643.98 49.54
0 -1 1 3386.86 48.06
0 -1 1 3379 48.08
0 -1 -2 1836.63 36.65
0 -1 -2 1762.46 26.61
0 -1 2 1662.26 35.4
0 -1 2 1636.68 32.25
0 -1 -2 1796.68 39.04
0 -1 2 1735.32 40.13
0 -1 2 1709.54 40.27
0 -1 -2 1772.37 34.98
0 -1 -3 865.17 25.75
0 -1 3 885.45 29.37
0 -1 -3 892.15 27.75
0 -1 -3 954.81 32.62
0 -1 3 849.9 16.61
0 -1 3 900.42 32.48
0 -1 3 927.23 33.71
0 -1 -3 868.38 21.36
0 -1 4 500.91 25.43
0 -1 4 515.99 28.11
0 -1 4 508.88 15.62
0 -1 -4 547.49 25.13
0 -1 -4 504.8 20.99
0 -1 -4 518.3 19.06
0 -1 5 460.84 29.45
0 -1 -5 458.33 26.09
0 -1 -5 434.9 19.8
0 -1 5 472.17 17.52
0 -1 -6 502.47 23.42
0 -1 6 536.54 34.55
0 -1 6 530.39 20.92
0 -1 -6 531.25 30.77
0 -1 7 212.08 23.44
0 -1 7 189.76 14.1
0 -1 -7 164.19 19.69
0 -1 -8 306.46 28.23
0 -1 8 332.62 32.16
0 -1 8 327.2 20.05
0 -1 -9 21.22 11.8
0 -1 9 14.43 5.32
0 -1 9 11.52 10.63
0 -1 10 -6.18 10
0 -1 10 1.55 4.47
0 -1 -10 6.14 9.78
0 -1 -11 32.62 15.79
0 -1 11 36.06 15.29
0 -1 -12 -7.07 12.25
0 -1 12 -4.26 10.77
0 -1 13 -2.82 11.9
0 -1 -13 -22.51 16.47
0 0 -2 2025.16 36.02
0 0 2 1835.92 31.76
0 0 -2 2015.63 35.54
0 0 2 1875.04 28.66
0 0 2 1813.35 27.1
0 0 2 1999.86 35.48
0 0 -2 1908.42 31.73
0 0 3 7617.94 70.62
0 0 3 7528.48 78.17
0 0 3 7720.07 85.05
0 0 -3 7723.96 86.69
0 0 -3 7648.71 84.88
0 0 3 7481.42 67.01
0 0 4 1914.17 47.95
0 0 4 1803.49 38.12
0 0 4 1799.78 44.27
0 0 -4 1801.33 48.05
0 0 4 1826.1 47.92
0 0 4 1873.13 40.9
0 0 -4 1836.73 49.75
0 0 -5 66.52 11.55
0 0 5 70.64 8.84
0 0 -5 82.07 14.26
0 0 5 73.91 9.38
0 0 -6 107.25 17.01
0 0 6 122.58 11.67
0 0 -6 139.54 18.72
0 0 6 127.47 12.8
0 0 7 788.48 29.83
0 0 -7 789.56 44.07
0 0 7 831.24 34.28
0 0 -7 837.64 44.55
0 0 -8 202.12 24.72
0 0 8 225.01 19.43
0 0 8 190.2 16.05
0 0 -8 220.18 25.43
0 0 9 326.27 24.69
0 0 -9 316.41 31.9
0 0 -9 262.24 29.99
0 0 9 249.53 18.91
0 0 10 211.1 21.16
0 0 10 233.86 30.5
0 0 -10 211.28 28.6
0 0 -10 179.87 26.31
0 0 -11 3.67 12.11
0 0 11 6.09 5.79
0 0 -11 15.2 11.7
0 0 11 32.19 15.85
0 0 -12 -21.79 15.82
0 0 12 46.31 18.97
0 0 -13 -18.43 14.93
0 0 13 23.77 17.03
0 1 0 1.72 1.96
0 1 0 -0.83 1.2
0 1 -1 2654.21 41.67
0 1 1 2539.59 40.02
0 1 -1 2642.49 42.41
0 1 -1 2568.42 38.78
0 1 -2 1801.09 39.21
0 1 2 1810.55 36.27
0 1 -2 1739.77 39.69
0 1 -2 1665.55 18.74
0 1 -2 1784.07 34.19
0 1 2 1812.42 41.18
0 1 2 1724.4 28.97
0 1 -3 867.33 27.15
0 1 -3 801.85 30.28
0 1 3 787.28 22.87
0 1 3 840.29 26.11
0 1 -3 729.82 14.58
0 1 3 917.54 29.46
0 1 3 844.28 30.71
0 1 3 839.65 32.81
0 1 -3 845.5 30.8
0 1 -4 363.81 20.18
0 1 4 335.71 17.64
0 1 -4 357.7 22.92
0 1 -4 309.98 12.22
0 1 4 372.15 18.91
0 1 5 499.29 23.75
0 1 5 456.64 23.07
0 1 -5 490.16 26.35
0 1 6 447.69 25.23
0 1 6 575.26 32.05
0 1 6 527.42 25.75
0 1 -6 500.26 28.61
0 1 7 242.12 22.03
0 1 -7 262.17 25.65
0 1 -7 186.15 19.51
0 1 7 215.37 17.94
0 1 -8 326.58 30.14
0 1 8 319.54 22.8
0 1 8 297.61 26.55
0 1 9 6.65 5.56
0 1 9 5.67 7.1
0 1 -9 17.84 13.73
0 1 10 -2.16 6.04
0 1 -10 5.56 13.7
0 1 -11 35.51 16.45
0 1 11 55.97 14.62
0 1 -12 27.68 17.24
0 1 12 9.43 8.78
0 1 -13 12.61 14.02
0 2 0 7539.66 85.8
0 2 0 7512.93 95.95
0 2 1 712.86 30.35
0 2 -1 651.08 27.41
0 2 -1 655.67 28.55
0 2 -1 623.67 28.32
0 2 1 607.12 28.2
0 2 -2 770.44 32.44
0 2 -2 822.13 31.1
0 2 2 754.8 31.96
0 2 2 827.83 33.14
0 2 -2 795.57 33.78
0 2 -3 1121.45 36.68
0 2 -3 1030.93 20.79
0 2 3 1144.66 40.88
0 2 -3 1101.16 42.09
0 2 -4 839.94 33.39
0 2 4 908.18 38.07
0 2 4 708.44 27.35
0 2 -4 698.83 15.73
0 2 -4 792.45 38.62
0 2 5 126.38 12.61
0 2 -5 153.05 15.7
0 2 5 162.88 16.97
0 2 -5 104.44 6.68
0 2 -5 148.36 18.56
0 2 -6 251.87 21.76
0 2 6 215.37 18.1
0 2 6 266.76 22.84
0 2 -6 273.01 26.27
0 2 -7 123.61 16.87
0 2 7 140.91 19.53
0 2 7 134.02 16.74
0 2 -8 97.04 16.32
0 2 8 128.93 17.06
0 2 8 123.69 19.59
0 2 -9 211.33 24.36
0 2 9 222.92 23.3
0 2 9 241.83 28.95
0 2 -10 127.71 21.73
0 2 10 150.9 20.31
0 2 10 200.23 26.34
0 2 -10 118.19 22.55
0 2 -11 18.8 14.75
0 2 11 -6.38 9.51
0 2 12 45.88 16.49
0 2 -12 60.99 21.47
0 2 -13 66.09 24.59
0 2 13 67.31 19.27
0 3 0 -2.93 4.79
0 3 0 -0.65 4.68
0 3 -1 275.54 22.75
0 3 -1 268.61 21.12
0 3 1 279.97 23.08
0 3 -2 589.43 33.1
0 3 -2 578.97 32.9
0 3 2 592.1 34.28
0 3 3 242.02 22.99
0 3 -3 220.36 22.2
0 3 -3 209.9 18.53
0 3 -4 82.09 7.21
0 3 -4 94.33 13.42
0 3 -4 92.72 14.97
0 3 4 90.93 14.74
0 3 -5 262.06 22.47
0 3 -5 201.55 9.66
0 3 -5 266.95 26.6
0 3 5 269.23 25.16
0 3 -6 111.92 19.35
0 3 -6 97.62 14.73
0 3 6 100.49 15.61
0 3 7 64.53 14.19
0 3 -7 39.05 11.54
0 3 -7 48.76 14.7
0 3 -8 37.33 11.67
0 3 8 31.84 11.57
0 3 8 44.41 11.79
0 3 -9 30.23 12.35
0 3 9 25.68 10.18
0 3 9 25.45 9.35
0 3 10 0.93 9.1
0 3 -10 -8.43 8.65
0 3 10 4.12 7.94
0 3 11 18.3 14.22
0 3 -11 2.95 10.06
0 3 -12 9.74 13.37
0 3 12 19.71 14.04
0 3 13 -7.1 11.36
0 4 0 1159.25 55.08
0 4 0 1099.64 47.45
0 4 -1 11.09 6.69
0 4 -1 15.31 8.38
0 4 1 15.91 9.51
0 4 1 7.68 5.69
0 4 2 35.25 10.75
0 4 -2 32.87 10.8
0 4 -2 29.01 10.67
0 4 3 330.3 30.41
0 4 -3 318.67 29.39
0 4 4 186.9 23.47
0 4 -4 192.95 20.88
0 4 -4 179.03 23.69
0 4 -5 38.07 11.18
0 4 5 32.2 11.83
0 4 -5 39.09 12.93
0 4 -6 77.41 15.54
0 4 6 68.89 15.75
0 4 -6 49.31 15.44
0 4 -7 119.71 23.34
0 4 7 78.27 16.73
0 4 -7 86.54 16.26
0 4 -8 -1.86 8.21
0 4 8 17.59 11.23
0 4 8 12.2 9.66
0 4 9 47.06 17
0 4 9 39.15 13.91
0 4 -9 14.85 10.26
0 4 10 47 15.66
0 4 -10 13.72 10.47
0 4 10 50.42 18.11
0 4 -11 8.42 10.93
0 4 11 -2.23 11.29
0 5 0 0.8 5.87
0 5 0 0.82 8.01
0 5 1 77.49 14.33
0 5 -1 92.73 18.44
0 5 1 94.22 18.04
0 5 -1 81.76 16.03
0 5 2 86.81 17.46
0 5 2 63.81 13.3
0 5 -2 96.94 19.34
0 5 -2 88.47 18.44
0 5 3 142.06 19.55
0 5 3 196.83 27.81
0 5 -3 162.29 23.47
0 5 4 38.32 13.07
0 5 -4 25.3 11.38
0 5 -4 24.74 8.18
0 5 5 57.44 15.96
0 5 -5 57.61 15.88
0 5 -5 48.24 13.35
0 5 -6 21.9 10.58
0 5 -6 12 10.24
0 5 6 16.67 11.33
0 5 -7 14.61 13.44
0 5 -7 11.39 10.46
0 5 7 4.63 11.19
0 5 -8 14.49 11
0 5 8 33.13 16.21
0 5 8 6.52 10.46
0 5 -8 30.13 17.19
0 5 9 5.7 11.28
0 5 -9 10.62 10.69
0 5 -10 10.12 11.75
0 6 0 117.58 23.51
0 6 0 75.41 16.6
0 6 1 21.66 13.21
0 6 -1 24.38 10.98
0 6 -1 52.5 15.86
0 6 1 22.22 10.43
0 6 -2 23.93 11.7
0 6 2 31.11 10.93
0 6 2 24.08 12.12
0 6 -3 13.24 8.21
0 6 3 4.83 9.66
0 6 -4 -5.28 9.28
0 6 4 3.16 8.91
0 6 -4 9.52 9.62
0 6 5 8.23 10.93
0 6 -5 12.35 10.23
0 6 -5 7.43 11.25
0 6 -6 43.94 15.51
0 6 6 25.56 14.76
0 6 -6 33.8 15.65
0 6 -7 3.35 10.78
0 6 -7 10.98 11.06
0 6 7 7.91 10.19
0 6 8 5.24 12.23
0 6 -8 -27.37 12.82
0 6 9 8.05 14.11
0 6 -9 7.08 11.68
0 7 0 21.25 15.3
0 7 1 24.26 15.75
0 7 2 3.77 10.85
0 7 -3 0.1 9.1
0 7 3 -2.58 10.48
0 7 -4 -2.15 9.17
0 7 -5 10.32 14.66
0 7 -6 18.47 13.27
1 -7 -5 -25.09 16.51
1 -7 -3 6.68 13.59
-1 -7 3 -15.29 14.58
-1 -7 2 -0.97 11.06
1 -7 -2 -31.63 17.52
-1 -7 1 0.39 10.14
1 -7 -1 14.87 14.09
-1 -7 0 14.34 14.79
1 -7 0 2.46 14.68
-1 -7 -1 -31.6 17.11
1 -7 1 -0.54 12.2
-1 -7 -2 -18.98 14.94
1 -7 2 -33.81 17.5
1 -7 3 8.94 13.6
-1 -7 -3 13.23 14.69
1 -6 -8 29.24 16.38
-1 -6 7 1.22 11.52
1 -6 -7 -11.55 12
1 -6 -7 13.79 13.6
1 -6 -6 20.68 12.46
1 -6 -6 -2.69 11.04
-1 -6 6 11.17 13.76
-1 -6 5 36.93 15.51
1 -6 -5 15.53 11.1
1 -6 -5 10.76 12.82
1 -6 -4 10.53 12.52
-1 -6 4 18.48 15.11
1 -6 -3 14.65 12.33
-1 -6 3 11.7 11.4
1 -6 -3 4.48 7.68
1 -6 -2 23.94 14.52
1 -6 -2 2.1 10.84
-1 -6 2 9.85 10.89
1 -6 -2 9.29 9.66
-1 -6 1 -4 9.78
1 -6 -1 5.81 12.53
-1 -6 0 17.39 10.73
1 -6 0 -5.22 10.21
-1 -6 -1 -15.74 15.19
-1 -6 -1 16.46 13.82
1 -6 1 -1.89 10.59
-1 -6 -2 -0.2 9.88
1 -6 2 32.8 13.71
1 -6 3 12.56 12.98
-1 -6 -3 18.27 11.9
1 -6 4 53.99 20.39
-1 -6 -4 7.77 10.88
-1 -6 -5 -23.02 17.64
1 -6 5 3.37 12.34
-1 -6 -5 -25.13 14.57
-1 -6 -6 24.42 14.49
-1 -6 -6 38.18 16.8
1 -6 6 24.11 16.92
-1 -6 -7 29.78 18.89
-1 -6 -7 29.71 17.02
1 -6 7 -1.83 13.38
1 -5 -10 -8.84 12.13
-1 -5 10 36.43 19.74
1 -5 -9 -2.07 10.05
1 -5 -9 33.67 18.13
-1 -5 9 3.28 12.89
1 -5 -8 24.69 15.25
-1 -5 8 1.2 11.6
1 -5 -8 32.43 18.84
1 -5 -7 67.96 18.89
1 -5 -7 59.36 16.68
-1 -5 7 57.51 19.04
1 -5 -6 39.88 14.12
1 -5 -6 -3 11.47
-1 -5 6 36.84 14.39
-1 -5 5 7.18 9.79
1 -5 -5 -7.59 14.26
1 -5 -5 32.81 9.87
1 -5 -5 17.9 10.25
-1 -5 4 71.6 19.53
1 -5 -4 85.48 16.36
1 -5 -4 71.28 18.21
-1 -5 3 173.06 25.98
1 -5 -3 191.72 24.17
1 -5 -3 158.35 25.75
-1 -5 2 -0.84 10.78
1 -5 -2 21.05 12.41
-1 -5 1 137.04 22.88
1 -5 -1 131.27 21.42
-1 -5 0 128.15 22.7
1 -5 0 126.49 20.61
1 -5 1 3 9.39
-1 -5 -1 16.96 11.17
-1 -5 -2 15.9 9.21
1 -5 2 18.62 12.38
1 -5 3 29.98 13.63
-1 -5 -3 18.01 11.08
-1 -5 -3 25.12 8.73
1 -5 4 17.95 14.38
-1 -5 -4 0.31 12.05
1 -5 5 26.18 15.46
-1 -5 -5 7.92 9.01
-1 -5 -5 18.41 9.97
-1 -5 -6 43.73 15.2
1 -5 6 15.9 11.75
-1 -5 -6 43.01 15.03
-1 -5 -7 54.28 18.46
-1 -5 -7 23.39 13.72
1 -5 7 11.12 13.03
-1 -5 -8 38.19 17.92
-1 -5 -8 36.21 17.97
1 -5 8 1.21 11.03
1 -5 9 32.82 19.05
-1 -5 -9 23.07 15.45
-1 -4 11 -20.08 14.86
1 -4 -11 9.73 12.69
-1 -4 10 5.82 10.01
1 -4 -10 24.08 12.93
-1 -4 9 26.32 14.86
1 -4 -9 63.94 16.39
-1 -4 8 29.57 14.59
1 -4 -8 96.25 21.4
1 -4 -8 75.57 17.01
1 -4 -7 -1.15 8.19
-1 -4 7 7.42 8.96
1 -4 -7 17.39 13.28
1 -4 -7 9.06 6.9
-1 -4 6 152.12 24.87
1 -4 -6 206.93 23.88
1 -4 -6 177.82 24.36
1 -4 -6 186.74 18.39
1 -4 -5 21.8 9.54
1 -4 -5 32.97 10.36
1 -4 -5 39.18 9.58
-1 -4 5 37.32 11.91
-1 -4 4 122.41 20.91
1 -4 -4 127.83 16.76
1 -4 -4 129.12 20.92
-1 -4 3 98.84 18.07
1 -4 -3 116.42 16.72
1 -4 -3 101.11 18.34
1 -4 -2 37.86 11.09
-1 -4 2 27.31 10.87
-1 -4 1 323.37 31.56
1 -4 -1 301.26 28.32
1 -4 0 51.35 12.58
-1 -4 0 54.65 13.29
1 -4 1 225.07 25.4
-1 -4 -1 211.19 24.5
1 -4 2 60.82 14.86
-1 -4 -2 60.68 14.38
-1 -4 -3 9.36 5.89
1 -4 3 0.69 8.09
-1 -4 -3 7.93 7.94
-1 -4 -4 188.61 22.57
-1 -4 -4 190.37 15.28
1 -4 4 178.2 25.05
-1 -4 -4 183.85 22.98
-1 -4 -5 37.53 12.1
-1 -4 -5 28.37 10.55
1 -4 5 34.35 14.02
-1 -4 -5 32.83 6.3
-1 -4 -6 46.47 14.96
-1 -4 -6 52.02 14.35
1 -4 6 43.64 13.41
-1 -4 -7 62.47 17.12
-1 -4 -7 68.02 19.33
1 -4 7 28.95 13.07
-1 -4 -8 58.68 16.06
1 -4 8 63.72 20.41
-1 -4 -9 -14.84 13.4
1 -4 9 -4.55 10.96
1 -4 10 6.32 14.08
-1 -4 -10 0.67 12.45
-1 -3 12 3.13 10.47
1 -3 -12 -3.12 10.93
-1 -3 11 19.02 14.26
1 -3 -11 7.52 10.46
1 -3 -10 51.18 15.48
-1 -3 10 33.45 14.6
1 -3 -9 3.87 6.17
1 -3 -9 -2.25 8.86
-1 -3 9 -0.1 8.95
1 -3 -8 28.24 10.76
-1 -3 8 55.75 16.24
1 -3 -8 42.77 9.8
1 -3 -7 163.67 15.99
-1 -3 7 174.61 24.7
1 -3 -7 172.25 24.15
1 -3 -7 175.24 20.29
1 -3 -6 124.63 13.6
-1 -3 6 122.61 20.17
1 -3 -6 130.81 17.2
1 -3 -6 113.32 8.45
1 -3 -6 136.41 19.81
1 -3 -5 80.25 11.32
1 -3 -5 83.99 15.02
-1 -3 5 84.43 16.61
1 -3 -5 80.65 13.11
1 -3 -5 68.89 7.82
1 -3 -4 498.28 30.2
-1 -3 4 480.57 34.74
1 -3 -4 486.46 26.88
1 -3 -4 485.95 33.15
1 -3 -4 483.97 22.83
-1 -3 3 639.68 38.41
1 -3 -3 717.98 40.38
1 -3 -3 673.3 32.95
1 -3 -2 174.34 17.37
-1 -3 2 174 19.92
-1 -3 1 883.27 43.2
1 -3 -1 852.49 39.82
-1 -3 0 912.87 42.99
1 -3 0 865.35 40.41
1 -3 1 85.16 13.94
-1 -3 -1 105.26 15.05
1 -3 2 411.79 30.17
-1 -3 -2 465.8 32.3
-1 -3 -3 397.86 29.32
1 -3 3 396.97 30.31
-1 -3 -3 401.04 19.3
-1 -3 -4 249.47 13.64
-1 -3 -4 255.36 24.26
-1 -3 -4 290.09 24.6
1 -3 4 236.68 25.61
-1 -3 -5 44.6 4.58
1 -3 5 43.95 12.95
-1 -3 -5 68.13 14.64
-1 -3 -5 50.3 6.09
-1 -3 -5 48.55 12.07
-1 -3 -5 37.24 4.33
-1 -3 -6 559.85 39.57
-1 -3 -6 595.18 37.27
1 -3 6 506.98 41.12
-1 -3 -6 490.66 18.76
-1 -3 -7 282.21 27.53
1 -3 7 247.23 31.47
1 -3 8 31.02 13.75
-1 -3 -8 7.62 9.34
-1 -3 -9 274.32 30.41
1 -3 9 242.23 34.74
-1 -3 -10 41.01 15.72
1 -3 10 36.71 16
1 -3 11 23.47 17.94
-1 -3 -11 -0.51 11.15
1 -2 -13 1.55 11.49
-1 -2 13 16.88 14.78
1 -2 -12 69.1 19.55
-1 -2 12 66.1 20.15
-1 -2 11 32.03 13.93
1 -2 -11 18.1 12.11
-1 -2 10 27.17 11.11
1 -2 -10 23.47 11.96
1 -2 -10 5.57 6.16
1 -2 -9 139.23 20.83
1 -2 -9 137.84 15.85
-1 -2 9 170.12 25.06
1 -2 -8 115.03 13.94
-1 -2 8 131.51 22.09
1 -2 -8 153.54 19.65
-1 -2 7 86.81 17.22
1 -2 -7 79.49 11.01
1 -2 -7 88.97 14.89
-1 -2 6 432.72 32.37
1 -2 -6 421.49 26.4
1 -2 -6 393.17 22.21
-1 -2 5 622.15 35.7
1 -2 -5 526.49 14.9
1 -2 -5 619.87 29.51
1 -2 -5 558.71 25.02
1 -2 -5 650.69 35.23
1 -2 -4 287.36 19.25
1 -2 -4 273.08 17.43
-1 -2 4 281.45 22.95
1 -2 -4 252.39 12.21
1 -2 -4 303.4 22.1
1 -2 -3 730.59 34.12
-1 -2 3 738.49 34.76
1 -2 -3 723.67 23.28
1 -2 -3 730.49 28.22
1 -2 -3 760.22 30.09
-1 -2 2 899.9 35.06
-1 -2 2 929.13 37.11
1 -2 -2 984.65 36.14
1 -2 -2 971 32.39
1 -2 -2 937.68 38.16
1 -2 -2 1006.35 34.17
-1 -2 2 902.99 36.83
-1 -2 1 211.9 16.84
-1 -2 1 226.56 18.1
1 -2 -1 221.26 16.07
1 -2 -1 210.92 16.72
1 -2 0 44.55 6.24
1 -2 0 49.02 8.48
-1 -2 0 51.72 8.63
-1 -2 0 51.5 8.24
1 -2 0 42.39 7.84
1 -2 1 1572.66 44.85
1 -2 1 1611.95 45.49
1 -2 1 1566.51 42.03
-1 -2 -1 1725.55 48.34
1 -2 2 535.13 27.31
-1 -2 -2 573.04 28.55
1 -2 2 527.92 28.06
1 -2 2 503.58 25.11
-1 -2 -2 570.48 17.49
-1 -2 -2 599.49 29.26
-1 -2 -3 325.36 21.83
-1 -2 -3 332.68 21.56
-1 -2 -3 326.86 22.65
1 -2 3 286.52 18.99
-1 -2 -3 293.29 11.38
1 -2 3 321.6 23.59
1 -2 4 411.35 23
-1 -2 -4 404.76 14.14
1 -2 4 453.12 31.33
-1 -2 -4 460.59 26.7
-1 -2 -4 459.35 28.43
1 -2 5 1071.37 37.14
-1 -2 -5 1027.14 24.9
1 -2 5 1112.29 52.64
1 -2 6 107.97 18.44
1 -2 6 100.79 10.55
-1 -2 -6 127.99 16.84
1 -2 6 109.58 12.28
-1 -2 -7 249.9 24.83
1 -2 7 222.61 27.27
1 -2 7 187.08 15.08
1 -2 7 186.63 16.08
-1 -2 -8 149.84 20.94
1 -2 8 108.4 12.25
1 -2 8 120.64 21.57
1 -2 9 1.79 9.76
-1 -2 -9 27.29 13.6
1 -2 10 20.46 12.01
-1 -2 -10 9.6 10.75
-1 -2 -11 16.59 13.2
1 -2 11 3.08 13.26
-1 -2 -12 17.23 15.63
1 -2 12 14.19 15.92
-1 -1 14 3.31 11.85
1 -1 -13 14.46 12.6
-1 -1 13 25.93 17.25
1 -1 -12 3.23 10.8
-1 -1 12 19.51 11.46
-1 -1 11 118.13 22.16
1 -1 -11 93.28 19.3
-1 -1 11 105.64 16.29
-1 -1 10 359.67 35.07
1 -1 -10 304.15 31.7
-1 -1 10 315.17 20.51
1 -1 -9 -1.25 8.58
-1 -1 9 0.95 3.49
-1 -1 9 4.96 7.34
1 -1 -8 140.98 15.78
-1 -1 8 160.95 21.46
-1 -1 8 171.99 12.97
1 -1 -8 147.77 19.13
-1 -1 7 682.29 23.05
1 -1 -7 669.39 31.03
-1 -1 7 685.66 39.51
1 -1 -7 633.5 35.4
1 -1 -6 884.26 38
1 -1 -6 875.63 33.35
-1 -1 6 935.3 42.63
-1 -1 6 900.68 23.04
-1 -1 5 77.39 11.52
-1 -1 5 69.25 5.55
1 -1 -5 73.76 11.06
1 -1 -5 71.48 9.24
1 -1 -4 2606.78 50.55
1 -1 -4 2471.39 46.52
-1 -1 4 2559.76 57.87
-1 -1 4 2506.69 50.93
-1 -1 4 2555.95 53.43
-1 -1 4 2554.64 60.3
-1 -1 3 7198.57 91.57
-1 -1 3 7191.49 80.54
1 -1 -3 6897.54 51.65
-1 -1 3 7133.07 86.03
1 -1 -3 7171.66 71.93
1 -1 -3 7298.39 84.54
1 -1 -3 7258.92 79.28
-1 -1 3 7121.94 73.26
1 -1 -3 7000.1 72.68
1 -1 -2 1479.57 34.84
1 -1 -2 1542.36 34.84
1 -1 -2 1488.18 25.6
1 -1 -2 1481.62 31.61
1 -1 -2 1502.98 29.44
-1 -1 2 1392.95 27.15
-1 -1 2 1523.74 38.39
-1 -1 2 1469.11 31.67
-1 -1 2 1474.21 35.28
1 -1 -1 4455.39 47.24
1 -1 -1 4604.54 55.62
1 -1 -1 4549.49 49.57
-1 -1 1 4472.81 57.89
1 -1 -1 4580.42 57.33
-1 -1 0 3941.03 53
-1 -1 0 3969.49 51.46
1 -1 0 3844.19 48.78
1 -1 0 3801.31 40.94
1 -1 0 3813.32 45.61
1 -1 1 1247.74 27.58
-1 -1 -1 1347.8 22.02
-1 -1 -1 1387.86 31.04
-1 -1 -1 1404.49 31.21
1 -1 1 1266.6 30.22
1 -1 1 1375.36 32.28
1 -1 2 314.62 13.57
-1 -1 -2 360.66 16.27
1 -1 2 336.56 18.68
-1 -1 -2 386.03 18.48
1 -1 2 341.93 19.3
1 -1 2 357.94 14.05
-1 -1 -2 363.58 17.46
-1 -1 -2 349.84 9.16
1 -1 3 1094.85 27.04
1 -1 3 1097.79 39.51
-1 -1 -3 1038.65 26.95
-1 -1 -3 1103.5 33.47
1 -1 3 1063.04 35.77
1 -1 3 1191.88 36.92
1 -1 3 989.27 24.18
1 -1 3 1097.93 37.88
-1 -1 -4 73.72 7.61
-1 -1 -4 89.91 11.29
1 -1 4 92.24 9
1 -1 4 87.7 13.66
1 -1 4 78.21 7.06
-1 -1 -5 466.11 27.4
1 -1 5 406.76 16.88
1 -1 5 438.08 30.87
1 -1 5 455.74 21.04
1 -1 6 368.57 21.12
1 -1 6 400.72 32.06
-1 -1 -6 357.47 26.86
1 -1 7 242.39 18.45
1 -1 7 260.23 28.44
-1 -1 -7 229.88 23.8
1 -1 8 41.49 8.11
-1 -1 -8 31.21 11.05
1 -1 9 255.78 21.65
-1 -1 -9 273.32 29.82
1 -1 9 271.83 32.06
1 -1 10 8.76 6.9
-1 -1 -10 28.19 14.8
1 -1 10 21.31 12.35
1 -1 11 12.16 15.01
-1 -1 -11 12.62 10.95
-1 -1 -12 28.69 15.31
1 -1 12 20.66 17.33
1 -1 13 11.81 13.07
-1 0 14 12.82 15.7
1 0 -14 -92.08 23.84
-1 0 13 15.74 13.06
1 0 -13 -42.53 18.06
-1 0 12 67.62 19.14
1 0 -12 37.89 16.2
-1 0 11 24.39 13.61
1 0 -11 2.19 13.5
-1 0 11 20.06 7.96
1 0 -10 36.16 14.9
-1 0 10 41.92 8.44
-1 0 10 51.72 15.24
-1 0 10 46.84 10.66
1 0 -10 5.62 9.38
-1 0 10 30.16 9.17
-1 0 9 122.49 15.21
1 0 -9 117.7 19.33
-1 0 9 151.96 22.18
1 0 -9 156.7 23.26
-1 0 9 136.35 16.29
-1 0 9 133.53 13.5
-1 0 8 409.88 26.6
1 0 -8 388.98 30.99
-1 0 8 389.28 24.65
-1 0 8 425.85 22.35
1 0 -8 430.05 34.13
1 0 -7 -0.59 6.5
-1 0 7 3.21 3.32
-1 0 7 -3.38 4.77
1 0 -6 1580.99 57.13
1 0 -6 1514.12 51.72
1 0 -6 1467.46 44.7
-1 0 6 1567.42 36.87
-1 0 5 327.86 15.96
1 0 -5 357.99 26.02
-1 0 5 359.43 22.26
1 0 -5 326.98 19.62
1 0 -5 335.25 22.65
-1 0 5 372.84 21.52
1 0 -4 3158.89 65.08
-1 0 4 3083.1 60.36
-1 0 4 3196.88 56.2
-1 0 4 3338.29 59.09
-1 0 4 3171.25 44.69
1 0 -4 3133.3 54.93
1 0 -4 3182.44 59.04
-1 0 4 3308.82 57.31
1 0 -3 9901.52 88.33
-1 0 3 9999 87.31
1 0 -3 9871.88 84.37
-1 0 3 9934.99 88.1
-1 0 3 9687.84 71.11
-1 0 3 9931.04 90.52
1 0 -3 9770.37 85.18
1 0 -3 9695.99 96.54
-1 0 2 166.88 8.18
1 0 -2 166.08 9.01
-1 0 2 155.35 10.04
-1 0 2 158.21 8.23
1 0 -2 155.03 9.29
1 0 -2 159.48 10.11
-1 0 2 162.74 9.21
-1 0 2 155.4 8.88
1 0 -2 145.41 7.84
1 0 -2 156.97 8.78
-1 0 2 148.14 9.41
1 0 2 35.17 5.64
1 0 2 36.83 5.03
1 0 2 38.42 4.18
-1 0 -2 47.19 6.19
1 0 2 37.01 4.91
-1 0 -2 43.84 5.62
-1 0 -2 39.95 5.12
-1 0 -2 42.32 6.14
-1 0 -3 -3.02 4.18
1 0 3 3.45 2.99
1 0 3 0.76 2.41
-1 0 -3 2.37 1.9
-1 0 -3 8.53 5.38
-1 0 -3 3.94 3.28
1 0 3 0.58 2.31
1 0 4 1604.01 37.17
1 0 4 1621.6 39.35
-1 0 -4 1693.41 49.44
-1 0 -4 1641.39 47.12
-1 0 -4 1595.74 40.05
-1 0 -4 1647.49 44.97
1 0 4 1478.94 23.79
1 0 5 1286.21 38.9
-1 0 -5 1309.88 44.96
-1 0 -5 1297.63 48.8
-1 0 -5 1289.07 47.25
1 0 5 1338.17 38.01
1 0 5 1182.43 24.79
-1 0 -6 395.31 29.26
-1 0 -6 396.47 29.95
1 0 6 395.2 23.5
1 0 6 351.33 15.21
-1 0 -7 685.8 40.63
1 0 7 566.67 21.16
-1 0 -7 675.82 40.56
1 0 7 664.58 32.79
1 0 8 110.61 14.83
-1 0 -8 90.21 17.18
1 0 8 97.79 9.7
-1 0 -8 113.78 19.25
1 0 9 8.57 6.34
-1 0 -9 5.92 9.44
-1 0 -9 -16.7 12.73
-1 0 -10 25.3 12.92
-1 0 -10 12.75 11.36
1 0 10 25.84 9.31
1 0 11 55.46 12.7
-1 0 -11 38.99 14.43
-1 0 -11 32.92 15.45
1 0 12 23.71 14.69
-1 0 -12 -24.71 14.74
-1 0 -13 -81.38 21.51
1 0 13 13.92 15.66
-1 1 14 26.75 18.09
1 1 -13 25.23 18.53
-1 1 13 61.46 20.77
1 1 -12 53.6 19.86
-1 1 12 18.94 9.67
1 1 -11 127.98 25.27
-1 1 11 125.6 19.63
-1 1 10 301.06 26.31
-1 1 10 343.85 30.75
1 1 -10 358.07 35.75
-1 1 9 2.04 5.58
-1 1 9 -4.9 6.71
-1 1 9 8.63 3.09
-1 1 8 138.98 9.56
-1 1 8 163.79 17.61
-1 1 7 639.92 32.83
1 1 -7 685.39 40.46
-1 1 6 984.48 38.2
1 1 -6 874.07 37
1 1 -6 965.91 43.41
-1 1 5 125.12 13.16
-1 1 5 127.22 7.89
1 1 -5 117.49 14.64
1 1 -5 126.21 12.92
-1 1 5 130.15 13.42
-1 1 4 2232.72 49.89
1 1 -4 2457.56 59
1 1 -4 2410.13 47.57
-1 1 4 2681 57.4
-1 1 4 2390.73 53.04
-1 1 4 2534.87 53.19
-1 1 4 2305.41 31.22
1 1 -4 2487.08 54.51
-1 1 4 2325.84 59.4
-1 1 3 7182.26 81.41
-1 1 3 7157.95 54.36
-1 1 3 7004.42 90.27
1 1 -3 7083.51 68.51
-1 1 3 7321.56 84.64
1 1 -3 7258.75 92.24
-1 1 3 6855.08 79.09
1 1 -3 7219.54 84
-1 1 2 1399.59 32.58
1 1 -2 1430.9 33.96
-1 1 2 1478.15 26.13
-1 1 2 1377.48 35.35
1 1 -2 1433.13 36.77
1 1 -2 1420.39 25.05
-1 1 2 1498.32 34.52
-1 1 1 4831.75 57.89
1 1 -1 4619.29 38.28
-1 1 1 4721.59 48.08
1 1 -1 4712.2 59.04
1 1 -1 4698.8 60.46
1 1 0 3851.21 44.56
-1 1 0 3834.73 49.88
1 1 0 3988.58 50.1
-1 1 0 3804.13 45.78
1 1 0 3795.24 53.06
-1 1 0 3838.81 39.09
-1 1 -1 1346.47 25.15
1 1 1 1402.63 31.86
-1 1 -1 1320.36 29.49
1 1 1 1370.45 29.79
-1 1 -1 1376.81 31.57
1 1 1 1384.92 32.89
-1 1 -1 1265.27 27.28
1 1 2 584.26 23.65
-1 1 -2 626.9 24.84
-1 1 -2 603.19 23.11
-1 1 -2 584.82 16.88
1 1 2 616.42 25.12
1 1 2 590.11 20.41
-1 1 -2 557.62 17.24
1 1 3 1206.54 37.5
1 1 3 1141.93 23.46
1 1 3 1179.82 33.64
-1 1 -3 1089.4 24.73
1 1 3 1173.53 29.71
-1 1 -3 1164.9 35.1
1 1 3 1158.23 40.37
1 1 3 1359.94 35.75
1 1 3 1278.57 39.93
-1 1 -4 73.02 7.48
1 1 4 91.42 9.24
1 1 4 75.38 10.73
-1 1 -4 84.7 10.7
1 1 4 72.23 7.32
1 1 5 459.61 21.26
-1 1 -5 402.31 19.47
1 1 5 411.63 20.22
1 1 5 486.11 28.13
-1 1 -5 449.04 26.56
1 1 6 419.11 27.47
-1 1 -6 354.26 26.22
1 1 6 339.46 21
1 1 6 389.75 20.94
1 1 7 309.06 19.79
1 1 7 308.02 25.43
-1 1 -7 295.69 26.78
-1 1 -7 290.33 25.6
-1 1 -8 28.63 11.12
1 1 8 53 12.2
-1 1 -8 47.55 14.96
1 1 8 43.34 8.51
1 1 9 294.34 27.85
1 1 9 266.65 20.14
-1 1 -9 280.34 31.26
1 1 10 31.4 11.24
-1 1 -10 53.77 18.53
-1 1 -11 16.06 15.65
1 1 11 -1.24 8.49
1 1 12 21.87 11.6
-1 1 -12 17.45 16.49
-1 1 -13 4.74 13.49
-1 2 13 -0.11 9.04
1 2 -13 6.21 14.25
-1 2 12 23.77 12.29
1 2 -12 39.16 18.58
-1 2 11 24.75 12.77
1 2 -11 10.12 12.91
-1 2 11 19.1 9.62
1 2 -10 22.47 13.92
-1 2 10 14.73 7.95
-1 2 10 17.52 10.85
-1 2 9 113.38 18.01
1 2 -9 94.92 16.82
1 2 -8 116.53 16.68
-1 2 8 131.36 17.83
1 2 -7 78.25 12.88
-1 2 7 86.76 14.45
1 2 -7 95.08 17.47
1 2 -6 413.38 25.73
-1 2 6 429.1 28.93
1 2 -6 423.47 32.52
1 2 -5 528.92 26.31
1 2 -5 569.46 35.22
-1 2 5 510.75 28.2
-1 2 5 585.51 32.05
1 2 -4 239.78 16.47
-1 2 4 230.18 17.41
1 2 -4 241.28 21.84
-1 2 4 241.46 20.05
1 2 -3 725.64 35.02
-1 2 3 786.79 34.44
-1 2 3 726.76 30.11
1 2 -3 762.67 26.53
-1 2 2 895.13 35.67
-1 2 2 801.69 31.22
1 2 -2 823.33 35.03
1 2 -2 834.82 34.13
1 2 -1 146.63 13.67
-1 2 1 152.07 12.93
-1 2 1 146.78 13.88
1 2 -1 138.66 13.91
-1 2 1 143.39 9.86
1 2 -1 144.81 14.08
1 2 0 22.3 5.54
-1 2 0 18.34 4.43
-1 2 0 15.27 4.86
1 2 0 21.52 5.69
-1 2 0 25.18 5.85
1 2 1 1840.73 48.81
-1 2 -1 1794.48 46.84
-1 2 -1 1757.31 45.87
1 2 1 1648.85 48.7
-1 2 -1 1726.04 43.43
1 2 2 609.22 28.36
-1 2 -2 564.62 25.74
-1 2 -2 540.25 27.3
1 2 3 324.52 21.35
-1 2 -3 303.93 20.76
-1 2 -3 311.09 22.34
-1 2 -3 302.46 13.92
1 2 4 346.02 22.8
-1 2 -4 360.34 24.09
-1 2 -4 339.17 14.91
1 2 4 402.6 27.38
1 2 5 1343.63 45.75
-1 2 -5 1095.36 28.1
-1 2 -5 1247.76 46.46
1 2 5 1396.19 53.88
1 2 5 1095.95 31.39
1 2 6 121.49 17.66
1 2 6 96.72 10.96
-1 2 -6 122.67 16.03
1 2 6 131.16 15.1
-1 2 -6 97.91 9.52
1 2 7 328.27 29.76
-1 2 -7 263.38 25.08
1 2 7 275.34 22.52
1 2 8 220.42 25.33
-1 2 -8 173.76 22.03
1 2 8 185.34 19.28
1 2 9 40.38 13.28
-1 2 -9 22.88 10.19
1 2 9 27.06 8.36
-1 2 -10 45.55 13.87
-1 2 -10 44.58 16.17
1 2 10 57.65 16.16
1 2 11 69.35 17.62
-1 2 -11 44.22 17.87
1 2 12 32.21 14.35
-1 2 -12 20.46 18.29
1 2 13 3.07 11.36
-1 3 13 -3.42 10.7
1 3 -12 -6.05 14.26
-1 3 12 5.39 12.06
-1 3 11 -0.36 11.62
-1 3 11 3.64 8.01
1 3 -10 79 16.59
-1 3 10 56.25 15.59
-1 3 10 85.12 18.19
-1 3 9 2.11 6.82
1 3 -9 5.08 7.43
1 3 -8 51.31 12.34
-1 3 8 44.32 12.23
1 3 -8 40.03 14.4
1 3 -7 194.28 20.46
1 3 -7 230.4 28.1
-1 3 7 200.36 24.3
1 3 -6 141.11 16.66
1 3 -6 145.78 21.57
-1 3 6 140.97 20.05
1 3 -5 88.75 12.76
-1 3 5 101.7 16.34
1 3 -5 86.29 16.18
1 3 -4 493.79 34.62
1 3 -4 477.66 26.25
-1 3 4 498.88 33.7
-1 3 3 639.58 37.12
1 3 -3 609.42 28.76
1 3 -3 623.86 36.79
1 3 -2 187.11 19.65
-1 3 2 174.53 19.05
-1 3 1 861.35 40.94
-1 3 1 789.66 30.59
1 3 -1 864.71 40.44
1 3 -1 792.61 37.91
-1 3 0 971.05 36.06
-1 3 0 1027.55 44
1 3 0 1022.89 43.72
-1 3 -1 75.18 11.75
1 3 1 74.25 12.4
-1 3 -1 76.65 11.5
1 3 2 386.58 27.86
-1 3 -2 370.98 25.86
-1 3 -2 344.2 25.08
-1 3 -3 545.38 31.89
1 3 3 603.4 35.12
-1 3 -3 456.59 20.87
-1 3 -3 527.63 30.9
-1 3 -3 552.33 33.56
-1 3 -4 239.84 23.8
-1 3 -4 202.11 13
-1 3 -4 226.29 21.58
1 3 4 259.37 23.5
-1 3 -5 80 16.52
1 3 5 69.72 13.55
-1 3 -5 86.22 15.04
-1 3 -5 61.5 7.13
1 3 5 78.42 14.23
-1 3 -6 513.22 35.11
1 3 6 547.41 40.62
1 3 6 528.72 35.73
1 3 7 347.92 33.95
-1 3 -7 293.83 27.67
1 3 7 321.95 29.23
1 3 8 37.5 12.71
-1 3 -8 20.22 9.85
1 3 8 30 11.07
1 3 9 286.37 28.66
-1 3 -9 244.98 28.8
1 3 9 307.24 35.13
-1 3 -10 46 15.23
1 3 10 48.04 16.43
1 3 11 7.68 9.22
-1 3 -11 -6.18 9.34
-1 3 -11 -8.17 14.08
-1 3 -12 -0.01 14.7
1 3 12 25.03 15.57
-1 4 12 23.98 13.64
1 4 -11 -2.8 9.32
-1 4 11 -12.37 15.31
1 4 -10 21.08 11.73
-1 4 10 11.25 10.44
-1 4 10 13.73 10.77
-1 4 9 38.99 13.75
1 4 -9 69.35 19.46
1 4 -9 40.75 13.27
-1 4 8 64.14 16.97
1 4 -8 82.52 20.49
1 4 -8 53.2 12.75
1 4 -7 -1.09 9.88
1 4 -7 0.25 7.38
-1 4 7 5.8 8.13
1 4 -6 179.49 20.58
1 4 -6 167 24.96
-1 4 6 161.46 24.12
-1 4 5 32.03 11.74
1 4 -5 11.67 7.03
1 4 -5 32.3 10.04
1 4 -5 14.58 3.49
1 4 -4 132.86 16.23
-1 4 4 134.6 20.02
1 4 -4 125.02 20.31
-1 4 3 112.86 18.92
1 4 -3 100.54 17.83
-1 4 2 12.8 8.31
-1 4 2 2.49 4.48
1 4 -2 8.56 7.64
1 4 -1 321.17 27.89
-1 4 1 314.35 29.29
-1 4 1 312.52 23.28
1 4 -1 305.12 27.66
1 4 0 29.55 9.56
-1 4 0 26.98 8.14
1 4 0 26.12 8.54
-1 4 0 30.55 11.05
-1 4 -1 224.38 21.62
1 4 1 243.33 25.56
-1 4 -1 230.91 23.87
-1 4 -2 56.81 12.31
-1 4 -2 53.22 12.53
1 4 2 55.83 12.16
1 4 3 5.34 7.73
-1 4 -3 4.51 6.7
-1 4 -3 0.83 6.13
-1 4 -4 169.36 20.61
1 4 4 193.42 24.36
-1 4 -4 174.78 23.19
1 4 5 6.38 10.23
-1 4 -5 33.06 12.29
-1 4 -5 35.66 13.79
1 4 5 26.09 10.62
1 4 6 40.69 13.29
-1 4 -6 46.4 15.2
-1 4 -6 49.96 15.1
1 4 6 48.41 12.51
1 4 7 34.26 13.29
1 4 7 22.11 9.14
-1 4 -7 29.97 11.19
1 4 8 30.53 13.31
-1 4 -8 25.81 12.02
1 4 8 36.29 13.16
-1 4 -9 -10.14 9.53
1 4 9 0.64 11.15
1 4 9 4.86 8.41
1 4 10 17.02 14.14
-1 4 -10 7.06 10.24
1 4 11 0.6 11.2
-1 4 -11 5.55 11.72
1 5 -11 1.46 8.87
1 5 -10 8.23 10.75
-1 5 10 4.38 12.71
-1 5 10 1.78 10.04
1 5 -9 17.94 11.07
1 5 -9 18.78 14.64
-1 5 9 11.42 12.83
1 5 -8 1.87 8.36
1 5 -8 9.11 11.63
-1 5 8 0.98 8.99
-1 5 7 57.67 16.74
1 5 -7 53.83 13.6
1 5 -7 65.46 18.86
1 5 -6 43.66 12.2
1 5 -6 40.38 15.41
-1 5 6 60.41 16.6
-1 5 5 24.2 12.04
1 5 -5 21.43 11.35
1 5 -5 22.01 9.27
-1 5 4 114.59 21.1
-1 5 4 76.38 13.46
1 5 -4 85.46 18.79
1 5 -4 99.37 15.56
-1 5 3 146.62 17.92
-1 5 3 194.57 26.36
1 5 -3 160.42 24.1
-1 5 2 12.02 9.27
-1 5 2 9.29 5.54
1 5 -2 18.72 9.8
-1 5 1 198.35 25.91
1 5 -1 192.77 26.12
-1 5 1 178.99 20.42
1 5 -1 174.2 23.56
-1 5 0 91.25 15.53
1 5 0 89.12 16.53
1 5 0 107.56 20.12
-1 5 0 106.65 19.07
-1 5 -1 3.03 7.59
1 5 1 -0.76 8.44
-1 5 -1 -0.6 7.77
1 5 1 6.01 5.81
1 5 2 28 10.99
-1 5 -2 19.76 9.11
-1 5 -2 26.68 10.52
-1 5 -3 36.72 12.06
1 5 3 31.17 12.44
-1 5 -4 11.7 7.65
1 5 4 11.38 8.53
-1 5 -4 21.3 10.8
1 5 5 30.7 11.3
1 5 5 44.65 14.69
-1 5 -5 14.12 10.36
-1 5 -5 28.45 13.98
1 5 6 16.03 10.29
-1 5 -6 34.09 13.02
1 5 6 15.37 10.59
-1 5 -6 27.42 13.04
1 5 7 16.98 9.62
-1 5 -7 33.97 13.89
1 5 7 21.69 13.68
1 5 8 20.8 14
-1 5 -8 5.66 8.58
1 5 8 3.83 11.32
1 5 9 29.55 14.92
-1 5 -9 36.59 14.46
1 5 9 31.79 18.36
-1 5 -10 2.21 9.56
-1 6 9 17.7 13.31
-1 6 8 9.34 10.18
1 6 -8 11.47 13.98
1 6 -7 1.35 12.61
1 6 -7 -1.39 7.15
-1 6 7 9.63 12.42
1 6 -6 26.47 12.28
1 6 -6 23.36 13.43
-1 6 6 6.96 11.51
-1 6 5 44.96 17.38
1 6 -5 26.68 13.53
1 6 -5 32.75 11.78
1 6 -4 -3.36 9.05
1 6 -4 -1.55 8.36
-1 6 4 23.84 14.2
1 6 -3 -2.14 8.81
-1 6 3 25.14 13.94
1 6 -3 25.1 13.04
-1 6 2 20.32 13.06
1 6 -2 24.02 11.53
-1 6 1 8.56 8.19
-1 6 1 -0.26 9.59
1 6 -1 0.51 7.17
-1 6 0 6.02 6.83
-1 6 0 10.41 12.65
1 6 0 -3.77 6.95
1 6 0 -4.64 8.97
1 6 1 23.27 12.64
-1 6 -1 0.5 7.38
-1 6 -1 19.84 11.05
1 6 1 11.25 7.82
1 6 2 16.67 10.84
-1 6 -2 3.91 7.96
1 6 2 11.15 9.49
1 6 3 5.07 8.47
1 6 3 10.35 10.51
-1 6 -3 12.37 10.87
1 6 3 23.02 12.56
1 6 4 35.22 14.25
-1 6 -4 49.64 16.44
-1 6 -4 31.79 11.12
1 6 4 25.7 13.04
-1 6 -5 2.21 10.64
1 6 5 19.23 12.23
1 6 5 -11.86 14.96
-1 6 -5 13.69 9.2
-1 6 -6 15.85 15
1 6 6 15.51 11.65
1 6 6 33.05 15.08
-1 6 -6 27.94 15.32
1 6 7 -15.52 17.21
-1 6 -7 20.57 13.41
1 6 7 10.29 10.66
1 6 8 10.54 12.73
-1 6 -8 11.47 11.54
1 7 -6 2.06 13.68
1 7 -5 -6.78 11.02
1 7 -4 -9.64 11.14
-1 7 3 14.31 13.93
1 7 -3 -7.23 10.52
-1 7 2 5 10.86
1 7 -2 5.06 9.25
-1 7 1 8.18 11.41
1 7 -1 19.78 13.25
-1 7 0 23.11 16.75
1 7 0 -24.73 12.4
-1 7 -1 10.95 13.7
1 7 1 -15.36 11.65
1 7 2 16.95 13.08
1 7 2 2.37 9.49
1 7 3 29.19 17.14
1 7 3 3.77 10.82
1 7 4 -13.06 13.39
-1 7 -4 0.27 9.2
-1 7 -5 26.1 13.84
-1 7 -5 1.47 10.08
2 -7 -5 -67.97 21.64
-2 -7 3 1.83 12.12
2 -7 -3 -5.02 16.56
-2 -7 2 2.19 13.65
2 -7 -2 -33.86 18.26
2 -7 -2 3.87 11.31
2 -7 -1 -0.34 11.93
-2 -7 1 24.34 17.19
2 -7 -1 -2.59 10.29
-2 -7 0 -24.51 15.83
2 -7 0 -6.76 11.52
2 -7 1 1.56 10.64
-2 -7 -1 -2.74 11.12
-2 -7 -2 2.86 11.37
2 -7 2 -25.67 16.09
-2 -7 -3 9.72 11.39
2 -7 3 6.18 11.67
2 -6 -9 29.82 20.43
2 -6 -8 27.24 16.08
2 -6 -8 16.72 14.8
-2 -6 7 7.5 14.74
2 -6 -7 0.27 11.42
2 -6 -7 -17.4 12.95
2 -6 -6 -54.73 19.58
-2 -6 6 5.36 13.8
2 -6 -6 -52.18 17.73
-2 -6 5 24.39 15.46
2 -6 -5 -1.05 11.96
-2 -6 4 -11.67 14.77
2 -6 -4 18.19 11.16
2 -6 -4 -2.09 10.89
-2 -6 3 -19.18 14.41
2 -6 -3 -9.18 15.32
2 -6 -3 4.59 8.93
2 -6 -2 11.8 12.02
2 -6 -2 -2.63 12.67
-2 -6 2 -9.78 12.19
2 -6 -1 27.25 14.17
-2 -6 1 8.13 10.74
2 -6 0 12.2 9.31
-2 -6 0 13.07 12.36
2 -6 1 0.5 9.06
-2 -6 -1 -9.98 10.9
-2 -6 -2 27.7 15.21
2 -6 2 23.94 12.38
2 -6 3 17.25 11.11
-2 -6 -3 27.92 14.31
2 -6 4 -6.62 12.26
-2 -6 -4 -27.69 17.5
-2 -6 -4 -7.85 15.63
2 -6 5 17.22 14.23
-2 -6 -5 12.4 11.65
-2 -6 -5 -0.92 14.09
-2 -6 -6 4.88 12.6
2 -6 6 2.72 11.28
-2 -6 -6 21.93 12.61
-2 -6 -7 19.64 17.07
2 -5 -11 0.01 13.88
2 -5 -10 0.01 11.8
-2 -5 10 -13.01 13.86
2 -5 -9 40.06 19.91
2 -5 -9 4.43 11.23
-2 -5 9 14.65 14.22
2 -5 -8 20.56 13.73
-2 -5 8 -12.26 12.02
2 -5 -8 32.22 14.09
2 -5 -7 7.48 9.45
2 -5 -7 6.71 9.84
-2 -5 7 6.99 12.54
2 -5 -6 62.33 15.15
2 -5 -6 30.77 10.41
-2 -5 6 57.8 18.8
2 -5 -6 43.71 12.05
2 -5 -5 6.94 7.03
2 -5 -5 -8.12 10.4
2 -5 -5 -13.27 12.42
-2 -5 5 15.27 12.37
-2 -5 4 33.27 14.21
2 -5 -4 36.25 14.33
2 -5 -4 45.46 13.12
-2 -5 3 74.5 19.08
2 -5 -3 99.69 19.18
2 -5 -3 95.35 21.41
2 -5 -2 8.83 8.49
-2 -5 2 -18.22 13.22
-2 -5 1 17.43 9.79
2 -5 -1 8.86 8.38
-2 -5 0 95.24 20.44
2 -5 0 82.23 18.04
2 -5 1 139.12 23.3
-2 -5 -1 136.41 23.01
-2 -5 -2 15.06 8.52
2 -5 2 30.62 12.03
2 -5 3 119.2 22.54
-2 -5 -3 135.34 21.74
-2 -5 -4 75.98 16.12
-2 -5 -4 53.87 14.68
2 -5 4 45.43 17.35
-2 -5 -5 38.02 13.25
2 -5 5 24.16 14.43
-2 -5 -5 -5.9 12.81
-2 -5 -6 54.45 16.65
-2 -5 -6 50.39 17.21
2 -5 6 31.44 15.6
-2 -5 -7 50.6 17.81
2 -5 7 30.33 16.88
-2 -5 -7 33.11 17.75
-2 -5 -8 56.41 20.76
2 -5 8 8.14 14.83
2 -4 -12 4.17 12.31
-2 -4 12 -0.44 10.93
2 -4 -11 6.31 12
-2 -4 11 8.14 11.64
2 -4 -10 2.38 9.98
-2 -4 10 8.24 10.68
-2 -4 9 -3.75 11.45
2 -4 -9 -14.43 12.02
2 -4 -8 11.02 13.43
-2 -4 8 0.27 9.52
2 -4 -8 35.6 13.89
2 -4 -8 2.9 6.19
2 -4 -7 155.95 24.03
-2 -4 7 121.03 23.74
2 -4 -7 156.3 21.13
2 -4 -7 120.83 17.07
-2 -4 6 32.49 13.12
2 -4 -6 51.12 11.54
2 -4 -6 45.93 13.3
2 -4 -6 46.78 12.22
2 -4 -5 -19.3 13.85
2 -4 -5 -9.33 9.86
2 -4 -5 11.11 8.03
-2 -4 5 6.11 9.49
-2 -4 4 241.69 28.98
2 -4 -4 249.15 25.01
2 -4 -4 179.48 24.49
2 -4 -3 58.32 15.08
2 -4 -3 66.15 14.74
-2 -4 3 60.57 15.34
2 -4 -2 299.46 27.5
-2 -4 2 288.01 29.86
-2 -4 1 127.25 20.08
2 -4 -1 102.86 17.02
2 -4 0 75.22 14.74
-2 -4 0 76.58 15.19
-2 -4 -1 81.38 16.26
2 -4 1 106.02 17.19
2 -4 2 118.99 19.96
-2 -4 -2 143.93 20.98
-2 -4 -3 195.46 23.23
2 -4 3 184.72 24.81
-2 -4 -3 211.78 14.7
-2 -4 -4 112.67 12.04
-2 -4 -4 105.99 17.8
2 -4 4 132.26 22.89
-2 -4 -4 104.71 16.79
-2 -4 -5 99.26 18.5
2 -4 5 95.21 19.99
-2 -4 -5 93.48 17.83
-2 -4 -6 179.76 25.44
2 -4 6 183.13 28.71
-2 -4 -6 181.82 24.38
2 -4 7 13.35 11.08
-2 -4 -7 29.33 14.18
-2 -4 -8 1.62 10.25
2 -4 8 1.08 11.82
-2 -4 -9 16.67 13.39
2 -4 9 -3.59 12.32
-2 -4 -10 12.7 13.77
2 -4 10 -0.97 15.71
2 -3 -13 37.49 17.13
-2 -3 13 5.17 10.11
-2 -3 12 27.54 13.39
2 -3 -12 24.59 13.81
2 -3 -11 -12.51 10.58
-2 -3 11 8.5 11.16
-2 -3 10 25.72 12.39
2 -3 -10 16.16 8.4
2 -3 -10 18.21 11.06
2 -3 -9 122.84 16.43
-2 -3 9 106.52 21.8
2 -3 -9 143.45 20.31
2 -3 -8 28.34 8.42
2 -3 -8 12.58 8.69
-2 -3 8 10.09 10.54
-2 -3 7 -2.97 7.44
2 -3 -7 6.42 5.05
2 -3 -7 8.28 7.15
2 -3 -6 213.29 20.66
2 -3 -6 219.26 23.95
2 -3 -6 189.74 13.62
2 -3 -6 186.65 18.54
-2 -3 6 198.62 24.88
2 -3 -5 173.49 14.16
2 -3 -5 193.88 21.46
2 -3 -5 194.76 18.57
2 -3 -5 175.97 18.06
-2 -3 5 183.27 22.8
-2 -3 4 35.11 11.22
2 -3 -4 27.87 8.07
2 -3 -4 29.57 10.17
2 -3 -4 18.86 6.47
2 -3 -3 569.1 33.57
-2 -3 3 517.08 34.83
2 -3 -3 579.79 37.17
2 -3 -2 491.99 33.02
2 -3 -2 463.78 27.78
-2 -3 2 480.29 32.7
2 -3 -1 83.61 12.92
-2 -3 1 90.25 14.79
-2 -3 0 657.55 37.2
2 -3 0 579.99 27.34
2 -3 0 595.48 32.99
-2 -3 -1 823.84 41.3
2 -3 1 828.4 39.66
2 -3 2 181.97 20.88
-2 -3 -2 172 19.45
-2 -3 -3 538.47 32.92
-2 -3 -3 426.72 14.03
2 -3 3 485.53 34.37
-2 -3 -3 488.55 21.63
-2 -3 -3 466.26 31.75
2 -3 4 591.43 40.57
-2 -3 -4 654.1 21.56
-2 -3 -4 685.94 38.68
-2 -3 -4 650.83 37.64
2 -3 5 109.38 19.56
-2 -3 -5 79.54 5.81
-2 -3 -5 135.78 18.27
-2 -3 -5 122.98 18.97
-2 -3 -6 260.35 25.93
2 -3 6 204.26 28.42
2 -3 7 82.82 20.61
-2 -3 -7 91.39 16.89
-2 -3 -8 16.8 11.57
2 -3 8 -5.52 10.87
-2 -3 -9 18.53 10.53
2 -3 9 3.87 11.49
-2 -3 -10 31.62 14.75
2 -3 10 47.54 19.97
2 -3 11 44.46 19.78
-2 -3 -11 25.01 15.09
-2 -2 14 0.76 12.37
2 -2 -13 18.94 14.96
-2 -2 13 6.16 13.96
-2 -2 12 9.27 7.35
2 -2 -12 9.88 11.05
2 -2 -11 95.14 19.26
-2 -2 11 103.6 22.34
2 -2 -11 70.62 14.61
2 -2 -10 50.87 11.19
2 -2 -10 50.08 13.96
-2 -2 10 82.3 18.82
2 -2 -9 3.75 8.08
2 -2 -9 8.43 6.47
-2 -2 9 3.9 8.76
2 -2 -8 187.94 20.5
-2 -2 8 183.27 23.76
2 -2 -8 196.18 18.84
-2 -2 7 437.66 33.54
2 -2 -7 425.7 27.72
2 -2 -7 410.79 25.43
2 -2 -7 365.99 14.67
2 -2 -6 68.92 11.08
-2 -2 6 73.46 13.42
2 -2 -6 67.26 10.28
2 -2 -6 101.13 16.65
2 -2 -6 65.73 6.76
-2 -2 5 532.85 32.6
2 -2 -5 548.9 31.64
2 -2 -5 596.41 27.31
2 -2 -5 541.43 27.57
2 -2 -5 534.4 20.22
2 -2 -4 433.52 22.46
2 -2 -4 467.3 27.76
2 -2 -4 449.85 24.33
-2 -2 4 462.77 28.99
2 -2 -4 443.45 19.34
2 -2 -3 312.23 22.15
2 -2 -3 308.63 17.61
-2 -2 3 327.42 23.37
2 -2 -3 298.03 20.78
2 -2 -2 771.51 27.58
-2 -2 2 804.19 27.77
-2 -2 2 803.87 35.42
2 -2 -2 851.62 30.25
2 -2 -2 795.98 34.34
2 -2 -1 1356.8 28.28
-2 -2 1 1524.71 47.87
2 -2 -1 1609.88 44.63
2 -2 -1 1453.73 38.87
-2 -2 1 1429.84 45
2 -2 -1 1477.99 44.27
-2 -2 0 108.01 13.19
2 -2 0 106.18 9.7
-2 -2 0 114.44 12.55
2 -2 0 102.8 11.34
2 -2 0 104.69 11.8
-2 -2 -1 104.81 9.33
-2 -2 -1 88.72 11.06
2 -2 1 93.02 11.88
2 -2 1 98.99 10.81
-2 -2 -1 95.52 11.71
2 -2 1 89.56 10.79
2 -2 2 2168.05 51.29
-2 -2 -2 2340.77 56.53
-2 -2 -2 2411.94 58.71
2 -2 2 2149.4 59.44
-2 -2 -2 2248.19 39.91
-2 -2 -3 367.85 14.03
-2 -2 -3 398.81 24.24
-2 -2 -3 388.54 24.7
2 -2 3 400.01 27.72
-2 -2 -3 394.28 24.58
2 -2 3 352.96 20.85
-2 -2 -4 330.32 25.48
2 -2 4 268.47 17.92
-2 -2 -4 287.36 19.91
-2 -2 -4 329.77 23.81
-2 -2 -4 232.52 9.44
2 -2 4 260.25 24.81
-2 -2 -5 409.93 28.41
2 -2 5 372.47 21.1
2 -2 5 363.46 31.87
2 -2 5 327.76 21.07
-2 -2 -6 304.14 25.78
2 -2 6 259.78 17.28
2 -2 6 290.3 29.96
2 -2 6 250.08 19.53
2 -2 7 47.08 12.94
2 -2 7 40.08 8.71
-2 -2 -7 70.53 14.85
2 -2 8 75.68 19.78
2 -2 8 50.09 10.39
-2 -2 -8 86.89 17.95
2 -2 9 20.72 11.08
-2 -2 -9 35.83 13.85
-2 -2 -10 3.83 10.68
2 -2 10 -5.19 15.29
-2 -2 -11 13.85 14.42
2 -2 11 7.32 13.53
2 -2 12 -6.69 16.11
-2 -1 14 5.58 11.95
2 -1 -13 39.8 15
-2 -1 13 65.8 19.64
-2 -1 12 15 10.35
2 -1 -12 27.1 12.7
-2 -1 11 3.88 6.14
2 -1 -11 15.91 11.03
-2 -1 10 43.99 7.74
2 -1 -10 24.72 8.99
-2 -1 10 47.2 10.96
2 -1 -10 40.91 13.58
-2 -1 10 31.5 11.36
-2 -1 9 304.56 17.25
-2 -1 9 296.68 23.83
2 -1 -9 263.73 23.58
2 -1 -9 275.99 27.18
-2 -1 9 269.26 28.02
-2 -1 8 163.73 19.95
-2 -1 8 187.55 17.84
-2 -1 8 181.31 12.44
2 -1 -8 171.98 20.41
2 -1 -8 172.99 18
-2 -1 7 10.96 5
2 -1 -7 21.65 7.69
2 -1 -7 21.12 8.14
-2 -1 7 7.92 3.09
-2 -1 6 1841.04 55.79
2 -1 -6 1740.74 48.83
-2 -1 5 1239.16 38.75
-2 -1 5 1370.9 44.82
2 -1 -5 1284.7 38.33
2 -1 -5 1260.04 29.12
2 -1 -5 1287.24 40.28
2 -1 -4 245.63 18.04
2 -1 -4 212.25 15.6
2 -1 -4 226.52 14.37
-2 -1 4 220.78 14.37
-2 -1 4 182.55 7.36
-2 -1 4 229.17 18.57
-2 -1 4 234.74 16.91
2 -1 -4 207.53 11.75
-2 -1 3 4469.11 66.61
2 -1 -3 4423.99 54.78
2 -1 -3 4368.14 62.78
-2 -1 3 4113.77 35.73
-2 -1 3 4461.16 64.94
-2 -1 3 4547.31 75.6
-2 -1 3 4249.2 51.18
2 -1 -3 4382.61 65.79
2 -1 -3 4277.38 49.72
-2 -1 2 1011.73 30.2
-2 -1 2 995.31 20.1
2 -1 -2 956.96 20.58
2 -1 -2 991.9 30.76
2 -1 -2 1011.46 26.75
2 -1 -2 981.34 28.35
2 -1 -2 1087.26 31.75
-2 -1 2 1026.56 27.72
-2 -1 2 943.61 17.25
-2 -1 2 994.05 29.21
-2 -1 1 14.75 3.13
2 -1 -1 11.96 2.31
-2 -1 1 14.78 4.46
2 -1 -1 16.1 4.38
-2 -1 1 17.04 3.4
2 -1 -1 16.78 3.8
2 -1 -1 12.88 3.61
-2 -1 1 14.51 4.01
-2 -1 0 2688.67 30.51
-2 -1 0 2848.15 43.62
-2 -1 0 2768.94 40.83
2 -1 0 2728.82 42.3
2 -1 0 2820.96 48.91
2 -1 0 2788.81 43.59
-2 -1 0 2871.61 45.96
2 -1 1 4183.77 58.53
-2 -1 -1 4295.86 49.17
-2 -1 -1 4229.07 55.48
-2 -1 -1 4325.24 60.06
-2 -1 -1 4179.57 62.71
-2 -1 -1 4360.45 55.4
2 -1 1 4212.33 62.73
2 -1 1 4110.5 63.19
2 -1 1 3947.94 48.2
-2 -1 -2 199.71 15.1
-2 -1 -2 207.7 10.14
2 -1 2 207.17 13.68
2 -1 2 192.51 16.19
2 -1 2 222.46 14.91
-2 -1 -2 214.65 14.44
-2 -1 -2 198.91 12.41
2 -1 2 180.39 9.75
-2 -1 -3 1229.17 37.83
2 -1 3 1050.38 22.31
-2 -1 -3 1130.26 28.58
-2 -1 -3 1107.86 22.27
2 -1 3 1150.2 34.03
2 -1 3 1105.02 42.9
2 -1 3 1217.34 39.43
2 -1 4 1613.05 43.53
2 -1 4 1589.84 56.41
-2 -1 -4 1523.89 31.68
2 -1 5 610.24 28.19
2 -1 5 563.3 36.86
-2 -1 -5 537.54 18.93
-2 -1 -5 605.02 32.67
2 -1 6 236.91 18.97
-2 -1 -6 229.58 23.01
2 -1 6 268.94 28.75
2 -1 7 56.97 4.62
2 -1 7 99.04 13.56
2 -1 7 125.68 22.59
2 -1 7 45.3 4.31
-2 -1 -7 93.35 17.16
2 -1 8 285.78 33.69
-2 -1 -8 226.24 26.6
2 -1 8 232.41 21.09
-2 -1 -9 -0.87 10.87
2 -1 9 6.61 11.74
2 -1 9 19.83 8.9
-2 -1 -10 59.3 16.51
2 -1 10 78.55 14.8
2 -1 10 97.74 23.14
-2 -1 -11 41.72 16.79
2 -1 11 53.52 21.11
-2 -1 -12 1.71 12.41
2 -1 12 9.98 14.99
-2 0 15 -14.65 14.27
-2 0 14 19.14 15.09
2 0 -14 -26.12 16.75
2 0 -13 -13.69 17.26
-2 0 13 21.76 13.9
-2 0 12 5.95 11.86
2 0 -12 -16.29 15.58
-2 0 11 144.37 23.03
-2 0 11 107.56 17.19
-2 0 11 121.47 16.68
2 0 -11 109.35 21.94
-2 0 10 133.88 18.77
-2 0 10 156.16 17.7
-2 0 10 159.35 16.33
2 0 -10 146.64 22.74
-2 0 10 131.63 20.78
-2 0 9 52.08 9.7
2 0 -9 51.96 16.19
-2 0 9 46.52 12.14
-2 0 9 35.5 8.7
2 0 -9 24.32 8.81
2 0 -8 11.38 5.47
2 0 -8 5.94 6.95
-2 0 8 33.74 10.37
-2 0 8 27.08 7.1
2 0 -8 37.72 13.39
-2 0 7 1206.62 45.65
2 0 -7 1180.1 53
2 0 -7 1098.93 46.33
2 0 -7 1139.24 44.6
-2 0 7 1275.09 38.85
-2 0 6 327.1 18.83
-2 0 6 351.96 22.36
2 0 -6 292.93 21.39
2 0 -6 369.71 28.94
2 0 -6 318.38 22.66
2 0 -5 746.73 30.94
2 0 -5 775.92 31.1
-2 0 5 814.89 29.51
-2 0 5 784.45 27.49
2 0 -5 784.84 32.4
-2 0 5 740.1 31.47
-2 0 5 814.31 32.25
2 0 -5 720.93 35.75
-2 0 4 21.27 4.95
2 0 -4 21.19 7.32
-2 0 4 17.88 5.09
-2 0 4 25.36 4.9
2 0 -4 19.47 4.5
-2 0 4 20.83 5.76
2 0 -4 15.84 4.57
2 0 -4 13.41 5.02
-2 0 4 19.33 4.82
-2 0 3 88.3 8.57
2 0 -3 89.6 9.42
-2 0 3 84.61 7.75
-2 0 3 84.13 9.2
2 0 -3 83.29 8.01
-2 0 3 84.73 6.43
2 0 -3 89.34 8.27
-2 0 3 83.96 8.13
-2 0 3 74.38 8.62
2 0 -3 80.21 9.15
2 0 -2 3385.33 49.46
2 0 -2 3207.36 28.91
2 0 -2 3184.29 42.4
-2 0 2 3265.53 50.94
-2 0 2 3238.93 34.01
2 0 -2 3257.97 42.81
-2 0 2 3233.07 29.7
2 0 -2 3250.17 46.65
-2 0 2 3253.82 47.83
-2 0 2 3111.5 43.09
-2 0 1 160.45 6.78
-2 0 1 157.35 9.33
-2 0 1 160.89 10.39
-2 0 1 155.72 10.24
2 0 -1 160.44 9.8
2 0 -1 154.32 9.65
2 0 -1 162.17 10.25
-2 0 0 46.07 3.88
-2 0 0 48.33 5.73
-2 0 0 44.56 5.47
2 0 0 39.96 3.67
2 0 0 41.85 5.3
2 0 0 46.36 5.63
2 0 0 36.25 4.63
-2 0 -1 881.06 24.8
2 0 1 909.04 25.91
-2 0 -1 858.51 22.83
2 0 1 877.35 23.55
-2 0 -1 876.54 23.12
2 0 1 835.12 23.4
2 0 1 880.72 22.17
-2 0 -1 952.97 23.9
2 0 2 5084.88 68.04
-2 0 -2 5004.03 58.54
-2 0 -2 5383.52 65.9
2 0 2 5326.09 68.09
-2 0 -2 5153.57 65.16
-2 0 -2 5667.35 62.02
-2 0 -2 5567.29 71.74
2 0 2 5290.08 60.5
2 0 2 5445.56 67.96
2 0 3 599.98 26.96
-2 0 -3 593.41 24.52
2 0 3 588.06 24.66
2 0 3 601.83 21.57
2 0 3 585.3 25.96
-2 0 -3 637.17 28.79
-2 0 -3 608.09 25.1
-2 0 -3 614.77 25.89
-2 0 -4 329.54 21.6
2 0 4 323.59 20.26
2 0 4 319.78 16.88
-2 0 -4 329.14 21.93
-2 0 -4 325.59 23.49
-2 0 -5 700.9 36.98
-2 0 -5 680.17 33.6
2 0 5 651.39 30.26
2 0 5 629.63 25.17
-2 0 -5 656.23 33.7
-2 0 -6 430.93 32.65
2 0 6 419.8 26.07
-2 0 -6 451.58 30.48
-2 0 -6 422.43 29.26
2 0 6 412.75 21.65
2 0 7 1.27 3.02
-2 0 -7 9.64 9.17
-2 0 -7 6.57 8.41
2 0 7 -4.21 5.74
-2 0 -8 54.82 15.39
2 0 8 86.02 14.15
-2 0 -8 96.13 17.04
-2 0 -9 67.75 16.59
2 0 9 73.02 13.76
-2 0 -9 80.37 18.06
-2 0 -10 -12.49 13.82
2 0 10 1.26 6.06
-2 0 -10 8.69 9.98
-2 0 -11 -22.23 15.37
-2 0 -11 -25.98 17.44
2 0 11 -9.5 7.75
2 0 11 3.1 12.05
2 0 12 45.33 21.4
-2 0 -12 -34.91 15.78
-2 1 15 18.36 15.19
2 1 -14 -5.07 13.83
-2 1 14 1.59 10.25
-2 1 13 75.39 21.03
2 1 -13 69.08 22.8
-2 1 12 46.44 12.96
-2 1 12 78.96 20
2 1 -12 59.31 19.27
-2 1 11 -7.91 9.14
-2 1 11 -17.88 10.72
-2 1 10 21.68 7.88
2 1 -10 42.84 16.98
2 1 -9 370.4 35.2
-2 1 9 294.24 26.95
-2 1 9 312.55 18.32
-2 1 8 154 19.06
-2 1 8 163.61 13.31
-2 1 7 19.53 5.61
-2 1 7 24.94 7.76
2 1 -7 5.71 8.87
2 1 -7 27.49 9.15
-2 1 6 1694.2 54.9
2 1 -6 1775.29 58.18
-2 1 6 1697.18 45.91
2 1 -5 1659.99 53.18
-2 1 5 1657.52 39.18
-2 1 5 1510.63 36.13
-2 1 5 1613.71 49.69
2 1 -4 227.03 16.95
2 1 -4 246.43 19.37
-2 1 4 225.92 13.68
-2 1 4 222.94 15.2
-2 1 4 236.5 12.26
-2 1 4 229.64 17.74
2 1 -4 245.16 16.74
-2 1 4 223.75 18.18
-2 1 4 248.21 18.83
2 1 -3 4557.53 65.94
-2 1 3 4680.24 73.65
2 1 -3 4322.82 65.82
2 1 -3 4493.44 74.76
-2 1 3 4431.93 39.03
-2 1 3 4486.19 59.2
-2 1 3 4494.56 70.72
-2 1 3 4479.48 57.46
-2 1 3 4363.01 71.2
2 1 -2 1390.2 33.07
-2 1 2 1463.5 33.88
2 1 -2 1427.13 39.42
2 1 -2 1435.9 23.63
-2 1 2 1408.06 23.26
-2 1 2 1501.59 38.72
2 1 -2 1433.3 35.2
-2 1 2 1383.26 37.59
2 1 -1 10 3.63
-2 1 1 14.88 2.55
2 1 -1 13.81 3.12
-2 1 1 9.65 3.17
2 1 -1 11.82 2.81
-2 1 1 10.92 3.35
2 1 0 2733.91 43.57
2 1 0 2630.86 43.67
-2 1 0 2634.84 44.65
-2 1 0 2520.92 41.51
2 1 0 2652.05 24.72
2 1 0 2704.65 29.76
2 1 0 2629.08 48.59
-2 1 0 2738.23 40.3
2 1 1 4221.85 45.81
2 1 1 4091.29 51.73
-2 1 -1 4103.85 55.19
2 1 1 4119.33 59.91
2 1 1 4095.5 58.63
2 1 2 238.26 11.91
-2 1 -2 245.61 13.86
2 1 2 258.98 16.89
2 1 2 243.58 13.78
2 1 2 240.43 16.5
-2 1 -2 239.14 16.42
2 1 2 243.49 12.82
2 1 2 266.02 13.42
-2 1 -2 231.33 11.3
2 1 3 985.36 37.65
2 1 3 982.23 18.39
2 1 3 925.61 22.2
-2 1 -3 964.51 35.03
2 1 3 1005.44 36.14
-2 1 -3 949.74 28.4
2 1 3 945.54 25.62
2 1 3 996.7 32.21
2 1 4 1764.21 50.82
2 1 4 1717.66 35.56
-2 1 -4 1719.01 50.83
2 1 4 1643.94 31.28
2 1 5 715.06 35.1
-2 1 -5 685.75 34.35
2 1 5 671.27 23.19
2 1 5 658.09 23.74
-2 1 -6 227.82 21.91
2 1 6 232.76 14.19
2 1 6 222.29 15.88
2 1 6 248.96 22.25
2 1 7 112.49 10.45
-2 1 -7 117.07 18.07
-2 1 -7 121.83 17.52
2 1 7 131.94 17.87
2 1 7 77.9 5.47
-2 1 -8 255.74 27.44
2 1 8 263.23 26.02
-2 1 -8 234.27 25.81
-2 1 -9 12.87 11.03
2 1 9 -14.27 9.9
-2 1 -9 -2.98 8.22
2 1 10 83.45 16.58
-2 1 -10 74.42 20.16
-2 1 -11 17.94 14.38
2 1 11 23.55 12.14
2 1 12 8.36 9.37
-2 1 -12 0.73 12.25
-2 1 -13 0.01 11.79
-2 2 13 13.41 11.19
2 2 -13 27.66 17.29
-2 2 12 7.47 8.34
2 2 -12 27.23 16.98
2 2 -11 97.14 21.89
-2 2 11 108.5 19.28
-2 2 11 136.57 22.28
2 2 -10 73.79 19.6
-2 2 10 62.4 14.73
2 2 -9 19.21 11.8
-2 2 9 9.69 8.51
2 2 -8 180.99 24.66
-2 2 8 205.6 23.86
2 2 -7 364.77 25.47
2 2 -7 422.36 33.76
-2 2 7 405.47 31.41
-2 2 6 78.62 14.01
2 2 -6 54.62 12.16
2 2 -6 77.93 11.68
2 2 -5 487.46 23.53
2 2 -5 520.18 34.12
-2 2 5 530.47 32.11
-2 2 4 321.74 19.9
2 2 -4 368.92 27.46
-2 2 4 372.9 26.09
2 2 -4 356.17 17.9
2 2 -3 363.98 15.63
2 2 -3 325.19 10.9
-2 2 3 352.53 19.46
-2 2 3 366.64 24.31
2 2 -3 362.67 25.42
2 2 -2 739.67 20.01
2 2 -2 720.54 20.43
2 2 -2 716.92 33.39
-2 2 2 684.9 15.58
-2 2 2 687.27 26.33
-2 2 2 756.9 33.43
2 2 -1 1536.15 35.09
-2 2 1 1529.03 28.72
-2 2 1 1544.89 39.29
-2 2 1 1583.5 46.66
2 2 -1 1490.83 46.71
2 2 0 38.89 6.95
-2 2 0 35.38 7.21
-2 2 0 47.86 7.48
-2 2 0 35.99 6.09
-2 2 -1 100.27 11.3
2 2 1 116.23 11.88
-2 2 -1 99.08 11.19
2 2 1 106.39 12.03
-2 2 -2 2144 50.44
2 2 2 2314.27 54.75
2 2 2 2328.33 58.59
-2 2 -2 2188.19 45.36
2 2 3 413.72 23.81
-2 2 -3 420.23 26.48
-2 2 -3 394.07 18.84
2 2 3 436.24 27.43
-2 2 -3 383.04 20.79
2 2 4 333.93 22.09
2 2 4 360.84 27.01
-2 2 -4 311.41 24.05
-2 2 -4 305.23 17.22
-2 2 -5 327.17 18.32
2 2 5 426.33 30.52
2 2 5 413.53 25.21
-2 2 -5 418.88 29.46
2 2 6 348.33 29.86
-2 2 -6 314.91 26.32
2 2 6 350.37 23.5
2 2 7 59.22 10.33
-2 2 -7 70.69 15.44
2 2 7 74.32 15.96
2 2 8 95.53 12.76
2 2 8 116.87 19.36
-2 2 -8 108.6 17.78
-2 2 -9 19.47 11.97
2 2 9 32.39 12.68
-2 2 -9 31.77 14.27
2 2 10 18.57 11.86
-2 2 -10 26.98 13.62
-2 2 -10 8.03 9.42
-2 2 -11 6.47 14.6
-2 2 -11 27.31 13.24
2 2 11 6.58 9.23
2 2 12 6.85 9.27
-2 2 -12 38.31 20.36
2 2 13 -2.3 9.49
-2 3 14 -5.19 11.45
-2 3 13 1.55 11.72
2 3 -12 36.4 18.02
-2 3 12 -5.31 13.82
-2 3 11 0.62 8.54
-2 3 10 21.59 10.98
2 3 -10 50.73 18.32
-2 3 9 122.21 21.26
2 3 -9 135.48 24.57
2 3 -9 119.03 17.69
-2 3 8 19.06 10.04
2 3 -8 15.01 7.66
2 3 -8 19.61 11.73
2 3 -7 3.15 5.84
2 3 -7 -3.64 7.2
-2 3 7 -11.07 9.74
-2 3 6 196.62 23.8
2 3 -6 188.5 17.56
2 3 -6 188.42 24.35
2 3 -5 224.67 25.75
2 3 -5 211.8 17.2
-2 3 5 190.02 22.09
2 3 -4 26.96 6.64
-2 3 4 14.21 6.89
2 3 -4 16.29 2.93
2 3 -4 20.27 8.99
2 3 -3 666.14 26.69
-2 3 3 631.63 22.06
2 3 -3 637.96 21.54
2 3 -3 664.68 38.93
-2 3 3 683.5 39.57
2 3 -2 409.19 20.39
2 3 -2 432.18 30.41
-2 3 2 430.39 18.94
-2 3 2 448.84 31.56
-2 3 1 73.07 12.42
2 3 -1 88.56 10.41
-2 3 1 76.74 8.89
2 3 0 729.38 32.67
-2 3 0 703.72 36.86
-2 3 0 668.2 28.79
2 3 0 693.21 37.1
-2 3 -1 782.26 38.55
2 3 1 888.73 41.87
2 3 1 892.65 38.81
-2 3 -1 773.17 34.01
2 3 2 198.91 20.05
2 3 2 209.2 20.18
-2 3 -2 199.29 19.04
-2 3 -2 174.49 18.1
2 3 3 454.79 31.96
-2 3 -3 422.19 29.75
-2 3 -3 393.74 26.47
2 3 3 413.26 29.38
-2 3 -4 639.78 26.39
2 3 4 765.43 43.53
-2 3 -4 732.4 40.58
2 3 4 761.88 39.73
2 3 5 132.29 17.89
2 3 5 122.43 18.83
-2 3 -5 123.77 18.36
-2 3 -5 106.78 10.99
2 3 6 278.16 29.82
-2 3 -6 227.84 24.79
2 3 6 246.4 24.23
-2 3 -7 105.66 18.58
2 3 7 138.89 22.24
2 3 7 111.32 17.12
-2 3 -8 16.9 10.33
2 3 8 33.99 12.77
2 3 8 18.74 8.6
-2 3 -9 9.73 9.8
2 3 9 6.74 10.78
-2 3 -10 29.71 13.98
2 3 10 43.6 17.5
-2 3 -11 9.95 10.31
-2 3 -11 13.96 15.39
2 3 11 39.22 17.72
2 3 12 2.2 10.77
-2 4 12 -6.48 13.72
-2 4 11 -1.72 9.76
2 4 -10 13.44 9.15
-2 4 10 9.2 8.86
2 4 -9 -0.39 6.11
2 4 -9 6.33 12.38
-2 4 9 5.43 8.16
2 4 -8 0.37 9.35
2 4 -8 7.24 7.63
-2 4 8 0.96 8.6
2 4 -7 127.12 16.78
-2 4 7 150.13 24.42
2 4 -7 131.99 23.42
-2 4 6 62.24 17.43
2 4 -6 34.64 9.15
2 4 -6 36.38 12.52
2 4 -5 7.34 2.41
2 4 -5 22.44 7.69
2 4 -5 21.52 12.07
-2 4 5 18.03 10.13
2 4 -4 165.46 12.19
2 4 -4 181.52 17.54
2 4 -4 191.74 24.47
-2 4 4 175.77 14.74
-2 4 4 193.94 24.6
-2 4 3 61.52 13.73
2 4 -3 59.61 8.63
2 4 -3 54.21 9.46
-2 4 3 56.8 8.8
2 4 -3 40.63 11.93
2 4 -2 294.62 20.74
2 4 -2 302.91 28.94
-2 4 2 303.78 20.19
-2 4 2 335.55 30.9
-2 4 1 112.69 18.26
2 4 -1 119.37 14.15
-2 4 1 108.7 13.29
2 4 -1 109.4 17.6
-2 4 0 74.65 14.54
-2 4 0 72.94 11.57
2 4 0 57.38 10.94
2 4 0 76.31 14.81
-2 4 -1 120.6 18.22
2 4 1 115.6 16.17
-2 4 -1 121.9 15.53
2 4 1 120.84 19.48
-2 4 -2 129.79 18.43
2 4 2 128.28 17.84
-2 4 -2 115.1 16.24
2 4 2 173.3 22.16
-2 4 -3 191.67 22.71
2 4 3 181.17 22.59
2 4 3 177.1 22.3
-2 4 -3 179.18 21.79
2 4 4 157.34 23.23
-2 4 -4 145.54 19.52
2 4 4 153.75 20.84
2 4 5 76.67 16.04
-2 4 -5 75.55 16.14
2 4 5 79.84 16.72
-2 4 -6 169.14 23.86
2 4 6 177.19 26.05
2 4 6 178.45 23.55
2 4 7 5.03 6.55
-2 4 -7 16.66 9.61
2 4 7 -1.26 9.46
-2 4 -8 3.37 8.83
2 4 8 35.25 14.75
2 4 8 13.81 9.41
-2 4 -9 14.98 11.91
2 4 9 29.01 13.72
2 4 10 4.32 12.64
-2 4 -10 6.88 10.42
-2 5 11 -18.41 14.09
2 5 -10 12.76 10.28
-2 5 10 -6.14 11.12
2 5 -10 22.37 16.17
-2 5 9 -14.5 13.5
2 5 -9 13.19 9.32
2 5 -9 18.76 15.78
-2 5 8 -5.91 10.9
2 5 -8 11.37 10.34
2 5 -8 7.17 8.32
2 5 -7 -1.86 6.78
-2 5 7 5.91 11.93
2 5 -7 -1.12 9.13
-2 5 6 69.58 18.33
2 5 -6 61.46 12.59
2 5 -6 23.77 11.9
-2 5 5 18.11 12.17
2 5 -5 27.34 9.41
2 5 -5 47.5 16.02
-2 5 4 22.52 11.19
2 5 -4 34.16 9.17
2 5 -4 36.57 13.87
-2 5 3 60.34 15.92
2 5 -3 60.8 10.56
2 5 -3 47.13 9.79
2 5 -3 64.23 16.09
-2 5 3 57.26 10.66
2 5 -2 14.03 6.65
2 5 -2 16.19 9.44
-2 5 2 22.44 6.7
-2 5 2 20.71 10.78
-2 5 1 20.31 10.54
2 5 -1 6.59 8.25
2 5 -1 7.29 6.09
-2 5 1 5.77 5.31
-2 5 0 81.13 18.1
2 5 0 76.95 14.77
2 5 0 92.66 17.5
-2 5 0 77.12 13.86
-2 5 -1 145.97 22.34
-2 5 -1 155 20.1
2 5 1 154.47 21.19
2 5 1 172.16 25.11
2 5 1 138.73 21.47
2 5 2 26.95 11.81
-2 5 -2 23.1 10.12
2 5 2 16.54 8.09
-2 5 -2 28.66 10.92
-2 5 -3 138.1 22.2
2 5 3 124.93 21.86
2 5 3 115.31 20.79
-2 5 -3 125.84 20.67
2 5 4 83.63 19.17
2 5 4 79.61 18.54
-2 5 -4 82.54 18.03
-2 5 -4 68.03 15.91
2 5 5 18.92 12.1
2 5 5 16.45 14.37
-2 5 -5 21.74 10.66
2 5 6 42.08 15.13
-2 5 -6 44.59 14.89
2 5 6 32.03 14.62
-2 5 -7 16.77 13.73
2 5 7 2.41 10.37
2 5 7 5.73 9.82
2 5 8 8.49 10.87
-2 5 -8 2.35 10.79
2 5 8 23.05 16.53
-2 5 -9 1.18 9.92
-2 6 9 16.48 16.7
-2 6 8 12.73 14.62
2 6 -8 4.11 12.34
2 6 -7 10.95 14.12
-2 6 7 8.95 10.56
2 6 -6 -11.58 11.88
-2 6 6 10.45 13.37
2 6 -5 8.55 10.11
-2 6 5 20.93 12.63
-2 6 4 20.72 14.47
2 6 -4 16.68 12.78
-2 6 3 2.4 10.88
2 6 -3 8.77 10.63
-2 6 2 4.34 10.67
2 6 -2 -8.58 9.97
-2 6 1 20.79 12.46
2 6 -1 21.2 11.42
2 6 -1 8.35 7.23
2 6 0 10.59 9.26
2 6 0 -3.71 8.46
-2 6 0 18.7 11.58
-2 6 -1 -14.9 10.26
2 6 1 -10.31 11.61
2 6 1 -14.56 11.88
-2 6 -1 14.62 8.22
2 6 2 29.06 14.42
-2 6 -2 23.6 10.89
-2 6 -2 34.79 14.29
2 6 2 26.83 12.5
2 6 2 12.37 8.42
2 6 3 10.48 10.45
2 6 3 12.2 9.98
-2 6 -3 12.71 11.86
-2 6 -4 16.06 12.47
2 6 4 -5.11 11.26
-2 6 -4 -13.6 13.41
2 6 4 10.07 10.22
2 6 5 35.86 16.05
2 6 5 37.34 16.97
-2 6 -5 17.04 11.43
2 6 6 15.56 12.05
2 6 6 14.63 13.34
-2 6 -6 13.24 12.36
-2 6 -7 38.22 16.59
2 6 7 0.84 9.9
2 7 -5 -25.9 15.25
2 7 -4 -18.09 13.19
-2 7 3 7.69 12.2
2 7 -3 -5.26 9.81
2 7 -2 9.72 11.35
-2 7 2 8.75 11.37
-2 7 1 6.67 9.49
2 7 -1 11.96 11.84
2 7 0 1.81 9.9
-2 7 0 18.08 13.89
-2 7 -1 10.31 13.44
2 7 1 -21.03 12.46
2 7 2 -6.05 10.74
2 7 3 -22.13 14
-2 7 -3 -26.63 13.73
-2 7 -4 -1.09 10.79
-2 7 -5 1.03 10.66
3 -7 -6 -17.48 14.8
3 -7 -5 -61.81 20.44
3 -7 -3 17.31 14.89
3 -7 -3 22.84 17.3
3 -7 -2 -9.08 13.84
-3 -7 2 -4.05 11.61
3 -7 -2 -18.87 14.22
3 -7 -2 12.62 13.29
3 -7 -1 -7.91 12.71
3 -7 -1 18.29 15.34
-3 -7 0 -3.48 11.22
3 -7 0 -25.93 15.06
-3 -7 -1 9.99 13.81
3 -7 1 -11.95 13.2
-3 -7 -2 4.39 13.21
3 -7 2 -0.22 12.13
3 -7 3 5.58 17.23
3 -6 -9 26.3 16.09
3 -6 -8 3.82 13.01
3 -6 -8 8.38 13.85
-3 -6 8 5.67 14.5
-3 -6 7 -7.08 13.24
3 -6 -7 -1.53 11.18
3 -6 -7 -6.89 12.07
3 -6 -6 -2.59 12.13
3 -6 -6 -26.21 20.11
-3 -6 6 12.29 15.33
-3 -6 5 12.99 11.98
3 -6 -5 -2.87 10.2
3 -6 -5 2.95 11.01
3 -6 -4 13.49 13.68
3 -6 -4 18.39 14.2
-3 -6 4 17.8 10.87
3 -6 -3 23.34 14.02
3 -6 -3 7.09 11.31
-3 -6 3 14.23 11.96
3 -6 -2 7.17 9.88
-3 -6 2 9.43 10.73
3 -6 -2 -7.34 12.68
-3 -6 1 14.43 12.56
3 -6 -1 10.97 8.92
-3 -6 0 -16.09 13.65
3 -6 0 1.7 9.98
-3 -6 -1 1.88 9.4
3 -6 1 8.86 11.22
3 -6 2 20.73 11.15
-3 -6 -2 0.76 9.68
3 -6 3 7.57 10.85
-3 -6 -3 -26.43 14.42
3 -6 4 14.39 13.51
-3 -6 -4 -5.74 13.75
-3 -6 -4 13.71 9.74
-3 -6 -5 18.77 13.91
-3 -6 -5 0.16 12.46
3 -6 5 10.33 14.68
3 -6 6 2.99 15.82
-3 -6 -6 19.9 15.8
3 -5 -11 7.69 14.87
-3 -5 10 3.22 11.22
3 -5 -10 1.15 10.81
3 -5 -9 56.55 21.45
-3 -5 9 24.03 15.33
3 -5 -9 7.27 12.58
3 -5 -8 27.64 13.31
3 -5 -8 4.25 12.12
-3 -5 8 0.8 10.12
3 -5 -7 33.85 12.22
3 -5 -7 14.31 10.34
-3 -5 7 12.45 12.86
3 -5 -7 15.11 12.34
-3 -5 6 26.87 13.1
3 -5 -6 -0.46 13.02
3 -5 -6 20.95 10.65
3 -5 -6 11.24 8.36
3 -5 -5 40.46 13.15
3 -5 -5 1.27 10.98
-3 -5 5 43.7 16.38
3 -5 -5 54.89 16.93
-3 -5 4 32.71 13.89
3 -5 -4 38.74 15.26
3 -5 -4 31.88 14.05
3 -5 -3 12.27 10.67
3 -5 -3 10.26 9.97
3 -5 -3 23.74 10.9
-3 -5 3 24.49 12.9
3 -5 -2 82.23 15.67
3 -5 -2 88.38 20.2
-3 -5 2 93.97 20.22
-3 -5 1 173.39 26.61
3 -5 -1 129.62 20.71
3 -5 0 59.83 14.11
3 -5 1 17.93 9.96
-3 -5 -1 -2.75 9.61
-3 -5 -2 104.96 20.85
3 -5 2 118.64 22.41
-3 -5 -2 118.98 16.31
-3 -5 -3 11.55 6.81
3 -5 3 14.87 11.1
-3 -5 -3 -9.36 13.35
3 -5 4 4.41 9.85
-3 -5 -4 10.89 10.1
3 -5 5 -9.42 10.8
-3 -5 -5 5.39 9.94
-3 -5 -5 18.55 11.52
3 -5 6 6.76 12.94
-3 -5 -6 34.3 15.5
-3 -5 -6 30.03 14.7
3 -5 7 10.95 11.21
-3 -5 -7 52.2 19.42
-3 -5 -8 12.63 13.34
3 -5 8 2.3 12.34
-3 -4 13 -28.04 16.57
3 -4 -12 3.22 13.15
-3 -4 12 -0.73 12.49
-3 -4 12 -8.19 12.28
-3 -4 11 -1.2 9.82
3 -4 -11 17.78 13.56
-3 -4 10 27.48 17.17
3 -4 -10 29.38 13.11
3 -4 -9 16.77 8.6
3 -4 -9 17.58 10.38
-3 -4 9 18.16 12.53
3 -4 -8 3.01 6.89
3 -4 -8 11.38 9.65
-3 -4 8 16.37 10.78
3 -4 -8 19.76 13.02
3 -4 -7 80.74 18.1
3 -4 -7 83.82 15.34
3 -4 -7 96.23 16.13
-3 -4 7 67.94 18.34
3 -4 -6 377.28 30.15
3 -4 -6 353.15 33.72
-3 -4 6 294.8 33.94
3 -4 -6 348.23 29.97
-3 -4 5 29.74 12.34
3 -4 -5 12.41 7.91
3 -4 -5 2.02 8.73
3 -4 -5 7.8 8.5
3 -4 -4 105.8 18.57
-3 -4 4 127.07 22.18
3 -4 -4 109.01 19.83
3 -4 -3 494.92 38.82
3 -4 -3 455.59 39.57
3 -4 -3 460.52 31.94
-3 -4 3 445.49 37.17
3 -4 -2 80.62 14.27
3 -4 -2 82.24 16.93
-3 -4 2 82.92 16.63
-3 -4 1 12.18 8.75
3 -4 -1 18.13 8.32
-3 -4 0 337.95 32.39
3 -4 0 299.32 28.17
-3 -4 -1 339.1 30.99
3 -4 1 295.55 28.59
-3 -4 -1 289.79 16.49
3 -4 2 16.46 9.75
-3 -4 -2 12.61 7.68
-3 -4 -2 10.73 6.22
-3 -4 -3 370.85 23.41
-3 -4 -3 348.35 31.43
3 -4 3 363.56 35.53
-3 -4 -4 114.31 12.16
3 -4 4 99.63 20.36
-3 -4 -4 84.88 16.54
-3 -4 -4 110.9 18.8
-3 -4 -5 -2.99 9.55
-3 -4 -5 12.51 11.45
3 -4 5 13.7 10.44
-3 -4 -6 104.59 19.57
-3 -4 -6 95.04 21.05
3 -4 6 89.32 21.37
-3 -4 -7 52.86 16.41
3 -4 7 23.21 15.19
-3 -4 -8 -0.73 10.04
3 -4 8 8.98 11.16
-3 -4 -9 18.96 12.46
3 -4 9 -6.72 12.79
3 -3 -13 9.32 12.04
-3 -3 13 -25.02 14.76
-3 -3 13 -31.48 14.86
3 -3 -12 15.28 12.61
-3 -3 12 -6.8 11.86
-3 -3 12 1.84 9.57
3 -3 -11 24.04 10.1
-3 -3 11 -7.45 12.21
-3 -3 11 11.43 10.66
3 -3 -11 -8.72 10.41
-3 -3 10 6.95 8.32
3 -3 -10 17.83 11.53
3 -3 -10 24.2 9.89
3 -3 -9 32.99 11.69
3 -3 -9 22.42 9.14
-3 -3 9 32.35 13.02
3 -3 -8 79.81 13.98
-3 -3 8 64.63 15.98
3 -3 -8 58.11 13.06
3 -3 -7 29.11 12.3
-3 -3 7 11.6 8.89
3 -3 -7 21.65 8.46
3 -3 -7 19.97 8.07
3 -3 -6 89.91 13.12
-3 -3 6 69.23 15.11
3 -3 -6 83.14 14.82
3 -3 -6 58.37 12.85
3 -3 -5 307.23 22.17
3 -3 -5 273.62 25.56
-3 -3 5 274.63 27.77
3 -3 -5 293.35 24.73
3 -3 -4 133.24 18.67
-3 -3 4 135.28 19.03
3 -3 -4 131.88 17.11
3 -3 -3 61.49 13.17
3 -3 -3 57.08 10.34
-3 -3 3 58.08 13.38
3 -3 -3 54.01 12.18
-3 -3 2 301.74 26.9
3 -3 -2 294.72 27.53
3 -3 -2 277.95 21.61
-3 -3 1 648.09 25.85
3 -3 -1 647.15 25.21
3 -3 -1 648.29 33.27
-3 -3 1 734.78 40.52
3 -3 0 11.06 6.32
-3 -3 0 18.78 5.96
-3 -3 0 17.06 4.11
3 -3 0 14.55 5.46
-3 -3 -1 261.43 22.81
-3 -3 -1 252.28 18.65
-3 -3 -1 218.41 11.14
3 -3 1 226.44 21.71
-3 -3 -2 531.61 32.75
-3 -3 -2 568.99 26.14
-3 -3 -2 460.64 11.36
3 -3 2 489.16 34.24
-3 -3 -2 426.54 12.83
-3 -3 -3 85.04 9.59
-3 -3 -3 85.68 13.98
3 -3 3 77.62 14.58
-3 -3 -3 79.05 14.06
3 -3 4 133.21 20.7
-3 -3 -4 153.68 19.38
-3 -3 -4 134.89 18.65
-3 -3 -4 130.44 10.49
-3 -3 -5 40.18 5.14
-3 -3 -5 70.34 14.72
3 -3 5 64.7 15.82
-3 -3 -6 15.21 10.85
3 -3 6 -0.19 8.64
3 -3 7 41.11 16.66
-3 -3 -7 60.04 15.31
-3 -3 -8 74.95 17.09
3 -3 8 70.06 20.09
-3 -3 -9 16.53 14.09
3 -3 9 -1.72 14.36
-3 -3 -10 14.85 13.86
3 -3 10 31.37 20.32
3 -2 -14 1.32 10.83
-3 -2 14 8.34 12.31
3 -2 -13 17.81 13.03
-3 -2 13 27.74 16.18
3 -2 -12 21.25 12.62
3 -2 -12 19.68 9.48
-3 -2 12 22.33 10.09
-3 -2 12 18.12 11.82
-3 -2 11 -0.59 7.99
-3 -2 11 10.5 7.53
3 -2 -11 -1.73 6.02
3 -2 -11 4.12 9.21
-3 -2 10 40.81 13.11
3 -2 -10 37.69 11.31
-3 -2 10 16.28 7.97
3 -2 -10 32.06 11.5
-3 -2 9 181.07 23.9
-3 -2 9 214.62 23.36
3 -2 -9 190.48 21.78
3 -2 -9 208.41 21.61
3 -2 -8 108.79 15.98
3 -2 -8 108.88 15.11
-3 -2 8 111.48 17.8
3 -2 -7 283.05 21.93
3 -2 -7 293.08 23.81
-3 -2 7 296 27.21
3 -2 -7 261.45 15.89
3 -2 -6 884.22 29.39
3 -2 -6 1032.52 45.2
3 -2 -6 931.78 35.41
3 -2 -6 959.76 41.6
-3 -2 6 932.08 44.99
-3 -2 5 264.85 17.9
3 -2 -5 289.42 22.36
3 -2 -5 283.66 17.49
-3 -2 5 287.43 24.07
3 -2 -5 310.59 18.8
3 -2 -5 278.3 22.33
3 -2 -4 1235.76 34.41
3 -2 -4 1264.34 45.25
-3 -2 4 1200.88 47.22
3 -2 -4 1244.3 45.18
3 -2 -4 1216.04 36.87
-3 -2 3 697.43 22.74
-3 -2 3 808.73 37.4
3 -2 -3 775.67 35.92
3 -2 -3 740.43 30.24
3 -2 -3 788.88 36.48
-3 -2 2 1264.33 40.93
-3 -2 2 1209.8 33.82
-3 -2 2 1297.41 46.52
3 -2 -2 1259.99 34.03
3 -2 -2 1315.02 47.97
-3 -2 2 1194.13 34.58
-3 -2 1 502.21 24.06
3 -2 -1 478.27 17.72
-3 -2 1 523.42 28.79
3 -2 -1 482.2 22.26
-3 -2 1 506.48 25.15
-3 -2 1 503.79 19.73
3 -2 0 949.73 31.12
3 -2 0 941.98 33.77
-3 -2 0 1007.76 33.56
-3 -2 0 964.28 34.88
-3 -2 0 973.37 23.09
3 -2 0 1026.29 36.45
-3 -2 -1 1630.08 40.34
3 -2 1 1579.14 45.82
-3 -2 -1 1658.34 45.57
3 -2 1 1678.78 49.53
3 -2 1 1615.55 44.39
-3 -2 -2 64.71 10.42
3 -2 2 55.29 10.91
3 -2 2 57.01 8.49
-3 -2 -2 68.4 10.15
-3 -2 -2 48.85 8.84
-3 -2 -2 59.11 7.52
-3 -2 -3 1191.82 43.92
-3 -2 -3 1269.08 45.2
-3 -2 -3 1198.33 42.81
3 -2 3 1047.46 49.14
3 -2 3 1079.84 34.26
-3 -2 -3 1130.96 29.3
3 -2 4 380.82 31.39
-3 -2 -4 463.64 29.2
3 -2 4 385.52 20.05
-3 -2 -4 408.91 24.57
3 -2 4 377.97 25.05
-3 -2 -4 373.54 15.38
-3 -2 -5 70.66 13.5
3 -2 5 62.78 11.04
-3 -2 -5 69.71 9.81
3 -2 5 75.48 16.02
3 -2 5 71.51 8.47
3 -2 6 177.16 18.71
3 -2 6 195.29 26.04
-3 -2 -6 209.15 22.54
-3 -2 -7 201.41 24.51
3 -2 7 190.09 26.76
3 -2 7 180.46 19.5
3 -2 8 7.32 5.7
3 -2 8 12.4 9.69
-3 -2 -8 13.53 10.46
-3 -2 -9 65.23 17.99
3 -2 9 58.3 19.02
-3 -2 -10 67.34 18.45
3 -2 10 35.62 16.1
-3 -2 -11 30.13 16.92
3 -2 11 8.98 12.19
-3 -1 15 25.62 18.87
-3 -1 14 23.43 14.12
3 -1 -13 -12.85 12.9
-3 -1 13 -7.19 10.12
-3 -1 12 12.05 8.94
3 -1 -12 6.93 10.38
3 -1 -11 54.33 14.78
-3 -1 11 86.4 15.43
3 -1 -11 59.35 13.67
-3 -1 11 69.01 15.58
-3 -1 10 12.89 7.66
3 -1 -10 22.33 11.06
-3 -1 10 -0.92 7.79
3 -1 -10 13.87 8.37
-3 -1 9 482.88 34.98
3 -1 -9 441.6 33.35
-3 -1 9 544 33.19
3 -1 -9 441.21 31.91
-3 -1 9 483.92 22.15
-3 -1 8 348.88 27.99
-3 -1 8 387.08 26.52
3 -1 -8 311.59 25.51
3 -1 -8 355.82 26.75
-3 -1 7 41.71 9.11
3 -1 -7 54.25 11.03
-3 -1 7 53.1 11.15
3 -1 -7 36.08 6.27
3 -1 -7 27.03 7.55
-3 -1 6 1160.18 42
3 -1 -6 1049.37 32.37
-3 -1 6 1070.81 41.14
3 -1 -6 1043.82 37.85
3 -1 -6 1058.15 41.19
-3 -1 5 500.82 23.3
-3 -1 5 525.33 26.43
-3 -1 5 533.55 27.49
3 -1 -5 515.29 27.31
-3 -1 5 450.66 15.94
3 -1 -5 455.73 21.95
3 -1 -5 495.52 21.98
-3 -1 4 213.5 11.07
-3 -1 4 238.35 17.82
3 -1 -4 214.03 12.64
3 -1 -4 226.98 16.9
-3 -1 4 222.29 13.15
3 -1 -4 226.18 14.77
-3 -1 4 243.05 16.78
3 -1 -4 229.51 17.99
-3 -1 3 84.86 9.83
-3 -1 3 84.91 7.48
3 -1 -3 77.13 5
-3 -1 3 86.73 9.74
3 -1 -3 87.95 8.95
-3 -1 3 73.77 6.11
-3 -1 3 95.7 11.07
3 -1 -3 81.28 10.86
3 -1 -3 81.79 6.13
3 -1 -3 86.59 9.74
3 -1 -2 1374 33.5
-3 -1 2 1353.78 31.23
3 -1 -2 1372.75 41.05
-3 -1 2 1460.91 39.91
-3 -1 2 1445.71 37.47
3 -1 -2 1365.47 36.61
-3 -1 2 1406.59 35.71
-3 -1 1 2755.07 48.42
-3 -1 1 2811.93 45.55
-3 -1 1 2952.67 54.16
3 -1 -1 2899.66 60.71
3 -1 -1 2736 36.93
3 -1 -1 2895.82 54.99
-3 -1 0 13.89 3.06
3 -1 0 12.83 2.69
-3 -1 0 9.35 1.98
-3 -1 0 16.67 4.69
3 -1 0 12.24 4.07
-3 -1 0 12.58 4.45
-3 -1 0 14.5 3.06
3 -1 0 15.72 4.71
3 -1 1 422.18 18.5
3 -1 1 401.43 16.91
-3 -1 -1 390.02 19.89
-3 -1 -1 372.11 15.74
3 -1 1 398.5 21.87
-3 -1 -1 396.2 21.68
-3 -1 -1 396.09 18.5
3 -1 1 363.04 21.44
-3 -1 -1 434.98 18.98
3 -1 1 398.99 22.07
-3 -1 -1 396.16 18.17
-3 -1 -2 2589.67 44.5
-3 -1 -2 2645.07 54.95
3 -1 2 2641.28 57.58
-3 -1 -2 2548.8 45.78
3 -1 2 2588.32 54.12
3 -1 2 2518.38 37.89
3 -1 3 147.32 14.91
-3 -1 -3 135.13 10.17
-3 -1 -3 152.87 14.95
-3 -1 -3 148.08 10.92
-3 -1 -4 187.71 18.33
-3 -1 -4 165.52 11.3
3 -1 4 181.27 17.25
-3 -1 -4 162.08 10.31
-3 -1 -5 237.44 11.46
-3 -1 -5 285.61 24.16
3 -1 5 294.62 22.84
3 -1 5 292.39 29.39
-3 -1 -6 89.79 14.97
3 -1 6 87.25 13.9
3 -1 6 125.86 21.49
-3 -1 -7 42.61 13.09
3 -1 7 40.55 11.03
3 -1 7 65.21 18.47
-3 -1 -8 40.88 14.86
3 -1 8 64.39 14.27
3 -1 8 64.99 19.14
-3 -1 -9 59.45 16.68
3 -1 9 49.97 12.29
-3 -1 -10 10.56 12.26
3 -1 10 0.6 12.52
-3 -1 -11 37.09 16.06
3 -1 11 6.33 14.42
-3 0 15 -21.27 14.39
-3 0 14 -0.08 10.96
3 0 -14 -35.55 18.1
3 0 -13 52.8 17.5
-3 0 13 35.5 14.64
-3 0 12 13.24 10.95
-3 0 12 2.67 7.26
-3 0 11 16.55 10.01
-3 0 11 23.91 12.27
-3 0 11 11.06 7.37
-3 0 11 4.74 5.03
3 0 -11 7.96 11.37
3 0 -10 151.89 20.59
-3 0 10 194.11 19.14
3 0 -10 163.88 25.16
-3 0 10 204.06 22.92
3 0 -9 278.5 26.06
-3 0 9 342.57 24.24
3 0 -9 328.43 31.95
-3 0 9 300.19 26
-3 0 8 3.29 5.61
3 0 -8 -6.24 5.9
-3 0 8 3.09 5.61
3 0 -8 15.1 10.59
-3 0 7 408.9 24.71
-3 0 7 429.58 25.03
3 0 -7 402.3 26.7
3 0 -7 388.58 27.33
3 0 -7 413.31 31.23
-3 0 6 2733.02 60.34
3 0 -6 2566.87 69.85
-3 0 6 2637.06 54.97
3 0 -6 2619.46 61.54
3 0 -6 2647.28 66.02
-3 0 5 8.12 4.81
-3 0 5 4.38 2.58
-3 0 5 18.28 5.63
-3 0 5 6.83 3.51
3 0 -5 7.22 4.41
3 0 -5 10.2 4.7
3 0 -5 12.97 7.26
3 0 -5 7.32 3.35
-3 0 4 758.4 29.65
-3 0 4 723.66 25.13
3 0 -4 706.97 27.68
3 0 -4 694.32 29.25
-3 0 4 747.78 28.38
-3 0 4 751.27 21.32
3 0 -4 759.82 27.82
3 0 -4 750.15 31.04
-3 0 4 786.61 33.57
-3 0 3 4904.02 72.39
3 0 -3 4894.48 69.77
3 0 -3 4839.07 63.86
-3 0 3 4890.24 76.13
3 0 -3 4927.48 73.31
-3 0 3 4779.91 65.38
-3 0 3 4745.71 50.58
-3 0 3 4865.5 44.38
3 0 -3 4791.79 42.6
3 0 -3 4693.93 62.54
3 0 -2 1511.53 37.83
-3 0 2 1458.55 34.64
-3 0 2 1515.77 39.3
3 0 -2 1453.14 26.59
3 0 -2 1560.73 38.43
3 0 -2 1463.44 22.59
-3 0 2 1382.22 28.24
-3 0 2 1367.82 20.78
-3 0 2 1545.4 39.61
3 0 -1 255.92 15.18
3 0 -1 267.56 16.29
-3 0 1 235.6 7.9
3 0 -1 267.54 15.38
-3 0 1 294.81 15.74
-3 0 1 227.75 7.94
-3 0 1 267.05 15.54
-3 0 1 288.82 17.48
-3 0 0 2166.03 44.17
3 0 0 2164.34 45.22
-3 0 0 2157.81 44.19
-3 0 0 2091.18 31.24
3 0 0 2023.95 41.35
3 0 0 2158.19 45.66
3 0 1 1262.64 35.23
-3 0 -1 1211.94 30.79
-3 0 -1 1255.11 31.93
-3 0 -1 1262.03 35.28
3 0 1 1257.8 36.27
3 0 1 1201.7 29.27
-3 0 -1 1209.4 33.1
-3 0 -1 1114.94 20.61
-3 0 -2 294.37 16.84
-3 0 -2 310.78 18
3 0 2 317.49 17.86
3 0 2 320.12 20.06
-3 0 -2 309.68 18.51
3 0 2 287.48 18.01
3 0 2 314.03 17.69
-3 0 -2 295.69 14.68
-3 0 -2 302.21 18.6
-3 0 -3 622.45 30.63
-3 0 -3 602.84 27.96
3 0 3 616.08 29.11
3 0 3 612.46 25.37
-3 0 -3 599.73 24.86
-3 0 -4 504.33 30.18
-3 0 -4 526.82 28.63
-3 0 -4 519.71 26.85
3 0 4 495.07 23.78
3 0 4 521.64 28.3
3 0 5 192.23 18.71
-3 0 -5 184.62 21.48
-3 0 -5 201.29 19.28
3 0 5 161.54 14.36
-3 0 -5 168.83 18.38
-3 0 -6 257.77 25.94
-3 0 -6 244.77 23.41
3 0 6 255.99 22.67
3 0 6 220.73 17.53
-3 0 -6 256.05 22.95
3 0 7 239.33 23.19
-3 0 -7 241.84 24.98
-3 0 -7 267.4 28.26
-3 0 -7 245.92 24.13
-3 0 -8 37.92 13.92
3 0 8 49.48 12.82
-3 0 -8 31.05 9.63
-3 0 -9 25.41 12.46
-3 0 -9 36.47 13.66
3 0 9 44.26 11.94
-3 0 -10 70.21 19.02
3 0 10 95.32 17.89
-3 0 -10 83.23 17.27
-3 0 -11 -0.72 12.41
3 0 11 -3.18 8.3
-3 1 14 9.97 11.72
3 1 -14 15.66 16.19
-3 1 13 16.01 12.41
3 1 -13 8.93 13.05
-3 1 12 20.33 9.42
-3 1 12 32.44 13.65
-3 1 12 1.77 9
3 1 -12 46.43 19.68
-3 1 11 71.43 15.68
3 1 -11 89.51 23.54
-3 1 11 117.49 19.87
-3 1 10 20.37 7.56
-3 1 10 9.73 9.1
3 1 -10 29.03 14.82
-3 1 9 457.18 35.73
-3 1 9 463.65 26.48
3 1 -9 519.94 40.79
3 1 -9 448.45 35.69
-3 1 8 332.71 29.61
3 1 -8 378.67 31.2
-3 1 8 354.08 22.89
3 1 -8 402.35 32.98
-3 1 7 16.91 6.95
-3 1 7 21.64 8.93
3 1 -7 13.73 7.46
3 1 -7 25.88 11.77
3 1 -7 7.73 6.48
-3 1 6 1090.83 46.8
3 1 -6 1082.69 44.61
-3 1 6 1087.18 34.82
3 1 -6 1149.43 47.5
-3 1 6 1002.52 36.32
3 1 -5 610.53 31.76
-3 1 5 549.13 25.53
-3 1 5 587.02 32.89
-3 1 5 603.65 22.3
3 1 -5 647.97 33.33
3 1 -5 644.72 28.46
-3 1 5 596.35 27.55
3 1 -4 136.42 14.28
-3 1 4 134.33 15.59
-3 1 4 132.96 10.66
-3 1 4 121.81 12.57
-3 1 4 140.08 8.87
3 1 -4 132.92 14.66
-3 1 4 132.47 13.63
3 1 -4 150.75 12.85
3 1 -3 94.15 7.88
3 1 -3 112.02 11.91
3 1 -3 108.31 10.32
3 1 -3 116.05 12.99
-3 1 3 84.89 5.28
-3 1 3 98.24 10.19
-3 1 3 114.29 11.8
-3 1 3 105.19 12.58
-3 1 3 108.95 13.04
-3 1 2 1412.88 39.37
3 1 -2 1363.71 39.97
-3 1 2 1390.85 41.3
3 1 -2 1332.2 30.7
3 1 -2 1355.7 36.39
-3 1 2 1375.39 42.36
3 1 -2 1335.82 35.58
3 1 -1 2791.5 55.37
3 1 -1 2762.65 53.16
-3 1 1 2783.36 53.21
3 1 -1 2907.08 49.13
3 1 -1 2638.61 44.44
-3 1 1 2803.54 55.6
-3 1 1 2760.74 52.79
3 1 0 10.01 2.75
-3 1 0 6.87 2.97
-3 1 0 6.95 3.14
3 1 0 12.9 4.39
3 1 0 10.44 3.99
3 1 0 7.78 1.8
-3 1 0 7.62 4.04
3 1 1 450.76 20.37
-3 1 -1 487.17 22.37
3 1 1 472.78 23.08
3 1 1 483.38 17.34
3 1 1 437.3 12.99
3 1 1 443.14 20.9
-3 1 -1 416.06 16.97
3 1 2 2467.48 48.13
3 1 2 2745.97 57.24
-3 1 -2 2677.36 53.52
3 1 2 2684.09 48.61
3 1 2 2805.38 60.09
-3 1 -2 2710.52 60.17
-3 1 -2 2539.91 39.31
3 1 2 2909.93 45.18
3 1 3 90.93 9.31
3 1 3 112.18 11.54
3 1 3 111.88 13.37
-3 1 -3 81.66 6.02
-3 1 -3 116.38 13.93
-3 1 -4 260.5 21.53
3 1 4 243.84 20.8
3 1 4 236.44 11.63
3 1 4 224.2 13.9
3 1 5 272.68 15.16
3 1 5 354.77 16.81
-3 1 -5 329.79 25.85
3 1 5 356.75 26.53
-3 1 -6 78.76 13.96
3 1 6 59.51 12.22
3 1 6 56.27 6.94
-3 1 -6 82.64 15.01
3 1 6 67.46 8.7
-3 1 -7 48.08 12.39
3 1 7 53.32 13.75
-3 1 -7 48.81 13.52
-3 1 -8 73.25 15.84
3 1 8 87.05 15.8
-3 1 -8 121.62 20.13
-3 1 -9 59.83 16.53
3 1 9 38.66 12.92
-3 1 -9 66 18.37
3 1 10 12.71 10.64
-3 1 -10 15.12 14.31
3 1 11 28.42 12.68
-3 1 -11 16.56 13.04
3 1 12 10.08 9.87
-3 1 -12 -14.42 13.2
3 2 -13 38 19.39
-3 2 13 0.03 11.05
-3 2 12 22.26 11.02
3 2 -12 52.49 20.43
3 2 -11 5.5 12.34
-3 2 11 2.02 8.87
3 2 -10 31.85 13.76
-3 2 10 17.19 9.78
3 2 -10 33.93 16.41
-3 2 9 204.17 25.66
3 2 -9 225.58 28.74
-3 2 9 185.44 14.14
3 2 -8 133.84 21.22
-3 2 8 125.21 12.14
-3 2 8 123.57 19.54
-3 2 7 225.98 24.86
-3 2 7 231.05 16.29
3 2 -7 259.76 27.41
-3 2 7 242.66 17.48
3 2 -6 1094.02 53.01
-3 2 6 988.31 28.33
-3 2 6 1035.27 36.16
-3 2 6 1038.44 49.36
3 2 -5 355 28.26
-3 2 5 328.91 27.16
3 2 -5 327.56 17.83
-3 2 5 296.58 12.22
-3 2 5 318.35 19.16
-3 2 5 335.12 21.07
3 2 -4 1182.72 28.43
3 2 -4 1130.3 22.48
3 2 -4 1286.16 51.2
-3 2 4 1208.77 34.63
-3 2 4 1315.09 41.9
-3 2 4 1292.62 50.1
3 2 -3 762.24 22
3 2 -3 760.26 18.17
-3 2 3 745.86 25.63
3 2 -3 756.01 38.13
-3 2 3 805.26 37.69
-3 2 2 1194.75 31.78
3 2 -2 1255.57 31.19
-3 2 2 1246.71 44.47
-3 2 1 468.37 20.95
3 2 -1 460.51 21.28
-3 2 1 460.6 26.14
-3 2 0 1088.63 34.48
3 2 0 1147.29 36.66
-3 2 0 1059.39 38.01
3 2 1 1592.71 32.3
-3 2 -1 1530.73 44.06
3 2 2 77.91 8.73
3 2 2 91.99 13.03
-3 2 -2 74.01 9.99
-3 2 -3 1160.3 46.54
3 2 3 1201.13 47.15
-3 2 -3 1112.4 35.35
3 2 4 431.39 24.38
-3 2 -4 447.49 30.85
3 2 4 469.78 31.46
3 2 5 79.52 15.14
-3 2 -5 76.21 14.82
3 2 5 81.15 11.13
-3 2 -6 197.37 22.83
3 2 6 257.42 26.18
3 2 6 237.11 18.55
3 2 7 247.37 27.27
-3 2 -7 228.25 25.68
3 2 7 261.47 19.45
-3 2 -8 17.93 10.9
3 2 8 12.32 9.16
3 2 9 95.04 19.22
-3 2 -9 76.46 17.87
-3 2 -9 57.37 17.71
-3 2 -10 52.57 15.65
3 2 10 80.52 18.85
-3 2 -10 63.97 19.43
-3 2 -11 16.66 12.47
-3 2 -11 39.12 18.62
3 2 11 22.1 13.74
3 2 12 5.44 11.44
-3 2 -12 43.05 17.7
-3 3 14 -10 12.4
-3 3 13 -17.49 13.48
3 3 -13 -36.86 18.74
-3 3 12 1.23 8.89
3 3 -12 3.95 13.61
-3 3 11 26.68 12.29
3 3 -11 13.21 13.56
3 3 -10 25.43 14.24
-3 3 10 14.57 9.44
-3 3 9 62.27 17.37
3 3 -9 58.15 18.02
3 3 -8 63.57 16.35
-3 3 8 66.58 17.28
3 3 -8 51.69 10.85
3 3 -7 18.56 9.26
3 3 -7 18.53 6.65
-3 3 7 18.83 9.95
-3 3 6 110.05 18.74
3 3 -6 110.47 19.39
-3 3 6 88.22 7.84
3 3 -6 86 11.57
3 3 -5 271.74 17.45
3 3 -5 262.6 27.68
-3 3 5 290.47 28.37
3 3 -4 143.51 11.51
3 3 -4 127.11 8.94
3 3 -4 136.22 19.17
-3 3 4 146.07 19.94
-3 3 3 85.74 15.51
3 3 -3 78.01 8.66
3 3 -3 71.98 7.64
-3 3 3 48.29 4.49
3 3 -3 60.43 12.92
3 3 -2 352.87 19.63
3 3 -2 310.21 27.22
-3 3 2 295.78 13.29
-3 3 2 359.67 28.82
3 3 -1 655.45 28.98
-3 3 1 647.28 37.14
-3 3 0 30.7 9.29
3 3 0 29.58 8.7
-3 3 -1 276.42 23.19
3 3 1 309.14 23.5
-3 3 -2 498.47 30.38
3 3 2 581.97 34.31
3 3 3 71.18 12.87
-3 3 -3 61.43 11.15
3 3 3 83.48 15.23
-3 3 -3 63.44 12.56
3 3 4 151.84 20.07
-3 3 -4 138.42 19.41
-3 3 -4 138.56 15.74
3 3 4 139.59 17.59
3 3 5 44.63 11.22
3 3 5 57.91 14.37
-3 3 -5 64.46 14.38
3 3 6 15 7.61
-3 3 -6 10.02 8.47
3 3 6 5.13 7.42
3 3 7 57.26 16.12
3 3 7 58.04 12.14
-3 3 -7 38.83 12.87
3 3 8 96.98 20.11
-3 3 -8 60.52 15.97
-3 3 -9 22.66 11.86
3 3 9 20.69 15.11
-3 3 -10 10.64 11.33
3 3 10 20.78 12.92
3 3 11 15.8 12.95
-3 3 -11 6.49 15.6
-3 4 12 -0.8 10.44
-3 4 11 -5.93 12.31
3 4 -11 7.85 11.34
-3 4 10 30.62 14.62
3 4 -10 22.45 14.6
3 4 -9 21.02 8.87
3 4 -9 28.82 15.05
-3 4 9 25.29 14.74
-3 4 8 2.78 8.7
3 4 -8 6.21 9.75
3 4 -8 3.47 6.47
-3 4 7 86.16 19.43
3 4 -7 73.58 12.49
3 4 -7 78.54 18.57
3 4 -6 347.6 23.58
-3 4 6 405.3 38.75
3 4 -6 364.01 38.14
-3 4 5 25.71 10.64
3 4 -5 20.5 3.85
3 4 -5 24.95 6.89
-3 4 5 11.81 3.5
3 4 -5 12.67 8.51
-3 4 4 108.26 19.4
3 4 -4 97.29 11.38
3 4 -4 90.78 9.49
-3 4 4 81.19 7.67
3 4 -4 96.51 18.42
3 4 -3 511.28 24.87
3 4 -3 489 24.06
-3 4 3 527.73 40.16
3 4 -3 474.92 37.9
-3 4 3 430.17 18.7
3 4 -2 100.39 12.99
-3 4 2 76.94 9.18
3 4 -2 77.08 16.83
-3 4 2 119.35 19.5
-3 4 1 14.58 5.37
-3 4 1 14.54 9.18
3 4 -1 18.61 7.35
3 4 0 355.84 27.04
-3 4 0 293.28 22.1
-3 4 0 337.07 29.97
3 4 1 380.6 29.45
-3 4 -1 350.31 30.07
3 4 2 28.23 10.62
-3 4 -2 16.83 8.29
3 4 3 392.66 33.61
3 4 3 348.45 31.27
-3 4 -3 353.49 30.17
3 4 4 172.62 24.24
-3 4 -4 137.61 21.5
3 4 4 134.42 20.39
-3 4 -4 153.87 20.44
3 4 5 8.19 8.89
3 4 5 11 10.13
-3 4 -5 -11.5 10.57
3 4 6 87.58 20.34
3 4 6 92.34 17.89
-3 4 -6 104.05 20.12
3 4 7 27.74 10.97
-3 4 -7 51.84 15.88
3 4 7 32.75 14.79
3 4 8 15.31 13.73
-3 4 -8 17.5 11.07
-3 4 -9 -0.54 10.88
3 4 9 14.79 16.56
-3 5 12 -3.68 11.6
-3 5 11 -2.69 11.08
-3 5 10 -19.02 14
3 5 -10 11.66 13.79
-3 5 9 27.04 15.2
3 5 -9 23.62 14.51
-3 5 8 -5.82 11.7
3 5 -8 -9.54 12.34
3 5 -7 18.5 13.53
-3 5 7 9.44 11.17
-3 5 6 28.93 15.26
3 5 -6 5.09 5.39
3 5 -6 39.44 16.64
3 5 -5 34.36 14.54
-3 5 5 34.41 12.77
3 5 -5 41.77 9.68
-3 5 4 44.32 15.76
3 5 -4 40.94 9
3 5 -4 50.04 15.66
-3 5 3 14.31 8.58
3 5 -3 14.25 5.53
3 5 -3 14.16 9.8
3 5 -3 18.44 7.23
-3 5 2 108.68 20.56
3 5 -2 101.5 14.43
3 5 -2 82.35 18.22
-3 5 2 83.8 11.24
-3 5 1 131.07 21.5
3 5 -1 134.68 17.62
-3 5 1 111.82 14.36
3 5 -1 92.54 18.29
-3 5 0 51.55 14.75
3 5 0 40.75 11.3
3 5 0 36.84 12.91
-3 5 0 53.39 11.53
-3 5 -1 41.04 12.96
3 5 1 25.6 11.04
-3 5 -1 28.33 9.39
-3 5 -2 80.61 17
3 5 2 96.18 17.44
3 5 3 10.12 9.83
-3 5 -3 8.23 7.52
3 5 4 16.25 11.53
3 5 4 14.97 11.85
-3 5 -4 -12.33 11.72
3 5 5 9.59 10.89
3 5 5 10.65 13.87
-3 5 -5 -8.9 10.37
3 5 6 12.06 10.43
-3 5 -6 18.7 11.99
3 5 6 10.17 9.94
3 5 7 6.7 9.14
-3 5 -7 19.83 13.49
3 5 7 11 12.97
-3 5 -8 -1.76 9.49
3 5 8 -3.88 11.34
-3 6 8 6.61 12.57
3 6 -8 -2.77 12.05
-3 6 7 20.8 13.57
3 6 -7 1.79 12.02
3 6 -6 5.09 11.38
-3 6 6 23.23 14.96
3 6 -5 11.78 11.97
-3 6 5 5.46 10.82
3 6 -4 10.65 11.6
-3 6 4 15.67 12.77
-3 6 3 39.45 16.69
3 6 -3 15 11.38
-3 6 2 4.55 10.91
3 6 -2 7.94 10.61
-3 6 1 -2.95 8.81
3 6 -1 15.19 8.8
3 6 -1 7.19 9.28
-3 6 0 11.92 10.62
3 6 0 19.62 10.32
3 6 0 6.45 8.85
-3 6 -1 5.46 9.74
3 6 1 19.62 10.52
3 6 1 -11.66 11.4
-3 6 -2 -7.32 10.07
3 6 2 13.01 10.47
-3 6 -3 29.37 13.19
3 6 3 24.4 13.63
-3 6 -3 2.96 12.31
3 6 4 38.05 15.73
-3 6 -4 8.74 9.64
3 6 5 -8.57 10.36
-3 6 -5 -1.97 10.07
-3 6 -6 9.83 12.35
3 7 -5 -15.04 13.18
3 7 -4 7.14 14.09
3 7 -3 11.48 11.53
-3 7 2 9.52 13.84
3 7 -2 8.49 12.45
-3 7 1 8.58 12.5
3 7 -1 1.3 10.66
-3 7 0 -11.55 12.14
3 7 0 7.94 13.29
-3 7 -1 1.03 9.7
3 7 1 1.14 9.49
3 7 1 0.01 8.45
-3 7 -2 7.09 12.41
3 7 2 5.11 10.14
3 7 3 15.6 15.63
-3 7 -3 -28.66 14.79
4 -7 -4 0.05 12.37
4 -7 -3 7.77 15.68
-4 -7 2 -36.74 15.35
4 -7 -2 -11.83 13.6
4 -7 -2 5.76 11.47
-4 -7 1 -6.42 11.98
4 -7 -1 -40.98 19.16
4 -7 -1 -5.51 10.76
-4 -7 1 -18.2 12.55
4 -7 0 1.51 11.79
-4 -7 0 3.85 12.15
4 -7 1 -0.01 11.75
-4 -7 -1 0.01 10.39
4 -7 2 23.8 15.96
-4 -7 -2 -36.44 17.26
4 -6 -9 26.1 16.09
4 -6 -8 16.06 16.35
4 -6 -8 11.13 13
-4 -6 8 21.24 15.19
-4 -6 7 7.39 14.28
4 -6 -7 0.06 9.44
4 -6 -7 4.61 12.93
-4 -6 6 -7.14 14.85
4 -6 -6 7.56 10.96
4 -6 -6 -28.07 18.88
4 -6 -6 -40.57 15.48
4 -6 -5 28.05 17.09
4 -6 -5 -7.29 13.23
-4 -6 5 15.33 12.8
4 -6 -5 6.59 11.41
4 -6 -4 12.78 10.04
-4 -6 4 2.26 11.51
4 -6 -4 17.26 16.08
4 -6 -3 12.38 12.83
4 -6 -3 17.31 10.98
4 -6 -3 -5.63 15.27
-4 -6 3 0.72 10.39
4 -6 -2 4.95 10.93
-4 -6 2 24.17 15.96
4 -6 -2 16.91 10.57
4 -6 -1 -2.34 13.2
-4 -6 1 -25.82 14.62
4 -6 -1 -5.18 10.77
-4 -6 0 2.32 9.31
-4 -6 0 -0.9 12.38
4 -6 0 -1.36 8.54
4 -6 1 15.27 13.1
-4 -6 -1 6.45 7.42
-4 -6 -1 7.99 10.03
4 -6 2 4.18 9.76
-4 -6 -2 -5.81 10.26
4 -6 3 -2.22 11.67
-4 -6 -3 -22.51 16.87
-4 -6 -3 -19.41 12.76
-4 -6 -4 15.91 11.57
4 -6 4 7.86 11.82
-4 -6 -4 12.13 12.51
4 -6 5 6.37 12.29
-4 -6 -5 16.2 16.15
-4 -6 -6 20.96 16.45
4 -5 -12 -34.09 15.69
4 -5 -11 3.81 10.84
-4 -5 10 21.24 17.15
4 -5 -10 4.13 11.3
-4 -5 9 11.82 14.34
4 -5 -9 4.45 9.8
4 -5 -8 27.16 13.02
-4 -5 8 10.36 10.98
4 -5 -8 10.88 11.85
4 -5 -8 11.21 9.64
4 -5 -7 39.27 13.65
4 -5 -7 19.83 10.75
4 -5 -7 30.27 14.54
-4 -5 7 32.32 16.57
4 -5 -6 36.1 12.73
-4 -5 6 52.43 18.68
4 -5 -6 39.64 13.16
4 -5 -6 35.07 13.26
4 -5 -5 2.7 10.26
-4 -5 5 -4.67 11.75
4 -5 -5 -16.78 12.25
4 -5 -5 19.4 12.7
4 -5 -4 23.44 12.71
-4 -5 4 0.17 9.85
4 -5 -4 14 11.94
4 -5 -3 5.21 10.6
4 -5 -3 3.4 7.19
4 -5 -3 -18.04 15.7
-4 -5 3 -2.62 10.11
4 -5 -2 13.13 7.91
-4 -5 2 20.04 13.13
4 -5 -1 -4.02 9.36
-4 -5 1 5.1 8.32
4 -5 0 7.01 9.29
-4 -5 0 -9.12 9.48
-4 -5 0 -6.51 10.29
4 -5 1 56.63 14.89
-4 -5 -1 73.93 14.5
-4 -5 -1 75.93 18.22
-4 -5 -2 11.55 8.18
4 -5 2 12.04 12.09
-4 -5 -2 -9.61 10.37
-4 -5 -3 52.41 14.79
4 -5 3 82.02 19.37
-4 -5 -3 47.18 12.96
-4 -5 -4 3.6 7.68
4 -5 4 -1.89 11.4
-4 -5 -4 -8.47 12.55
-4 -5 -5 48.68 16.23
4 -5 5 33.08 16.8
-4 -5 -5 17.9 10.45
4 -5 6 17.87 16.39
-4 -5 -6 65.81 21.91
-4 -5 -6 42.11 15.86
-4 -5 -7 33.6 16.32
4 -5 7 19.55 18.02
4 -4 -13 19.84 13.7
-4 -4 13 0.26 11.94
-4 -4 12 29.48 17.9
4 -4 -12 0.51 11.04
-4 -4 12 12.4 10.55
-4 -4 11 -5.59 10.35
4 -4 -11 20.4 12.46
-4 -4 11 8.39 11.15
4 -4 -10 13.34 9.08
-4 -4 10 8.35 12.02
4 -4 -10 7.68 9.52
-4 -4 10 -10.39 11.76
4 -4 -9 63.19 14.62
-4 -4 9 80.45 21.13
4 -4 -9 83.54 15.95
4 -4 -9 98.4 22.34
4 -4 -8 8.14 7.88
4 -4 -8 14.05 8.49
4 -4 -8 32.28 14.59
-4 -4 8 13 11.41
-4 -4 7 10.01 11.74
4 -4 -7 19.82 9.66
4 -4 -7 6.82 8.34
4 -4 -7 13.69 10.55
4 -4 -6 4.77 7.28
-4 -4 6 2.34 7.74
4 -4 -6 7.63 6.94
4 -4 -6 -0.46 11.57
4 -4 -5 107.16 18.64
-4 -4 5 102.13 20.09
4 -4 -5 87.05 14.64
4 -4 -5 118.7 21.29
4 -4 -4 147.83 22.25
-4 -4 4 122.85 21.4
4 -4 -4 134.21 22.14
-4 -4 3 45.89 13.99
4 -4 -3 77.07 17.95
4 -4 -3 33.49 11
4 -4 -3 57.84 11.97
-4 -4 2 280.8 25.9
4 -4 -2 378.19 37.09
-4 -4 2 296.58 30.76
4 -4 -2 287.56 25.07
-4 -4 1 157.44 18.92
4 -4 -1 135.64 19.08
-4 -4 1 148.17 22.32
-4 -4 0 483.75 31.53
-4 -4 0 423.7 34.55
4 -4 0 472.83 34.79
4 -4 1 127.97 19.66
-4 -4 -1 141.85 17.19
-4 -4 -1 109.38 18.19
4 -4 2 14.9 10.94
-4 -4 -2 -7.57 10
-4 -4 -2 14.63 7.77
-4 -4 -3 79.8 11.63
4 -4 3 94.11 19.27
-4 -4 -3 86.33 15.81
-4 -4 -3 84.14 16.11
-4 -4 -4 55.01 14.39
4 -4 4 51.68 16.07
-4 -4 -4 50.36 15.11
-4 -4 -5 54.89 17.07
-4 -4 -5 49.39 15.26
4 -4 5 51.1 17.33
-4 -4 -6 59.25 17.73
4 -4 6 15.92 10.43
-4 -4 -7 12.9 12.31
4 -4 7 28.51 16.29
-4 -4 -8 37.33 16.3
4 -4 8 22.74 18.14
4 -4 9 -16.04 15.56
4 -3 -14 0.01 11.21
-4 -3 14 0.01 10.84
4 -3 -13 8.88 11.87
-4 -3 13 -2.01 9.69
-4 -3 12 4.19 11.12
-4 -3 12 -3.72 9.17
4 -3 -12 6.35 9.26
4 -3 -12 14.48 11.96
4 -3 -11 34.78 11.46
-4 -3 11 15.55 11.4
-4 -3 11 5.95 9.8
4 -3 -11 5.49 8.73
-4 -3 10 115.26 19.82
-4 -3 10 84.02 19.81
4 -3 -10 100.37 18.16
4 -3 -10 96.48 16.38
-4 -3 9 122.78 20.61
-4 -3 9 106.43 20.73
4 -3 -9 107.13 17.26
4 -3 -9 108.34 17.56
4 -3 -8 70.86 14.51
-4 -3 8 79.06 17.77
4 -3 -8 68.91 13.15
-4 -3 8 74.43 15.42
4 -3 -8 106.54 21.36
4 -3 -7 438.31 27.3
-4 -3 7 487 35.83
4 -3 -7 476.82 34.82
-4 -3 7 445.59 37.51
4 -3 -7 478.98 36.43
4 -3 -6 180.42 17.03
-4 -3 6 161.81 20.24
4 -3 -6 159.31 20.22
-4 -3 6 152.73 22.11
4 -3 -6 148.03 19.6
4 -3 -5 16.27 8.42
-4 -3 5 3.13 7.85
-4 -3 5 7.18 7.57
4 -3 -5 15.16 6.49
4 -3 -5 3.16 7.84
-4 -3 4 456.76 30.99
4 -3 -4 414.81 32.81
4 -3 -4 510.38 35.9
-4 -3 4 476.99 36.09
-4 -3 3 158.72 18.19
4 -3 -3 171.28 15.85
-4 -3 3 179.09 21.4
4 -3 -3 181.88 21.9
4 -3 -3 200.77 24.02
-4 -3 2 168.22 17.95
-4 -3 2 177.92 21.5
4 -3 -2 178.46 16.75
4 -3 -2 186.04 23.26
-4 -3 1 354.41 25.11
4 -3 -1 306.32 17.88
-4 -3 1 359.82 29.55
4 -3 -1 313.43 22.99
-4 -3 1 312.59 18.12
-4 -3 0 372.01 24.83
4 -3 0 326.71 22.14
4 -3 0 340.73 25.24
-4 -3 0 351.34 26.11
-4 -3 0 324.42 15.94
4 -3 1 125.81 16.7
-4 -3 -1 134.34 15.96
-4 -3 -1 144.72 15.37
-4 -3 -1 110.08 7.38
-4 -3 -2 118.19 12.9
4 -3 2 108.98 16.99
-4 -3 -2 101.87 14.42
-4 -3 -3 344.74 20.42
-4 -3 -3 404.84 30.86
-4 -3 -3 335.05 27.35
4 -3 3 326 31.08
-4 -3 -4 177.4 21.15
4 -3 4 132.18 21.62
-4 -3 -4 167.79 21.05
-4 -3 -4 141.4 12.36
-4 -3 -5 67.21 15.21
4 -3 5 69.55 17.96
-4 -3 -6 122.1 19.18
4 -3 6 119.53 23.15
-4 -3 -7 38.12 12.9
4 -3 7 24.99 13.88
-4 -3 -8 20.58 11.55
4 -3 8 -14.76 13.75
-4 -3 -9 -0.21 10.06
4 -3 9 0.01 14.71
-4 -3 -10 5.48 13.42
4 -3 10 21.96 14.32
-4 -2 15 7.26 12.73
4 -2 -14 -25.79 13.82
-4 -2 14 0.01 9.36
4 -2 -13 0.65 9.43
-4 -2 13 -19.28 12.26
-4 -2 13 4.98 10.29
4 -2 -13 6.61 8.39
4 -2 -12 56.58 14.67
-4 -2 12 93.73 19.38
-4 -2 12 111.88 19.45
4 -2 -12 69.25 17.47
4 -2 -11 28.27 11.09
4 -2 -11 16.65 11.62
-4 -2 11 25.06 11.09
-4 -2 11 39.48 13.06
4 -2 -10 72.23 15.19
4 -2 -10 65.06 14.51
-4 -2 10 64.33 15.18
-4 -2 10 81.82 16.93
-4 -2 9 292.07 27.67
-4 -2 9 224.64 26.18
4 -2 -9 214.23 22.66
4 -2 -9 211.43 22.91
4 -2 -8 154.51 17.94
-4 -2 8 202.93 22.35
-4 -2 8 172.32 21.21
4 -2 -8 186.55 20.69
4 -2 -7 61.16 12.53
-4 -2 7 60.22 12.96
4 -2 -7 62.11 10.69
-4 -2 7 62.17 12.18
-4 -2 6 138.11 17.25
-4 -2 6 112.41 12.56
-4 -2 6 103.9 7.24
4 -2 -6 134.05 13.15
-4 -2 6 142 17.91
4 -2 -6 155.13 18.64
4 -2 -6 145.01 17.68
-4 -2 5 758.21 38.03
-4 -2 5 629.45 20.55
-4 -2 5 640.45 25.14
4 -2 -5 689.44 25.64
-4 -2 5 734.9 38.41
4 -2 -5 754.76 35.76
4 -2 -5 735.82 37.71
4 -2 -4 129.75 14.51
4 -2 -4 154.22 11.27
-4 -2 4 149.83 16.92
-4 -2 4 137.66 10.85
-4 -2 4 151.32 17.22
4 -2 -4 145.42 18.02
-4 -2 3 150.96 16.14
-4 -2 3 155.13 12.71
4 -2 -3 151.35 10.23
-4 -2 3 147.18 16.41
4 -2 -3 143.91 15.4
4 -2 -3 164.58 18.83
-4 -2 2 1547.36 43.22
-4 -2 2 1724.21 51
-4 -2 2 1712.17 53.85
4 -2 -2 1614.21 37.15
4 -2 -2 1672.89 58.73
-4 -2 2 1585.12 41.55
-4 -2 1 357.52 23.04
4 -2 -1 304.03 16.28
4 -2 -1 323.79 18.34
4 -2 -1 365.19 28.53
-4 -2 1 321.1 16.98
-4 -2 0 1311.12 29.19
4 -2 0 1284.62 40.29
-4 -2 0 1345.39 39.72
4 -2 0 1370.44 42.77
-4 -2 0 1410.57 43.13
-4 -2 -1 658.74 28.17
-4 -2 -1 626.64 27.75
4 -2 1 636.08 28.59
4 -2 1 651.98 33.35
4 -2 2 113.29 11.79
-4 -2 -2 122.77 11.99
-4 -2 -2 134.91 15.12
-4 -2 -2 122.89 14.54
4 -2 2 104.64 15.85
-4 -2 -3 120.56 11.9
-4 -2 -3 118.96 16
4 -2 3 113.03 11.33
4 -2 3 107.52 17.63
-4 -2 -4 190.05 19.91
4 -2 4 179.7 13.27
4 -2 4 158.04 18
-4 -2 -4 162.67 12.4
4 -2 4 174.42 23.02
-4 -2 -4 172.9 16.43
-4 -2 -5 318.81 27.21
4 -2 5 234.73 23.46
-4 -2 -5 260.07 14.86
4 -2 5 241.5 29.06
-4 -2 -6 30.29 11.27
4 -2 6 51.56 12.54
4 -2 6 16.31 11.28
-4 -2 -7 50.62 15.04
4 -2 7 45.61 10.86
4 -2 7 27.69 12.96
4 -2 8 115.29 18.36
-4 -2 -8 177.12 25.22
4 -2 8 197.32 32.08
4 -2 9 11.53 10.72
-4 -2 -9 21.08 12.92
-4 -2 -10 -3.22 11.04
4 -2 10 0.01 12.43
-4 -1 15 -2 9.1
-4 -1 14 13.65 12.79
4 -1 -13 17.61 9.81
-4 -1 13 42.74 16.54
4 -1 -12 0.01 8.09
4 -1 -12 -15.64 11.21
-4 -1 12 1.68 8.18
-4 -1 12 0.82 6.63
4 -1 -11 15.63 7.94
4 -1 -11 2.4 8.26
-4 -1 11 19.79 10.91
-4 -1 11 22.76 10.22
-4 -1 10 202.01 22.37
-4 -1 10 162.19 21.26
4 -1 -10 142.51 20.01
4 -1 -10 159.65 20.93
4 -1 -9 98.73 16.55
4 -1 -9 78.89 14.36
-4 -1 9 104.96 16.45
-4 -1 9 112.95 16.55
4 -1 -8 43.53 10.7
4 -1 -8 54.01 10.89
-4 -1 8 69.39 13.11
-4 -1 8 57.7 11.12
4 -1 -7 440.75 26.03
-4 -1 7 533.4 31.64
-4 -1 7 412.28 18.93
-4 -1 7 488.38 29.03
4 -1 -7 465.94 30.44
4 -1 -6 591.82 26.62
-4 -1 6 530.57 21.08
4 -1 -6 598.08 33.15
-4 -1 6 619.32 30.7
4 -1 -5 3.73 5.36
4 -1 -5 0.16 2.18
-4 -1 5 -4.44 4.38
4 -1 -5 4.39 4.25
-4 -1 5 6.43 3.48
-4 -1 5 2.67 2.63
-4 -1 5 1.06 5.26
4 -1 -4 1319.17 28.2
-4 -1 4 1311.51 33.95
-4 -1 4 1549.93 48.41
4 -1 -4 1459.56 28.54
-4 -1 4 1486.44 42
4 -1 -4 1386.23 38.17
4 -1 -4 1478.05 48.42
4 -1 -3 173.07 7.46
-4 -1 3 246.7 18.91
-4 -1 3 233.98 15.22
-4 -1 3 230.48 16.31
4 -1 -3 206.18 13.26
4 -1 -3 224.47 19.06
-4 -1 3 233.81 17.81
-4 -1 2 218.64 17.74
4 -1 -2 177.22 7.83
-4 -1 2 226.77 15.36
4 -1 -2 194.77 12.89
4 -1 -2 192.19 17.84
-4 -1 2 208.1 15.43
-4 -1 1 1480.74 43.28
-4 -1 1 1294.01 20.54
-4 -1 1 1449.65 40.65
-4 -1 1 1294.68 23.82
4 -1 -1 1413.4 31.21
4 -1 -1 1500.5 48.56
-4 -1 1 1403.03 35.78
-4 -1 0 971.95 34.42
4 -1 0 909.06 23.34
4 -1 0 994.7 38.54
-4 -1 0 971.56 23.09
4 -1 0 884.7 31.22
4 -1 0 990.74 40.49
-4 -1 0 925.71 26.67
-4 -1 -1 221.19 15.91
-4 -1 -1 223.6 13.58
4 -1 1 231.26 18.87
-4 -1 -1 214.23 16.43
4 -1 1 211.09 13.78
-4 -1 -2 603.93 25.38
4 -1 2 628.53 32.56
-4 -1 -2 652.32 28.76
4 -1 2 607.6 26.92
-4 -1 -2 600.63 25.73
-4 -1 -2 580.94 23.05
-4 -1 -3 1480.3 47.58
-4 -1 -3 1427.38 44.62
-4 -1 -3 1380.22 38.36
4 -1 3 1460.31 51.28
-4 -1 -3 1434.87 34.99
-4 -1 -4 158.05 17.84
4 -1 4 143.53 17.54
-4 -1 -4 125.17 12.05
-4 -1 -4 121.54 9.07
-4 -1 -5 109.1 6.89
-4 -1 -5 147.79 18.99
4 -1 5 169.3 19.7
-4 -1 -6 378.92 31.81
4 -1 6 360.88 29.09
4 -1 6 417.99 39.57
-4 -1 -7 113.52 19.47
4 -1 7 142.04 19.78
-4 -1 -8 4.74 11.28
4 -1 8 16.52 9.77
4 -1 8 25.15 15.93
-4 -1 -9 80.64 20.86
4 -1 9 52.88 14.3
4 -1 9 64.49 21.13
-4 -1 -10 58.23 19.21
4 -1 10 68.14 23.37
-4 -1 -11 -5.5 13.2
4 -1 11 18.67 19.5
4 0 -14 -29.15 17
-4 0 14 0.16 10.26
-4 0 13 15.18 11.38
-4 0 13 -19.69 11.15
4 0 -13 -17.95 16.29
-4 0 12 161.09 24.4
-4 0 12 163.76 22.58
4 0 -12 118.24 23.26
4 0 -11 37.87 12.33
-4 0 11 36.6 11.26
-4 0 11 62.23 12.59
4 0 -11 28.42 12.5
-4 0 10 31.54 9.01
4 0 -10 7.44 7.46
4 0 -10 22.8 11.11
-4 0 10 21.4 8.54
4 0 -9 534.48 36.83
4 0 -9 503.92 38.79
-4 0 9 472.21 29.91
-4 0 9 578.04 33.38
4 0 -8 78.51 16.49
4 0 -8 66.89 13.6
4 0 -8 72.12 12.9
-4 0 8 60.57 10.27
-4 0 8 68.39 12.56
4 0 -7 67.25 13.57
-4 0 7 58.67 10.89
-4 0 7 50.81 8.19
4 0 -7 59.85 10.87
4 0 -7 58.04 13.19
-4 0 6 142.07 15.89
4 0 -6 137.62 14.61
-4 0 6 143.61 12.07
4 0 -6 116.73 15.97
4 0 -6 127.31 15.91
-4 0 5 414.42 21.12
4 0 -5 421.99 23.53
-4 0 5 421.24 17.5
4 0 -5 365.5 23.98
4 0 -5 404.17 25.98
-4 0 5 455.31 26.78
4 0 -4 452.59 14.88
-4 0 4 428.7 17.74
-4 0 4 502.57 27.47
-4 0 4 422.69 21.66
4 0 -4 411.1 21.71
4 0 -4 449.72 22.76
-4 0 4 449.6 15.57
-4 0 4 447.96 20.51
4 0 -4 427.42 25.43
4 0 -3 21.21 6.73
4 0 -3 17.81 2.83
-4 0 3 21.76 6.54
-4 0 3 21.03 5.11
-4 0 3 19.92 3.46
4 0 -3 18.3 4.01
4 0 -2 641.68 28.59
4 0 -2 628.45 26.96
-4 0 2 619.86 25.95
-4 0 2 632.47 29.52
4 0 -2 600.32 18.02
-4 0 2 547.05 17.36
-4 0 2 587.84 27.61
4 0 -2 603.38 27.07
4 0 -1 439.5 23.58
-4 0 1 422.85 12.48
4 0 -1 472.47 23.85
-4 0 1 480.28 23.18
-4 0 1 489.34 25.47
-4 0 1 452.48 23.04
4 0 -1 431.93 21.97
4 0 0 1085.05 34.3
-4 0 0 1071.72 26.2
4 0 0 1144.73 38.36
4 0 0 1151.19 38.46
-4 0 0 1180.78 38.6
-4 0 -1 203.07 16.11
-4 0 -1 191.22 13.99
4 0 1 194.55 13.03
4 0 1 206.68 17.47
-4 0 -1 204.66 15
-4 0 -1 137.83 7.25
4 0 1 194.15 14.99
4 0 1 205.06 16.85
4 0 2 492.55 23.94
4 0 2 525.67 28.58
-4 0 -2 529.98 25.54
-4 0 -2 487.69 24.6
-4 0 -2 466.81 17.86
-4 0 -2 486.07 25.42
-4 0 -3 198.99 18.96
-4 0 -3 221.43 18.23
4 0 3 236.59 20.78
-4 0 -3 202.45 17.01
-4 0 -3 208.74 14.98
-4 0 -4 331.2 26.59
-4 0 -4 339.52 24.38
4 0 4 356.54 26.19
-4 0 -4 329.27 20.87
-4 0 -5 281.67 26.18
-4 0 -5 269.65 23.67
4 0 5 262.91 24.23
-4 0 -5 253.75 20.72
-4 0 -6 69.25 15.84
-4 0 -6 63.17 12.41
-4 0 -6 57.38 12.42
4 0 6 73.86 14.14
-4 0 -7 149.51 22.56
-4 0 -7 180.14 23.01
4 0 7 188.48 23.03
-4 0 -7 165.44 19.65
-4 0 -8 75.72 19.31
4 0 8 131.54 20.49
-4 0 -8 112.43 17.22
-4 0 -9 17.24 12.32
4 0 9 20.54 10.49
-4 0 -9 -12.56 9.79
-4 0 -10 5.79 13.7
-4 0 -10 -5.89 12.03
4 0 11 33.85 14.99
4 0 11 58.85 22.44
4 1 -14 15.85 16.16
-4 1 13 2.67 9.08
-4 1 13 19.98 10.91
4 1 -13 29.01 17.77
-4 1 12 -1.76 7.13
-4 1 12 -2.55 7.78
4 1 -12 21.15 15.6
-4 1 11 16.16 10.22
-4 1 11 22.93 10.38
4 1 -11 33.62 15.98
-4 1 10 153.67 23.55
4 1 -10 157.42 25.06
4 1 -10 170.63 23.42
-4 1 10 171.91 19.4
-4 1 10 164.94 18.92
4 1 -9 94.91 17.13
-4 1 9 124.54 16.72
-4 1 9 107.9 19.79
-4 1 9 115.5 15.04
4 1 -9 116.98 18.98
4 1 -9 133.85 22.68
-4 1 8 94.77 12.33
4 1 -8 54.33 12.14
-4 1 8 91.92 18.12
4 1 -8 63.32 13.57
4 1 -8 74.98 16.86
-4 1 8 74.24 13.24
4 1 -7 504.77 33.72
-4 1 7 474.29 25.58
4 1 -7 526.04 35.02
4 1 -7 495.92 34.16
-4 1 7 468.78 29.22
-4 1 7 526.49 37.09
4 1 -6 634.05 36.02
-4 1 6 596.91 37.72
-4 1 6 514.1 26.05
-4 1 6 568.2 24.65
4 1 -6 640.59 35.77
4 1 -6 589.32 34.94
-4 1 6 565.69 31.22
4 1 -5 2.52 4.71
-4 1 5 4.77 5.6
-4 1 5 -1.7 2.77
-4 1 5 8.73 7.87
4 1 -5 1 2.35
-4 1 5 9.75 2.67
4 1 -5 5.91 5.48
4 1 -4 1587.97 41.52
-4 1 4 1545.75 54.79
-4 1 4 1504.04 43.49
-4 1 4 1605.09 49.69
4 1 -4 1612.95 51.42
4 1 -4 1586.98 49.45
-4 1 3 316.42 23.94
4 1 -3 331.03 17.64
4 1 -3 333.59 19.04
-4 1 3 330.38 22.81
4 1 -3 311.62 20.8
-4 1 2 223.66 18.71
4 1 -2 225.38 15.66
4 1 -2 214.08 15.68
4 1 -2 224.34 16.22
-4 1 2 226.19 18.79
-4 1 1 1696.2 45.36
4 1 -1 1820.7 45.41
4 1 -1 1734.57 45.3
-4 1 1 1784.41 51.03
4 1 -1 1664.75 39.7
4 1 0 1017.72 36.9
4 1 0 1134.65 38.7
-4 1 0 1068.04 40.21
4 1 0 1027.41 28.01
-4 1 0 1015.41 32.2
4 1 1 184.58 15.66
4 1 1 201.22 11.29
4 1 1 197.76 9.48
4 1 1 222.2 18.09
4 1 1 173.88 12.39
-4 1 -1 186.72 17.03
4 1 1 184 13.56
-4 1 -1 178.89 12.23
4 1 2 742.84 34.56
4 1 2 665.1 27.33
-4 1 -2 712.04 33.59
4 1 2 660.88 29.44
4 1 2 676.33 29.57
4 1 2 701.8 22.73
-4 1 -2 642.17 20.99
4 1 2 702.37 20.05
4 1 3 1251.81 40.02
4 1 3 1428.65 50.19
-4 1 -3 1440.26 49.22
4 1 3 1355.59 28.99
-4 1 -3 1196.54 24.79
4 1 4 146.7 13.64
-4 1 -4 189.82 20.23
4 1 4 189.64 19.65
4 1 5 148.94 13.73
4 1 5 190.91 21.18
-4 1 -5 193.1 21.37
4 1 5 174.47 12.02
-4 1 -6 379.4 31.02
4 1 6 393.97 31.2
-4 1 -6 371.36 28.67
-4 1 -7 156.06 21.56
4 1 7 181.07 22.81
-4 1 -7 176.5 22.09
-4 1 -8 19.07 12
-4 1 -8 -1.09 8
4 1 8 19.24 11.98
-4 1 -9 57.51 16.46
4 1 9 66.69 16.59
-4 1 -9 71.83 18.26
4 1 10 69.3 17.84
-4 1 -10 76.55 19.3
4 1 11 -1.31 9.04
-4 1 -11 2.77 10.87
4 1 12 8.09 11.27
4 2 -13 41.67 19.8
-4 2 13 10.69 11.36
-4 2 12 66.63 17.83
4 2 -12 101.32 24.97
-4 2 11 16.63 10.31
4 2 -11 46.6 15.89
4 2 -11 46.44 17.35
-4 2 10 46.84 13.74
4 2 -10 72.2 18.01
4 2 -10 67.15 18.93
4 2 -9 259.81 29.61
-4 2 9 269.6 21.68
4 2 -9 288.82 30.9
-4 2 9 231.18 28.19
-4 2 8 200.3 15.78
4 2 -8 227.57 27.11
-4 2 8 210.42 19.09
-4 2 8 211.71 26.68
-4 2 7 48.95 12.66
4 2 -7 77.94 15.69
-4 2 7 56.81 11.17
-4 2 7 62.9 7.58
-4 2 6 163.29 9.69
4 2 -6 223.35 24.34
-4 2 6 191.76 14.47
-4 2 6 213.88 19.59
-4 2 6 174.36 21.34
-4 2 5 727.9 42.06
4 2 -5 776.96 42.84
-4 2 5 703.65 24.74
-4 2 5 734.95 35.59
4 2 -4 133.11 10.29
4 2 -4 122.66 16.79
-4 2 4 128.13 15.33
-4 2 4 144.2 10.11
-4 2 4 143.62 18.38
4 2 -3 150.13 15.14
4 2 -3 165.39 12.73
-4 2 3 146.73 16.41
-4 2 3 155.24 10.13
-4 2 3 155.17 17.78
-4 2 2 1647.8 53.4
4 2 -2 1677.21 42.4
-4 2 2 1679.25 54.46
-4 2 2 1565.72 34.36
4 2 -1 364.21 21.03
-4 2 1 347.34 18.09
-4 2 1 328.36 23.11
4 2 0 1205.08 22.37
-4 2 0 1266.64 42.89
4 2 1 637.64 32.04
4 2 1 613.01 20.82
-4 2 -1 590.38 28.69
4 2 2 107.26 10.63
4 2 2 123.7 15.62
-4 2 -2 108.32 11.94
4 2 3 117.58 15.71
-4 2 -3 92.79 15.49
-4 2 -3 100.43 11.11
4 2 4 172.72 20.38
-4 2 -4 199.88 21.98
-4 2 -5 301.61 28.06
4 2 5 288.28 27.23
-4 2 -6 36.15 10.59
4 2 6 45.22 11.94
-4 2 -7 44.34 13.33
4 2 7 53.11 14.4
4 2 8 183.15 25.59
-4 2 -8 154.9 23.6
-4 2 -8 138.64 22.85
-4 2 -9 18.5 12.38
4 2 9 19.94 12.86
-4 2 -9 23.34 13.85
-4 2 -10 3.33 9.1
4 2 10 -0.19 11.47
-4 2 -10 24.91 14.73
4 2 11 6.58 11.59
-4 2 -11 14.1 13.03
-4 3 13 5.05 10.88
4 3 -13 19.79 16.88
-4 3 12 4.7 10.88
4 3 -12 21.27 14.33
4 3 -12 9.53 14.01
-4 3 11 -1.56 9.89
4 3 -11 18.72 12.77
4 3 -10 127.22 24.37
-4 3 10 127.6 25.31
-4 3 9 155.98 25.43
4 3 -9 130.71 23.64
-4 3 8 70.75 17.05
4 3 -8 67.58 17.59
-4 3 7 472.14 40.45
4 3 -7 494.22 41.43
4 3 -6 151.98 22.7
-4 3 6 195.63 25.12
-4 3 5 15.44 5.14
-4 3 5 24.1 10.93
4 3 -5 19.1 4.52
4 3 -5 18.78 3.94
4 3 -5 15.18 9.1
-4 3 4 435.3 34.7
4 3 -4 407.38 15.42
4 3 -4 453.43 20.17
4 3 -4 384.81 32.62
-4 3 4 399.55 22.87
4 3 -3 186.79 8.45
4 3 -3 224.33 15.68
-4 3 3 199.98 22.63
4 3 -3 202 24
-4 3 3 202.63 16.28
4 3 -2 140.95 6.38
4 3 -2 173.35 15.03
-4 3 2 180.97 21.11
4 3 -1 324.11 22.26
-4 3 1 333.57 28
4 3 0 434.13 27.23
-4 3 0 385.95 29.34
4 3 1 137.31 17.17
4 3 1 139.83 10.9
-4 3 -1 121.81 16.09
-4 3 -2 128.48 16
4 3 2 142.92 18.72
4 3 3 461.47 33.62
-4 3 -3 412.9 32.7
-4 3 -3 408.58 27.57
4 3 4 156.19 21.87
-4 3 -4 160.81 21.73
-4 3 -4 145.51 16.21
4 3 5 57.48 14.81
-4 3 -5 60.39 14.83
-4 3 -6 128.34 21.46
4 3 6 134.15 21.76
-4 3 -7 32.12 13.35
4 3 7 38.85 13.2
-4 3 -8 33.9 14.25
4 3 8 2.23 9.77
-4 3 -9 13.53 12.22
4 3 9 2.68 11.28
-4 3 -10 0.9 12.55
-4 3 -10 9.3 10.63
4 3 10 11.12 13.92
-4 3 -11 0.09 14.13
-4 4 13 -39.9 18.81
-4 4 12 5.65 11.94
4 4 -12 30.29 17.98
-4 4 11 2.19 12.19
4 4 -11 4.15 11.55
4 4 -10 19.04 14.89
-4 4 10 -3.75 9.82
-4 4 9 89.26 21.81
4 4 -9 87.32 21.7
-4 4 8 -7.02 9.08
4 4 -8 2.71 4.84
4 4 -8 -5.58 9.78
-4 4 7 13.08 8.72
4 4 -7 8.41 5.45
4 4 -7 1.26 9.19
-4 4 6 16.76 10.39
4 4 -6 22.08 6.2
4 4 -6 12.74 10.01
4 4 -5 76.82 9.37
-4 4 5 103.85 20.21
4 4 -5 92.08 9.18
4 4 -5 86.17 18.42
-4 4 4 136.39 22.42
4 4 -4 107 9.53
4 4 -4 131.03 12.3
4 4 -4 109.24 20.1
-4 4 3 62.89 14.52
4 4 -3 58.05 9.42
4 4 -3 55.49 6.63
4 4 -3 44.45 13.69
-4 4 2 297.6 30.26
4 4 -2 295.47 21.88
4 4 -2 265.16 29.6
-4 4 1 103.07 18.06
4 4 -1 132.2 16.55
4 4 0 486.07 31.9
-4 4 0 446.33 35.08
-4 4 -1 122.68 18.75
4 4 1 148 19.37
-4 4 -2 -1.34 5.55
4 4 2 9.27 9.4
-4 4 -3 73.7 14.59
4 4 3 109.67 19.28
-4 4 -3 79.57 16.89
-4 4 -4 57.61 12.81
4 4 4 60.43 15.52
-4 4 -4 54.41 14.68
4 4 5 37.67 15.84
-4 4 -5 39.08 13.48
-4 4 -6 31.49 13.35
4 4 6 62.82 19.66
-4 4 -7 56.66 16.85
4 4 7 44.98 18.64
-4 4 -8 33.52 14.91
4 4 8 35.99 16.17
-4 5 11 6.07 10.76
-4 5 10 -7.79 12.88
4 5 -10 27.75 17.88
-4 5 9 21.35 14.41
4 5 -9 26.7 16.11
-4 5 8 -4.46 10.68
4 5 -8 -4.62 10.94
-4 5 7 6.89 10.37
4 5 -7 55.11 17.49
-4 5 6 61.79 19.01
4 5 -6 64.69 19.11
-4 5 5 2.02 9.71
4 5 -5 5.28 9.47
4 5 -4 5.09 9.05
-4 5 4 8.3 8.42
-4 5 3 -3.73 9.37
4 5 -3 -3.83 6.19
4 5 -3 4.37 7.98
-4 5 2 19.1 9.77
4 5 -2 10.38 6.95
4 5 -2 10.03 7.74
-4 5 1 12.09 8.91
4 5 -1 28.21 10.5
4 5 -1 2.52 7.88
-4 5 0 13.6 10.56
4 5 0 8.79 8.93
-4 5 -1 78.88 16.73
4 5 1 94.3 17.84
-4 5 -2 2.22 7.3
4 5 2 21.56 10.65
4 5 3 89.89 19.36
-4 5 -3 66.79 15.35
-4 5 -3 71.84 16.41
4 5 4 18.3 12.07
-4 5 -4 -12.85 10.56
-4 5 -4 22.73 11.78
4 5 5 30.44 15.38
-4 5 -5 7.14 10.8
4 5 6 43 18.95
-4 5 -6 18.61 12.72
-4 5 -7 27.92 15.3
4 5 7 30.69 17.74
4 6 -8 -4.41 11.52
-4 6 8 -16.59 15.3
-4 6 7 8.84 12.23
4 6 -7 3.45 11.1
-4 6 6 -10.62 11.12
4 6 -6 15.44 15.35
-4 6 5 17.76 12.43
4 6 -5 20.47 14.91
-4 6 4 42.41 16.83
4 6 -4 -1.34 9.66
-4 6 3 18.62 13.76
4 6 -3 26.17 14.36
-4 6 2 23.77 14.16
4 6 -2 9.28 9.2
-4 6 1 5.25 10.58
4 6 -1 11.26 9.07
4 6 -1 1.54 9.01
-4 6 0 26.37 13.02
4 6 0 11.66 9.58
4 6 0 8.45 11.45
-4 6 -1 14.26 10.06
4 6 1 20.25 13.51
-4 6 -2 8.85 9.93
4 6 2 14.38 13.35
-4 6 -3 -3.13 8.06
4 6 3 3.23 10.24
-4 6 -3 -9.04 14.07
4 6 4 31.61 17.36
-4 6 -4 -0.17 10.18
4 6 5 13.81 16.22
-4 6 -5 9.58 11.69
4 7 -4 0.05 12.04
4 7 -3 5.11 11.47
4 7 -2 -22.23 14.3
-4 7 1 1.08 11.02
4 7 -1 -20.73 13.91
-4 7 0 8.1 10.61
4 7 0 3.58 11.96
4 7 1 22.9 14.15
4 7 1 -3.36 10.08
-4 7 -1 6.26 10.61
-4 7 -2 7.53 14.83
4 7 2 7.11 13.25
4 7 2 -17.29 13.4
5 -7 -5 -7.41 12.45
5 -7 -4 29.83 16.84
-5 -7 3 -10.91 11.89
5 -7 -3 -13.82 14.42
5 -7 -2 0.01 12.5
-5 -7 2 -11.26 11.91
-5 -7 2 -10.06 12.64
-5 -7 1 1.24 11.63
-5 -7 1 -6.59 11.36
-5 -7 0 5.41 11.02
5 -7 1 -10.94 12.99
-5 -7 -1 -29.65 15.8
5 -7 2 0.01 11.23
5 -6 -8 15.95 15.73
5 -6 -7 5.39 11.99
-5 -6 7 -2.92 12.55
5 -6 -7 -6.16 12.33
-5 -6 7 2.74 11.08
5 -6 -6 8.31 10.71
5 -6 -6 -25.91 16.04
-5 -6 6 -21.05 16.09
-5 -6 6 8.82 12.08
-5 -6 5 3.95 10.01
5 -6 -5 11.03 14.83
-5 -6 5 1.95 10.98
5 -6 -4 -4.21 11.76
-5 -6 4 -4.58 10.49
5 -6 -4 -9.68 13.82
-5 -6 4 8.81 11.65
5 -6 -3 14.72 14.63
-5 -6 3 16.42 13.75
-5 -6 3 4.85 9.41
5 -6 -3 -6.08 15.95
5 -6 -2 13.73 13.26
-5 -6 2 3.28 9.46
5 -6 -2 16.37 12.01
5 -6 -1 24.41 15.19
5 -6 -1 16.38 10.23
-5 -6 1 15.25 11.33
-5 -6 1 -4.93 12.35
5 -6 0 32.96 13.87
-5 -6 0 37.52 13.79
-5 -6 0 15.68 11.81
5 -6 1 20.43 13.96
-5 -6 -1 16.08 12.92
5 -6 2 16.73 13.98
-5 -6 -2 3.96 10.88
5 -6 3 5.74 11.11
-5 -6 -3 -0.42 8.76
5 -6 4 5.67 14.5
-5 -6 -4 11.48 13.67
5 -6 5 -9.7 13.93
-5 -6 -5 15.44 16.79
-5 -5 11 8.04 14.22
-5 -5 10 -8.9 12.22
5 -5 -10 27.91 18.72
-5 -5 10 -14.62 15.54
5 -5 -9 -2.25 8.77
5 -5 -9 -4.78 9.06
-5 -5 9 -8.49 12.29
5 -5 -9 34.19 18.08
-5 -5 9 32.61 18
5 -5 -8 10.16 12.18
-5 -5 8 0.01 12.12
5 -5 -8 13.13 10.32
-5 -5 8 -13.48 10.89
5 -5 -8 4 11.96
5 -5 -7 6.63 9.67
-5 -5 7 10.4 13.11
5 -5 -7 17.58 10.11
-5 -5 7 -5.56 10.87
5 -5 -7 -6.97 13.89
-5 -5 6 10.86 10.05
5 -5 -6 28.22 13.75
5 -5 -6 -11.82 17.04
-5 -5 6 8.45 9.05
5 -5 -6 26.79 11.07
-5 -5 5 78.59 20.14
5 -5 -5 53.92 12.39
5 -5 -5 63.5 18.34
5 -5 -5 67.83 17.77
-5 -5 5 53.68 15.3
5 -5 -4 46.17 18.09
5 -5 -4 -4.68 10.78
-5 -5 4 2.31 9.19
-5 -5 4 27.02 13.69
5 -5 -3 122.72 26.18
-5 -5 3 96.69 17.95
5 -5 -3 96.74 21.61
-5 -5 3 133.25 24.51
5 -5 -3 116.91 18.59
5 -5 -2 167.38 29.24
-5 -5 2 137.17 20.75
5 -5 -2 119.58 19.58
-5 -5 2 140.79 25.06
5 -5 -1 -0.33 10.88
5 -5 -1 6.32 7.72
-5 -5 1 10.03 9.29
-5 -5 1 -10.99 10.21
5 -5 0 127.2 21.98
-5 -5 0 144.56 20.29
-5 -5 0 125.59 21.88
5 -5 1 29.33 11.53
-5 -5 -1 50.16 12.93
-5 -5 -1 27.5 9.53
5 -5 2 6.59 11.04
-5 -5 -2 34.73 10.34
-5 -5 -2 3.24 8.22
-5 -5 -3 8.75 8.51
5 -5 3 13.59 10.22
-5 -5 -3 -10.27 15.14
-5 -5 -4 21.41 12.69
5 -5 4 21.94 11.65
-5 -5 -4 41.22 15.68
5 -5 5 24.12 15.41
-5 -5 -5 24.08 14.21
-5 -5 -5 34.85 15.99
5 -5 6 -15.82 14.5
-5 -5 -6 8.04 13.82
-5 -4 13 13.14 13.24
-5 -4 12 -7.09 11.29
5 -4 -12 -7.32 10.63
-5 -4 12 -6.86 14
5 -4 -11 9.91 8.5
-5 -4 11 -7.53 12.95
-5 -4 11 19.91 14.89
5 -4 -11 -0.4 8.43
-5 -4 10 19.44 11.81
5 -4 -10 20.44 11.41
-5 -4 10 18.74 11.98
5 -4 -10 19.46 11.29
5 -4 -9 18.2 10.03
5 -4 -9 16.52 10
-5 -4 9 -9.41 10.56
-5 -4 9 12.37 10.83
5 -4 -8 51.22 14.36
-5 -4 8 32.63 13.79
5 -4 -8 43.12 11.12
5 -4 -8 50.94 16.66
-5 -4 8 31.67 14.33
5 -4 -7 64.94 16.21
-5 -4 7 26.6 10.75
5 -4 -7 70.86 13.76
-5 -4 7 64.09 17.21
5 -4 -7 36.07 14.21
5 -4 -6 8.35 9.67
-5 -4 6 18.47 10.54
-5 -4 6 21.79 10.01
5 -4 -6 12.73 6.69
5 -4 -6 -0.04 11.3
-5 -4 5 114.22 20.75
5 -4 -5 99.38 19.51
5 -4 -5 118.63 15.5
5 -4 -5 104.43 20.14
-5 -4 5 118.59 19.4
-5 -4 4 91.99 19.38
5 -4 -4 128.96 23.6
-5 -4 4 91.79 16.69
5 -4 -4 95.27 17.76
5 -4 -3 22.51 11.41
-5 -4 3 41.96 11.96
-5 -4 3 37.52 12.84
5 -4 -3 44.74 10.87
5 -4 -2 21.21 13.04
5 -4 -2 21.97 8.58
-5 -4 2 16.52 7.94
-5 -4 2 1.75 9.28
5 -4 -1 80.83 19.47
5 -4 -1 87.76 15.07
-5 -4 1 101.08 16.56
-5 -4 1 69.72 14.42
5 -4 0 73.27 14.5
-5 -4 0 66.27 13.44
-5 -4 0 63.65 13.49
5 -4 1 71.87 14.87
-5 -4 -1 100.42 15.04
-5 -4 -1 51.75 12.04
-5 -4 -2 57.51 10.45
5 -4 2 74.61 16.77
-5 -4 -2 57.58 13.03
-5 -4 -2 68.72 14.17
5 -4 3 100.52 21.19
-5 -4 -3 124.16 20.81
-5 -4 -3 94.52 13.28
-5 -4 -3 129.62 19.6
-5 -4 -4 66.03 17.18
-5 -4 -4 50.16 14.63
5 -4 4 38.31 14.96
-5 -4 -5 71.78 17.7
5 -4 5 17.47 13.65
-5 -4 -6 33.42 14.34
5 -4 6 8.67 13.13
-5 -4 -7 7.99 10.27
5 -4 7 0.04 11.67
-5 -4 -8 2.1 11.74
5 -4 8 0.27 12.65
5 -3 -14 17.87 12.85
-5 -3 14 7.78 11.57
-5 -3 14 12.04 12.8
5 -3 -13 21.29 11.46
5 -3 -13 32.6 16.42
-5 -3 13 28.3 14.35
-5 -3 13 59.42 18.09
5 -3 -12 54.41 16.28
-5 -3 12 71.89 20.93
-5 -3 12 55.57 16.81
5 -3 -12 83.08 17.89
5 -3 -11 -0.39 7.6
-5 -3 11 2.37 7.91
5 -3 -11 -9.48 9.96
-5 -3 11 -8.76 9.72
-5 -3 10 53.5 16.56
5 -3 -10 50.51 13.78
5 -3 -10 50.65 13.43
-5 -3 10 56.31 15.43
5 -3 -9 26.38 10.81
-5 -3 9 14.52 10.86
5 -3 -9 27.24 9.75
-5 -3 9 21.87 12.43
-5 -3 8 51.14 14.11
5 -3 -8 59.07 15.01
-5 -3 8 48.05 13.34
5 -3 -8 51.31 11.04
5 -3 -8 95.83 18.91
5 -3 -7 18.6 10.8
-5 -3 7 3.84 8.26
5 -3 -7 1.46 5.08
-5 -3 7 6.14 7.76
5 -3 -7 21.6 11.03
5 -3 -6 114.27 18.94
-5 -3 6 134.16 19.73
5 -3 -6 154.33 15.21
-5 -3 6 124.66 19.7
5 -3 -6 140.35 19.27
5 -3 -5 495.69 24.96
5 -3 -5 497.18 37.59
-5 -3 5 536.87 36.64
-5 -3 5 482.49 37.35
5 -3 -5 469.79 33.77
-5 -3 4 7.4 7.47
5 -3 -4 -13.94 11.4
5 -3 -4 -8.62 6.45
-5 -3 4 7.17 8.38
5 -3 -4 1.13 7
-5 -3 3 836.7 42.59
-5 -3 3 853.36 46.89
5 -3 -3 796 32.66
5 -3 -3 819.31 46.1
5 -3 -3 882.85 51.38
5 -3 -2 296.97 15.03
-5 -3 2 355.04 30.16
5 -3 -2 329.82 22.27
-5 -3 2 332.86 27.03
5 -3 -2 376.84 34.26
5 -3 -1 29.45 11.86
-5 -3 1 11.23 4.33
5 -3 -1 12.42 6.03
-5 -3 1 14.89 7.9
5 -3 -1 11.3 4.2
-5 -3 1 14.75 6.77
-5 -3 0 208.05 19.64
-5 -3 0 246.94 21.65
5 -3 0 197.97 20.14
-5 -3 0 191.01 12.64
-5 -3 -1 177.86 17.35
-5 -3 -1 161.54 17.2
5 -3 1 165.6 20.36
-5 -3 -2 34.13 9.36
5 -3 2 31.33 12.38
-5 -3 -2 36.65 8.46
-5 -3 -2 39.64 10.24
-5 -3 -3 33.34 8
-5 -3 -3 47.94 11.8
5 -3 3 38.91 12.91
-5 -3 -3 49.9 13.03
-5 -3 -4 172.48 21.95
5 -3 4 171.2 26.69
-5 -3 -4 150.15 14.35
-5 -3 -5 68.34 17.08
5 -3 5 31.7 14.27
-5 -3 -6 0.78 8.55
5 -3 6 -16.3 14.97
-5 -3 -7 39.8 15.24
5 -3 7 -1.61 13.92
-5 -3 -8 29.09 14.34
5 -3 8 -28.79 17.13
-5 -3 -9 5.94 10.56
5 -3 9 -15.56 15.66
5 -2 -14 3.66 9.83
-5 -2 14 10.18 11.45
5 -2 -14 31.85 14.43
5 -2 -13 2.89 8.21
5 -2 -13 2.99 9.8
-5 -2 13 2.51 9.76
-5 -2 13 21.3 11.36
5 -2 -12 1.88 9.25
5 -2 -12 -5.98 10.55
-5 -2 12 -12.02 10.06
-5 -2 12 20.34 11.77
5 -2 -11 84.38 17.71
5 -2 -11 70.74 16.14
-5 -2 11 67.68 16
-5 -2 11 119.13 20.59
-5 -2 10 100.28 18.72
5 -2 -10 62.68 14.32
5 -2 -10 56.8 13.91
-5 -2 10 70.3 15.93
-5 -2 9 11.16 7.73
5 -2 -9 6.66 6.52
5 -2 -9 15.21 8.15
-5 -2 9 9.35 6.72
5 -2 -8 115.4 17.99
-5 -2 8 153.63 20.78
5 -2 -8 119.86 14.69
-5 -2 8 148.78 19.73
5 -2 -7 178.99 15.96
-5 -2 7 212.44 22.71
-5 -2 7 140.2 10.19
-5 -2 7 180.4 21.37
5 -2 -7 191.88 22.32
5 -2 -6 12.13 7.84
-5 -2 6 5.58 6.99
-5 -2 6 16.67 7.85
5 -2 -6 20.51 5.88
-5 -2 6 13.02 3.72
-5 -2 6 13.19 4.46
5 -2 -6 33 10.21
5 -2 -5 234.78 20.1
-5 -2 5 278.87 25.17
5 -2 -5 245.21 14.01
-5 -2 5 212.14 14.96
-5 -2 5 223.31 12.93
-5 -2 5 250.32 23.59
5 -2 -5 238.1 23.81
-5 -2 4 767.94 39.1
5 -2 -4 715.63 20.58
5 -2 -4 693.22 33.25
-5 -2 4 679.44 28.63
-5 -2 4 729.03 37.77
5 -2 -4 744.15 41.44
5 -2 -3 24.34 8.66
5 -2 -3 18.57 3.51
-5 -2 3 31.98 9.19
5 -2 -3 23.86 6.82
5 -2 -3 16.3 2.7
-5 -2 3 29.27 8.74
5 -2 -3 24.22 4.18
5 -2 -2 67.96 13.97
5 -2 -2 54.69 7.19
-5 -2 2 85.68 13.55
-5 -2 1 829.32 37.16
-5 -2 1 721.25 27.49
-5 -2 1 768.95 28.45
5 -2 -1 796.08 30.24
5 -2 -1 889.19 46.89
-5 -2 0 206.9 18.37
5 -2 0 231.16 19.03
5 -2 0 217.36 14.55
-5 -2 0 195.19 12.54
-5 -2 0 191.98 14.56
5 -2 1 72.34 9.88
-5 -2 -1 58.24 10.21
-5 -2 -1 68.82 10.76
5 -2 1 71.75 12.15
-5 -2 -1 80.43 11.12
-5 -2 -2 502.71 30.25
5 -2 2 420.01 32.57
-5 -2 -2 487.98 26.55
5 -2 3 176.86 23.09
-5 -2 -3 180.71 15.81
-5 -2 -4 54.68 12.14
5 -2 4 37.71 10.14
5 -2 4 37.27 12.87
-5 -2 -4 30.23 6.67
-5 -2 -5 318.05 28.16
5 -2 5 284.12 27.61
-5 -2 -5 298.44 18.82
5 -2 5 223.67 29.56
-5 -2 -6 74.92 16.59
5 -2 6 60.35 14.54
5 -2 6 40.8 14.74
5 -2 7 -16.06 9.1
5 -2 7 -3.73 9.98
-5 -2 -8 32.38 14.04
5 -2 8 9.04 7.33
5 -2 8 29.31 16.29
-5 -2 -9 -5.11 12.66
5 -2 9 -5.59 14.78
-5 -2 -10 16.29 14.74
5 -1 -14 -23.46 12.16
5 -1 -13 -4.92 9.98
-5 -1 13 10.22 9.52
-5 -1 12 62.3 15.42
5 -1 -12 42.35 14.07
-5 -1 12 58.01 15.26
5 -1 -11 3.95 7.8
-5 -1 11 -2.39 6.77
-5 -1 11 2.65 6.79
5 -1 -10 5.44 7.31
5 -1 -10 -8.27 9.06
-5 -1 10 10.56 9.14
-5 -1 10 6.66 6.48
5 -1 -9 48.9 13.39
5 -1 -9 41.06 10.59
-5 -1 9 64.39 12.62
5 -1 -8 142.66 16.12
-5 -1 8 142.51 12.81
5 -1 -8 164.23 20.16
-5 -1 8 187.72 19.18
-5 -1 8 200.81 21.7
5 -1 -7 50.19 12.25
5 -1 -7 39.17 8.17
-5 -1 7 51.41 9.99
-5 -1 7 64.01 12.51
-5 -1 7 43.73 7.23
5 -1 -7 46.47 8.43
-5 -1 6 298.09 25.1
5 -1 -6 264.89 16.63
-5 -1 6 264.17 17.53
-5 -1 6 248.96 17.01
5 -1 -6 285.55 16.85
-5 -1 6 292.99 21.18
5 -1 -6 295.44 25.25
5 -1 -5 534.24 32.77
-5 -1 5 455.97 23.25
5 -1 -5 539.58 21.16
-5 -1 5 539.22 32.12
-5 -1 5 531.78 26.84
-5 -1 4 22.34 6.02
-5 -1 4 19.26 7.27
5 -1 -4 26.28 8.53
-5 -1 4 23.54 5.85
5 -1 -4 24.65 4.69
5 -1 -4 31.44 6.53
-5 -1 3 2220.03 61.42
-5 -1 3 2125.6 49.26
5 -1 -3 2136.91 61.92
-5 -1 2 965.12 39.94
5 -1 -2 868.73 21.29
5 -1 -2 936.15 41.13
-5 -1 2 864.7 33.98
-5 -1 1 189.5 18.19
5 -1 -1 126.19 6.2
-5 -1 1 176.44 9.66
5 -1 -1 159.96 12.88
5 -1 -1 190.08 19.25
-5 -1 1 170.02 14.18
-5 -1 0 1043.59 33.8
5 -1 0 1113.9 44.92
-5 -1 0 1039.37 27.66
-5 -1 0 982.37 32.2
5 -1 0 1097.91 45.39
-5 -1 0 1054.41 40.11
5 -1 1 628.76 24.19
-5 -1 -1 708.11 29.44
5 -1 1 732.39 37.63
-5 -1 -1 718 26.81
-5 -1 -1 678.06 31.54
-5 -1 -2 275.79 20.31
-5 -1 -2 286.27 19.34
5 -1 2 273.2 24.39
-5 -1 -2 259.9 18.94
-5 -1 -2 268.83 16.82
-5 -1 -3 19.85 4.48
-5 -1 -3 26.44 8.43
-5 -1 -3 16.7 6.75
5 -1 3 14.42 8.41
-5 -1 -3 20.03 6.11
-5 -1 -4 544.26 33.62
-5 -1 -4 534.12 32.1
5 -1 4 524.9 35.35
-5 -1 -4 464.32 25.96
-5 -1 -4 430.55 17.85
-5 -1 -5 334.13 28.97
5 -1 5 341.31 29.56
-5 -1 -6 54.62 14.56
5 -1 6 36.24 11.64
-5 -1 -7 278.9 30.2
5 -1 7 286.65 29.98
5 -1 7 367.94 41.45
-5 -1 -8 30.5 15.02
5 -1 8 26.56 11.27
5 -1 8 69.77 21.91
-5 -1 -9 10.06 11.58
5 -1 9 4.05 9.68
-5 -1 -10 15.58 14.42
5 -1 10 38.71 20.16
-5 0 14 17.21 12.8
5 0 -14 -41.84 18.54
5 0 -13 -31.47 18.3
-5 0 13 20.23 12.58
5 0 -12 22.29 11.27
-5 0 12 41.45 17.4
-5 0 12 27.58 10.53
-5 0 12 31.31 11
5 0 -12 2.69 12.07
5 0 -11 17.3 10.51
-5 0 11 24.42 8.77
-5 0 11 21.43 8.93
5 0 -11 -6.67 13.49
5 0 -10 122.75 20.27
-5 0 10 115.41 17.57
-5 0 10 116.51 15.89
5 0 -10 64.22 16.84
5 0 -9 10.35 8.52
-5 0 9 13.8 6.42
-5 0 9 18.5 8.86
5 0 -9 10.57 6.56
5 0 -9 2.43 10.89
-5 0 8 285.35 24.86
5 0 -8 233.31 25
-5 0 8 267.43 19.49
5 0 -8 275.61 26.63
5 0 -8 276.37 23.61
-5 0 7 255.96 23.39
5 0 -7 224.6 20.83
-5 0 7 231.05 16.06
5 0 -7 183.44 20.07
5 0 -7 245.47 24.33
5 0 -6 0.22 5.4
-5 0 6 4.19 3.06
-5 0 6 3 4.32
5 0 -6 -7.43 8.06
-5 0 6 -4.16 5.5
5 0 -6 0.81 3.66
-5 0 5 465.41 30.08
-5 0 5 439.54 20.07
5 0 -5 456.63 25.56
-5 0 5 417.79 21.46
-5 0 5 440.71 16.86
5 0 -5 377.63 23.16
5 0 -5 492.44 30.19
-5 0 4 1596.95 30.73
5 0 -4 1750.1 54.11
5 0 -4 1654.34 47.19
-5 0 4 1554.31 33.71
5 0 -4 1534.31 26.58
5 0 -4 1483.74 38.83
-5 0 4 1813.63 57.76
5 0 -3 13.83 6.9
5 0 -3 9.21 2.83
-5 0 3 6.7 6.14
5 0 -2 8.43 5.33
-5 0 2 3.25 1.4
5 0 -2 6.69 5.33
5 0 -2 6.22 2.87
-5 0 1 4001.37 45.64
5 0 -1 4435.53 82.98
-5 0 1 4368.21 83.05
5 0 -1 4081.17 74.19
-5 0 0 1202.56 31.41
5 0 0 1303.33 46.12
-5 0 0 1316.6 37.93
-5 0 0 1299.29 45.79
5 0 0 1237.96 40.65
-5 0 -1 262.55 17.71
5 0 1 266.83 17.15
5 0 1 295.54 24
-5 0 -1 293.01 19.55
-5 0 -1 288.35 21.45
5 0 1 296.37 20.25
-5 0 -2 699.68 32.57
5 0 2 791.03 39.1
-5 0 -2 760.68 33.01
-5 0 -2 679.21 33.21
-5 0 -2 649.72 19.42
5 0 2 710.76 32.45
-5 0 -3 1180.07 46.58
5 0 3 1264.36 51.74
-5 0 -3 1312.99 46.18
-5 0 -3 1208.73 44.46
-5 0 -3 1098.74 31.24
-5 0 -4 41.25 11.84
-5 0 -4 35.55 9.58
5 0 4 32.03 10.29
-5 0 -4 29.84 7.86
-5 0 -5 169.83 22.97
-5 0 -5 155.46 15.91
-5 0 -5 164.97 20.07
5 0 5 152.91 20.12
-5 0 -6 131.41 21.27
5 0 6 151.63 21.84
-5 0 -6 122.04 18.41
-5 0 -6 119.04 14.73
-5 0 -7 30.49 13.43
-5 0 -7 12.33 9.46
5 0 7 39.15 14.2
-5 0 -7 7.95 6.98
-5 0 -8 5.18 11.18
5 0 8 33.41 13.25
-5 0 -8 6.4 9.15
-5 0 -9 6.45 12.46
5 0 9 27 13.9
-5 0 -9 -8.46 11.57
-5 0 -10 -48.82 18.1
5 0 10 16.38 11.99
-5 1 14 1.02 11.24
5 1 -14 14.38 15.84
-5 1 13 7.62 8.89
5 1 -13 13.91 14.8
-5 1 12 51.05 15.68
5 1 -12 78.27 20.73
-5 1 11 21.93 10.03
-5 1 11 12.18 10.88
5 1 -11 14.81 14.03
-5 1 11 10.68 7.1
5 1 -11 19.86 10.97
-5 1 10 25.57 11.49
5 1 -10 13.64 9.41
5 1 -10 -2.67 10.95
-5 1 10 14.51 12.63
-5 1 10 17.62 7.02
5 1 -10 40.23 16.28
-5 1 9 69.36 14.39
5 1 -9 47.02 12.38
-5 1 9 79.72 18.65
5 1 -9 72.69 15.12
-5 1 9 56.83 9.28
5 1 -9 94.67 20.05
5 1 -8 195.72 22.63
-5 1 8 194.42 25.76
5 1 -8 202.39 25.65
5 1 -8 211.66 24.01
-5 1 8 195.22 14.53
-5 1 8 199.27 22.38
5 1 -7 53.55 13.48
-5 1 7 66.76 16.67
5 1 -7 52.23 12.08
-5 1 7 47.42 6.26
-5 1 7 78.62 14.53
5 1 -7 57.11 14.09
-5 1 6 234.89 16.24
5 1 -6 278.4 24.88
-5 1 6 258.49 27.56
5 1 -6 289.91 25.11
-5 1 6 211.09 9.61
5 1 -6 271.44 18.98
5 1 -6 261.87 23.02
-5 1 6 263.63 23.88
-5 1 5 455.2 35.29
-5 1 5 480.66 19.43
5 1 -5 512.38 31.93
-5 1 5 469.61 26.48
5 1 -5 530.4 25.17
5 1 -5 518.03 28.81
-5 1 5 488.05 31.56
5 1 -5 533.28 32.72
5 1 -4 36.43 9.15
5 1 -4 23.47 5.64
-5 1 4 43.77 11.97
5 1 -4 34.16 9.37
-5 1 4 28.52 9.44
5 1 -4 40.06 8.72
-5 1 3 1991.29 63.05
5 1 -3 2074.65 51.08
5 1 -3 2089.62 50.69
-5 1 3 2122.38 62.83
5 1 -3 1964.14 54.6
-5 1 2 796.02 37.14
5 1 -2 869.55 34.03
5 1 -2 835.36 33.24
-5 1 2 832.84 39.6
5 1 -2 824 33.31
-5 1 1 156.71 15.64
5 1 -1 164.52 15.87
5 1 -1 158.02 15.41
-5 1 1 170.25 18.53
5 1 -1 154.12 13.78
5 1 0 910.36 38.43
-5 1 0 874.09 39.58
5 1 0 861.69 30.06
-5 1 0 784.54 30.82
-5 1 -1 587.03 24.2
5 1 1 733 36.04
-5 1 -1 661.53 33.44
-5 1 -1 680.82 35.33
5 1 1 592.94 24.97
5 1 1 641.23 23.98
-5 1 -2 233.3 13.67
5 1 2 279.87 24.18
-5 1 -2 267.22 21.93
5 1 2 219.38 17.75
5 1 2 244.35 14.24
5 1 3 27.21 5.59
-5 1 -3 20.58 3.76
5 1 3 21.34 8.41
-5 1 -3 34.14 9.67
5 1 4 573.25 36.97
-5 1 -4 535.73 33.99
5 1 4 484.31 21.37
-5 1 -5 337.37 28.93
5 1 5 328.78 30.38
-5 1 -5 352.45 26.29
-5 1 -6 59.54 14.49
5 1 6 81.01 16.98
-5 1 -6 77.18 15.66
-5 1 -7 300.97 30.36
5 1 7 317.51 31.92
-5 1 -7 300.71 28.12
-5 1 -8 41.8 14.54
5 1 8 41.88 15.4
-5 1 -8 35.32 13.67
-5 1 -9 8.35 9.92
5 1 9 17.25 12.71
-5 1 -9 22.24 13.9
5 1 10 35.49 15.51
5 1 11 4.92 11.73
-5 2 14 40.37 18.41
-5 2 13 17.55 12.54
5 2 -13 31.06 19.94
-5 2 12 -4.86 13.15
5 2 -12 12.17 10.74
5 2 -12 16.46 16.14
-5 2 11 73.57 18.83
5 2 -11 102.3 21.28
5 2 -11 106.94 23.07
-5 2 10 50.26 15.8
-5 2 10 79.56 13.82
5 2 -10 75.25 18.23
5 2 -10 77.44 18.82
-5 2 9 18.38 9.93
-5 2 9 23.08 7.41
5 2 -9 10.38 8.96
5 2 -9 17.9 11.73
-5 2 8 155.81 23.49
-5 2 8 139.62 18.51
5 2 -8 165.75 23.77
-5 2 7 169.46 23.64
5 2 -7 185.27 23.79
-5 2 7 183.08 13.49
-5 2 7 187.65 20.92
-5 2 6 24.05 4.48
5 2 -6 22.85 9.26
-5 2 6 23.78 9.79
-5 2 6 32.78 10.33
5 2 -6 40.01 11.67
5 2 -5 284.59 24.85
5 2 -5 270.6 16.67
5 2 -5 281.28 27.24
-5 2 5 273.55 27.93
-5 2 5 260.27 24.13
-5 2 5 229.71 10.38
5 2 -4 691.62 35.95
5 2 -4 767.25 29.21
5 2 -4 771.46 43.41
-5 2 4 741.71 39.88
-5 2 4 611.88 15.56
-5 2 4 734.71 42.95
5 2 -3 28.97 7.9
-5 2 3 18.61 7.57
-5 2 3 20.89 8.82
5 2 -3 34.29 7.53
5 2 -2 72.58 10.21
-5 2 2 76.09 13.09
-5 2 2 85.55 13.92
5 2 -2 90.75 12
5 2 -1 798.84 29.41
5 2 -1 827.43 35.96
-5 2 1 774.78 36.71
5 2 0 197.81 12.49
5 2 0 215.79 19.47
-5 2 0 205.69 18.15
5 2 1 78.25 8.3
5 2 1 95.09 14.23
-5 2 -1 83.17 11.72
5 2 2 478.26 31.88
-5 2 -2 478.58 32.7
-5 2 -2 442.55 24.47
5 2 2 462.41 21.04
5 2 3 203.04 22.5
-5 2 -3 190.21 21.71
-5 2 -3 180.2 15.08
-5 2 -4 33.96 5.96
5 2 4 37.87 11.88
-5 2 -4 44.16 12.61
-5 2 -5 299.04 29.11
5 2 5 320.63 30.37
-5 2 -6 29.66 10.73
5 2 6 25.5 12.03
-5 2 -7 8.39 10.72
5 2 7 -1.55 9.48
-5 2 -8 8.28 11.05
5 2 8 17.73 12.57
-5 2 -8 16.43 12.23
-5 2 -9 23.98 12.9
5 2 9 13.91 11.62
-5 2 -9 17.35 13.85
5 2 10 6.62 9.72
-5 3 14 0.01 13
-5 3 13 10.75 13.35
5 3 -13 32.37 17.68
5 3 -13 12.3 15.2
-5 3 12 52.67 19.45
5 3 -12 76.78 21.54
5 3 -12 60.61 20.41
-5 3 11 -1.97 9.82
5 3 -11 3.83 11.44
5 3 -11 -0.64 12.7
-5 3 10 66.37 18.67
5 3 -10 32.9 15.23
-5 3 9 41.56 15.9
5 3 -9 28.29 14.71
-5 3 8 45.88 14.97
5 3 -8 68.6 17.92
-5 3 7 23.07 11.13
5 3 -7 10.57 9.48
-5 3 6 144.37 23.24
5 3 -6 149.92 23.62
5 3 -5 444.54 21.03
5 3 -5 464.59 38.34
-5 3 5 425.95 21.45
-5 3 5 448.31 38.06
-5 3 4 -0.85 6.65
-5 3 4 5.27 3.59
5 3 -4 5.69 4.75
5 3 -4 0.62 7.16
-5 3 3 773.96 44.89
5 3 -3 821.8 33.82
-5 3 3 752.64 29.19
5 3 -2 325.52 22.8
-5 3 2 318.87 28.63
-5 3 1 1.12 5.83
5 3 -1 6.86 6.48
5 3 0 168.19 9.03
5 3 0 213.78 20.78
-5 3 0 204.69 21.81
5 3 1 151.36 10.96
5 3 1 170.88 19.34
-5 3 -1 157.17 18.35
-5 3 -2 51.01 10.76
5 3 2 46.35 11.8
-5 3 -3 74.66 12.8
5 3 3 61.48 14.04
-5 3 -3 59.58 14.25
-5 3 -4 170.07 23.84
5 3 4 164.51 22.59
-5 3 -4 155.03 16.85
5 3 5 41.99 14.5
-5 3 -5 54.06 16.39
-5 3 -6 22.1 12.58
5 3 6 -7.23 9.88
-5 3 -7 41.21 13.9
5 3 7 47.09 15.18
-5 3 -8 30.48 14.87
5 3 8 19.09 13.03
-5 3 -9 -20.37 13.09
5 3 9 0.27 12.12
-5 4 13 7.78 15.12
-5 4 12 -0.75 11.26
5 4 -12 15.34 14.89
-5 4 11 2.54 11.56
5 4 -11 -6.96 11.56
-5 4 10 4.93 12.17
5 4 -10 25.16 14.92
-5 4 9 5.63 12.7
5 4 -9 -8.58 12.27
-5 4 8 36.3 16.14
5 4 -8 94.51 22.22
-5 4 7 42.23 14.93
5 4 -7 67.91 18.36
-5 4 6 0.57 9.13
5 4 -6 17.03 12.96
-5 4 5 132.36 22.54
5 4 -5 121.65 12.18
5 4 -5 113.49 20.77
-5 4 4 91.99 19.62
5 4 -4 97.87 11.97
5 4 -4 84.83 18.71
-5 4 3 17.42 9.71
5 4 -3 33.62 7.85
5 4 -3 12.64 8.58
5 4 -2 14.2 6.56
-5 4 2 10.65 8.5
-5 4 1 108.51 18.93
5 4 -1 114.76 16.02
-5 4 0 61.47 14.08
5 4 0 66.3 13.04
-5 4 -1 94.29 16.88
5 4 1 93.53 15.76
-5 4 -2 94.34 16.39
5 4 2 92.78 16.56
5 4 3 140.5 21.12
-5 4 -3 112.08 19.68
-5 4 -3 114.16 17.84
-5 4 -4 49.25 12.14
5 4 4 49.56 13.39
-5 4 -4 29.8 11.56
5 4 5 29.96 13.61
-5 4 -5 49.71 15.45
5 4 6 11.39 11.83
-5 4 -6 17.8 12.18
-5 4 -7 28.51 15.87
5 4 7 -13.28 11.96
-5 4 -8 -10.42 11.53
5 4 8 -8.64 12.52
-5 5 10 1.96 13.34
5 5 -10 10.22 12.28
-5 5 9 -2.87 10.93
5 5 -9 12.28 14.22
-5 5 8 -7.41 14.29
5 5 -8 12.25 12.39
-5 5 7 -1.72 12.18
5 5 -7 -6.74 10.94
-5 5 6 14.86 12.62
5 5 -6 33.61 14.51
-5 5 5 56.35 18.69
5 5 -5 42.24 16.48
-5 5 4 22.88 12.75
5 5 -4 20.51 12.48
-5 5 3 122.02 22.96
5 5 -3 92.06 13.54
5 5 -3 92.72 21.65
-5 5 2 145.54 24.89
5 5 -2 137.37 17.71
5 5 -2 177.11 28.76
-5 5 1 -8.03 8.57
5 5 -1 1.91 6.45
-5 5 0 135.98 22.8
5 5 0 122.9 19.12
-5 5 -1 45.26 13.89
5 5 1 44.69 14.18
-5 5 -2 24.5 11.38
5 5 2 22.16 12.28
-5 5 -3 19.06 8.82
5 5 3 18.85 10.74
-5 5 -3 12.35 9.53
5 5 4 30.12 14.09
-5 5 -4 30.84 14.13
5 5 5 26.48 14.99
-5 5 -5 32.47 15.34
5 5 6 -6.98 14.25
-5 5 -6 0.36 9.17
-5 6 7 7.96 12.61
5 6 -7 1.43 10.44
-5 6 6 -1.65 12.99
5 6 -6 0.13 10.77
-5 6 5 3.55 11.19
5 6 -5 3.27 10.45
-5 6 4 -1.42 11.82
5 6 -4 14.81 9.98
-5 6 3 2.75 10.78
5 6 -3 13.9 9.91
-5 6 2 1.47 9.23
5 6 -2 4.81 9.58
5 6 -1 7.17 8.76
-5 6 1 14.72 12.48
5 6 -1 8.54 10.53
-5 6 0 32.19 14.95
5 6 0 11.72 9.1
5 6 0 23.58 12.62
-5 6 -1 16.56 11.57
5 6 1 -1.29 8.26
-5 6 -2 15.95 11.51
5 6 2 20.12 12.45
-5 6 -3 14.43 10.78
5 6 3 7.97 11.15
-5 6 -3 -23.21 14.14
5 6 4 1.74 11.44
-5 6 -4 12.89 12.01
5 7 -2 1.12 11.45
5 7 -1 -17.94 14.17
5 7 0 1.26 10.29
5 7 1 -9.64 10.96
5 7 1 0.63 12.13
-6 -7 2 1.16 11.19
6 -6 -8 -11.52 11.86
6 -6 -8 2.96 12.15
-6 -6 7 3.58 12.15
6 -6 -7 7.32 12.84
6 -6 -7 -5.05 12.32
-6 -6 6 16.36 11.58
6 -6 -6 8.43 13.1
-6 -6 6 11.92 14.59
6 -6 -5 -1.4 11.96
-6 -6 5 0.6 9.8
6 -6 -5 27.15 17.35
-6 -6 5 7.57 12.51
6 -6 -4 19.09 17.05
-6 -6 4 6.61 11.55
6 -6 -4 5.7 11.74
-6 -6 4 -2.45 11.22
6 -6 -3 36.23 18.04
-6 -6 3 16.28 12.24
6 -6 -3 15.75 13.88
6 -6 -2 26.67 16.56
-6 -6 2 7.25 10.28
-6 -6 2 7.81 9.06
6 -6 -1 -2.46 11.98
-6 -6 1 3.6 8.41
-6 -6 1 6.36 10.4
6 -6 0 -4.91 15.12
-6 -6 0 24.29 12.79
-6 -6 0 18.73 13.1
6 -6 1 -3.12 9.77
-6 -6 -1 -37.54 15
6 -6 2 3.22 11.43
-6 -6 -2 0.01 8.94
6 -6 3 -0.01 13.04
-6 -6 -3 26.83 13.15
6 -6 4 16.38 17.36
-6 -5 11 10.19 16.1
-6 -5 10 -0.12 10.69
6 -5 -10 -6.16 9.86
-6 -5 9 6.87 13.26
6 -5 -9 9.27 11.7
6 -5 -9 20.67 14.28
-6 -5 9 2.13 10.56
-6 -5 8 18.41 13.4
6 -5 -8 56.98 18.38
6 -5 -8 21.34 13.69
-6 -5 8 34.54 14.94
-6 -5 7 2.78 12.47
6 -5 -7 9.35 10.17
-6 -5 7 -8.76 13.05
6 -5 -7 -9.05 12.6
-6 -5 6 12.97 12.92
6 -5 -6 -3.91 10.05
6 -5 -6 -4.56 12.88
-6 -5 6 5.59 11.21
6 -5 -5 38.44 16.65
-6 -5 5 24.93 11.1
6 -5 -5 42.71 16
-6 -5 5 35.23 15.53
6 -5 -4 67.95 20.47
-6 -5 4 78.26 18.01
6 -5 -4 37.41 15.72
-6 -5 4 56.1 17.22
6 -5 -3 34.95 17.44
-6 -5 3 35.83 13.37
6 -5 -3 3.87 11.01
-6 -5 3 25.16 14.56
6 -5 -2 60.16 19.81
6 -5 -2 44.03 11.31
-6 -5 2 58.96 14.93
6 -5 -1 39.36 12.38
6 -5 -1 8.88 11.69
-6 -5 1 42.71 13.85
-6 -5 1 37.99 13.01
6 -5 0 68.49 16.64
-6 -5 0 91.63 17.43
-6 -5 0 53.92 15.18
-6 -5 -1 9.95 7.9
6 -5 1 10.79 9.47
-6 -5 -1 -4.49 11.2
6 -5 2 10.91 10.81
-6 -5 -2 5.9 7.73
6 -5 3 18.68 11.86
-6 -5 -3 6.78 10.05
-6 -5 -3 18.81 11.7
6 -5 4 29.98 17.05
-6 -5 -4 34.06 15.55
-6 -5 -4 37.85 15.39
6 -5 5 2.18 13.31
-6 -5 -5 23.82 16.16
6 -5 6 -0.04 14.64
-6 -4 13 12.99 14.66
6 -4 -12 9.87 10.62
-6 -4 12 9.51 14.19
-6 -4 12 17.23 14.33
6 -4 -11 0.55 8.84
-6 -4 11 -2.25 10.83
-6 -4 11 0.11 10.3
6 -4 -10 15.86 11.16
-6 -4 10 18.56 12.96
-6 -4 10 14.3 12.12
6 -4 -9 23.17 11.52
-6 -4 9 33.56 13.48
-6 -4 9 42.77 16.78
6 -4 -9 62.5 18.79
6 -4 -8 20.17 13.37
-6 -4 8 8.79 10.75
-6 -4 8 -4.94 9.3
6 -4 -8 16.89 11.51
-6 -4 7 55.24 16.8
6 -4 -7 58.12 17.07
6 -4 -7 76.2 12.8
-6 -4 7 38.6 13.65
6 -4 -7 63.47 16.7
-6 -4 6 59.41 16.46
6 -4 -6 68.77 17.61
6 -4 -6 56.82 10.99
-6 -4 6 51.42 13.5
6 -4 -6 55.8 13.96
-6 -4 5 92.2 19.76
6 -4 -5 76.75 18.31
6 -4 -5 72.62 17.25
6 -4 -5 69.38 11.41
-6 -4 5 73.72 16.47
6 -4 -4 7.58 10.97
-6 -4 4 9.23 9.31
6 -4 -4 -6.79 9.58
-6 -4 4 2.84 8.76
6 -4 -3 87.07 20.84
-6 -4 3 95.31 17.15
-6 -4 3 107.77 20.18
6 -4 -3 87.37 13.2
6 -4 -2 39.27 11.02
6 -4 -2 29.39 14.24
-6 -4 2 27.19 11.42
6 -4 -1 18.66 13.67
6 -4 -1 13.36 8
-6 -4 1 16.22 9.43
-6 -4 1 5.86 5.79
-6 -4 0 95.16 16.16
6 -4 0 77.58 15.32
-6 -4 0 82.06 14.65
6 -4 1 25.47 10.21
-6 -4 -1 26.46 8.86
-6 -4 -1 28.27 9.15
6 -4 2 3.43 9.08
-6 -4 -2 -8.91 10.94
-6 -4 -2 -2.88 6.25
-6 -4 -2 -7.16 6.85
-6 -4 -3 9.31 8.69
6 -4 3 8.26 8.71
-6 -4 -4 36.68 14.72
6 -4 4 15.55 12.21
-6 -4 -5 8.92 13.14
6 -4 5 1.14 10.89
-6 -4 -6 13.97 11.79
6 -4 6 1.73 11.76
-6 -4 -7 2.26 10.59
6 -4 7 39.24 21.67
-6 -3 14 7.87 12.9
6 -3 -13 10.4 11.08
-6 -3 13 -4.69 9.82
-6 -3 13 5.4 10.47
6 -3 -12 1.95 9.13
-6 -3 12 -1.24 8.56
-6 -3 12 10.33 11.72
6 -3 -11 6.37 9.03
-6 -3 11 21.89 12.79
6 -3 -11 20.42 9.77
-6 -3 11 11.72 11.2
-6 -3 10 10.23 9.01
6 -3 -10 13.75 10.15
-6 -3 10 -0.09 7.34
6 -3 -10 7.6 8.46
6 -3 -9 65.95 16.43
-6 -3 9 62.99 16.75
-6 -3 9 57.89 16.16
6 -3 -9 44.8 10.9
-6 -3 8 137.27 21.81
6 -3 -8 149.38 16.24
-6 -3 8 155.32 22.97
6 -3 -8 143.58 21.9
6 -3 -8 170.53 23.74
6 -3 -7 66.86 16.24
-6 -3 7 57.84 15.41
-6 -3 7 48.61 14.14
6 -3 -7 52.29 9.65
6 -3 -7 62.01 14.51
-6 -3 6 296.93 29.23
6 -3 -6 225.59 16.33
-6 -3 6 248.46 27.78
6 -3 -6 220.05 23.35
6 -3 -6 237.26 27.92
-6 -3 5 224.41 25.17
6 -3 -5 220.28 15.08
-6 -3 5 221.05 26.04
6 -3 -5 198.41 21.9
6 -3 -5 207.04 26.66
6 -3 -4 80.95 16.78
6 -3 -4 72.86 8.48
-6 -3 4 67.67 15.1
6 -3 -4 61.27 13.23
-6 -3 4 68.17 15.19
6 -3 -3 20.82 5.63
6 -3 -3 39.85 13.3
-6 -3 3 33.95 10.94
6 -3 -3 9.9 2.15
6 -3 -3 12.01 6.96
-6 -3 3 29.57 11.55
-6 -3 2 169.1 21.16
6 -3 -2 154.71 24.81
6 -3 -2 151.33 12.68
6 -3 -2 158.47 15.91
-6 -3 1 180.27 20.34
6 -3 -1 150.46 24.99
6 -3 -1 143.54 15.22
-6 -3 1 163.16 17.01
6 -3 -1 175 17.99
-6 -3 1 131.3 12.98
6 -3 0 132 23.03
-6 -3 0 138.49 17.59
6 -3 0 125.5 17.02
-6 -3 0 125.36 14.54
-6 -3 -1 214.28 20.52
-6 -3 -1 209.01 22.84
-6 -3 -1 196.41 19.01
6 -3 1 187.03 22.53
-6 -3 -2 170.41 21.16
-6 -3 -2 203.51 20.9
6 -3 2 169.17 23.54
-6 -3 -2 172.27 18.57
-6 -3 -3 37.49 9.74
-6 -3 -3 44.06 12.7
6 -3 3 21.57 10.33
-6 -3 -4 116.34 19.43
6 -3 4 79.09 18.78
-6 -3 -5 120.55 21.49
6 -3 5 88.26 21.1
-6 -3 -6 15.91 11.53
6 -3 6 -9.28 12.6
-6 -3 -7 3.66 11.96
6 -3 7 -57.53 20.87
-6 -3 -8 18.58 13.96
6 -3 8 -25.64 17.22
6 -2 -15 -0.01 10.21
6 -2 -14 0.52 9.07
6 -2 -13 6.41 9.67
-6 -2 13 8.53 11.03
-6 -2 13 2.13 7.91
6 -2 -12 20.36 11.73
6 -2 -12 3.3 7.72
-6 -2 12 1.44 7.62
-6 -2 12 17.49 11.36
6 -2 -11 -0.66 8.92
6 -2 -11 -17.55 9.84
-6 -2 11 -6.48 8.65
-6 -2 11 4.78 9.23
6 -2 -10 58.72 14.49
-6 -2 10 49.19 13.31
6 -2 -10 14.78 8.39
-6 -2 10 63.38 16.31
6 -2 -9 78.34 16.18
-6 -2 9 92.98 16.13
6 -2 -9 68.18 12.3
-6 -2 9 94.12 18.02
6 -2 -8 29.88 10.89
-6 -2 8 31.28 9.45
6 -2 -8 44.45 9.66
-6 -2 8 46.59 13.5
-6 -2 7 341.75 30.12
6 -2 -7 264.62 18.07
-6 -2 7 293.79 27.13
6 -2 -7 283.19 28.46
-6 -2 6 242.78 25.2
6 -2 -6 232.94 14.73
-6 -2 6 199.08 13.53
-6 -2 6 265.36 24.88
6 -2 -6 265.27 22.95
6 -2 -6 259.32 26.89
-6 -2 5 189.02 22.2
6 -2 -5 133.55 9.23
-6 -2 5 104.83 7.64
-6 -2 5 171.04 19.15
6 -2 -5 152.17 16.28
6 -2 -5 152.31 20.62
-6 -2 4 206.69 22.02
6 -2 -4 154.33 7.59
-6 -2 4 195.43 20.22
6 -2 -4 175.61 16.51
6 -2 -4 178.06 22.4
-6 -2 3 466.12 32.65
6 -2 -3 368.55 15.72
6 -2 -3 425.97 26.5
6 -2 -3 481.7 35.72
-6 -2 2 201.01 20.87
6 -2 -2 149.63 8.28
6 -2 -2 181.83 13.2
-6 -2 2 171.87 12.72
6 -2 -2 211.25 24.57
6 -2 -1 7.33 7.5
-6 -2 1 8.27 4.02
6 -2 -1 7.12 2.92
6 -2 -1 7.76 4.77
-6 -2 1 -0.22 6.04
-6 -2 1 -0.11 3.59
-6 -2 0 151.47 17.6
6 -2 0 150.49 21.53
6 -2 0 120.17 11.21
-6 -2 0 138.54 15.47
-6 -2 0 151.53 13.3
6 -2 0 128.58 15.71
-6 -2 0 115.33 11.07
-6 -2 -1 602.67 33.64
6 -2 1 509.64 34.65
-6 -2 -1 540.95 31.4
-6 -2 -2 113.91 15.68
6 -2 2 98.72 17.47
-6 -2 -2 102.06 14.48
-6 -2 -3 71.48 13.77
6 -2 3 51.84 14.64
-6 -2 -3 38.71 8.94
-6 -2 -4 347.49 29.03
6 -2 4 292.5 30.17
-6 -2 -4 290.12 21.7
-6 -2 -5 9.01 9.36
6 -2 5 11.98 9.53
6 -2 5 11.74 10.2
-6 -2 -6 80.82 17.58
6 -2 6 74.23 16.49
6 -2 6 78.5 21.49
-6 -2 -7 45.62 16.45
6 -2 7 34.85 12.38
6 -2 7 22.51 13.33
-6 -2 -8 -2.14 10.19
6 -2 8 -6.39 9.17
6 -2 8 23.99 16.11
-6 -2 -9 9.64 13.83
6 -2 9 4.15 13.1
6 -1 -15 0.01 10.93
6 -1 -14 -2.22 9.31
6 -1 -13 -12.15 10.29
-6 -1 13 8.06 9.57
6 -1 -12 30.23 13.79
-6 -1 12 9.19 8.18
-6 -1 12 21.11 10.9
6 -1 -11 135.88 22.95
-6 -1 11 90.15 16.24
-6 -1 11 134.46 20.48
-6 -1 10 6.13 5.57
-6 -1 10 2.34 8.33
6 -1 -9 102.65 17.26
-6 -1 9 116.71 18.91
-6 -1 9 95.4 15.04
-6 -1 8 258.58 26.03
6 -1 -8 237.57 18.83
-6 -1 8 230.84 20.63
6 -1 -8 260.91 26.06
-6 -1 7 323.85 28.35
6 -1 -7 311.84 19.68
6 -1 -7 291.75 27.47
-6 -1 7 327.09 23.27
-6 -1 6 162.72 19.92
6 -1 -6 167.81 13.8
-6 -1 6 172.63 16.45
6 -1 -6 171.26 20.76
-6 -1 5 606.37 36.62
6 -1 -5 570.21 24.26
-6 -1 5 567.21 27.53
6 -1 -5 598.28 36.62
-6 -1 4 696.44 38.53
6 -1 -4 703.02 25.23
6 -1 -4 658.03 38.14
6 -1 -3 12.18 7.32
-6 -1 3 15.59 9.21
6 -1 -3 14.64 3.62
-6 -1 2 457.32 30.64
-6 -1 2 416.15 15.93
6 -1 -2 420.02 18.17
6 -1 -2 449.99 31.02
-6 -1 1 739.19 28.7
-6 -1 1 717.56 22.68
6 -1 -1 702.05 39.85
-6 -1 1 742.59 37.92
6 -1 0 62.8 12.92
-6 -1 0 67.2 12.53
6 -1 0 52.69 6.38
-6 -1 0 70.41 9.75
-6 -1 0 69.7 8.63
6 -1 0 62.12 13.22
-6 -1 -1 347.38 22.31
6 -1 1 283.38 16.97
6 -1 1 318.84 28.51
-6 -1 -1 329.57 20.23
-6 -1 -1 322.98 24.17
6 -1 1 315.28 27.43
-6 -1 -2 462.61 27.91
-6 -1 -2 463.34 26.36
6 -1 2 464.93 34.43
-6 -1 -2 444.08 27.81
-6 -1 -2 387.58 21.35
-6 -1 -3 132.75 17.34
-6 -1 -3 118.96 15.27
6 -1 3 120.95 18.79
-6 -1 -3 117.92 15.41
-6 -1 -3 102.17 10.32
-6 -1 -4 285.17 25.92
-6 -1 -4 273.95 24.36
6 -1 4 300.36 29.57
-6 -1 -4 278.17 22.55
-6 -1 -5 84.82 16.86
6 -1 5 72.61 16.08
-6 -1 -6 29.12 13.49
6 -1 6 17.77 10.85
6 -1 6 51.88 20.22
-6 -1 -7 11.44 11.85
6 -1 7 12.73 10.09
6 -1 7 25.33 17.46
-6 -1 -8 37.45 15.5
6 -1 8 14.62 9.13
-6 -1 -9 -2.6 13.04
6 -1 9 -0.05 9.44
6 -1 9 20.88 18.19
-6 0 14 20.92 13.39
6 0 -13 19.19 10.14
-6 0 13 30.52 16.41
6 0 -12 12.3 10.31
-6 0 12 32.37 12.36
6 0 -11 -7.1 8.65
-6 0 11 3.52 5.5
-6 0 11 4.06 8.3
6 0 -10 72.69 16.99
-6 0 10 40.32 9.24
-6 0 10 55.33 13.78
6 0 -10 47.6 12.37
-6 0 9 359.38 30.85
6 0 -9 348.52 31.37
6 0 -9 325.97 27.53
-6 0 9 342.74 22.3
6 0 -9 275.35 28.39
6 0 -8 96.23 17.87
-6 0 8 87.51 16.02
-6 0 8 76.02 10.24
6 0 -8 98.84 14.75
6 0 -8 52.91 11.99
-6 0 7 553.32 37.34
6 0 -7 552.14 32.13
-6 0 7 530.18 22.4
6 0 -7 467.17 30.67
6 0 -7 558.18 36.73
-6 0 6 864.91 45.14
-6 0 6 714.91 27.55
6 0 -6 790.26 36.97
-6 0 6 727.01 22.93
-6 0 6 697.63 30.28
6 0 -6 666.51 33.4
6 0 -6 827.16 42.79
-6 0 5 887.5 25.86
6 0 -5 923.06 38.8
-6 0 5 787.6 27.29
6 0 -5 796.53 20.06
6 0 -5 968.14 44.71
-6 0 5 963.17 47.53
-6 0 4 398.51 13.83
6 0 -4 422 15.26
-6 0 4 523.6 34.72
6 0 -4 502.86 31.71
6 0 -3 2020.91 40.32
6 0 -3 2061.19 60.68
6 0 -2 42.2 9.3
-6 0 2 22.91 3.46
6 0 -2 30.59 8.76
-6 0 2 36.79 11.06
-6 0 1 163.89 10.77
6 0 -1 184.45 19.27
-6 0 1 182.91 20.01
6 0 -1 159.4 16.71
-6 0 0 672.87 26.08
6 0 0 806.86 40.79
-6 0 0 776.97 31.86
-6 0 0 768.27 38.85
6 0 0 733.55 34.48
-6 0 -1 456.25 24.86
6 0 1 465.84 33.26
-6 0 -1 492.56 26.62
-6 0 -1 474.89 30.41
6 0 1 469.54 27.98
6 0 2 18.76 6.48
-6 0 -2 28.87 8.1
-6 0 -2 31.76 8.99
6 0 2 35.63 11.68
-6 0 -2 40.17 9.82
-6 0 -3 229.14 22.63
6 0 3 205.87 24.01
-6 0 -3 204.12 20.08
-6 0 -3 184.5 19.48
-6 0 -3 167.66 11.25
6 0 3 193.37 19.28
-6 0 -4 690.95 40.66
-6 0 -4 737.88 39.76
6 0 4 715.41 44.4
-6 0 -4 576.94 24.46
-6 0 -5 14.21 10.79
-6 0 -5 8.44 8.73
6 0 5 11.99 10.68
-6 0 -5 -4.33 5.69
-6 0 -6 138.11 22.19
-6 0 -6 187.13 23.41
6 0 6 175.64 24.74
-6 0 -6 107.53 13.38
-6 0 -7 86.05 19.03
-6 0 -7 87.39 17.49
6 0 7 109.35 21.29
-6 0 -8 -5.35 12.25
6 0 8 20.34 13.78
-6 0 -9 -18.98 15.98
6 0 9 14.16 12.42
6 0 10 16.43 13.36
-6 1 14 25.45 14.97
6 1 -14 5.22 12.56
-6 1 13 2.57 10.31
6 1 -13 -12.84 13.97
-6 1 12 21.65 12.71
6 1 -12 38.1 15.06
6 1 -12 27.73 16.17
6 1 -11 99.03 20.43
-6 1 11 99.69 21.72
6 1 -11 144.58 23.27
6 1 -11 136.99 24.36
-6 1 11 119.34 19.52
-6 1 10 24.39 11.41
6 1 -10 6.58 7.57
-6 1 10 29.46 15.44
6 1 -10 4.86 7.04
6 1 -10 2.51 12.59
-6 1 9 121.38 19.57
6 1 -9 118.84 20.2
-6 1 9 102.78 10.76
-6 1 9 133.93 24.93
6 1 -9 107.56 18.56
6 1 -9 122.41 21.85
6 1 -8 227.15 26.13
-6 1 8 215.09 29.7
6 1 -8 234.42 25.78
-6 1 8 173.45 11.34
6 1 -8 248.63 27.2
-6 1 8 171.79 21.63
-6 1 7 308.42 33.17
-6 1 7 245.93 17.73
6 1 -7 316.37 28.26
6 1 -7 295.29 26.82
-6 1 7 268.15 27.08
6 1 -7 290.42 28.2
-6 1 6 126.82 10.89
-6 1 6 161.5 23.88
6 1 -6 167.79 20.37
6 1 -6 155.77 14.41
6 1 -6 178.91 19.56
-6 1 6 150.5 19.98
6 1 -6 181.9 21.86
6 1 -5 556.83 26.2
6 1 -5 516.3 34.55
-6 1 5 497.66 34.6
6 1 -5 536.52 28.74
6 1 -5 600.28 36.18
-6 1 4 547.72 38.2
6 1 -4 526.46 28.78
6 1 -4 576.21 27.35
-6 1 4 552.61 36.23
6 1 -4 515.53 24.85
6 1 -4 549.23 32.43
6 1 -3 12.99 6.39
6 1 -3 13.04 5
-6 1 3 23.31 10.3
6 1 -3 14.23 6.12
-6 1 3 10.06 7.4
6 1 -3 16.73 5.35
-6 1 3 7.02 4.12
-6 1 2 460.76 30.56
6 1 -2 495.79 29.98
-6 1 2 469.67 32.8
6 1 -2 399.05 12.91
6 1 -2 463.94 27.23
-6 1 1 637.75 32.95
6 1 -1 696.5 31.51
6 1 -1 721.33 37.27
-6 1 1 746.24 40.21
6 1 0 53.93 9.51
-6 1 0 54.9 9.56
-6 1 0 56.84 12.26
6 1 0 59.5 12.6
6 1 1 327.25 26.78
-6 1 -1 295.19 24.09
-6 1 -1 328.88 26.92
6 1 1 270.01 17.49
6 1 1 311.38 19.32
-6 1 -1 275.64 18.24
6 1 2 496.02 34.47
-6 1 -2 501.67 31.8
6 1 2 466.6 22.71
-6 1 -2 424.95 20.02
6 1 3 103.57 17.35
-6 1 -3 93.96 15.98
-6 1 -3 67.36 7
6 1 3 86.16 10.06
6 1 4 307.42 29.94
-6 1 -4 291.03 26.77
-6 1 -4 262.94 20.55
6 1 4 259.26 17.41
6 1 5 95.05 18.94
-6 1 -5 86.26 16.52
-6 1 -5 70.47 13.23
-6 1 -6 12.2 9.02
6 1 6 2.72 9.44
-6 1 -7 21.69 11.28
6 1 7 -7.96 11.18
-6 1 -7 10.9 9.07
-6 1 -8 33.28 13.32
6 1 8 21.27 13.39
-6 1 -9 -6.77 10.46
6 1 9 17.57 13.96
6 1 10 0.1 9.79
-6 2 14 4.44 11.03
-6 2 13 -7.24 15.17
6 2 -13 20.82 14.36
6 2 -13 22.08 18.04
-6 2 12 -21.63 15.8
6 2 -12 2.65 9.76
-6 2 11 -0.9 10.68
6 2 -11 -11.8 10.32
6 2 -11 1.92 11.99
-6 2 10 18.06 9.64
-6 2 10 25.53 9.39
6 2 -10 30.07 12.99
6 2 -10 31.24 15.22
-6 2 9 74.91 19.22
-6 2 9 53.45 13.82
6 2 -9 80.5 17.82
6 2 -9 105.68 20.76
6 2 -8 30.18 10.06
-6 2 8 20.99 12.47
-6 2 8 20.89 7.94
6 2 -8 38.3 13.38
6 2 -8 40.72 14.44
6 2 -7 306.68 29.3
6 2 -7 325.4 31.75
-6 2 7 292.3 28.74
-6 2 7 260.82 31.35
6 2 -6 238.85 25.29
6 2 -6 220.09 25.98
-6 2 6 232.25 25.43
-6 2 6 206.16 26.73
6 2 -5 142.24 18.81
-6 2 5 141.52 21.65
6 2 -5 159.58 15.33
6 2 -5 151.33 22.07
-6 2 5 157.46 21.31
6 2 -4 200.72 20.6
6 2 -4 200.41 17.49
-6 2 4 196.49 23.54
-6 2 4 212.01 25.01
6 2 -3 389.98 27.1
6 2 -3 462.99 27.69
-6 2 3 465.09 34.76
-6 2 3 410.02 32.06
6 2 -2 188.99 18.68
-6 2 2 145.42 19.91
-6 2 2 147.45 18.42
6 2 -2 150.42 15.58
6 2 -1 13.66 5.03
-6 2 1 17.33 7.53
-6 2 1 2.45 7.91
6 2 -1 16.13 7.64
6 2 0 172.82 19.38
-6 2 0 145.71 16.4
6 2 0 149.68 12.62
6 2 1 540.52 19.76
-6 2 -1 558.83 29.85
6 2 1 577.23 19.96
6 2 2 98.66 16.82
-6 2 -2 82.5 13.9
6 2 2 85.1 9.59
-6 2 -2 98.05 12.24
-6 2 -3 34.72 7.08
6 2 3 43.14 12.9
-6 2 -3 16.23 8.35
6 2 4 395.39 34.98
-6 2 -4 368.63 32.52
6 2 5 31.28 13.44
-6 2 -5 42.86 14.4
-6 2 -6 90.58 17.89
6 2 6 105.35 21.12
-6 2 -7 47.1 14.79
6 2 7 63.98 18.11
-6 2 -7 39.22 12.57
-6 2 -8 17.85 11.13
6 2 8 34.31 15.26
-6 2 -9 14.3 12.51
6 2 9 6.61 13.73
-6 3 14 7.1 13.62
-6 3 13 3.17 13.54
6 3 -13 10 11.82
6 3 -13 29.17 18.19
-6 3 12 6.92 12.43
6 3 -12 -8.27 10.78
6 3 -12 20.08 16.46
-6 3 11 33.38 17.48
6 3 -11 13.12 11.05
6 3 -11 0.25 13.01
-6 3 10 5.97 13.28
6 3 -10 -6.04 10.34
-6 3 9 81.6 21.07
-6 3 9 41.53 11.82
6 3 -9 69.1 18.93
-6 3 8 146.48 25.83
-6 3 8 142.38 20.44
6 3 -8 132.47 23.65
-6 3 7 59.03 17.3
-6 3 7 35.48 12.02
6 3 -7 42.12 14.68
6 3 -6 196.82 15.44
6 3 -6 237.77 29.47
-6 3 6 246.85 31.04
6 3 -5 191.95 16.56
6 3 -5 213.07 27.33
-6 3 5 227.81 28.68
-6 3 4 52.73 14.29
6 3 -4 60.25 10.4
6 3 -4 59.73 15.22
-6 3 3 29.43 10.75
6 3 -3 25.05 7.59
-6 3 3 30.68 6.15
6 3 -2 157.72 18.35
-6 3 2 139.42 19.61
6 3 -1 227.32 22.3
-6 3 1 191.25 22.02
6 3 0 140.84 18.52
-6 3 0 141.62 18.8
6 3 1 199.6 22.81
-6 3 -1 206.78 21.98
6 3 2 184.71 23.17
-6 3 -2 156.39 22.28
-6 3 -2 156.68 18.19
-6 3 -3 14.85 6.87
6 3 3 28.15 11.44
-6 3 -3 11.73 8.44
6 3 4 107.98 19.99
-6 3 -4 105.87 20.04
6 3 5 111.81 21.24
-6 3 -5 113.75 21.8
6 3 6 25.22 13.02
-6 3 -6 33.1 15.46
-6 3 -7 17.92 11.7
6 3 7 19.79 14.23
-6 3 -8 26.01 14.37
6 3 8 28.26 15.51
-6 4 12 -8.21 15.58
6 4 -12 1.22 13.12
-6 4 11 5.01 11.36
6 4 -11 11.84 12.42
-6 4 10 28.43 14.77
6 4 -10 25.51 13.79
-6 4 9 32.68 15.4
6 4 -9 62.99 19.51
-6 4 8 15.32 13.28
6 4 -8 9.21 12.23
-6 4 7 31.86 15.88
6 4 -7 38.04 13.26
-6 4 6 39.6 15.19
6 4 -6 50.77 16.47
-6 4 5 93.67 21.34
6 4 -5 84.1 11.75
6 4 -5 95.62 19.94
-6 4 4 4 10.92
6 4 -4 7.18 6.2
6 4 -4 -0.57 8.15
-6 4 3 117.16 21.38
6 4 -3 117.39 15.32
6 4 -3 101.35 21.08
-6 4 2 46.23 13.56
6 4 -2 37.44 9.75
-6 4 1 13.2 9.29
6 4 -1 26.84 10.24
-6 4 0 86.29 16.45
6 4 0 91.42 16.2
-6 4 -1 35.81 11.79
6 4 1 40.58 12.93
-6 4 -2 4.64 7.7
6 4 2 -9.97 9.56
-6 4 -3 24.33 9.84
6 4 3 13.76 9.26
-6 4 -3 14.54 9.25
6 4 4 27.98 11.49
-6 4 -4 28.55 14.86
6 4 5 -2.03 9.71
-6 4 -5 1.83 8.86
6 4 6 7.84 12.31
-6 4 -6 13.7 13.39
-6 4 -7 16.96 13.7
6 4 7 -2.09 10.97
-6 5 10 8.66 15.52
-6 5 9 7.3 15.96
6 5 -9 1.83 12.11
-6 5 8 63.37 22.94
6 5 -8 45.05 18.71
-6 5 7 15.68 14.98
6 5 -7 17.38 13.15
-6 5 6 1.12 10.94
6 5 -6 14.66 12.68
-6 5 5 64.43 18.43
6 5 -5 61.37 17.82
-6 5 4 65.86 18.51
6 5 -4 60.85 17.65
-6 5 3 6.43 10.33
6 5 -3 12.29 7.25
6 5 -3 14.57 10.08
-6 5 2 51.42 16.73
6 5 -2 76.12 14.84
6 5 -2 53.44 18.25
-6 5 1 25.31 11.75
6 5 -1 36.46 11.33
-6 5 0 42.88 14.84
6 5 0 65.75 14.91
-6 5 -1 8.65 8.59
6 5 1 11.62 10.2
-6 5 -2 32.23 12.69
6 5 2 22.47 12.75
6 5 3 -4.34 10.45
-6 5 -3 -10.05 12.64
6 5 4 23.45 13.5
-6 5 -4 -4.24 14.14
6 5 5 18.99 16.13
-6 5 -5 28.46 16.86
-6 6 6 15.44 12.83
6 6 -6 12.73 13.07
-6 6 5 23.27 15.61
6 6 -5 21.06 15.17
-6 6 4 4.83 10.51
6 6 -4 4.16 9.97
-6 6 3 6.56 10.28
6 6 -3 12.33 11.23
-6 6 2 -0.39 10.62
6 6 -2 17.8 12.51
-6 6 1 5.16 11.67
6 6 -1 9.34 9.29
6 6 -1 2.81 9.93
-6 6 0 6.13 11.81
6 6 0 1.53 7.9
-6 6 -1 0.5 8.5
6 6 1 -5.24 9.55
-6 6 -2 2.2 9.39
6 6 2 4.72 10.79
6 6 3 7.74 9.93
7 -6 -8 29.24 16.12
7 -6 -7 -3.49 11.58
7 -6 -7 -7.38 12.56
7 -6 -6 11.57 15.19
7 -6 -6 -29.33 16.42
-7 -6 6 3.43 10.99
7 -6 -5 1.39 13.06
-7 -6 5 5.47 11.24
-7 -6 5 25.92 18.71
7 -6 -5 18.51 15.65
7 -6 -4 -26.68 16.61
7 -6 -4 7.45 10.72
-7 -6 4 9.94 11.6
7 -6 -3 37.64 19.84
-7 -6 3 4.27 10.9
7 -6 -3 8.18 10.78
7 -6 -2 -10.65 14.75
-7 -6 2 18.25 13.86
7 -6 -1 26.57 18.51
-7 -6 1 23.25 15.41
7 -5 -11 13.09 11.95
-7 -5 10 -0.06 10.64
7 -5 -10 0.01 11.73
-7 -5 9 0.58 10.57
7 -5 -9 12.72 13.5
-7 -5 9 -3.78 10.46
7 -5 -9 26.93 17.06
-7 -5 8 1.14 10.3
7 -5 -8 17.41 14.42
-7 -5 8 -2 10.72
7 -5 -8 1.85 9.41
7 -5 -7 12.94 12.24
-7 -5 7 2.14 11.65
-7 -5 7 -3.22 9.6
7 -5 -7 7.9 10.79
7 -5 -6 0.13 11.42
-7 -5 6 4.42 10.66
7 -5 -6 -8.55 13.22
-7 -5 6 -7 10.21
-7 -5 5 -3.82 9.88
7 -5 -5 -15.34 15.34
7 -5 -5 7.27 10.16
-7 -5 5 6.84 10.22
7 -5 -4 11.79 11.69
7 -5 -4 8.16 9.2
-7 -5 4 18.62 12.44
-7 -5 4 37.21 17.49
7 -5 -3 36.84 17.58
-7 -5 3 36.97 15.49
7 -5 -3 3.53 10.86
7 -5 -2 1.08 10.94
-7 -5 2 -3.49 8.55
-7 -5 2 -7.75 10.73
7 -5 -1 23.21 17
-7 -5 1 30.93 10.48
-7 -5 1 9.97 9.38
7 -5 0 15.37 15.95
-7 -5 0 27.13 11.74
7 -5 1 -7.84 15.37
7 -5 1 7.17 10.31
-7 -5 -1 -15.66 15.73
7 -5 2 18.81 13.13
-7 -5 -2 13.6 10.37
7 -5 3 -10.86 11.78
-7 -5 -3 7.59 10.6
7 -5 4 -15.79 13.91
-7 -5 -4 13.74 13.46
7 -5 5 2.73 12.31
7 -4 -13 -10.65 10.99
7 -4 -12 0.21 9.56
-7 -4 12 -5.74 10.41
7 -4 -11 3.79 9.22
-7 -4 11 8.68 10.82
-7 -4 11 14.84 14.19
7 -4 -10 6.93 11.31
-7 -4 10 10.69 11.35
-7 -4 10 4.79 10.99
-7 -4 9 35.01 15.26
7 -4 -9 31.94 13.29
7 -4 -9 57.99 18.81
-7 -4 9 34.74 14.93
-7 -4 8 49.39 16.4
7 -4 -8 47.42 17.06
7 -4 -8 61.02 16.97
-7 -4 8 61.37 17.67
-7 -4 7 17.93 10.87
7 -4 -7 13.7 10.68
7 -4 -7 2.72 8.66
-7 -4 7 18.66 11.22
7 -4 -6 64.68 18.45
7 -4 -6 40.39 13.17
-7 -4 6 87.52 19.89
-7 -4 6 78 19.71
7 -4 -5 21.66 13.06
-7 -4 5 44.56 13.66
7 -4 -5 39.59 13.04
-7 -4 5 37.37 14.44
7 -4 -4 37.5 14.89
-7 -4 4 49.15 14.53
7 -4 -4 25.82 10.61
-7 -4 4 33.86 13.75
7 -4 -3 118 25.16
7 -4 -3 67.84 16.32
-7 -4 3 105.63 19.79
7 -4 -2 87.22 22.2
7 -4 -2 57.17 11.96
-7 -4 2 68.06 15.13
-7 -4 2 46.8 11.87
7 -4 -1 23.72 14.1
-7 -4 1 27.25 11.17
7 -4 -1 30.55 10.2
-7 -4 1 28.26 9.4
7 -4 0 22.59 12.04
7 -4 0 32.22 11.71
-7 -4 0 26.26 10.03
-7 -4 0 21.07 7
7 -4 1 53.83 14.55
-7 -4 -1 23.09 9.96
-7 -4 -1 45.64 11.72
-7 -4 -1 62.58 13.01
7 -4 2 32.66 13.99
-7 -4 -2 7.17 9.3
-7 -4 -2 29.32 10.35
-7 -4 -2 44.81 13.78
-7 -4 -3 43.52 15.09
7 -4 3 35.77 14.18
-7 -4 -4 36.01 14.86
7 -4 4 17.52 13.54
-7 -4 -5 46.28 16.02
7 -4 5 18.3 15.34
-7 -4 -6 13.15 13.2
7 -4 6 -10.96 13.43
7 -3 -14 -0.01 8.97
7 -3 -13 24.86 14.56
-7 -3 13 48.44 19.26
7 -3 -12 -10.36 10.07
-7 -3 12 1.02 7.83
-7 -3 12 12.03 11.01
7 -3 -11 0.96 8.4
-7 -3 11 16.29 10.7
-7 -3 11 25.19 14.79
7 -3 -10 110.24 21.73
-7 -3 10 102.16 20.23
-7 -3 10 93.47 20.01
7 -3 -9 -0.43 8.83
-7 -3 9 -4.71 7.57
-7 -3 9 12.42 10.87
-7 -3 8 13.2 7.96
7 -3 -8 13.82 10.4
-7 -3 8 30.54 14.27
7 -3 -8 46.29 14.36
-7 -3 7 5.84 8.15
7 -3 -7 47.81 15.11
-7 -3 7 34.5 12.26
7 -3 -7 51.53 13
7 -3 -6 35.15 14.6
-7 -3 6 37.87 13.57
7 -3 -6 21.6 9.08
-7 -3 6 17.68 10.42
7 -3 -5 -1.09 9.77
-7 -3 5 18.23 11.68
7 -3 -5 -10.28 8.47
-7 -3 5 3.46 6.44
7 -3 -4 66.11 16.13
-7 -3 4 95.13 17.39
7 -3 -4 60.49 13.79
-7 -3 4 69.49 14.59
-7 -3 3 183.94 22.5
7 -3 -3 193.88 15.48
7 -3 -3 181.54 22.01
7 -3 -3 215.3 29.26
7 -3 -2 42.8 15.68
7 -3 -2 32.55 7.91
-7 -3 2 34.57 8.25
-7 -3 2 17.21 8.71
7 -3 -1 155.23 25.42
-7 -3 1 141.78 19.18
7 -3 -1 135.69 16.5
-7 -3 1 128.79 13.99
7 -3 0 132.21 24.32
7 -3 0 121.59 17.33
-7 -3 0 131.82 18.35
-7 -3 0 138.72 15.19
7 -3 1 182.98 28.73
-7 -3 -1 159.3 20.88
7 -3 1 147.76 21.03
-7 -3 -1 164.41 19.68
-7 -3 -2 91.44 14.75
-7 -3 -2 104.82 18.07
7 -3 2 97.48 19.07
-7 -3 -3 61.29 14.91
7 -3 3 37.53 13.89
-7 -3 -3 58.33 11.77
-7 -3 -4 92.76 17.7
7 -3 4 43.2 15.56
-7 -3 -5 19.3 11.86
7 -3 5 -3.06 10.85
-7 -3 -6 30.15 12.63
7 -3 6 0.01 12.8
-7 -3 -7 7.51 13.38
7 -3 7 -55.17 21.47
7 -2 -14 0.49 9.88
-7 -2 14 -1.51 10.73
-7 -2 13 11.06 11.62
7 -2 -13 5.02 10.24
-7 -2 12 18.9 11.41
7 -2 -12 48.39 16.39
7 -2 -11 60.94 17.56
-7 -2 11 51.5 15.6
-7 -2 11 43.65 12.78
7 -2 -10 37.58 13.26
-7 -2 10 55.69 14.01
-7 -2 10 42.03 13.05
7 -2 -9 111.44 20.53
-7 -2 9 78.91 15.32
-7 -2 9 92.69 18.81
7 -2 -9 60.07 11.01
-7 -2 8 252.37 28.14
7 -2 -8 187.29 15.72
-7 -2 8 245.7 25.3
7 -2 -8 210.26 26.66
-7 -2 7 49.21 12.11
7 -2 -7 56.43 15.09
-7 -2 7 45.79 13.86
7 -2 -7 24.55 5.47
-7 -2 6 238.09 26.53
-7 -2 6 239.04 23.34
7 -2 -6 245 21.74
7 -2 -6 198.35 26.11
-7 -2 5 260.96 26.58
7 -2 -5 177.24 9.38
-7 -2 5 258.49 23.98
7 -2 -5 231.25 19.28
7 -2 -5 241.19 27.07
7 -2 -4 14.69 9.5
7 -2 -4 8.47 4.76
-7 -2 4 22.01 10.66
7 -2 -3 15.44 8.01
7 -2 -3 15.43 3.64
-7 -2 3 21.13 10.88
-7 -2 3 10.34 3.61
7 -2 -3 10.54 5.56
-7 -2 2 813.94 43.6
-7 -2 2 712.8 22.24
7 -2 -2 794.42 29.16
7 -2 -2 872.68 51.99
7 -2 -1 62.52 15.71
7 -2 -1 30.58 4.38
-7 -2 1 61.35 13.6
7 -2 -1 63.21 10.74
7 -2 0 3.75 8.38
-7 -2 0 7.52 6.74
-7 -2 0 -2.73 5.5
7 -2 0 11.42 6.32
-7 -2 -1 312.37 25.02
7 -2 1 256.6 25.78
-7 -2 -1 300.1 25.68
7 -2 1 311.88 33.11
-7 -2 -2 224.14 22.4
7 -2 2 169.83 23.6
-7 -2 -2 197.72 20.34
-7 -2 -3 63.91 13.2
7 -2 3 59.15 16.03
-7 -2 -3 52.15 10.98
-7 -2 -4 18.69 9.35
7 -2 4 4.42 8.36
-7 -2 -4 25.67 8.88
7 -2 4 7.88 9
-7 -2 -5 91.78 18
7 -2 5 75.18 17.76
7 -2 5 56.53 18.14
-7 -2 -6 21.39 12.13
7 -2 6 1.88 9.22
7 -2 6 5.74 10.43
-7 -2 -7 5.92 11.88
7 -2 7 0.05 11.98
7 -2 7 9.19 12.69
-7 -2 -8 1.09 10.98
7 -2 8 18.89 17.08
7 -1 -14 8.76 10.37
7 -1 -13 30.51 13.79
-7 -1 13 32.88 13.74
7 -1 -12 24.74 12.66
-7 -1 12 14.29 9.67
7 -1 -11 9.51 11.3
-7 -1 11 10.3 10.1
-7 -1 10 228.7 27.68
-7 -1 10 183.07 20.43
7 -1 -10 206.58 26.51
7 -1 -9 86.48 17.94
-7 -1 9 93.35 14.11
-7 -1 9 117.54 20.14
7 -1 -9 83.81 12.65
-7 -1 8 8.28 5.96
7 -1 -8 0.55 8.98
-7 -1 8 16.4 10.07
7 -1 -8 16.84 6.27
-7 -1 7 215.34 25.41
7 -1 -7 226.38 17.8
-7 -1 7 214.7 18.7
7 -1 -7 202.73 24.1
-7 -1 6 313.49 29.25
7 -1 -6 279.64 19.08
-7 -1 6 284.8 20.17
7 -1 -6 281.16 28.91
7 -1 -5 19.66 10.43
-7 -1 5 21.87 10.41
7 -1 -5 9.26 4.52
-7 -1 4 413.11 32.58
7 -1 -4 391.82 31.53
7 -1 -3 192.46 11.08
7 -1 -3 191.47 10.23
7 -1 -3 247 24.8
-7 -1 3 245.87 25.31
7 -1 -2 37.15 10.45
-7 -1 2 42.24 7.53
-7 -1 2 44.58 6.22
7 -1 -2 49.73 7.73
7 -1 -2 29.76 4.99
-7 -1 1 315.37 19.35
-7 -1 1 316.47 17.18
-7 -1 1 298.12 27
7 -1 -1 300.61 27.51
-7 -1 0 675.06 29.76
7 -1 0 708.9 43.67
-7 -1 0 694.2 28.03
-7 -1 0 702.9 38.71
7 -1 0 706.67 42.02
7 -1 1 21.05 10.08
-7 -1 -1 23.85 8.26
7 -1 1 19.55 5.09
7 -1 1 29.74 11.4
-7 -1 -1 29.32 7.74
-7 -1 -1 15.94 7.88
7 -1 2 137.47 19.12
-7 -1 -2 142.12 17.11
-7 -1 -2 153.09 16.21
7 -1 2 129.71 20.42
-7 -1 -2 135.89 17.17
7 -1 3 144.14 21.48
-7 -1 -3 164.69 20.01
-7 -1 -3 140.25 17.2
7 -1 3 114.85 19.66
-7 -1 -3 126.08 16.64
-7 -1 -4 97.73 17.14
-7 -1 -4 116.46 16.28
-7 -1 -4 121.74 16.9
7 -1 4 110.98 19.98
-7 -1 -5 15.41 10.08
7 -1 5 0.6 9.81
-7 -1 -6 31.6 14.78
7 -1 6 17.62 10.75
7 -1 6 47.03 18.53
-7 -1 -7 37.93 16.78
7 -1 7 28.52 13.5
-7 -1 -8 13.4 14.75
7 -1 8 1.83 10.44
7 -1 8 33.81 20.43
-7 -1 -9 4.77 14.82
7 -1 9 9.23 12.93
-7 0 15 21.65 17.49
7 0 -14 -17.88 12.53
-7 0 14 24.1 16.15
7 0 -13 -16.65 10.99
-7 0 13 29.12 17.38
7 0 -12 21.66 11.3
-7 0 12 45.67 14.58
7 0 -11 90.2 19.19
-7 0 11 79.21 17.49
7 0 -11 94.46 17.48
7 0 -10 25.04 12.79
-7 0 10 -1.84 9.17
7 0 -10 8.55 6.86
7 0 -9 94.61 19.45
-7 0 9 55.6 8.88
-7 0 9 72.18 17.39
7 0 -9 59.63 12.49
7 0 -8 339.72 27.53
-7 0 8 300.04 17.37
-7 0 8 331.43 31.96
7 0 -8 352.99 31.66
7 0 -7 0.76 6.81
-7 0 7 6.21 4.91
-7 0 7 8.18 9.38
7 0 -7 9.01 6.21
-7 0 7 3.16 2.68
-7 0 6 705.72 24.78
7 0 -6 819.8 39.85
-7 0 6 654.54 27.34
-7 0 6 832.86 48.77
7 0 -6 839.96 45.9
7 0 -5 27.53 10.27
-7 0 5 14.99 9.51
-7 0 5 11.32 3.33
7 0 -5 9.31 2.44
7 0 -4 42.92 11.97
-7 0 4 41.58 13.15
7 0 -4 29.2 4.86
-7 0 4 15.43 2.55
7 0 -3 381.28 19.91
-7 0 3 399.16 32.34
7 0 -3 394.58 29.24
7 0 -2 719.84 40.72
-7 0 2 675.41 40.59
7 0 -2 667.02 36.36
7 0 -1 39.08 9.73
-7 0 1 39.22 6.3
7 0 -1 41.85 11.81
-7 0 1 46.18 12.75
7 0 0 109.8 15.15
-7 0 0 97.07 11.38
-7 0 0 111.77 13.39
7 0 0 98 16.93
-7 0 0 110.25 16.85
7 0 0 66.57 6.42
-7 0 -1 1135.04 41.94
7 0 1 1202.88 55.49
-7 0 -1 1170.58 43.91
-7 0 -1 1170.5 51.49
7 0 1 1176.39 47.52
-7 0 -2 198.25 20.18
7 0 2 182.8 24.1
-7 0 -2 209.02 20.44
-7 0 -2 199.42 21.75
7 0 2 213.1 20.91
-7 0 -3 131.76 18.31
-7 0 -3 127.75 18.31
-7 0 -3 135.81 17.05
7 0 3 146.04 21.71
7 0 3 128.85 17.47
-7 0 -4 212.28 24.52
-7 0 -4 250.37 24.39
7 0 4 265.63 30.6
7 0 4 247.08 23.49
7 0 5 26.88 8.7
-7 0 -5 24.18 10.87
-7 0 -5 32.68 11.74
7 0 5 27.76 12.86
-7 0 -6 20.79 12.24
-7 0 -6 26.7 11.3
7 0 6 28.21 13.56
-7 0 -7 29.21 13.09
-7 0 -7 38.26 13.71
7 0 7 56.76 17.59
-7 0 -8 6.91 11.78
7 0 8 30.96 14.82
7 0 9 19.29 14.68
7 0 10 12.43 12.65
-7 1 15 5.67 12.98
-7 1 14 9.92 11.97
7 1 -14 -15.53 14.86
-7 1 13 39.16 17.93
7 1 -13 4.68 12.09
7 1 -12 -1.48 11.43
-7 1 12 30.81 15.03
7 1 -12 10.76 11.08
7 1 -12 5.81 12.03
7 1 -11 -6.67 9.63
-7 1 11 11.93 13.54
7 1 -11 9.49 8.82
7 1 -11 -0.19 10.12
-7 1 11 11.16 9.89
-7 1 10 230.03 32.23
7 1 -10 178.67 25.89
7 1 -10 201.88 26.11
-7 1 10 224.68 28.39
7 1 -10 181.8 26.04
7 1 -9 95.2 19.78
-7 1 9 154.88 26.87
7 1 -9 102.89 18.74
7 1 -9 123.44 20.81
-7 1 9 93.23 19.58
7 1 -8 28.8 12.04
-7 1 8 35.24 15.99
7 1 -8 6.98 8.22
7 1 -8 20.74 10.36
-7 1 8 12.88 10.2
-7 1 7 192.82 28.35
7 1 -7 167.32 22.05
7 1 -7 180.84 20.78
-7 1 7 177.68 24.02
7 1 -7 190.54 23.83
7 1 -6 334.58 29.53
7 1 -6 320.39 20.66
-7 1 6 309.37 30.5
7 1 -6 323.01 24.19
7 1 -6 359.35 30.87
7 1 -5 -4.55 8.18
7 1 -5 5.28 3.45
7 1 -5 2.63 6.54
-7 1 5 -8.1 8.72
7 1 -5 8.74 6.32
-7 1 4 408.72 34.83
7 1 -4 427.23 28.68
7 1 -4 426.66 25.49
-7 1 4 395.42 33.73
7 1 -4 419.52 20.21
7 1 -4 436.09 30.68
-7 1 3 230.52 25.72
7 1 -3 249.33 22.86
-7 1 3 253.5 26.68
-7 1 3 207.69 14.84
7 1 -3 216.09 10.95
7 1 -3 271.98 23.4
7 1 -2 57.86 11.23
-7 1 2 77.87 15.29
7 1 -2 54.01 12.22
-7 1 2 47.42 13.21
-7 1 1 298.48 24.64
7 1 -1 327.49 27.7
-7 1 1 319.38 29.36
7 1 -1 320.57 23.41
-7 1 0 527.95 29.72
7 1 0 650.45 39.59
-7 1 0 624.71 40.18
7 1 0 618.05 31.37
7 1 1 42.91 8.69
-7 1 -1 27.95 6.6
-7 1 -1 28.25 10.56
7 1 1 42.24 11.92
-7 1 -1 31.53 9.82
7 1 1 25.44 5.8
7 1 2 126.16 19.37
-7 1 -2 120.55 17.17
7 1 2 97.35 12.05
-7 1 -2 96.93 10.45
7 1 3 122.36 21.28
-7 1 -3 114.01 17.61
-7 1 -3 93.68 11.1
7 1 3 99.17 12.07
-7 1 -4 156.31 21.05
7 1 4 165.68 24.26
7 1 5 16.36 11.43
-7 1 -5 9.21 8.32
-7 1 -6 36.67 11.69
7 1 6 34.72 14.56
-7 1 -7 45.41 15.78
7 1 7 36.39 17.06
-7 1 -8 9.23 12.53
7 1 8 26.71 14.51
7 1 9 23 15.96
-7 2 14 -60.39 21.28
-7 2 13 -2.65 14.35
7 2 -13 27.84 14.93
7 2 -13 16 17.82
-7 2 12 1.91 13.57
7 2 -12 27.98 12.76
-7 2 11 48.72 17.28
7 2 -11 57 17.46
7 2 -11 89.26 22.1
7 2 -10 29.91 12.36
-7 2 10 28.4 12.91
-7 2 10 1.78 9.22
7 2 -10 46.91 14.73
7 2 -10 48.42 16.56
7 2 -9 67.99 16.9
-7 2 9 73.16 19.55
-7 2 9 59.36 14.5
7 2 -9 100.76 20.56
7 2 -9 84.96 19.32
7 2 -8 190.75 25.29
-7 2 8 172.5 28.16
-7 2 8 144.94 22.3
7 2 -8 216.57 27.82
7 2 -8 180.9 23.35
7 2 -7 31.07 11.6
-7 2 7 40.45 13.5
-7 2 7 9.12 8.07
7 2 -7 33.06 12.17
7 2 -7 30.9 11.46
7 2 -6 199.3 24.28
7 2 -6 215.16 26.49
-7 2 6 218.95 27.58
-7 2 6 199.41 27.74
7 2 -5 200.09 23.71
7 2 -5 193.25 18.9
7 2 -5 175.89 24.45
-7 2 5 226.29 27.11
-7 2 5 193.08 26.82
7 2 -4 27.78 9.63
-7 2 4 24.62 10.81
7 2 -4 14.8 6.52
-7 2 4 26.23 12.07
7 2 -3 27.68 9.72
-7 2 3 9.78 8.26
-7 2 3 20.94 10.96
7 2 -3 17.28 8.03
7 2 -2 858.09 42.39
-7 2 2 874.35 50.58
-7 2 2 705.91 41.74
7 2 -2 754.25 36.96
7 2 -1 23.86 6.62
-7 2 1 27.74 8.57
-7 2 1 15.77 9.43
7 2 -1 32.24 10.87
7 2 0 11.23 5.04
-7 2 0 16.51 7.79
7 2 0 19.3 11.22
7 2 1 309.16 29.81
-7 2 -1 261.43 21.48
7 2 1 262.97 15.56
7 2 2 249.77 27.91
-7 2 -2 187.82 23.3
-7 2 -2 195.15 17.69
7 2 3 59.79 16.92
-7 2 -3 59.47 14.91
7 2 4 23.7 12.23
-7 2 -4 53.17 15.39
7 2 5 118.05 21.71
-7 2 -5 130.26 21.53
7 2 6 15.33 12.47
-7 2 -6 7.71 8.38
-7 2 -7 28.5 14.31
7 2 7 26.96 15.08
-7 2 -8 14.67 12.15
7 2 8 16.44 14.78
-7 3 13 16.42 16.05
7 3 -13 18.46 15.78
7 3 -13 13.3 16.08
-7 3 12 4.78 11.99
7 3 -12 -13.23 11.99
7 3 -12 7.81 14.16
-7 3 11 23.92 14.89
7 3 -11 7.17 10.26
7 3 -11 6.01 13
-7 3 10 90.1 22.97
7 3 -10 68.73 19.42
7 3 -10 81.6 19.42
-7 3 9 1.22 11.99
-7 3 9 2.01 8.67
7 3 -9 8.32 12.11
-7 3 8 11.49 10.97
-7 3 8 14.21 9.66
7 3 -8 9.27 8.43
-7 3 7 17.45 11.98
-7 3 7 -2.54 9.72
7 3 -7 13.85 10.33
-7 3 6 39.24 15.38
-7 3 6 46.27 13.83
7 3 -6 33.49 8.51
7 3 -6 18.65 11.01
-7 3 5 10.91 9.78
-7 3 5 -8.25 11.4
7 3 -5 11.22 5.93
7 3 -5 -2.95 9.3
-7 3 4 121.25 21.96
7 3 -4 108.35 15.19
7 3 -3 185.53 20.27
-7 3 3 169.25 23.6
-7 3 2 36.92 11.22
7 3 -2 58.63 12.66
-7 3 1 94.49 17.01
7 3 -1 134.78 18.79
7 3 0 163.74 22.52
-7 3 0 146.84 19.84
7 3 1 170.79 23.42
-7 3 -1 151.61 19.17
-7 3 -2 60.93 12.24
7 3 2 90.86 18.23
-7 3 -2 50.25 13.33
7 3 3 73.89 18.53
-7 3 -3 64.09 16.45
7 3 4 106.01 21.47
-7 3 -4 111.38 20.92
7 3 5 54.35 17.18
-7 3 -5 21.62 12.01
7 3 6 32.96 15.74
-7 3 -6 39.83 16.1
-7 3 -7 9.41 11.72
7 3 7 13.09 11.29
7 4 -12 -7.97 13.97
-7 4 11 8.54 12.47
7 4 -11 7.08 9.91
-7 4 10 -2.66 14.1
7 4 -10 -15.1 14.32
-7 4 9 9.03 10.85
7 4 -9 21.22 15.12
-7 4 8 41.86 18.31
7 4 -8 67.16 20.56
-7 4 7 24.87 15.02
7 4 -7 13.1 11.6
-7 4 6 79.65 21.43
7 4 -6 58.53 17.35
-7 4 5 30.06 14.75
7 4 -5 31.6 8.79
7 4 -5 24.3 12.7
-7 4 4 42.87 15.42
7 4 -4 44.92 10.42
7 4 -4 15.15 10.24
-7 4 3 76.57 18.58
7 4 -3 126.12 17.66
-7 4 2 41.43 13.61
7 4 -2 66.71 14.23
-7 4 1 7.17 6.93
7 4 -1 10.2 8.51
-7 4 0 16.27 10.24
7 4 0 28.48 12.34
-7 4 -1 44.97 11.86
7 4 1 59.89 15.49
-7 4 -2 12.88 9.58
-7 4 -2 -12.97 12.73
7 4 3 51.53 15.87
-7 4 -3 40.68 15.06
7 4 4 45.06 17.42
-7 4 -4 17.63 12.53
7 4 5 27.64 16.22
-7 4 -5 38.84 17.09
-7 5 9 -10.93 15.69
7 5 -9 -3.02 10.12
-7 5 8 -5.81 13.56
7 5 -8 -2.25 10.8
-7 5 7 -15.19 14.52
7 5 -7 -10.51 12.77
-7 5 6 31.36 15.89
7 5 -6 11.16 10.88
-7 5 5 -6.3 12.89
7 5 -5 4.42 9.55
-7 5 4 13.26 12.67
7 5 -4 15.01 12.13
-7 5 3 -1.13 10.01
7 5 -3 15.62 8.94
7 5 -3 7.68 10.4
-7 5 2 -3.75 8.59
7 5 -2 9.33 9.31
-7 5 1 12.57 10.75
7 5 -1 26.12 11.11
-7 5 0 34.22 13.81
7 5 0 38.93 13.88
-7 5 -1 -0.74 7.84
7 5 1 10.95 10.57
7 5 2 27.32 13.35
-7 5 -2 12.64 11.41
7 5 3 11.51 12.48
-7 5 -3 -28.06 14.96
7 5 4 5.46 12.05
-7 6 5 11.04 13.3
7 6 -5 17.81 12.4
-7 6 4 -28.72 16.09
7 6 -4 -7.24 11.68
-7 6 3 0.76 10.35
7 6 -3 8.21 11.21
-7 6 2 0.03 10.29
7 6 -2 4.24 11.86
-7 6 1 7.79 13.48
7 6 -1 12.97 10.79
7 6 -1 14.12 15.4
-7 6 0 2.73 10.89
7 6 0 -0.48 9.86
-7 6 -1 1.54 8.66
7 6 1 14.41 12.41
7 6 2 11.03 12.59
8 -6 -7 -27.03 15.96
8 -6 -6 -42.9 18.71
8 -6 -5 0.28 12.78
-8 -6 4 7.44 12.59
8 -6 -4 0.01 11.89
-8 -6 3 18.11 13.66
8 -6 -3 -25.63 15.79
-8 -6 2 -0.95 13.03
-8 -5 10 -26.89 15.63
8 -5 -10 -9.18 12.32
-8 -5 9 11.9 14.12
8 -5 -9 34.38 18.7
8 -5 -9 23.02 14.82
8 -5 -8 27.92 18.06
-8 -5 8 19.17 17.61
8 -5 -8 11.16 14.35
-8 -5 8 10.25 11.41
8 -5 -7 27.47 15.19
-8 -5 7 20.31 13.56
8 -5 -7 2.87 11.09
-8 -5 7 12.49 11.81
8 -5 -6 23.87 15.61
-8 -5 6 45.3 16.91
8 -5 -6 22.01 10.47
-8 -5 6 49.76 18.64
8 -5 -5 3.62 12.04
-8 -5 5 31.83 15.46
8 -5 -5 14.83 13.29
8 -5 -4 -3.32 12.21
-8 -5 4 10.17 12.83
8 -5 -4 8.05 12.06
-8 -5 3 1.92 10.11
8 -5 -3 8.91 10.44
8 -5 -2 47.7 20.3
-8 -5 2 44.16 15.55
8 -5 -1 25.81 19.59
-8 -5 1 16.57 11.79
8 -5 0 4.61 14.4
-8 -5 0 0.94 9.4
8 -5 1 21.34 16.64
-8 -5 -1 -2.66 10.82
8 -5 2 7.91 12.27
-8 -5 -2 4.19 10.58
-8 -5 -3 10.01 14.14
8 -4 -12 -8.34 11.34
-8 -4 11 2.68 10.54
8 -4 -11 9.44 11.67
-8 -4 11 7.99 14.5
-8 -4 10 -0.29 9.02
8 -4 -10 6.22 10.49
-8 -4 10 20.5 15.15
-8 -4 9 -1.39 8.61
8 -4 -9 13.59 12.01
-8 -4 9 18.47 13.82
8 -4 -8 11.99 12.17
-8 -4 8 17.96 13.27
8 -4 -8 18.81 12.99
-8 -4 8 8.99 9.04
8 -4 -7 44.65 18.25
-8 -4 7 62.01 18.27
8 -4 -7 52.98 15.26
-8 -4 7 38.62 15.74
8 -4 -6 21.31 11.61
-8 -4 6 25.51 13.68
8 -4 -6 4.31 7.89
-8 -4 6 9.72 9.42
8 -4 -5 29.29 14.61
-8 -4 5 35.78 15.52
8 -4 -5 12.89 9.02
8 -4 -4 79.19 21.74
-8 -4 4 99.35 20.37
8 -4 -4 65.75 16.05
8 -4 -3 62.3 19.77
-8 -4 3 47.59 14.94
8 -4 -3 34.1 12.38
8 -4 -2 18.23 16.43
-8 -4 2 20.49 9.4
8 -4 -1 35.46 15.03
-8 -4 1 40.89 12.7
8 -4 0 41.62 19.2
-8 -4 0 34.49 13.03
-8 -4 0 60.32 15.6
8 -4 1 -4.71 11.76
8 -4 1 12.84 10.58
-8 -4 -1 -6.25 12.41
-8 -4 -1 17.53 10.77
8 -4 2 4.5 14.42
-8 -4 -2 21.42 11.7
8 -4 2 16.91 11.48
-8 -4 -3 42.09 14.65
8 -4 3 21.33 12.87
-8 -4 -4 36.09 17.43
8 -4 4 -21.72 14.46
-8 -4 -5 -0.54 10.04
8 -4 5 0.01 10.89
8 -4 6 7.25 13.38
-8 -3 13 -0.36 11.91
8 -3 -13 -11.3 11.4
8 -3 -12 3.38 10.57
-8 -3 12 -3.7 11.87
8 -3 -11 12.73 11.49
-8 -3 11 11.79 11.53
-8 -3 10 -0.22 7.54
8 -3 -10 16.79 13.04
-8 -3 10 -6.94 9.6
-8 -3 9 15.87 9.05
8 -3 -9 25.62 14.05
-8 -3 9 18.89 11.51
-8 -3 8 14.06 9.22
8 -3 -8 41.22 16.09
-8 -3 8 31.68 14.21
8 -3 -7 42.59 15.81
-8 -3 7 20.1 12
8 -3 -7 32.96 11.92
-8 -3 7 17.34 8.98
8 -3 -6 81.87 20.06
-8 -3 6 61.05 16.27
8 -3 -6 71.99 13.82
-8 -3 6 74.49 16.51
-8 -3 5 97.49 19.58
8 -3 -5 97.31 20.64
8 -3 -5 76.29 13.55
8 -3 -4 4.43 9.01
8 -3 -4 4.16 6.14
-8 -3 4 23.96 11.78
8 -3 -3 59.82 16.98
-8 -3 3 60.89 15.12
8 -3 -3 53.96 12.72
-8 -3 2 226.51 26.06
8 -3 -2 216.7 31.37
8 -3 -1 3.24 10.94
8 -3 -1 8.21 6.24
-8 -3 1 12 9.06
8 -3 0 -3.01 9.48
-8 -3 0 8.17 8.9
-8 -3 0 -4.98 8.82
8 -3 0 3.79 5.96
8 -3 1 145.87 26.22
-8 -3 -1 169.27 22.11
8 -3 1 140.59 21.84
-8 -3 -1 158.88 21.17
8 -3 2 12.71 10.26
-8 -3 -2 43.72 13.58
8 -3 2 34.39 14.43
-8 -3 -2 25.25 10.98
-8 -3 -3 65.78 16.25
8 -3 3 34.17 14.6
-8 -3 -4 18.61 9.28
8 -3 4 4.75 11.64
-8 -3 -5 22.15 13.64
8 -3 5 9.9 11.09
-8 -3 -6 -1.38 10.41
8 -3 6 -27.84 17.02
-8 -2 14 12.4 14.36
8 -2 -13 25.29 14.78
-8 -2 13 19.44 13.07
8 -2 -12 6.46 9.76
-8 -2 12 10.91 11.09
8 -2 -11 30.8 14.18
-8 -2 11 31.83 13.18
8 -2 -10 20.89 11.6
-8 -2 10 25.91 12.41
-8 -2 9 3.04 6.01
8 -2 -9 0.79 8.41
-8 -2 9 9.53 9.16
-8 -2 8 43.83 10.91
8 -2 -8 30.16 12.7
-8 -2 8 59.7 16.54
8 -2 -7 46.78 14.32
-8 -2 7 48.11 14.51
-8 -2 7 36.85 10.45
8 -2 -6 145.58 23.58
-8 -2 6 122.21 17.22
-8 -2 6 138.28 21.1
-8 -2 5 212.44 25.97
8 -2 -5 231.92 18.45
8 -2 -5 208.46 27.74
-8 -2 4 226.27 26.23
8 -2 -4 188.13 16.2
8 -2 -4 204.36 26.27
8 -2 -3 148.46 22.72
-8 -2 3 160.34 22.53
8 -2 -3 125.56 13.91
8 -2 -2 35.78 12.75
8 -2 -2 35.23 7.29
-8 -2 2 46.18 14.13
-8 -2 1 492.99 30.79
8 -2 -1 493.32 29.78
8 -2 -1 492.91 41.57
-8 -2 1 465.24 35.52
8 -2 0 61.9 16.28
-8 -2 0 65.59 14.72
-8 -2 0 35.28 9.19
8 -2 0 48.39 11.73
8 -2 1 -0.44 8.63
-8 -2 -1 20.19 8.93
8 -2 1 8.75 7.68
-8 -2 -1 25.52 10.88
8 -2 2 128.75 23.12
-8 -2 -2 117.7 17.84
8 -2 2 82.38 18.39
-8 -2 -2 103.63 16.63
8 -2 3 23.8 12.04
-8 -2 -3 28.64 11.65
8 -2 3 21.73 11.1
-8 -2 -3 20.92 7.8
-8 -2 -4 25.72 10.68
8 -2 4 21.68 12.82
-8 -2 -5 27.72 12.95
8 -2 5 9.29 12.37
8 -2 5 26.75 15.96
-8 -2 -6 23.27 12.63
8 -2 6 4.33 10.05
8 -2 6 10.66 13.36
-8 -2 -7 1.61 11.25
8 -2 7 -15.31 13.24
8 -2 7 2.37 11.92
8 -1 -14 -7.58 10.65
8 -1 -13 7.96 9.89
-8 -1 13 -4.17 9.67
8 -1 -12 50.52 17.64
-8 -1 12 74.98 18.75
8 -1 -11 20.37 12.79
-8 -1 11 22.03 11.84
8 -1 -10 43.39 14.67
-8 -1 10 60.95 16.66
-8 -1 9 202.02 26.03
8 -1 -9 191.94 25.93
8 -1 -8 43.27 13.71
-8 -1 8 59.84 14.81
8 -1 -8 61.94 10.29
-8 -1 8 54.09 10.15
8 -1 -7 168.18 23.26
-8 -1 7 179.32 24.69
8 -1 -7 181.47 16.83
-8 -1 7 176.78 16.47
-8 -1 6 232.57 27.42
8 -1 -6 232.94 19.2
8 -1 -6 235.24 26.92
8 -1 -5 145.15 21.04
-8 -1 5 176.12 24.07
8 -1 -4 12.78 10.01
-8 -1 4 9.16 9.75
8 -1 -3 216.98 10.18
8 -1 -3 259.52 14.3
8 -1 -3 288.11 28.81
-8 -1 3 333.17 31.38
-8 -1 2 362.26 20.57
-8 -1 2 384.5 19.19
8 -1 -2 361.3 22.35
-8 -1 2 369.49 32.67
8 -1 -2 375.38 32.81
8 -1 -1 25.8 9.76
-8 -1 1 26.66 7.05
-8 -1 1 25.47 6.08
-8 -1 1 37.69 12.04
8 -1 0 53.63 13.83
-8 -1 0 49.32 9.41
8 -1 0 24.02 9.54
-8 -1 0 47.12 8.81
-8 -1 0 50.24 13.54
-8 -1 -1 439.63 28.12
8 -1 1 424.84 37.95
-8 -1 -1 441.09 26.37
-8 -1 -1 382.96 31.29
8 -1 1 425.5 35.44
8 -1 2 10.62 9.77
-8 -1 -2 35.25 11.01
8 -1 2 10.58 8.91
-8 -1 -2 15.75 6.94
-8 -1 -2 15.98 9.11
8 -1 3 17.61 9.38
-8 -1 -3 20.41 10.19
8 -1 3 6.9 10.56
-8 -1 -3 14.85 7.57
-8 -1 -3 26.27 9.75
8 -1 4 85.37 17.68
-8 -1 -4 51.14 14.38
-8 -1 -4 45.25 11.35
-8 -1 -4 66.09 14.01
8 -1 4 42.96 14.11
8 -1 5 40.04 13.54
-8 -1 -5 35.97 14.28
8 -1 5 33.2 13.53
-8 -1 -6 33.66 16.18
8 -1 6 -2.13 11.16
8 -1 6 48.41 21.81
-8 -1 -7 23.6 14.18
8 -1 7 -0.77 10.75
8 -1 7 23.97 17.89
-8 -1 -8 -11.86 13.01
8 -1 8 -5.48 11.42
8 0 -14 13.07 13.63
-8 0 14 55.59 21.69
8 0 -13 6.98 9.15
-8 0 13 17.98 13.37
8 0 -12 20.04 12.12
-8 0 12 5.72 12.11
8 0 -11 76.03 18.72
-8 0 11 63.53 18.06
8 0 -11 67.97 15.2
8 0 -10 84.18 19.1
-8 0 10 49.63 15.65
8 0 -10 60.46 13.12
8 0 -9 82.35 18.36
-8 0 9 67.23 17.64
8 0 -9 60.05 13.11
8 0 -8 55.67 14.8
-8 0 8 38.18 14.22
8 0 -8 36.8 10.45
8 0 -7 220.17 22.52
-8 0 7 225.72 29.08
8 0 -7 229.07 26.27
8 0 -6 56.69 14.15
-8 0 6 84.4 18.25
8 0 -6 65.77 13.2
-8 0 5 288.08 31.3
8 0 -5 253.61 26.45
8 0 -4 625.42 24.52
-8 0 4 663.85 44.79
8 0 -4 667.11 41.61
8 0 -3 220.07 17
-8 0 3 235 27.2
8 0 -3 260.41 25.72
-8 0 2 245.5 12.59
8 0 -2 351.91 30.61
-8 0 2 317.42 30.74
8 0 -2 305.11 26.63
-8 0 1 582.73 23.85
8 0 -1 640.86 42.27
-8 0 1 601.71 31.7
-8 0 1 609.41 41.28
8 0 -1 610.36 36.87
8 0 0 12.67 8.1
-8 0 0 20.14 7.3
8 0 0 9.62 8.9
-8 0 0 5.39 5.35
-8 0 0 -8.15 10.91
8 0 1 71.45 13.55
-8 0 -1 65.29 11.74
8 0 1 58.44 14.53
-8 0 -1 82.73 16.38
-8 0 -1 70.67 12.43
8 0 2 -0.95 6.11
-8 0 -2 14.78 8
-8 0 -2 0.33 6.76
8 0 2 9.05 10.86
-8 0 -2 1.79 5.87
8 0 3 110.62 16.95
-8 0 -3 102.91 17.12
-8 0 -3 89.53 15.96
8 0 3 102.09 19.04
-8 0 -3 123.28 17.53
-8 0 -4 3.08 7.38
8 0 4 -12.45 11.1
-8 0 -4 1.05 6.25
-8 0 -5 13.97 10.78
-8 0 -5 5.69 9.21
8 0 5 28.81 13.52
-8 0 -6 21.23 12.16
-8 0 -6 33.32 12.91
8 0 6 33.66 15.66
-8 0 -7 -22.31 13.46
-8 0 -7 8.94 10.41
8 0 7 -1.74 9.77
8 0 8 7.04 12.8
-8 1 14 6.3 13.38
8 1 -14 -39.45 17.65
8 1 -13 -9.68 11.47
-8 1 13 21.88 16.31
8 1 -13 7.22 8.99
8 1 -12 44.52 15.53
-8 1 12 81.91 24.75
8 1 -12 51.33 15.78
-8 1 12 66.28 18.8
8 1 -12 25.9 14.35
8 1 -11 27.85 13.11
-8 1 11 30.45 18.61
8 1 -11 7.05 7.87
-8 1 11 25.01 12.91
8 1 -11 1.98 9.86
8 1 -10 7.59 10.59
8 1 -10 21.72 10.41
-8 1 10 24.18 13.19
8 1 -10 13.06 10.41
-8 1 9 250.09 35.12
8 1 -9 193.97 25.52
-8 1 9 214.48 28.85
8 1 -9 168.45 22.27
8 1 -9 210.51 27.67
8 1 -8 70.27 17.13
-8 1 8 104.94 23.6
8 1 -8 69.65 15.71
-8 1 8 69.25 18.31
8 1 -8 53.3 12.57
-8 1 7 231.73 32.27
8 1 -7 162.05 21.94
-8 1 7 160.14 24.73
8 1 -7 151.88 17.94
8 1 -7 184.84 24.63
-8 1 6 241.76 32.22
8 1 -6 211.5 25.64
-8 1 6 162.44 24.07
8 1 -6 178.31 16.92
8 1 -6 182.03 23.59
-8 1 5 179.69 27.49
8 1 -5 152.06 19.8
-8 1 5 127.91 21.66
8 1 -5 118.25 11.74
8 1 -4 13.64 6.91
-8 1 4 30.71 13.87
8 1 -4 4.48 6.13
-8 1 4 9.42 8.02
-8 1 3 231.12 27.47
8 1 -3 254.91 26.48
-8 1 3 218.45 26.58
-8 1 3 200.45 14.43
8 1 -3 278.11 25.5
-8 1 2 350.38 30.41
8 1 -2 394.64 31.68
-8 1 2 437.3 37.19
8 1 -2 396.89 29.17
8 1 -1 35.84 9.17
-8 1 1 27.88 9.13
8 1 -1 21.32 10.15
-8 1 1 39.66 13.05
8 1 0 32.66 9.91
-8 1 0 15.21 7.25
-8 1 0 29.35 10.97
8 1 0 15.45 9.64
-8 1 0 11.72 6.47
8 1 1 511.99 39.36
-8 1 -1 483.09 33.61
-8 1 -1 445.33 37.52
8 1 1 465.98 28.62
8 1 2 37.86 9.22
8 1 2 41.71 13.88
-8 1 -2 30.08 10.32
8 1 3 40.66 14.93
-8 1 -3 70.65 15.78
8 1 4 69.09 17.45
-8 1 -4 62.36 14.61
8 1 5 53.3 18.12
-8 1 -5 45.64 12.72
-8 1 -6 -0.57 8.37
8 1 6 20.43 14.82
-8 1 -7 14.88 13.07
8 1 7 27.89 15.58
-8 1 -8 -2.87 9.37
8 1 8 0.39 12.86
8 2 -14 35.24 17.62
-8 2 13 8.02 11.83
8 2 -13 6.1 11.47
8 2 -13 19.37 17.49
-8 2 12 -8.38 14.28
8 2 -12 1.49 8.6
8 2 -12 24.69 16.24
8 2 -11 23 13.24
-8 2 11 4.55 13.38
-8 2 11 5.38 9.39
8 2 -11 17.8 11.53
8 2 -11 33.47 14.78
8 2 -10 24.04 11.5
-8 2 10 17.55 12.79
8 2 -10 17.56 11
8 2 -10 39.93 14.79
8 2 -9 -7.78 10.95
-8 2 9 -8.11 11.74
-8 2 9 -30.29 15.21
8 2 -9 3.41 7.93
8 2 -9 22.22 12.35
8 2 -8 24.66 10.19
-8 2 8 7.49 9.45
-8 2 8 -0.51 11.47
8 2 -8 16.92 9.86
8 2 -8 41.59 14.27
8 2 -7 46.48 14.16
-8 2 7 35.74 14.98
-8 2 7 43.21 14.52
8 2 -7 35.34 13.2
8 2 -7 62.32 14.03
8 2 -6 141.16 21.39
-8 2 6 114.75 22.98
-8 2 6 157.46 25.53
8 2 -6 146.55 24.07
8 2 -6 156.28 18.68
-8 2 5 190.8 26.95
8 2 -5 214.87 22.17
-8 2 5 209.03 28.4
8 2 -5 202.22 18.17
8 2 -5 229.15 25.71
-8 2 4 169.51 25.03
8 2 -4 183.91 21.59
-8 2 4 175.59 26.25
8 2 -4 172.1 15.06
8 2 -4 182.77 22.21
-8 2 3 120.33 19.99
8 2 -3 160.71 20.09
-8 2 3 148.37 23.49
8 2 -3 112.09 10.28
8 2 -3 129.26 18.45
8 2 -2 42.09 11.2
-8 2 2 30.4 10.05
-8 2 2 18.83 10.21
8 2 -2 28.4 10.65
8 2 -1 503.64 36.79
-8 2 1 466.7 40.35
-8 2 1 433.44 32.39
8 2 -1 414.05 27.29
8 2 0 22.08 6.37
-8 2 0 23.93 8.88
8 2 0 36.18 13.28
-8 2 -1 6.38 5.29
8 2 1 21.91 11.76
-8 2 -1 6.94 7.67
8 2 2 146.3 23.69
-8 2 -2 127.17 19.92
8 2 3 61.34 17.16
-8 2 -3 38.88 12.94
8 2 4 39.38 15.18
-8 2 -4 40.47 13.7
8 2 5 54.8 18.76
-8 2 -5 36.49 13.75
8 2 6 43.7 18.07
-8 2 -6 26.87 13
-8 2 -7 10.5 11.31
8 2 7 28.33 15.77
8 3 -13 -1.4 10.06
8 3 -13 40.15 18.16
-8 3 12 15.15 14.08
8 3 -12 -4.5 12.05
8 3 -12 33.85 19.7
-8 3 11 45.04 17.45
8 3 -11 15.71 10.18
8 3 -11 14.12 14.64
-8 3 10 5.01 11.05
-8 3 10 -18.05 13.19
8 3 -10 6.01 9.2
8 3 -10 8.93 11.21
-8 3 9 7.69 10.37
-8 3 9 18.77 11.29
8 3 -9 30.96 15.27
8 3 -9 12.63 11.84
-8 3 8 17.41 12.01
-8 3 8 16.86 11.33
8 3 -8 24.94 11.74
-8 3 7 15.49 11.38
-8 3 7 30.21 13.26
8 3 -7 27.03 13.1
-8 3 6 64.75 17.91
-8 3 6 58.3 16.68
8 3 -6 57.59 11.86
8 3 -6 63.97 18.3
-8 3 5 111.22 22.25
-8 3 5 83.61 19.78
8 3 -5 79.53 13.98
8 3 -5 82.98 19.97
-8 3 4 14.59 10.81
8 3 -4 10.63 7.22
-8 3 3 94.74 19.14
8 3 -3 83.58 16.12
8 3 -2 176.33 22.14
-8 3 2 151.28 22.43
-8 3 1 2.93 6.07
8 3 -1 19.35 9.03
-8 3 0 13.23 7.38
8 3 0 26.54 12.04
8 3 1 176.3 25.57
-8 3 -1 154.01 20.2
8 3 2 44.24 15.36
-8 3 -2 -4.68 9.99
8 3 3 49.74 16.47
-8 3 -3 34.75 13.24
8 3 4 50.46 16.56
-8 3 -4 45.36 14.73
8 3 5 21.21 13.76
-8 3 -5 37.07 16.67
8 3 6 18.63 14.01
-8 3 -6 10.51 11.87
8 4 -12 0.02 14.3
8 4 -11 -2 12.32
8 4 -11 -8.62 13
-8 4 10 3 15.88
8 4 -10 -2.05 10.02
-8 4 9 7.23 12.35
8 4 -9 12.84 10.21
-8 4 8 13.25 11.07
8 4 -8 3.72 10.01
-8 4 7 54.33 18.46
8 4 -7 51.58 17.82
-8 4 6 9.74 14.22
8 4 -6 1.58 8.79
-8 4 5 49.3 17.46
8 4 -5 45.26 16.25
-8 4 4 70.41 19.14
8 4 -4 72.16 14.12
8 4 -4 83.8 22.19
-8 4 3 50.01 16.12
8 4 -3 62.72 14.11
-8 4 2 4.16 8.59
8 4 -2 25.74 11.53
-8 4 1 46.69 14.37
8 4 -1 74.79 16.58
-8 4 0 53.73 14.57
8 4 0 68.13 17.05
-8 4 -1 10.88 7.48
8 4 1 25.91 12.84
8 4 2 6.64 12.44
-8 4 -2 -2.92 11.71
8 4 3 47.14 16.7
-8 4 -3 20.34 12.19
8 4 4 8.98 12.23
-8 4 -4 18.94 11.6
-8 5 8 22.78 15.81
8 5 -8 10.25 13.57
-8 5 7 15.98 13.85
8 5 -7 24.57 15.81
-8 5 6 39.71 18.61
8 5 -6 9.6 14.4
-8 5 5 6.39 11.66
8 5 -5 6.42 10.72
-8 5 4 22.07 16.11
8 5 -4 -0.59 10.15
-8 5 3 28.42 15.67
8 5 -3 27.69 12.47
8 5 -3 23.96 14.99
-8 5 2 29.45 12.59
8 5 -2 34.3 12.7
-8 5 1 3.86 8
8 5 -1 23.48 11.94
-8 5 0 4.33 7.97
8 5 0 10.09 11.51
8 5 1 20.14 13.38
8 5 2 31.75 16.45
-8 5 -2 8.26 11.36
-8 6 3 19.19 15.47
-8 6 2 -2.16 10.14
-8 6 1 -3.66 10.11
8 6 -1 0.01 9.65
-8 6 0 7.65 11.79
8 6 0 0.01 13.21
-9 -6 2 1.58 11.38
-9 -5 9 13.72 12.78
-9 -5 8 13.61 12.4
9 -5 -7 17.57 17.26
-9 -5 7 20.7 15.04
9 -5 -6 22.33 18.78
-9 -5 6 21.7 14.53
9 -5 -5 15.65 14.44
-9 -5 5 15.19 13.41
9 -5 -4 -9.46 16.09
-9 -5 4 13.32 11.79
9 -5 -3 3.08 13.22
-9 -5 3 -1.58 11.3
9 -5 -2 2.05 14.22
-9 -5 2 2.09 10.25
9 -5 -1 26.29 17.6
-9 -5 1 -0.28 9.08
-9 -5 0 -30.28 15.16
-9 -5 -1 -32.56 15.5
-9 -5 -2 1.67 11.97
9 -4 -10 1.29 10.74
9 -4 -9 38.8 18.18
-9 -4 9 4.49 11.43
-9 -4 9 6.21 10.31
-9 -4 8 -0.72 10.99
-9 -4 8 9.74 8.48
9 -4 -7 6.03 13.36
-9 -4 7 -10.96 11.09
-9 -4 7 10.74 11.58
9 -4 -6 37.47 19.36
-9 -4 6 24.35 13.61
9 -4 -5 25.85 15.33
-9 -4 5 20.78 13.28
9 -4 -4 -4.31 12.04
-9 -4 4 -12.42 12.49
9 -4 -3 25.35 13.66
-9 -4 3 37.73 14.88
9 -4 -2 38.43 18.99
-9 -4 2 35.13 13.26
9 -4 -1 2.41 13.29
-9 -4 1 -15.92 13.69
-9 -4 1 9.84 11.4
9 -4 0 56.44 19.12
-9 -4 0 69.07 17.47
-9 -4 0 53.07 15.49
9 -4 1 -3.08 11.81
-9 -4 -1 -0.7 9.61
9 -4 2 3.21 12.8
-9 -4 -2 23.49 13.44
9 -4 3 -4.59 14.37
-9 -4 -3 40.35 16.4
-9 -4 -4 0.24 10.66
9 -3 -12 -12.12 12.07
-9 -3 12 14.45 10.8
9 -3 -11 -6.08 10.64
-9 -3 11 22.77 15.32
-9 -3 10 15.61 14.68
9 -3 -10 11.15 12.2
-9 -3 9 21.34 13.71
9 -3 -9 2.45 9.51
9 -3 -8 134.85 25.38
-9 -3 8 76.57 17.21
-9 -3 8 78.37 19.06
9 -3 -7 54.16 18.44
-9 -3 7 32.11 14.99
-9 -3 7 62.18 15.83
9 -3 -6 57.46 17.86
-9 -3 6 47.89 17.23
9 -3 -5 150.42 26.65
-9 -3 5 150.26 24.53
9 -3 -4 36.26 15.43
-9 -3 4 56.48 16.55
9 -3 -3 2.58 11.78
-9 -3 3 14.26 11.48
9 -3 -2 130.11 25.54
-9 -3 2 125.57 21.75
9 -3 -1 51 17.53
-9 -3 1 48.32 14.59
-9 -3 1 50.7 12.82
9 -3 0 20.5 14.48
-9 -3 0 42.87 15.11
-9 -3 0 19.24 9.52
-9 -3 -1 36.78 12.49
9 -3 1 40.44 17.43
-9 -3 -1 37.15 12.09
9 -3 2 41.61 18.62
-9 -3 -2 59.62 16.29
9 -3 2 41.65 14.61
9 -3 3 23.91 15.83
-9 -3 -3 29.61 12.11
9 -3 3 30.47 15.22
9 -3 4 9.95 13.24
-9 -3 -4 23.24 12.3
9 -3 4 6.9 11.16
9 -3 5 1.02 11.98
-9 -3 -5 20.73 15.74
9 -3 5 0.28 14.01
-9 -3 -6 25.04 14.38
9 -3 6 -47.34 21.05
-9 -2 14 5.89 12.03
9 -2 -13 7.78 13.26
-9 -2 13 10.3 11.85
9 -2 -12 5.5 9.9
-9 -2 12 -0.89 10.31
9 -2 -11 -8.55 10.46
-9 -2 11 -0.55 10.38
9 -2 -10 8.98 9.59
-9 -2 10 21.76 11.39
9 -2 -9 124.25 24
-9 -2 9 101.45 22.49
9 -2 -8 11.87 11.21
-9 -2 8 17.78 11.02
9 -2 -7 24.84 13.73
-9 -2 7 46.21 15.92
9 -2 -6 60.08 17.04
-9 -2 6 83.59 19.14
9 -2 -5 90.69 20.32
-9 -2 5 112.57 21.01
9 -2 -4 72.99 17.58
-9 -2 4 61.52 16.94
9 -2 -3 19.82 10.36
-9 -2 3 47.94 14.77
9 -2 -2 196.95 27.71
-9 -2 2 202.19 20.01
-9 -2 2 243.47 28.91
9 -2 -1 7.1 9.72
-9 -2 1 33.38 14.71
-9 -2 1 13.48 6.92
9 -2 0 127.8 23.76
-9 -2 0 127.61 16.9
9 -2 0 93.62 16.44
-9 -2 0 92.5 17.9
9 -2 1 89.49 20.44
-9 -2 -1 85.55 14.79
9 -2 1 65.42 15.84
-9 -2 -1 78.99 15.79
9 -2 2 -2.46 10.38
-9 -2 -2 12.39 8
9 -2 2 15.84 11.8
-9 -2 -2 3.03 7.58
9 -2 3 6.13 8.74
-9 -2 -3 50.87 13.57
-9 -2 -3 42.69 12.72
9 -2 3 34.17 15.45
9 -2 4 29.9 15.08
-9 -2 -4 34.68 13.56
9 -2 4 9.37 9.61
9 -2 5 -4.75 10.36
-9 -2 -5 -0.71 9.38
9 -2 5 2.91 12.03
-9 -2 -6 5.41 10.56
9 -2 6 -0.22 11.29
-9 -2 -7 0.03 13.45
-9 -1 14 30.1 16.79
9 -1 -13 3.11 10.32
-9 -1 13 14.9 13.25
9 -1 -12 65.27 20.41
-9 -1 12 37.37 16.44
9 -1 -11 45.95 16.33
-9 -1 11 39.57 15.75
9 -1 -10 -2.58 9.65
-9 -1 10 7.19 12.29
9 -1 -9 -4.35 10.41
-9 -1 9 9.17 10.86
9 -1 -8 110 21.23
-9 -1 8 104.93 22.45
9 -1 -7 216.38 28.78
-9 -1 7 243.71 31.28
9 -1 -6 0.46 9.23
-9 -1 6 -6.78 10.07
9 -1 -6 7.23 5.81
9 -1 -5 463.24 38.53
-9 -1 5 509.23 42.01
-9 -1 4 185.94 25.8
9 -1 -4 175.81 24.72
-9 -1 3 3.35 3.56
-9 -1 3 5.9 3.95
-9 -1 2 371.67 21.06
-9 -1 2 332.72 19.64
9 -1 -2 301.5 22.53
-9 -1 2 355.54 34.05
9 -1 -2 345.53 32.7
9 -1 -1 90.16 17.4
-9 -1 1 81.79 11.82
-9 -1 1 89.76 11.58
9 -1 -1 81.31 14.69
-9 -1 1 87.76 17.67
9 -1 0 44.8 13.32
-9 -1 0 41.91 9.98
9 -1 0 39.6 11.26
-9 -1 0 43.18 9.24
-9 -1 0 26.26 11.18
9 -1 1 22.58 10.5
-9 -1 -1 22.09 9.05
9 -1 1 21.6 11.44
-9 -1 -1 31.31 8.74
-9 -1 -1 10.37 8.33
9 -1 2 116.05 21.2
-9 -1 -2 116.08 17.65
-9 -1 -2 127.91 17.13
9 -1 2 127.15 24.03
-9 -1 -2 142.75 21.51
9 -1 3 49.02 14.24
-9 -1 -3 39.92 12.85
-9 -1 -3 49.51 13.25
9 -1 3 59.16 17.38
-9 -1 -3 27.24 8.87
9 -1 4 12.07 9.89
-9 -1 -4 18.16 10.38
-9 -1 -4 10.16 8.04
-9 -1 -4 22.46 9.84
9 -1 4 36.95 16.03
-9 -1 -5 33.44 13.8
9 -1 5 25.41 14.77
9 -1 5 68.36 23.54
-9 -1 -6 18.47 12.66
9 -1 6 12.64 13.51
9 -1 6 51.44 23.75
-9 -1 -7 6.73 14.1
9 -1 7 -9.01 12.96
-9 0 13 43.93 17.33
9 0 -13 37.79 14.95
9 0 -12 35.08 15.54
-9 0 12 47.4 18.57
9 0 -11 17.02 12.32
-9 0 11 43.97 18.96
9 0 -10 83.96 18.84
-9 0 10 80.89 20.51
9 0 -9 127.56 22.88
-9 0 9 195.08 29.61
9 0 -9 153.2 20.77
9 0 -8 8.48 7.94
-9 0 8 28.86 15.37
9 0 -8 10.49 7.51
-9 0 7 41.85 16.94
9 0 -7 37.17 11.7
9 0 -7 22.79 8.94
-9 0 6 98.76 20.79
9 0 -6 78.93 17.6
9 0 -6 93.15 16.12
9 0 -5 34.37 11.46
-9 0 5 32.48 13.09
9 0 -4 -10.39 9.01
-9 0 4 -5.41 11.04
9 0 -3 22.64 10.39
-9 0 3 24.6 12.95
9 0 -2 20.39 9.59
9 0 -2 17.42 8.65
-9 0 2 14.37 10.26
9 0 -1 74.28 14.71
9 0 -1 47.99 14.13
-9 0 1 57.37 11.01
-9 0 1 37.15 12.79
9 0 0 105.26 17.01
9 0 0 58.49 15.64
-9 0 0 100.36 19.03
-9 0 0 96.61 14.56
9 0 1 86.98 15.81
-9 0 -1 61.45 11.45
-9 0 -1 63.62 12.31
9 0 1 61.01 16.93
-9 0 -1 81.86 17.73
-9 0 -1 99.98 15.5
9 0 2 -0.58 6.07
-9 0 -2 5.23 6.7
-9 0 -2 6.22 8.54
9 0 2 -4.06 9.66
-9 0 -2 -4.48 5.58
-9 0 -3 30.69 10.91
-9 0 -3 35.26 11.53
9 0 3 25.08 13.43
-9 0 -3 39.69 11.52
-9 0 -4 17.82 9.52
9 0 4 51.43 18.09
-9 0 -4 37.97 11.64
-9 0 -5 -10.92 11.25
-9 0 -5 6.67 9.31
9 0 5 -3.11 9.94
-9 0 -6 -4.09 9.91
9 0 6 1.28 10.41
-9 0 -7 -0.35 8.87
9 0 7 2.12 11.77
9 1 -14 -33.22 16.56
9 1 -13 8.64 10.94
-9 1 13 21.64 16.48
9 1 -12 25.11 12.65
-9 1 12 58.16 21.31
9 1 -12 52.18 16.31
-9 1 12 31.43 15.36
9 1 -12 1.16 10.41
9 1 -11 44.1 16.35
-9 1 11 69.18 24.58
9 1 -11 43.23 14.74
-9 1 11 49.87 17.25
9 1 -11 27.58 12.21
9 1 -10 -6.07 9.52
-9 1 10 35.69 19.41
9 1 -10 11.87 10.7
-9 1 10 18.6 12.97
9 1 -10 -24.95 13.07
9 1 -9 26.68 13.88
9 1 -9 0.71 7.16
-9 1 9 24.22 14.1
9 1 -9 3.66 7.96
9 1 -8 159.1 25.45
-9 1 8 185.62 31.6
9 1 -8 129.15 20.76
-9 1 8 111.21 22.03
9 1 -8 103.04 15.42
-9 1 7 234.74 33.25
9 1 -7 188.4 25.5
-9 1 7 207.75 29.92
9 1 -7 159.88 17.22
9 1 -7 233.59 28.68
9 1 -6 -9.59 8.34
9 1 -6 -7.68 8.39
-9 1 6 -4.49 10.63
-9 1 5 432.31 41.5
-9 1 5 462.3 41.68
9 1 -5 523.01 38.54
-9 1 4 175.29 26.53
9 1 -4 157.31 21.29
-9 1 4 141.77 23.71
9 1 -4 162.75 21.51
9 1 -3 12.62 9.11
-9 1 3 37.47 14.68
9 1 -3 10.67 8.45
-9 1 3 24.41 13.52
-9 1 2 338.33 30.62
9 1 -2 382.67 33.73
-9 1 2 390.56 36.9
9 1 -2 408 31.45
-9 1 1 107.87 17.03
-9 1 1 126.03 21.75
9 1 -1 115.84 21.08
9 1 -1 146.27 18.69
9 1 0 37.96 10.73
-9 1 0 17.53 7.23
-9 1 0 19.42 11.65
9 1 0 8.45 9.26
-9 1 0 19.39 8.42
-9 1 -1 24.97 11.55
9 1 1 41.96 14.3
-9 1 -1 29.99 11.49
9 1 2 210.05 28.83
-9 1 -2 132.14 19.78
9 1 3 55.84 18.18
-9 1 -3 55.49 14.28
9 1 4 27.42 14.61
-9 1 -4 24.26 11.51
9 1 5 67.13 19.59
-9 1 -5 45.69 14.8
9 1 6 42.19 17.97
-9 1 -6 20.12 11.34
-9 1 -7 0.43 9.45
9 2 -14 15.51 14.55
9 2 -13 14.88 14.1
9 2 -13 1.37 11.75
-9 2 12 3.37 13.33
9 2 -12 -2.89 8.99
9 2 -12 18.65 16.23
9 2 -11 -0.85 12.56
-9 2 11 7.18 11.98
-9 2 11 -17.37 14.57
9 2 -11 -8.74 10.36
9 2 -11 9.97 12.76
9 2 -10 -4.63 11.99
-9 2 10 16.41 13.35
9 2 -10 10.97 12.3
9 2 -10 28.63 14.07
9 2 -9 98.18 20.71
-9 2 9 77.51 22.96
-9 2 9 89.7 21.69
9 2 -9 114.19 22.88
9 2 -9 114.49 19.56
9 2 -8 5.37 9.32
-9 2 8 2.22 11.03
-9 2 8 16.62 11.55
9 2 -8 5.34 10.41
9 2 -8 28.3 11.68
9 2 -7 21.32 11.25
-9 2 7 31.34 16.29
-9 2 7 25.62 13.84
9 2 -7 24.8 12.95
9 2 -7 37.81 12.12
9 2 -6 58.88 15.18
-9 2 6 40.85 15.6
-9 2 6 64.68 18.52
9 2 -6 44.63 14.02
9 2 -5 90.77 18.11
-9 2 5 70.01 17.83
9 2 -5 83.57 15.84
-9 2 5 104.56 21.53
9 2 -4 64.28 14.89
-9 2 4 60.09 16.27
9 2 -4 41.02 12.39
-9 2 4 63.54 17.83
9 2 -3 27.72 10.74
-9 2 3 8.15 8
-9 2 3 9.82 11.33
9 2 -3 12.05 9.24
9 2 -2 209.43 25.54
-9 2 2 254.14 31.92
-9 2 2 176.52 23.69
9 2 -2 203.63 22.24
9 2 -1 16.56 7.84
-9 2 1 6.96 7.24
-9 2 1 -0.2 10.91
9 2 -1 8.19 9.75
-9 2 0 96 15.61
9 2 0 106.69 19.69
-9 2 0 125.29 20.34
9 2 1 109.8 21.02
-9 2 -1 69.01 15.15
9 2 2 4.06 10.04
-9 2 -2 -0.08 7.65
9 2 3 27.66 15.52
-9 2 -3 39.47 13.71
9 2 4 38.89 16.4
-9 2 -4 41.42 14.74
9 2 5 14.99 14.59
-9 2 -5 9.19 10.94
-9 2 -6 16.06 12.04
9 3 -13 0.02 14.68
9 3 -12 12.63 13.83
9 3 -12 39.24 16.93
9 3 -11 25.54 13.79
9 3 -11 27.29 17.6
-9 3 10 -27.78 18.65
-9 3 10 -4.84 9.97
9 3 -10 10.78 11.23
9 3 -10 12.85 12.42
-9 3 9 -25.93 19.4
-9 3 9 -8.92 11.39
9 3 -9 -0.74 9.51
9 3 -9 9.87 12.11
-9 3 8 60.22 19.77
9 3 -8 97.34 23.56
9 3 -8 73.59 15.66
-9 3 7 39.65 17.46
-9 3 7 21.09 11.62
9 3 -7 50.17 16.28
9 3 -6 7.33 8.99
-9 3 6 47.78 18.16
-9 3 6 19.81 12.58
9 3 -6 43.36 11.5
9 3 -6 43.17 16.56
9 3 -5 106.46 18.44
-9 3 5 145.71 25.56
-9 3 5 128.82 25.25
9 3 -5 125.14 18.64
9 3 -5 162.67 28.16
9 3 -4 48.63 11.91
-9 3 4 70.36 18.84
-9 3 4 49.55 18
9 3 -4 46.09 12.81
-9 3 3 14.9 11.94
9 3 -3 1.5 7.86
-9 3 2 129.99 21.7
9 3 -2 169.41 23.29
-9 3 1 52.26 15.32
9 3 -1 66.52 16.35
-9 3 0 3.06 6.86
9 3 0 4.13 9.27
9 3 1 48.06 17.72
-9 3 -1 32.76 13.51
9 3 2 87.42 21.62
-9 3 -2 47.25 14.72
9 3 3 50.21 17.64
-9 3 -3 52.04 17.28
9 3 4 43.78 18.27
-9 3 -4 41.05 16.1
9 4 -12 20.86 15.12
9 4 -11 -17.34 14.06
9 4 -10 16.38 14.91
-9 4 9 18.71 16.89
9 4 -9 42.41 17.89
-9 4 8 0.43 11.8
9 4 -8 13.72 13.91
-9 4 7 38.09 19
9 4 -7 11.07 11.68
-9 4 6 16.92 15.62
9 4 -6 16.56 11.57
-9 4 5 20.65 14.08
9 4 -5 22.99 14.51
-9 4 4 -4.36 10.27
9 4 -4 6.8 8.28
-9 4 3 35.86 15.59
9 4 -3 55.16 15.19
-9 4 2 60.39 17.42
9 4 -2 59.42 16.09
-9 4 1 -1.03 8.21
9 4 -1 9.57 11.5
-9 4 0 50.78 14.78
9 4 0 68.79 18.48
9 4 1 8.01 11.65
-9 4 -1 -3.49 11.44
9 4 2 7.54 12.26
-9 4 -2 8.23 9.72
9 4 3 1.08 11.89
-9 4 -3 4.02 11.5
-9 5 6 -2.79 15.2
9 5 -6 22.08 16
-9 5 5 7.64 11.79
9 5 -5 3 11.44
-9 5 4 -0.23 10.94
9 5 -4 19.11 15.4
-9 5 3 -8.74 11.39
-9 5 2 -2.15 9.48
9 5 -2 14.06 11.76
-9 5 1 -1.04 9.13
9 5 -1 0.26 9.82
9 5 0 2.9 10.7
9 5 1 3.05 12.6
-10 -5 4 17.66 15.3
-10 -5 3 20.81 14.34
-10 -5 2 7.75 11.42
-10 -5 1 -25.28 14.62
-10 -5 0 0.01 11.73
10 -4 -8 44.97 21.29
-10 -4 8 14.31 12.19
10 -4 -7 4.03 13.86
-10 -4 7 5.85 11.63
10 -4 -6 59.06 20.77
-10 -4 6 46.63 18.32
10 -4 -5 51.44 19.7
-10 -4 5 29.93 15.77
10 -4 -4 -41.73 18.44
-10 -4 4 8.89 11.49
10 -4 -3 33.78 17.81
-10 -4 3 48.67 17.28
10 -4 -2 9.57 11.64
-10 -4 2 18.38 12.5
-10 -4 1 7.66 11.75
-10 -4 1 -1.94 9.68
10 -4 0 7.6 13.28
-10 -4 0 17.16 12.12
-10 -4 0 3.04 8.66
10 -4 1 21.98 18
-10 -4 -1 31.21 14.25
-10 -4 -2 44.04 18.06
-10 -4 -3 -7.46 10.78
10 -3 -11 13.31 14.85
10 -3 -10 6.36 13.67
-10 -3 10 15.61 13.03
10 -3 -9 20.89 14.92
-10 -3 9 16.72 13.9
10 -3 -8 17.03 15.71
-10 -3 8 13.69 13.26
10 -3 -7 12.91 11.71
-10 -3 7 9.51 10.46
10 -3 -6 34.13 15.25
-10 -3 6 35.27 15.2
10 -3 -5 56.87 19.07
-10 -3 5 46.01 15.43
10 -3 -4 40.51 16.75
-10 -3 4 51.06 17.71
10 -3 -3 38.94 17.73
-10 -3 3 31.37 13.63
10 -3 -2 26.59 14.96
-10 -3 2 34.14 15.46
-10 -3 2 26.84 10.51
10 -3 -1 39.09 16.93
-10 -3 1 56 17.87
-10 -3 1 25.03 10.1
-10 -3 0 40.84 15.41
10 -3 0 24.05 15.34
-10 -3 0 44.83 12.66
10 -3 1 22.99 15.7
-10 -3 -1 15.58 10.68
-10 -3 -1 7.17 9.22
10 -3 2 14.07 14.63
-10 -3 -2 2.94 8.18
10 -3 3 14.14 13.7
-10 -3 -3 -3.5 9.25
10 -3 4 -12.02 13.1
-10 -3 -4 8.79 10.92
10 -3 5 -8.77 12.93
10 -2 -12 26.26 14.82
-10 -2 12 25.52 14.6
10 -2 -11 29.1 14.47
-10 -2 11 17.76 13.05
10 -2 -10 9.96 12.6
-10 -2 10 -13.63 14.14
10 -2 -9 29.72 14.5
-10 -2 9 19.63 12.45
10 -2 -8 164.52 27.35
-10 -2 8 180.51 28.53
10 -2 -7 8.11 10.62
-10 -2 7 15.2 12.42
10 -2 -6 34.85 15.96
-10 -2 6 21.28 12.91
10 -2 -5 225.08 30
-10 -2 5 224.47 30.92
10 -2 -4 1.68 9.39
-10 -2 4 -7.24 10.66
10 -2 -3 70 18.66
-10 -2 3 85.11 19.94
10 -2 -2 74.59 18.82
-10 -2 2 73.89 18.36
10 -2 -1 50.48 15.7
-10 -2 1 41.14 14.49
10 -2 0 2.71 8.96
-10 -2 0 1.69 8.97
10 -2 1 62.94 18.77
-10 -2 -1 34.43 12.69
10 -2 2 67.81 20.21
-10 -2 -2 45.61 13.34
10 -2 3 -0.83 10.11
10 -2 3 11.79 13.28
10 -2 4 0.05 10.46
10 -2 5 9.09 13
-10 -1 14 0.43 12.4
-10 -1 13 5.1 11.65
10 -1 -12 9.75 12.84
-10 -1 12 21.77 14.34
10 -1 -11 8.69 10.43
-10 -1 11 11.39 13.62
10 -1 -10 38.46 15.19
-10 -1 10 34.41 17.13
10 -1 -9 35 14.52
-10 -1 9 22.24 12.22
10 -1 -8 12.82 11.48
-10 -1 8 22.62 13.97
10 -1 -7 31.89 13.6
-10 -1 7 35.06 14.56
10 -1 -6 1.6 8.7
-10 -1 6 36.93 16.1
10 -1 -5 16.76 11.44
-10 -1 5 13.72 13.02
-10 -1 4 52.85 18.05
10 -1 -4 67.44 16.68
10 -1 -3 93.05 18.84
-10 -1 3 94.99 19.86
10 -1 -2 23.35 11.48
-10 -1 2 15.96 10.65
10 -1 -1 33.87 13.12
-10 -1 1 53.84 15.21
10 -1 0 138.03 23.44
10 -1 0 134.19 21.74
-10 -1 0 132.81 22.82
10 -1 1 1.99 7.64
10 -1 1 -10.69 12.68
-10 -1 -1 4.52 9.35
10 -1 1 24.02 12.51
10 -1 2 7.25 9.71
10 -1 2 0.26 10.21
-10 -1 -2 8.37 9.18
10 -1 2 34.41 15.68
-10 -1 -3 15.41 10.4
10 -1 3 30.38 13.91
10 -1 3 50.69 20.8
10 -1 4 4.93 12.53
10 -1 4 38.75 19.72
10 -1 5 -4.41 11.39
10 -1 5 18.71 18.6
-10 0 13 22.59 16.4
-10 0 12 50.2 19.35
10 0 -12 -5.63 12.11
-10 0 11 48.39 18.82
10 0 -11 19.41 14.24
-10 0 10 23.44 15.14
10 0 -10 24.46 14.27
-10 0 9 56.57 20.95
10 0 -9 40.83 14.72
-10 0 8 122.18 25.41
10 0 -8 68.85 16.81
10 0 -8 114.29 18.55
10 0 -7 5.79 7.94
10 0 -7 4.8 7.65
-10 0 7 21.87 16.15
10 0 -6 141.63 22.18
-10 0 6 127.63 25.18
10 0 -5 95.91 18.79
-10 0 5 98.53 21.79
10 0 -4 41.68 12.92
-10 0 4 44.35 16.29
10 0 -3 40.55 12.7
-10 0 3 33.84 13.58
-10 0 2 144.06 17.11
10 0 -2 161.31 26.35
-10 0 2 171.98 26.79
10 0 -2 192.52 24.38
10 0 -1 93.14 17.41
10 0 -1 68.97 19.24
-10 0 1 78.76 13.18
-10 0 1 55.21 17.07
10 0 0 -0.58 6.63
10 0 0 11.16 10.77
-10 0 0 25.28 11.9
-10 0 0 16.61 8.15
10 0 1 115.45 19.21
-10 0 -1 126.26 18.38
-10 0 -1 128.17 22.28
10 0 1 114.18 23.88
-10 0 -2 27.92 12.25
10 0 2 40.2 13.97
-10 0 -2 36.37 10.69
10 0 3 -13.48 12.53
-10 0 -3 2.64 7.35
10 0 4 7.59 10.5
-10 0 -4 6.59 8.43
-10 0 -5 6.16 8.77
10 0 5 -14.36 13.97
-10 0 -6 -0.4 8.91
10 1 -12 2.02 9.84
-10 1 12 24.99 18.07
-10 1 12 27.15 14.99
10 1 -11 9.84 11.13
-10 1 11 32.36 20.14
10 1 -11 -22.86 11.93
-10 1 11 7.14 12.46
10 1 -10 34.1 14.78
-10 1 10 47.4 21.66
10 1 -10 31.54 13.48
-10 1 10 32.7 15.82
10 1 -9 21.77 12.14
10 1 -9 28.26 12.51
-10 1 9 7.76 10.96
10 1 -8 32.23 13.64
10 1 -8 7.58 8.13
-10 1 8 12.98 13.68
10 1 -7 68.55 17.39
-10 1 7 77.35 22.06
10 1 -7 57.25 16.34
-10 1 7 19.59 12.62
10 1 -6 20.63 11.67
-10 1 6 41.73 18.16
-10 1 6 2.99 11.02
10 1 -5 4.94 8.69
-10 1 5 28.75 14.03
10 1 -4 83.36 16.51
-10 1 4 58.68 17.94
10 1 -4 90.63 17.27
-10 1 4 39.92 14.65
10 1 -3 44.92 12.27
-10 1 3 75.67 18.2
10 1 -3 60.18 15.49
-10 1 3 54.96 17.95
10 1 -2 27.54 10.91
-10 1 2 25.26 12.29
10 1 -2 29.39 11.59
-10 1 2 28.94 13.98
10 1 -1 51.08 12.72
-10 1 1 43.84 11.62
-10 1 1 48.89 16.22
10 1 -1 83.45 18.53
-10 1 1 38.06 11.24
-10 1 0 114.85 21.89
10 1 0 137.46 23.69
-10 1 0 123.35 19.61
-10 1 -1 -6.41 10.15
10 1 1 -6.89 12.07
-10 1 -1 7.21 8.3
10 1 2 4.03 10.64
-10 1 -2 21.34 10.92
10 1 3 28.46 15.52
-10 1 -3 44.08 13.53
10 1 4 17.45 13.17
-10 1 -4 2.58 9.24
-10 1 -5 11.83 10.22
10 2 -12 2.21 14.01
10 2 -12 14.94 12.31
10 2 -11 12.01 10.32
-10 2 11 20.31 16.41
-10 2 11 37.9 16.08
10 2 -11 28.24 15.61
10 2 -10 -6.07 11.91
-10 2 10 13.25 13
-10 2 10 13.1 13.48
10 2 -10 -3.76 9.02
10 2 -9 8.38 11.51
-10 2 9 -10.46 12.29
10 2 -9 -5.48 8.89
10 2 -8 146.13 25.17
-10 2 8 119.31 25.5
-10 2 8 175.2 30.31
10 2 -8 166.21 28.84
10 2 -7 -1.91 9.15
-10 2 7 1.82 12.18
-10 2 7 6.22 12.89
10 2 -7 6.94 8.21
10 2 -6 43.75 16.17
-10 2 6 13.34 12.63
-10 2 6 34.79 17.74
10 2 -6 32.16 13.49
-10 2 5 179.13 28.77
10 2 -5 197.7 25.49
-10 2 5 221.06 32.26
10 2 -5 241.03 29.22
10 2 -4 19.29 9.99
-10 2 4 -4.74 10.89
-10 2 4 3.98 13.19
10 2 -4 4.38 9.1
10 2 -3 51.12 14.23
-10 2 3 25.16 10.26
-10 2 3 54.29 17.45
10 2 -3 28.7 11.88
-10 2 2 34.08 11.04
-10 2 2 61.31 19.09
10 2 -2 68.21 16.64
-10 2 1 57.48 14.34
-10 2 1 55.2 17.75
10 2 -1 38.35 13.68
10 2 0 27.9 13.94
-10 2 0 -6.72 10.09
10 2 1 78.88 20.9
-10 2 -1 40.13 13.32
10 2 2 54.87 19.36
-10 2 -2 60.5 17.22
10 2 3 15.74 14.39
-10 2 -3 30.05 13.37
10 2 4 42.52 18.34
-10 2 -4 39.14 15.45
-10 2 -5 7.62 11.83
10 3 -12 -12.49 13.1
10 3 -11 5.09 11.42
-10 3 10 -35.51 23.37
-10 3 10 -27.44 17.4
10 3 -10 22.62 15.03
-10 3 9 -16.76 21.39
-10 3 9 -8.22 13.15
10 3 -9 30.57 15.99
-10 3 8 4.01 11.89
10 3 -8 11.43 10.92
10 3 -7 -28.7 16.29
-10 3 7 -0.7 13.89
-10 3 7 2.69 11.35
10 3 -7 16.53 11.92
10 3 -6 -0.74 10.73
-10 3 6 45.08 16.28
-10 3 6 22.37 15.14
10 3 -6 28.73 11.06
10 3 -6 33.35 17.49
10 3 -5 -2.95 9.33
-10 3 5 26.72 13.14
-10 3 5 17.86 14.93
10 3 -5 30.28 12.44
-10 3 4 50.37 17.34
10 3 -4 26.14 10.99
-10 3 3 54.03 17.03
10 3 -3 40.33 13.69
-10 3 2 19.52 10.6
10 3 -2 26.28 12.78
-10 3 1 30.51 12.65
10 3 -1 33.12 14.15
10 3 0 47.27 16.5
-10 3 0 12.84 9.89
10 3 1 20.92 13.24
-10 3 -1 -3.93 11.05
10 3 2 6 11.2
-10 3 -2 -10.64 11.82
-10 3 -3 13.36 11.45
10 4 -9 16.7 15.78
-10 4 8 25.63 19.18
10 4 -8 -1.68 10.12
-10 4 7 12.9 17.98
10 4 -7 12.29 11.04
-10 4 6 34.62 18.16
10 4 -6 26.62 16.11
-10 4 5 39.04 18.68
10 4 -5 35.97 17.97
-10 4 4 -5.55 12.27
10 4 -4 -22.13 11.36
-10 4 3 31.6 14.79
10 4 -3 30.34 13.5
-10 4 2 24.92 12.53
10 4 -2 23.7 13.96
10 4 -1 10.44 12.63
10 4 0 21.97 14.22
10 4 1 33.99 16.58
-10 4 -1 1.48 11.13
-10 5 5 1.75 11.64
-10 5 4 4.03 11.44
-10 5 3 1.18 10.36
-10 5 2 -4.62 9.93
10 5 -2 11.35 11.2
10 5 -1 5.48 13.19
-11 -4 5 0.62 11.44
11 -4 -4 6.84 13.68
-11 -4 4 -2.28 11.95
11 -4 -3 7.66 14.89
-11 -4 3 16.29 13.58
-11 -4 2 1.91 10.87
-11 -4 1 27.16 15.01
11 -3 -9 15.42 15.13
-11 -3 9 39.91 18.67
11 -3 -8 28.73 17.23
-11 -3 8 65.01 21.11
11 -3 -7 49.07 18.85
-11 -3 7 9.58 12.37
11 -3 -6 28.47 16.63
-11 -3 6 30.93 16.79
11 -3 -5 20.32 14.09
-11 -3 5 40.92 18.92
11 -3 -4 1 11.48
-11 -3 4 8.61 11.76
11 -3 -3 20.02 13.95
-11 -3 3 5.38 10.29
11 -3 -2 0.39 10.72
-11 -3 2 44.63 18.1
-11 -3 1 21.12 14.51
11 -3 -1 -12.88 13.19
11 -3 0 2.14 12.55
-11 -3 0 0.43 9.2
11 -3 1 28.71 17.88
11 -3 2 6.69 12.28
11 -3 3 12.16 15.99
-11 -2 11 36.4 16.72
11 -2 -10 -2.82 11.12
-11 -2 10 4.46 11.03
11 -2 -9 14.85 13.49
-11 -2 9 6.46 12.76
11 -2 -8 38.45 16.77
-11 -2 8 45.88 18.73
11 -2 -7 45.57 17.88
-11 -2 7 51.18 17.69
11 -2 -6 20.31 13.47
-11 -2 6 21.33 12.49
11 -2 -5 20.05 13.8
-11 -2 5 37.26 16.37
11 -2 -4 77.35 20.62
-11 -2 4 56.91 19.66
-11 -2 3 62.21 20.02
11 -2 -3 40.22 15.36
11 -2 -2 12.12 11.46
-11 -2 2 1.17 10.46
11 -2 -1 27.98 12.64
-11 -2 1 50.81 16.98
11 -2 0 4.99 9.66
-11 -2 0 14.17 12.1
11 -2 1 -21.03 13.43
-11 -2 -1 -0.25 9.19
11 -2 2 4.66 9.95
-11 -1 12 13.29 14.8
11 -1 -11 -4.29 10.62
-11 -1 11 16.17 16
11 -1 -10 21.23 11.34
-11 -1 10 38.32 19.32
11 -1 -9 36.91 15.52
-11 -1 9 49.57 20.08
11 -1 -8 13.54 12.17
-11 -1 8 46.98 19.29
11 -1 -7 27.36 14.12
-11 -1 7 37.54 16.29
-11 -1 6 62.7 22
11 -1 -6 32.47 14.05
-11 -1 5 63.66 20.48
11 -1 -5 46.77 15.55
11 -1 -4 42.62 16.04
-11 -1 4 24.87 13.35
11 -1 -3 45.73 15.85
-11 -1 3 36.84 15.66
11 -1 -2 54.45 16.26
-11 -1 2 67.06 18.15
11 -1 -1 6.81 9.81
-11 -1 1 22.9 12.87
11 -1 0 22.15 12.52
-11 -1 0 -1.26 10.12
11 -1 1 34.19 13.19
-11 -1 -1 32.4 15.12
-11 -1 -2 10.19 9.83
11 -1 2 3.78 12.21
11 -1 3 -17.84 14.75
11 -1 4 21.57 18.87
-11 0 13 18.97 16.56
-11 0 12 11.03 15.7
11 0 -11 48.76 19.24
-11 0 11 62.86 20.85
11 0 -10 77.98 21.11
-11 0 10 61.67 19.84
11 0 -9 19.4 12.66
-11 0 9 19.18 15.13
11 0 -8 49.77 15.85
-11 0 8 52.86 20.53
11 0 -7 89 19.48
-11 0 7 101.5 24.22
11 0 -6 49.03 15.39
-11 0 6 33.84 14.95
11 0 -5 40.38 14.82
-11 0 5 28.71 16.69
11 0 -4 150.36 24.09
-11 0 4 124.1 23.89
11 0 -3 80.21 18.35
-11 0 3 75.9 18.73
11 0 -2 15.7 11.55
-11 0 2 -10.77 14.01
11 0 -1 37.23 13.66
11 0 -1 38.49 16.12
-11 0 1 36.64 14.79
11 0 0 57.41 19.16
-11 0 0 82.17 19.44
-11 0 -1 -10.14 10.92
11 0 1 -16.99 15.27
-11 0 -2 -2.54 10.4
11 0 2 -13.91 14.33
11 0 3 18.18 14.94
-11 1 13 -15.98 14.83
-11 1 12 -1.88 12.87
11 1 -11 11.6 14.41
-11 1 11 38.87 21.3
-11 1 11 -4.74 14.47
11 1 -10 40.78 16.82
-11 1 10 54.09 21.65
-11 1 10 12.1 14.11
11 1 -9 39.02 15.96
-11 1 9 41.2 20.32
-11 1 9 -4.48 12.5
11 1 -9 14.4 9.62
11 1 -8 24.38 14.35
-11 1 8 43.59 19.69
11 1 -8 4.22 9.02
-11 1 8 -12.94 16.16
11 1 -7 40.55 16.87
-11 1 7 45.15 19.67
-11 1 7 0.31 13.91
11 1 -7 30.46 13.37
11 1 -6 30.7 12.35
-11 1 6 7.64 11.75
11 1 -5 41.87 14.12
-11 1 5 24.54 12.37
11 1 -4 19.97 10.85
-11 1 4 41.07 16.16
-11 1 4 34.34 16.44
11 1 -3 48.64 14.06
-11 1 3 40.42 14.8
11 1 -3 12.17 10.57
-11 1 3 54.76 18.67
11 1 -2 69.76 15.56
-11 1 2 33.61 11.9
11 1 -2 70.05 20.37
-11 1 2 89.06 20.79
-11 1 2 46.48 12.89
-11 1 1 13.99 12.2
11 1 -1 17.75 11.5
-11 1 1 9.35 7.8
-11 1 0 23.23 12.93
11 1 0 7.67 10.53
-11 1 0 28.71 12.05
-11 1 -1 14.4 10.17
11 1 1 26.99 14.37
-11 1 -1 25.91 11.6
11 1 2 -5.48 11.07
-11 1 -2 28.53 12.2
-11 1 -3 10.89 9.59
-11 1 -4 12.1 11.91
-11 2 12 26.67 17.25
11 2 -11 -16.85 13.52
-11 2 11 34.45 17.53
11 2 -11 17.82 14.2
11 2 -10 -4.44 10.53
-11 2 10 -8.9 16.49
-11 2 10 33.17 18.16
11 2 -10 12.56 11.78
11 2 -9 20.45 12.72
-11 2 9 -7.69 15.53
-11 2 9 24.45 17.96
11 2 -9 -0.52 8.51
11 2 -8 48.13 17.03
-11 2 8 40.54 17.8
-11 2 8 57.08 20.02
11 2 -8 37.85 16.03
11 2 -7 30.52 14.18
-11 2 7 33.34 16.6
-11 2 7 38.17 18.68
11 2 -7 43.27 17.31
11 2 -6 5.78 11.21
-11 2 6 4.88 10.2
-11 2 6 25.17 15.62
11 2 -6 13.29 11.24
11 2 -5 52.47 16.69
-11 2 5 10.48 10.48
11 2 -5 7.23 8.99
-11 2 5 43.62 18.27
11 2 -4 80.7 18.14
-11 2 4 33.45 13.72
-11 2 4 75.02 20.99
11 2 -4 59.27 17.03
-11 2 3 -8.73 11.55
-11 2 3 13.39 12.11
11 2 -3 17.34 11.02
-11 2 2 -7.06 11.17
-11 2 2 -6.71 13.05
11 2 -2 2.04 11.77
-11 2 1 19.62 12.2
11 2 -1 50.98 16.69
-11 2 1 36.17 12.7
11 2 0 14.77 11.7
-11 2 0 22.36 12.26
11 2 1 18.62 12.61
-11 2 -1 -4.79 10.19
11 2 2 12.04 14.28
-11 2 -2 24.63 12.46
-11 2 -3 22.11 14.23
-11 3 11 -55.82 21.36
11 3 -11 4.16 10.85
-11 3 10 -2.27 14.47
11 3 -10 19.28 15.66
-11 3 9 -4.1 17.87
-11 3 9 0.2 14.22
11 3 -9 15.33 14.57
11 3 -8 -15.04 12.59
-11 3 8 8.83 12.77
-11 3 8 -0.82 12.24
11 3 -8 25.31 16.9
11 3 -7 -27.33 13.99
-11 3 7 -29.66 16.96
-11 3 7 -11.48 16.23
11 3 -7 4.27 9.92
11 3 -6 -14.07 10.91
-11 3 6 0.8 14.51
11 3 -6 19.48 11.02
11 3 -6 14.22 13.21
-11 3 5 23.6 15.44
-11 3 5 9.2 12.95
11 3 -5 29.37 11.63
-11 3 4 6.59 11.42
11 3 -4 -7.57 11.53
-11 3 3 13.2 11.09
11 3 -3 1.54 10.95
-11 3 2 16.81 11.11
11 3 -2 5.36 11
11 3 -1 14.86 12.92
11 3 0 15.07 11.73
-11 3 0 -14.18 11.55
-11 3 -1 18.63 12.6
11 4 -7 -12.3 13.48
-11 4 6 11.01 14.32
11 4 -6 -16.94 14.16
-11 4 5 -5.8 11.81
11 4 -5 3.6 10.73
-11 4 4 10.64 14.7
11 4 -4 6.14 9.04
-11 4 3 4.35 11.03
11 4 -3 10.41 11.64
11 4 -2 -16.51 12.31
11 4 -1 5.34 10.93
12 -3 -6 18.02 16.48
-12 -3 6 10.72 13.36
12 -3 -5 16.39 15.55
-12 -3 5 23.82 18.19
12 -3 -4 25.93 17.77
-12 -3 4 45.68 19.98
12 -3 -3 12.62 15.92
-12 -3 3 26.74 16.39
12 -3 -2 7.52 10.9
-12 -3 2 22.97 16.22
12 -3 -1 -6.83 12.68
-12 -3 1 21.1 14.14
12 -2 -8 11.49 13.86
-12 -2 8 15.87 16.16
12 -2 -7 2.53 11.5
-12 -2 7 4.65 11.61
12 -2 -6 31.46 15
-12 -2 6 61.08 22.21
12 -2 -5 8.43 13.48
-12 -2 5 26.48 16.84
-12 -2 4 45.72 18.95
12 -2 -4 15.08 14.59
12 -2 -3 28.67 15.97
-12 -2 3 49.93 18.93
12 -2 -2 19.23 13.48
-12 -2 2 4.01 10.53
12 -2 -1 0.46 10.06
-12 -2 1 12.78 11.39
12 -2 0 1.78 9.65
-12 -2 0 -19.19 13.2
12 -2 1 -4.33 10.73
12 -1 -10 30.05 16.68
-12 -1 10 28.3 18.88
-12 -1 9 2.07 12.34
12 -1 -9 -1.21 9.85
-12 -1 8 46.94 21.12
12 -1 -8 42.21 17.18
-12 -1 7 51.08 20.46
12 -1 -7 58.28 18.66
12 -1 -6 -2.5 9.57
-12 -1 6 -2.29 11.15
12 -1 -5 42.89 15.54
-12 -1 5 68.97 20.23
12 -1 -4 42.55 15.47
-12 -1 4 19.94 14.36
12 -1 -3 6.09 9.26
-12 -1 3 5.54 11.88
12 -1 -2 33.23 15.55
-12 -1 2 26.74 14.42
12 -1 -1 47.08 15.16
-12 -1 1 37.4 15.3
-12 -1 0 16.18 14.23
-12 -1 -1 12.74 11.59
-12 0 11 12.47 15.15
12 0 -10 12.88 14.46
-12 0 10 14.68 17.05
12 0 -9 -4.99 12.36
-12 0 9 4.15 11.87
12 0 -8 6.08 9.93
-12 0 8 8.78 14.41
12 0 -7 -6.65 10.15
-12 0 7 10.82 15.41
12 0 -6 38.81 14.54
-12 0 6 38.13 16.44
12 0 -5 6.18 10.99
-12 0 5 -6.84 14.65
12 0 -4 -8.88 10.28
-12 0 4 0.12 12.77
12 0 -3 80.59 18.88
-12 0 3 29.89 15.65
12 0 -2 -6.54 9.43
-12 0 2 14.33 14
12 0 -1 2.02 11.08
-12 0 1 18.4 14.96
-12 0 0 31.13 16.19
12 0 0 21.5 14.45
-12 0 -1 0.92 10.15
-12 0 -2 -35.65 15.77
-12 1 11 13.2 15.85
12 1 -10 37.21 17.74
-12 1 10 12.23 12.45
12 1 -9 17.76 14.6
-12 1 9 34.18 21.02
-12 1 9 -24.3 18.26
12 1 -8 45.63 17.69
-12 1 8 49.31 21.52
-12 1 8 30.57 17.75
12 1 -7 58.6 18.41
-12 1 7 47.74 20.32
-12 1 7 10.76 13.95
12 1 -7 35.36 15.13
12 1 -6 -13.71 11.79
-12 1 6 22.97 17.13
-12 1 6 -24.01 17.64
12 1 -5 42.33 14.69
-12 1 5 45.52 19.18
-12 1 5 60.83 20.17
12 1 -4 23.66 11.97
-12 1 4 29.2 15.42
-12 1 4 42.37 19.3
-12 1 3 5.69 10.55
12 1 -3 -9.14 12.12
-12 1 3 5.27 11.88
-12 1 2 15.87 13.38
12 1 -2 16.17 12.09
-12 1 1 25.25 16.17
12 1 -1 26.52 15.92
-12 1 0 -4.25 12.94
12 1 0 2.09 11.17
-12 2 11 29.07 19.76
12 2 -10 -19.62 13.95
12 2 -10 1.88 11.57
12 2 -9 3.8 10.78
-12 2 9 -15.39 15.44
-12 2 9 4.19 14.4
12 2 -9 -0.51 10.39
12 2 -8 11.87 12.08
-12 2 8 19.72 16.54
-12 2 8 7.21 12.33
12 2 -8 9.76 10.39
12 2 -7 22.69 14.95
-12 2 7 -19.37 15.33
-12 2 7 5.54 13.92
12 2 -7 12.1 13.24
12 2 -6 35.73 14.7
-12 2 6 13.1 13.33
-12 2 6 51.52 20.1
-12 2 5 1.07 10.61
-12 2 5 17.47 14.59
-12 2 4 2.25 12.12
12 2 -4 3.96 11.22
-12 2 3 -1.51 11.19
-12 2 3 44.73 17.25
12 2 -3 22.41 13.82
-12 2 2 -24.35 17.22
12 2 -2 -28.2 15.05
-12 2 2 -19.59 11.53
12 2 -1 -20.82 14.28
-12 2 1 -2.8 9.53
-12 2 0 -4.26 10.61
-12 2 -1 7.56 11.93
-12 2 -2 9.32 10.12
12 3 -9 0.67 12.13
12 3 -8 -29.72 15.41
-12 3 8 13.29 15.47
12 3 -8 7.96 13.2
-12 3 7 3.49 11.83
-12 3 7 -5.74 18.23
12 3 -7 0.83 9.92
-12 3 6 1.11 12.25
-12 3 6 -21.5 18.64
12 3 -6 -11.39 12.59
-12 3 5 1.63 14.46
-12 3 5 -0.08 14.25
12 3 -5 3.81 12.87
-12 3 4 13.08 12.77
12 3 -4 12.06 13.04
-12 3 3 16.32 13.48
12 3 -3 11.59 10.35
12 3 -2 2.33 12.5
-12 3 1 2.44 8.99
-12 4 4 0.95 10.67
12 4 -3 -29.96 15.27
13 -2 -5 18.52 15.54
13 -2 -4 22.64 14.4
13 -2 -3 0.96 10.58
13 -2 -2 24.43 17.38
13 -2 -1 0.01 10.19
13 -1 -8 -1.36 10.6
13 -1 -7 21.72 14.27
13 -1 -6 19.74 13.51
13 -1 -5 1.37 10.06
-13 -1 5 -10.46 15.3
13 -1 -4 0.36 11.07
-13 -1 4 5.36 14.1
13 -1 -3 25.75 13.86
-13 -1 3 1.28 12.04
13 -1 -2 17.87 13.39
-13 -1 2 -2.33 12.65
-13 -1 1 5.77 11.09
-13 -1 0 34.63 19.22
13 0 -8 5.12 10.45
13 0 -7 7.82 10.68
-13 0 7 10.28 13.51
13 0 -6 20.77 13.52
-13 0 6 -8.13 13.13
13 0 -5 42.62 15.98
-13 0 5 21.6 15.73
13 0 -4 10.39 10.04
-13 0 4 -16.73 16.83
-13 0 3 13.53 13.79
-13 0 2 53.18 19.94
-13 0 1 13.34 14.24
13 1 -9 17.91 15.6
13 1 -8 4 11.32
-13 1 8 28.41 21.13
13 1 -7 23 15.02
-13 1 7 31.56 20.61
13 1 -6 13.77 13.16
-13 1 6 26.02 17.41
13 1 -5 5.61 9.85
-13 1 5 5.79 14.29
-13 1 5 -3.33 12.63
-13 1 4 0.96 9.94
-13 1 4 24.62 19.27
13 2 -9 0.01 10.89
13 2 -8 -6.17 10.92
13 2 -8 14.53 13.26
13 2 -7 0.36 11.06
-13 2 7 -8.87 13.77
13 2 -7 0.19 11.49
-13 2 6 -11.42 13.42
-13 2 5 3.87 11.6
-13 2 4 -47.35 17.86
13 2 -4 -23.88 14.8
-13 3 5 7.64 13.37
13 3 -5 -14.62 12.78
14 -1 -4 8.57 12.59
14 0 -6 0.01 10.22
-14 0 6 16.69 18.58
14 0 -5 6.49 11.66
-14 0 5 34.57 19.92
14 1 -7 17.88 15.59
-14 1 5 1.98 10.73
