#------------------------------------------------------------------------------
#$Date: 2020-02-04 05:13:16 +0200 (Tue, 04 Feb 2020) $
#$Revision: 247531 $
#$URL: file:///home/coder/svn-repositories/cod/cif/4/13/39/4133974.cif $
#------------------------------------------------------------------------------
#
# This file is available in the Crystallography Open Database (COD),
# http://www.crystallography.net/
#
# All data on this site have been placed in the public domain by the
# contributors.
#
data_4133974
loop_
_publ_author_name
'Bear, Joseph C.'
'Cockcroft, Jeremy K.'
'Williams, Jeffrey H.'
_publ_section_title
;
 Influence of Solvent in Crystal Engineering: A Significant Change to the
 Order-Disorder Transition in Ferrocene.
;
_journal_issue                   4
_journal_name_full               'Journal of the American Chemical Society'
_journal_page_first              1731
_journal_page_last               1734
_journal_paper_doi               10.1021/jacs.9b11895
_journal_volume                  142
_journal_year                    2020
_chemical_formula_moiety         'C10 H10 Fe, 2(C3 F3)'
_chemical_formula_sum            'C16 H10 F6 Fe'
_chemical_formula_weight         372.09
_chemical_name_systematic        Ferrocene:hexafluorobenzene
_space_group_crystal_system      triclinic
_space_group_IT_number           2
_space_group_name_Hall           '-P 1'
_space_group_name_H-M_alt        'P -1'
_atom_sites_solution_hydrogens   difmap
_atom_sites_solution_primary     dual
_audit_creation_date             2019-04-25
_audit_creation_method
;
Olex2 1.2
(compiled 2018.05.29 svn.r3508 for OlexSys, GUI svn.r5506)
;
_cell_angle_alpha                77.170(6)
_cell_angle_beta                 77.261(5)
_cell_angle_gamma                83.959(5)
_cell_formula_units_Z            2
_cell_length_a                   7.2034(4)
_cell_length_b                   9.1958(6)
_cell_length_c                   11.7123(8)
_cell_measurement_reflns_used    4355
_cell_measurement_temperature    290
_cell_measurement_theta_max      27.1110
_cell_measurement_theta_min      4.1910
_cell_volume                     736.55(8)
_computing_cell_refinement       'CrysAlisPro 1.171.39.46 (Rigaku OD, 2018)'
_computing_data_collection       'CrysAlisPro 1.171.39.46 (Rigaku OD, 2018)'
_computing_data_reduction        'CrysAlisPro 1.171.39.46 (Rigaku OD, 2018)'
_computing_molecular_graphics    'Olex2 (Dolomanov et al., 2009)'
_computing_publication_material  'Olex2 (Dolomanov et al., 2009)'
_computing_structure_refinement  'ShelXL (Sheldrick, 2015)'
_computing_structure_solution    'ShelXT (Sheldrick, 2015)'
_diffrn_ambient_environment      C6F6
_diffrn_ambient_temperature      290
_diffrn_detector                 'CCD plate'
_diffrn_detector_area_resol_mean 5.2031
_diffrn_detector_type            Atlas
_diffrn_measured_fraction_theta_full 0.996
_diffrn_measured_fraction_theta_max 0.996
_diffrn_measurement_details
;
List of Runs (angles in degrees, time in seconds):

  # Type    Start    End  Width  t~exp~   \w     \q     \k     \f   Frames
--------------------------------------------------------------------------
  1  \w    -67.00 -36.00   1.00    2.50    --   -9.99 126.00 -49.25   31
  2  \w    -20.00  52.00   1.00    2.50    --   11.17 -99.00  90.00   72
  3  \w      5.00  52.00   1.00    2.50    --   11.17 -99.00 -60.00   47
  4  \w    -29.00  88.00   1.00    2.50    --   11.17  19.00 150.00  117
  5  \w    -19.00  19.00   1.00    2.50    --   11.17 -99.00  60.00   38
  6  \w    -18.00  52.00   1.00    2.50    --   11.17 -99.00-180.00   70
  7  \w    -18.00  85.00   1.00    2.50    --   11.17  77.00 -30.00  103
  8  \w    -12.00  85.00   1.00    2.50    --   11.17  38.00-120.00   97
;
_diffrn_measurement_device       'four-circle diffractometer'
_diffrn_measurement_device_type  'SuperNova, Dual, Cu at home/near, Atlas'
_diffrn_measurement_method       '\w scans'
_diffrn_orient_matrix_type
'CrysAlisPro convention (1999,Acta A55,543-557)'
_diffrn_orient_matrix_UB_11      0.0211000000
_diffrn_orient_matrix_UB_12      -0.0757568000
_diffrn_orient_matrix_UB_13      0.0255391000
_diffrn_orient_matrix_UB_21      -0.0296746000
_diffrn_orient_matrix_UB_22      0.0159462000
_diffrn_orient_matrix_UB_23      0.0580537000
_diffrn_orient_matrix_UB_31      -0.0943475000
_diffrn_orient_matrix_UB_32      -0.0169316000
_diffrn_orient_matrix_UB_33      0.0012766000
_diffrn_radiation_monochromator  mirror
_diffrn_radiation_probe          x-ray
_diffrn_radiation_type           MoK\a
_diffrn_radiation_wavelength     0.71073
_diffrn_reflns_av_R_equivalents  0.0344
_diffrn_reflns_av_unetI/netI     0.0285
_diffrn_reflns_Laue_measured_fraction_full 0.996
_diffrn_reflns_Laue_measured_fraction_max 0.996
_diffrn_reflns_limit_h_max       8
_diffrn_reflns_limit_h_min       -8
_diffrn_reflns_limit_k_max       10
_diffrn_reflns_limit_k_min       -10
_diffrn_reflns_limit_l_max       13
_diffrn_reflns_limit_l_min       -13
_diffrn_reflns_number            9779
_diffrn_reflns_point_group_measured_fraction_full 0.996
_diffrn_reflns_point_group_measured_fraction_max 0.996
_diffrn_reflns_theta_full        24.709
_diffrn_reflns_theta_max         24.709
_diffrn_reflns_theta_min         3.583
_diffrn_source                   'micro-focus sealed X-ray tube'
_diffrn_source_type              'SuperNova (Mo) X-ray Source'
_exptl_absorpt_coefficient_mu    1.083
_exptl_absorpt_correction_T_max  1.000
_exptl_absorpt_correction_T_min  0.374
_exptl_absorpt_correction_type   gaussian
_exptl_absorpt_process_details
;
CrysAlisPro 1.171.39.46 (Rigaku Oxford Diffraction, 2018)
Numerical absorption correction based on gaussian integration over
			a multifaceted crystal model
Empirical absorption correction using spherical harmonics,
 implemented in SCALE3 ABSPACK scaling algorithm.
;
_exptl_crystal_colour            'clear dark orange'
_exptl_crystal_colour_lustre     clear
_exptl_crystal_colour_modifier   dark
_exptl_crystal_colour_primary    orange
_exptl_crystal_density_diffrn    1.678
_exptl_crystal_description       block
_exptl_crystal_F_000             372
_exptl_crystal_preparation       'Ferrocene dissolved in hot C6F6'
_exptl_crystal_recrystallization_method
'Crystals grown using C6F6 as solvent in an NMR tube stood in hot water'
_exptl_crystal_size_max          0.722
_exptl_crystal_size_mid          0.389
_exptl_crystal_size_min          0.2
_refine_diff_density_max         0.320
_refine_diff_density_min         -0.257
_refine_diff_density_rms         0.052
_refine_ls_extinction_coef       0.038(4)
_refine_ls_extinction_expression Fc^*^=kFc[1+0.001xFc^2^\l^3^/sin(2\q)]^-1/4^
_refine_ls_extinction_method     'SHELXL-2014/7 (Sheldrick 2014'
_refine_ls_goodness_of_fit_ref   1.037
_refine_ls_hydrogen_treatment    refall
_refine_ls_matrix_type           full
_refine_ls_number_parameters     249
_refine_ls_number_reflns         2513
_refine_ls_number_restraints     0
_refine_ls_restrained_S_all      1.037
_refine_ls_R_factor_all          0.0457
_refine_ls_R_factor_gt           0.0357
_refine_ls_shift/su_max          0.000
_refine_ls_shift/su_mean         0.000
_refine_ls_structure_factor_coef Fsqd
_refine_ls_weighting_details
'w=1/[\s^2^(Fo^2^)+(0.0588P)^2^+0.1059P] where P=(Fo^2^+2Fc^2^)/3'
_refine_ls_weighting_scheme      calc
_refine_ls_wR_factor_gt          0.0969
_refine_ls_wR_factor_ref         0.1065
_reflns_Friedel_coverage         0.000
_reflns_number_gt                2034
_reflns_number_total             2513
_reflns_threshold_expression     'I > 2\s(I)'
_cod_data_source_file            ja9b11895_si_002.cif
_cod_data_source_block           exp_1339
_cod_depositor_comments
'Adding full bibliography for 4133967--4133980.cif.'
_cod_original_cell_volume        736.55(9)
_cod_database_code               4133974
_shelx_shelxl_version_number     2014/7
_chemical_oxdiff_formula         'Fe C16 H10 F6'
_chemical_oxdiff_usercomment     'In capillary'
_shelx_space_group_comment
;
The symmetry employed for this shelxl refinement is uniquely defined
by the following loop, which should always be used as a source of
symmetry information in preference to the above space-group names.
They are only intended as comments.
;
_shelx_estimated_absorpt_t_max   0.812
_shelx_estimated_absorpt_t_min   0.508
_reflns_odcompleteness_completeness 99.77
_reflns_odcompleteness_iscentric 1
_reflns_odcompleteness_theta     26.32
_olex2_refinement_description
;
;
_shelx_res_file
;
    exp_1339.res created by SHELXL-2014/7

TITL exp_1339 in P-1
REM P-1 (#2 in standard setting)
CELL 0.71073 7.203374 9.195834 11.712321 77.1696 77.2613 83.959
ZERR 2 0.000444 0.000602 0.000775 0.0056 0.0054 0.0053
LATT 1
SFAC C H F Fe
UNIT 32 20 12 2

L.S. 10 0 0
PLAN  1
SIZE 0.2 0.389 0.722
TEMP 16.85
BOND $H
CONF
list 4
fmap 2 53
acta
SHEL 50 0.85
OMIT 1 2 3
OMIT 0 3 6
OMIT 1 1 3
OMIT 1 4 3
REM <olex2.extras>
REM <HklSrc "%.\\exp_1339.hkl">
REM </olex2.extras>

WGHT    0.058800    0.105900
EXTI    0.037893
FVAR       8.55364
FE1   4    0.241274    0.496640    0.251770    11.00000    0.05474    0.04418 =
         0.04717   -0.00482   -0.01557    0.00194
C7    1    0.312058    0.677438    0.121762    11.00000    0.07303    0.08670 =
         0.11596    0.04674   -0.03050   -0.02245
H7    2    0.419241    0.707894    0.104423    11.00000    0.08334
C8    1    0.236969    0.573389    0.076032    11.00000    0.10099    0.08328 =
         0.05072   -0.00257   -0.01543    0.02450
H8    2    0.305167    0.525342    0.024161    11.00000    0.09217
C9    1    0.055971    0.552084    0.139079    11.00000    0.09005    0.06795 =
         0.07669   -0.00848   -0.04414   -0.00005
H9    2   -0.028246    0.483462    0.131566    11.00000    0.09645
C10   1    0.014289    0.639832    0.224551    11.00000    0.07884    0.07588 =
         0.06923   -0.00815   -0.02488    0.02588
H10   2   -0.116024    0.647729    0.288043    11.00000    0.13303
C11   1    0.171128    0.717875    0.214276    11.00000    0.13688    0.04372 =
         0.09343   -0.00857   -0.06020    0.01032
H11   2    0.178795    0.776494    0.264524    11.00000    0.09707
C12   1    0.472863    0.407577    0.318232    11.00000    0.05938    0.09553 =
         0.11193    0.02827   -0.03799   -0.00660
H12   2    0.579791    0.445384    0.295708    11.00000    0.09088
C13   1    0.404357    0.303378    0.268673    11.00000    0.09139    0.07048 =
         0.07322   -0.00554   -0.01316    0.03342
H13   2    0.467490    0.259816    0.208008    11.00000    0.08553
C14   1    0.220775    0.277268    0.329921    11.00000    0.09496    0.04415 =
         0.07384   -0.00307   -0.02875   -0.00041
H14   2    0.134790    0.216561    0.312081    11.00000    0.10677
C15   1    0.173530    0.363184    0.417026    11.00000    0.08063    0.06417 =
         0.05482    0.00179   -0.01325    0.00202
H15   2    0.050555    0.370233    0.472443    11.00000    0.11345
C16   1    0.326737    0.443620    0.410643    11.00000    0.10504    0.06155 =
         0.07115   -0.00877   -0.04896    0.00093
H16   2    0.331854    0.508638    0.445878    11.00000    0.08160
F1    3    0.368977    0.997261   -0.113510    11.00000    0.06899    0.11605 =
         0.10857   -0.01295    0.00715   -0.00127
F2    3    0.130870    0.814776   -0.153775    11.00000    0.12610    0.07674 =
         0.07615   -0.02967   -0.01451    0.01801
F3    3   -0.237197    0.816769   -0.039965    11.00000    0.10827    0.09945 =
         0.12998   -0.03037   -0.03548   -0.02957
C1    1    0.185862    0.998762   -0.057730    11.00000    0.06226    0.06213 =
         0.06160    0.00228   -0.00716    0.00686
C2    1    0.065854    0.906755   -0.078300    11.00000    0.08393    0.04780 =
         0.05287   -0.00592   -0.01634    0.00912
C3    1   -0.119001    0.908121   -0.020678    11.00000    0.07282    0.05439 =
         0.07146   -0.00165   -0.02336   -0.00734
F4    3    0.792311    0.155050    0.508864    11.00000    0.10058    0.11775 =
         0.16061   -0.01791   -0.04552   -0.04357
F5    3    0.443731    0.201439    0.642253    11.00000    0.16317    0.08174 =
         0.09204   -0.03932   -0.03972    0.01614
F6    3    0.151234    0.047295    0.632752    11.00000    0.07801    0.12144 =
         0.09618    0.00003    0.00956    0.01775
C4    1    0.646973    0.077825    0.504353    11.00000    0.07090    0.05861 =
         0.07882    0.00316   -0.02939   -0.01225
C5    1    0.472189    0.101605    0.572220    11.00000    0.09136    0.04726 =
         0.05939   -0.01018   -0.02581    0.00708
C6    1    0.325030    0.023668    0.567695    11.00000    0.06025    0.06477 =
         0.06120    0.00565   -0.00611    0.01048
HKLF 4

REM  exp_1339 in P-1
REM R1 =  0.0357 for    2034 Fo > 4sig(Fo)  and  0.0457 for all    2513 data
REM    249 parameters refined using      0 restraints

END

WGHT      0.0588      0.1059

REM Highest difference peak  0.320,  deepest hole -0.257,  1-sigma level  0.052
Q1    1   0.4004  0.5010  0.1987  11.00000  0.05    0.32
;
_shelx_res_checksum              91970
_shelx_hkl_file
;
   0   0  -2 8950.25 385.998   4
   0   0  -3-106.157 95.2729   4
   0   0   3 148.105 145.494   8
   0   0   4 10140.3 590.753   4
   0   0   4 9598.52 692.101   8
   0   0  -4 10332.8 563.382   4
   0   0   5 6807.15 339.531   6
   0   0  -5 6848.44 506.892   4
   0   0  -6 73304.5 2115.45   4
   0   0   6 66438.6 1541.64   6
   0   0   7 97.0462 102.376   5
   0   0  -7 302.588 192.302   4
   0   0   7 375.327 91.4743   6
   0   0   7 288.940 131.163   4
   0   0  -8 28649.3 1669.14   8
   0   0   8 31263.1 1595.49   4
   0   0  -8 29879.1 1420.94   4
   0   0   8 29384.1 1393.93   5
   0   0   8 29573.3 939.570   6
   0   0   9 61.5246 35.1749   6
   0   0  -9 194.397 145.249   4
   0   0   9 77.3931 102.886   5
   0   0  10 16087.2 635.304   6
   0   0  10 16378.9 1155.11   5
   0   0 -10 18450.6 1221.64   4
   0   0 -11 679.889 273.172   4
   0   0  11 42.1101 139.142   5
   0   0  11 520.027 194.122   7
   0   0  11 539.756 95.7818   6
   0   0  12 9942.70 969.565   5
   0   0 -12 10522.0 1023.05   4
   0   0 -13 679.969 326.015   4
   0   0  13 345.915 204.340   5
   0   0  14-52.1524 106.636   5
   0   0 -14 202.921 194.320   4
   0  -1  15 106.340 177.046   5
   0  -1  14 1262.55 422.417   5
   0   1 -13 387.557 254.675   4
   0  -1  13 348.793 186.403   5
   0   1 -12 4266.94 667.659   4
   0  -1  12 4281.07 683.739   5
   0  -1  11 202.158 168.173   5
   0  -1  11 213.470 116.395   7
   0   1 -11 63.5058 106.843   4
   0  -1  10 6511.38 730.791   5
   0   1 -10 6817.67 777.110   4
   0  -1  10 5792.53 639.245   7
   0   1  -9 174.408 186.144   4
   0  -1   9 212.532 185.041   5
   0  -1   8 378.372 261.624   8
   0   1  -8 362.556 151.792   4
   0  -1   7 69.6417 35.7946   6
   0   1  -7 90.9885 99.4243   8
   0  -1   7 44.0170 71.9019   7
   0   1  -6 54912.9 1830.38   4
   0  -1   6 48851.4 2052.74   8
   0  -1   6 52084.4 1105.18   6
   0  -1   6 52350.2 1657.52   7
   0   1  -5 1431.44 240.235   4
   0  -1   5 975.874 250.077   8
   0  -1   5 1109.16 97.3935   6
   0  -1   5 1203.80 196.936   7
   0  -1   4 36364.3 785.025   6
   0   1  -4 37296.0 1253.66   4
   0  -1   4 36528.1 1160.86   7
   0  -1   4 35210.0 1426.08   8
   0   1  -3-2.27556 37.5278   8
   0   1  -3 38.3596 21.8236   6
   0  -1   3-3.87987 88.2469   8
   0  -1   3-30.5592 64.2468   7
   0   1  -3 35.4641 65.8492   4
   0  -1   2 487465. 8741.81   7
   0   1  -2 478927. 8819.06   8
   0  -1  -2 450495. 7886.14   4
   0   1   2 431893. 7773.32   7
   0  -1  -2 427458. 7754.35   7
   0   1   3 559.652 93.3804   5
   0   1   3 429.990 113.693   4
   0   1   3 373.475 87.0500   7
   0  -1  -4 233783. 4679.26   4
   0   1   4 235736. 4432.35   5
   0   1   4 237732. 4753.15   4
   0   1   5 5120.50 377.236   5
   0  -1  -5 5823.37 470.857   4
   0   1   6 117495. 2810.38   5
   0  -1  -6 124590. 3031.92   4
   0   1   7 25248.6 1115.83   5
   0  -1  -7 28045.9 1269.30   4
   0   1   7 27710.0 1331.99   4
   0  -1  -8 74265.1 2915.42   8
   0  -1  -8 74823.8 2406.39   4
   0   1   8 77979.6 2604.36   4
   0   1   8 73734.5 2260.34   5
   0   1   9 97.2743 136.870   5
   0   1   9-5.17598 72.7994   4
   0   1   9 16.2929 37.2190   6
   0  -1  -9 153.312 157.748   4
   0   1  10 6446.62 653.991   5
   0   1  10 5952.32 273.502   1
   0   1  10 6247.14 485.958   6
   0  -1 -10 7638.23 769.484   4
   0   1  11 761.181 251.614   5
   0   1  11 732.630 214.120   7
   0   1  11 528.727 142.536   6
   0   1  12 3746.47 473.507   7
   0  -1 -12 4372.58 656.702   4
   0   1  12 3570.28 534.667   5
   0  -1 -13 714.373 296.563   4
   0   1  13 471.891 193.315   7
   0   1  13 308.203 164.602   5
   0  -1 -14 2310.05 520.697   4
   0   1  14 2233.62 451.104   5
   0  -2  14 67.1028 114.744   5
   0   2 -13 419.269 248.516   4
   0  -2  13 95.7537 234.582   5
   0  -2  12 1349.06 397.390   5
   0   2 -12 2275.21 499.310   4
   0  -2  11 211.112 157.546   5
   0   2 -11 164.355 128.097   4
   0  -2  11 35.1821 141.842   7
   0  -2  10 6468.95 946.849   8
   0   2 -10 9407.09 927.973   4
   0  -2  10 8215.80 872.415   5
   0  -2  10 7445.01 816.272   7
   0  -2   9 420.122 300.678   8
   0  -2   9 71.7815 151.594   7
   0   2  -9-137.738 182.643   4
   0   2  -8 12590.8 982.638   4
   0  -2   8 11093.3 1095.94   8
   0   2  -8 11010.1 991.017   8
   0   2  -7 2093.07 368.689   4
   0   2  -7 1691.96 371.944   8
   0  -2   7 2003.33 452.163   8
   0  -2   6 72252.6 2639.90   8
   0   2  -6 71554.8 2406.18   8
   0  -2   6 67033.5 2198.55   7
   0   2  -6 72835.2 2322.68   4
   0   2  -5 505.521 71.4651   6
   0  -2   5 228.980 142.903   8
   0   2  -5 359.038 129.324   8
   0   2  -5 302.087 102.325   4
   0  -2   5 398.303 116.911   7
   0   2  -4 66097.9 1959.32   4
   0   2  -4 62781.4 1319.58   6
   0  -2   4 62480.7 1868.60   7
   0   2  -4 58110.6 1878.74   8
   0  -2   4 58799.8 1954.58   8
   0  -2   3-2.28826 104.219   8
   0  -2   3 53.3423 91.2321   7
   0   2  -3 67.3489 42.5186   6
   0   2  -3 43.0876 74.2684   8
   0  -2   2 381767. 7194.03   7
   0   2  -2 377853. 7106.35   8
   0  -2   2 392341. 7109.00   8
   0   2  -2 385705. 7057.82   7
   0  -2   1 143.977 64.0086   8
   0   2  -1-39.9036 58.3339   8
   0   2  -1 220.379 129.196   7
   0  -2   0 243617. 4358.38   8
   0  -2   0 251249. 4216.65   3
   0   2   0 228720. 4161.30   3
   0   2   0 228446. 4467.41   7
   0  -2  -1 955.613 160.992   7
   0  -2  -1 940.478 146.731   4
   0   2   1 943.832 137.906   7
   0   2   2 492493. 7970.77   2
   0  -2  -2 454670. 8428.35   7
   0   2   2 486547. 8360.54   4
   0   2   2 469042. 8428.96   7
   0  -2  -3 152.208 82.3010   7
   0   2   3 145.908 68.9637   7
   0   2   3 283.186 114.683   4
   0  -2  -3 347.699 145.339   4
   0   2   4 1067.53 184.439   7
   0  -2  -4 987.819 187.328   4
   0   2   5 8996.11 559.453   7
   0   2   5 7928.31 394.018   5
   0  -2  -5 8760.88 614.724   4
   0   2   6 172356. 3539.72   5
   0   2   6 173591. 3814.55   7
   0   2   7-64.8167 104.911   7
   0   2   7-60.7337 93.2436   4
   0   2   7-77.9876 91.4196   5
   0  -2  -7 201.631 165.204   4
   0   2   8 20319.2 1195.37   4
   0  -2  -8 17566.0 1361.11   8
   0   2   8 19288.0 959.609   7
   0  -2  -8 18564.1 1109.83   4
   0   2   8 18147.4 876.863   5
   0   2   9 663.540 217.368   4
   0  -2  -9 680.884 201.463   4
   0   2   9 1027.76 234.201   7
   0   2   9 1146.76 249.141   5
   0  -2 -10 5375.79 659.832   4
   0   2  10 4118.09 461.538   7
   0   2  10 5102.08 510.516   5
   0  -2 -11 111.685 161.097   4
   0   2  11 54.4527 85.7804   7
   0   2  11-60.5076 112.306   5
   0   2  12 8801.10 761.517   5
   0  -2 -12 10606.3 1017.17   4
   0   2  12 8625.32 728.319   7
   0   2  13 81.5879 103.912   7
   0   2  13-11.8397 77.2051   5
   0  -2 -14 2574.50 578.009   4
   0   2  14 2776.52 650.881   2
   0  -3  13 233.817 164.918   5
   0  -3  12 2446.99 586.283   5
   0   3 -12 2737.10 570.192   4
   0   3 -11-30.8291 129.189   4
   0  -3  11-405.699 296.760   5
   0  -3  11 160.665 250.383   8
   0   3 -10 10504.9 1028.22   4
   0  -3  10 7453.80 908.583   7
   0  -3  10 9781.78 1197.22   8
   0  -3  10 9073.50 947.110   5
   0   3  -9 1083.33 315.761   4
   0  -3   9 1033.50 381.551   8
   0  -3   9 822.367 282.816   7
   0   3  -8 16171.8 1151.35   4
   0  -3   8 13856.3 1149.97   7
   0  -3   8 15135.4 1338.68   8
   0   3  -7 1190.80 293.078   4
   0  -3   7 470.223 189.618   8
   0   3  -7 808.038 255.307   8
   0  -3   7 1404.36 349.171   7
   0   3  -6 8590.11 750.913   4
   0   3  -6 8834.78 373.550   6
   0  -3   6 7852.14 794.240   8
   0   3  -6 7441.20 719.951   8
   0   3  -5 608.868 175.820   8
   0   3  -5 709.532 107.894   6
   0  -3   5 536.257 132.944   8
   0   3  -5 641.516 183.821   4
   0  -3   4 62262.9 2077.57   8
   0  -3   4 63506.3 2146.23   7
   0   3  -4 63120.3 1477.60   6
   0   3  -4 61103.3 2011.20   8
   0  -3   3 546.606 160.190   8
   0  -3   3 830.580 209.564   7
   0   3  -3 468.764 128.704   7
   0   3  -3 710.301 175.423   8
   0   3  -2 18932.4 876.024   8
   0   3  -2 20457.6 913.167   7
   0  -3   2 19550.8 987.077   7
   0  -3   2 19636.9 875.874   8
   0   3  -1 371.285 108.147   8
   0  -3   1 306.018 100.790   8
   0   3  -1 301.472 79.8654   3
   0   3  -1 453.814 178.129   7
   0  -3   0 81317.0 1808.77   3
   0   3   0 79106.8 1733.76   3
   0   3   0 81550.9 2135.24   7
   0  -3   0 82363.7 1983.38   8
   0   3   1 1929.79 260.056   7
   0  -3  -1 2019.42 266.881   7
   0   3   1 1899.92 243.320   4
   0  -3  -1 2103.04 209.635   3
   0   3   2 27371.0 1013.39   4
   0  -3  -2 28427.2 1094.60   4
   0   3   2 29240.6 1119.37   7
   0  -3  -2 29589.0 1142.70   7
   0  -3  -3 2725.99 324.154   4
   0   3   3 2956.31 342.480   7
   0  -3  -3 2577.93 313.149   7
   0   3   3 2440.47 292.978   4
   0   3   3 2655.20 193.513   2
   0  -3  -4 110157. 2827.86   4
   0   3   4 114794. 2790.57   7
   0  -3  -5 1549.68 244.916   7
   0   3   5 1704.13 301.031   7
   0   3   5 1765.83 278.047   4
   0   3   6 2550.32 354.587   4
   0   3   6 2194.72 322.191   7
   0  -3  -6 3004.47 399.284   4
   0   3   7-19.7650 63.7577   4
   0  -3  -7-58.6005 141.416   4
   0   3   7 94.2421 137.544   7
   0  -3  -7 51.4939 90.7365   8
   0  -3  -8 24854.5 1653.50   8
   0   3   8 27028.9 1432.51   4
   0  -3  -8 27010.3 1414.66   4
   0   3   8 26014.3 1240.51   7
   0   3   9 5484.39 440.588   5
   0  -3  -9 6597.23 709.845   4
   0   3   9 5516.53 566.100   7
   0   3  10 17142.5 1033.80   7
   0   3  10 15571.2 818.107   5
   0  -3 -10 18129.1 1253.92   4
   0   3  11 945.107 214.949   5
   0   3  11 1047.75 274.298   7
   0  -3 -11 654.953 285.891   4
   0   3  12 4390.12 480.276   5
   0   3  12 5404.55 596.091   7
   0  -3 -12 6241.18 793.738   4
   0  -3 -13 337.762 208.060   4
   0   3  13 585.888 329.539   2
   0   3  13 63.4604 121.796   7
   0   3  14 1182.76 406.928   2
   0  -3 -14 643.453 284.465   4
   0   3  15 483.888 288.781   2
   0  -4  12 1001.82 390.246   5
   0   4 -12 977.439 357.839   4
   0  -4  12 322.239 339.548   8
   0  -4  11 23.4369 138.517   5
   0  -4  11 262.076 175.253   8
   0   4 -11-57.8050 142.077   4
   0   4 -10 14210.2 1229.51   4
   0  -4  10 11753.7 1411.08   8
   0  -4  10 13081.6 1213.40   5
   0  -4   9 592.380 368.515   8
   0   4  -9 300.494 180.747   4
   0   4  -8 7601.92 818.176   4
   0  -4   8 6748.77 916.336   8
   0  -4   8 7061.38 903.058   7
   0  -4   7 40.6635 193.354   7
   0  -4   7-123.271 210.216   8
   0   4  -7 41.1932 36.6162   6
   0   4  -7-109.883 124.652   4
   0  -4   6 23140.4 1488.10   7
   0   4  -6 21856.7 1329.60   8
   0   4  -6 21827.1 1317.20   4
   0  -4   6 20454.7 1379.70   8
   0   4  -6 21761.1 760.632   6
   0  -4   5 57.8001 117.564   8
   0   4  -5 83.1397 80.4441   8
   0   4  -4 49438.8 1380.29   6
   0   4  -4 48367.3 1848.54   8
   0   4  -4 52957.0 1870.75   7
   0  -4   4 50010.0 2073.14   7
   0  -4   4 48452.5 1871.57   8
   0   4  -3 577.878 179.442   7
   0   4  -3 383.376 128.611   8
   0  -4   3 449.951 136.098   8
   0   4  -2 118305. 2701.18   3
   0   4  -2 121083. 3100.95   7
   0   4  -2 118688. 3019.59   8
   0  -4   2 121278. 3001.67   8
   0  -4   1 462.577 130.951   8
   0   4  -1 515.187 215.713   7
   0   4  -1 755.304 175.467   8
   0   4  -1 555.380 114.621   3
   0   4   0 88791.6 2425.11   7
   0  -4   0 87573.2 2255.53   8
   0   4   0 80200.5 1907.91   3
   0  -4   0 86606.0 2007.86   3
   0   4   1 33208.1 1324.40   7
   0  -4  -1 30080.7 1001.93   3
   0  -4  -1 31637.3 1177.24   8
   0   4   2 135168. 3387.35   7
   0  -4  -2 136641. 3393.55   4
   0  -4  -2 131385. 3427.26   7
   0  -4  -3 9823.88 714.447   7
   0   4   3 7800.72 636.739   7
   0  -4  -3 8110.78 651.608   4
   0   4   4 3780.07 251.879   2
   0  -4  -4 3514.09 425.497   7
   0   4   4 4139.49 463.322   7
   0  -4  -4 3591.13 435.764   4
   0   4   5 75.4181 100.117   7
   0  -4  -5 122.989 116.668   7
   0   4   5 192.278 80.6320   2
   0  -4  -5 177.216 126.942   4
   0   4   5 100.981 103.552   4
   0   4   6 28513.9 1118.26   2
   0   4   6 28321.9 1338.22   7
   0   4   6 29306.6 1335.99   4
   0  -4  -6 26948.3 1227.18   7
   0  -4  -6 28879.5 1435.38   4
   0   4   7 77.0357 128.107   4
   0   4   7 179.612 156.886   7
   0   4   7 133.403 139.705   2
   0  -4  -7 81.6968 151.133   4
   0  -4  -7 16.7765 34.3920   1
   0   4   8 48229.4 1904.67   7
   0   4   8 46963.4 1937.50   4
   0  -4  -8 42266.0 2246.64   8
   0   4   8 46395.9 1798.48   2
   0  -4  -8 45177.8 2024.83   4
   0   4   9-115.706 104.426   7
   0  -4  -9-90.6392 131.201   4
   0  -4 -10 6297.02 760.351   4
   0   4  10 6530.92 692.277   7
   0   4  10 6697.05 738.929   2
   0   4  11 45.4419 112.766   7
   0  -4 -11-73.3327 146.184   4
   0   4  11 298.512 215.862   2
   0  -4 -12 938.172 312.662   4
   0   4  12 892.492 270.751   7
   0   4  12 775.443 323.055   2
   0  -4 -13-134.905 185.406   4
   0   4  13-28.4608 119.873   7
   0   4  14 1834.04 523.529   2
   0  -4 -14 1928.64 494.117   4
   0   4  15-165.194 184.545   2
   0  -5  11-191.282 214.974   5
   0  -5  11 189.119 260.326   8
   0   5 -11 39.9584 134.386   4
   0  -5  10 2977.31 595.886   5
   0  -5  10 1822.70 554.227   8
   0   5 -10 3536.02 619.943   4
   0  -5   9-435.071 311.319   8
   0   5  -9 293.979 189.169   4
   0   5  -8 14570.3 472.777   6
   0   5  -8 19162.2 1367.09   4
   0  -5   8 17090.3 1526.55   8
   0   5  -7 337.770 216.215   4
   0  -5   7-98.8228 245.478   8
   0   5  -7 305.593 96.4613   6
   0  -5   6 13124.5 1127.35   8
   0   5  -6 12678.1 1071.74   4
   0   5  -6 11045.5 983.288   8
   0   5  -6 13199.4 660.490   6
   0  -5   6 14781.2 1302.34   7
   0  -5   5 993.892 310.248   8
   0   5  -5 1018.74 286.730   8
   0   5  -5 1594.15 230.792   6
   0  -5   5 1277.05 387.370   7
   0   5  -4 50078.5 1961.31   7
   0  -5   4 49437.5 2293.23   7
   0  -5   4 46920.3 1980.94   8
   0   5  -4 47504.2 1956.05   8
   0   5  -3 4266.55 530.212   7
   0   5  -3 3712.12 480.543   8
   0  -5   3 3516.68 451.536   8
   0  -5   3 5113.75 645.711   7
   0   5  -3 3453.72 371.890   3
   0   5  -2 42829.9 1718.25   7
   0  -5   2 41394.4 1641.51   8
   0   5  -2 42404.8 1378.21   3
   0   5  -2 41106.1 1613.95   8
   0   5  -1 692.040 138.258   3
   0   5  -1 549.826 174.403   8
   0  -5   1 814.856 185.771   8
   0   5  -1 1148.86 296.020   7
   0   5   0 20079.6 1108.54   7
   0  -5   0 19371.6 827.549   3
   0  -5   0 19724.6 1006.22   8
   0  -5  -1 3808.47 353.031   3
   0  -5  -1 3435.75 399.100   8
   0   5   2 80274.9 2516.25   7
   0  -5  -2 79551.7 2155.35   3
   0  -5  -3 16939.5 1057.47   4
   0   5   3 16351.8 1020.07   7
   0  -5  -3 16111.0 1053.87   7
   0   5   4 148438. 3852.43   7
   0  -5  -4 141279. 3810.63   7
   0  -5  -4 150443. 3965.71   4
   0   5   4 142264. 3595.13   4
   0   5   5 331.694 162.476   7
   0  -5  -5 779.261 229.041   7
   0   5   5 875.272 137.211   2
   0  -5  -5 623.706 219.442   4
   0   5   5 552.707 170.571   4
   0   5   6 38127.6 1240.72   2
   0   5   6 40245.2 1751.30   7
   0  -5  -6 40224.1 1868.84   4
   0   5   6 40303.1 1664.62   4
   0  -5  -6 39031.2 1646.20   7
   0   5   7-33.5614 123.304   4
   0   5   7 64.3915 92.8643   2
   0  -5  -7 0.64058 128.706   7
   0  -5  -7 126.195 209.893   4
   0   5   7-59.8666 135.928   7
   0   5   8 6891.12 602.022   2
   0  -5  -8 6519.25 321.337   1
   0  -5  -8 8451.11 860.634   4
   0   5   8 7783.34 758.398   7
   0   5   9 141.842 176.728   2
   0  -5  -9 34.6939 155.731   4
   0   5   9 155.085 138.854   7
   0  -5 -10 1329.28 364.804   4
   0   5  10 1127.22 315.188   7
   0   5  10 1254.23 311.868   2
   0  -5 -11 23.5436 154.414   4
   0   5  11 299.398 187.193   2
   0   5  12 3560.09 599.734   2
   0   5  12 4315.41 599.606   7
   0  -5 -12 4321.01 722.816   4
   0  -5 -13 423.378 223.579   4
   0   5  13 28.3092 148.227   2
   0  -5 -14 1909.89 526.094   4
   0   5  14 1664.96 446.270   2
   0   5  15-67.5000 161.880   2
   0  -6  11 54.0977 181.403   8
   0  -6  10 2196.96 668.756   8
   0   6 -10 3197.20 616.666   4
   0  -6  10 2694.47 615.135   5
   0   6  -9 215.977 155.112   4
   0  -6   9 138.900 240.863   8
   0   6  -8 11307.0 1097.14   4
   0  -6   8 8677.99 1135.79   8
   0   6  -7 1462.39 380.132   4
   0  -6   7 1805.23 487.479   8
   0   6  -7 2001.40 260.665   6
   0   6  -6 22262.4 981.776   6
   0  -6   6 19905.5 1498.40   8
   0  -6   5 355.559 228.398   8
   0   6  -5-120.123 122.380   8
   0   6  -5 621.209 183.427   6
   0   6  -4 5413.15 526.661   3
   0   6  -4 5057.94 625.423   8
   0  -6   4 5149.83 638.197   8
   0   6  -4 5785.50 665.435   7
   0   6  -3 206.781 136.413   8
   0  -6   3 161.102 151.627   8
   0   6  -3 145.825 123.948   3
   0  -6   3 88.1274 104.621   7
   0   6  -3 205.073 174.308   7
   0  -6   2 3084.07 453.823   8
   0  -6   2 2972.52 514.682   7
   0   6  -2 3877.44 542.710   7
   0   6  -2 2488.52 383.953   8
   0   6  -2 2334.46 295.110   3
   0  -6   1-121.447 171.236   7
   0   6  -1 53.5196 131.030   7
   0   6  -1 38.8435 41.9334   3
   0  -6   1 53.2286 83.7678   8
   0  -6   0 51441.1 1924.95   8
   0   6   0 50586.1 2070.73   7
   0   6   1 10320.3 865.428   7
   0  -6  -1 8732.97 707.781   8
   0   6   1 9852.64 788.489   4
   0  -6  -1 9244.30 617.131   3
   0  -6  -2 111671. 3456.55   7
   0   6   2 110451. 3320.18   7
   0  -6  -2 108171. 2784.65   3
   0  -6  -2 106335. 3052.67   8
   0   6   2 110082. 3114.20   4
   0   6   3 9585.93 762.103   4
   0   6   3 11240.5 915.321   7
   0  -6  -3 10804.3 937.325   7
   0  -6  -3 9844.04 724.378   3
   0   6   4 44954.9 1946.14   7
   0  -6  -4 44979.1 2031.98   4
   0  -6  -4 43992.1 1975.20   7
   0   6   4 41061.0 1710.08   4
   0   6   5 126.870 63.3340   4
   0   6   5 78.7940 136.969   7
   0  -6  -5 217.785 167.457   4
   0  -6  -5 124.967 128.955   7
   0  -6  -6 5595.79 643.961   7
   0  -6  -6 7632.43 853.811   4
   0   6   6 6604.94 727.304   7
   0   6   6 5851.87 346.798   2
   0   6   6 6633.11 660.382   4
   0  -6  -7 63.8756 82.3169   7
   0   6   7 29.2469 83.5777   2
   0  -6  -7-104.020 202.351   4
   0   6   7 152.570 145.159   7
   0  -6  -8 7002.66 848.923   4
   0  -6  -8 7205.63 480.689   1
   0   6   8 6976.50 767.993   7
   0   6   8 7241.52 557.663   2
   0  -6  -8 7056.62 719.699   7
   0  -6  -9-44.8744 38.9038   1
   0   6   9 311.990 256.707   7
   0   6   9 148.793 127.363   2
   0  -6  -9 122.978 260.683   4
   0  -6 -10 14201.5 1272.75   4
   0   6  10 14072.9 1112.37   7
   0   6  10 12539.4 906.152   2
   0   6  11 208.683 159.191   7
   0  -6 -11-47.2928 195.871   4
   0   6  11 91.2152 114.353   2
   0  -6 -12 3051.45 627.344   4
   0   6  12 2840.17 517.858   7
   0   6  12 1979.03 406.392   2
   0   6  13 378.215 209.365   2
   0  -6 -13 257.783 263.923   4
   0  -7  10 1344.54 519.040   8
   0  -7   9 186.875 166.769   5
   0   7  -9 13.3794 158.528   4
   0  -7   9 22.7726 187.470   8
   0   7  -8 3989.22 686.624   4
   0  -7   8 4745.15 863.615   8
   0   7  -7 324.214 160.365   4
   0  -7   7 560.138 286.079   8
   0   7  -6 5107.04 595.078   3
   0  -7   6 5497.07 808.789   8
   0   7  -6 6942.46 578.643   6
   0   7  -5 28.6167 53.9887   3
   0  -7   5 95.8678 144.267   8
   0   7  -5 281.679 134.287   6
   0   7  -4 23410.6 1479.75   7
   0  -7   4 20661.3 1416.91   8
   0   7  -3 2645.84 462.903   8
   0   7  -3 2878.32 516.541   7
   0   7  -3 2341.49 325.065   3
   0  -7   3 3568.09 538.239   8
   0  -7   2 13889.1 1060.16   8
   0   7  -2 13055.1 743.752   3
   0   7  -2 13981.3 1101.13   7
   0   7  -1 1595.43 403.259   7
   0  -7   1 1056.38 270.945   8
   0  -7   0 15100.1 1051.27   8
   0   7   0 15923.0 1179.53   7
   0   7   1 585.180 230.431   7
   0  -7  -1 354.328 136.472   3
   0  -7  -1-47.0075 209.267   7
   0   7   1 522.932 163.217   4
   0  -7  -1 263.647 164.954   8
   0  -7  -1 356.230 77.7522   2
   0  -7  -2 7214.52 708.042   8
   0  -7  -2 7806.32 633.076   3
   0  -7  -2 8450.73 903.038   7
   0   7   2 8962.30 871.304   7
   0   7   2 7371.25 723.770   4
   0  -7  -3 396.377 203.365   7
   0  -7  -3 18.8392 79.0734   8
   0   7   3 204.303 183.887   7
   0  -7  -3 188.168 128.875   3
   0   7   3 474.385 180.215   4
   0  -7  -4 8791.38 784.003   3
   0   7   4 7988.83 757.083   4
   0   7   4 8809.83 886.749   7
   0  -7  -4 9840.44 973.781   7
   0  -7  -5 6504.50 828.051   4
   0  -7  -5 5905.55 738.179   7
   0   7   5 6108.20 741.963   7
   0  -7  -6 10237.8 958.848   7
   0  -7  -6 12411.7 1178.42   4
   0   7   6 10882.0 996.747   7
   0  -7  -7 390.284 238.116   7
   0  -7  -7 391.174 288.543   4
   0   7   7 52.4412 127.896   7
   0   7   7 150.439 52.4551   2
   0   7   8 22542.2 1479.36   7
   0   7   8 21219.2 863.024   2
   0  -7  -8 21411.4 1635.59   4
   0  -7  -9-35.1710 52.1927   1
   0   7   9 187.913 115.293   2
   0  -7  -9-49.4063 200.386   4
   0   7   9-153.313 124.752   7
   0   7  10 4660.58 681.730   7
   0   7  10 4123.90 478.189   2
   0  -7 -10 4740.64 776.082   4
   0   7  11-114.249 155.730   7
   0  -7 -11-361.734 265.922   4
   0   7  11-86.3074 115.458   2
   0  -7 -12 1736.26 521.483   4
   0   7  12 1101.61 345.077   7
   0  -7 -13-314.732 241.632   4
   0  -8   9-82.9661 141.753   8
   0  -8   8 108.354 127.540   8
   0  -8   8 566.825 349.604   5
   0   8  -7 38.2285 128.723   4
   0  -8   7 266.559 308.966   8
   0   8  -6 10280.4 767.710   6
   0  -8   6 11515.8 1224.69   8
   0  -8   5 1026.94 353.010   8
   0   8  -5 1038.78 249.100   6
   0  -8   4 10426.3 1073.89   8
   0   8  -4 12785.8 1150.70   7
   0   8  -3-222.693 247.924   7
   0   8  -3 46.0155 48.3321   3
   0  -8   3-127.206 158.483   8
   0   8  -2 12769.5 747.931   3
   0  -8   2 12803.5 1080.26   8
   0   8  -2 13713.7 1160.47   7
   0  -8   1-91.7483 150.851   8
   0   8  -1 98.1965 187.385   7
   0  -8   0 5660.40 462.282   2
   0  -8   0 4269.69 592.656   8
   0   8   0 4322.51 653.591   7
   0  -8  -1 59.3858 32.8086   2
   0  -8  -1 59.4360 30.0793   2
   0   8   2 6300.85 796.974   7
   0  -8  -2 6994.88 746.618   8
   0  -8  -2 6021.65 593.352   3
   0  -8  -3-3.51792 110.769   8
   0  -8  -3-32.7823 60.6954   3
   0   8   4 16256.0 1282.84   7
   0  -8  -4 14699.1 1051.08   3
   0  -8  -5 2871.95 485.472   3
   0   8   5 3290.59 599.578   7
   0  -8  -6 11912.8 1071.36   3
   0   8   6 12344.9 1128.77   7
   0  -8  -6 11983.0 1221.58   4
   0  -8  -6 11493.6 474.870   5
   0  -8  -7 387.542 212.835   4
   0   8   7-20.2371 187.060   7
   0   8   8 2118.47 466.917   7
   0  -8  -8 2606.21 610.574   4
   0   8   9-20.8922 137.915   7
   0  -8  -9 70.3296 162.599   4
   0   8  10 1807.35 428.651   7
   0  -8 -10 2154.34 573.791   4
   0   8  11 9.08472 129.857   7
   0  -8 -11 81.6989 142.122   4
   0  -8 -12 531.619 279.106   4
   0   8  12 1134.63 348.186   7
   0  -9   8 1626.00 635.445   2
   0  -9   8 1380.07 560.845   8
   0  -9   7 262.296 205.979   8
   0  -9   7 380.161 306.374   2
   0  -9   6 534.420 304.434   8
   0  -9   5-67.1626 111.965   8
   0   9  -5 219.319 139.823   6
   0   9  -4 7400.34 721.274   6
   0  -9   4 7327.23 940.237   8
   0   9  -4 8600.14 1002.78   7
   0  -9   3-47.0566 148.232   8
   0   9  -3-15.6622 171.786   7
   0   9  -2 8238.22 967.759   7
   0  -9   2 8308.97 921.455   8
   0  -9   2 8482.37 827.606   2
   0   9  -1 753.751 319.334   7
   0  -9   1 557.124 253.968   8
   0  -9   1 677.012 200.654   2
   0  -9   0 5493.85 720.987   8
   0  -9   0 6769.46 460.984   2
   0   9   0 5704.93 791.851   7
   0  -9  -1 201.467 129.639   8
   0   9   1 822.152 341.241   7
   0  -9  -2 24548.7 1564.76   8
   0   9   2 26788.3 1775.10   7
   0  -9  -2 23743.3 1282.51   3
   0   9   3-26.7968 173.984   7
   0  -9  -3-141.037 183.231   8
   0  -9  -3-19.1427 115.975   3
   0  -9  -4 9244.91 860.314   3
   0   9   4 10625.0 1094.77   7
   0  -9  -4 9490.18 991.968   8
   0  -9  -5-44.1739 95.4605   5
   0  -9  -5 207.731 166.562   3
   0   9   5 43.6902 208.306   7
   0  -9  -5-47.3645 143.511   8
   0  -9  -6 1012.25 330.054   3
   0  -9  -6 1013.33 161.582   5
   0  -9  -7 566.363 265.227   3
   0   9   7 814.091 348.322   7
   0  -9  -7 605.697 289.346   4
   0  -9  -8 1426.17 431.774   3
   0   9   8 2216.77 539.806   7
   0  -9  -8 1678.74 512.019   4
   0  -9  -9-15.2311 165.380   4
   0   9   9 33.1934 190.765   7
   0  -9 -10 1317.35 429.408   4
   0   9  10 1507.11 420.848   7
   0  -9 -11 103.249 161.339   4
   0   9  11-116.986 182.684   7
   0   9  12 1232.02 398.922   7
   0 -10   6 1145.14 448.418   8
   0 -10   5 347.699 266.467   5
   0 -10   5-4.72023 154.182   8
   0 -10   4 1860.62 495.116   8
   0  10  -4 2128.97 412.547   6
   0  10  -4 2465.20 589.885   7
   0 -10   3 9.14581 97.6633   8
   0  10  -3-269.538 140.029   7
   0  10  -2 2356.60 552.473   7
   0 -10   2 1954.83 488.148   8
   0  10  -1 141.394 139.301   7
   0 -10   1-141.978 160.233   8
   0  10   0 10911.3 1178.51   7
   0 -10   0 10503.3 1082.47   8
   0 -10  -1 1672.45 428.910   8
   0  10   1 2999.40 643.309   7
   0  10   2 3964.89 712.067   7
   0 -10  -2 3339.46 603.529   8
   0 -10  -3 1138.66 286.656   3
   0 -10  -3 904.174 313.443   8
   0  10   3 729.356 346.459   7
   0 -10  -4 4888.77 745.578   8
   0  10   4 5077.05 838.965   7
   0 -10  -4 5410.09 637.138   5
   0 -10  -4 5856.18 707.998   3
   0 -10  -5 108.877 156.496   3
   0 -10  -5-20.5626 103.801   8
   0  10   5 387.859 275.366   7
   0  10   6 4578.22 786.513   7
   0 -10  -6 3660.01 626.857   3
   0 -10  -6 3286.91 638.567   8
   0 -10  -7-10.1619 94.2182   3
   0  10   7 398.045 298.574   7
   0  10   8 2490.38 576.688   7
   0 -10  -8 2555.33 579.679   3
   0 -10  -9-235.156 209.092   3
   0  10   9 276.786 255.662   7
   0 -10  -9 92.0915 207.854   4
   0  10  10 1870.32 503.218   7
   0 -10 -10 1396.28 486.348   4
   0 -10 -10 1358.22 452.031   3
   0  10  11 189.669 195.236   7
   0 -11   4 310.916 210.594   8
   0 -11   3 202.859 421.103   5
   0  11  -3 901.751 296.678   6
   0 -11   3 472.505 288.896   8
   0 -11   2 2893.16 616.173   8
   0 -11   2 4625.63 1031.99   5
   0 -11   1 197.282 219.530   8
   0  11  -1 437.605 217.483   7
   0  11   0 38.5670 138.716   7
   0 -11   0 322.193 211.925   8
   0 -11  -1-359.130 305.663   5
   0  11   1 209.970 282.664   7
   0 -11  -1 85.5604 97.9994   8
   0 -11  -2 822.662 341.086   5
   0 -11  -2 1612.47 448.126   8
   0  11   2 2182.29 578.626   7
   0  11   3 346.837 252.267   7
   0 -11  -3-77.3154 151.375   8
   0 -11  -3 113.260 154.112   5
   0  11   4 4275.34 789.748   7
   0 -11  -4 3729.14 697.156   8
   0  11   5 579.043 331.927   7
   0 -11  -5-124.338 192.900   8
   0 -11  -6 1577.04 494.382   8
   0  11   6 2464.25 589.732   7
   0 -11  -7 231.939 246.188   8
   0  11   7-23.9045 140.879   7
   0  11   8 1486.54 489.617   7
   0  11   9 392.679 288.784   7
   0  11  10 835.092 375.199   7
   0 -12   1-53.4572 140.186   5
   0 -12   0 1302.47 502.383   5
   0 -12  -3 846.659 332.514   8
   0 -12  -4 226.235 240.466   8
   0 -12  -5 63.9683 134.556   8
   0 -12  -6 743.403 346.918   8
   1 -12  -6 9.57700 166.140   8
   1 -12  -5 677.541 363.684   8
   1 -12  -4 353.966 278.319   8
   1 -12  -3 663.058 332.383   8
   1 -12  -2-100.073 158.435   8
   1 -12  -1 88.7849 146.086   8
   1 -12   0-83.6628 145.345   8
   1 -12   1 320.941 216.585   8
  -1  11   9 1203.73 429.491   7
  -1  11   8 472.926 284.159   7
  -1  11   7 1025.14 379.256   7
   1 -11  -7 1278.70 465.146   8
   1 -11  -6 222.264 154.808   8
  -1  11   6 411.692 341.609   7
   1 -11  -5 1844.03 542.043   8
  -1  11   5 1379.99 429.130   7
  -1  11   4 179.148 218.578   7
   1 -11  -4 112.608 215.677   8
   1 -11  -3 875.014 356.781   8
  -1  11   3 907.849 367.084   7
  -1  11   2 703.038 334.685   7
   1 -11  -2 114.862 143.290   8
   1 -11  -1 713.920 324.096   8
  -1  11   1 1089.56 390.028   7
   1 -11   0 704.224 319.971   8
  -1  11   0 1665.55 480.016   7
   1 -11   1 2527.33 611.536   8
   1 -11   2 77.2203 155.156   8
  -1  11  -2 359.421 229.502   6
  -1  11  -3 457.658 227.755   6
   1 -11   3 251.814 169.569   8
   1 -11   4 197.502 208.998   8
  -1  10  10 89.0985 182.375   7
  -1  10   9 912.813 341.501   7
   1 -10  -8-276.349 252.559   4
  -1  10   8 83.6197 220.472   7
   1 -10  -8 71.7778 129.826   3
   1 -10  -7 1181.35 382.641   3
  -1  10   7 1516.25 422.231   7
   1 -10  -6-103.660 143.714   3
  -1  10   6 326.752 313.316   7
   1 -10  -6 34.0869 128.960   8
  -1  10   5 3869.66 684.935   7
   1 -10  -5 2827.01 480.217   3
   1 -10  -5 3081.60 658.709   8
   1 -10  -4-71.0051 187.514   8
  -1  10   4 737.780 342.367   7
  -1  10   3 10860.0 1149.46   7
   1 -10  -3 10340.0 1160.23   8
   1 -10  -2-146.462 202.748   8
  -1  10   2 585.352 310.540   7
  -1  10   1 4538.41 735.669   7
   1 -10  -1 5862.71 853.597   8
   1 -10   0 499.528 274.547   8
  -1  10   0 238.883 207.617   7
  -1  10  -1 1825.40 494.498   7
   1 -10   1 2537.60 577.302   8
   1 -10   2 321.860 174.011   8
  -1  10  -2 305.992 206.432   7
  -1  10  -3 3105.58 538.736   6
   1 -10   3 2136.62 529.047   8
  -1  10  -4-17.6708 111.397   6
   1 -10   4 317.544 203.714   8
   1 -10   5 1561.09 490.563   8
   1 -10   6-132.403 201.565   8
   1  -9 -10 382.818 307.227   4
  -1   9  10 174.795 190.982   7
  -1   9   9 1177.91 360.625   7
   1  -9  -9 976.237 432.947   4
  -1   9   8 178.929 193.311   7
   1  -9  -8 271.068 192.520   4
  -1   9   7 2668.33 543.925   7
   1  -9  -7 3448.18 753.338   4
  -1   9   6-271.687 174.862   7
   1  -9  -6-62.1094 121.071   3
  -1   9   5 13739.2 1216.59   7
   1  -9  -5 13001.4 1033.97   3
   1  -9  -4 44.9570 75.1753   3
  -1   9   4 191.975 200.899   7
   1  -9  -4 90.9698 144.956   8
   1  -9  -3 6799.33 625.474   3
  -1   9   3 7811.01 924.398   7
   1  -9  -3 5622.33 802.138   8
   1  -9  -2-15.2250 100.249   8
  -1   9   2 318.295 204.309   7
   1  -9  -2 248.461 117.170   3
  -1   9   1 4096.71 660.399   7
   1  -9  -1 4775.88 715.794   8
  -1   9   0-67.3385 158.985   7
   1  -9   0 294.220 198.029   8
   1  -9   1 8133.07 949.568   8
  -1   9  -1 7957.18 950.215   7
  -1   9  -2-62.6875 224.663   7
   1  -9   2 158.636 156.435   8
   1  -9   3 13585.0 1290.38   8
  -1   9  -3 12915.9 1044.96   6
  -1   9  -3 11984.7 1193.82   7
  -1   9  -4 285.594 183.817   6
   1  -9   4-124.456 184.759   8
   1  -9   5 1981.78 517.505   8
  -1   9  -5 2696.14 459.342   6
   1  -9   6-103.775 208.029   8
   1  -9   7 1801.84 542.833   8
  -1   8  11 1974.28 438.906   7
   1  -8 -11 2283.40 604.660   4
   1  -8 -10-164.412 204.946   4
  -1   8  10 347.185 215.270   7
  -1   8   9 3706.99 600.754   7
   1  -8  -9 4600.36 821.333   4
  -1   8   8 43.8622 111.359   7
   1  -8  -8-54.3844 196.218   4
  -1   8   7 8828.21 938.284   7
   1  -8  -7 10410.2 1200.87   4
  -1   8   6 274.019 218.760   7
   1  -8  -6-55.0626 171.522   4
   1  -8  -5 1507.71 429.115   4
   1  -8  -5 1918.14 384.297   3
  -1   8   5 1978.08 430.045   7
  -1   8   4 94.2998 138.532   7
   1  -8  -4 84.9114 129.174   3
   1  -8  -3 2623.33 526.748   8
   1  -8  -3 2952.49 391.474   3
   1  -8  -2 2116.71 457.912   8
  -1   8   2 1479.90 399.890   7
   1  -8  -2 1411.75 259.204   3
   1  -8  -1 7559.56 431.162   2
   1  -8  -1 7432.96 846.660   8
  -1   8   1 8276.21 890.220   7
   1  -8   0-197.492 182.859   8
  -1   8   0-112.828 150.889   7
  -1   8  -1 27430.2 1665.16   7
   1  -8   1 23220.9 1532.11   8
  -1   8  -2 1797.35 415.430   7
   1  -8   2 2061.81 442.849   8
   1  -8   3 15598.4 1287.03   8
  -1   8  -3 16378.8 1085.75   6
  -1   8  -3 16596.0 1320.69   7
   1  -8   4-69.5492 128.406   8
  -1   8  -4 158.549 177.961   6
   1  -8   5 7979.77 984.376   8
  -1   8  -5 7635.00 736.346   6
  -1   8  -6-43.2870 119.368   6
   1  -8   6-40.9183 220.010   8
   1  -8   7 1586.71 491.066   8
  -1   8  -8 214.250 243.065   4
   1  -8   8 50.7725 150.650   8
   1  -8   9 1267.77 476.404   8
   1  -7 -12-165.210 277.398   4
  -1   7  11 2810.68 485.567   7
   1  -7 -11 2209.58 562.568   4
  -1   7  10 197.976 106.044   2
   1  -7 -10 336.620 196.644   4
  -1   7  10-158.397 132.846   7
  -1   7   9 6498.64 591.494   2
  -1   7   9 7186.66 762.224   7
   1  -7  -9 7242.80 973.778   4
   1  -7  -8 56.1187 221.702   4
  -1   7   8 84.2110 51.2332   2
  -1   7   8 233.707 118.255   7
   1  -7  -8 159.221 168.098   7
   1  -7  -7 942.888 110.584   5
  -1   7   7 966.129 309.373   7
   1  -7  -7 866.208 340.059   4
   1  -7  -7 857.157 264.041   7
  -1   7   7 962.801 175.506   2
   1  -7  -6 4.54064 116.188   7
  -1   7   6 406.623 240.924   7
   1  -7  -6-56.8394 167.999   4
   1  -7  -5 8065.13 939.137   4
  -1   7   5 9064.25 871.009   7
   1  -7  -5 6924.59 799.033   7
   1  -7  -4 69.1135 109.008   7
   1  -7  -4 309.017 174.422   4
   1  -7  -3 31456.4 1330.45   3
  -1   7   3 30553.7 1641.24   7
   1  -7  -3 30137.6 1731.15   7
   1  -7  -2 60.5714 58.4034   3
  -1   7   2 241.668 225.968   7
   1  -7  -2 138.886 64.0250   2
   1  -7  -2 12.3149 167.011   8
   1  -7  -2 59.9942 120.081   7
   1  -7  -1 21891.0 898.938   3
  -1   7   1 22089.1 1374.21   7
   1  -7  -1 21968.3 1376.76   8
   1  -7  -1 20053.8 757.089   2
  -1   7   0 240.103 210.558   7
   1  -7   0-117.586 186.573   8
   1  -7   1 2284.91 442.581   8
  -1   7  -1 2156.32 439.383   7
  -1   7  -2 780.502 253.099   7
   1  -7   2 575.885 259.041   8
  -1   7  -3 11095.7 539.690   3
  -1   7  -3 11479.2 1034.89   7
  -1   7  -4 330.680 172.436   6
   1  -7   4-118.599 148.539   8
  -1   7  -4 129.179 75.2623   3
  -1   7  -5 10500.1 680.981   3
  -1   7  -5 11202.5 839.941   6
   1  -7   5 9683.30 1028.90   8
  -1   7  -6 478.064 171.764   6
   1  -7   6 509.830 255.729   8
   1  -7   7 7669.69 1014.80   8
  -1   7  -7 8657.36 703.726   6
  -1   7  -8 356.070 251.809   4
   1  -7   8 259.143 263.481   8
  -1   7  -9 1559.41 464.016   4
   1  -7   9 2174.73 630.779   8
   1  -7  10-380.521 314.323   8
   1  -6 -13 1524.47 488.765   4
  -1   6  13 752.748 283.601   2
  -1   6  12-165.987 97.9910   2
   1  -6 -12 95.4592 196.733   4
  -1   6  11 2218.67 437.088   2
  -1   6  11 2733.86 443.774   7
   1  -6 -11 2583.06 569.668   4
  -1   6  10 241.662 133.807   7
  -1   6  10 325.663 185.739   2
   1  -6 -10-11.4490 150.680   4
  -1   6   9 3052.30 473.096   7
   1  -6  -9 2897.96 577.717   4
  -1   6   9 3014.87 435.487   2
   1  -6  -8 1081.07 362.985   4
   1  -6  -8 874.975 241.821   7
  -1   6   8 1249.06 303.143   7
  -1   6   8 1030.05 238.874   2
   1  -6  -7 16591.3 555.280   5
  -1   6   7 16060.4 868.634   2
   1  -6  -7 15402.3 1032.81   7
  -1   6   7 15801.1 1074.16   7
   1  -6  -7 16782.2 1336.60   4
   1  -6  -6-210.394 250.759   4
   1  -6  -6 181.723 160.770   7
  -1   6   6 32.3329 53.4634   2
  -1   6   6 156.712 112.300   7
   1  -6  -5 68918.9 2734.74   4
   1  -6  -5 61696.9 2359.45   7
  -1   6   5 60281.3 2264.80   4
  -1   6   5 66880.7 2348.24   7
  -1   6   5 61555.2 1572.16   2
   1  -6  -4 345.012 194.108   4
  -1   6   4 597.458 242.076   7
   1  -6  -4 999.160 303.339   7
  -1   6   4 638.454 226.882   4
   1  -6  -3 59972.4 2467.50   4
  -1   6   3 61135.5 2210.67   4
   1  -6  -3 60123.8 1374.03   2
  -1   6   3 60435.5 2249.52   7
   1  -6  -3 63337.3 2381.90   7
   1  -6  -2 246.460 103.810   3
   1  -6  -2 218.963 77.8096   2
   1  -6  -2 295.465 170.228   8
   1  -6  -2 102.640 152.977   7
  -1   6   2 42.0884 131.354   4
  -1   6   2 145.158 165.114   7
   1  -6  -1 95.2107 51.8928   2
   1  -6  -1 303.485 164.046   8
  -1   6   1 411.420 215.187   7
   1  -6  -1 180.966 82.7809   3
   1  -6  -1 173.848 133.277   7
  -1   6   0 2510.01 430.442   7
  -1   6   0 2070.79 379.460   4
   1  -6   0 2089.15 393.488   8
   1  -6   0 1960.37 379.514   7
   1  -6   1 25699.9 1418.82   8
  -1   6  -1 27655.1 1430.11   7
  -1   6  -1 26002.1 1413.44   4
   1  -6   2 2937.04 468.006   8
  -1   6  -2 3063.87 458.473   8
   1  -6   2 2349.10 462.635   7
  -1   6  -2 3816.51 531.789   7
  -1   6  -3 20859.1 790.310   3
  -1   6  -3 23522.7 1390.72   7
  -1   6  -3 23898.5 1396.25   8
   1  -6   3 23339.4 1387.20   8
  -1   6  -3 23830.7 1160.51   6
  -1   6  -4 293.781 107.126   3
   1  -6   4 173.483 113.578   8
  -1   6  -4 344.657 150.485   6
  -1   6  -4 259.071 139.895   8
   1  -6   5 11286.2 1031.46   8
  -1   6  -5 9569.46 649.659   3
  -1   6  -5 10121.2 740.037   6
   1  -6   6 108.878 150.511   8
  -1   6  -6-78.1080 157.611   6
  -1   6  -7 9926.76 701.940   6
   1  -6   7 10625.9 1126.96   8
   1  -6   8 211.857 210.300   8
  -1   6  -8 198.811 121.150   6
  -1   6  -8 84.3019 118.304   4
   1  -6   9 4879.99 878.602   8
  -1   6  -9 3919.57 665.005   4
   1  -6  10-137.262 277.074   8
  -1   6 -10 7.75626 122.376   4
   1  -6  11 273.838 299.501   8
  -1   5  14 12.2852 149.332   2
  -1   5  13 2481.46 516.315   2
   1  -5 -13 2483.80 577.789   4
   1  -5 -12 187.147 201.273   4
  -1   5  12 34.9719 132.588   2
  -1   5  11 1990.35 344.753   7
  -1   5  11 1406.12 344.396   2
  -1   5  10 298.712 163.938   2
  -1   5  10 506.439 184.295   7
  -1   5   9 18690.7 1187.40   2
   1  -5  -9 19342.9 1452.70   4
  -1   5   9 19156.6 1110.65   7
  -1   5   8 290.211 158.122   7
  -1   5   8 211.730 105.572   2
   1  -5  -8 631.142 288.944   4
   1  -5  -7 37253.1 1905.03   4
   1  -5  -7 35957.3 1495.70   7
   1  -5  -7 36296.2 999.923   5
  -1   5   7 35829.2 1544.40   7
  -1   5   7 36422.1 1466.15   2
   1  -5  -6 2153.73 638.346   4
   1  -5  -6 2931.26 448.746   7
  -1   5   6 1413.46 248.398   2
   1  -5  -6 1697.43 264.107   5
  -1   5   6 2113.12 387.617   7
  -1   5   6 3147.05 453.544   4
  -1   5   5 22984.1 917.396   2
  -1   5   5 23210.8 1193.48   7
  -1   5   5 21706.1 1191.71   4
   1  -5  -5 22676.8 1383.67   4
   1  -5  -5 20868.2 1154.81   7
  -1   5   4 218.911 75.0436   2
   1  -5  -4 205.955 140.729   4
  -1   5   4 105.919 135.315   7
   1  -5  -4 109.477 108.767   7
   1  -5  -3 22502.2 753.250   2
  -1   5   3 24324.1 1213.27   7
   1  -5  -3 25737.5 1384.21   4
   1  -5  -3 24431.6 1261.36   7
   1  -5  -2 2288.93 207.369   2
  -1   5   2 3042.56 431.209   7
   1  -5  -2 2215.08 403.387   4
   1  -5  -2 2622.68 405.377   7
  -1   5   1 178689. 4233.34   7
   1  -5  -1 171766. 3409.33   3
   1  -5  -1 167133. 3346.12   2
   1  -5  -1 169048. 4271.15   7
   1  -5  -1 171595. 4235.66   8
   1  -5   0 1633.13 309.972   8
  -1   5   0 1538.14 324.076   7
   1  -5   1 26576.1 1324.82   8
  -1   5  -1 24858.6 1274.78   7
  -1   5  -2 72.4341 34.6202   3
  -1   5  -2-9.68876 98.9005   8
   1  -5   2-171.536 170.321   8
  -1   5  -2 14.7677 114.309   7
  -1   5  -3 101294. 2691.79   6
   1  -5   3 105248. 3257.79   7
  -1   5  -3 108462. 3164.70   8
  -1   5  -3 101039. 3084.92   7
  -1   5  -3 102187. 2326.14   3
   1  -5   3 111936. 3206.22   8
   1  -5   4 10.4934 91.1738   8
  -1   5  -4 88.4173 74.4421   8
   1  -5   4 44.3653 108.622   7
  -1   5  -4 177.288 97.7189   6
  -1   5  -5 36296.9 1363.42   6
  -1   5  -5 33435.9 1727.58   8
   1  -5   5 31526.5 1680.37   8
   1  -5   5 30882.1 1742.93   7
  -1   5  -6 76.6528 67.6245   6
   1  -5   6 73.1978 152.120   8
   1  -5   7 2595.67 528.693   8
  -1   5  -7 2191.11 298.151   6
  -1   5  -7 2629.08 486.505   4
  -1   5  -8-37.0886 68.8037   6
  -1   5  -8-49.4225 157.761   4
  -1   5  -9 7899.11 914.906   4
   1  -5   9 7161.48 1017.06   8
   1  -5  10 6.95647 184.675   8
  -1   5 -10-79.0496 169.253   4
   1  -5  11 2125.76 619.970   8
  -1   5 -11 3463.24 638.672   4
  -1   4  15 675.080 373.951   2
  -1   4  14 249.984 250.415   2
   1  -4 -13 1410.54 433.466   4
  -1   4  13 2702.90 584.112   2
   1  -4 -12 151.529 173.618   4
  -1   4  12 381.725 238.414   2
  -1   4  11 4089.08 477.708   7
   1  -4 -11 3443.72 609.286   4
  -1   4  11 4196.47 656.441   2
  -1   4  10 3348.15 431.846   7
   1  -4 -10 3995.09 616.992   4
  -1   4  10 3594.48 570.880   2
  -1   4   9 16778.5 959.594   7
   1  -4  -9 17258.0 1296.39   4
  -1   4   9 16139.2 1128.92   2
  -1   4   8 769.551 241.396   2
   1  -4  -8 1335.57 369.298   4
  -1   4   8 668.465 188.967   7
  -1   4   7 6613.39 561.987   7
  -1   4   7 5799.67 566.369   2
  -1   4   7 7744.01 731.656   4
   1  -4  -7 6537.05 724.326   4
   1  -4  -6 10473.7 705.111   7
  -1   4   6 10852.9 729.200   7
   1  -4  -6 10545.8 550.868   5
  -1   4   6 12111.4 874.700   4
  -1   4   6 9866.12 710.676   2
   1  -4  -5 1685.50 189.833   5
  -1   4   5 1358.61 246.576   7
   1  -4  -5 1655.41 269.700   7
   1  -4  -5 1716.79 356.182   4
  -1   4   5 1624.23 253.094   2
   1  -4  -4 2219.47 377.081   4
   1  -4  -4 2188.40 325.457   7
  -1   4   4 2201.12 248.851   2
  -1   4   4 2723.19 373.641   7
   1  -4  -3 228800. 4399.40   2
   1  -4  -3 236624. 5044.18   7
  -1   4   3 232686. 4961.83   7
   1  -4  -3 235831. 5304.59   4
  -1   4   3 229456. 4406.20   2
   1  -4  -2 14041.9 557.475   2
   1  -4  -2 13216.3 875.376   4
  -1   4   2 15110.6 832.737   7
   1  -4  -2 14580.9 847.000   7
   1  -4  -1 40957.9 1106.45   2
   1  -4  -1 41534.5 1564.51   7
   1  -4   0 565.591 83.5442   3
   1  -4   0 421.801 155.531   8
  -1   4   0 727.270 207.380   7
  -1   4  -1 156989. 3764.96   8
   1  -4   1 157882. 3831.61   8
  -1   4  -1 164461. 3810.21   7
  -1   4  -2-64.7081 196.978   7
   1  -4   2 150.705 83.7220   8
  -1   4  -2 449.705 79.0077   3
  -1   4  -2 231.470 117.766   8
   1  -4   3 258294. 5630.37   8
  -1   4  -3 256199. 5614.35   8
  -1   4  -3 243324. 5076.71   6
   1  -4   4 1656.97 335.693   7
  -1   4  -4 2195.79 377.652   8
  -1   4  -4 1792.44 256.583   6
   1  -4   4 2032.79 347.988   8
   1  -4   5 13137.8 1002.33   8
   1  -4   5 12755.8 982.116   7
  -1   4  -5 12570.3 959.237   8
  -1   4  -5 13536.6 724.525   6
  -1   4  -6 123.121 85.2104   6
  -1   4  -6 328.492 186.472   8
   1  -4   6 203.066 203.859   8
   1  -4   6 142.735 141.794   7
   1  -4   7 23579.3 1557.29   8
   1  -4   7 24570.2 1524.45   7
  -1   4  -7 26256.7 1015.48   6
  -1   4  -7 24759.6 1450.42   4
  -1   4  -8 88.0390 53.4353   6
  -1   4  -8 115.783 103.411   4
   1  -4   8 249.981 204.796   8
   1  -4   9 20128.4 1651.42   8
  -1   4  -9 17562.7 1316.87   4
  -1   4 -10 185.152 187.223   4
   1  -4  10 52.5470 207.272   8
  -1   4 -11 4498.95 727.256   4
   1  -4  11 3719.82 803.256   8
  -1   4 -12-252.770 269.825   4
   1  -4  12 42.0103 186.255   8
  -1   3  14 41.9241 139.470   2
   1  -3 -13 2600.81 586.654   4
  -1   3  13 2458.78 600.515   2
  -1   3  12 877.169 383.436   2
   1  -3 -12 1039.26 343.516   4
  -1   3  11 3233.46 598.356   2
  -1   3  11 3441.07 414.235   7
   1  -3 -11 2413.63 516.649   4
  -1   3  10 290.010 136.829   7
  -1   3  10 36.9018 137.479   2
   1  -3 -10 377.292 213.890   4
  -1   3   9 1572.31 364.659   2
  -1   3   9 1979.85 315.835   7
   1  -3  -9 1815.71 403.188   4
   1  -3  -8 392.276 223.365   8
  -1   3   8 275.202 184.812   2
   1  -3  -8 697.279 258.479   4
  -1   3   8 583.486 169.973   7
  -1   3   8 512.926 220.257   4
   1  -3  -7 16434.3 1090.14   4
  -1   3   7 15940.2 817.159   7
  -1   3   7 15000.5 1027.82   4
  -1   3   7 14870.2 981.241   2
   1  -3  -6 3474.22 309.331   5
   1  -3  -6 3275.61 424.725   4
  -1   3   6 3922.19 384.034   7
  -1   3   6 3561.91 437.442   2
   1  -3  -5 55819.3 1965.37   4
   1  -3  -5 51638.8 1542.57   7
  -1   3   5 53683.4 1724.27   2
   1  -3  -5 52163.4 1417.30   5
  -1   3   5 56479.3 1626.56   7
  -1   3   4 8751.98 556.875   2
  -1   3   4 8622.60 545.727   7
   1  -3  -4 9336.28 577.530   7
   1  -3  -4 9569.90 714.507   4
  -1   3   3 54291.7 1568.43   7
  -1   3   3 51579.7 1443.93   2
   1  -3  -3 54353.6 1614.87   7
   1  -3  -3 52854.2 1436.38   2
   1  -3  -3 57025.6 1830.92   4
  -1   3   2 19955.1 677.686   2
   1  -3  -2 17308.7 656.907   2
   1  -3  -2 19692.9 950.555   4
   1  -3  -2 18248.2 841.884   7
  -1   3   2 20219.9 865.366   7
   1  -3  -1 173019. 3725.29   4
   1  -3  -1 159247. 3601.42   7
  -1   3   1 171398. 3627.35   7
   1  -3  -1 161932. 3194.90   2
  -1   3   0 841.032 173.296   4
   1  -3   0 1242.16 228.813   7
  -1   3   0 1138.42 228.169   7
   1  -3   0 890.332 185.529   8
   1  -3   0 948.575 83.1061   3
  -1   3  -1 5959.70 480.868   8
  -1   3  -1 5573.99 473.833   7
   1  -3   1 6466.22 514.940   8
   1  -3   2 29.9978 85.4627   8
  -1   3  -2-58.5836 180.760   7
  -1   3  -3 5551.67 409.782   6
   1  -3   3 6448.25 554.351   8
   1  -3   4 505.620 198.795   8
  -1   3  -4 455.103 107.406   6
   1  -3   5 519700. 10038.2   8
   1  -3   5 493780. 9825.79   7
  -1   3  -5 505312. 9116.66   6
  -1   3  -5 495590. 9961.58   8
  -1   3  -6 526.681 213.708   8
  -1   3  -6 561.204 139.215   6
   1  -3   6 629.961 213.551   7
   1  -3   6 642.981 247.136   8
  -1   3  -6 671.668 237.431   4
  -1   3  -7 22201.2 1293.97   4
   1  -3   7 22682.8 1304.44   7
   1  -3   7 19495.6 1364.81   8
  -1   3  -7 22635.9 882.270   6
  -1   3  -7 20711.2 1340.28   8
   1  -3   8 359.481 225.650   8
  -1   3  -8 139.497 93.9682   4
   1  -3   8 242.498 174.856   7
   1  -3   9 10400.2 959.878   7
  -1   3  -9 12091.5 1047.63   4
   1  -3   9 11906.3 1230.19   8
   1  -3  10 215.353 253.805   8
  -1   3 -10 134.438 153.366   4
   1  -3  11 7957.30 1130.05   8
  -1   3 -11 10435.8 1038.44   4
   1  -3  12 177.769 267.641   8
  -1   3 -12-78.2826 115.576   4
   1  -3  13 596.245 312.018   5
  -1   3 -13 335.070 216.980   4
   1  -3  14 240.588 229.415   5
  -1   2  14 310.857 293.700   2
  -1   2  13 4106.83 750.521   2
   1  -2 -13 4001.05 685.472   4
  -1   2  12 263.028 180.098   5
   1  -2 -12 809.688 356.364   4
  -1   2  11 538.221 212.382   5
  -1   2  11 306.650 121.841   7
  -1   2  11 658.110 316.673   2
  -1   2  10 4722.34 532.832   5
  -1   2  10 4670.03 686.400   2
  -1   2  10 5043.29 468.152   7
   1  -2 -10 5524.06 703.699   4
  -1   2   9 14451.5 762.462   7
  -1   2   9 12530.2 834.172   5
   1  -2  -9 14614.5 1093.56   4
  -1   2   9 12733.2 1056.82   2
  -1   2   8 3159.36 406.197   5
  -1   2   8 3814.32 366.174   7
   1  -2  -8 4145.35 549.550   4
  -1   2   8 3861.34 547.735   4
   1  -2  -8 3057.74 561.424   8
  -1   2   8 3721.70 564.307   2
   1  -2  -7 84485.0 2694.61   4
  -1   2   7 88659.6 2781.00   4
  -1   2   7 79293.4 2651.16   2
  -1   2   7 86449.6 2157.70   7
  -1   2   6 3398.58 309.944   7
  -1   2   6 2968.17 434.995   2
   1  -2  -6 2711.27 403.071   4
  -1   2   5 49209.1 1337.17   7
   1  -2  -5 50773.7 1754.37   4
  -1   2   5 46876.4 1641.38   2
   1  -2  -5 45416.2 1368.07   5
   1  -2  -4 35297.9 1014.39   7
   1  -2  -4 35405.5 1087.84   5
  -1   2   4 34201.4 1256.25   2
  -1   2   4 36129.1 1057.07   7
  -1   2   3 1934.74 195.059   7
  -1   2   3 1896.42 215.329   2
   1  -2  -3 2221.13 300.983   4
   1  -2  -3 2451.13 262.562   2
   1  -2  -3 2395.49 237.672   7
  -1   2   2 4835.14 329.545   2
   1  -2  -2 4503.54 317.139   2
   1  -2  -2 5708.00 431.014   4
   1  -2  -2 4632.10 319.983   7
  -1   2   2 5513.91 350.995   7
  -1   2   1 30046.4 833.052   2
   1  -2  -1 28291.0 838.796   2
   1  -2  -1 30734.5 1041.45   4
  -1   2   1 28600.6 936.153   7
   1  -2  -1 28400.5 930.870   7
   1  -2   0 247.465 115.184   7
   1  -2   0 169.210 100.865   8
  -1   2   0 78.7569 40.1576   4
   1  -2   1 324001. 6104.67   8
  -1   2  -1 318198. 6007.43   7
  -1   2  -1 313816. 5848.98   6
   1  -2   2-35.7039 104.301   8
  -1   2  -2-27.2358 51.2301   6
  -1   2  -3 528223. 9442.27   6
   1  -2   3 513080. 9778.44   7
   1  -2   4 38.0349 84.0044   7
   1  -2   4 40.6943 77.5021   8
  -1   2  -4 67.5597 58.6766   6
  -1   2  -5 8735.53 656.524   4
   1  -2   5 8434.82 457.317   6
  -1   2  -5 7687.63 446.706   6
   1  -2   5 7753.02 675.149   8
  -1   2  -6 319.746 100.143   6
   1  -2   6 557.537 133.448   6
   1  -2   6 98.5639 173.494   8
  -1   2  -6 334.767 155.323   4
   1  -2   7 16795.4 1046.54   7
  -1   2  -7 17806.6 1074.11   4
   1  -2   7 16806.7 1216.64   8
  -1   2  -7 16768.1 1136.78   8
   1  -2   8-128.320 156.880   7
   1  -2   8 302.347 162.013   8
  -1   2  -8-33.3491 112.282   4
   1  -2   9 11348.2 1176.67   8
  -1   2  -9 14416.7 1084.34   4
   1  -2   9 11708.5 953.081   7
  -1   2 -10-173.894 192.712   4
   1  -2  10 175.768 141.110   7
   1  -2  10 48.1955 190.955   8
  -1   2 -11 11248.6 1076.36   4
   1  -2  11 8914.98 1200.74   8
  -1   2 -12 1057.88 367.533   4
   1  -2  12 1654.50 541.550   8
  -1   2 -13 2304.16 545.694   4
   1  -2  13 2551.92 570.285   5
   1  -2  14-1.44988 146.533   5
   1  -2  15 903.075 393.743   5
  -1   1  14 171.552 260.509   2
   1  -1 -13 2437.63 551.799   4
  -1   1  13 2359.03 618.871   2
  -1   1  13 1563.23 376.625   5
  -1   1  12 113.664 143.173   5
  -1   1  12 135.902 238.104   2
   1  -1 -12 140.940 183.053   4
  -1   1  11 18194.3 1222.27   5
  -1   1  11 15826.5 918.633   7
   1  -1 -11 20169.4 1416.44   4
  -1   1  11 18646.9 888.514   7
  -1   1  11 17956.2 1459.28   2
  -1   1  10 51.2087 164.810   2
   1  -1 -10-185.244 145.784   4
  -1   1  10-64.4340 85.4915   7
  -1   1  10 123.629 94.0512   7
  -1   1  10 14.0516 106.747   5
  -1   1   9 11857.6 1047.36   2
  -1   1   9 12379.4 909.366   5
  -1   1   9 11586.7 642.653   7
   1  -1  -9 13975.1 1054.54   4
  -1   1   8 4012.26 579.634   2
  -1   1   8 4364.27 508.520   5
   1  -1  -8 5217.45 606.971   4
  -1   1   8 4241.65 565.956   4
  -1   1   8 4396.70 364.959   7
   1  -1  -8 4168.29 671.107   8
  -1   1   7 38461.2 1729.56   2
  -1   1   7 36986.3 1123.85   7
   1  -1  -7 41369.9 1674.21   4
  -1   1   7 36383.3 1464.31   5
   1  -1  -6 2036.39 342.632   4
  -1   1   6 1465.69 278.227   5
   1  -1  -5 1741.60 268.985   4
  -1   1   5 1773.09 171.767   7
  -1   1   5 1474.29 230.944   5
  -1   1   5 1984.97 353.432   2
  -1   1   4 38.1806 68.0282   5
   1  -1  -4 84.5583 145.923   4
  -1   1   4 169.051 144.969   2
  -1   1   4 53.4007 51.5410   7
   1  -1  -4-42.7582 53.8468   5
   1  -1  -3 117852. 2606.93   5
  -1   1   3 121591. 2251.96   7
  -1   1   3 121291. 2796.82   2
   1  -1  -3 124889. 2782.68   4
   1  -1  -2 2292.10 145.620   7
   1  -1  -2 1819.78 213.374   2
   1  -1  -2 2154.28 236.928   4
  -1   1   2 1980.70 208.487   2
  -1   1   2 2286.73 150.546   7
   1  -1  -1 497071. 7983.54   2
  -1   1   1 426052. 7935.66   4
   1  -1  -1 419586. 7726.02   7
  -1   1   1 501839. 7994.19   2
   1  -1  -1 439710. 7972.00   4
  -1   1   1 454369. 7773.26   7
   1  -1   0 57.1418 26.4789   4
  -1   1   0 66.7792 33.5721   4
   1  -1   0 89.1274 42.6242   2
   1  -1   0 159.786 55.8188   7
  -1   1  -1 487081. 8462.70   6
   1  -1   1 479068. 8446.72   6
   1  -1   1 488707. 8599.50   8
   1  -1   2-8.56450 54.0293   8
  -1   1  -2 46.8280 47.0744   6
   1  -1   2 4.30469 36.0150   6
  -1   1  -3 845323. 14991.5   6
   1  -1   3 848074. 15016.9   6
   1  -1   4 79.0719 73.9000   8
  -1   1  -4 17.1212 56.2161   4
  -1   1  -4 92.3946 66.5902   6
   1  -1   4-76.8590 73.6477   6
  -1   1  -5 70940.7 1971.68   4
   1  -1   5 66521.7 1646.53   6
  -1   1  -5 67043.1 1625.06   6
  -1   1  -6 72.2648 69.0165   4
   1  -1   6 91.5059 135.904   8
   1  -1   6 105.252 62.7350   6
   1  -1   7 59958.4 1598.94   6
   1  -1   7 56858.8 2353.43   8
  -1   1  -7 60668.6 2029.94   4
  -1   1  -8 744.823 183.025   4
  -1   1  -8 921.331 274.888   8
   1  -1   8 1230.71 363.017   8
   1  -1   8 972.752 161.245   6
  -1   1  -9 4594.46 570.181   4
   1  -1   9 4057.34 683.128   8
   1  -1   9 4660.06 373.789   6
   1  -1  10 163.293 231.122   8
  -1   1 -10 244.653 142.333   4
   1  -1  10 284.077 101.503   6
   1  -1  11 12036.0 1345.66   8
   1  -1  11 12337.0 1037.55   7
   1  -1  11 13895.0 614.296   6
   1  -1  12 254.429 172.011   5
  -1   1 -12 549.948 261.094   4
  -1   1 -13 2128.77 489.816   4
   1  -1  13 1527.47 423.838   5
  -1   1 -14 857.700 354.261   4
   1  -1  14 479.061 266.930   5
   1  -1  15 201.087 145.323   5
  -1   0  14 214.619 169.280   5
  -1   0  13 7003.87 870.990   5
   1   0 -13 8101.18 1023.32   4
  -1   0  13 7799.18 1054.11   2
  -1   0  12 400.892 247.123   5
  -1   0  12 659.571 367.216   2
   1   0 -12 572.054 323.666   4
   1   0 -11 5261.71 721.358   4
  -1   0  11 5195.89 700.905   5
  -1   0  11 5446.27 785.144   2
  -1   0  10 54.6117 102.252   7
   1   0 -10 384.769 234.735   4
  -1   0  10 98.0565 152.212   5
  -1   0   9 4767.83 607.930   5
   1   0  -9 5127.20 635.767   4
  -1   0   9 4220.99 463.052   7
   1   0  -8 1107.57 349.714   8
  -1   0   8 969.870 215.882   7
  -1   0   8 1164.62 121.250   6
   1   0  -8 1634.48 335.931   4
  -1   0   8 1207.15 314.246   5
  -1   0   8 1175.90 124.625   6
  -1   0   8 1005.32 290.737   4
  -1   0   7 35177.3 1236.75   7
  -1   0   7 34247.9 1551.64   5
   1   0  -7 34221.0 1857.75   8
   1   0  -7 36201.7 1550.23   4
   1   0  -6 859.046 230.896   4
  -1   0   6 737.494 146.335   7
  -1   0   6 592.858 210.233   5
   1   0  -5 245988. 5181.69   4
  -1   0   5 242609. 5200.76   5
  -1   0   5 251273. 4667.35   7
  -1   0   4 15958.1 531.931   7
  -1   0   4 14481.0 826.565   2
   1   0  -4 14828.3 761.054   4
  -1   0   4 13687.9 754.629   5
  -1   0   3 209089. 4471.84   2
   1   0  -3 216836. 4345.42   5
  -1   0   3 214334. 4363.71   5
  -1   0   3 216813. 3867.82   6
   1   0  -3 223585. 4347.48   4
  -1   0   2 755.268 113.681   1
   1   0  -2 749.494 143.246   5
   1   0  -2 860.516 145.547   4
  -1   0   2 578.625 116.504   5
  -1   0   2 692.241 153.303   2
  -1   0   2 727.556 116.321   4
  -1   0   2 744.404 85.7804   6
  -1   0   1 470042. 8524.01   4
   1   0  -1 463107. 8508.57   1
   1   0  -1 481621. 8512.01   4
  -1   0  -2-3.63760 32.2886   8
  -1   0  -2-1.01072 21.2628   4
   1   0   2 42.5915 32.2379   6
   1   0   2 3.20553 34.8409   8
  -1   0  -2 35.5840 32.3232   6
   1   0   3 70290.3 1660.86   6
   1   0   3 69359.7 1671.29   4
  -1   0  -3 73354.2 1847.74   8
  -1   0  -3 72470.9 1629.58   4
  -1   0  -3 73835.1 1644.05   6
   1   0   4 45.8919 96.0476   8
  -1   0  -4 82.8828 43.2568   4
   1   0   4 252.239 86.6809   4
   1   0   4 303.692 85.6951   6
  -1   0  -4 256.834 113.808   8
   1   0   5 158255. 3279.85   6
  -1   0  -5 162437. 3442.68   4
   1   0   5 152231. 3864.45   8
   1   0   5 159567. 3556.55   4
   1   0   6 107.938 114.867   8
   1   0   6 204.884 80.5187   6
  -1   0  -6 202.644 71.2681   4
   1   0   6 253.343 83.8055   4
   1   0   7 15006.0 1116.08   8
  -1   0  -7 17829.3 948.603   4
   1   0   7 16846.8 767.777   6
   1   0   7 17339.3 1024.36   4
   1   0   8 352.093 166.115   4
  -1   0  -8 233.939 130.405   4
  -1   0  -8 502.854 191.973   8
   1   0   8 319.489 106.427   6
   1   0   8 274.970 220.594   8
   1   0   9 18931.1 869.349   6
   1   0   9 16206.5 1353.79   8
  -1   0  -9 19181.4 1150.51   4
   1   0   9 19488.3 1298.81   4
   1   0  10 1920.51 268.021   6
   1   0  10 1699.50 489.323   8
  -1   0 -10 1886.76 362.815   4
  -1   0 -11 2487.41 461.129   4
   1   0  11 2779.22 319.713   6
  -1   0 -12 166.515 164.623   4
   1   0  12-132.552 208.915   5
   1   0  13 1912.32 432.379   5
  -1   0 -13 2557.02 513.482   4
  -1   0 -14 734.788 301.442   4
   1   0  14 808.682 307.445   5
  -1  -1  14 14.1441 109.195   5
  -1  -1  13 245.797 225.154   5
  -1  -1  13 890.213 406.392   2
   1   1 -13 219.917 208.919   4
   1   1 -12 144.408 158.908   4
  -1  -1  12 215.860 277.893   2
  -1  -1  12-278.621 208.723   5
   1   1 -11 10326.8 1027.58   4
  -1  -1  11 11212.3 1095.40   5
  -1  -1  11 8815.39 1031.05   2
  -1  -1  10 296.852 104.005   7
  -1  -1  10 452.599 210.946   5
   1   1 -10 605.755 259.576   4
  -1  -1   9 14821.5 1158.07   5
  -1  -1   9 15543.0 1078.09   7
   1   1  -9 14905.2 1115.70   4
  -1  -1   8-41.4483 117.769   7
   1   1  -8-147.972 134.294   8
  -1  -1   8 44.0708 112.224   5
   1   1  -8-8.30130 94.4184   4
  -1  -1   7 36676.8 1537.64   7
  -1  -1   7 36655.1 1671.09   5
   1   1  -7 36637.9 1618.95   4
  -1  -1   7 37631.0 1777.81   4
   1   1  -7 34641.3 1810.20   8
  -1  -1   6 9019.86 745.785   5
  -1  -1   6 8528.32 648.717   7
   1   1  -6 10894.5 902.408   8
   1   1  -6 9172.97 712.482   4
  -1  -1   5 139153. 3444.34   5
   1   1  -5 139439. 3659.26   8
   1   1  -5 142616. 3308.35   4
   1   1  -4 525.564 177.096   4
  -1  -1   4 845.116 213.033   5
  -1  -1   4 76.9799 90.2875   7
   1   1  -4 537.835 180.819   8
   1   1  -3 3558.51 381.366   8
  -1  -1   3 4286.69 402.039   5
  -1  -1   3 4222.61 319.255   7
  -1  -1   3 3620.77 350.036   4
   1   1  -3 4132.14 347.316   4
   1   1  -3 3860.86 237.189   7
  -1  -1   2 192.079 111.024   5
   1   1  -2 173.738 36.3674   6
  -1  -1   2 471.513 179.216   2
  -1  -1   2 85.8404 44.6587   7
   1   1  -2 460.161 106.505   7
  -1  -1   2 105.239 60.2494   4
   1   1  -2 124.245 66.3457   8
   1   1  -2 259.886 88.4092   4
  -1  -1   1 308784. 5602.61   5
   1   1  -1 301738. 5191.80   6
  -1  -1   1 312644. 5548.94   2
   1   1  -1 293931. 5527.03   2
   1   1  -1 301343. 5336.33   7
   1   1  -1 300612. 5375.49   4
   1   1  -1 285976. 5396.47   8
  -1  -1   1 290491. 5375.73   7
  -1  -1   0 4204.92 275.766   5
   1   1   0 3890.72 254.456   2
  -1  -1   0 3935.45 265.880   7
  -1  -1   0 3885.98 247.639   2
   1   1   2 922.767 100.646   4
   1   1   2 712.742 112.500   8
  -1  -1  -2 698.656 107.964   8
  -1  -1  -2 825.672 130.018   1
   1   1   2 800.591 123.564   1
  -1  -1  -2 846.287 94.5130   4
   1   1   3 348370. 5860.50   1
   1   1   3 373433. 6240.26   8
  -1  -1  -3 342106. 6132.64   8
  -1  -1  -3 311567. 5784.67   4
   1   1   3 299334. 5807.59   4
   1   1   4 507.546 105.508   4
   1   1   4 528.604 93.1550   1
  -1  -1  -4 725.012 149.652   4
   1   1   4 601.173 155.879   8
  -1  -1  -4 691.125 180.472   8
  -1  -1  -5 54779.7 1881.12   8
   1   1   5 59177.7 1679.74   4
  -1  -1  -5 57954.3 1597.57   4
   1   1   6 4059.24 547.352   8
   1   1   6 4078.98 421.758   4
  -1  -1  -6 4558.92 417.045   4
   1   1   7 158759. 3537.75   6
  -1  -1  -7 158736. 3715.59   4
   1   1   7 167905. 3926.50   4
  -1  -1  -8-1.77781 97.3968   8
  -1  -1  -8 262.996 163.512   4
   1   1   8 4.68529 50.4990   6
   1   1   8 46.0306 80.0552   4
  -1  -1  -9 816.762 245.643   4
   1   1   9 593.907 227.226   4
  -1  -1  -9 726.699 254.565   8
   1   1   9 725.534 176.066   6
   1   1  10 307.416 123.218   6
   1   1  10 314.367 104.378   1
  -1  -1 -10 435.515 220.717   4
   1   1  11 7147.65 599.612   6
   1   1  11 7055.82 693.218   5
   1   1  11 6819.37 441.254   1
  -1  -1 -11 7385.57 774.742   4
  -1  -1 -12 69.3634 121.719   4
   1   1  12-13.4230 132.189   5
  -1  -1 -13 5655.32 763.975   4
   1   1  13 4565.04 609.336   5
  -1  -1 -14 322.323 219.272   4
   1   1  14-69.0704 157.730   5
   1   1  14 81.7030 120.329   7
  -1  -2  14 173.692 203.819   5
  -1  -2  13 1777.56 471.167   5
   1   2 -12 313.304 219.533   4
  -1  -2  12-168.108 251.322   5
  -1  -2  12-47.5237 155.100   2
   1   2 -11 4896.67 736.825   4
  -1  -2  11 5242.60 786.145   5
  -1  -2  11 4593.13 764.859   2
   1   2 -10 328.741 154.304   4
  -1  -2  10 651.354 289.826   5
   1   2  -9 2348.87 455.785   4
  -1  -2   9 2742.91 516.466   5
   1   2  -8 5533.07 649.632   4
  -1  -2   8 5161.62 668.762   5
  -1  -2   8 5552.07 697.531   7
  -1  -2   7 20426.2 1272.82   5
   1   2  -7 21525.5 1365.45   8
  -1  -2   7 18862.4 1251.88   7
  -1  -2   7 21179.1 1509.88   8
   1   2  -7 22390.8 1265.59   4
  -1  -2   6 1926.65 424.000   5
   1   2  -6 234.888 190.267   4
  -1  -2   6-146.673 155.043   7
  -1  -2   6 2599.79 504.530   8
   1   2  -6 132.109 142.844   8
  -1  -2   5 25380.4 1398.70   8
   1   2  -5 25275.2 1262.73   8
  -1  -2   5 26051.1 1298.74   5
   1   2  -5 27449.4 1238.59   4
  -1  -2   4 391.357 136.348   5
   1   2  -4 347.415 130.997   4
   1   2  -4 662.191 177.151   8
  -1  -2   4 390.850 177.365   8
  -1  -2   4 239.602 134.564   7
  -1  -2   3 159046. 3513.05   7
  -1  -2   3 154415. 3664.73   8
   1   2  -3 145336. 3411.92   8
   1   2  -3 157798. 3505.86   4
   1   2  -3 157096. 3244.56   7
  -1  -2   3 159675. 3660.44   5
   1   2  -2 989.598 159.931   8
  -1  -2   2 1042.99 229.191   2
  -1  -2   2 1108.31 198.841   5
  -1  -2   2 1084.27 182.848   8
   1   2  -2 1445.36 219.210   7
  -1  -2   2 800.480 155.892   7
   1   2  -1 17638.5 605.700   8
   1   2  -1 18032.8 729.953   7
  -1  -2   1 19448.2 821.659   5
  -1  -2   1 18217.4 740.077   2
  -1  -2   1 17374.7 755.040   7
  -1  -2   1 18123.4 644.319   8
  -1  -2   0 2038.38 257.296   7
   1   2   0 2076.47 136.870   8
   1   2   0 1949.19 217.279   3
   1   2   0 1946.81 219.184   5
  -1  -2   0 2281.17 231.407   5
   1   2   0 2228.48 254.534   7
  -1  -2   0 1842.25 130.526   8
  -1  -2   0 1964.49 190.865   2
  -1  -2   0 2061.21 228.036   3
   1   2   0 2141.41 204.735   2
  -1  -2  -1 500470. 8093.33   3
   1   2   1 429254. 8210.14   7
  -1  -2  -1 485965. 7719.28   2
  -1  -2  -1 448016. 7864.99   5
   1   2   1 491542. 8043.52   3
   1   2   1 462403. 7733.67   2
   1   2   1 420373. 7831.26   5
   1   2   1 481850. 7887.89   4
   1   2   2 3486.85 251.155   4
   1   2   2 4017.58 368.418   7
  -1  -2  -2 3878.06 326.348   3
  -1  -2  -2 3807.43 266.447   4
   1   2   2 3888.07 219.910   5
  -1  -2  -3 161282. 3134.50   1
   1   2   3 162628. 3421.59   7
  -1  -2  -3 155182. 3343.94   8
  -1  -2  -3 155722. 3160.05   4
  -1  -2  -3 150948. 3349.56   7
   1   2   4 13086.3 729.342   7
  -1  -2  -4 13230.2 544.751   1
  -1  -2  -4 12714.4 763.189   8
  -1  -2  -4 12943.5 639.826   4
   1   2   4 13905.3 640.870   4
   1   2   5 84735.6 2269.96   7
  -1  -2  -5 84223.3 2147.02   4
  -1  -2  -5 76664.2 2437.10   8
   1   2   5 80441.8 2110.51   4
   1   2   6 4790.67 457.029   4
  -1  -2  -6 4640.50 448.346   4
   1   2   6 4404.43 462.202   7
   1   2   6 4308.85 304.358   1
  -1  -2  -7 28072.6 1526.02   8
   1   2   7 28439.6 1257.86   7
   1   2   7 28046.8 1264.05   4
   1   2   7 26433.6 860.495   1
  -1  -2  -7 28599.0 1241.42   4
   1   2   8-74.8612 64.5099   4
   1   2   8-82.0152 109.225   7
  -1  -2  -8 153.888 143.245   4
  -1  -2  -8 88.6202 186.487   8
   1   2   8 77.7731 70.9511   1
  -1  -2  -9 48301.7 1874.02   4
   1   2   9 47074.7 1951.00   4
  -1  -2  -9 44498.2 2202.41   8
   1   2   9 44502.7 1201.74   1
   1   2   9 49176.4 1595.51   5
   1   2   9 45573.3 1791.41   7
   1   2  10-132.057 132.189   7
   1   2  10 53.7964 82.8536   5
  -1  -2 -11 14081.9 1077.99   4
   1   2  11 13993.6 990.186   7
   1   2  11 14747.7 910.946   5
   1   2  12 98.2342 108.453   5
   1   2  12 378.879 166.371   6
  -1  -2 -12 483.824 308.590   4
   1   2  13 4405.95 542.126   5
   1   2  13 4549.22 597.323   7
  -1  -2 -13 4232.35 656.162   4
   1   2  14 80.1485 118.470   7
  -1  -2 -14 332.071 244.778   4
  -1  -2 -15 495.261 270.727   4
  -1  -3  13-85.7268 198.006   5
  -1  -3  12 377.108 284.270   2
   1   3 -12 159.546 141.611   4
  -1  -3  12 293.920 267.458   5
   1   3 -11 3547.57 620.964   4
  -1  -3  11 2147.11 518.690   5
  -1  -3  11 3192.60 668.682   2
  -1  -3  10 466.053 286.060   7
  -1  -3  10 498.101 279.822   5
   1   3 -10 339.554 192.814   4
  -1  -3   9 14827.3 1365.30   7
  -1  -3   9 14829.5 1237.36   5
   1   3  -9 14661.4 1180.30   4
  -1  -3   8 1109.62 324.425   5
  -1  -3   8 1510.30 437.125   7
  -1  -3   8 1437.24 470.324   8
   1   3  -8 1351.12 336.012   4
  -1  -3   7-109.036 156.694   5
   1   3  -7 180.681 144.460   8
  -1  -3   7 412.977 306.938   8
   1   3  -7 218.149 154.017   4
  -1  -3   6 43.4265 142.651   8
  -1  -3   6-21.3869 171.332   5
   1   3  -6-8.04650 65.6958   8
   1   3  -6-30.0784 114.820   4
  -1  -3   5 34815.1 1721.28   8
  -1  -3   5 34293.4 1575.17   5
   1   3  -5 33828.0 1477.05   8
   1   3  -5 34872.3 1518.30   4
   1   3  -4 4289.01 468.314   4
  -1  -3   4 3427.37 473.581   7
  -1  -3   4 4444.24 519.847   8
   1   3  -4 4398.51 453.378   8
  -1  -3   4 3498.96 445.832   5
   1   3  -4 5146.20 451.435   7
  -1  -3   3 68204.7 2087.42   8
   1   3  -3 69849.4 1930.97   7
   1   3  -3 63065.4 1886.98   8
  -1  -3   3 68650.8 2191.94   7
  -1  -3   3 65997.7 2147.78   5
  -1  -3   2 12238.0 763.727   5
  -1  -3   2 11930.8 765.051   7
   1   3  -2 13590.1 725.813   7
   1   3  -2 12483.4 646.606   8
  -1  -3   2 12487.0 673.461   8
  -1  -3   1 223528. 4605.83   5
  -1  -3   1 207432. 4624.28   7
   1   3  -1 213796. 4209.28   8
  -1  -3   1 219238. 4400.89   2
  -1  -3   1 217555. 4208.29   8
   1   3  -1 217352. 4555.53   7
   1   3  -1 220456. 4456.00   3
   1   3   0 7045.92 358.023   8
  -1  -3   0 6881.19 358.108   8
  -1  -3   0 7025.01 394.490   2
   1   3   0 7447.35 537.378   7
   1   3   0 6828.52 454.530   3
  -1  -3   0 7223.09 485.410   5
  -1  -3   0 6476.69 526.526   7
  -1  -3   0 7391.86 489.761   3
  -1  -3  -1 68026.0 1436.22   2
   1   3   1 67399.8 1743.17   3
   1   3   1 68394.0 1458.69   2
  -1  -3  -1 67558.0 1498.93   8
  -1  -3  -1 68655.6 1806.54   3
   1   3   1 66340.6 1751.68   4
   1   3   1 68451.2 2010.46   7
  -1  -3  -1 67200.7 1696.14   5
  -1  -3  -2 30.8346 52.6397   5
  -1  -3  -2 80.1735 65.5872   3
   1   3   2-3.26884 24.5766   2
   1   3   2-1.07120 46.5716   4
  -1  -3  -2-71.4739 69.6258   4
   1   3   2 59.9567 118.927   7
   1   3   3 5746.35 412.397   4
   1   3   3 7054.27 584.664   7
  -1  -3  -3 6362.77 528.531   7
  -1  -3  -3 6326.28 456.603   4
  -1  -3  -4 47546.2 1624.35   7
  -1  -3  -4 49495.4 1566.18   4
   1   3   4 49346.8 1726.08   7
   1   3   4 47487.5 1461.02   4
  -1  -3  -5 19763.2 1114.60   8
  -1  -3  -5 22264.1 823.226   1
  -1  -3  -5 23112.3 1046.30   4
   1   3   5 23556.8 992.163   4
   1   3   5 23009.1 1122.17   7
  -1  -3  -6 6818.15 577.488   4
   1   3   6 7121.77 262.926   5
   1   3   6 7685.32 582.386   4
   1   3   6 6897.40 613.859   7
   1   3   7 138832. 3426.21   4
   1   3   7 130642. 3484.04   7
   1   3   7 130640. 2577.10   5
  -1  -3  -7 134443. 3439.27   4
  -1  -3  -7 128235. 3870.17   8
   1   3   8 1512.22 305.853   4
  -1  -3  -8 1785.54 426.195   8
  -1  -3  -8 1691.65 320.263   4
   1   3   8 1363.19 300.985   7
   1   3   8 1628.62 186.638   5
   1   3   9 36873.5 1690.42   4
   1   3   9 33585.1 1109.27   5
  -1  -3  -9 32236.4 1934.56   8
  -1  -3  -9 35945.2 1665.09   4
   1   3   9 35280.0 1591.90   7
   1   3  10-21.1217 81.7413   5
   1   3  10 214.029 138.183   7
  -1  -3 -10 381.384 224.623   4
   1   3  11 3811.51 527.936   7
   1   3  11 4068.58 403.721   5
  -1  -3 -11 4583.05 621.961   4
   1   3  12-49.3959 76.3658   6
   1   3  12-65.5461 89.8166   5
  -1  -3 -12 157.076 271.436   4
   1   3  13 2103.33 421.108   7
  -1  -3 -13 2054.69 480.394   4
  -1  -3 -14-191.151 186.403   4
   1   3  14 171.547 168.882   7
  -1  -3 -15 1697.69 456.066   4
  -1  -4  12 45.6165 129.879   5
   1   4 -11 4026.99 691.758   4
  -1  -4  11 3477.34 680.105   5
  -1  -4  11 3582.82 738.449   2
   1   4 -10 146.679 117.712   4
  -1  -4  10-250.937 145.804   5
   1   4  -9 2782.50 527.561   4
  -1  -4   9 2139.36 456.615   5
  -1  -4   9 2796.45 670.846   8
  -1  -4   9 2808.29 625.124   7
  -1  -4   8 468.756 247.291   5
  -1  -4   8 143.833 163.373   7
   1   4  -8 193.282 169.070   4
  -1  -4   8 328.897 277.699   8
  -1  -4   7 10007.3 1080.13   8
  -1  -4   7 8095.55 875.309   5
  -1  -4   7 9135.20 1078.43   7
   1   4  -7 10027.7 903.024   4
   1   4  -7 8920.78 875.072   8
   1   4  -6 2382.05 414.754   8
  -1  -4   6 2302.48 534.700   7
  -1  -4   6 2661.19 468.249   5
   1   4  -6 2677.43 439.698   4
  -1  -4   6 2695.62 509.465   8
  -1  -4   5 23497.5 1428.87   8
   1   4  -5 24705.0 712.055   6
  -1  -4   5 22018.8 1335.89   5
   1   4  -5 26720.3 1236.64   7
   1   4  -5 24139.6 1324.87   4
   1   4  -5 23757.0 1262.72   8
  -1  -4   4 3062.91 454.375   8
   1   4  -4 3725.09 444.423   8
   1   4  -4 3237.59 411.087   7
  -1  -4   4 3256.78 465.118   5
  -1  -4   3 58899.1 1968.74   8
   1   4  -3 56572.4 1867.06   8
   1   4  -3 61425.7 1953.21   7
   1   4  -2 529.270 147.321   8
  -1  -4   2 267.492 107.475   8
   1   4  -2 343.762 162.950   7
   1   4  -2 274.743 108.549   3
  -1  -4   2 36.3355 103.649   7
   1   4  -1 34594.2 1175.29   8
  -1  -4   1 34320.8 1252.89   2
   1   4  -1 34576.0 1283.18   3
  -1  -4   1 34198.0 1505.03   7
  -1  -4   1 34843.9 1169.48   8
   1   4  -1 38332.2 1465.31   7
   1   4   0 10607.1 734.350   7
  -1  -4   0 9727.03 655.494   5
  -1  -4   0 10468.0 524.987   2
  -1  -4   0 10225.8 536.450   8
  -1  -4   0 10899.8 654.510   3
   1   4   0 9577.00 589.752   3
  -1  -4  -1 28295.5 774.898   2
   1   4   1 27656.9 1269.32   7
   1   4   1 28039.8 1042.94   3
  -1  -4  -1 27865.3 1111.30   3
   1   4   1 27302.1 1119.96   4
  -1  -4  -1 26635.3 912.062   8
  -1  -4  -1 28061.8 1072.77   5
   1   4   2 1292.41 215.488   4
  -1  -4  -2 1536.31 246.721   3
  -1  -4  -2 1532.13 203.542   5
   1   4   2 1770.79 308.611   7
  -1  -4  -3 201111. 4445.23   4
   1   4   3 202048. 4269.55   4
  -1  -4  -3 212117. 3842.49   5
   1   4   3 206821. 4775.23   7
   1   4   4 4054.82 398.728   4
   1   4   4 3904.22 480.221   7
  -1  -4  -4 4081.33 463.404   7
  -1  -4  -4 3537.55 412.937   4
  -1  -4  -5 52227.3 1890.68   7
   1   4   5 56178.2 2057.47   7
  -1  -4  -5 52882.8 1888.62   4
   1   4   5 52178.8 1723.04   4
  -1  -4  -6 1467.89 292.241   4
  -1  -4  -6 1161.28 195.373   1
   1   4   6 1328.45 287.839   7
   1   4   6 1303.26 261.163   4
  -1  -4  -7 15603.9 1012.29   4
   1   4   7 14994.2 1024.73   7
  -1  -4  -7 14926.4 656.157   1
  -1  -4  -7 13091.7 1075.10   8
   1   4   7 15917.3 945.211   4
  -1  -4  -8 573.176 264.215   8
  -1  -4  -8 775.948 261.802   4
   1   4   8 748.085 266.013   7
   1   4   8 614.026 208.215   4
  -1  -4  -9 4264.72 547.586   4
   1   4   9 5558.98 654.911   7
   1   4   9 4804.15 596.778   4
  -1  -4  -9 4286.44 683.223   8
  -1  -4 -10 24.5820 156.309   4
   1   4  10 208.030 234.827   7
  -1  -4 -11 3664.84 566.912   4
   1   4  11 3494.88 535.165   7
   1   4  12 225.836 263.303   7
  -1  -4 -12 225.913 249.247   4
  -1  -4 -13 6551.43 848.793   4
   1   4  13 6550.54 781.598   7
  -1  -4 -14 240.062 186.480   4
   1   4  14 556.137 240.213   7
   1   4  15 527.171 263.759   2
  -1  -4 -15 778.869 313.067   4
  -1  -5  11 1029.30 435.514   2
  -1  -5  11 895.902 339.110   5
  -1  -5  10 132.803 224.532   8
   1   5 -10 376.120 251.273   4
  -1  -5  10 638.823 406.631   2
  -1  -5  10 147.661 164.383   5
  -1  -5   9 11380.9 1176.26   5
  -1  -5   9 12028.1 1361.93   8
   1   5  -9 12999.6 1171.21   4
  -1  -5   8 752.475 263.353   5
   1   5  -8 1734.05 408.934   4
  -1  -5   8 1378.31 436.037   8
  -1  -5   7 11773.3 1200.30   8
  -1  -5   7 11007.1 1072.09   5
   1   5  -7 10479.2 970.447   4
  -1  -5   7 9375.44 1205.65   7
  -1  -5   6 426.938 242.093   5
   1   5  -6 122.464 101.311   8
  -1  -5   6 265.768 241.346   7
   1   5  -6 178.170 53.5442   6
   1   5  -6 188.398 124.455   4
  -1  -5   5 2299.93 541.774   7
   1   5  -5 3588.66 302.056   6
   1   5  -5 3330.12 473.149   7
  -1  -5   5 3248.63 539.293   8
  -1  -5   5 2367.95 478.474   5
   1   5  -5 3299.86 497.109   4
   1   5  -5 2997.75 457.522   8
  -1  -5   4 2964.53 469.100   8
  -1  -5   4 1653.59 417.275   7
   1   5  -4 2541.32 387.413   8
   1   5  -4 3171.04 448.227   7
   1   5  -3 2256.53 361.300   7
   1   5  -3 2803.09 385.886   8
  -1  -5   3 2085.07 356.110   8
  -1  -5   3 2172.14 436.314   7
   1   5  -2-8.13089 70.3777   3
  -1  -5   2 3.24343 142.659   2
   1   5  -2 86.6316 68.6077   8
  -1  -5   2-117.465 152.720   7
   1   5  -2 241.548 148.132   7
  -1  -5   2-10.4037 97.4501   8
  -1  -5   1 87911.4 2347.75   8
   1   5  -1 83914.5 2376.51   3
  -1  -5   1 85381.9 2381.42   2
   1   5  -1 85452.1 2302.79   8
  -1  -5   1 87889.4 2909.72   7
   1   5   0 15021.4 797.083   3
  -1  -5   0 14288.4 678.176   2
   1   5   0 16780.2 1043.18   7
  -1  -5   0 15604.3 780.156   8
   1   5   1 208468. 4933.96   7
  -1  -5  -1 204253. 3848.36   2
  -1  -5  -1 213067. 4569.64   3
  -1  -5  -1 202569. 4291.79   8
   1   5   1 206354. 4642.74   4
  -1  -5  -1 201988. 4545.88   5
   1   5   1 206027. 4344.59   3
  -1  -5  -2 4768.40 471.650   3
  -1  -5  -2 4323.84 383.353   8
   1   5   2 4201.37 445.584   4
  -1  -5  -2 4634.28 409.733   5
   1   5   2 4607.66 542.490   7
   1   5   3 92254.3 2895.25   7
   1   5   3 95961.3 2573.12   4
  -1  -5  -3 97392.2 2183.81   5
  -1  -5  -4 670.577 219.439   7
   1   5   4 515.160 165.879   4
   1   5   4 791.543 268.979   7
  -1  -5  -4 716.322 219.854   4
  -1  -5  -4 833.309 232.107   3
  -1  -5  -4 552.574 103.741   5
   1   5   5 3522.97 417.878   4
  -1  -5  -5 3271.44 466.177   4
  -1  -5  -5 4092.28 517.327   7
   1   5   5 3983.27 549.263   7
  -1  -5  -6 9165.25 809.293   4
   1   5   6 9990.20 737.810   4
   1   5   6 9088.09 847.840   7
  -1  -5  -6 9050.29 771.011   7
   1   5   7 8427.94 852.757   7
  -1  -5  -7 7545.68 756.699   4
   1   5   7 8122.85 708.289   4
  -1  -5  -7 7627.02 543.517   1
   1   5   8 691.154 246.551   4
  -1  -5  -8 325.942 112.569   1
   1   5   8 181.913 192.054   7
  -1  -5  -8 349.425 243.284   8
  -1  -5  -8 92.7454 130.527   4
  -1  -5  -9 10327.9 1092.31   8
  -1  -5  -9 13186.6 1064.72   4
   1   5   9 12793.0 1075.13   7
   1   5  10 177.309 204.378   7
  -1  -5 -10 316.344 257.124   4
  -1  -5 -11 10762.3 1034.58   4
   1   5  11 9569.49 957.649   7
   1   5  12 213.464 199.763   7
  -1  -5 -12 330.391 228.702   4
   1   5  13 1413.94 393.489   7
  -1  -5 -13 1825.42 457.486   4
   1   5  14 81.2208 177.402   7
   1   5  14-17.9967 142.626   2
  -1  -5 -14 333.606 247.771   4
   1   5  15 1156.86 405.604   2
  -1  -6  10 635.870 440.769   2
  -1  -6  10 108.004 162.564   5
   1   6 -10 302.976 117.220   4
  -1  -6  10 252.932 330.297   8
  -1  -6   9 1956.38 515.883   5
  -1  -6   9 3284.60 787.632   2
   1   6  -9 2593.28 540.638   4
  -1  -6   9 2306.45 591.683   8
  -1  -6   8 556.328 330.617   5
   1   6  -8 815.930 303.671   4
  -1  -6   8 335.108 222.625   8
   1   6  -7 9428.42 965.519   4
  -1  -6   7 7801.55 978.667   5
  -1  -6   7 7702.19 1014.24   8
  -1  -6   6 147.169 152.623   8
  -1  -6   6 435.077 256.065   5
   1   6  -6 125.981 65.9065   6
   1   6  -6-83.3013 188.721   4
  -1  -6   5 6617.57 798.090   8
   1   6  -5 6661.48 687.396   3
   1   6  -5 7166.03 746.731   7
   1   6  -5 6235.81 702.355   8
  -1  -6   5 6617.52 856.655   5
  -1  -6   4 1033.26 307.151   8
  -1  -6   4 673.220 258.079   5
   1   6  -4 803.148 244.535   8
   1   6  -4 975.746 253.169   3
   1   6  -4 726.055 225.717   7
  -1  -6   4 422.360 301.656   7
   1   6  -3 24699.6 1292.69   8
  -1  -6   3 26260.8 1378.93   8
  -1  -6   3 23183.6 1666.89   7
   1   6  -2 7577.42 646.619   8
   1   6  -2 7405.95 747.740   7
  -1  -6   2 7436.83 873.918   7
  -1  -6   2 7395.49 659.144   8
  -1  -6   2 6198.78 660.385   2
   1   6  -1 9212.45 834.935   7
  -1  -6   1 9253.88 680.110   2
  -1  -6   1 8797.29 910.991   7
  -1  -6   1 9143.76 690.782   8
   1   6  -1 8518.16 647.749   3
  -1  -6   0 580.053 167.205   8
   1   6   0 460.152 138.024   3
   1   6   0 869.962 273.278   7
  -1  -6   0 727.953 153.703   2
  -1  -6   0 790.574 281.330   7
  -1  -6  -1 55995.0 2080.41   5
   1   6   1 59209.1 2318.88   7
  -1  -6  -1 60143.6 1886.44   8
  -1  -6  -1 59724.8 1422.70   2
   1   6   1 57809.0 2094.27   4
  -1  -6  -1 60569.4 2012.26   3
  -1  -6  -2 1859.23 285.152   5
  -1  -6  -2 1824.11 275.102   8
  -1  -6  -2 1629.00 293.671   3
   1   6   2 1557.11 293.554   4
   1   6   2 1906.12 403.954   7
   1   6   3 22031.3 1352.02   7
  -1  -6  -3 24474.1 1017.30   5
  -1  -6  -3 28218.1 1561.85   7
   1   6   3 24660.3 1227.49   4
  -1  -6  -3 19185.3 1110.88   3
   1   6   4 4289.43 491.929   4
  -1  -6  -4 4590.98 560.186   3
  -1  -6  -4 3361.72 305.936   5
   1   6   4 4361.17 596.395   7
  -1  -6  -4 4200.72 584.054   7
   1   6   5 20559.6 1138.05   4
   1   6   5 23518.1 1447.67   7
  -1  -6  -5 21995.8 1309.50   3
  -1  -6  -5 21606.7 1328.84   7
  -1  -6  -5 20966.8 1326.30   4
  -1  -6  -6-30.5467 92.1480   7
   1   6   6 84.2056 170.975   7
   1   6   6 194.716 131.364   4
   1   6   6 79.0750 36.9689   2
  -1  -6  -7 36362.9 1897.90   4
   1   6   7 37261.5 1654.95   4
   1   6   7 38392.5 1931.43   7
   1   6   7 35370.4 1129.57   2
  -1  -6  -7 38214.0 1811.14   7
  -1  -6  -8 338.760 142.117   4
  -1  -6  -8 116.482 110.001   1
   1   6   8 621.501 202.902   2
   1   6   8 563.106 313.626   7
   1   6   9 21549.9 1458.15   7
  -1  -6  -9 20391.4 1439.79   4
  -1  -6  -9 20259.5 859.068   1
   1   6   9 19864.6 1028.86   2
   1   6  10 71.7568 153.332   2
  -1  -6 -10-157.350 215.368   4
   1   6  10 160.951 173.566   7
   1   6  11 1426.62 323.922   2
  -1  -6 -11 1083.09 318.777   4
   1   6  11 1562.80 428.091   7
  -1  -6 -12 601.879 302.921   4
   1   6  12 154.904 150.538   2
   1   6  12 107.330 208.304   7
   1   6  13 1608.72 388.488   2
  -1  -6 -13 717.178 322.701   4
   1   6  13 951.404 337.899   7
  -1  -6 -14 112.822 101.463   4
  -1  -7  10 301.696 316.016   8
   1   7  -9 1399.11 405.604   4
  -1  -7   9 1227.04 450.766   5
  -1  -7   9 1010.04 469.093   8
  -1  -7   9 1430.39 585.907   2
  -1  -7   8 832.612 478.247   2
  -1  -7   8 982.913 421.042   8
   1   7  -8 406.717 209.405   4
  -1  -7   8 644.718 331.383   5
  -1  -7   7 3856.79 734.625   8
  -1  -7   7 4843.72 1016.76   2
  -1  -7   7 3505.04 698.577   5
   1   7  -7 4587.35 713.750   4
   1   7  -6 3267.35 342.969   6
  -1  -7   6 2777.38 755.671   2
  -1  -7   6 2964.63 620.634   8
  -1  -7   6 2850.59 617.923   5
   1   7  -6 2656.06 534.703   4
   1   7  -5 24237.3 1504.43   7
  -1  -7   5 22481.9 1551.41   8
  -1  -7   5 16831.8 1724.45   2
  -1  -7   5 20359.0 1675.30   5
   1   7  -5 20031.0 1272.58   3
   1   7  -4 817.818 236.825   3
   1   7  -4 938.366 253.254   7
  -1  -7   4 686.416 327.257   2
   1   7  -4 579.042 212.432   8
  -1  -7   4 1036.96 309.862   8
  -1  -7   4 421.818 259.287   5
  -1  -7   3 528.856 257.262   5
   1   7  -3 598.620 196.137   3
  -1  -7   3 318.710 149.627   2
   1   7  -3 987.376 345.848   7
   1   7  -3 706.756 222.940   8
  -1  -7   3 393.856 189.208   8
  -1  -7   2 237.228 137.981   8
   1   7  -2 480.399 183.398   8
   1   7  -2 235.659 177.779   7
  -1  -7   2 471.049 203.757   2
   1   7  -1 11230.1 1000.21   7
  -1  -7   1 10322.7 752.095   2
  -1  -7   1 10371.7 810.198   8
  -1  -7   0 2368.15 295.822   2
  -1  -7   0 2907.76 411.062   8
   1   7   0 2498.33 448.854   4
   1   7   0 2732.57 513.048   7
  -1  -7  -1 7626.06 395.763   2
  -1  -7  -1 9130.70 961.674   7
  -1  -7  -1 7460.92 671.061   3
  -1  -7  -1 6794.81 619.578   8
  -1  -7  -1 6485.81 718.210   5
   1   7   1 8349.31 880.821   7
   1   7   1 7438.23 744.068   4
  -1  -7  -2 1342.04 366.729   7
   1   7   2 1284.80 377.309   7
  -1  -7  -2 1359.52 285.522   8
  -1  -7  -2 948.145 245.465   5
   1   7   2 1438.08 315.038   4
  -1  -7  -2 1064.33 262.412   3
  -1  -7  -3 23628.0 1115.81   5
  -1  -7  -3 20581.3 1131.04   8
  -1  -7  -3 18477.4 1152.40   3
   1   7   3 22977.8 1490.46   7
   1   7   3 23608.5 1302.47   4
  -1  -7  -3 23679.4 1572.85   7
  -1  -7  -4 2125.01 439.056   7
  -1  -7  -4 1819.93 254.026   5
   1   7   4 2655.07 501.614   7
  -1  -7  -4 1947.54 377.072   3
   1   7   4 2316.76 386.339   4
   1   7   5 32896.3 1578.34   4
  -1  -7  -5 32855.1 999.367   5
   1   7   5 33243.0 1837.36   7
  -1  -7  -5 30836.0 1747.48   7
  -1  -7  -5 33511.2 1740.32   3
  -1  -7  -6 5022.01 694.610   3
  -1  -7  -6 5598.55 763.851   4
   1   7   6 4991.21 601.705   4
   1   7   6 5836.90 751.971   7
   1   7   7 16344.9 1288.30   7
  -1  -7  -7 12868.7 1182.76   4
  -1  -7  -8 1182.15 252.061   1
   1   7   8 1247.77 171.438   2
   1   7   8 1099.45 352.926   7
  -1  -7  -8 1380.31 418.177   4
  -1  -7  -9 3800.71 653.196   4
   1   7   9 3641.87 362.233   2
   1   7   9 4520.73 707.731   7
  -1  -7  -9 4027.22 431.630   1
  -1  -7 -10 48.0187 57.2577   1
   1   7  10-14.4931 74.6247   2
  -1  -7 -10 14.8515 145.551   4
   1   7  10 59.6202 196.510   7
   1   7  11 3020.62 582.246   7
   1   7  11 2135.45 363.415   2
  -1  -7 -11 2394.38 537.949   4
   1   7  12-1.18336 144.181   7
  -1  -7 -12-97.2772 132.148   4
   1   7  13 1407.79 426.401   7
  -1  -7 -13 1106.79 397.314   4
  -1  -7 -14-501.180 286.510   4
  -1  -8   9 1667.85 692.237   2
  -1  -8   9 644.675 355.406   8
  -1  -8   8 478.828 318.429   8
  -1  -8   8 469.146 363.766   2
  -1  -8   7 3516.96 920.722   2
  -1  -8   7 2678.70 682.531   5
   1   8  -7 2366.37 548.548   4
  -1  -8   7 2724.66 648.418   8
  -1  -8   6 816.031 374.748   5
   1   8  -6 627.411 255.210   4
  -1  -8   6 1048.86 385.586   8
  -1  -8   6 896.192 476.276   2
   1   8  -5 3452.73 588.402   7
   1   8  -5 3515.77 410.567   6
  -1  -8   5 2918.37 575.465   8
  -1  -8   5 3709.52 780.649   5
  -1  -8   5 2535.38 666.485   2
  -1  -8   4 994.446 342.197   8
   1   8  -4 457.935 189.303   3
  -1  -8   4 890.111 413.533   5
   1   8  -4 370.474 161.805   7
  -1  -8   4 89.2504 193.134   2
   1   8  -3 14180.7 997.620   3
  -1  -8   3 15842.0 1196.62   8
  -1  -8   3 15094.8 1554.96   5
  -1  -8   3 12257.8 1151.11   2
   1   8  -3 13468.9 1045.77   8
   1   8  -3 15627.3 1237.72   7
  -1  -8   2 783.172 347.486   5
   1   8  -2 1329.72 282.448   3
  -1  -8   2 1019.32 271.699   8
  -1  -8   2 1312.78 324.341   2
   1   8  -2 1308.29 368.068   7
   1   8  -1 3133.11 584.000   7
  -1  -8   1 3081.28 390.981   2
  -1  -8   1 2147.59 524.581   5
   1   8  -1 2543.70 374.444   3
  -1  -8   1 2954.97 481.436   8
  -1  -8   0 859.825 185.394   2
   1   8   0 833.704 315.366   7
  -1  -8   0 1414.15 318.310   8
  -1  -8  -1 8046.34 749.442   8
  -1  -8  -1 8112.14 385.592   2
   1   8   1 8266.67 929.831   7
  -1  -8  -1 6476.28 811.393   5
   1   8   2-4.28665 218.814   7
  -1  -8  -2-320.116 246.454   5
  -1  -8  -2 24.8392 110.796   3
  -1  -8  -2-202.669 173.384   8
  -1  -8  -3 32305.4 1666.07   3
  -1  -8  -3 33942.2 1613.24   8
   1   8   3 38131.5 2068.37   7
   1   8   4 11577.6 1110.03   7
  -1  -8  -4 8588.44 642.423   5
  -1  -8  -4 9182.57 884.065   3
  -1  -8  -4 11426.7 916.522   8
  -1  -8  -5 36.0135 115.022   3
  -1  -8  -5 279.728 128.004   5
   1   8   5 62.9350 190.771   7
   1   8   6-141.885 217.443   7
  -1  -8  -6-38.0670 154.430   3
  -1  -8  -7 1635.26 419.091   3
   1   8   7 1836.07 450.609   7
  -1  -8  -7 2084.75 491.533   4
  -1  -8  -8 293.365 211.814   4
   1   8   8 574.453 290.852   7
   1   8   9 5945.85 829.350   7
  -1  -8  -9 5408.93 560.633   1
  -1  -8  -9 4283.15 764.121   4
  -1  -8 -10 151.598 194.313   4
   1   8  10-67.6780 164.817   7
  -1  -8 -11 3564.12 702.837   4
   1   8  11 2393.22 540.269   7
  -1  -8 -12-304.082 277.306   4
   1   8  12 420.130 266.067   7
   1   8  13 1731.67 477.758   7
  -1  -8 -13 800.803 318.767   4
  -1  -9   8-36.1957 163.648   8
  -1  -9   8 800.752 473.475   2
  -1  -9   7 588.470 348.006   8
  -1  -9   7 525.549 401.588   2
  -1  -9   6 92.3335 217.903   5
  -1  -9   6 151.722 298.829   2
  -1  -9   6 16.9514 172.170   8
   1   9  -6-107.097 235.390   4
  -1  -9   5 3539.66 662.816   8
  -1  -9   5 3458.53 851.871   5
   1   9  -5 3885.32 677.695   7
  -1  -9   5 3852.53 796.642   2
   1   9  -4 136.487 151.739   7
  -1  -9   4 270.079 188.414   8
  -1  -9   4 228.570 336.379   5
  -1  -9   4 138.324 148.265   2
  -1  -9   3 6886.01 825.084   8
  -1  -9   3 6680.94 823.685   2
  -1  -9   3 7433.08 1209.81   5
   1   9  -3 6670.81 859.495   7
   1   9  -2 150.964 212.146   7
  -1  -9   2-69.6138 79.9506   2
  -1  -9   2-61.8511 132.657   8
  -1  -9   2-150.561 152.304   5
  -1  -9   1 3891.57 438.676   2
  -1  -9   1 3381.91 774.666   5
   1   9  -1 3848.28 673.347   7
  -1  -9   1 3729.45 560.719   8
   1   9   0 2517.37 564.701   7
  -1  -9   0 1914.63 382.612   8
  -1  -9   0 2057.83 264.643   2
   1   9   1 25553.2 1734.11   7
  -1  -9  -1 24171.2 1424.21   8
  -1  -9  -2 1403.89 348.760   8
  -1  -9  -2 1061.24 306.899   5
  -1  -9  -2 1334.04 333.381   3
   1   9   2 1825.87 508.542   7
  -1  -9  -3 2103.78 407.932   5
  -1  -9  -3 1681.87 385.400   3
  -1  -9  -3 2087.13 407.798   8
   1   9   3 2047.83 545.529   7
   1   9   4 956.034 399.565   7
  -1  -9  -4 971.477 253.059   5
  -1  -9  -4 704.457 257.818   3
  -1  -9  -4 1071.61 302.377   8
   1   9   5 4805.82 770.186   7
  -1  -9  -5 4371.96 658.614   3
  -1  -9  -5 4191.22 422.043   5
  -1  -9  -5 3290.65 556.055   8
   1   9   6 1980.28 482.905   7
  -1  -9  -6 2491.30 514.524   3
   1   9   7 3501.51 641.029   7
  -1  -9  -7 2273.72 551.192   3
  -1  -9  -8 431.929 301.947   4
  -1  -9  -8 694.381 339.068   3
   1   9   8 721.694 317.492   7
   1   9   9 2204.54 540.603   7
  -1  -9  -9 1944.64 589.328   4
  -1  -9  -9 2182.36 400.147   1
  -1  -9  -9 1982.31 525.205   3
   1   9  10-8.08325 165.199   7
  -1  -9 -10 409.586 281.121   4
   1   9  11 1054.26 364.762   7
  -1  -9 -11 1372.54 475.997   4
  -1  -9 -12 90.2799 148.079   4
   1   9  12 1.38965 151.492   7
   1   9  13 592.041 304.210   7
  -1 -10   5 421.398 252.812   8
  -1 -10   4-37.9193 103.808   8
  -1 -10   4 243.033 341.595   5
   1  10  -4-26.3997 239.401   7
  -1 -10   3 2094.57 482.911   8
   1  10  -3 1875.85 508.668   7
  -1 -10   3 1838.40 657.070   5
   1  10  -2 235.787 188.112   7
  -1 -10   2 256.829 194.564   8
  -1 -10   2-131.493 238.164   5
  -1 -10   1 7664.54 856.761   8
  -1 -10   1 5074.53 1013.60   5
   1  10  -1 7750.69 999.231   7
  -1 -10   0-74.3265 93.6584   8
  -1 -10   0 17.3358 139.830   5
   1  10   0-113.552 141.090   7
  -1 -10  -1-163.701 188.853   5
  -1 -10  -1 840.742 290.928   8
   1  10   1 897.612 371.457   7
  -1 -10  -2 156.608 133.657   8
  -1 -10  -2-182.808 187.605   5
  -1 -10  -3 16783.7 1279.23   8
  -1 -10  -3 20518.7 1362.81   5
  -1 -10  -3 16463.1 1238.96   3
   1  10   3 17295.2 1527.51   7
  -1 -10  -4 153.402 133.713   5
  -1 -10  -4 33.7940 111.134   8
  -1 -10  -4 122.489 124.825   3
   1  10   5 6352.81 942.702   7
  -1 -10  -5 5515.02 779.729   3
  -1 -10  -5 5135.41 715.321   8
  -1 -10  -6 210.770 159.858   3
   1  10   6 505.829 285.791   7
  -1 -10  -6 534.156 246.694   8
   1  10   7 1720.19 489.668   7
  -1 -10  -7 2145.50 561.279   3
  -1 -10  -8 127.905 164.329   3
   1  10   8-467.815 299.197   7
  -1 -10  -9 3059.14 685.560   3
   1  10   9 2636.55 619.945   7
   1  10  10-148.691 159.211   7
  -1 -10 -10 66.4088 156.033   3
  -1 -10 -10-114.362 127.717   4
   1  10  11 263.930 228.650   7
  -1 -10 -11 64.1409 139.058   3
  -1 -10 -11-306.232 270.849   4
   1  10  12 15.1197 216.835   7
  -1 -11   3 2126.44 783.956   5
  -1 -11   2 658.090 419.162   5
   1  11  -1-228.664 210.284   7
  -1 -11   1-22.7647 157.253   5
  -1 -11   0-94.9625 222.139   5
  -1 -11   0 97.2659 94.8462   8
   1  11   0 376.826 322.667   7
  -1 -11  -1 3535.30 591.966   8
   1  11   1 3538.07 719.740   7
  -1 -11  -2 373.862 219.233   5
  -1 -11  -2 253.023 180.860   8
   1  11   2 490.911 332.544   7
  -1 -11  -3 5219.08 717.713   5
  -1 -11  -3 4037.22 653.534   8
   1  11   3 4571.73 830.369   7
   1  11   4 326.122 293.076   7
  -1 -11  -4 6.69490 93.0410   3
  -1 -11  -4 387.670 226.258   8
  -1 -11  -5 2706.02 558.187   3
  -1 -11  -5 2792.84 576.682   8
   1  11   5 3784.60 748.306   7
   1  11   6 118.680 188.862   7
  -1 -11  -6-301.724 199.157   8
  -1 -11  -6 294.424 192.576   3
  -1 -11  -7 1940.39 497.424   8
   1  11   7 2694.80 639.766   7
  -1 -11  -7 1375.68 424.996   3
  -1 -11  -8 33.4334 105.303   3
   1  11   8 118.051 194.409   7
  -1 -11  -9 284.075 238.066   3
   1  11   9 1109.08 425.284   7
  -1 -11 -10 106.908 135.251   3
  -1 -12   1 800.415 439.279   5
  -1 -12   0 160.529 229.696   5
  -2  11   8 670.566 321.800   7
  -2  11   7 611.805 274.416   7
   2 -11  -6 1302.43 493.820   8
  -2  11   6 450.891 256.573   7
  -2  11   5-108.051 172.318   7
   2 -11  -5 98.0649 135.102   8
  -2  11   4 1067.39 373.793   7
   2 -11  -4 667.915 342.403   8
  -2  11   3 20.0650 134.825   7
   2 -11  -3-244.802 211.672   8
  -2  11   2 2683.59 629.331   7
   2 -11  -2 2055.00 572.292   8
   2 -11  -1 416.498 268.719   8
  -2  11   1 6.01123 156.769   7
  -2  11   0 1156.02 400.122   6
   2 -11   0 878.430 362.892   8
  -2  11  -1 258.937 210.066   6
   2 -11   1 37.5152 159.415   8
  -2  11  -2 651.158 285.333   6
   2 -11   2 302.860 200.661   8
  -2  11  -3 35.8438 146.857   6
   2 -11   3-36.5458 165.075   8
  -2  10   8 1545.46 433.897   7
  -2  10   7 140.587 201.317   7
   2 -10  -6 2783.38 706.388   8
  -2  10   6 2652.85 549.400   7
   2 -10  -5-108.993 215.591   8
  -2  10   5 66.1601 106.336   7
   2 -10  -4 4922.40 869.122   8
  -2  10   4 5909.13 816.322   7
   2 -10  -3 55.6369 189.793   8
  -2  10   3-171.987 223.398   7
   2 -10  -2 935.688 380.432   8
  -2  10   2 1096.58 338.085   7
  -2  10   1 588.246 271.687   7
   2 -10  -1 583.836 295.432   8
  -2  10   0 1746.57 462.261   7
   2 -10   0 2351.77 576.900   8
  -2  10  -1 758.867 339.801   6
   2 -10   1 254.333 213.836   8
   2 -10   2 2671.07 614.982   8
  -2  10  -2 3021.86 568.471   6
   2 -10   3-124.232 109.591   8
  -2  10  -3 4.50446 98.4686   6
   2 -10   4 1781.51 503.092   8
  -2  10  -4 1695.43 429.610   6
   2 -10   5 157.137 218.431   8
  -2  10  -5-163.577 157.287   6
  -2   9   9 565.210 269.529   7
   2  -9  -9 20.8383 205.376   4
  -2   9   8 2597.63 502.088   7
   2  -9  -8 1599.76 505.550   4
  -2   9   7-46.7957 148.213   7
   2  -9  -7 8.98883 129.367   4
   2  -9  -6 4793.83 889.125   4
  -2   9   6 4664.98 666.513   7
   2  -9  -5-33.1361 91.8257   3
  -2   9   5-47.3844 165.738   7
  -2   9   4 1751.91 438.479   7
   2  -9  -4 1619.05 305.393   3
   2  -9  -4 1720.01 491.238   8
   2  -9  -3 50.7920 136.387   8
  -2   9   3 107.629 178.056   7
   2  -9  -2 6290.42 902.548   8
  -2   9   2 8374.35 943.351   7
   2  -9  -1 24.2251 136.249   8
  -2   9   1-105.536 155.976   7
  -2   9   0 14844.9 1299.21   7
   2  -9   0 12898.5 1280.55   8
   2  -9   1 994.291 366.023   8
  -2   9  -1 1432.34 397.666   6
  -2   9  -1 407.434 219.559   7
   2  -9   2 11295.0 1207.80   8
  -2   9  -2 12286.4 1086.64   6
  -2   9  -3 157.107 193.281   6
   2  -9   3 274.471 155.768   8
  -2   9  -4 1308.04 341.791   6
   2  -9   4 1510.79 468.405   8
   2  -9   5-154.052 191.428   8
  -2   9  -5-198.626 200.973   6
  -2   9  -6 2454.22 472.042   6
   2  -9   6 2792.86 648.163   8
   2  -9   7 394.377 385.028   8
   2  -8 -10 1623.32 522.058   4
  -2   8   9 146.909 155.994   7
   2  -8  -9 56.7594 171.111   4
   2  -8  -8 2406.60 607.358   4
  -2   8   8 2369.80 456.276   7
  -2   8   7 258.432 169.366   7
   2  -8  -7 123.078 159.619   4
  -2   8   6 1234.58 338.321   7
   2  -8  -6 881.585 361.337   4
   2  -8  -5 406.342 222.647   4
  -2   8   5 722.185 276.593   7
   2  -8  -4 11396.5 834.528   3
  -2   8   4 10517.5 991.375   7
   2  -8  -3 278.522 95.3025   2
   2  -8  -3 324.864 208.915   8
  -2   8   3 407.966 276.257   7
   2  -8  -3 115.452 95.3783   3
   2  -8  -2 13524.6 682.515   2
   2  -8  -2 13222.0 1233.96   8
   2  -8  -2 12451.3 639.399   3
  -2   8   2 13522.7 1134.48   7
  -2   8   1 98.5343 137.021   7
   2  -8  -1 14.5593 49.7882   2
   2  -8  -1-52.9123 222.066   8
   2  -8   0 12271.8 1169.14   8
  -2   8   0 12901.2 1126.94   7
   2  -8   0 10854.9 708.240   2
  -2   8  -1-129.779 200.601   7
   2  -8   1-36.2443 112.225   8
  -2   8  -2 6680.26 751.208   6
   2  -8   2 5705.82 805.503   8
   2  -8   3-175.213 219.171   8
  -2   8  -3 204.139 158.988   6
  -2   8  -4 13448.7 1070.87   6
   2  -8   4 15316.7 1384.73   8
  -2   8  -5 195.810 113.930   6
   2  -8   5 263.960 173.697   8
  -2   8  -6 4833.63 629.773   6
   2  -8   6 6124.85 912.067   8
  -2   8  -7-71.6399 185.104   6
   2  -8   7 245.483 278.305   8
  -2   8  -8 3434.91 710.639   4
   2  -8   8 2688.93 674.040   8
   2  -7 -11-67.4059 207.821   4
  -2   7  10 1394.86 322.999   2
  -2   7  10 1703.21 334.279   7
   2  -7 -10 1758.37 514.473   4
  -2   7   9 168.715 149.539   7
   2  -7  -9-33.9468 236.678   4
  -2   7   9-14.4353 78.5424   2
  -2   7   8 2241.92 360.326   2
  -2   7   8 2124.00 397.517   7
   2  -7  -8 1770.55 479.106   4
   2  -7  -7 158.158 160.460   7
  -2   7   7 314.176 179.834   7
   2  -7  -7 67.7091 49.5429   5
  -2   7   7 241.357 128.075   2
   2  -7  -7-150.466 204.471   4
   2  -7  -6 9650.96 923.928   7
   2  -7  -6 10591.1 1188.46   4
  -2   7   6 10703.9 909.578   7
  -2   7   5 2049.10 407.832   7
   2  -7  -5 1466.22 398.298   4
   2  -7  -5 1868.39 413.262   7
   2  -7  -4 17379.4 808.529   2
   2  -7  -4 18564.4 1493.72   4
  -2   7   4 18129.9 1214.66   7
   2  -7  -4 16807.1 1259.27   7
   2  -7  -3 329.642 181.533   7
   2  -7  -3 298.115 104.080   2
  -2   7   3 435.323 240.652   7
   2  -7  -2 2375.68 288.316   2
   2  -7  -2 2640.52 518.299   8
   2  -7  -2 2272.22 269.062   3
  -2   7   2 2975.32 513.764   7
   2  -7  -1 303.203 123.971   2
   2  -7  -1 323.510 217.272   8
  -2   7   1 517.664 209.445   7
  -2   7   0 292.514 139.387   7
   2  -7   0 152.982 75.0087   2
   2  -7   0 435.882 217.677   8
   2  -7   1 123.771 119.155   8
  -2   7  -1 239.442 178.645   7
  -2   7  -2 32482.2 1623.65   6
   2  -7   2 31935.1 1850.76   8
   2  -7   3 67.8011 132.478   8
  -2   7  -3 480.366 201.594   6
   2  -7   4 5231.67 747.793   8
  -2   7  -4 4808.54 607.027   6
   2  -7   5-189.862 221.125   8
  -2   7  -5 104.827 105.963   6
  -2   7  -6 6877.50 720.334   6
   2  -7   6 7938.12 976.117   8
  -2   7  -7-146.435 114.438   6
   2  -7   7-130.231 165.807   8
   2  -7   8 11622.2 1317.62   8
  -2   7  -8 9807.55 1121.13   4
   2  -7   9 224.898 312.599   8
  -2   7  -9 279.628 255.389   4
  -2   6  12 821.932 305.735   2
   2  -6 -12 1121.90 443.722   4
   2  -6 -11 143.486 198.612   4
  -2   6  11 213.905 181.338   2
  -2   6  10 3519.17 439.814   7
  -2   6  10 3865.89 563.950   2
   2  -6 -10 3352.85 724.352   4
   2  -6  -9-139.281 214.776   4
  -2   6   9-19.7879 86.1123   7
  -2   6   9 134.572 163.593   2
  -2   6   8 10935.9 849.178   2
   2  -6  -8 9836.49 602.464   5
  -2   6   8 11293.9 825.151   7
   2  -6  -8 9704.92 765.375   7
   2  -6  -8 9981.25 1098.07   4
  -2   6   7 2986.85 405.208   2
  -2   6   7 4010.61 506.087   7
   2  -6  -7 3577.55 364.737   5
   2  -6  -7 3876.01 667.560   4
   2  -6  -7 3891.93 488.021   7
   2  -6  -6 10354.9 854.583   7
   2  -6  -6 10604.7 1061.06   4
  -2   6   6 11924.8 769.693   2
  -2   6   6 12392.1 902.323   7
  -2   6   5 1252.40 221.735   2
  -2   6   5 1070.64 274.469   7
   2  -6  -5 1099.25 338.111   4
   2  -6  -5 1188.88 298.414   7
  -2   6   4 9104.78 810.638   7
   2  -6  -4 9830.33 990.500   4
   2  -6  -4 8698.45 583.673   2
   2  -6  -4 9056.02 819.980   7
  -2   6   3 433.019 191.672   7
  -2   6   3 263.816 181.214   4
   2  -6  -3 423.025 174.763   7
   2  -6  -3 210.925 91.9104   2
   2  -6  -3 452.480 216.934   4
   2  -6  -2 6115.76 462.994   2
   2  -6  -2 6697.97 772.890   8
  -2   6   2 5973.16 647.357   4
   2  -6  -2 7000.93 741.840   7
  -2   6   2 7009.65 697.521   7
  -2   6   1 889.870 274.448   7
   2  -6  -1 1015.19 290.702   8
   2  -6  -1 1106.07 194.422   2
   2  -6  -1 1155.31 311.370   7
   2  -6  -1 1005.97 128.354   3
  -2   6   1 1342.94 304.945   4
  -2   6   0 28503.5 1476.78   4
   2  -6   0 29156.1 1612.98   8
   2  -6   0 26102.9 1488.79   7
  -2   6   0 29859.3 1554.78   7
   2  -6   0 26775.8 1078.37   2
  -2   6  -1 1696.42 365.128   7
   2  -6   1 1888.03 419.684   8
   2  -6   1 1589.43 365.129   7
  -2   6  -1 1501.05 327.235   4
   2  -6   2 8200.14 860.656   8
  -2   6  -2 8709.47 749.880   6
  -2   6  -2 8290.18 806.241   4
  -2   6  -3 49.8030 136.836   6
   2  -6   3 164.413 114.979   8
  -2   6  -4 12299.8 908.749   6
   2  -6   4 14621.6 1179.14   8
   2  -6   5-223.104 209.672   8
  -2   6  -5 2.12529 41.6551   3
  -2   6  -5 32.9741 108.713   6
  -2   6  -6 3045.02 452.406   6
   2  -6   6 4424.84 689.604   8
   2  -6   7 416.870 270.205   8
  -2   6  -7 41.5693 79.3348   6
   2  -6   8 1549.63 480.062   8
  -2   6  -8 786.928 272.551   4
  -2   6  -8 912.534 219.747   6
  -2   6  -9 626.404 309.327   4
   2  -6   9 688.441 350.190   8
   2  -6  10 7431.16 1119.33   8
  -2   6 -10 7025.30 938.291   4
  -2   5  14 1543.81 504.619   2
  -2   5  13 248.382 245.888   2
  -2   5  12 1759.57 492.074   2
   2  -5 -12 2404.18 690.154   4
   2  -5 -11 501.191 310.728   4
  -2   5  11 318.405 259.297   2
  -2   5  10 6011.05 747.880   2
   2  -5 -10 7151.94 939.589   4
  -2   5  10 6368.24 510.685   7
   2  -5  -9 67.5082 203.146   4
  -2   5   9 116.880 169.010   2
  -2   5   9 214.318 122.919   7
   2  -5  -8 15126.8 802.481   5
  -2   5   8 17230.0 944.885   7
   2  -5  -8 18242.8 1426.83   4
  -2   5   8 15797.7 1090.25   2
  -2   5   7 6155.76 626.508   2
   2  -5  -7 5485.64 465.039   5
   2  -5  -7 6876.49 836.864   4
  -2   5   7 7127.11 609.992   7
   2  -5  -7 5640.53 530.486   7
  -2   5   6 4044.62 482.724   7
  -2   5   6 3713.49 445.580   2
   2  -5  -6 3672.08 379.179   5
   2  -5  -6 3051.61 405.084   7
   2  -5  -6 3838.24 606.535   4
   2  -5  -5 3040.10 416.848   7
  -2   5   5 3357.61 497.806   4
  -2   5   5 3441.68 400.427   2
   2  -5  -5 3147.06 522.651   4
  -2   5   5 3571.77 452.830   7
  -2   5   4 33910.4 1563.65   4
  -2   5   4 34194.1 1282.23   2
   2  -5  -4 33857.6 1268.96   2
   2  -5  -4 33983.6 1507.00   7
   2  -5  -4 37261.7 1829.86   4
  -2   5   4 36795.8 1555.42   7
   2  -5  -3 3888.11 379.787   2
  -2   5   3 4391.85 527.007   7
   2  -5  -3 4477.42 599.886   4
  -2   5   3 4699.36 544.015   4
   2  -5  -3 4531.22 523.976   7
   2  -5  -2 113774. 2701.36   2
  -2   5   2 111742. 3184.65   4
   2  -5  -2 113541. 3213.17   7
   2  -5  -2 115609. 3477.18   4
  -2   5   2 116708. 3218.47   7
   2  -5  -1 8806.15 734.544   7
   2  -5  -1 8544.56 797.795   8
  -2   5   1 7242.99 661.136   4
  -2   5   1 8612.97 743.328   7
   2  -5  -1 8052.80 535.306   2
   2  -5   0 24410.5 1363.21   8
  -2   5   0 24228.1 1248.38   4
   2  -5   0 22995.3 1252.27   7
  -2   5   0 25407.5 1318.08   7
   2  -5   0 22661.3 958.109   2
  -2   5  -1 4409.78 506.937   6
  -2   5  -1 4895.13 547.343   4
  -2   5  -1 4470.43 538.945   7
   2  -5   1 4833.14 599.040   8
   2  -5   1 5394.68 600.614   7
   2  -5   2 76667.6 2647.88   8
  -2   5  -2 73678.2 2470.61   4
   2  -5   2 73563.2 2545.50   7
   2  -5   3 94.3586 152.095   8
  -2   5  -3 68.9608 99.2187   8
  -2   5  -3 0.57778 78.6194   6
   2  -5   3 108.390 158.386   7
  -2   5  -4 19199.3 1076.69   6
  -2   5  -4 20211.9 642.020   3
  -2   5  -4 21118.2 1324.54   8
   2  -5   4 19386.2 1306.55   8
   2  -5   4 21061.2 1330.38   7
   2  -5   5-159.210 181.184   8
  -2   5  -5-43.8731 130.802   6
   2  -5   6 9273.25 948.892   8
  -2   5  -6 7870.13 672.217   6
   2  -5   7 42.4590 122.854   8
  -2   5  -7 97.2271 93.3201   6
  -2   5  -8 22257.6 1509.33   4
  -2   5  -8 22606.6 1139.75   6
   2  -5   8 23039.4 1691.18   8
   2  -5   9 209.764 230.044   8
  -2   5  -9-90.6512 71.2032   6
  -2   5 -10 2490.18 521.172   4
   2  -5  10 2582.90 636.681   8
  -2   5 -11-98.9348 197.653   4
   2  -5  11 371.102 389.203   8
  -2   4  14 925.251 364.572   2
   2  -4 -13 131.030 215.769   4
  -2   4  13-56.6917 231.341   2
   2  -4 -12 2576.26 607.621   4
  -2   4  12 1767.40 454.321   2
  -2   4  11 146.345 184.396   2
   2  -4 -11-25.1340 206.011   4
  -2   4  10 4183.64 632.664   2
  -2   4  10 4497.06 357.247   7
   2  -4 -10 4847.66 777.421   4
   2  -4  -9 3145.20 594.800   4
  -2   4   9 1660.60 365.110   2
  -2   4   9 2508.26 301.442   7
   2  -4  -8 6733.65 548.675   5
   2  -4  -8 7786.67 882.052   4
  -2   4   8 6724.84 724.093   2
  -2   4   8 7137.87 515.853   7
   2  -4  -7 216.534 264.417   4
  -2   4   7 218.126 161.654   2
  -2   4   7 438.515 178.720   7
   2  -4  -7 368.066 140.773   5
  -2   4   6 38896.9 1632.19   2
   2  -4  -6 36981.1 1354.80   5
  -2   4   6 41997.8 1812.06   4
   2  -4  -6 39933.5 1912.61   4
   2  -4  -6 36680.5 1318.07   7
  -2   4   6 39111.2 1410.94   7
   2  -4  -5 130.971 86.5771   7
  -2   4   5 184.476 137.680   7
  -2   4   5 12.6842 96.0067   4
  -2   4   5 23.3726 99.5436   2
   2  -4  -5-44.5049 187.419   4
   2  -4  -4 96948.9 2611.63   7
   2  -4  -4 97318.5 2557.99   2
  -2   4   4 103992. 2717.72   7
   2  -4  -4 97196.2 3071.70   4
  -2   4   4 97165.6 2596.47   2
  -2   4   3 13851.6 746.893   2
   2  -4  -3 13254.4 800.006   7
   2  -4  -3 13032.1 720.887   2
   2  -4  -3 14766.7 996.120   4
  -2   4   3 14080.2 853.747   7
   2  -4  -2 117345. 2800.98   2
   2  -4  -2 119379. 3355.63   4
  -2   4   2 125119. 3178.29   7
   2  -4  -2 121834. 3097.13   7
   2  -4  -1 2971.71 392.127   7
  -2   4   1 2544.59 366.633   7
   2  -4  -1 2848.02 300.732   2
   2  -4  -1 2414.82 373.386   4
   2  -4   0 20104.5 1140.35   8
  -2   4   0 21744.7 1130.60   7
   2  -4   0 19485.9 846.103   2
   2  -4   0 18150.2 991.632   7
  -2   4  -1 1873.41 325.392   6
   2  -4   1 1388.11 300.998   8
  -2   4  -2 76795.8 2290.63   6
   2  -4   2 80833.3 2606.11   8
  -2   4  -3-7.93008 74.6677   6
   2  -4   3-89.8826 167.016   8
  -2   4  -4 116184. 3018.57   6
  -2   4  -4 113975. 3380.15   8
   2  -4   4 116075. 3403.90   8
  -2   4  -5 62.1418 84.8847   6
  -2   4  -5 129.219 141.071   8
   2  -4   5 383.217 213.730   7
   2  -4   5-69.0948 154.646   8
   2  -4   6 105196. 3398.54   7
   2  -4   6 116378. 3637.35   8
  -2   4  -6 109508. 2901.75   6
  -2   4  -7 38.3279 75.5203   6
   2  -4   7-183.044 189.959   8
  -2   4  -7-92.7261 117.953   4
  -2   4  -8 1058.19 238.841   6
  -2   4  -8 1168.35 315.629   4
   2  -4   8 1805.45 468.412   8
   2  -4   9 303.841 219.387   8
  -2   4  -9 52.3726 157.475   4
  -2   4  -9 175.131 111.776   6
   2  -4  10 7348.00 1039.67   8
  -2   4 -10 8150.64 897.341   4
  -2   4 -11 159.098 162.083   4
   2  -4  11 174.432 203.454   8
  -2   4 -12 1674.16 431.692   4
   2  -4  12 1440.54 512.494   8
  -2   3  14 377.749 226.252   2
  -2   3  13-233.530 264.257   2
   2  -3 -13 227.526 218.548   4
   2  -3 -12 1368.38 438.739   4
  -2   3  12 1037.15 381.180   2
  -2   3  11 131.721 125.773   2
   2  -3 -11 33.9697 152.209   4
   2  -3 -10 336.027 170.240   4
  -2   3  10 169.280 154.404   2
  -2   3  10 254.390 70.0948   7
  -2   3   9 3400.99 578.567   2
   2  -3  -9 3662.50 591.942   4
  -2   3   9 3694.98 271.807   7
  -2   3   8 48675.7 2198.06   2
   2  -3  -8 53586.8 2333.15   4
  -2   3   8 53962.5 1398.67   7
  -2   3   7 2962.55 483.207   4
  -2   3   7 1505.69 335.196   2
   2  -3  -7 2174.69 426.991   4
   2  -3  -7 1887.93 284.578   5
  -2   3   7 2615.34 267.598   7
  -2   3   6 34634.5 1137.03   7
  -2   3   6 31665.5 1512.68   2
   2  -3  -6 32044.7 1280.57   5
   2  -3  -6 34276.7 1662.06   4
  -2   3   5 408.769 182.524   2
   2  -3  -5 438.312 106.982   7
   2  -3  -5 332.695 119.756   5
   2  -3  -5 449.210 192.194   4
  -2   3   5 548.605 161.990   7
   2  -3  -5 540.743 114.189   1
  -2   3   4 10287.4 712.726   2
   2  -3  -4 9380.11 657.167   2
  -2   3   4 9152.67 599.834   7
   2  -3  -4 9884.33 566.461   7
   2  -3  -4 10333.6 788.966   4
  -2   3   3 31.9408 68.8052   2
  -2   3   3 180.675 174.055   7
   2  -3  -3 135.565 120.604   4
  -2   3   2 12362.3 679.327   2
   2  -3  -2 11816.3 653.636   2
   2  -3  -2 12758.1 678.167   7
   2  -3  -2 11784.2 780.142   4
  -2   3   2 10615.7 670.264   7
  -2   3   1 964.273 187.582   4
   2  -3  -1 982.317 174.605   2
  -2   3   1 851.317 170.546   7
   2  -3  -1 1102.03 226.601   4
   2  -3  -1 1018.76 201.455   7
   2  -3   0 124394. 3143.04   8
  -2   3   0 128669. 3028.03   6
  -2   3   0 114844. 2858.73   4
   2  -3   0 116670. 2852.96   7
   2  -3   0 114622. 2694.01   2
   2  -3   1 731.137 193.349   8
  -2   3  -1 695.099 162.048   4
  -2   3  -2 142455. 3361.94   6
   2  -3   2 147337. 3664.25   8
  -2   3  -3-19.7532 60.0640   6
   2  -3   3-104.669 137.667   8
  -2   3  -4 548687. 10265.0   6
   2  -3   4 553435. 10762.4   8
  -2   3  -5-60.4510 102.136   6
   2  -3   5-123.436 145.542   8
   2  -3   5 245.268 190.583   7
  -2   3  -6 2233.42 308.492   6
   2  -3   6 2105.09 406.642   8
  -2   3  -6 2889.68 468.877   8
   2  -3   6 2973.58 465.015   7
   2  -3   7-109.955 186.326   8
  -2   3  -7-14.4617 103.257   6
  -2   3  -7-73.3751 140.823   4
   2  -3   7-144.949 150.977   7
  -2   3  -8 18980.6 949.822   6
  -2   3  -8 19116.7 1230.06   4
   2  -3   8 16890.7 1334.29   8
  -2   3  -9 50.8772 75.0722   6
  -2   3  -9-48.4312 127.537   4
   2  -3   9 7.34053 114.739   8
   2  -3  10 17087.2 1550.35   8
  -2   3 -10 18382.7 1296.86   4
  -2   3 -11 357.280 218.715   4
   2  -3  11-78.9237 209.566   8
  -2   3 -12 2774.33 556.883   4
   2  -3  12 1848.27 591.354   8
  -2   3 -13-172.441 148.247   4
   2  -2 -13 84.1757 156.310   4
  -2   2  13 48.2941 161.336   2
   2  -2 -12 2661.91 543.936   4
  -2   2  12 1596.13 453.543   2
  -2   2  11 416.633 165.706   6
  -2   2  11 924.461 359.172   2
   2  -2 -11 1111.61 397.715   4
  -2   2  10 10575.3 1084.81   2
  -2   2  10 9327.60 716.085   6
   2  -2 -10 10870.2 1042.03   4
   2  -2  -9 1683.92 392.602   4
  -2   2   9 975.705 320.575   2
  -2   2   8 1182.54 297.936   2
   2  -2  -8 989.837 306.226   4
  -2   2   7 184.356 139.111   4
  -2   2   7 268.037 111.795   2
   2  -2  -7 188.065 165.613   4
   2  -2  -6 7099.64 692.596   4
  -2   2   6 7234.48 695.302   2
   2  -2  -6 6241.70 555.872   5
  -2   2   6 7200.44 701.868   4
   2  -2  -5-83.6719 131.141   4
  -2   2   5-26.1600 55.8280   7
  -2   2   5-269.458 268.389   2
   2  -2  -5 99.9951 82.7195   5
  -2   2   4 7794.10 631.018   2
   2  -2  -4 8416.91 448.019   1
   2  -2  -4 8214.78 637.382   2
   2  -2  -4 8420.58 581.267   5
   2  -2  -4 7980.79 379.131   7
  -2   2   4 7154.94 394.855   7
   2  -2  -4 8614.52 673.977   4
  -2   2   3 7109.49 428.925   7
   2  -2  -3 8773.57 647.526   4
  -2   2   3 7795.26 579.594   2
  -2   2   3 7897.43 575.595   4
   2  -2  -3 7794.46 419.934   7
   2  -2  -2 239515. 4975.61   4
  -2   2   2 252706. 5052.45   6
   2  -2  -2 233574. 4837.84   2
  -2   2   2 242018. 4885.96   2
   2  -2  -2 235956. 4533.10   7
  -2   2   2 234877. 4902.11   4
   2  -2  -1 19112.0 834.283   2
  -2   2   1 21058.5 934.288   6
   2  -2  -1 19370.0 869.683   4
  -2   2   1 20370.2 859.348   4
   2  -2  -1 19090.4 738.789   7
  -2   2   1 19879.7 842.383   2
  -2   2   0 100125. 2459.04   6
   2  -2   0 98002.7 2349.28   2
  -2   2   0 97580.4 2339.76   4
   2  -2   0 104897. 2608.52   8
   2  -2   0 101526. 2424.96   4
   2  -2   0 100093. 2308.90   7
   2  -2   1 882.746 161.347   7
  -2   2  -1 704.067 146.498   4
   2  -2   1 726.050 84.1174   3
  -2   2  -1 596.069 141.376   6
   2  -2   1 715.898 184.827   8
  -2   2  -2 804.147 92.5222   3
  -2   2  -2 585.932 141.077   6
   2  -2   2 825.311 179.077   6
   2  -2   2 485.878 142.456   8
  -2   2  -3 231.193 95.0592   6
   2  -2   3 361.506 127.314   6
   2  -2   3 93.2340 74.0157   8
  -2   2  -4 27842.3 1098.27   6
   2  -2   4 30252.3 1124.49   6
   2  -2   4 29737.1 1306.26   8
   2  -2   5 184.910 103.814   6
  -2   2  -5-61.8361 83.0725   6
   2  -2   5 39.4915 98.2429   8
  -2   2  -6 232134. 4899.21   6
   2  -2   6 225705. 4836.33   6
  -2   2  -6 236090. 5231.92   4
  -2   2  -7-93.3892 108.148   6
   2  -2   7 63.3437 108.423   6
  -2   2  -7-148.944 113.199   4
  -2   2  -7-29.4115 116.188   8
   2  -2   7 231.362 162.957   8
   2  -2   8 24913.5 1594.33   8
  -2   2  -8 26957.7 1113.86   6
   2  -2   8 27029.4 1122.86   6
  -2   2  -8 25767.5 1357.10   4
   2  -2   9-46.3764 171.250   8
  -2   2  -9 95.1167 127.383   4
   2  -2   9 212.342 111.102   6
   2  -2  10 11177.3 692.627   6
   2  -2  10 10509.7 1192.80   8
  -2   2 -10 11909.5 1012.93   4
   2  -2  11 589.276 299.252   8
  -2   2 -11 486.239 220.132   4
   2  -2  12 9784.69 1285.75   8
  -2   2 -12 11549.0 1088.25   4
  -2   2 -13 10.8241 116.823   4
   2  -2  13 42.8166 146.058   8
  -2   2 -14 755.283 301.396   4
   2  -2  15 649.949 340.553   5
  -2   1  13 1208.60 471.308   2
   2  -1 -13-169.882 197.043   4
  -2   1  12 5676.49 891.238   2
   2  -1 -12 6850.52 926.515   4
   2  -1 -11 876.592 334.167   4
  -2   1  11 610.240 332.375   2
  -2   1  11 989.541 297.545   5
  -2   1  10 338.387 206.702   5
   2  -1 -10 519.880 267.782   4
  -2   1  10 293.852 89.7818   6
  -2   1  10 524.192 299.131   2
   2  -1  -9-143.474 180.441   4
  -2   1   9 156.363 194.417   5
  -2   1   9 224.575 245.123   2
  -2   1   9 74.7933 72.7958   6
  -2   1   8 14350.4 743.677   6
  -2   1   8 13466.0 983.205   5
   2  -1  -8 15688.1 1116.21   4
  -2   1   7 927.532 246.472   4
  -2   1   7 1109.37 209.650   6
  -2   1   7 770.708 276.014   2
   2  -1  -7 761.922 302.360   8
   2  -1  -7 1295.00 327.662   4
  -2   1   6 75565.1 2630.09   2
  -2   1   6 82292.4 2182.48   6
   2  -1  -6 83627.6 2597.56   4
   2  -1  -5 844.221 189.588   5
   2  -1  -5 1388.45 292.020   4
  -2   1   5 945.131 242.406   2
  -2   1   5 1045.67 208.233   6
  -2   1   4 28504.2 1071.47   6
  -2   1   4 27432.7 1283.46   2
   2  -1  -4 27343.1 1152.46   5
   2  -1  -4 29397.9 1241.39   4
  -2   1   3 59975.2 1880.97   2
   2  -1  -3 53401.4 1762.29   2
   2  -1  -3 54557.1 1714.44   5
   2  -1  -3 60116.5 1778.36   4
  -2   1   3 59296.8 1621.12   6
  -2   1   3 56777.6 1716.42   4
   2  -1  -3 54286.9 1480.75   1
  -2   1   2 51451.6 1463.42   6
  -2   1   2 52845.5 1627.26   2
   2  -1  -2 49873.2 1570.80   2
   2  -1  -2 51245.0 1510.40   4
  -2   1   2 51175.0 1514.99   4
   2  -1  -2 49735.8 1101.39   7
   2  -1  -2 51474.7 1409.48   1
   2  -1  -1 995.865 189.167   4
  -2   1   1 1002.44 165.952   4
   2  -1  -1 1430.74 193.028   6
  -2   1   1 992.889 165.684   6
  -2   1   1 1174.13 201.868   2
   2  -1  -1 738.924 146.203   2
  -2   1   0 1343.54 193.744   6
  -2   1   0 1417.12 179.039   4
   2  -1   0 1490.93 205.523   2
  -2   1   0 1454.98 195.029   2
   2  -1   0 1386.95 166.787   4
   2  -1   1 210.554 79.5701   8
  -2   1  -1 365.284 121.126   6
   2  -1   1 346.003 101.191   2
   2  -1   1 227.528 64.5519   3
  -2   1  -1 240.800 64.4779   3
  -2   1  -1 284.086 76.7314   4
   2  -1   2 300.654 100.450   8
   2  -1   2 496.414 119.201   6
  -2   1  -2 450.573 124.959   6
   2  -1   3 180.496 58.2028   6
   2  -1   3 241.779 121.150   8
  -2   1  -3 426.063 127.155   6
  -2   1  -3 145.244 65.2083   8
  -2   1  -4 46479.0 1438.96   6
   2  -1   4 47038.5 1455.58   6
   2  -1   4 46862.7 1606.31   8
  -2   1  -5 12.7933 59.0547   6
  -2   1  -5-41.8243 76.4497   4
   2  -1   5 82.0805 63.2685   6
   2  -1   5 130.418 121.107   8
  -2   1  -6 118183. 2966.28   4
  -2   1  -6 116094. 2835.90   6
   2  -1   6 113309. 2840.00   6
   2  -1   7-8.71213 144.958   8
   2  -1   7 16.3838 51.9730   6
  -2   1  -7-90.1746 134.451   4
  -2   1  -7-65.4381 119.835   8
   2  -1   8 6580.75 791.368   8
  -2   1  -8 7995.86 676.637   4
   2  -1   8 7327.65 568.482   6
  -2   1  -8 6947.94 767.609   8
  -2   1  -9 156.216 96.3995   4
   2  -1   9 74.1981 50.4691   6
   2  -1  10 19900.2 1009.41   6
  -2   1 -10 20955.3 1295.40   4
   2  -1  10 19717.5 1603.84   8
  -2   1 -11 409.528 200.994   4
   2  -1  11 61.5492 89.1006   6
   2  -1  11 283.986 293.468   8
  -2   1 -12 4633.09 659.932   4
   2  -1  12 3218.37 699.138   8
  -2   1 -13 828.935 331.616   4
   2  -1  13 1307.82 562.345   8
  -2   1 -14 2068.66 481.984   4
   2  -1  15-98.2769 173.368   5
  -2   0  13 604.734 356.049   2
  -2   0  13 511.997 273.117   5
   2   0 -13 196.867 165.921   4
  -2   0  12 1101.91 373.778   5
  -2   0  12 1102.96 418.424   2
   2   0 -12 1604.01 479.904   4
   2   0 -11 252.348 233.938   4
  -2   0  11 256.564 270.014   2
  -2   0  11 11.6885 113.933   5
  -2   0  10 14051.6 617.846   1
  -2   0  10 15183.2 551.203   7
  -2   0  10 17100.1 1430.23   2
  -2   0  10 16780.6 1266.41   5
   2   0 -10 16942.3 1282.35   4
  -2   0  10 15729.1 550.283   7
  -2   0   9 667.312 101.004   7
  -2   0   9 1067.86 336.967   2
  -2   0   9 523.112 122.481   1
  -2   0   9 855.113 294.649   5
   2   0  -9 820.637 301.040   4
  -2   0   9 820.993 120.813   7
  -2   0   8 13759.1 474.725   6
  -2   0   8 12431.9 1097.37   2
  -2   0   8 13121.0 1038.80   5
   2   0  -8 14639.9 1054.19   4
  -2   0   8 13849.6 487.540   7
  -2   0   8 12760.7 442.411   7
  -2   0   8 13261.3 633.672   1
  -2   0   7 52.4538 40.0884   7
   2   0  -7 24.6898 146.690   4
  -2   0   7 39.3651 26.1778   7
  -2   0   7 128.932 117.893   4
   2   0  -7 11.8827 98.4309   8
  -2   0   7 32.6958 46.6317   6
  -2   0   7 106.985 187.608   2
  -2   0   7 24.5850 161.215   5
  -2   0   7-59.4679 63.1645   1
  -2   0   6 21478.8 848.478   1
  -2   0   6 21011.0 1194.02   5
   2   0  -6 20463.8 1388.12   8
   2   0  -6 21768.0 1166.51   4
  -2   0   6 21965.4 1225.43   4
  -2   0   6 21453.0 1307.05   2
  -2   0   6 22704.6 755.766   6
  -2   0   5 11696.9 522.854   6
  -2   0   5 10117.0 829.370   2
  -2   0   5 10312.8 764.625   5
   2   0  -5 10284.0 904.450   8
   2   0  -5 12549.7 798.482   4
  -2   0   5 10501.4 565.291   1
  -2   0   4 102252. 2210.21   6
  -2   0   4 97595.9 2844.10   2
  -2   0   4 102960. 2760.13   5
   2   0  -4 101125. 2728.65   5
  -2   0   4 101031. 2350.20   1
  -2   0   4 101184. 2682.76   4
   2   0  -4 103082. 2657.09   4
   2   0  -3 59.1802 130.966   5
   2   0  -3 199.790 123.692   4
  -2   0   3-27.6640 117.176   2
  -2   0   3-39.9050 92.6947   4
  -2   0   3-22.0794 32.8359   6
  -2   0   3-38.1512 67.8935   1
  -2   0   2 208.293 62.8844   4
  -2   0   2 191.692 70.0315   6
   2   0  -2 378.619 92.1771   6
  -2   0   2 179.339 66.4240   1
   2   0  -2 55.7056 55.3450   5
   2   0  -2 339.806 62.9671   7
  -2   0   2 569.903 181.069   2
   2   0  -1 499.818 116.219   4
   2   0  -1 449.416 122.035   1
  -2   0   1 431.264 98.9786   4
  -2   0   1 406.027 97.2053   6
   2   0  -1 435.708 96.3057   6
  -2   0   1 594.093 141.758   1
  -2   0   1 487.807 139.202   2
  -2   0   0 314630. 5813.97   2
   2   0   0 296306. 5660.62   6
   2   0   0 309086. 5736.49   3
   2   0   0 294263. 5379.19   4
  -2   0   0 304894. 5664.88   6
  -2   0   0 283588. 5360.34   4
   2   0   0 296879. 5749.21   1
  -2   0  -1 1855.37 218.272   6
  -2   0  -1 1648.38 199.494   3
   2   0   1 1841.28 132.227   4
   2   0   1 1955.22 240.046   1
   2   0   1 1828.80 203.741   8
  -2   0  -1 1893.50 138.609   4
   2   0   1 1836.48 203.878   3
  -2   0  -2 622.179 131.932   6
   2   0   2 562.390 126.084   8
  -2   0  -2 750.616 137.411   8
  -2   0  -2 777.390 140.302   3
  -2   0  -3 376.185 115.645   6
   2   0   3 206.548 85.4998   6
   2   0   3 213.245 99.4801   8
  -2   0  -3 176.498 83.7420   8
  -2   0  -3 382.137 73.9200   4
   2   0   4 98668.9 2439.45   6
  -2   0  -4 98660.4 2557.78   8
   2   0   4 96546.9 2551.91   8
  -2   0  -4 99817.5 2181.22   4
  -2   0  -5 2265.02 279.586   6
   2   0   5 2251.72 290.585   6
  -2   0  -5 2081.90 314.235   8
  -2   0  -5 2248.25 255.482   4
   2   0   5 1945.52 311.579   8
   2   0   6 60288.9 1866.71   6
  -2   0  -6 64583.2 1837.69   4
  -2   0  -7 479.361 156.331   8
   2   0   7 762.612 181.890   6
  -2   0  -7 801.762 177.945   4
   2   0   7 501.210 181.875   8
   2   0   8 8215.88 632.361   6
  -2   0  -8 7956.69 812.709   8
  -2   0  -8 10237.6 726.720   4
   2   0   8 7814.00 859.028   8
  -2   0  -9 1403.69 294.824   4
   2   0   9 1572.90 282.388   6
   2   0   9 858.535 320.429   8
   2   0  10 935.108 378.974   8
  -2   0 -10 383.828 161.083   4
  -2   0 -11 123.896 135.953   4
   2   0  11-109.661 156.640   8
   2   0  12 11275.3 1344.90   8
  -2   0 -12 10407.5 962.996   4
  -2   0 -13 143.403 109.023   4
  -2   0 -14 2973.89 561.423   4
   2   0  14 1513.04 406.383   5
  -2   0 -15 12.6863 136.256   4
  -2  -1  14-108.685 177.987   5
  -2  -1  13 426.517 274.766   5
  -2  -1  12 5032.77 875.409   2
  -2  -1  12 6280.71 900.062   5
   2   1 -12 6224.03 850.035   4
   2   1 -11 3750.13 630.279   4
  -2  -1  11 2651.14 547.236   5
  -2  -1  11 2541.44 606.398   2
   2   1 -10 3281.46 574.795   4
  -2  -1  10 3754.15 672.266   2
  -2  -1  10 3475.63 616.431   5
  -2  -1  10 2566.77 338.901   1
   2   1  -9 2556.03 476.286   4
  -2  -1   9 1568.00 453.888   2
  -2  -1   9 1693.84 251.688   7
  -2  -1   9 2581.56 501.173   5
  -2  -1   8 6521.61 752.207   5
  -2  -1   8 6746.52 837.722   2
   2   1  -8 7130.47 732.200   4
  -2  -1   8 6812.99 482.729   7
  -2  -1   7 400.699 231.397   2
   2   1  -7 162.306 148.393   4
  -2  -1   7 203.660 208.978   5
  -2  -1   7 105.956 124.718   4
   2   1  -7-79.4793 123.942   8
  -2  -1   7-29.4478 55.7488   7
  -2  -1   6 114925. 3643.67   2
  -2  -1   6 118100. 3515.19   5
  -2  -1   6 127314. 3538.39   4
   2   1  -6 129413. 3403.07   4
  -2  -1   6 119073. 2620.65   7
   2   1  -6 119882. 3763.26   8
  -2  -1   5 1213.72 159.982   7
  -2  -1   5 1487.23 322.728   5
   2   1  -5 976.834 242.456   4
   2   1  -5 1352.44 330.697   8
  -2  -1   5 1084.90 288.012   2
  -2  -1   5 1196.74 254.718   4
  -2  -1   4 19814.0 612.176   6
  -2  -1   4 18998.8 1117.35   2
  -2  -1   4 21015.6 1113.94   5
  -2  -1   4 20333.1 698.611   7
   2   1  -4 18453.0 1114.83   8
   2   1  -4 20997.0 992.060   4
   2   1  -3 2478.69 362.583   8
  -2  -1   3 2667.96 212.556   6
  -2  -1   3 2717.17 224.231   7
  -2  -1   3 2316.16 378.936   2
  -2  -1   3 2392.63 408.515   5
   2   1  -3 3029.98 212.692   7
   2   1  -3 2674.75 199.027   6
   2   1  -3 2511.17 295.707   4
  -2  -1   3 2539.82 303.820   4
   2   1  -2 76183.0 1688.77   7
  -2  -1   2 75353.6 2030.25   1
  -2  -1   2 78055.9 1738.05   6
   2   1  -2 78251.4 1740.70   6
  -2  -1   2 75287.2 1698.19   7
  -2  -1   2 79871.4 2208.46   2
  -2  -1   2 76527.7 2194.59   5
   2   1  -2 81562.4 1945.97   4
  -2  -1   2 75007.1 1930.33   4
  -2  -1   1 11142.5 509.816   6
  -2  -1   1 11955.3 665.827   2
   2   1  -1 10564.3 623.099   2
  -2  -1   1 10613.0 488.350   7
   2   1  -1 11383.0 514.290   6
   2   1  -1 11792.7 514.245   4
   2   1  -1 11330.5 522.362   7
  -2  -1   1 10789.5 501.603   4
  -2  -1   1 10850.3 614.801   1
  -2  -1   0 118126. 2637.94   2
   2   1   0 114991. 2491.73   7
   2   1   0 115108. 2633.75   2
   2   1   0 113381. 2477.84   6
   2   1   0 118265. 2243.24   4
  -2  -1   0 113705. 2466.70   6
  -2  -1   0 111184. 2243.26   4
  -2  -1  -1 13429.7 646.516   3
  -2  -1  -1 12961.8 599.795   6
   2   1   1 12250.2 588.891   6
   2   1   1 12207.2 596.023   2
   2   1   1 11894.0 435.140   8
   2   1   1 12417.3 647.512   1
  -2  -1  -1 12746.2 595.356   2
   2   1   1 11797.4 604.213   3
   2   1   2 318395. 5662.46   8
  -2  -1  -2 317774. 5948.62   6
  -2  -1  -2 299917. 5661.24   8
   2   1   2 323238. 5975.40   3
   2   1   2 305864. 6038.37   1
  -2  -1  -2 318740. 6010.78   1
  -2  -1  -2 325785. 6020.61   3
   2   1   2 318768. 5923.05   2
  -2  -1  -3 3467.76 300.985   8
   2   1   3 3912.57 354.257   6
   2   1   3 3737.26 345.234   1
   2   1   3 3753.60 204.451   4
   2   1   3 3297.94 294.225   8
  -2  -1  -3 4175.31 210.544   4
  -2  -1  -3 4311.44 380.447   3
   2   1   4 49394.3 1263.80   4
   2   1   4 50901.9 1560.94   6
   2   1   4 50850.7 1480.59   1
   2   1   4 47093.6 1520.67   8
  -2  -1  -4 51462.9 1244.81   4
  -2  -1  -4 49834.7 1531.12   8
  -2  -1  -5 192.368 101.590   4
   2   1   5-22.5125 63.6981   6
   2   1   5 35.5369 42.6526   4
   2   1   5-240.427 171.853   8
  -2  -1  -5-45.0347 76.9265   8
   2   1   5-71.0649 86.4238   1
   2   1   6 32552.9 1299.37   6
  -2  -1  -6 34217.1 1174.02   4
   2   1   6 31387.8 1201.38   4
  -2  -1  -7 1440.95 246.563   4
  -2  -1  -7 1527.22 318.604   8
   2   1   7 1282.46 245.655   6
   2   1   7 1494.75 263.758   4
   2   1   7 1297.38 330.392   8
   2   1   8 20489.1 1392.66   8
  -2  -1  -8 22363.1 1364.28   8
  -2  -1  -8 23053.1 1094.22   4
   2   1   8 23005.8 1198.54   4
  -2  -1  -9 735.956 206.583   4
   2   1   9 691.395 284.410   8
   2   1   9 687.827 225.041   4
  -2  -1  -9 488.008 223.770   8
   2   1  10 14901.9 804.266   1
  -2  -1 -10 16366.1 1045.01   4
   2   1  10 18061.5 1239.61   4
  -2  -1 -11 27.9491 141.339   4
   2   1  11-15.1988 74.3859   6
   2   1  11-67.2871 71.2750   1
   2   1  12 5855.63 613.896   6
  -2  -1 -12 5534.30 680.396   4
  -2  -1 -13-60.2042 206.401   4
   2   1  14 1229.89 331.423   5
  -2  -1 -14 1473.95 398.080   4
   2   1  15 261.816 186.296   7
  -2  -1 -15-4.89822 147.728   4
  -2  -2  13 60.4771 160.610   5
   2   2 -12 1502.66 447.274   4
  -2  -2  12 494.937 281.683   5
  -2  -2  12 1179.93 434.078   2
  -2  -2  11 782.058 385.277   2
   2   2 -11 476.535 261.290   4
  -2  -2  11 490.464 249.594   5
  -2  -2  10 7104.23 975.805   2
  -2  -2  10 7053.96 916.601   5
   2   2 -10 8455.13 925.484   4
   2   2  -9 2435.08 481.656   4
  -2  -2   9 2512.08 580.794   2
  -2  -2   9 1942.15 338.439   7
  -2  -2   9 2686.81 544.879   5
  -2  -2   8 10080.6 773.562   7
  -2  -2   8 11216.5 1138.14   2
  -2  -2   8 11738.6 1080.29   5
   2   2  -8 11710.8 981.742   4
  -2  -2   7 1169.58 384.767   2
   2   2  -7 554.542 217.931   4
  -2  -2   7 701.973 215.833   7
   2   2  -7 344.271 156.680   8
  -2  -2   7 1095.36 340.770   5
   2   2  -6 3516.17 535.208   8
   2   2  -6 3959.48 471.534   4
  -2  -2   6 3949.71 612.203   2
  -2  -2   6 3677.94 413.849   7
  -2  -2   6 4166.19 564.989   5
  -2  -2   5 557.228 243.728   5
   2   2  -5 373.098 140.942   4
   2   2  -5 562.177 213.466   8
  -2  -2   5 546.093 145.999   7
   2   2  -4 150801. 2730.46   6
  -2  -2   4 149482. 3979.98   2
  -2  -2   4 153132. 3968.19   5
   2   2  -4 153782. 3156.06   7
  -2  -2   4 140703. 3312.21   7
   2   2  -4 152679. 3579.77   4
   2   2  -4 148306. 3771.47   8
  -2  -2   3 38613.1 1586.91   5
   2   2  -3 38292.4 988.242   6
  -2  -2   3 36168.1 1556.83   2
   2   2  -3 36126.1 1404.23   8
   2   2  -3 39639.4 1177.68   7
  -2  -2   3 37357.5 1266.90   7
   2   2  -3 37638.1 1335.25   4
   2   2  -2 212998. 4053.82   6
  -2  -2   2 214548. 4409.30   7
   2   2  -2 214405. 4260.66   7
  -2  -2   2 219540. 4712.10   2
  -2  -2   2 219078. 4785.86   5
   2   2  -2 216463. 4643.45   2
   2   2  -2 206322. 4378.79   8
   2   2  -2 209869. 4344.73   4
  -2  -2   1 7379.27 534.327   2
   2   2  -1 6637.41 392.839   6
   2   2  -1 6588.97 507.533   2
  -2  -2   1 6687.35 545.097   5
   2   2  -1 6894.89 426.270   4
   2   2  -1 6200.73 384.224   8
  -2  -2   1 6364.19 468.056   7
   2   2  -1 7046.00 476.075   7
   2   2   0 55334.9 1179.51   8
  -2  -2   0 56168.0 1618.13   7
  -2  -2   0 57760.8 1611.57   2
  -2  -2   0 57304.2 1698.56   5
   2   2   0 54438.3 1647.13   5
   2   2   0 54181.6 1584.85   2
   2   2   0 52766.8 1446.00   6
   2   2   0 59130.0 1704.62   7
   2   2   1 1350.58 233.972   7
  -2  -2  -1 1080.00 193.210   3
  -2  -2  -1 1027.21 188.441   7
   2   2   1 1238.52 193.181   5
  -2  -2  -1 983.110 158.462   2
   2   2   1 1284.12 184.753   2
   2   2   2 1609.51 253.211   7
  -2  -2  -2 1556.21 238.321   3
   2   2   2 1688.51 205.010   2
   2   2   2 1709.23 148.466   8
   2   2   2 1662.58 139.794   4
  -2  -2  -2 1353.14 233.489   1
  -2  -2  -2 1638.05 134.858   8
  -2  -2  -3 7823.60 528.804   1
  -2  -2  -3 7205.88 398.044   8
   2   2   3 6723.24 422.900   8
   2   2   3 7567.10 556.166   7
  -2  -2  -3 7297.81 355.843   4
   2   2   3 7416.55 335.409   4
  -2  -2  -3 7961.70 575.940   3
   2   2   4 27773.8 851.165   4
   2   2   4 27776.3 1084.61   1
  -2  -2  -4 27663.6 900.184   4
  -2  -2  -4 26424.7 1020.03   8
   2   2   4 28507.4 1218.15   7
  -2  -2  -4 30629.0 1077.46   1
  -2  -2  -5 7800.24 485.319   4
   2   2   5 7440.99 523.227   1
   2   2   5 7825.95 635.396   8
  -2  -2  -5 7546.16 588.769   8
   2   2   5 8000.38 482.631   4
  -2  -2  -6 290390. 5824.95   4
  -2  -2  -6 294006. 6315.77   8
   2   2   7 19214.0 1228.94   8
  -2  -2  -7 23659.0 1041.29   4
   2   2   7 22731.6 1050.21   4
   2   2   7 19905.6 915.455   1
  -2  -2  -8 71405.2 2601.57   8
  -2  -2  -8 68343.0 2124.37   4
   2   2   8 71451.6 2241.87   4
   2   2   8 66321.1 1900.99   1
   2   2   9 81.4810 77.2170   1
  -2  -2  -9-48.6662 99.0927   4
   2   2   9 62.9235 78.2461   6
   2   2   9 55.2782 96.6539   4
  -2  -2  -9-20.3945 128.947   8
   2   2  10 5453.75 593.397   6
  -2  -2 -10 5357.89 592.795   4
   2   2  10 5562.39 650.115   4
   2   2  10 4617.24 424.100   1
  -2  -2 -11 230.878 149.997   4
   2   2  11 210.760 134.035   6
   2   2  11 222.926 99.9306   1
   2   2  12 2301.25 454.605   7
   2   2  12 2973.18 463.198   6
  -2  -2 -12 2853.26 497.981   4
  -2  -2 -13-61.2668 102.458   4
   2   2  13 29.4659 97.3099   5
   2   2  13-207.375 192.245   7
  -2  -2 -14 1411.50 385.467   4
   2   2  14 1020.66 336.987   7
  -2  -2 -15 494.395 258.224   4
   2   2  15 395.905 188.801   7
  -2  -3  12 968.165 384.688   5
  -2  -3  11 174.373 233.331   2
   2   3 -11 64.6204 134.380   4
  -2  -3  11 427.720 303.040   5
   2   3 -10 2337.48 511.232   4
  -2  -3  10 2351.23 599.980   2
  -2  -3  10 2953.17 622.806   5
   2   3  -9 1612.35 370.593   4
  -2  -3   9 2017.50 588.004   2
  -2  -3   9 1776.92 464.572   5
   2   3  -8 1265.98 308.668   4
  -2  -3   8 1733.49 480.524   2
  -2  -3   8 1162.34 367.152   5
   2   3  -7 2801.84 459.315   4
  -2  -3   7 2230.38 412.041   7
  -2  -3   7 2925.65 615.548   2
   2   3  -7 2932.27 498.215   8
  -2  -3   7 2067.50 443.394   5
   2   3  -6 35023.9 1689.73   8
  -2  -3   6 31383.2 1881.33   2
  -2  -3   6 32310.4 1773.28   5
  -2  -3   6 34890.1 1622.05   7
   2   3  -6 32917.5 1595.82   4
  -2  -3   5 10568.7 815.213   7
   2   3  -5 10601.6 825.851   8
  -2  -3   5 9797.91 902.139   5
  -2  -3   5 10657.9 988.778   2
   2   3  -5 10991.2 810.201   4
   2   3  -5 11420.7 670.892   7
   2   3  -4 90448.9 1829.67   6
  -2  -3   4 87978.2 2897.89   5
   2   3  -4 84388.7 2504.80   8
   2   3  -4 92371.1 2343.88   7
  -2  -3   4 82885.2 2547.27   7
   2   3  -4 88482.4 2575.83   4
  -2  -3   4 87687.6 2953.99   2
   2   3  -3 6767.27 377.511   6
   2   3  -3 6614.86 522.961   8
  -2  -3   3 9860.10 864.000   2
   2   3  -3 7862.64 567.972   7
  -2  -3   3 10304.5 858.481   5
  -2  -3   3 11799.1 912.336   8
   2   3  -3 7604.70 609.893   4
  -2  -3   3 8776.57 668.182   7
  -2  -3   2 20456.0 974.441   8
  -2  -3   2 20078.2 1056.44   2
   2   3  -2 22003.4 988.604   4
   2   3  -2 20009.8 817.326   8
   2   3  -2 22509.6 990.976   7
  -2  -3   2 20930.1 1047.57   7
  -2  -3   2 20763.7 1131.36   5
  -2  -3   1 3893.78 406.807   2
   2   3  -1 4165.91 416.315   2
  -2  -3   1 4290.62 471.662   5
   2   3  -1 3684.34 413.168   3
   2   3  -1 3907.30 278.595   8
   2   3  -1 3960.67 413.383   7
  -2  -3   1 4108.02 444.824   7
  -2  -3   1 3805.07 330.429   8
   2   3   0 31981.6 759.237   8
   2   3   0 31641.3 1272.90   3
  -2  -3   0 32572.7 1152.43   2
   2   3   0 31276.7 1137.16   2
  -2  -3   0 31903.6 1276.21   5
   2   3   0 32015.1 1231.75   5
   2   3   0 32643.9 1306.32   7
  -2  -3   0 31276.9 1297.86   7
   2   3   1 1445.57 194.435   2
  -2  -3  -1 1581.13 264.301   7
  -2  -3  -1 1385.02 228.198   5
  -2  -3  -1 1308.77 188.239   2
  -2  -3  -1 1652.51 267.680   3
   2   3   1 1492.35 232.680   5
   2   3   1 1858.92 323.077   7
   2   3   2 58432.1 1524.89   2
   2   3   2 58324.5 1603.56   5
   2   3   2 55514.2 1453.71   4
  -2  -3  -2 57333.1 1818.28   3
   2   3   2 59057.8 1972.42   7
  -2  -3  -3 52531.5 1376.29   8
   2   3   3 52028.8 1423.75   5
   2   3   3 51297.5 1370.82   4
   2   3   3 57565.7 1929.47   7
  -2  -3  -3 55905.3 1826.18   3
  -2  -3  -3 54470.1 1460.17   4
  -2  -3  -3 52888.6 1734.33   1
   2   3   3 52698.6 1424.91   2
   2   3   4 110396. 2480.27   4
  -2  -3  -4 107705. 2652.17   8
  -2  -3  -4 113540. 2599.97   4
   2   3   4 114226. 3073.90   7
  -2  -3  -4 108932. 2775.72   1
  -2  -3  -5 289.969 131.843   4
   2   3   5 107.998 50.6727   4
  -2  -3  -5 254.850 126.685   1
  -2  -3  -5 180.690 112.474   8
  -2  -3  -6 86252.5 2337.87   4
  -2  -3  -6 86405.2 2605.36   8
   2   3   7 2675.87 443.632   7
  -2  -3  -7 1941.36 301.272   4
   2   3   7 2774.78 355.310   4
  -2  -3  -8 18201.3 1230.37   8
   2   3   8 16777.0 1118.98   7
   2   3   8 17907.9 1010.22   4
  -2  -3  -8 18072.2 1011.94   4
   2   3   9 828.839 283.223   7
  -2  -3  -9 1215.27 291.899   4
  -2  -3  -9 913.787 309.447   8
   2   3   9 891.634 236.012   4
   2   3  10 7511.65 732.495   6
   2   3  10 7335.18 729.565   4
  -2  -3 -10 7483.72 732.966   4
   2   3  10 6371.89 709.369   7
  -2  -3 -11 198.032 151.788   4
   2   3  11-22.4419 76.8852   6
   2   3  11 269.948 216.686   7
   2   3  12 7978.24 801.951   6
   2   3  12 7369.65 581.625   5
  -2  -3 -12 8055.69 840.857   4
   2   3  12 7938.26 849.197   7
   2   3  13 78.7445 171.622   7
  -2  -3 -13-9.08742 107.136   4
   2   3  14 3350.24 592.467   7
  -2  -3 -14 3984.38 652.277   4
   2   3  15 137.514 130.465   7
  -2  -3 -15-50.9922 165.701   4
   2   4 -11-187.113 177.929   4
  -2  -4  11-129.370 162.026   5
   2   4 -10 3555.58 630.570   4
  -2  -4  10 3805.94 735.051   5
  -2  -4  10 2506.50 661.608   2
  -2  -4   9 779.998 345.568   5
   2   4  -9 634.222 233.331   4
  -2  -4   9 688.374 342.101   2
  -2  -4   8 8154.95 1105.17   2
  -2  -4   8 7692.18 964.264   5
  -2  -4   8 9242.59 1007.94   7
   2   4  -8 8508.00 895.251   4
  -2  -4   7 2662.23 544.518   5
   2   4  -7 1695.96 358.644   4
   2   4  -7 1904.06 399.381   8
  -2  -4   7 2602.07 616.141   2
  -2  -4   7 2276.82 489.399   7
   2   4  -6 1556.30 335.029   8
   2   4  -6 1490.93 352.433   4
  -2  -4   6 1469.15 392.755   5
  -2  -4   6 910.508 333.445   2
  -2  -4   6 1840.95 441.527   8
   2   4  -5 309.362 63.0271   6
   2   4  -5 329.330 186.068   4
  -2  -4   5 538.801 265.072   8
   2   4  -5 172.396 106.782   8
   2   4  -5 153.452 86.1586   7
  -2  -4   5 381.347 238.498   2
  -2  -4   5 35.1832 145.286   5
   2   4  -4 5858.74 350.536   6
  -2  -4   4 6908.83 744.041   5
  -2  -4   4 6505.42 697.189   8
   2   4  -4 6768.08 636.332   4
   2   4  -4 6471.37 574.039   7
  -2  -4   4 6436.39 755.104   2
   2   4  -4 6046.51 555.288   8
   2   4  -3 113.685 92.0751   8
   2   4  -3 113.296 97.1774   4
  -2  -4   3 223.700 114.066   2
  -2  -4   3 415.764 207.459   8
   2   4  -3 234.600 161.916   7
   2   4  -2 84864.0 2480.92   7
  -2  -4   2 83669.3 2541.70   2
  -2  -4   2 84295.1 2713.76   5
   2   4  -2 83266.2 2154.13   8
  -2  -4   2 84283.4 2377.99   8
   2   4  -1 28208.4 945.471   8
  -2  -4   1 26710.0 1183.19   2
  -2  -4   1 28310.8 1343.56   5
  -2  -4   1 28089.2 1045.23   8
   2   4  -1 29802.8 1310.44   7
  -2  -4   1 28222.4 1381.95   7
  -2  -4   0 254532. 5190.34   2
  -2  -4   0 250604. 5747.56   7
  -2  -4   0 256718. 5539.36   5
   2   4   0 269094. 5538.72   3
   2   4   0 257022. 4699.18   8
  -2  -4   0 262285. 4779.66   8
   2   4   0 254235. 5646.90   7
  -2  -4  -1 17442.0 742.635   2
   2   4   1 17909.1 770.964   2
  -2  -4  -1 18948.8 1006.47   3
   2   4   1 16251.6 899.119   3
   2   4   1 20829.5 1130.67   7
  -2  -4  -1 18139.8 919.594   5
  -2  -4  -1 18840.4 535.066   8
   2   4   2 10530.8 535.822   2
   2   4   2 9840.38 666.752   3
  -2  -4  -2 10447.4 642.776   5
   2   4   2 11153.5 618.904   5
  -2  -4  -2 10101.4 722.210   3
   2   4   2 10350.6 612.739   4
  -2  -4  -2 9999.23 492.466   2
   2   4   2 11615.9 865.442   7
  -2  -4  -2 10632.2 398.096   8
   2   4   3 3148.67 270.909   2
   2   4   3 3411.03 301.567   5
   2   4   3 2990.19 309.428   4
  -2  -4  -3 3700.66 437.958   3
   2   4   3 3622.52 504.715   7
  -2  -4  -4 17444.2 864.197   8
   2   4   4 19302.8 706.965   5
  -2  -4  -4 20387.8 961.271   4
  -2  -4  -4 21822.8 1161.38   3
   2   4   4 19600.2 859.293   4
   2   4   4 20812.2 1205.43   7
   2   4   4 18444.1 731.849   2
   2   4   5 435.145 218.716   7
  -2  -4  -5 426.931 168.137   7
   2   4   5 580.199 157.832   4
  -2  -4  -5 379.427 155.636   8
  -2  -4  -5 153.901 96.8534   1
   2   4   5 374.177 80.0916   5
  -2  -4  -5 303.910 110.525   4
  -2  -4  -6 9467.48 658.402   1
   2   4   6 9620.54 371.382   5
  -2  -4  -6 9838.90 720.711   4
   2   4   6 10179.4 871.877   7
   2   4   6 8449.54 607.925   4
  -2  -4  -6 9097.30 758.429   8
  -2  -4  -7 1053.99 256.020   4
   2   4   7 1708.40 383.687   7
   2   4   7 1397.53 119.978   5
  -2  -4  -7 1707.35 268.409   1
   2   4   7 1996.80 306.710   4
  -2  -4  -8 20602.1 1162.92   4
   2   4   8 19802.2 1305.86   7
  -2  -4  -8 20078.0 1333.81   8
   2   4   8 20629.4 1109.31   4
   2   4   9 4110.41 617.330   7
  -2  -4  -9 4036.95 606.821   8
   2   4   9 3552.04 221.619   5
  -2  -4  -9 3895.13 520.598   4
   2   4   9 3992.28 513.864   4
   2   4  10 14699.3 561.334   5
   2   4  10 16512.7 1115.93   4
   2   4  10 15192.2 1166.85   7
  -2  -4 -10 15164.3 1090.74   4
   2   4  11 732.191 307.207   7
   2   4  11 542.263 113.776   5
  -2  -4 -11 658.010 256.140   4
   2   4  12 6596.79 800.170   7
  -2  -4 -12 7930.81 863.813   4
   2   4  13 409.701 231.263   7
  -2  -4 -13 22.0657 155.085   4
   2   4  14 921.956 314.999   7
  -2  -4 -14 811.874 299.836   4
  -2  -4 -15-5.12016 140.348   4
   2   4  15 234.668 207.879   7
   2   5 -10 1431.02 410.594   4
  -2  -5  10 1308.41 473.654   5
  -2  -5  10 1545.41 585.641   2
   2   5  -9 67.8496 149.782   4
  -2  -5   9 441.806 297.372   5
  -2  -5   9-3.86680 200.754   2
  -2  -5   8 3856.96 804.864   2
   2   5  -8 2834.43 522.722   4
  -2  -5   8 3468.22 666.215   5
   2   5  -7 35.4563 90.6262   4
  -2  -5   7 82.2116 193.265   5
  -2  -5   7 501.772 331.531   2
  -2  -5   7 377.729 280.748   8
  -2  -5   7 54.2972 152.253   7
  -2  -5   6 9347.46 1015.63   8
  -2  -5   6 8501.11 1101.17   2
  -2  -5   6 8400.14 969.720   5
   2   5  -6 8143.61 795.886   8
   2   5  -6 8288.55 839.494   4
  -2  -5   6 8100.87 1025.34   7
   2   5  -5 121.499 50.1744   6
   2   5  -5 94.4400 133.261   4
  -2  -5   5 223.275 182.077   5
  -2  -5   5 59.0822 222.358   2
  -2  -5   5 404.674 230.988   8
  -2  -5   5 53.3175 148.467   7
   2   5  -5 201.263 151.412   7
   2   5  -5 121.646 98.4723   8
   2   5  -4 9706.37 836.161   3
  -2  -5   4 8669.89 949.708   2
  -2  -5   4 8265.76 902.673   5
   2   5  -4 9160.09 744.459   7
  -2  -5   4 9347.56 979.119   7
   2   5  -4 8702.91 797.837   4
  -2  -5   4 8099.85 796.726   8
   2   5  -4 9847.97 752.931   8
  -2  -5   3 4571.96 643.073   5
   2   5  -3 5058.02 577.355   3
   2   5  -3 5642.97 528.685   8
  -2  -5   3 6068.17 626.757   8
   2   5  -3 6095.60 609.858   7
  -2  -5   3 5784.10 717.141   7
  -2  -5   3 5122.26 654.059   2
  -2  -5   2 71904.0 2206.62   8
   2   5  -2 72233.1 2057.17   8
  -2  -5   2 68368.2 2368.49   2
  -2  -5   2 74430.3 2669.83   5
   2   5  -2 75295.4 2439.73   7
  -2  -5   2 72465.2 2680.74   7
   2   5  -2 69532.1 2374.40   3
  -2  -5   1 1604.86 288.201   2
  -2  -5   1 1561.65 244.241   8
  -2  -5   1 1274.20 317.519   5
   2   5  -1 1278.76 197.021   8
   2   5  -1 1521.92 321.675   7
  -2  -5   1 1444.61 329.703   7
  -2  -5   0 19622.4 922.900   2
  -2  -5   0 20436.5 792.170   8
  -2  -5   0 21249.2 1286.93   7
  -2  -5   0 18984.3 1119.01   5
   2   5   0 21412.4 1217.24   7
  -2  -5  -1 2617.41 288.106   2
  -2  -5  -1 3201.63 255.754   8
  -2  -5  -1 2987.25 409.926   3
  -2  -5  -1 2797.28 373.643   5
   2   5   1 3000.26 469.221   7
   2   5   2 127330. 3574.27   7
  -2  -5  -2 119288. 2496.26   8
   2   5   2 115915. 2548.85   2
  -2  -5  -2 113720. 2945.88   5
  -2  -5  -2 116070. 3230.58   3
   2   5   2 117530. 2985.89   4
  -2  -5  -2 120513. 2500.58   2
   2   5   3 5058.13 325.373   2
  -2  -5  -3 5002.67 559.023   3
  -2  -5  -3 5569.62 460.405   5
   2   5   3 5672.64 494.080   4
   2   5   3 6067.82 691.510   7
  -2  -5  -4 2520.02 403.195   3
   2   5   4 2938.86 253.453   2
   2   5   4 2212.69 298.096   4
   2   5   4 2710.95 460.396   7
   2   5   5-0.91541 86.1519   4
  -2  -5  -5 122.113 113.093   7
  -2  -5  -5 240.695 138.098   8
   2   5   5 55.4391 33.7871   2
  -2  -5  -5 108.028 110.632   4
  -2  -5  -5-25.6728 124.679   3
   2   5   5-185.110 167.280   7
  -2  -5  -6 47191.3 1738.40   1
  -2  -5  -6 40202.6 1766.65   8
   2   5   6 42064.0 1577.78   4
  -2  -5  -6 43866.9 1800.43   4
   2   5   6 47940.0 2181.76   7
  -2  -5  -6 47666.0 1996.48   7
   2   5   7 1635.26 408.824   7
   2   5   7 1391.32 256.961   4
  -2  -5  -7 1620.38 337.981   4
  -2  -5  -7 1649.41 285.383   1
   2   5   8 38367.8 2002.61   7
  -2  -5  -8 39845.0 1429.96   1
  -2  -5  -8 38109.8 1774.16   4
   2   5   8 38294.1 1607.12   4
  -2  -5  -8 34939.1 1858.08   8
  -2  -5  -9 5569.79 752.870   8
   2   5   9 5993.75 748.658   7
  -2  -5  -9 6170.43 718.255   4
   2   5   9 5746.08 623.077   4
  -2  -5 -10 3267.60 536.534   4
   2   5  10 2429.37 515.446   7
   2   5  11-11.9673 151.202   7
  -2  -5 -11 321.121 281.220   4
  -2  -5 -12 1801.89 426.573   4
   2   5  12 1173.21 362.883   7
   2   5  13 397.322 233.448   7
  -2  -5 -13 191.495 225.860   4
   2   5  14 2018.10 491.296   7
  -2  -5 -14 2061.11 502.881   4
  -2  -5 -15 475.621 261.670   4
   2   5  15-143.120 193.958   7
  -2  -6  10 2165.11 725.228   2
   2   6  -9 302.833 256.312   4
  -2  -6   9-156.423 147.027   5
  -2  -6   9 79.5255 277.713   2
   2   6  -8 2419.72 501.778   4
  -2  -6   8 2967.94 842.726   2
  -2  -6   8 2960.38 604.558   5
  -2  -6   8 2499.05 602.606   8
  -2  -6   7 956.892 351.963   5
   2   6  -7 787.141 273.124   4
  -2  -6   7 1892.94 497.003   8
  -2  -6   7 1062.12 492.663   2
   2   6  -6 6141.83 757.883   4
   2   6  -6 6601.51 345.170   6
  -2  -6   6 6634.56 908.042   5
  -2  -6   6 4417.60 887.902   2
   2   6  -6 6301.53 684.010   7
  -2  -6   6 5747.89 809.339   8
  -2  -6   5 297.192 221.814   5
  -2  -6   5 412.048 253.980   8
  -2  -6   5 207.235 251.899   2
   2   6  -5 427.730 196.762   8
   2   6  -5 255.231 165.343   7
   2   6  -5 102.452 100.315   4
  -2  -6   5 275.665 193.113   7
  -2  -6   4 11372.0 1167.44   2
  -2  -6   4 13275.8 1231.69   5
   2   6  -4 12686.8 1013.99   3
   2   6  -4 12650.4 922.416   8
  -2  -6   4 13067.3 1057.43   8
   2   6  -4 14610.5 1037.25   7
  -2  -6   4 13541.7 1338.68   7
   2   6  -4 14400.1 1102.82   4
  -2  -6   3 62.0064 168.469   5
  -2  -6   3 294.015 172.326   2
   2   6  -3 94.1463 109.049   3
   2   6  -3 48.0042 83.3457   8
   2   6  -3 102.426 148.736   7
  -2  -6   3-310.145 202.596   8
  -2  -6   3-146.113 174.801   7
   2   6  -2-114.851 186.624   7
  -2  -6   2 126.200 165.299   2
  -2  -6   2 318.519 148.374   8
   2   6  -2 73.4825 80.6335   8
   2   6  -2 525.986 193.708   3
  -2  -6   2 130.516 163.719   5
  -2  -6   2 374.594 185.265   7
  -2  -6   1 808.374 207.208   2
   2   6  -1 1527.80 392.914   7
  -2  -6   1 1354.61 362.610   7
  -2  -6   1 1023.22 208.057   8
  -2  -6   1 1208.89 339.058   5
   2   6  -1 1084.92 205.863   8
   2   6  -1 993.059 242.595   3
  -2  -6   0 80047.7 2212.52   2
   2   6   0 77385.7 2489.61   3
  -2  -6   0 75952.0 2688.30   5
   2   6   0 79107.0 2792.98   7
  -2  -6   0 80451.2 2090.45   8
  -2  -6   0 80359.0 3015.47   7
  -2  -6  -1 336.449 235.435   7
  -2  -6  -1-110.027 112.408   5
  -2  -6  -1 286.952 168.395   3
  -2  -6  -1 39.9016 54.6917   8
   2   6   1-83.7704 116.656   4
  -2  -6  -1-24.9023 54.7504   2
   2   6   1-73.6800 119.143   3
   2   6   1 62.6614 190.424   7
  -2  -6  -2 22363.3 748.423   2
  -2  -6  -2 21085.0 1090.29   5
  -2  -6  -2 22601.5 900.380   8
   2   6   2 21194.8 1140.75   4
  -2  -6  -2 21612.1 1250.63   3
  -2  -6  -2 21350.4 1392.80   7
   2   6   2 23890.9 1450.48   7
  -2  -6  -3 332.463 192.850   7
  -2  -6  -3 323.951 146.003   5
  -2  -6  -3 238.152 90.9702   8
  -2  -6  -3 34.4480 136.242   3
   2   6   3 331.567 134.878   4
   2   6   3-3.54673 198.328   7
   2   6   4 29899.9 757.779   2
   2   6   4 28539.8 1301.74   4
  -2  -6  -4 30841.1 1576.88   3
   2   6   4 30445.9 1716.89   7
  -2  -6  -4 32053.5 1679.50   7
   2   6   5 0.55506 64.3039   4
  -2  -6  -5 44.1047 129.872   7
   2   6   5 81.9081 137.699   7
  -2  -6  -5-152.331 148.486   3
   2   6   5 108.593 59.6731   2
   2   6   6 78021.6 1900.16   2
  -2  -6  -6 85435.8 2925.76   4
   2   6   6 93556.2 3315.43   7
  -2  -6  -6 75526.5 2918.82   3
   2   6   6 91234.6 2586.46   4
  -2  -6  -6 95352.7 3110.44   7
  -2  -6  -7 987.328 294.043   7
   2   6   7 908.777 237.241   4
  -2  -6  -7 438.610 171.603   1
  -2  -6  -7 1285.89 347.996   4
   2   6   7 1215.76 432.001   7
  -2  -6  -8 5357.74 552.060   1
  -2  -6  -8 5370.11 681.618   4
  -2  -6  -8 5810.67 726.515   8
   2   6   8 6069.93 809.888   7
   2   6   8 5746.25 619.947   4
  -2  -6  -9 1304.71 361.541   8
  -2  -6  -9 1647.70 381.179   4
   2   6   9 2244.34 403.557   4
  -2  -6  -9 1648.37 286.846   1
   2   6   9 1517.20 413.752   7
   2   6  10 2272.75 507.629   7
  -2  -6 -10 3113.46 548.901   4
  -2  -6 -11 875.690 296.054   4
   2   6  11 971.611 374.073   7
   2   6  12 2299.47 541.091   7
  -2  -6 -12 2308.91 511.878   4
  -2  -6 -13 45.6734 145.434   4
   2   6  13-203.799 192.684   7
  -2  -6 -14 1322.57 419.255   4
   2   6  14 932.851 330.465   7
  -2  -6 -15 75.2752 126.620   4
  -2  -7   9 80.5299 143.219   2
  -2  -7   8 2569.63 807.675   2
   2   7  -8 1134.42 380.673   4
  -2  -7   8 1425.93 460.979   8
  -2  -7   8 939.313 454.454   5
  -2  -7   7 1883.39 541.877   5
   2   7  -7 1977.98 470.365   4
  -2  -7   7 1892.25 671.671   2
  -2  -7   7 1609.93 478.090   8
  -2  -7   6 2390.20 667.353   2
  -2  -7   6 4656.00 803.662   5
  -2  -7   6 4197.00 713.024   8
   2   7  -6 4725.48 640.835   7
   2   7  -6 5005.41 717.416   4
   2   7  -5 741.686 226.670   8
  -2  -7   5 426.877 262.184   8
   2   7  -5 294.688 210.321   4
  -2  -7   5 156.113 133.695   2
   2   7  -5 600.403 221.413   7
  -2  -7   5 491.726 295.233   5
   2   7  -4 4590.22 576.380   8
  -2  -7   4 4270.25 766.952   2
  -2  -7   4 4804.95 656.124   8
  -2  -7   4 4351.53 765.248   5
   2   7  -4 4631.86 630.789   7
   2   7  -3 268.018 150.098   8
   2   7  -3 124.962 160.696   7
  -2  -7   3 183.624 234.712   5
  -2  -7   3 245.485 187.923   2
  -2  -7   3 295.827 137.739   8
   2   7  -3 385.400 186.257   3
   2   7  -2 7956.15 650.270   8
  -2  -7   2 7492.14 746.821   2
  -2  -7   2 8168.60 1006.80   5
   2   7  -2 9108.60 820.466   3
  -2  -7   2 8522.24 721.135   8
   2   7  -2 8640.27 889.966   7
   2   7  -1 774.722 208.971   3
  -2  -7   1 1010.70 245.983   2
  -2  -7   1 839.420 211.530   8
  -2  -7   1 601.701 276.563   5
   2   7  -1 1302.01 386.397   7
   2   7   0 8739.64 902.021   7
   2   7   0 9090.33 768.244   3
  -2  -7   0 8797.36 631.635   8
  -2  -7   0 8187.36 864.522   5
  -2  -7   0 9387.75 651.926   2
  -2  -7  -1 797.296 269.107   5
  -2  -7  -1 268.094 123.161   3
  -2  -7  -1 312.249 115.841   8
   2   7   1 542.217 283.647   7
  -2  -7  -1 715.424 153.767   2
   2   7   1 318.814 170.864   4
   2   7   1 511.815 182.406   3
  -2  -7  -2 19118.0 1138.20   5
  -2  -7  -2 18329.0 1215.72   3
  -2  -7  -2 20873.2 957.905   8
   2   7   2 19993.9 1197.11   4
   2   7   2 22747.1 1491.50   7
  -2  -7  -2 19989.0 666.608   2
  -2  -7  -3 1355.50 284.393   5
  -2  -7  -3 1820.36 280.763   8
   2   7   3 1245.58 351.549   7
  -2  -7  -3 1310.66 297.691   3
   2   7   3 1299.78 278.432   4
  -2  -7  -4 34786.6 1779.43   3
  -2  -7  -4 34968.7 1320.12   5
   2   7   4 35420.3 1974.33   7
   2   7   4 33309.5 1546.66   4
   2   7   5 4188.27 508.324   4
  -2  -7  -5 3628.61 573.366   3
   2   7   5 3808.75 629.625   7
   2   7   6 455.558 186.533   4
   2   7   6 237.581 220.666   7
  -2  -7  -6 522.040 255.507   3
   2   7   7 4833.75 562.000   4
   2   7   7 4369.17 257.866   2
  -2  -7  -7 3357.24 541.245   8
   2   7   7 5319.42 803.449   7
  -2  -7  -7 4600.66 580.775   1
  -2  -7  -7 3655.17 628.970   3
  -2  -7  -7 4910.73 695.542   4
  -2  -7  -8 19460.9 1393.78   8
  -2  -7  -8 20661.3 1590.19   3
  -2  -7  -8 24448.8 1602.27   4
   2   7   8 21952.8 1640.72   7
  -2  -7  -8 20560.3 1191.98   1
   2   7   8 20822.0 808.914   2
  -2  -7  -9-119.227 132.657   1
  -2  -7  -9-185.215 203.077   8
  -2  -7  -9 141.718 181.207   4
   2   7   9 216.708 229.854   7
  -2  -7 -10 6455.69 857.207   4
  -2  -7 -10 6488.74 560.962   1
   2   7  10 6355.11 884.953   7
   2   7  11 651.416 310.882   7
  -2  -7 -11 249.954 149.834   4
  -2  -7 -12 1706.51 446.615   4
   2   7  12 3196.52 637.895   7
  -2  -7 -13-192.775 215.754   4
   2   7  13 197.792 191.355   7
  -2  -7 -14 1261.67 415.920   4
   2   7  14 928.036 380.148   7
  -2  -8   8 79.5274 323.370   2
  -2  -8   8 259.882 246.881   8
   2   8  -7 741.036 305.122   4
  -2  -8   7 13.2998 192.916   2
  -2  -8   7 4.42726 107.459   8
  -2  -8   7 252.046 302.847   5
   2   8  -6 1406.87 414.313   4
  -2  -8   6 1329.70 526.154   2
  -2  -8   6 1964.95 614.893   5
  -2  -8   6 877.816 346.705   8
  -2  -8   5 1361.83 487.483   5
  -2  -8   5 493.904 295.168   2
   2   8  -5 503.986 263.799   4
  -2  -8   5 813.204 305.127   8
   2   8  -5 1580.03 407.751   7
  -2  -8   4 4920.67 801.805   2
  -2  -8   4 6640.98 1070.93   5
   2   8  -4 6187.99 780.131   7
  -2  -8   4 4634.65 669.766   8
  -2  -8   3 500.129 284.502   2
  -2  -8   3 735.607 249.052   8
  -2  -8   3 514.888 289.049   5
   2   8  -3 615.206 279.070   7
   2   8  -3 384.450 163.953   8
  -2  -8   2 6062.22 678.858   2
  -2  -8   2 6310.81 969.136   5
   2   8  -2 6346.08 709.358   3
  -2  -8   2 6257.10 655.141   8
   2   8  -2 7682.60 897.075   7
  -2  -8   1 3928.80 723.438   5
  -2  -8   1 4721.74 519.954   2
  -2  -8   1 4830.63 536.136   8
   2   8  -1 5263.68 628.043   3
   2   8  -1 5062.03 723.085   7
  -2  -8   0 3124.84 369.360   2
  -2  -8   0 3123.39 395.347   8
  -2  -8   0 3086.31 592.727   5
   2   8   0 2715.28 441.076   3
   2   8   0 3949.97 665.710   7
  -2  -8  -1 4335.82 468.218   8
  -2  -8  -1 4245.92 361.819   2
  -2  -8  -1 4150.96 632.900   5
   2   8   1 4811.21 737.176   7
  -2  -8  -2 25063.0 1187.95   8
  -2  -8  -2 23402.5 1385.92   5
  -2  -8  -2 24445.9 1463.41   3
   2   8   2 26166.8 1711.86   7
  -2  -8  -3 478.452 205.414   5
  -2  -8  -3 437.578 163.864   8
   2   8   3 439.946 237.518   7
  -2  -8  -3 475.568 228.188   3
  -2  -8  -4 1168.33 255.314   5
  -2  -8  -4 1774.20 320.424   8
  -2  -8  -4 1602.97 396.462   3
   2   8   4 1506.39 393.071   7
  -2  -8  -5 57.5522 138.710   3
   2   8   5 56.7039 167.594   7
   2   8   6 13222.8 1244.02   7
  -2  -8  -6 10588.9 1073.91   3
  -2  -8  -7 2312.39 522.952   3
   2   8   7 2025.38 531.139   7
  -2  -8  -8 6774.62 828.223   8
  -2  -8  -8 8656.58 1024.35   4
  -2  -8  -8 8778.47 1072.46   3
   2   8   8 10150.1 1127.41   7
  -2  -8  -8 8592.89 818.320   1
  -2  -8  -9 372.806 237.826   4
  -2  -8  -9 108.767 163.986   3
   2   8   9 261.272 237.184   7
  -2  -8  -9 19.0104 79.6515   1
  -2  -8 -10 3383.31 451.662   1
  -2  -8 -10 3245.06 693.843   3
  -2  -8 -10 2525.45 573.907   4
   2   8  10 2834.64 617.480   7
  -2  -8 -11 107.495 168.603   4
   2   8  11 39.4854 136.976   7
  -2  -8 -12 1790.51 513.386   4
   2   8  12 1749.58 497.061   7
  -2  -8 -13-130.213 226.782   4
   2   8  13 63.2136 162.149   7
  -2  -8 -14 690.535 277.906   4
   2   8  14 574.863 316.184   7
  -2  -9   7-39.8119 289.022   2
  -2  -9   6 66.5455 142.288   2
   2   9  -5 249.963 224.015   7
  -2  -9   5 697.866 316.440   2
   2   9  -5 596.763 294.952   4
  -2  -9   5 530.610 398.700   5
  -2  -9   5 27.2366 133.320   8
  -2  -9   4 3214.22 649.683   2
  -2  -9   4 1783.25 676.285   5
  -2  -9   4 1795.54 434.427   8
   2   9  -4 2773.52 554.837   7
  -2  -9   3 148.023 165.729   2
  -2  -9   3-55.8963 171.159   5
  -2  -9   3 108.134 83.2336   8
   2   9  -3 293.712 270.043   7
  -2  -9   2 2677.79 455.178   2
  -2  -9   2 3147.08 488.828   8
  -2  -9   2 3101.95 750.879   5
   2   9  -2 4320.88 707.508   7
  -2  -9   1 1914.18 564.154   5
  -2  -9   1 1877.90 353.819   8
   2   9  -1 2920.73 589.946   7
  -2  -9   1 1642.03 304.612   2
  -2  -9   0 8967.08 634.887   2
  -2  -9   0 8834.60 1118.09   5
   2   9   0 8143.87 786.253   3
  -2  -9   0 8474.16 723.549   8
   2   9   0 9939.15 1083.81   7
  -2  -9  -1 202.167 137.105   8
  -2  -9  -1 312.310 223.781   5
   2   9   1 783.925 367.112   7
  -2  -9  -1 401.896 106.808   2
  -2  -9  -2 1452.02 302.041   8
  -2  -9  -2 1493.43 375.122   5
   2   9   2 1131.61 439.217   7
  -2  -9  -3 1330.66 333.729   5
  -2  -9  -3 1771.52 422.274   3
  -2  -9  -3 1570.52 310.532   8
   2   9   3 1989.24 544.493   7
  -2  -9  -4 11711.5 841.929   5
  -2  -9  -4 10192.2 1024.67   3
  -2  -9  -4 11493.2 877.932   8
   2   9   4 11806.1 1225.23   7
  -2  -9  -5 1199.31 239.966   5
  -2  -9  -5 1149.68 283.480   8
  -2  -9  -5 1149.54 367.253   3
   2   9   5 1299.92 421.435   7
   2   9   6 1552.25 442.948   7
  -2  -9  -6 1437.33 425.469   3
   2   9   7 918.761 342.003   7
  -2  -9  -7 995.157 361.230   3
  -2  -9  -8 2626.86 601.727   3
   2   9   8 2597.23 606.374   7
  -2  -9  -9-16.4063 82.7558   1
  -2  -9  -9 20.5214 175.129   3
  -2  -9  -9-346.458 235.873   4
   2   9   9 105.055 190.305   7
  -2  -9 -10 981.900 382.339   4
  -2  -9 -10 2094.63 579.360   3
   2   9  10 1768.59 501.025   7
  -2  -9 -11 84.7520 103.364   4
  -2  -9 -11 307.357 126.894   3
   2   9  11 63.5109 222.464   7
  -2  -9 -12-54.1210 269.753   3
   2   9  12 279.728 270.038   7
  -2  -9 -12-11.5039 124.488   4
   2   9  13 217.987 219.729   7
  -2  -9 -13 147.762 173.282   4
   2  10  -5-242.365 206.895   7
  -2 -10   4 1509.29 592.014   5
   2  10  -4 1160.67 400.812   7
  -2 -10   3 66.6523 151.691   5
   2  10  -3-82.4633 200.324   7
  -2 -10   2 2067.65 696.753   5
   2  10  -2 2976.33 636.191   7
   2  10  -1 311.250 249.253   7
  -2 -10   1-204.199 269.818   5
  -2 -10   0 815.237 226.995   8
   2  10   0 798.319 387.527   7
  -2 -10   0 698.911 360.257   5
  -2 -10  -1 3619.53 696.993   5
   2  10   1 5057.76 853.074   7
  -2 -10  -1 4041.82 518.594   8
  -2 -10  -2 9883.41 1027.61   5
  -2 -10  -2 10529.1 854.891   8
   2  10   2 10167.5 1209.49   7
  -2 -10  -3 644.191 230.787   5
  -2 -10  -3 475.233 184.486   8
  -2 -10  -3 920.196 327.137   3
   2  10   3 967.976 408.065   7
  -2 -10  -4 4562.28 717.209   3
  -2 -10  -4 4146.79 533.211   5
  -2 -10  -4 4285.60 572.255   8
   2  10   4 5310.93 863.003   7
   2  10   5 155.496 243.169   7
  -2 -10  -5 197.959 143.905   8
  -2 -10  -5 101.874 102.149   3
  -2 -10  -6 1283.12 334.641   8
  -2 -10  -6 549.186 280.994   3
   2  10   6 745.465 336.408   7
  -2 -10  -7 17.5859 98.6367   8
  -2 -10  -7 117.180 170.779   3
   2  10   7-205.630 189.411   7
  -2 -10  -8 2140.47 559.901   3
   2  10   8 3268.76 717.927   7
  -2 -10  -9 308.621 232.338   1
  -2 -10  -9 102.292 176.423   3
   2  10   9-7.87123 165.541   7
  -2 -10 -10 750.000 415.898   3
   2  10  10 471.158 277.934   7
  -2 -10 -11-120.182 133.701   4
  -2 -10 -11 365.210 285.579   3
   2  10  11 105.893 235.236   7
  -2 -10 -12-14.9485 131.195   4
   2  10  12-273.615 255.805   7
  -2 -11   2 593.077 345.439   5
  -2 -11   1 12.5604 136.753   5
   2  11  -1 88.9524 202.856   7
   2  11   0 1709.68 541.692   7
  -2 -11   0 1408.70 512.471   5
  -2 -11  -1 406.027 271.802   5
   2  11   1-186.718 186.512   7
  -2 -11  -2 1718.42 482.771   5
   2  11   2 3153.70 684.059   7
  -2 -11  -3 285.225 162.521   5
   2  11   3 489.557 338.873   7
   2  11   4 2300.83 607.970   7
  -2 -11  -4 2002.39 486.487   3
  -2 -11  -5 115.479 151.457   3
   2  11   5-114.191 228.687   7
   2  11   6 2555.66 641.672   7
  -2 -11  -6 2145.89 529.848   3
  -2 -11  -7 218.324 138.899   3
   2  11   7 225.793 219.653   7
  -2 -11  -8 1584.19 544.226   3
   2  11   8 1427.33 517.819   7
  -2 -11  -9 171.515 234.934   3
  -2 -11 -10 1211.13 433.618   3
  -2 -12   1-179.748 228.685   5
  -2 -12   0 633.753 387.609   5
  -3  11   6-236.048 271.095   7
  -3  11   5 505.230 267.907   7
  -3  11   4-40.1243 187.040   7
  -3  10   7 123.895 142.744   7
   3 -10  -6-36.0213 166.410   8
  -3  10   6-145.035 211.731   7
   3 -10  -5 1423.51 510.232   8
  -3  10   5 2551.66 556.231   7
   3 -10  -4-11.2343 122.700   8
  -3  10   4-435.934 277.567   7
   3 -10  -3 1354.91 476.950   8
  -3  10   3 947.785 379.048   7
  -3  10   2 510.028 318.774   6
   3 -10  -2-248.564 259.432   8
  -3  10   1 3320.70 635.672   6
   3 -10  -1 3575.02 768.373   8
  -3  10   0 92.9061 105.446   6
   3 -10   0-121.046 191.062   8
  -3  10  -1 3052.82 611.152   6
   3 -10   1 2231.32 604.992   8
  -3  10  -2-3.85230 141.780   6
   3 -10   2-55.0775 193.604   8
  -3  10  -3 748.003 302.213   6
   3 -10   3 1714.55 522.338   8
  -3  10  -4-156.259 176.625   6
  -3  10  -5-41.4028 194.472   6
  -3   9   7 1292.02 329.987   7
   3  -9  -7 2670.51 747.360   4
  -3   9   6-300.182 212.979   7
   3  -9  -6 269.845 313.585   4
  -3   9   5 2499.99 496.106   7
   3  -9  -5 3905.38 799.568   8
   3  -9  -4 870.769 437.182   8
  -3   9   4 748.389 282.092   7
   3  -9  -3 7684.12 1079.17   8
  -3   9   3 7662.80 919.363   7
  -3   9   2 699.114 313.358   6
  -3   9   2-19.3294 253.105   7
   3  -9  -2 25.3420 189.643   8
  -3   9   1 7997.94 946.913   6
   3  -9  -1 7477.51 1060.06   8
  -3   9   0 293.247 244.731   6
   3  -9   0-211.223 251.752   8
   3  -9   1 7052.57 1010.19   8
  -3   9  -1 5701.11 794.380   6
  -3   9  -2 5.71792 88.9865   6
   3  -9   2 62.7514 123.910   8
  -3   9  -3 1722.06 430.016   6
   3  -9   3 2049.06 571.854   8
  -3   9  -4 55.4894 87.5059   6
   3  -9   4 193.023 277.518   8
   3  -9   5 3649.80 743.882   8
  -3   9  -5 3908.07 648.641   6
  -3   9  -6-11.6831 109.912   6
   3  -9   6-115.304 253.855   8
   3  -8  -9 2378.14 654.948   4
  -3   8   8-266.381 180.808   7
   3  -8  -8-20.9046 195.411   4
  -3   8   7 2909.91 489.528   7
   3  -8  -7 3198.68 724.319   4
  -3   8   6-190.388 161.271   7
   3  -8  -6 252.640 193.448   4
   3  -8  -5 8185.31 1103.80   4
  -3   8   5 6950.11 812.137   7
   3  -8  -4 7.48256 162.611   8
  -3   8   4-233.153 206.782   7
   3  -8  -3 8904.79 587.145   3
   3  -8  -3 9412.13 1165.21   8
  -3   8   3 8860.22 950.233   7
   3  -8  -2 1460.21 454.338   8
  -3   8   2 1132.82 325.486   7
  -3   8   1 4031.93 644.124   6
   3  -8  -1 4180.78 738.186   8
  -3   8   0 277.793 252.463   6
   3  -8   0 94.6998 67.9068   2
  -3   8  -1 11844.6 1086.41   6
   3  -8   1 12091.3 1258.23   8
   3  -8   1 10812.8 813.954   2
  -3   8  -2 117.382 136.823   6
   3  -8   2 74.0525 85.5884   2
   3  -8   2-29.8327 154.624   8
  -3   8  -3 15848.2 1267.37   6
   3  -8   3 17064.0 1533.53   8
  -3   8  -4-7.24666 141.635   6
   3  -8   4-51.0361 179.411   8
  -3   8  -5 3475.52 588.741   6
   3  -8   5 3771.45 718.178   8
  -3   8  -6-76.0434 116.890   6
   3  -8   6-290.161 341.084   8
  -3   8  -7 5948.74 744.596   6
   3  -8   7 5711.06 959.081   8
  -3   7  12 237.721 150.753   6
   3  -7 -10-77.0880 254.278   4
  -3   7   9 2268.45 425.714   2
   3  -7  -9 2221.80 619.947   4
  -3   7   8 556.966 198.750   2
  -3   7   8 544.929 186.951   7
   3  -7  -8 893.300 311.314   4
  -3   7   7 2046.26 360.152   2
  -3   7   7 2257.19 413.328   7
   3  -7  -7 2785.56 630.875   4
  -3   7   6 1785.08 378.535   7
   3  -7  -6 831.727 374.719   4
   3  -7  -6 1364.87 343.168   7
   3  -7  -5 5986.71 885.002   4
   3  -7  -5 5092.98 677.245   7
  -3   7   5 6181.58 724.260   7
  -3   7   4 3171.60 511.863   7
   3  -7  -4 3510.03 687.118   4
   3  -7  -4 3036.58 534.229   7
   3  -7  -3 2926.95 612.359   8
  -3   7   3 2495.57 457.610   7
   3  -7  -2 390.786 99.6117   3
   3  -7  -2 540.498 288.566   8
  -3   7   2-9.87059 228.300   7
  -3   7   1 8132.64 882.118   6
   3  -7  -1 8428.77 980.057   8
  -3   7   0 56.4570 145.860   6
   3  -7   0-145.553 213.667   8
  -3   7  -1 23636.0 1482.27   6
   3  -7   1 26377.4 1776.42   8
   3  -7   1 24223.1 1220.06   2
  -3   7  -2 500.387 215.940   6
   3  -7   2 542.297 293.992   8
  -3   7  -3 9231.74 901.503   6
   3  -7   3 11061.2 1168.53   8
  -3   7  -4 259.529 110.513   6
   3  -7   4 499.183 286.742   8
   3  -7   5 8018.64 1002.93   8
  -3   7  -5 8076.80 848.401   6
  -3   7  -6 15.0857 127.970   6
   3  -7   6 94.9461 187.726   8
   3  -7   7 11749.3 1281.82   8
  -3   7  -7 11362.8 1004.11   6
  -3   7  -8 72.0962 103.424   6
   3  -7   8-217.535 232.003   8
  -3   7  -9 4226.89 753.002   4
   3  -7   9 5193.50 944.540   8
  -3   6  12 706.754 269.130   6
  -3   6  11 290.796 186.473   6
  -3   6  11-146.263 156.441   2
   3  -6 -11 177.327 219.470   4
  -3   6  10 151.746 110.958   2
   3  -6 -10 244.142 221.654   4
  -3   6   9 2651.97 478.478   2
   3  -6  -9 2892.29 689.343   4
  -3   6   8-112.665 135.656   2
  -3   6   8-27.8000 110.792   7
   3  -6  -8-146.884 205.026   4
   3  -6  -7 2032.86 342.468   7
  -3   6   7 1682.21 364.245   2
  -3   6   7 2381.54 389.700   7
   3  -6  -7 1746.26 470.548   4
   3  -6  -6 171.764 135.772   7
  -3   6   6 79.5604 109.004   2
   3  -6  -6 14.7904 148.652   4
  -3   6   6-98.7806 186.265   7
  -3   6   5 227.851 124.689   2
  -3   6   5-36.8067 172.568   7
   3  -6  -5 362.559 199.519   4
   3  -6  -5 493.810 206.403   7
   3  -6  -4 7731.76 949.145   4
  -3   6   4 7687.54 798.896   7
   3  -6  -4 6415.91 686.526   7
  -3   6   3 31445.3 1692.82   7
   3  -6  -3 26952.6 1736.54   4
   3  -6  -3 29077.0 1532.75   7
   3  -6  -2 1442.98 412.423   8
  -3   6   2 1350.73 316.625   7
   3  -6  -2 973.745 265.150   7
  -3   6   1 15205.0 1181.95   6
   3  -6  -1 15937.8 1304.34   8
   3  -6  -1 15989.8 498.659   3
   3  -6  -1 15314.1 1108.24   7
  -3   6   0 56.7284 148.071   6
   3  -6   0 159.837 191.046   8
   3  -6   0 168.075 117.574   7
  -3   6  -1 5669.71 678.575   6
   3  -6   1 7281.76 858.997   8
   3  -6   1 6721.59 597.693   2
  -3   6  -2 747.657 261.050   6
   3  -6   2 575.176 256.404   8
  -3   6  -3 6925.76 747.959   6
   3  -6   3 10061.3 1029.30   8
  -3   6  -4-139.042 189.715   6
   3  -6   4 483.098 252.348   8
  -3   6  -5 188.594 98.7675   6
   3  -6   5 207.070 138.577   8
  -3   6  -6 42.3948 66.6181   6
   3  -6   6-192.936 201.085   8
  -3   6  -7 4481.73 586.869   6
   3  -6   7 4847.50 787.191   8
  -3   6  -8 82.8439 112.827   6
   3  -6   8 144.633 230.796   8
  -3   6  -9 27057.2 1472.20   6
  -3   6  -9 29889.7 1915.56   4
  -3   6 -10 266.272 235.671   4
   3  -6  10 67.9079 202.795   8
  -3   5  13 541.129 288.901   2
  -3   5  12 49.9977 131.756   2
   3  -5 -11 2875.26 649.460   4
  -3   5  11 1752.63 401.992   6
  -3   5  11 1419.55 438.587   2
   3  -5 -10 206.326 249.855   4
  -3   5  10 98.5969 138.604   6
  -3   5  10-202.335 208.125   2
  -3   5   9 2819.26 514.113   2
   3  -5  -9 4508.60 753.022   4
   3  -5  -8-27.0918 106.928   5
   3  -5  -8-119.937 179.034   4
  -3   5   8 102.389 115.030   2
   3  -5  -7 2472.83 326.196   7
   3  -5  -7 2873.05 304.188   1
  -3   5   7 2785.18 455.857   2
  -3   5   7 2891.87 391.429   7
   3  -5  -7 2351.81 545.726   4
  -3   5   6 6384.28 668.770   2
   3  -5  -6 5786.30 542.494   7
  -3   5   6 6384.01 644.959   7
   3  -5  -6 5570.93 755.340   4
  -3   5   5 32889.0 1499.53   2
   3  -5  -5 34981.3 1535.80   2
   3  -5  -5 34032.5 1891.94   4
  -3   5   5 32501.8 1597.18   7
   3  -5  -5 33332.8 1459.13   7
  -3   5   4 1097.43 277.129   4
   3  -5  -4 1097.79 274.689   7
  -3   5   4 512.906 178.481   7
   3  -5  -4 651.702 260.823   4
  -3   5   4 778.424 213.156   2
   3  -5  -3 23766.4 1475.11   4
  -3   5   3 22257.1 1268.41   4
   3  -5  -3 22124.0 1193.58   7
  -3   5   2 1123.14 278.491   4
   3  -5  -2 662.702 225.352   4
  -3   5   2 1026.52 368.553   6
   3  -5  -2 577.636 162.759   7
  -3   5   1 4913.23 643.422   6
   3  -5  -1 4657.00 630.468   8
   3  -5  -1 4976.52 555.360   7
  -3   5   1 5149.35 575.882   4
  -3   5   0 771.863 280.000   6
   3  -5   0 931.854 283.716   8
   3  -5   0 774.657 231.447   7
  -3   5   0 831.682 236.448   4
  -3   5  -1 2158.11 386.739   6
  -3   5  -1 3040.91 454.333   4
   3  -5   1 2968.96 524.224   8
   3  -5   1 2967.58 462.433   7
  -3   5  -2-123.561 138.063   4
  -3   5  -2 2.89705 115.137   6
   3  -5   2-103.034 149.244   8
   3  -5   2-30.8417 103.385   7
   3  -5   3 32210.0 1815.82   8
  -3   5  -3 32032.3 1610.00   4
  -3   5  -3 33126.1 1597.57   6
   3  -5   4 43.7016 103.133   8
  -3   5  -4-249.398 191.531   6
   3  -5   5 1953.19 439.452   8
  -3   5  -5 1922.86 358.423   6
  -3   5  -6 2.90530 94.3668   6
   3  -5   6-53.5012 141.985   8
  -3   5  -7 3347.31 474.874   6
   3  -5   7 4312.06 707.258   8
   3  -5   8 90.4620 198.689   8
  -3   5  -8 207.211 140.730   6
  -3   5  -8-314.017 270.960   4
  -3   5  -9 1081.11 271.820   6
   3  -5   9 1547.54 494.693   8
  -3   5  -9 1120.65 352.911   4
  -3   5 -10 68.0474 102.012   4
   3  -5  10 30.8160 185.447   8
   3  -5  11 6433.28 1066.71   8
  -3   5 -11 5091.36 763.294   4
  -3   5 -12 367.504 222.131   4
  -3   4  13 2053.02 569.241   2
   3  -4 -12 441.807 308.593   4
  -3   4  12 229.395 210.392   2
   3  -4 -11 1302.12 451.799   4
  -3   4  11 576.805 305.037   2
  -3   4  11 816.952 266.390   6
  -3   4  10 165.379 191.092   2
   3  -4 -10 430.028 306.711   4
  -3   4  10 475.293 239.650   6
  -3   4   9 9360.82 978.024   2
  -3   4   9 8077.10 893.614   6
   3  -4  -9 8057.00 715.588   5
   3  -4  -9 10606.9 1127.57   4
  -3   4   8-60.1635 95.7612   2
   3  -4  -8 54.7718 84.1395   5
  -3   4   7 46069.1 2108.10   2
   3  -4  -7 43130.6 1732.71   5
   3  -4  -7 46738.3 1328.93   1
   3  -4  -6-162.954 197.693   4
   3  -4  -6 53.9067 90.5262   7
  -3   4   6 23.8863 110.475   2
   3  -4  -6 83.5757 81.0947   1
  -3   4   5 54.5887 122.215   2
  -3   4   5 321.848 161.152   4
   3  -4  -5 464.596 193.631   2
   3  -4  -5 285.668 130.938   7
   3  -4  -5 364.453 194.160   4
  -3   4   4 2604.77 427.710   4
  -3   4   4 1480.66 424.160   6
  -3   4   4 2343.16 378.348   2
   3  -4  -4 1847.10 289.434   7
   3  -4  -4 2073.08 406.837   4
  -3   4   3 19893.1 1068.81   2
   3  -4  -3 22451.0 1318.61   4
  -3   4   3 21133.5 1178.52   4
   3  -4  -3 20734.2 1026.74   7
  -3   4   2 2173.06 416.110   6
  -3   4   2 2895.59 406.866   4
   3  -4  -2 3039.41 390.165   7
   3  -4  -2 3141.67 471.733   4
   3  -4  -1 51689.4 1794.48   2
  -3   4   1 55042.1 2160.91   6
  -3   4   1 56093.0 1940.78   4
   3  -4  -1 54186.1 1848.56   7
   3  -4  -1 55040.0 2106.33   4
   3  -4   0 1495.95 148.257   3
  -3   4   0 1650.52 331.035   6
   3  -4   0 1167.61 285.618   8
   3  -4   0 1680.28 314.815   7
  -3   4   0 1367.85 267.137   4
  -3   4  -1 69998.2 2378.58   6
   3  -4   1 72179.8 2587.92   8
  -3   4  -1 69888.4 2268.30   4
   3  -4   1 73886.4 2339.26   7
  -3   4  -2 4357.73 515.452   6
   3  -4   2 4158.30 558.038   8
  -3   4  -2 3883.22 463.495   4
   3  -4   2 4248.30 516.122   7
  -3   4  -3 78428.0 2707.20   8
  -3   4  -3 80523.8 2574.61   6
   3  -4   3 84313.6 2874.56   8
   3  -4   3 85739.3 2698.98   7
  -3   4  -3 77207.4 2535.75   4
  -3   4  -4-14.1477 117.121   6
  -3   4  -4-29.7912 101.616   8
  -3   4  -4 29.8411 25.0592   3
   3  -4   4 58.6060 128.589   7
   3  -4   4-67.6914 143.723   8
  -3   4  -5 12920.1 914.938   6
   3  -4   5 13865.7 1118.14   8
  -3   4  -5 14588.5 605.875   3
  -3   4  -6 125.826 123.535   6
   3  -4   6 62.7702 129.966   8
   3  -4   7 5948.15 798.361   8
  -3   4  -7 5537.02 583.674   6
  -3   4  -8-58.6408 91.9094   6
   3  -4   8 59.3397 123.842   8
  -3   4  -8-157.085 183.483   4
  -3   4  -9 14557.6 973.941   6
   3  -4   9 16763.1 1479.25   8
  -3   4  -9 14337.2 1168.25   4
   3  -4  10-61.7341 141.868   8
  -3   4 -10 18.2161 93.7036   6
  -3   4 -10-149.671 167.175   4
  -3   4 -11 3263.48 587.284   4
   3  -4  11 2828.31 707.379   8
  -3   4 -12-23.6254 157.187   4
   3  -4  12 24.0437 153.631   8
  -3   3  13 1679.00 521.773   2
   3  -3 -12 117.926 204.225   4
  -3   3  12 514.995 298.088   2
   3  -3 -11 2737.47 604.744   4
  -3   3  11 3233.31 669.348   2
  -3   3  11 2895.00 455.168   6
   3  -3 -10 171.632 184.255   4
  -3   3  10 776.751 336.733   2
  -3   3  10 282.412 173.610   6
  -3   3   9 10023.2 939.898   6
  -3   3   9 11093.7 1088.46   2
   3  -3  -9 11115.6 1111.34   4
  -3   3   8 1615.66 425.083   2
   3  -3  -8 1346.98 309.089   5
  -3   3   8 1379.33 368.090   6
   3  -3  -8 1515.15 423.273   4
  -3   3   7 1566.10 373.144   2
   3  -3  -7 1866.43 403.516   4
  -3   3   7 1816.14 423.756   6
   3  -3  -7 1534.85 309.469   5
   3  -3  -6 1517.91 412.070   4
  -3   3   6 650.458 244.314   4
  -3   3   6 1092.27 364.774   6
   3  -3  -6 679.975 158.554   1
  -3   3   6 712.698 247.868   2
  -3   3   5 35101.9 1869.88   6
   3  -3  -5 40084.9 1700.06   2
  -3   3   5 39191.8 1771.62   2
   3  -3  -5 42735.1 1883.30   4
   3  -3  -5 36537.3 1113.50   7
  -3   3   5 41606.8 1781.12   4
   3  -3  -5 36095.1 1286.99   1
   3  -3  -4 1209.68 273.654   4
  -3   3   4 1517.96 295.505   4
   3  -3  -4 1231.21 194.094   7
  -3   3   4 1311.98 330.151   6
  -3   3   4 1250.25 294.850   2
  -3   3   3 103087. 2934.25   2
   3  -3  -3 107650. 3101.17   4
  -3   3   3 110045. 2998.41   4
   3  -3  -3 104077. 2519.95   7
   3  -3  -2 717.741 181.628   2
  -3   3   2 763.115 262.715   6
  -3   3   2 884.140 208.359   2
   3  -3  -2 988.053 194.951   7
   3  -3  -2 767.671 238.303   4
   3  -3  -1 99757.8 2710.87   2
  -3   3   1 104977. 2992.52   6
   3  -3  -1 102892. 2870.10   4
   3  -3  -1 99166.3 2542.91   7
  -3   3   0 19744.7 1075.73   6
   3  -3   0 18154.4 948.247   2
   3  -3   0 18004.0 704.945   3
   3  -3   0 18920.5 1132.58   8
   3  -3   0 18272.4 1021.22   4
  -3   3   0 18309.7 964.818   4
   3  -3   0 19207.0 924.657   7
  -3   3  -1 59263.5 2012.49   6
   3  -3   1 60101.4 2138.96   8
   3  -3   1 59605.7 1320.10   3
   3  -3   1 60845.6 1906.94   7
  -3   3  -2 166.231 66.4982   6
   3  -3   2 267.315 150.670   8
   3  -3   2 206.418 111.878   7
  -3   3  -2 5.83552 76.1626   4
   3  -3   3 58274.6 2175.38   8
  -3   3  -3 56254.4 1949.90   6
  -3   3  -3 55366.4 1274.76   3
  -3   3  -4 28.4081 75.8804   6
  -3   3  -4 59.2612 47.4658   3
  -3   3  -5 85873.9 2620.04   6
   3  -3   5 88161.5 2967.34   8
   3  -3   5 93669.9 2609.90   6
  -3   3  -5 86353.9 2958.40   8
  -3   3  -6-53.0594 63.3430   6
   3  -3   6 119.892 103.465   6
   3  -3   6 46.4330 99.0940   8
  -3   3  -6-81.5192 93.0411   8
   3  -3   6-51.4191 153.225   7
  -3   3  -7 14024.8 917.757   6
   3  -3   7 15761.8 948.417   6
   3  -3   7 15274.8 1225.49   8
  -3   3  -7 16519.0 1085.10   4
  -3   3  -8-21.8991 139.273   6
  -3   3  -8-65.4392 97.3423   4
   3  -3   8-230.814 179.367   8
  -3   3  -9 8995.74 733.571   6
   3  -3   9 10190.2 1129.48   8
  -3   3  -9 7911.45 792.273   4
   3  -3  10 43.4696 160.214   8
  -3   3 -10-191.312 168.249   4
  -3   3 -11 5192.73 696.636   4
   3  -3  11 4381.77 826.612   8
  -3   3 -12-440.653 247.771   4
   3  -3  12 1.87188 208.780   8
  -3   3 -13 1502.50 410.954   4
  -3   2  13 1157.01 414.461   2
  -3   2  12-366.477 261.986   2
   3  -2 -12 225.069 206.922   4
   3  -2 -11 570.433 252.748   4
  -3   2  11 709.925 307.736   2
   3  -2 -10 359.847 224.559   4
  -3   2  10-93.9238 284.786   2
  -3   2  10 398.987 153.660   6
   3  -2  -9-125.125 168.398   4
  -3   2   9-61.1604 241.357   2
  -3   2   9 117.715 106.756   6
   3  -2  -8 1787.42 429.347   4
  -3   2   8 1146.82 279.707   6
   3  -2  -8 1128.58 272.510   5
  -3   2   8 1443.63 406.295   2
  -3   2   7 58698.6 2161.74   6
  -3   2   7 56306.0 2455.28   2
   3  -2  -7 53246.7 2079.79   5
   3  -2  -7 59462.1 2405.49   4
  -3   2   6 6305.65 651.629   6
  -3   2   6 5130.13 660.212   2
   3  -2  -6 5360.65 582.840   5
  -3   2   6 5786.26 666.229   4
   3  -2  -6 5767.04 684.390   4
  -3   2   5 23615.2 1344.59   2
  -3   2   5 26341.9 1338.24   6
   3  -2  -5 27052.5 1382.71   4
   3  -2  -5 22968.7 1262.88   2
  -3   2   5 24890.9 1328.24   4
   3  -2  -5 20707.2 916.885   1
   3  -2  -4 3253.44 352.043   1
   3  -2  -4 3176.76 445.775   4
  -3   2   4 3727.00 491.457   2
  -3   2   4 3992.05 495.891   6
   3  -2  -4 2897.57 411.344   2
   3  -2  -4 3565.40 231.009   7
  -3   2   4 4136.41 487.296   4
  -3   2   3 5061.01 529.686   2
  -3   2   3 4509.93 505.445   6
   3  -2  -3 4124.55 396.360   1
   3  -2  -3 4409.24 496.284   4
   3  -2  -3 4124.64 303.286   7
  -3   2   2 12495.5 810.306   2
  -3   2   2 12403.8 814.661   6
   3  -2  -2 11574.0 768.376   2
   3  -2  -2 12084.8 774.623   4
  -3   2   2 11572.2 747.594   4
   3  -2  -2 12856.0 592.566   7
  -3   2   1 216228. 4640.48   6
   3  -2  -1 208161. 4496.30   4
  -3   2   1 206147. 4387.89   4
   3  -2  -1 204399. 4129.16   7
  -3   2   1 210865. 4589.57   2
   3  -2   0 9589.91 734.073   8
   3  -2   0 8357.63 675.088   2
  -3   2   0 6320.17 608.809   6
   3  -2   0 7029.59 475.304   3
   3  -2   0 9457.22 742.259   4
   3  -2   0 6656.91 476.508   7
  -3   2   0 6725.87 502.317   4
   3  -2   1 20716.3 1015.07   2
   3  -2   1 22805.6 799.846   3
   3  -2   1 23024.4 1149.38   8
  -3   2  -1 22552.8 942.957   4
  -3   2  -2 399.601 97.6891   6
   3  -2   2 385.652 152.070   8
  -3   2  -2 346.132 103.483   4
  -3   2  -3 136246. 3285.46   6
   3  -2   3 138495. 3533.38   8
  -3   2  -4 1448.33 269.443   6
   3  -2   4 967.916 242.679   8
  -3   2  -4 1355.89 203.022   3
  -3   2  -5 97021.9 2676.31   6
   3  -2   5 95476.3 2937.64   8
  -3   2  -6 643.363 175.097   6
  -3   2  -6 1207.31 246.491   4
   3  -2   6 720.715 227.675   8
  -3   2  -6 1074.90 296.898   8
  -3   2  -7 38551.2 1571.88   6
   3  -2   7 39307.2 1571.48   6
  -3   2  -7 38469.1 1905.26   8
   3  -2   7 37745.8 1881.82   8
  -3   2  -7 41507.3 1643.44   4
  -3   2  -8 233.094 116.829   6
   3  -2   8 646.028 191.564   6
  -3   2  -8 303.998 144.351   4
   3  -2   8 236.069 180.820   8
  -3   2  -9 13845.9 898.327   6
   3  -2   9 13875.2 916.857   6
  -3   2  -9 13965.8 1003.47   4
  -3   2 -10 241.722 180.210   4
   3  -2  10-38.5442 69.5902   6
   3  -2  10-214.432 308.175   8
   3  -2  11 13696.2 1451.60   8
  -3   2 -11 13880.0 1098.45   4
  -3   2 -12 189.791 134.330   4
   3  -2  12-224.016 275.831   8
  -3   2 -13 619.887 268.172   4
   3  -2  13 785.244 417.975   8
  -3   2 -14 107.989 157.842   4
   3  -1 -12 39.9259 148.651   4
  -3   1  12-417.683 283.238   2
   3  -1 -11 1448.61 431.015   4
  -3   1  11 949.168 366.608   2
   3  -1 -10 554.854 254.713   4
  -3   1  10 142.873 186.122   2
  -3   1  10 200.514 79.1688   6
  -3   1   9 7005.37 903.623   2
   3  -1  -9 7354.74 836.376   4
  -3   1   9 7535.97 548.159   6
   3  -1  -8 2185.63 440.391   4
  -3   1   8 2625.05 326.966   6
  -3   1   8 2168.81 472.818   2
   3  -1  -7 2103.20 395.511   4
  -3   1   7 2999.24 364.271   6
  -3   1   7 2141.66 446.111   2
   3  -1  -7 3180.30 467.776   5
  -3   1   6 4068.91 606.567   2
  -3   1   6 3860.69 407.926   6
   3  -1  -6 4252.86 531.916   5
   3  -1  -6 3907.21 527.551   4
  -3   1   6 3732.08 517.734   4
  -3   1   5 8963.12 639.693   6
  -3   1   5 9639.72 863.313   2
   3  -1  -5 10255.9 811.633   4
   3  -1  -5 8567.44 733.520   5
  -3   1   5 9733.10 787.822   4
  -3   1   4 4781.32 459.187   6
  -3   1   4 4402.18 558.465   2
   3  -1  -4 4981.39 555.554   2
   3  -1  -4 5734.42 573.102   4
  -3   1   3 88095.3 2656.17   2
  -3   1   3 81055.5 2283.84   6
   3  -1  -3 84720.1 2421.33   4
   3  -1  -3 83758.3 1664.37   7
  -3   1   3 85120.4 2381.96   4
   3  -1  -3 82303.2 2258.69   1
   3  -1  -2 219.439 106.164   4
  -3   1   2 371.291 138.018   4
  -3   1   2 225.001 112.667   6
   3  -1  -2 135.051 93.8314   1
  -3   1   2 284.824 149.060   2
   3  -1  -2 91.8200 41.1545   7
  -3   1   1 4094.75 440.968   2
  -3   1   1 3914.42 400.422   6
   3  -1  -1 4129.06 383.240   6
   3  -1  -1 4025.63 407.290   1
   3  -1  -1 3606.91 360.631   4
  -3   1   1 5241.51 415.328   4
  -3   1   0 2215.74 291.672   6
   3  -1   0 2276.13 283.672   3
   3  -1   0 2542.67 281.743   4
  -3   1   0 2176.42 252.469   4
  -3   1   0 2632.92 351.967   2
  -3   1  -1 146574. 3396.34   6
   3  -1   1 138930. 3094.80   3
   3  -1   1 141641. 3392.28   8
   3  -1   1 144016. 3020.61   4
  -3   1  -1 142827. 2977.33   4
  -3   1  -2 18512.0 924.580   6
   3  -1   2 18352.8 752.727   3
  -3   1  -2 17232.8 748.563   3
   3  -1   2 17631.0 932.382   8
  -3   1  -2 17814.0 899.987   8
  -3   1  -2 17861.4 704.641   4
  -3   1  -3 69233.0 2019.83   6
   3  -1   3 67958.1 2079.10   8
  -3   1  -3 63197.4 1718.61   3
  -3   1  -3 61311.2 1964.19   8
  -3   1  -4 3988.04 421.255   6
  -3   1  -4 4296.16 381.949   3
   3  -1   4 3881.19 453.619   8
  -3   1  -5 125974. 3217.88   6
   3  -1   5 122846. 3383.71   8
  -3   1  -5 132068. 3014.84   4
  -3   1  -6 426.091 157.448   6
  -3   1  -6 467.573 137.501   4
   3  -1   6 532.914 198.040   8
  -3   1  -6 381.187 183.795   8
  -3   1  -7 13631.2 865.166   6
  -3   1  -7 13699.4 1049.62   8
   3  -1   7 12798.5 1029.03   8
  -3   1  -7 13443.3 807.453   4
   3  -1   8 443.711 164.300   6
  -3   1  -8 418.206 156.241   4
  -3   1  -8 669.541 238.728   8
   3  -1   8 200.703 151.887   8
   3  -1   9 10231.2 795.036   6
   3  -1   9 11657.8 1161.76   8
  -3   1  -9 10659.0 815.253   4
  -3   1 -10-84.2234 122.921   4
   3  -1  10-4.73168 98.5652   6
   3  -1  10-20.0693 196.556   8
   3  -1  11 13359.8 1430.53   8
   3  -1  11 12595.0 924.217   6
  -3   1 -11 15155.1 1105.41   4
  -3   1 -12 358.109 188.235   4
   3  -1  12 511.366 353.333   8
   3  -1  13 7466.19 1176.66   8
  -3   1 -13 5539.13 725.299   4
  -3   1 -14-19.8331 134.988   4
  -3   1 -15 959.753 355.599   4
   3   0 -12 418.132 298.805   4
  -3   0  12 117.337 153.757   2
   3   0 -11 4312.04 680.920   4
  -3   0  11 2994.44 642.620   2
   3   0 -10 1879.89 446.903   4
  -3   0  10 1182.00 365.514   2
  -3   0   9 1103.61 118.016   6
   3   0  -9 1462.40 378.156   4
  -3   0   9 1279.36 390.364   2
   3   0  -8 120.366 181.837   4
  -3   0   8 320.804 84.5404   6
  -3   0   8 338.453 219.608   2
  -3   0   7 22473.4 868.893   6
  -3   0   7 20884.4 916.025   1
  -3   0   7 20731.5 1483.76   2
   3   0  -7 19218.7 1512.87   8
   3   0  -7 24221.0 1382.25   4
   3   0  -6 1501.02 331.407   4
  -3   0   6 972.074 287.954   2
  -3   0   6 1274.46 198.603   6
  -3   0   6 1307.70 309.978   4
  -3   0   6 1361.92 231.429   1
   3   0  -6 1484.72 337.116   5
   3   0  -6 1514.88 412.489   8
  -3   0   5 36257.5 1237.53   6
  -3   0   5 35473.8 1293.91   1
  -3   0   5 36740.3 1782.25   2
   3   0  -5 37660.0 1680.38   5
   3   0  -5 41827.1 1679.25   4
  -3   0   5 38959.0 1635.80   4
  -3   0   4 5441.00 433.075   6
  -3   0   4 5690.20 628.694   2
  -3   0   4 5026.01 438.704   1
   3   0  -4 6728.18 590.142   4
  -3   0   3 19315.6 868.971   6
  -3   0   3 19244.1 1116.66   2
   3   0  -3 17818.2 755.529   6
  -3   0   3 19226.1 894.774   1
   3   0  -3 19468.8 965.877   4
   3   0  -3 18802.6 517.995   7
  -3   0   3 16652.7 891.836   4
   3   0  -2 394.121 91.9361   7
   3   0  -2 75.1332 94.3025   4
  -3   0   2 16.3133 51.8539   4
  -3   0   2 88.1685 70.8146   6
   3   0  -2 41.7510 39.1153   6
   3   0  -2 167.183 103.703   1
  -3   0   2 38.7338 100.086   2
  -3   0   2 239.928 135.822   1
  -3   0   1 98610.1 2450.70   6
   3   0  -1 93857.8 2355.29   6
  -3   0   1 99226.0 2672.30   2
   3   0  -1 94617.3 2273.13   4
  -3   0   1 99979.1 2287.27   4
   3   0  -1 94204.1 2550.02   1
  -3   0   0 46580.8 1608.80   2
  -3   0   0 46855.5 1514.90   6
   3   0   0 46699.2 1608.03   1
   3   0   0 47716.6 1502.22   6
   3   0   0 46490.9 1555.50   3
   3   0   0 46636.2 1251.96   4
  -3   0   0 46681.4 1218.34   4
  -3   0  -1 243862. 4958.71   6
   3   0   1 235795. 5027.79   1
   3   0   1 239821. 4881.27   3
  -3   0  -1 233322. 4333.99   4
   3   0   1 243746. 4822.55   8
   3   0   1 237045. 4342.74   4
  -3   0  -1 244842. 5001.76   2
  -3   0  -2 7487.62 322.703   4
  -3   0  -2 8614.63 595.164   6
   3   0   2 7618.33 571.975   1
  -3   0  -2 7467.05 512.545   3
   3   0   2 7407.14 521.824   8
  -3   0  -2 6735.61 484.819   8
   3   0   2 6956.43 487.411   3
   3   0   3 62865.0 1837.85   8
  -3   0  -3 61949.7 1892.88   6
  -3   0  -3 59208.0 1758.05   3
  -3   0  -3 58582.3 1783.31   8
  -3   0  -4 3041.76 341.853   3
   3   0   4 2625.16 340.700   6
  -3   0  -4 2502.12 328.343   6
  -3   0  -4 2491.07 332.012   8
   3   0   4 2175.59 305.668   8
  -3   0  -4 2710.70 225.675   4
  -3   0  -5 17951.3 947.906   6
   3   0   5 17239.7 988.343   8
  -3   0  -5 16383.9 676.370   4
  -3   0  -6 905.625 218.297   6
  -3   0  -6 845.432 165.609   4
  -3   0  -6 896.769 240.556   8
   3   0   6 957.747 239.817   8
  -3   0  -7 14341.2 1036.56   8
   3   0   7 13863.0 1033.11   8
  -3   0  -7 13290.2 732.483   4
  -3   0  -8 66.5296 115.652   8
  -3   0  -8 22.2739 97.9796   4
   3   0   8 127.738 102.133   6
   3   0   8 0.93383 122.856   8
   3   0   9 16986.0 1077.49   6
  -3   0  -9 18156.3 1030.38   4
  -3   0 -10 338.508 125.070   4
   3   0  10 169.964 99.3755   6
   3   0  10 113.048 183.562   8
   3   0  11 14638.2 1041.65   6
   3   0  11 13987.4 1412.48   8
  -3   0 -11 15439.7 1063.76   4
  -3   0 -12-93.4182 146.777   4
   3   0  12 392.293 293.591   8
  -3   0 -13 3520.35 559.808   4
   3   0  13 3622.15 815.169   8
  -3   0 -14 254.056 208.233   4
  -3   0 -15 1029.14 369.509   4
   3   1 -12 894.605 351.473   4
  -3  -1  12 716.668 372.276   2
  -3  -1  12 640.629 328.255   5
   3   1 -11 3191.83 606.180   4
  -3  -1  11 2869.19 666.287   2
  -3  -1  11 2650.03 609.192   5
   3   1 -10 606.313 271.025   4
  -3  -1  10 315.250 317.359   2
  -3  -1  10 565.179 284.069   5
  -3  -1   9 8520.02 1055.09   2
  -3  -1   9 7131.71 904.934   5
   3   1  -9 7406.40 838.021   4
   3   1  -8 246.232 149.088   4
  -3  -1   8-75.6448 199.827   2
  -3  -1   8 214.652 194.205   5
  -3  -1   7 4506.64 706.860   2
  -3  -1   7 5671.58 731.573   5
   3   1  -7 5936.79 660.814   4
   3   1  -7 4802.13 718.129   8
  -3  -1   6-54.3818 43.3102   6
   3   1  -6-48.1909 109.695   4
  -3  -1   6-98.5570 212.852   2
   3   1  -6 19.3747 134.280   8
  -3  -1   6-41.7499 93.6331   4
  -3  -1   6 26.0799 126.638   5
  -3  -1   6 22.1041 78.2788   1
  -3  -1   5 22867.5 835.036   6
  -3  -1   5 21075.0 1361.67   2
  -3  -1   5 23670.4 1379.69   5
   3   1  -5 24456.4 1348.60   5
  -3  -1   5 23904.4 1278.80   4
   3   1  -5 21658.5 1393.34   8
   3   1  -5 25638.1 1244.51   4
  -3  -1   5 22308.8 1088.95   1
  -3  -1   4 1365.99 207.832   6
  -3  -1   4 1511.54 322.533   2
   3   1  -4 1680.23 365.593   8
   3   1  -4 1909.41 314.009   4
   3   1  -4 1639.43 325.131   5
   3   1  -4 1511.41 133.495   7
  -3  -1   4 1309.75 270.205   1
  -3  -1   3 104750. 2451.50   6
   3   1  -3 101393. 2351.57   6
  -3  -1   3 106682. 3111.40   2
   3   1  -3 110501. 2715.72   4
   3   1  -3 101886. 2167.21   7
  -3  -1   3 104063. 2708.46   4
  -3  -1   3 105304. 2785.13   1
  -3  -1   2 22971.7 1086.12   1
  -3  -1   2 23068.8 936.190   6
   3   1  -2 24131.9 933.802   6
  -3  -1   2 24470.7 1225.64   2
   3   1  -2 24790.6 985.827   4
   3   1  -2 24897.9 885.667   7
  -3  -1   2 22861.5 964.432   4
  -3  -1   1 38428.5 1291.05   6
  -3  -1   1 39858.0 1469.37   1
  -3  -1   1 40949.1 1556.85   2
   3   1  -1 39351.0 1304.31   6
  -3  -1   1 37566.3 1166.59   4
   3   1  -1 42361.5 1226.25   4
   3   1  -1 39544.3 1237.86   7
  -3  -1   0 8280.95 655.973   2
  -3  -1   0 7887.87 535.114   6
   3   1   0 8820.63 569.468   6
   3   1   0 8488.55 538.645   7
   3   1   0 8974.92 428.943   4
   3   1   0 7744.69 633.788   1
  -3  -1   0 7986.22 392.330   4
  -3  -1  -1 1890.77 267.019   6
   3   1   1 1545.85 239.648   6
  -3  -1  -1 1748.15 275.313   3
  -3  -1  -1 1685.45 258.823   2
   3   1   1 1898.88 139.238   4
   3   1   1 2026.43 219.143   8
   3   1   1 1803.80 270.850   3
  -3  -1  -1 1939.07 137.714   4
   3   1   1 1705.50 290.320   1
   3   1   2 8313.58 473.308   8
   3   1   2 9106.65 654.279   1
  -3  -1  -2 8177.46 578.778   6
  -3  -1  -2 7962.71 459.015   8
   3   1   2 8779.05 592.421   3
  -3  -1  -2 8390.19 594.940   3
  -3  -1  -3 87859.1 2331.34   6
   3   1   3 85782.2 2412.65   1
   3   1   3 84745.1 2115.26   8
  -3  -1  -3 87989.3 2375.63   3
  -3  -1  -3 82199.3 2111.05   8
   3   1   3 86723.4 2347.08   2
  -3  -1  -4 689.838 177.439   6
   3   1   4 932.919 209.462   1
   3   1   4 651.809 158.903   8
  -3  -1  -4 873.099 185.700   8
  -3  -1  -4 1105.18 121.671   4
  -3  -1  -4 641.854 167.569   3
   3   1   5 171230. 3953.99   8
  -3  -1  -5 168494. 3994.11   3
   3   1   5 169907. 3935.18   1
  -3  -1  -5 170648. 3966.92   8
  -3  -1  -5 168368. 3300.80   4
   3   1   6 14216.6 844.515   1
   3   1   6 13542.1 908.945   8
  -3  -1  -6 15041.6 667.516   4
   3   1   7 46859.3 2004.07   8
   3   1   7 51471.5 1916.42   6
   3   1   7 46664.2 1683.08   1
  -3  -1  -7 47808.5 1926.05   8
  -3  -1  -7 47207.5 1480.38   4
  -3  -1  -8 568.785 168.878   4
   3   1   8 647.722 209.150   6
  -3  -1  -8 247.573 147.731   8
   3   1   8 114.127 175.106   8
   3   1   8 685.785 197.210   1
   3   1   9 6777.51 686.844   6
   3   1   9 8209.94 653.015   1
  -3  -1  -9 6355.77 758.147   8
  -3  -1  -9 7853.74 629.776   4
   3   1   9 8130.98 929.237   8
  -3  -1 -10 1925.10 344.866   4
   3   1  10 1715.42 308.620   1
   3   1  10 1523.61 324.319   6
   3   1  10 1329.12 411.329   8
   3   1  11 3207.74 488.695   6
   3   1  11 3501.91 708.672   8
   3   1  11 3242.65 447.225   1
  -3  -1 -11 3525.42 489.358   4
  -3  -1 -12 60.8800 144.211   4
   3   1  12-156.719 140.972   1
   3   1  12-66.4378 84.4498   6
   3   1  12-169.584 174.256   8
  -3  -1 -13 2799.57 495.742   4
  -3  -1 -14 176.643 194.321   4
  -3  -1 -15 1386.14 391.579   4
  -3  -2  12 94.6337 159.770   5
   3   2 -11 1258.18 404.922   4
  -3  -2  11 1121.12 405.388   2
  -3  -2  11 1176.90 435.468   5
   3   2 -10 1862.45 474.526   4
  -3  -2  10 934.543 351.292   2
  -3  -2  10 2158.32 553.031   5
  -3  -2  10 1820.67 361.936   1
  -3  -2   9 3197.54 662.560   2
  -3  -2   9 3206.35 641.853   5
   3   2  -9 4260.51 649.570   4
  -3  -2   9 3478.20 492.535   1
   3   2  -8 2201.98 446.507   4
  -3  -2   8 1192.29 397.516   2
  -3  -2   8 2023.16 377.031   1
  -3  -2   8 1475.08 451.333   5
  -3  -2   8 2084.54 238.860   7
  -3  -2   7 18584.9 1493.35   2
  -3  -2   7 18866.2 1418.66   5
   3   2  -7 17948.9 1361.94   8
   3   2  -7 18024.4 1220.38   4
  -3  -2   7 18836.0 789.436   7
  -3  -2   6 578.326 131.474   7
   3   2  -6 821.273 246.399   4
  -3  -2   6 876.262 276.119   2
  -3  -2   6 598.062 302.376   5
   3   2  -6 750.698 256.847   8
   3   2  -5 57361.2 1447.15   7
  -3  -2   5 55835.8 2402.70   2
  -3  -2   5 56903.7 2366.34   5
   3   2  -5 57322.2 2310.52   8
   3   2  -5 57295.7 2062.22   4
  -3  -2   5 53811.2 1559.89   7
   3   2  -4 3372.74 471.751   8
   3   2  -4 3118.55 258.483   6
  -3  -2   4 2916.65 474.352   2
  -3  -2   4 3035.75 487.540   5
   3   2  -4 3173.59 464.055   5
   3   2  -4 3062.12 279.715   7
   3   2  -4 2956.70 403.291   4
  -3  -2   4 2837.75 293.719   7
   3   2  -3 17708.5 740.765   6
  -3  -2   3 19309.0 1163.90   2
  -3  -2   3 16617.5 1085.30   5
   3   2  -3 15355.7 956.035   8
   3   2  -3 16830.4 738.379   7
   3   2  -3 17278.0 897.731   4
  -3  -2   3 17173.4 773.429   7
  -3  -2   2 2051.92 357.020   2
  -3  -2   2 1529.26 218.617   7
   3   2  -2 1695.23 225.078   6
   3   2  -2 1460.68 259.688   8
   3   2  -2 1691.25 250.843   4
  -3  -2   2 1623.44 299.627   5
   3   2  -2 2010.49 263.094   7
  -3  -2   1 453.410 130.673   7
   3   2  -1 846.191 169.536   6
   3   2  -1 709.900 148.417   4
   3   2  -1 597.176 173.325   2
  -3  -2   1 528.783 197.001   2
   3   2  -1 734.912 196.150   7
  -3  -2   0 18013.9 965.187   2
   3   2   0 16581.6 811.594   6
   3   2   0 15714.6 924.096   2
   3   2   0 17381.1 655.750   4
   3   2   0 17403.9 888.425   7
   3   2   1 45864.6 1529.53   6
   3   2   1 45509.4 1586.73   2
   3   2   1 49346.7 1676.64   5
  -3  -2  -1 48470.9 1697.07   3
   3   2   1 47632.1 1108.89   8
  -3  -2  -1 47855.2 1562.18   2
   3   2   1 47692.5 1102.07   4
   3   2   1 47392.6 1632.76   7
   3   2   2 33658.2 1273.21   2
  -3  -2  -2 33385.8 1376.74   3
   3   2   2 33674.6 900.177   8
   3   2   2 36221.0 1414.31   7
   3   2   3 192788. 3857.93   8
  -3  -2  -3 211095. 4567.94   3
  -3  -2  -3 193574. 3866.05   8
   3   2   3 196449. 4522.40   1
   3   2   3 204864. 4552.20   7
   3   2   3 201690. 4300.34   2
   3   2   4 6143.12 461.936   8
  -3  -2  -4 7430.18 493.407   8
  -3  -2  -4 7728.95 647.355   3
  -3  -2  -4 7389.12 325.423   4
   3   2   4 7902.30 309.568   4
   3   2   4 6919.77 593.894   1
  -3  -2  -5 63300.0 2120.83   3
   3   2   5 56907.9 1883.48   8
  -3  -2  -5 58157.8 1816.52   8
  -3  -2  -5 59312.5 1477.66   4
   3   2   5 61278.3 1445.81   4
   3   2   5 58949.1 1957.42   1
   3   2   6 1453.95 269.010   1
   3   2   6 1591.94 308.449   6
   3   2   6 1123.06 252.173   8
  -3  -2  -6 1291.20 254.917   8
  -3  -2  -6 1461.86 209.629   4
   3   2   6 1727.94 221.470   4
   3   2   7 46811.6 1705.97   1
   3   2   7 47483.1 1882.12   6
   3   2   7 47341.0 1524.14   4
   3   2   7 43545.8 1912.54   8
  -3  -2  -7 48098.7 1502.06   4
  -3  -2  -8 544.679 157.691   4
   3   2   8 635.586 218.232   6
   3   2   8 496.129 172.338   1
   3   2   8 643.160 171.744   4
  -3  -2  -8 358.920 191.625   8
   3   2   8 753.449 287.478   8
   3   2   9 7967.94 653.054   1
   3   2   9 7018.19 709.659   6
   3   2   9 8033.44 897.523   8
  -3  -2  -9 7843.85 632.522   4
   3   2   9 6705.94 623.765   4
  -3  -2  -9 6869.81 768.906   8
  -3  -2 -10 390.328 158.927   4
   3   2  10 0.82977 68.1634   6
   3   2  10 555.348 170.006   1
   3   2  10 343.756 147.942   4
   3   2  10 287.233 294.474   8
   3   2  11 7449.48 782.690   6
  -3  -2 -11 6680.76 677.329   4
   3   2  11 7216.61 774.697   4
   3   2  11 6490.71 600.735   1
  -3  -2 -12 205.480 202.888   4
   3   2  12 124.688 107.246   1
  -3  -2 -13 6434.49 743.929   4
   3   2  13 5831.02 796.593   7
  -3  -2 -14 213.967 145.666   4
   3   2  14 262.946 200.092   7
   3   2  15 975.918 338.312   7
  -3  -2 -15 766.049 309.821   4
   3   2  16 84.4700 161.525   7
  -3  -2 -16-42.0523 115.756   4
   3   3 -11 1588.80 442.252   4
  -3  -3  11 1453.79 509.699   2
  -3  -3  11 2426.78 633.750   5
   3   3 -10 1088.25 361.541   4
  -3  -3  10 818.389 393.309   2
  -3  -3  10 794.376 375.914   5
   3   3  -9 4291.85 658.524   4
  -3  -3   9 3592.26 751.965   2
  -3  -3   9 4213.71 758.283   5
   3   3  -8 3069.85 525.886   4
  -3  -3   8 3330.97 710.207   2
  -3  -3   8 3083.58 636.820   5
  -3  -3   8 2872.93 381.094   7
   3   3  -7 3591.55 589.944   8
  -3  -3   7 3081.02 626.440   2
  -3  -3   7 4315.39 698.895   5
   3   3  -7 3983.70 562.691   4
  -3  -3   7 3517.73 419.143   7
   3   3  -6-174.172 177.301   4
  -3  -3   6 289.264 222.869   2
   3   3  -6 329.003 188.646   8
  -3  -3   6 444.330 222.082   5
  -3  -3   6 179.069 98.6462   7
   3   3  -5 8671.03 363.065   6
  -3  -3   5 8237.34 927.753   2
  -3  -3   5 7872.63 848.219   5
   3   3  -5 8838.81 784.538   8
   3   3  -5 9095.29 576.333   7
   3   3  -5 7865.91 724.811   4
  -3  -3   5 8192.78 648.072   7
  -3  -3   4 2038.61 316.772   7
   3   3  -4 2381.01 242.238   6
  -3  -3   4 2129.79 423.993   2
   3   3  -4 2275.11 357.723   4
   3   3  -4 2710.63 332.606   7
   3   3  -4 1941.48 334.344   8
  -3  -3   4 1923.77 421.619   5
   3   3  -3 71849.3 1818.07   6
  -3  -3   3 69620.3 2505.10   2
  -3  -3   3 68911.1 2566.92   5
   3   3  -3 66526.7 2067.47   8
   3   3  -3 72547.4 2027.74   7
   3   3  -3 68341.8 2117.40   4
  -3  -3   3 68729.0 2122.87   7
   3   3  -2 9228.10 553.910   6
  -3  -3   2 9435.79 678.258   7
  -3  -3   2 9315.54 776.867   2
  -3  -3   2 8626.35 769.914   5
   3   3  -2 9884.57 775.678   2
   3   3  -2 8784.04 563.048   8
   3   3  -2 9149.51 621.804   4
   3   3  -2 10101.7 663.702   7
   3   3  -1 56452.4 1678.97   6
  -3  -3   1 60688.0 2030.54   2
   3   3  -1 54531.5 1453.24   8
   3   3  -1 57464.4 1975.70   2
  -3  -3   1 62657.2 2179.97   5
  -3  -3   1 58945.7 1906.45   7
   3   3  -1 62013.2 1953.01   7
   3   3  -1 58851.7 1704.59   4
   3   3   0 15914.0 809.298   6
   3   3   0 17331.0 987.841   7
  -3  -3   0 15837.9 894.266   2
   3   3   0 15495.8 468.727   8
   3   3   0 15077.3 882.867   2
   3   3   0 17024.9 968.289   5
  -3  -3   0 15792.0 904.912   7
   3   3   0 16044.8 716.900   4
  -3  -3  -1 67390.9 1984.79   2
   3   3   1 68820.4 2003.50   6
   3   3   1 70698.6 2262.95   7
   3   3   1 67707.6 2040.93   2
   3   3   1 65206.2 2090.47   5
  -3  -3  -1 69273.2 2229.18   3
  -3  -3  -1 67297.6 2126.42   7
   3   3   2 437.798 149.906   7
   3   3   2 640.765 176.369   6
  -3  -3  -2 699.996 162.309   2
   3   3   2 560.594 158.717   5
  -3  -3  -2 339.218 136.025   3
   3   3   2 768.004 178.377   2
   3   3   2 774.179 122.716   4
   3   3   3 12329.5 718.849   2
  -3  -3  -3 12938.9 477.507   8
   3   3   3 11745.7 708.237   5
  -3  -3  -3 14027.4 914.760   3
   3   3   3 12556.1 486.224   4
   3   3   3 12298.3 866.505   7
   3   3   4 125.970 53.5089   4
   3   3   4 35.2137 90.2773   2
  -3  -3  -4 10.8894 42.8438   8
  -3  -3  -4 15.7291 95.7165   1
  -3  -3  -4 127.543 100.992   3
  -3  -3  -5 129445. 2802.17   4
  -3  -3  -5 133487. 3290.32   1
   3   3   5 115438. 3058.17   8
  -3  -3  -5 122828. 2960.57   8
  -3  -3  -5 134785. 3586.76   3
   3   3   5 127011. 2661.30   4
   3   3   5 126733. 3568.61   7
   3   3   6 4653.84 538.106   6
  -3  -3  -6 4605.54 474.584   8
  -3  -3  -6 4148.69 529.095   3
  -3  -3  -6 4000.56 387.845   4
   3   3   6 4401.78 584.154   7
   3   3   6 4504.75 368.833   4
   3   3   7 18136.2 1119.81   6
  -3  -3  -7 17399.8 888.545   4
   3   3   7 19074.4 892.416   4
   3   3   7 19026.8 1221.74   7
   3   3   8 3769.20 536.827   7
   3   3   8 3867.09 517.925   6
  -3  -3  -8 3360.34 492.878   8
  -3  -3  -8 3121.29 381.792   4
   3   3   8 2904.75 406.096   1
   3   3   8 3366.39 390.827   4
   3   3   9 17577.8 1183.77   6
  -3  -3  -9 20615.7 1084.74   4
  -3  -3  -9 18436.7 1274.90   8
   3   3   9 21541.9 1106.09   1
   3   3   9 17645.2 1017.57   4
   3   3   9 21062.8 1343.58   7
   3   3  10 25.6192 148.053   7
  -3  -3 -10 335.596 167.021   4
   3   3  10-1.73968 91.1676   6
   3   3  10 71.0906 85.2402   4
  -3  -3 -11 19382.7 1198.71   4
   3   3  11 17564.3 1199.91   4
   3   3  11 19948.7 1396.11   7
   3   3  12 233.931 178.793   7
  -3  -3 -12 2.49713 86.4953   4
   3   3  13 2541.49 528.820   7
  -3  -3 -13 3036.43 511.373   4
   3   3  14 323.052 264.542   7
  -3  -3 -14-139.377 138.130   4
   3   3  15 332.463 177.743   7
  -3  -3 -15 823.072 343.600   4
   3   3  16 197.032 241.821   7
  -3  -3 -16 138.416 251.301   4
   3   4 -10-64.3285 108.421   4
  -3  -4  10 469.605 316.257   2
  -3  -4  10 625.307 353.171   5
   3   4  -9 1650.74 410.314   4
  -3  -4   9 1535.79 521.745   2
  -3  -4   9 1139.45 389.486   5
  -3  -4   8 1988.83 480.893   5
   3   4  -8 1534.50 375.695   4
  -3  -4   8 1374.23 508.701   2
  -3  -4   7 8456.05 1128.85   2
  -3  -4   7 8468.11 1029.05   5
   3   4  -7 7787.17 820.712   4
  -3  -4   6 939.179 321.565   5
   3   4  -6 613.525 231.832   4
  -3  -4   6 846.587 366.934   2
   3   4  -6 209.292 134.941   8
   3   4  -5 17225.5 597.298   6
   3   4  -5 14712.9 997.501   8
  -3  -4   5 14239.7 1313.23   2
  -3  -4   5 14867.1 1270.42   5
   3   4  -5 18027.6 951.969   7
   3   4  -5 16282.7 1079.98   4
   3   4  -4 3998.28 319.023   6
  -3  -4   4 3459.31 592.701   2
  -3  -4   4 3855.02 609.192   5
   3   4  -4 3570.94 433.877   8
   3   4  -4 3801.92 444.033   7
   3   4  -4 4101.29 502.928   4
   3   4  -3 12618.5 648.967   6
  -3  -4   3 12081.6 996.697   2
  -3  -4   3 12752.2 1045.73   5
   3   4  -3 12420.3 975.675   3
   3   4  -3 11893.6 721.207   8
   3   4  -3 13196.4 834.328   7
   3   4  -3 12594.1 858.854   4
   3   4  -2 18763.7 866.335   6
  -3  -4   2 19300.2 1161.55   2
  -3  -4   2 19030.9 1265.50   5
   3   4  -2 20790.7 1236.61   3
   3   4  -2 19972.2 1076.68   7
   3   4  -2 19151.0 1024.00   4
   3   4  -2 18736.7 804.724   8
   3   4  -1 96083.7 2525.97   6
  -3  -4   1 98878.8 2873.03   2
  -3  -4   1 99913.4 3087.93   5
   3   4  -1 98031.6 2830.29   2
   3   4  -1 106263. 3011.14   5
   3   4  -1 102865. 3042.06   3
   3   4  -1 98441.7 2882.66   7
   3   4  -1 98245.7 2161.64   8
   3   4  -1 99080.3 2656.69   4
  -3  -4   0 1773.76 427.116   2
   3   4   0 1926.30 510.571   5
   3   4   0 1333.77 308.485   2
   3   4   0 623.952 195.142   3
   3   4   0 849.096 447.620   7
   3   4   1 61.9451 68.3257   2
   3   4   1-16.5331 73.1690   5
  -3  -4  -1 282.339 133.599   2
  -3  -4  -1-73.0220 100.390   3
   3   4   1-66.6121 189.350   7
   3   4   2 4902.52 453.645   2
   3   4   2 4871.45 483.248   5
  -3  -4  -2 5433.27 578.546   3
   3   4   2 5073.04 397.389   4
   3   4   2 5948.71 648.420   7
  -3  -4  -2 5613.52 457.949   2
   3   4   3 50818.9 1632.10   2
   3   4   3 51088.7 1695.00   5
  -3  -4  -3 53379.4 2041.03   3
   3   4   3 51440.9 1438.63   4
   3   4   3 56774.1 2176.27   7
  -3  -4  -3 51056.9 2004.00   1
   3   4   4 5634.94 474.070   2
   3   4   4 5808.16 475.632   5
   3   4   4 5767.88 399.297   4
  -3  -4  -4 5000.33 334.577   8
   3   4   4 5202.63 635.831   7
  -3  -4  -4 5240.70 594.217   3
  -3  -4  -4 4956.71 553.282   1
  -3  -4  -5 5557.04 437.824   8
   3   4   5 5294.03 435.383   5
  -3  -4  -5 5280.05 446.739   4
  -3  -4  -5 5110.87 562.173   1
   3   4   5 5137.20 396.344   4
   3   4   5 5555.18 651.627   7
  -3  -4  -5 5684.67 642.270   3
   3   4   5 5115.16 463.482   2
   3   4   6 528.257 217.089   7
   3   4   6 726.337 165.438   4
  -3  -4  -6 1080.21 249.556   1
  -3  -4  -6 690.714 224.528   3
  -3  -4  -6 717.514 177.498   8
  -3  -4  -6 507.317 137.522   4
  -3  -4  -7 32948.9 1399.86   1
  -3  -4  -7 28638.5 1612.34   3
  -3  -4  -7 32188.1 1353.44   4
   3   4   7 31287.8 1213.46   4
   3   4   7 32072.8 1733.66   7
   3   4   8 4658.03 655.956   7
   3   4   8 3940.10 435.997   4
  -3  -4  -8 4085.55 545.891   8
  -3  -4  -8 3558.69 448.352   4
   3   4   9 24698.8 1232.58   4
  -3  -4  -9 25434.6 1494.33   8
  -3  -4  -9 25953.9 1322.83   4
   3   4   9 29485.1 1709.10   7
  -3  -4 -10 5265.47 712.811   8
  -3  -4 -10 5575.15 640.384   4
   3   4  10 5128.16 584.871   4
   3   4  10 5290.64 713.733   7
  -3  -4 -11 1312.36 328.932   4
   3   4  11 1031.35 336.371   7
   3   4  11 1329.94 304.933   4
   3   4  12 1281.99 390.069   7
  -3  -4 -12 1114.33 312.531   4
   3   4  13 3703.90 663.629   7
  -3  -4 -13 4139.36 615.813   4
   3   4  14 471.778 269.610   7
  -3  -4 -14 117.944 169.600   4
   3   4  15 1191.43 391.678   7
  -3  -4 -15 770.568 308.238   4
   3   4  16 294.483 276.538   7
  -3  -4 -16-55.6064 159.510   4
   3   5  -9 2156.47 481.873   4
  -3  -5   9 1555.44 580.609   2
  -3  -5   9 2989.10 684.070   5
  -3  -5   8-8.61269 187.846   5
   3   5  -8-162.456 219.313   4
  -3  -5   8-47.6830 227.584   2
   3   5  -7 3187.24 551.210   4
  -3  -5   7 2120.63 588.966   2
  -3  -5   7 3767.36 702.495   5
  -3  -5   7 3082.25 563.080   7
   3   5  -6 271.616 171.926   4
  -3  -5   6-49.8671 186.552   2
  -3  -5   6 768.583 325.765   5
   3   5  -6 654.135 222.302   8
   3   5  -6 303.497 130.330   7
  -3  -5   6 577.659 262.813   7
   3   5  -5 8194.65 441.230   6
  -3  -5   5 9345.18 1095.14   2
  -3  -5   5 8310.91 994.682   5
   3   5  -5 8028.15 725.138   8
  -3  -5   5 8687.14 915.342   7
   3   5  -5 8882.84 729.239   7
   3   5  -5 8356.00 815.962   4
   3   5  -4 333.930 105.991   6
  -3  -5   4 738.499 285.642   2
   3   5  -4 314.578 155.182   4
  -3  -5   4 403.710 284.955   5
   3   5  -4 411.186 142.005   8
   3   5  -4 571.668 263.165   7
  -3  -5   4 430.113 210.930   7
   3   5  -3 17106.9 839.703   6
   3   5  -3 18269.2 933.907   8
  -3  -5   3 19352.6 1303.50   7
  -3  -5   3 18209.1 1283.18   2
  -3  -5   3 18022.8 1339.96   5
   3   5  -3 16763.5 1199.19   3
   3   5  -3 17913.0 1091.01   7
   3   5  -3 16193.9 1062.41   4
  -3  -5   2 5026.26 602.280   2
   3   5  -2 5517.61 614.109   7
  -3  -5   2 4840.42 675.437   5
   3   5  -2 4553.61 591.126   3
   3   5  -2 5194.96 422.192   8
  -3  -5   2 5199.39 653.169   7
   3   5  -2 4944.34 550.233   4
  -3  -5   1 13682.5 945.170   2
  -3  -5   1 14363.8 1096.73   5
   3   5  -1 15726.3 1070.59   3
   3   5  -1 14474.0 618.643   8
   3   5  -1 14383.4 1021.28   7
  -3  -5   1 14507.1 1079.18   7
  -3  -5   0 1905.75 411.218   7
  -3  -5   0 1187.93 309.436   5
   3   5   0 1079.31 260.107   3
  -3  -5   0 1978.98 346.133   2
   3   5   0 1149.45 308.023   7
  -3  -5  -1 69816.6 2073.78   2
   3   5   1 68022.5 2082.42   2
  -3  -5  -1 67891.3 2373.48   5
  -3  -5  -1 69624.2 2479.76   3
   3   5   1 71863.9 2418.89   3
   3   5   1 71043.9 2607.75   7
  -3  -5  -1 73879.3 2583.24   7
  -3  -5  -2-58.3370 115.050   2
  -3  -5  -2 193.289 146.539   7
   3   5   2-25.5988 83.0635   2
   3   5   2-39.2993 82.5921   5
  -3  -5  -2-5.85940 122.675   3
   3   5   2-35.1260 49.4257   4
   3   5   2-115.500 115.568   3
   3   5   2 144.543 190.630   7
   3   5   3 8539.97 576.370   2
   3   5   3 9026.40 642.950   5
  -3  -5  -3 8717.95 812.268   3
   3   5   3 9800.71 924.958   7
   3   5   3 7963.59 568.788   4
   3   5   4 11119.2 661.567   2
   3   5   4 10815.7 670.784   5
  -3  -5  -4 12177.1 975.071   3
   3   5   4 11456.2 663.497   4
  -3  -5  -4 10758.8 499.391   8
  -3  -5  -4 11700.6 939.081   1
   3   5   4 13077.5 1074.48   7
   3   5   5 20364.5 951.041   2
  -3  -5  -5 22570.2 1406.39   3
   3   5   5 21721.2 918.744   5
   3   5   5 21852.8 962.567   4
  -3  -5  -5 19997.0 899.769   8
   3   5   5 23351.2 1510.02   7
  -3  -5  -5 23890.9 1424.90   7
  -3  -5  -5 22460.5 1279.83   1
   3   5   6 3295.32 580.881   7
  -3  -5  -6 3026.50 451.967   1
   3   5   6 3053.82 297.314   5
  -3  -5  -6 3239.33 390.529   8
  -3  -5  -6 3354.81 433.057   4
   3   5   6 3287.96 366.964   4
  -3  -5  -6 3832.76 576.977   3
   3   5   6 3028.69 356.841   2
  -3  -5  -7 47387.3 1864.62   1
   3   5   7 46918.0 1290.00   5
  -3  -5  -7 44100.0 1773.90   8
  -3  -5  -7 45057.1 2189.01   3
  -3  -5  -7 48218.8 1854.00   4
   3   5   7 50377.6 2359.04   7
   3   5   7 47028.7 1648.55   4
   3   5   8 2487.68 521.854   7
   3   5   8 2292.27 204.342   5
  -3  -5  -8 2054.03 349.386   1
  -3  -5  -8 2193.30 398.265   8
   3   5   8 2325.46 344.112   4
  -3  -5  -8 1598.65 334.423   4
  -3  -5  -8 1578.49 403.690   3
   3   5   9 1786.68 450.240   7
   3   5   9 876.079 227.906   4
   3   5   9 1139.49 122.787   5
  -3  -5  -9 1299.45 333.299   8
  -3  -5  -9 1062.22 258.626   4
   3   5  10 60.0097 174.720   7
   3   5  10-88.0046 98.6748   4
  -3  -5 -10-200.279 171.625   8
  -3  -5 -10-14.4059 98.2590   4
   3   5  11 5187.97 762.622   7
  -3  -5 -11 5593.72 686.221   4
  -3  -5 -12 654.415 252.988   4
   3   5  12 552.122 291.953   7
  -3  -5 -13 3454.83 586.892   4
   3   5  13 3311.98 674.175   7
  -3  -5 -14 99.9205 137.975   4
   3   5  14 24.8482 129.294   7
   3   5  15 780.790 354.413   7
  -3  -5 -15 722.698 281.097   4
   3   6  -9 263.903 189.780   4
  -3  -6   9-72.0627 286.096   2
   3   6  -8 1289.21 374.254   4
  -3  -6   8 887.279 448.003   2
  -3  -6   8 703.153 382.998   5
  -3  -6   7 3858.27 909.375   2
   3   6  -7 4982.47 748.159   4
  -3  -6   6-77.1445 256.811   2
   3   6  -6 92.9502 151.746   4
  -3  -6   6 281.564 256.186   5
   3   6  -6 303.618 107.089   7
   3   6  -5 5762.42 633.311   8
  -3  -6   5 6602.23 1000.35   2
  -3  -6   5 6809.17 936.691   5
  -3  -6   5 6199.18 887.755   7
   3   6  -5 6483.81 675.946   7
   3   6  -5 6844.85 782.554   4
   3   6  -4 270.490 108.708   6
  -3  -6   4 805.882 339.756   2
   3   6  -4 319.411 195.144   4
  -3  -6   4 194.967 158.924   5
   3   6  -4 113.498 82.2250   8
   3   6  -4 581.043 243.527   7
  -3  -6   4 250.150 185.592   7
  -3  -6   3 8693.64 925.294   2
  -3  -6   3 7892.71 963.043   5
   3   6  -3 8770.78 659.806   8
   3   6  -3 8479.89 807.610   7
  -3  -6   3 9229.98 1009.40   7
   3   6  -3 8697.59 832.892   4
  -3  -6   2 292.938 209.364   7
  -3  -6   2-26.0501 171.019   2
   3   6  -2 376.710 219.895   7
  -3  -6   2 50.5324 150.479   5
   3   6  -2 51.5278 55.4076   8
  -3  -6   2 143.291 119.595   8
   3   6  -2 112.562 112.800   3
  -3  -6   1 12117.0 889.976   2
  -3  -6   1 11632.0 1037.14   5
  -3  -6   1 10808.6 657.309   8
   3   6  -1 11383.2 949.835   3
   3   6  -1 10555.0 560.512   8
   3   6  -1 12356.6 1025.18   7
  -3  -6   1 11607.2 1085.30   7
  -3  -6   0 531.455 245.035   7
  -3  -6   0 517.950 241.198   5
  -3  -6   0 522.869 121.911   8
   3   6   0 409.063 184.585   3
  -3  -6   0 461.780 172.746   2
   3   6   0 358.874 164.484   7
  -3  -6  -1 49261.5 1663.52   2
  -3  -6  -1 45462.6 1949.79   5
   3   6   1 49223.9 1994.40   3
   3   6   1 48131.8 2172.58   7
  -3  -6  -1 47305.9 2188.14   7
  -3  -6  -2 2810.72 484.558   3
  -3  -6  -2 2841.09 487.037   7
   3   6   2 2538.23 327.418   2
  -3  -6  -2 2596.53 406.158   5
   3   6   2 2071.18 328.657   4
   3   6   2 2228.43 395.395   3
   3   6   2 2870.15 522.618   7
  -3  -6  -2 2567.78 303.585   2
   3   6   3 10559.1 629.843   2
  -3  -6  -3 11058.3 376.542   8
  -3  -6  -3 11589.1 995.438   3
   3   6   3 10299.9 730.619   4
   3   6   3 12082.6 1099.29   7
  -3  -6  -3 10765.3 979.072   7
  -3  -6  -3 9804.44 386.198   8
   3   6   4 4202.64 373.674   2
  -3  -6  -4 4790.82 646.644   3
   3   6   4 4339.31 451.992   4
  -3  -6  -4 4292.57 345.696   8
  -3  -6  -4 5699.06 716.794   7
   3   6   4 5446.04 741.841   7
  -3  -6  -5 42732.8 1472.21   8
   3   6   5 44802.5 1427.25   2
  -3  -6  -5 47405.9 2209.70   3
  -3  -6  -5 43021.8 1984.01   1
   3   6   5 44028.9 1596.68   4
   3   6   5 48723.2 2373.99   7
  -3  -6  -5 47639.2 2196.82   7
   3   6   6 164.550 105.137   4
  -3  -6  -6 185.922 121.285   8
   3   6   6 181.559 94.8485   2
  -3  -6  -6 230.903 190.963   3
  -3  -6  -6 185.101 187.545   1
   3   6   7 2120.00 333.762   4
  -3  -6  -7 2447.44 449.146   1
  -3  -6  -7 1894.00 352.328   8
  -3  -6  -7 2621.95 449.080   4
  -3  -6  -7 2010.53 467.516   3
   3   6   7 2238.57 310.019   2
   3   6   7 2849.94 616.972   7
   3   6   8-83.7517 171.134   7
   3   6   8-51.8016 95.9106   4
  -3  -6  -8-20.5861 94.7972   8
  -3  -6  -8 125.487 163.345   1
  -3  -6  -8 113.562 181.066   4
  -3  -6  -8 177.654 147.733   3
  -3  -6  -9 21513.4 1175.23   1
  -3  -6  -9 19016.1 1295.85   8
  -3  -6  -9 20009.0 1347.01   4
  -3  -6  -9 14458.7 1392.70   3
   3   6   9 18227.9 1101.70   4
   3   6   9 23930.1 1716.63   7
   3   6  10 2878.25 621.771   7
  -3  -6 -10 2886.42 523.572   8
   3   6  10 3203.12 473.609   4
  -3  -6 -10 2861.98 499.945   4
   3   6  11 2141.64 557.421   7
  -3  -6 -11 1737.77 407.888   4
   3   6  12 307.505 212.732   7
  -3  -6 -12 118.841 130.623   4
   3   6  13 1485.81 466.257   7
  -3  -6 -13 1619.56 412.894   4
   3   6  14 335.981 263.585   7
  -3  -6 -14-44.4661 102.962   4
   3   6  15 608.083 353.204   7
  -3  -6 -15 712.326 336.823   4
  -3  -7   8-1154.07 567.796   2
   3   7  -8 501.199 284.807   4
  -3  -7   7-365.812 324.873   2
   3   7  -7-56.2640 130.010   4
  -3  -7   7 102.065 182.643   5
  -3  -7   6-68.2002 233.391   2
   3   7  -6 7.91714 121.028   4
   3   7  -6 52.2037 167.902   7
  -3  -7   5 7375.33 1089.98   2
  -3  -7   5 10286.6 1247.64   5
   3   7  -5 9223.73 872.475   7
   3   7  -5 9396.36 976.574   4
  -3  -7   4 388.258 263.996   2
   3   7  -4 190.270 104.487   4
  -3  -7   4 95.2823 176.798   5
   3   7  -4 324.178 201.311   7
  -3  -7   3 5416.30 733.631   2
  -3  -7   3 5660.31 621.603   8
  -3  -7   3 5179.39 833.403   5
   3   7  -3 5392.49 531.501   8
   3   7  -3 6788.25 777.173   7
   3   7  -3 6042.41 738.827   4
  -3  -7   2 1621.54 366.227   2
  -3  -7   2 1686.15 310.714   8
  -3  -7   2 1482.58 443.371   5
   3   7  -2 1487.77 248.399   8
   3   7  -2 1490.42 378.452   7
  -3  -7   1 13819.9 977.615   2
  -3  -7   1 13408.4 1207.68   5
  -3  -7   1 10657.7 709.274   8
   3   7  -1 13329.6 1121.42   7
  -3  -7   0 1177.40 203.703   8
   3   7   0 1880.67 439.710   7
  -3  -7   0 2277.28 468.938   5
  -3  -7   0 1805.14 313.713   2
   3   7   0 1485.75 361.398   3
  -3  -7  -1 5966.06 524.629   2
  -3  -7  -1 4994.65 651.566   5
   3   7   1 5153.25 598.365   4
   3   7   1 6518.98 713.857   3
  -3  -7  -1 5118.84 338.534   8
   3   7   1 5420.85 743.997   7
  -3  -7  -2 634.071 240.461   5
  -3  -7  -2 368.528 117.843   2
  -3  -7  -2 262.642 147.268   3
   3   7   2 503.389 175.007   4
   3   7   2 701.817 257.174   7
   3   7   2 605.439 221.068   3
  -3  -7  -2 531.676 89.9335   8
  -3  -7  -3 24151.9 1277.34   5
  -3  -7  -3 25140.9 1557.05   3
  -3  -7  -3 26422.1 800.054   8
   3   7   3 22746.5 1241.95   4
   3   7   3 26335.5 1695.10   7
  -3  -7  -4 1945.80 252.674   8
   3   7   4 2327.70 262.623   2
  -3  -7  -4 1967.01 228.287   8
  -3  -7  -4 2403.19 487.441   3
   3   7   4 2383.93 560.840   7
   3   7   4 2150.13 347.129   4
   3   7   5 450.219 167.930   4
   3   7   5 500.322 117.784   2
  -3  -7  -5 381.669 136.751   8
  -3  -7  -5 267.698 183.905   3
   3   7   5 565.468 259.340   7
  -3  -7  -6 4432.50 627.382   1
   3   7   6 3752.06 322.581   2
  -3  -7  -6 3985.78 485.492   8
   3   7   6 4322.71 500.732   4
  -3  -7  -6 4286.01 669.497   3
   3   7   6 4287.11 727.804   7
   3   7   7 38429.6 1268.83   2
  -3  -7  -7 39337.6 2218.52   3
   3   7   7 38939.9 1650.46   4
   3   7   7 41516.3 2367.03   7
  -3  -7  -7 37087.0 1842.78   1
   3   7   8 238.033 135.079   4
  -3  -7  -8 315.866 180.455   1
   3   7   8 310.733 129.603   2
  -3  -7  -8 300.769 176.036   8
  -3  -7  -8 42.9073 133.078   4
  -3  -7  -8 581.782 268.907   3
   3   7   8 656.895 321.294   7
  -3  -7  -9 10256.8 861.701   1
  -3  -7  -9 9874.26 998.309   4
  -3  -7  -9 7069.61 1001.61   3
  -3  -7  -9 9465.59 932.631   8
   3   7   9 8762.72 790.873   4
  -3  -7 -10 217.764 141.163   1
  -3  -7 -10 156.731 200.776   3
  -3  -7 -10 319.965 204.671   4
   3   7  10 452.915 293.474   7
  -3  -7 -11 1437.93 394.446   4
  -3  -7 -11 1206.35 470.464   3
   3   7  11 1656.85 540.875   7
  -3  -7 -12 199.419 214.631   4
   3   7  12 184.922 209.379   7
  -3  -7 -13 1714.35 441.743   4
   3   7  13 1971.21 581.592   7
  -3  -7 -14 35.0389 115.746   4
   3   7  14 440.224 396.164   7
  -3  -7 -15-57.8586 146.956   4
   3   7  15 91.2305 173.408   7
  -3  -8   7 1465.30 630.956   2
  -3  -8   6 1128.79 504.219   2
   3   8  -6 1843.99 477.322   4
  -3  -8   6 1563.99 517.391   5
   3   8  -6 1634.13 412.918   7
  -3  -8   5 405.704 245.086   2
   3   8  -5 832.966 321.709   4
  -3  -8   5 914.975 453.418   5
   3   8  -5 781.235 291.857   7
  -3  -8   4 402.248 229.244   2
   3   8  -4 50.4297 134.800   4
  -3  -8   4 159.677 251.027   5
  -3  -8   4 224.541 190.709   8
  -3  -8   3 5583.96 647.708   8
  -3  -8   3 7283.28 860.404   2
  -3  -8   3 5785.56 967.807   5
   3   8  -3 7104.01 856.417   7
  -3  -8   2 960.773 277.872   2
  -3  -8   2 879.150 380.447   5
  -3  -8   2 1068.13 261.857   8
   3   8  -2 1338.22 403.750   7
  -3  -8   1 3615.50 501.162   2
  -3  -8   1 3186.59 399.924   8
  -3  -8   1 3152.66 667.397   5
   3   8  -1 3988.49 668.639   7
  -3  -8   0 2069.91 489.384   5
  -3  -8   0 1838.42 265.980   8
  -3  -8   0 1562.18 297.799   2
   3   8   0 2041.65 496.670   7
  -3  -8  -1 10100.2 679.114   2
  -3  -8  -1 7586.71 475.377   8
  -3  -8  -1 8656.66 932.741   5
   3   8   1 10345.5 1094.64   7
  -3  -8  -2 658.385 158.788   2
  -3  -8  -2 895.987 284.921   5
  -3  -8  -2 684.787 126.650   8
  -3  -8  -2 1030.75 329.129   3
   3   8   2 1301.83 393.413   7
  -3  -8  -3 2287.59 410.392   5
  -3  -8  -3 1648.22 206.203   8
  -3  -8  -3 1549.48 407.455   3
   3   8   3 1493.51 317.994   4
   3   8   3 2007.15 493.103   7
  -3  -8  -4 2084.75 268.302   8
  -3  -8  -4 2182.58 478.761   3
   3   8   4 2356.07 402.958   4
   3   8   4 2254.76 534.068   7
  -3  -8  -5 8504.18 994.973   3
  -3  -8  -5 8423.95 598.973   8
  -3  -8  -5 6810.42 595.441   8
   3   8   5 8155.21 754.859   4
   3   8   5 8433.80 1026.69   7
   3   8   6 348.183 168.543   4
  -3  -8  -6 148.436 95.9783   8
  -3  -8  -6 126.484 110.083   3
  -3  -8  -7 8566.05 1037.77   3
   3   8   7 7516.73 1001.52   7
  -3  -8  -7 6074.76 763.828   1
  -3  -8  -8 305.225 154.224   8
  -3  -8  -8-79.6307 158.849   3
  -3  -8  -8 110.685 117.559   1
   3   8   8 400.109 289.762   7
  -3  -8  -9 5754.39 685.609   1
  -3  -8  -9 3848.09 682.016   4
  -3  -8  -9 3730.98 737.642   3
   3   8   9 4221.37 829.688   7
  -3  -8 -10 163.192 141.863   1
  -3  -8 -10-66.1260 165.344   4
  -3  -8 -10-66.5449 147.218   3
   3   8  10 91.0758 189.543   7
  -3  -8 -11 1304.56 395.695   4
  -3  -8 -11 896.644 403.419   3
   3   8  11 1772.32 557.498   7
  -3  -8 -12-119.906 124.311   4
  -3  -8 -12 411.431 278.094   3
   3   8  12 394.396 314.203   7
  -3  -8 -13 1217.67 412.323   4
   3   8  13 1760.94 548.634   7
  -3  -8 -14-132.565 150.323   4
   3   8  14 310.340 220.614   7
  -3  -9   7 241.154 181.735   2
  -3  -9   6 33.6641 169.877   2
   3   9  -6 194.741 175.326   7
  -3  -9   5 673.998 337.127   2
   3   9  -5 686.050 301.314   4
   3   9  -5 622.680 279.112   7
  -3  -9   5 600.477 412.428   5
  -3  -9   4 341.240 216.475   2
   3   9  -4 220.201 113.561   4
  -3  -9   4 331.597 263.190   5
   3   9  -4 322.505 215.481   7
  -3  -9   3 2705.47 522.226   2
  -3  -9   3 3430.18 808.617   5
   3   9  -3 2996.16 607.478   7
   3   9  -2 1355.80 421.777   7
  -3  -9   2 870.483 389.091   5
  -3  -9   2 561.312 242.399   2
  -3  -9   1 2794.59 691.387   5
  -3  -9   1 2504.85 406.320   2
   3   9  -1 1661.00 471.081   7
  -3  -9   0 1651.81 491.356   5
  -3  -9   0 1640.70 273.843   8
  -3  -9   0 1311.92 274.681   2
   3   9   0 1886.74 499.367   7
  -3  -9  -1 4478.88 430.093   2
  -3  -9  -1 3903.43 369.128   8
  -3  -9  -1 3719.81 648.017   5
  -3  -9  -2 4306.31 637.128   5
  -3  -9  -2 3449.71 319.998   8
   3   9   2 4020.85 718.329   7
  -3  -9  -3 5538.00 667.322   5
  -3  -9  -3 5564.15 785.008   3
  -3  -9  -3 5267.49 402.960   8
   3   9   3 6016.93 890.951   7
  -3  -9  -4 189.645 90.7081   8
  -3  -9  -4 17.2039 119.604   3
   3   9   4-188.492 303.969   7
  -3  -9  -5 1810.94 296.133   8
  -3  -9  -5 1545.71 448.132   3
   3   9   5 1164.74 384.909   7
  -3  -9  -6 256.732 140.663   8
  -3  -9  -6 43.7568 112.880   3
   3   9   6 219.069 159.564   7
  -3  -9  -7 488.787 251.528   1
  -3  -9  -7 1021.72 391.288   3
   3   9   7 815.459 372.359   7
  -3  -9  -8-78.0626 142.302   3
  -3  -9  -8 52.9730 135.888   1
   3   9   8-101.238 175.195   7
  -3  -9  -9 3756.17 602.681   1
  -3  -9  -9 3047.06 699.988   3
   3   9   9 3852.55 776.925   7
  -3  -9 -10-126.190 103.437   1
  -3  -9 -10 189.956 201.568   3
   3   9  10-34.5893 194.784   7
  -3  -9 -11 367.904 211.995   4
  -3  -9 -11 304.820 284.837   3
   3   9  11 683.552 375.704   7
  -3  -9 -12 247.618 233.312   4
   3   9  12-115.883 245.868   7
  -3  -9 -13 1055.07 399.784   4
   3  10  -5 568.066 299.955   7
   3  10  -4 14.6799 151.509   7
  -3 -10   3 172.997 254.328   5
   3  10  -3 281.343 221.386   7
  -3 -10   2-70.1836 209.607   5
   3  10  -2-70.7560 165.784   7
  -3 -10   1 1820.72 584.071   5
   3  10  -1 2642.32 611.455   7
  -3 -10   0 1662.68 541.025   5
   3  10   0 1781.67 540.957   7
  -3 -10  -1 1568.36 450.058   5
   3  10   1 3019.08 645.065   7
  -3 -10  -2 758.030 282.260   5
   3  10   2 1315.12 502.280   7
  -3 -10  -3 2250.10 453.323   5
   3  10   3 3959.64 763.041   7
  -3 -10  -4 401.972 220.824   3
   3  10   4 508.229 335.860   7
  -3 -10  -5 1000.27 361.421   3
   3  10   5 940.384 356.773   7
  -3 -10  -6 155.755 121.607   3
   3  10   6 79.7810 160.996   7
  -3 -10  -7 2863.73 677.400   3
   3  10   7 2328.30 613.753   7
  -3 -10  -8 42.8016 133.715   1
  -3 -10  -8 181.271 217.828   3
   3  10   8-85.3217 207.673   7
  -3 -10  -9 1247.13 464.532   3
  -3 -10  -9 1725.21 426.657   1
   3  10   9 2594.75 654.578   7
  -3 -10 -10 364.408 284.586   3
   3  10  10 19.4201 163.004   7
  -3 -11   2-917.489 499.408   5
  -3 -11   1 388.573 228.013   5
  -3 -11   0-60.3154 163.029   5
   3  11   0-84.0064 260.018   7
  -3 -11  -1 1054.72 416.249   5
   3  11   1 1434.61 482.020   7
  -3 -11  -2 549.831 288.178   5
   3  11   2 530.965 345.217   7
  -3 -11  -3 1248.01 375.539   5
   3  11   3 1182.98 442.895   7
  -3 -11  -4 537.331 289.474   3
   3  11   4 344.688 224.167   7
  -3 -11  -5 2306.55 579.921   3
   3  11   5 2690.42 678.875   7
  -3 -11  -6 302.675 239.127   3
   3  11   6 813.484 371.391   7
  -3 -11  -7 1125.89 445.834   3
  -3 -11  -8 153.751 198.405   1
  -3 -11  -8 61.5174 252.575   3
  -3 -11  -9 867.836 407.031   3
  -3 -12   0-495.981 329.990   5
  -3 -12  -5 319.674 258.664   3
  -3 -12  -6 69.8989 174.123   3
  -3 -12  -7 1395.95 502.124   3
  -3 -12  -8 428.526 284.220   3
   4 -10  -1 136.521 172.011   8
  -4   9   6 2118.03 557.308   6
   4  -9  -6 1902.35 592.630   4
  -4   9   5 51.7871 106.358   6
   4  -9  -5-228.178 260.254   8
  -4   9   4 3479.14 706.590   6
   4  -9  -4 2542.69 686.084   8
  -4   9   3 54.5277 132.031   6
   4  -9  -3 363.890 248.536   8
  -4   9   2 1830.92 492.315   6
   4  -9  -2 2192.01 652.234   8
  -4   9   1 185.189 208.254   6
   4  -9  -1-62.8639 141.343   8
  -4   9   0 1473.59 447.574   6
   4  -9   0 1144.40 455.687   8
  -4   9  -1 389.384 212.850   6
   4  -9   1 694.561 381.057   8
  -4   9  -2 4013.93 717.607   6
   4  -9   2 3708.94 788.482   8
  -4   9  -3-486.295 271.060   6
   4  -9   3-1.76376 133.709   8
  -4   9  -4 1880.69 463.284   6
   4  -9   4 1375.77 466.130   8
  -4   9  -5-123.193 162.075   6
  -4   9  -6 823.991 321.170   6
  -4   8   9 142.444 146.611   6
  -4   8   8 939.405 389.825   6
  -4   8   7 802.769 355.453   6
   4  -8  -7-209.136 260.658   4
  -4   8   6 3845.13 735.334   6
   4  -8  -6 3780.38 790.150   4
  -4   8   5 364.480 331.160   6
   4  -8  -5 348.697 255.043   4
  -4   8   4 5895.34 902.034   6
   4  -8  -4 6367.91 1061.62   8
  -4   8   3 1555.40 470.715   6
   4  -8  -3 949.233 417.338   8
  -4   8   2 1779.54 488.557   6
   4  -8  -2 1470.30 464.202   8
  -4   8   1 1856.38 485.746   6
   4  -8  -1 1295.91 439.542   8
  -4   8   0 13374.8 1275.95   6
   4  -8   0 14332.6 1499.20   8
  -4   8  -1 248.852 161.234   6
   4  -8   1-67.2726 205.518   8
  -4   8  -2 9778.50 1058.71   6
   4  -8   2 9382.06 1196.45   8
  -4   8  -3 124.438 114.379   6
   4  -8   3 151.701 134.777   8
  -4   8  -4 1916.65 467.255   6
   4  -8   4 2397.20 623.830   8
  -4   8  -5-107.393 160.219   6
   4  -8   5 157.625 173.874   8
  -4   8  -6 4490.29 719.998   6
   4  -8   6 4412.13 826.499   8
  -4   8  -7-248.007 177.066   6
  -4   7  11 218.734 171.094   6
  -4   7  10 655.339 303.507   6
  -4   7   9 170.749 149.509   6
   4  -7  -9-345.049 249.932   4
  -4   7   8 2814.59 616.946   6
  -4   7   8 2436.84 463.712   2
   4  -7  -8 2658.26 653.119   4
  -4   7   7 169.921 168.881   6
  -4   7   7 118.377 123.764   2
   4  -7  -7-163.508 282.907   4
  -4   7   6 1859.39 527.943   6
   4  -7  -6 2034.28 581.662   4
  -4   7   5 346.950 276.342   6
   4  -7  -5-95.2646 262.173   4
  -4   7   4 5652.13 895.468   6
   4  -7  -4 5715.78 628.357   2
   4  -7  -4 7306.76 1013.11   4
   4  -7  -3 27.1676 77.0610   2
  -4   7   3 461.973 296.777   6
   4  -7  -3 20.9411 200.440   8
  -4   7   2 27938.4 1891.23   6
   4  -7  -2 24104.8 1349.65   2
   4  -7  -2 27724.5 1983.21   8
   4  -7  -1 290.399 223.116   8
   4  -7  -1 233.187 75.7478   2
   4  -7   0 3907.11 524.501   2
  -4   7   0 4397.18 696.392   6
   4  -7   0 4470.75 778.900   8
  -4   7  -1 110.198 106.780   6
   4  -7   1 322.413 130.448   2
   4  -7   1 335.652 291.886   8
   4  -7   2 11638.7 1241.85   8
  -4   7  -2 8891.89 975.459   6
   4  -7   2 10271.6 879.452   2
   4  -7   3 198.064 195.113   8
  -4   7  -3 225.739 155.252   6
  -4   7  -4 9119.54 985.062   6
   4  -7   4 9765.00 1163.32   8
  -4   7  -5 88.9744 83.9679   6
   4  -7   5 153.512 192.658   8
  -4   7  -6 7677.50 899.131   6
   4  -7   6 8354.41 1092.04   8
  -4   7  -7 226.900 140.138   6
   4  -7   7-1446.25 473.328   8
  -4   7  -8 9848.06 1007.65   6
   4  -7   8 8823.34 1203.22   8
  -4   7  -9 21.4321 98.2315   4
  -4   6  11-142.514 194.974   6
  -4   6  10 1066.15 380.524   6
  -4   6  10 901.997 339.471   2
   4  -6 -10 1373.32 501.777   4
  -4   6   9-11.0118 145.602   2
   4  -6  -9 253.589 182.944   4
  -4   6   8 897.174 372.853   6
  -4   6   8 1094.99 346.092   2
   4  -6  -8 1301.97 429.729   4
  -4   6   7 838.504 370.153   6
  -4   6   7 489.376 228.812   2
   4  -6  -7 212.796 161.853   4
  -4   6   6 2144.23 574.061   6
  -4   6   6 2561.63 452.930   2
   4  -6  -6 2574.29 600.632   4
  -4   6   5 948.387 377.765   6
  -4   6   5 900.295 268.732   2
   4  -6  -5 701.049 237.592   2
   4  -6  -5 1170.03 411.608   4
   4  -6  -5 721.277 219.359   7
   4  -6  -4 20190.1 1254.21   7
  -4   6   4 16211.5 1526.59   6
   4  -6  -4 19085.5 1190.14   2
   4  -6  -3-78.2141 123.164   2
  -4   6   3 192.238 223.746   6
   4  -6  -3-21.5208 194.290   4
   4  -6  -3 35.9818 148.875   7
  -4   6   2 322.644 230.701   6
   4  -6  -2 411.351 261.864   8
   4  -6  -2 468.342 207.115   7
   4  -6  -2 658.850 213.207   2
  -4   6   1 256.431 214.755   6
   4  -6  -1 209.477 129.543   8
   4  -6  -1 182.958 100.519   2
   4  -6  -1 186.803 54.3164   3
   4  -6   0 6107.25 639.406   2
  -4   6   0 6461.83 808.687   6
   4  -6   0 5993.09 833.999   8
  -4   6  -1 157.667 94.1971   6
   4  -6   1-90.4470 136.629   2
   4  -6   1 74.4704 122.903   8
  -4   6  -2 18763.3 1368.66   6
   4  -6   2 23170.8 1679.19   8
   4  -6   2 20092.6 1221.19   2
  -4   6  -3 192.018 136.733   6
   4  -6   3-37.4804 156.614   8
  -4   6  -4 11283.9 1041.15   6
   4  -6   4 12388.0 1249.38   8
  -4   6  -5 232.563 165.778   6
   4  -6   5 38.4180 122.712   8
  -4   6  -6 6981.17 826.813   6
   4  -6   6 9073.02 1085.77   8
  -4   6  -7-134.489 123.587   6
   4  -6   7-549.242 289.973   8
  -4   6  -8 15474.5 1209.95   6
   4  -6   8 16148.3 1552.74   8
  -4   6  -9 197.305 147.863   6
  -4   6  -9 335.734 186.310   4
   4  -6   9 37.6682 239.102   8
  -4   6 -10 3268.58 644.902   4
  -4   5  12 225.597 156.724   2
  -4   5  11 9.77683 136.675   2
  -4   5  10 609.823 296.315   6
  -4   5  10 405.288 246.905   2
   4  -5 -10 1062.27 391.253   4
  -4   5   9 149.070 171.290   6
  -4   5   9 138.316 174.496   2
   4  -5  -9 14.8702 108.539   4
  -4   5   8 5006.54 714.351   2
  -4   5   8 3982.42 730.050   6
   4  -5  -8 5374.70 857.175   4
   4  -5  -7 545.110 210.995   5
  -4   5   7 727.481 326.005   6
  -4   5   7 474.594 239.399   2
   4  -5  -7-15.4390 177.748   4
   4  -5  -6 2223.66 321.433   7
   4  -5  -6 2758.77 378.346   1
  -4   5   6 2111.22 581.645   6
   4  -5  -6 2058.39 397.701   5
  -4   5   6 2032.12 411.541   2
   4  -5  -6 2530.05 470.531   2
   4  -5  -6 3202.67 605.933   4
  -4   5   5 1562.39 467.212   6
   4  -5  -5 2244.17 412.952   2
  -4   5   5 1942.14 391.942   2
   4  -5  -5 2257.69 479.069   4
   4  -5  -5 2526.58 378.565   7
   4  -5  -4 941.656 252.145   2
  -4   5   4 772.224 364.714   6
  -4   5   4 1252.10 299.786   2
   4  -5  -4 561.486 202.804   4
   4  -5  -4 1061.68 256.322   7
   4  -5  -3 175.687 128.255   2
  -4   5   3 343.383 240.226   6
   4  -5  -3-74.8442 206.020   4
   4  -5  -3 167.044 110.373   7
   4  -5  -2 28879.8 1447.58   2
   4  -5  -2 29229.4 1734.33   4
  -4   5   2 32622.3 1588.88   4
   4  -5  -2 28196.6 1408.63   7
  -4   5   1 411.329 182.744   4
  -4   5   1 88.6766 167.797   6
   4  -5  -1 255.709 93.2893   3
   4  -5  -1 316.302 229.770   8
   4  -5  -1 47.8461 83.6031   2
   4  -5  -1 371.448 206.045   7
   4  -5   0 12915.6 927.660   2
  -4   5   0 12718.3 1117.65   6
   4  -5   0 14106.0 483.732   3
   4  -5   0 13904.8 1206.69   8
  -4   5   0 14260.0 1019.53   4
   4  -5   0 14613.5 1022.99   7
  -4   5  -1 58.0009 104.250   6
   4  -5   1-133.989 151.330   2
   4  -5   1-93.6982 204.748   8
   4  -5   1-8.02237 93.8875   7
  -4   5  -1-38.2095 97.8374   4
  -4   5  -2 8645.80 864.459   6
   4  -5   2 8970.88 981.814   8
  -4   5  -2 8524.16 795.921   4
   4  -5   2 9175.48 793.175   2
  -4   5  -3 1678.43 377.670   6
   4  -5   3 1842.27 445.869   8
  -4   5  -3 1963.22 393.931   4
  -4   5  -4 12507.5 1048.71   6
  -4   5  -4 12914.2 1027.93   4
   4  -5   4 13186.9 1221.07   8
  -4   5  -5 15.0510 87.8387   6
   4  -5   5-18.8836 134.955   8
  -4   5  -6 567.445 232.953   6
   4  -5   6 645.169 299.463   8
  -4   5  -7-35.3027 98.8731   6
   4  -5   7-231.572 237.420   8
  -4   5  -7-39.6744 37.1436   3
  -4   5  -8 7239.08 792.492   6
   4  -5   8 9425.62 1126.84   8
  -4   5  -9 38.0250 106.073   6
  -4   5  -9-69.1417 171.858   4
   4  -5   9 153.593 267.864   8
  -4   5 -10 10485.6 939.219   6
   4  -5  10 13133.0 1457.27   8
  -4   5 -10 12135.9 1139.08   4
  -4   5 -11 52.4285 118.790   4
  -4   5 -12 945.465 352.989   4
  -4   4  12 365.033 245.678   2
   4  -4 -11 850.346 382.485   4
  -4   4  11-66.6774 114.043   2
   4  -4 -10 2389.96 634.221   4
  -4   4  10 2237.19 491.516   6
  -4   4  10 1560.62 462.691   2
   4  -4  -9 400.367 264.400   4
  -4   4   9 185.692 153.240   6
  -4   4   9 388.162 261.245   2
   4  -4  -8 4702.20 759.422   4
  -4   4   8 3047.56 608.289   6
   4  -4  -8 3394.86 521.625   5
  -4   4   8 4543.22 686.330   2
   4  -4  -7 656.918 298.857   4
  -4   4   7 1066.79 395.055   6
   4  -4  -7 687.612 171.101   1
   4  -4  -7 670.418 215.146   5
  -4   4   7 742.535 239.560   2
   4  -4  -6 456.619 112.931   7
   4  -4  -6 461.310 146.193   1
  -4   4   6 681.873 289.381   6
   4  -4  -6 517.390 207.039   5
  -4   4   6 544.278 214.745   2
   4  -4  -6 884.175 345.098   4
  -4   4   5 1894.52 488.207   6
   4  -4  -5 2613.40 470.020   2
   4  -4  -5 2074.20 331.088   1
  -4   4   5 2372.60 426.901   2
   4  -4  -5 2160.97 294.043   7
   4  -4  -5 2709.29 508.630   4
  -4   4   4 33416.7 1663.76   2
   4  -4  -4 34149.8 1634.75   2
   4  -4  -4 37148.7 1895.03   4
  -4   4   4 37414.7 1759.38   4
   4  -4  -4 33378.9 1336.29   7
   4  -4  -3 2726.13 425.265   2
  -4   4   3 2054.56 482.372   6
  -4   4   3 3066.14 447.473   2
  -4   4   3 3505.92 487.854   4
   4  -4  -3 2755.84 367.510   7
   4  -4  -3 2945.09 492.485   4
  -4   4   2 15075.2 1246.25   6
   4  -4  -2 16740.4 1083.67   2
  -4   4   2 18216.6 1100.54   4
   4  -4  -2 17221.9 1197.33   4
   4  -4  -2 15732.0 928.113   7
  -4   4   1 903.698 239.611   4
  -4   4   1 607.693 214.489   6
   4  -4  -1 1140.89 303.941   8
   4  -4  -1 578.479 181.168   2
   4  -4  -1 940.853 274.141   4
   4  -4  -1 678.601 201.234   7
  -4   4   0 1915.88 336.373   4
   4  -4   0 1677.94 218.176   3
  -4   4   0 1586.06 363.423   6
   4  -4   0 1439.22 379.523   8
   4  -4   0 1586.49 316.433   2
   4  -4   0 1834.64 321.527   7
   4  -4   1 4530.02 532.386   2
  -4   4  -1 4524.13 599.314   6
   4  -4   1 4512.71 635.365   8
   4  -4   1 5314.36 578.673   7
  -4   4  -1 4727.41 532.401   4
  -4   4  -2 23111.0 1398.05   6
   4  -4   2 24446.9 1548.39   8
  -4   4  -2 25548.8 1304.03   4
   4  -4   2 24816.0 1349.88   7
   4  -4   2 25228.6 1330.17   2
  -4   4  -3-33.3715 117.628   6
   4  -4   3 174.067 161.627   8
   4  -4   3 301.694 199.223   7
  -4   4  -3 432.704 171.189   4
  -4   4  -4 6399.90 699.838   6
  -4   4  -4 7408.33 715.717   4
   4  -4   4 6708.36 812.354   8
  -4   4  -5 80.4102 124.201   6
   4  -4   5-28.2276 129.175   8
  -4   4  -5 52.4430 49.9851   3
  -4   4  -6 3927.96 552.698   6
   4  -4   6 4726.03 697.831   8
  -4   4  -6 4332.72 346.561   3
  -4   4  -7-54.0744 71.7365   6
   4  -4   7-112.319 183.380   8
  -4   4  -7 98.1063 81.1870   3
  -4   4  -8 4127.80 564.064   6
   4  -4   8 5242.98 795.499   8
  -4   4  -8 5003.22 486.074   3
  -4   4  -8 3864.63 589.185   4
  -4   4  -9 177.869 128.006   6
  -4   4  -9-36.1510 98.1827   4
   4  -4   9 112.061 151.167   8
  -4   4 -10 6087.33 681.877   6
   4  -4  10 5963.10 948.103   8
  -4   4 -10 5572.90 720.648   4
  -4   4 -11-35.5921 150.771   4
   4  -4  11-33.3324 137.560   8
  -4   4 -12 1117.65 342.514   4
  -4   4 -13-335.655 228.173   4
  -4   3  12 936.318 419.402   2
   4  -3 -11-1.46871 171.832   4
  -4   3  11 162.721 114.752   2
   4  -3 -10 1401.88 436.852   4
  -4   3  10 704.278 244.290   6
  -4   3  10 1036.45 377.364   2
   4  -3  -9-1.26425 159.136   4
  -4   3   9 53.5561 116.318   6
  -4   3   9 438.518 261.216   2
  -4   3   8 8923.01 1001.96   2
  -4   3   8 8091.89 900.657   6
   4  -3  -8 9425.43 1026.98   4
   4  -3  -7 260.777 240.431   4
  -4   3   7 72.2217 118.143   6
   4  -3  -7-108.775 126.457   5
  -4   3   7-85.9707 166.133   2
  -4   3   6 28131.8 1700.53   2
  -4   3   6 29182.2 1792.87   6
   4  -3  -6 28191.0 1513.70   5
   4  -3  -6 29818.7 1728.73   4
   4  -3  -6 25833.6 1186.23   1
   4  -3  -5 8677.74 671.157   1
  -4   3   5 7692.69 818.614   2
  -4   3   5 10134.2 1018.10   6
   4  -3  -5 8435.48 827.092   2
   4  -3  -5 8103.34 763.330   5
   4  -3  -5 8810.72 884.313   4
   4  -3  -5 8571.83 445.346   7
  -4   3   4 2238.46 420.000   4
   4  -3  -4 2084.93 341.304   1
  -4   3   4 2230.21 472.465   6
   4  -3  -4 1885.90 368.680   2
  -4   3   4 1999.79 406.354   2
   4  -3  -4 1882.76 238.978   7
   4  -3  -4 2311.61 441.660   4
  -4   3   3-98.4246 115.416   4
   4  -3  -3-35.7656 77.4497   1
   4  -3  -3-228.998 182.956   2
  -4   3   3 73.2203 95.1306   2
   4  -3  -3 129.832 101.346   7
   4  -3  -3-45.0057 127.078   4
   4  -3  -2 35990.9 1674.09   4
  -4   3   2 38296.8 1847.09   6
   4  -3  -2 37270.3 1662.76   2
  -4   3   2 39753.4 1638.86   4
   4  -3  -2 38507.5 1368.53   7
  -4   3   2 37424.5 1673.10   2
  -4   3   1 376.763 165.050   6
   4  -3  -1 321.329 117.897   7
   4  -3  -1 260.666 107.937   2
   4  -3  -1 417.876 174.583   4
   4  -3   0 82193.0 2601.47   2
  -4   3   0 84771.3 2793.35   6
   4  -3   0 82097.0 2180.99   3
   4  -3   0 84755.0 2877.79   8
   4  -3   0 84561.4 2614.61   4
   4  -3   0 82687.8 2382.76   7
  -4   3  -1-178.848 193.092   6
   4  -3   1-81.8029 95.4228   2
   4  -3   1 57.1819 93.5423   8
   4  -3   1 38.6750 55.0314   3
   4  -3   1-14.6525 111.440   7
  -4   3  -2 45.8201 88.0610   6
   4  -3   2-167.006 143.566   2
   4  -3   2 240.051 149.002   8
   4  -3   2 73.8140 92.8210   7
  -4   3  -3 9.75652 103.122   6
   4  -3   3 183.897 157.089   6
   4  -3   3-308.331 218.545   8
   4  -3   3 70.9025 111.046   7
  -4   3  -4 40766.4 1768.76   6
   4  -3   4 41138.2 1704.69   6
  -4   3  -4 37750.7 1174.35   3
   4  -3   4 41057.8 1957.66   8
  -4   3  -4 38413.9 1822.73   8
   4  -3   5 2435.92 402.930   6
  -4   3  -5 2036.57 373.326   6
  -4   3  -5 1775.76 233.810   3
   4  -3   5 1998.47 401.903   8
  -4   3  -6 13228.4 972.286   6
   4  -3   6 14320.8 977.340   6
   4  -3   6 13990.9 1147.75   8
  -4   3  -6 13506.2 749.633   3
  -4   3  -7 298.867 163.857   6
   4  -3   7 479.049 191.572   6
   4  -3   7 99.3830 111.849   8
  -4   3  -7 280.056 122.017   3
  -4   3  -8 7381.01 738.695   6
   4  -3   8 8041.20 749.883   6
   4  -3   8 6822.11 883.209   8
  -4   3  -8 7411.32 735.161   4
  -4   3  -9-35.3279 90.2365   6
  -4   3  -9-190.634 171.230   4
   4  -3   9 108.769 190.500   8
  -4   3 -10 5120.97 610.777   6
   4  -3  10 3726.54 719.301   8
  -4   3 -10 4324.58 589.476   4
   4  -3  11 363.066 289.949   8
  -4   3 -11 16.7186 96.5233   4
  -4   3 -12 1896.24 428.354   4
   4  -3  12 2734.66 716.838   8
  -4   3 -13-150.941 145.926   4
  -4   2  12 407.829 258.986   2
  -4   2  11 373.819 318.548   2
   4  -2 -11 79.9492 152.654   4
  -4   2  10 2578.57 591.298   2
   4  -2 -10 2179.33 528.330   4
  -4   2   9 237.947 160.788   2
   4  -2  -9 181.352 168.242   4
  -4   2   9 47.6045 54.3880   6
  -4   2   8 5677.35 639.728   6
  -4   2   8 6195.07 866.256   2
   4  -2  -8 6426.78 810.690   4
   4  -2  -7 9598.64 959.299   4
  -4   2   7 9851.35 859.623   6
  -4   2   7 10504.9 1069.49   2
   4  -2  -7 7800.89 822.271   5
  -4   2   6 7538.99 878.887   2
  -4   2   6 9347.94 828.042   6
   4  -2  -6 8151.03 796.100   5
   4  -2  -6 9111.59 912.991   4
   4  -2  -5 1982.14 392.214   4
  -4   2   5 2152.60 401.534   4
  -4   2   5 1665.70 339.000   6
   4  -2  -5 1750.37 308.782   1
   4  -2  -5 2168.62 412.841   5
   4  -2  -5 2206.48 430.302   2
  -4   2   5 1727.62 390.343   2
  -4   2   4 37814.1 1824.35   2
  -4   2   4 36545.4 1716.32   6
   4  -2  -4 36884.7 1727.19   2
   4  -2  -4 35033.2 1681.54   5
   4  -2  -4 39213.2 1777.42   4
  -4   2   4 38567.4 1693.36   4
   4  -2  -4 35153.2 964.926   7
   4  -2  -4 35024.5 1482.37   1
   4  -2  -3 663.935 206.842   4
  -4   2   3 1627.22 302.090   4
   4  -2  -3 1353.22 316.432   2
   4  -2  -3 1545.61 202.589   7
  -4   2   3 1397.90 312.185   6
  -4   2   3 1557.07 346.377   2
   4  -2  -3 1523.98 291.108   1
  -4   2   2 63675.3 2316.37   2
  -4   2   2 63711.4 2271.79   6
   4  -2  -2 62351.5 2256.35   2
   4  -2  -2 63433.8 2127.45   1
   4  -2  -2 61577.3 2133.75   4
   4  -2  -2 62705.7 1685.13   7
  -4   2   1 154.371 110.254   4
  -4   2   1-128.239 176.385   6
  -4   2   1-88.1575 142.928   2
   4  -2  -1 2.95750 70.6152   7
   4  -2  -1-54.0908 75.8051   2
   4  -2  -1-1.58795 78.8229   4
   4  -2   0 14336.6 938.100   2
  -4   2   0 12925.0 906.491   6
   4  -2   0 12784.2 764.779   3
   4  -2   0 14415.1 988.870   8
   4  -2   0 13414.0 812.755   4
  -4   2   0 14683.5 815.112   4
  -4   2  -1 46.2904 83.2417   4
  -4   2  -1-92.0676 143.485   6
   4  -2   1-3.08681 68.5596   2
   4  -2   1-18.2491 84.4734   8
   4  -2   1-50.7791 96.7716   3
  -4   2  -2 80515.2 2582.06   6
   4  -2   2 85861.1 2768.29   8
   4  -2   2 85118.6 2141.50   3
  -4   2  -2 83298.0 2245.64   4
   4  -2   2 86124.1 2641.00   2
  -4   2  -3 10056.2 792.956   6
   4  -2   3 10169.3 772.737   6
  -4   2  -3 8526.80 548.246   3
  -4   2  -3 10236.6 657.276   4
   4  -2   3 10530.6 855.107   8
   4  -2   3 9671.06 792.458   2
  -4   2  -4 46465.4 1821.51   6
   4  -2   4 47395.2 1813.80   6
  -4   2  -4 42580.8 1404.10   3
   4  -2   4 47618.2 1983.90   8
  -4   2  -4 44669.6 1884.44   8
  -4   2  -4 43318.3 1560.39   4
  -4   2  -5-51.6675 106.313   6
   4  -2   5 210.000 136.362   6
   4  -2   5-175.350 147.573   8
  -4   2  -5 125.533 102.172   8
  -4   2  -5-52.4771 75.8129   3
  -4   2  -6 15904.3 1038.25   6
   4  -2   6 15648.7 1019.21   6
   4  -2   6 15474.2 1157.08   8
  -4   2  -6 14734.6 1124.83   8
  -4   2  -6 15588.0 887.678   3
  -4   2  -7-2.80209 102.833   6
   4  -2   7 267.829 128.743   6
  -4   2  -7 24.7421 68.0423   4
   4  -2   7 276.288 162.063   8
  -4   2  -7 153.681 100.298   3
  -4   2  -8 5672.06 624.698   6
   4  -2   8 6171.87 651.834   6
   4  -2   8 5939.69 793.419   8
  -4   2  -8 5912.98 592.868   4
  -4   2  -9 322.990 184.921   6
  -4   2  -9 133.608 130.180   4
   4  -2   9-22.7632 96.9115   6
   4  -2   9 231.693 178.597   8
   4  -2  10 15427.4 1096.74   6
   4  -2  10 14961.1 1417.32   8
  -4   2 -10 15475.5 1060.86   4
  -4   2 -11 234.015 144.534   4
   4  -2  11 33.9972 208.240   8
  -4   2 -12 3306.54 536.491   4
   4  -2  12 5481.03 999.078   8
  -4   2 -13-75.1952 156.005   4
   4  -2  13-439.100 354.154   8
  -4   2 -14 1100.92 337.529   4
  -4   1  11 1485.02 504.499   2
   4  -1 -11 377.708 216.131   4
  -4   1  10 1454.65 452.251   2
   4  -1 -10 1057.01 354.860   4
  -4   1   9 471.126 320.271   2
   4  -1  -9 550.534 278.862   4
  -4   1   9 49.5259 78.1504   6
  -4   1   8 5638.98 538.591   6
  -4   1   8 5481.03 841.539   2
   4  -1  -8 5167.85 720.507   4
  -4   1   7-1.15973 147.175   2
   4  -1  -7-53.2248 135.801   4
  -4   1   7 61.8884 74.3271   6
  -4   1   6 15774.1 958.748   6
  -4   1   6 15928.2 1312.05   2
   4  -1  -6 15357.2 1134.34   5
   4  -1  -6 15975.9 1167.05   4
  -4   1   5 3794.45 458.439   6
   4  -1  -5 4540.96 621.896   2
   4  -1  -5 3613.27 537.380   5
   4  -1  -5 4723.42 594.951   4
  -4   1   5 4006.37 531.256   4
  -4   1   5 4180.54 627.056   2
   4  -1  -4 2554.91 410.951   4
  -4   1   4 1861.72 345.243   4
  -4   1   4 2024.66 329.564   6
   4  -1  -4 1964.19 391.896   5
   4  -1  -4 1865.33 404.630   2
  -4   1   4 2058.87 418.764   2
  -4   1   3 10096.5 889.467   2
  -4   1   3 9373.57 734.336   6
   4  -1  -3 10048.0 847.585   2
   4  -1  -3 9567.80 833.594   5
   4  -1  -3 10311.6 761.071   4
   4  -1  -3 10228.6 434.296   7
   4  -1  -3 9735.66 749.798   1
  -4   1   2 28835.1 1459.32   2
   4  -1  -2 29579.4 1376.85   1
  -4   1   2 28032.5 1314.69   6
   4  -1  -2 28224.1 1181.84   6
   4  -1  -2 27271.9 1408.83   2
   4  -1  -2 26870.5 1233.85   4
  -4   1   2 29167.6 1240.52   4
   4  -1  -1 1152.17 259.097   1
  -4   1   1 1012.00 206.432   4
  -4   1   1 1182.78 260.593   6
   4  -1  -1 1192.06 240.882   6
  -4   1   1 834.380 245.136   2
   4  -1  -1 1095.89 217.582   4
  -4   1   0 222077. 5057.56   6
   4  -1   0 226091. 4950.63   6
   4  -1   0 221681. 5094.41   1
  -4   1   0 223094. 4596.70   4
   4  -1   0 225858. 4657.69   4
   4  -1   0 224055. 4947.12   3
  -4   1   0 227244. 5130.22   2
  -4   1  -1 23134.7 1185.05   6
   4  -1   1 22350.1 1041.78   3
   4  -1   1 22614.7 1175.58   8
   4  -1   1 22090.2 908.505   4
  -4   1  -1 22844.7 897.375   4
  -4   1  -2 72147.0 2300.89   6
   4  -1   2 70855.2 2301.77   8
   4  -1   2 70460.9 2022.69   3
  -4   1  -2 71237.1 1810.06   4
  -4   1  -3 225.999 98.8422   6
  -4   1  -3 475.576 168.486   3
  -4   1  -3 494.529 199.206   4
   4  -1   4 2862.92 414.169   6
  -4   1  -4 2463.93 388.762   6
  -4   1  -4 4142.99 415.498   3
   4  -1   4 3862.08 491.737   8
  -4   1  -4 3376.06 447.246   8
  -4   1  -4 2630.92 287.353   4
   4  -1   5 1178.82 289.187   8
  -4   1  -5 1173.93 265.856   6
   4  -1   5 1023.25 237.131   6
  -4   1  -5 868.880 244.780   8
  -4   1  -5 1115.66 237.512   3
   4  -1   6 10322.4 823.280   6
  -4   1  -6 9382.84 781.544   6
   4  -1   6 8570.70 807.069   8
  -4   1  -6 9431.86 866.324   8
  -4   1  -6 10017.8 739.232   3
  -4   1  -6 9715.22 615.708   4
  -4   1  -7 1939.13 358.948   6
   4  -1   7 1641.59 327.179   6
  -4   1  -7 1710.22 271.011   4
   4  -1   7 2036.51 422.252   8
  -4   1  -7 2018.07 421.102   8
  -4   1  -7 1837.55 339.194   3
  -4   1  -8 28350.7 1445.96   6
   4  -1   8 30203.9 1529.15   6
   4  -1   8 26561.2 1678.64   8
  -4   1  -8 27433.7 1225.88   4
  -4   1  -9 1487.33 286.796   4
   4  -1   9 972.625 252.807   6
   4  -1   9 1332.12 392.759   8
   4  -1  10 14380.6 1083.72   6
   4  -1  10 15623.0 1418.07   8
  -4   1 -10 14152.0 967.883   4
  -4   1 -11 376.065 166.122   4
   4  -1  11 651.091 338.564   8
   4  -1  12 11957.0 1408.81   8
  -4   1 -12 7325.74 785.103   4
  -4   1 -13-13.0619 113.664   4
   4  -1  13 23.2192 190.518   8
  -4   1 -14 937.580 308.784   4
  -4   1 -15 50.8243 97.6911   4
  -4   0  11 493.121 279.889   2
   4   0 -11 421.459 256.250   4
  -4   0  10 2279.47 597.214   2
   4   0 -10 2536.13 536.076   4
  -4   0   9 288.260 261.621   2
   4   0  -9-16.0344 176.476   4
  -4   0   8 792.706 343.483   2
   4   0  -8 1244.47 340.602   4
  -4   0   8 861.333 178.895   6
  -4   0   7-79.4259 204.270   2
   4   0  -7-170.848 198.322   4
  -4   0   7 65.6340 87.5261   6
  -4   0   6 6909.13 558.978   6
  -4   0   6 5181.17 772.048   2
   4   0  -6 6427.88 692.826   4
  -4   0   5 6659.55 560.440   6
  -4   0   5 6358.86 781.055   2
   4   0  -5 6585.62 740.232   5
   4   0  -5 6692.97 695.356   4
  -4   0   5 7403.69 713.818   4
  -4   0   4 34539.2 1407.70   6
  -4   0   4 35009.9 1827.10   2
   4   0  -4 35267.2 1747.75   2
   4   0  -4 34985.4 1726.82   5
   4   0  -4 36404.9 1581.62   4
  -4   0   4 36419.7 1577.58   4
  -4   0   3 13790.7 838.032   6
  -4   0   3 12556.2 1008.03   2
   4   0  -3 12983.7 730.354   6
   4   0  -3 12465.0 960.454   2
   4   0  -3 13502.5 994.100   5
   4   0  -3 13642.0 861.632   4
   4   0  -3 12564.0 544.452   7
  -4   0   2 32943.0 1575.52   2
  -4   0   2 30161.9 1308.85   6
   4   0  -2 31042.6 1235.71   6
   4   0  -2 30518.4 1509.17   5
   4   0  -2 31292.1 1259.52   4
  -4   0   2 28142.6 1177.18   4
   4   0  -2 30227.4 1412.57   1
   4   0  -2 29968.1 1028.50   7
   4   0  -1 1867.68 256.986   4
  -4   0   1 1749.08 241.987   4
  -4   0   1 2117.62 324.322   6
   4   0  -1 1943.27 295.628   6
   4   0  -1 1817.27 324.940   3
  -4   0   1 1789.73 350.139   2
   4   0  -1 1888.85 330.385   1
  -4   0   0 17123.5 1041.44   2
   4   0   0 17961.8 1074.46   1
  -4   0   0 17551.7 983.172   6
   4   0   0 18744.7 985.692   6
   4   0   0 17681.9 761.552   4
   4   0   0 18146.4 1023.04   3
  -4   0   0 17898.6 733.728   4
  -4   0  -1 956.847 139.424   4
  -4   0  -1 923.160 216.036   6
  -4   0  -1 1062.84 248.699   2
   4   0   1 430.569 130.061   8
   4   0   1 1177.16 267.289   1
   4   0   1 862.438 141.925   4
   4   0   1 670.431 181.631   3
  -4   0  -2 50652.7 1828.52   6
   4   0   2 51406.9 1731.54   8
   4   0   2 50197.1 1869.54   1
  -4   0  -2 48115.6 1673.55   3
   4   0   2 48732.0 1684.35   3
  -4   0  -2 48489.2 1175.15   4
  -4   0  -3 1821.48 313.695   6
  -4   0  -3 1513.03 146.221   4
   4   0   3 1600.11 271.049   8
   4   0   3 1518.46 302.509   1
  -4   0  -3 1523.63 263.775   3
  -4   0  -3 1394.50 264.830   8
   4   0   3 1645.30 271.459   3
  -4   0  -4 84529.3 2581.09   6
   4   0   4 91351.2 2665.95   1
   4   0   4 84032.7 2500.55   8
  -4   0  -4 84066.0 2450.98   3
  -4   0  -4 83683.7 1796.73   4
  -4   0  -4 82822.9 1848.85   4
  -4   0  -5 12458.7 864.812   6
   4   0   5 12260.4 888.066   6
  -4   0  -5 12040.6 822.249   3
  -4   0  -5 11570.1 517.190   4
   4   0   5 11994.0 855.570   8
  -4   0  -6 40824.1 1703.00   6
   4   0   6 43374.7 1785.52   6
   4   0   6 39572.9 1764.62   8
  -4   0  -6 41841.2 1812.40   8
  -4   0  -6 40655.8 1660.03   3
  -4   0  -6 41265.0 1234.13   4
  -4   0  -7 1983.86 349.821   6
  -4   0  -7 1801.48 242.266   4
   4   0   7 2066.51 380.978   6
   4   0   7 1866.00 383.672   8
  -4   0  -7 1747.64 370.256   8
  -4   0  -7 2022.56 356.279   3
  -4   0  -8 1637.78 263.038   4
   4   0   8 1832.31 359.194   6
   4   0   8 1617.93 392.556   8
  -4   0  -8 1431.13 351.967   8
  -4   0  -9 154.151 101.543   4
   4   0   9 115.169 129.149   6
   4   0   9 10.0560 158.855   8
   4   0  10 13271.7 1062.48   6
   4   0  10 12421.5 1273.18   8
  -4   0 -10 13162.8 882.666   4
  -4   0 -11 582.991 222.481   4
   4   0  11 493.106 309.015   8
  -4   0 -12 6395.53 686.660   4
   4   0  12 8014.19 1140.77   8
  -4   0 -13 931.927 283.938   4
   4   0  13 637.792 356.267   8
  -4   0 -14 1153.97 323.313   4
   4   0  14 2355.74 692.097   8
  -4   0 -15 205.730 175.993   4
  -4  -1  11-90.9971 142.223   2
   4   1 -11 244.353 213.670   4
  -4  -1  10 943.596 434.755   2
   4   1 -10 1410.09 403.012   4
  -4  -1   9 828.915 403.697   2
   4   1  -9 967.354 343.710   4
  -4  -1   9 419.120 165.283   1
  -4  -1   8 7348.87 650.714   1
  -4  -1   8 7792.61 1025.10   2
   4   1  -8 8819.80 902.876   4
  -4  -1   7 78.5744 91.0453   1
  -4  -1   7 49.3936 180.201   2
   4   1  -7 149.714 140.225   4
  -4  -1   6 13977.3 732.766   6
  -4  -1   6 14132.6 1268.07   2
   4   1  -6 12731.9 1178.43   8
   4   1  -6 14968.8 1063.02   4
  -4  -1   5 1381.80 368.754   2
   4   1  -5 1989.42 371.516   4
  -4  -1   5 1701.43 264.404   6
  -4  -1   5 2063.62 387.157   4
   4   1  -5 1736.20 441.609   8
  -4  -1   4 2329.27 321.995   6
   4   1  -4 2727.44 396.703   4
   4   1  -4 3119.93 321.221   6
  -4  -1   4 2715.07 397.831   4
   4   1  -4 3341.31 521.656   5
   4   1  -4 3594.76 537.131   2
   4   1  -4 2815.38 198.625   7
  -4  -1   4 2774.65 497.920   2
   4   1  -3-11.7306 93.4669   4
  -4  -1   3 91.1947 98.9833   6
   4   1  -3 74.5192 62.7807   6
   4   1  -3 71.1930 145.003   2
   4   1  -3 56.8097 104.258   5
  -4  -1   3 133.512 152.564   2
   4   1  -3 36.0959 74.8801   7
  -4  -1   2 2614.12 346.303   6
   4   1  -2 2623.74 332.604   6
   4   1  -2 3034.24 352.201   4
   4   1  -2 2686.35 301.964   7
  -4  -1   2 2834.98 450.062   2
  -4  -1   2 2588.02 321.715   4
   4   1  -1 172.947 93.6018   7
   4   1  -1 15.9196 103.866   4
  -4  -1   1 9.23576 55.5379   6
   4   1  -1 135.274 68.3048   6
  -4  -1   1 180.193 95.4482   4
   4   1  -1 93.0840 89.2218   3
  -4  -1   1-170.695 175.782   2
  -4  -1   0 68672.8 2261.45   2
  -4  -1   0 70794.9 2130.26   6
   4   1   0 70197.3 2118.50   6
   4   1   0 68265.3 2292.58   3
   4   1   0 66926.0 1677.47   4
  -4  -1   0 63441.5 1633.68   4
   4   1   0 67278.8 2319.05   1
   4   1   0 67833.5 2016.52   7
  -4  -1  -1 5018.55 505.894   6
   4   1   1 5681.24 530.299   6
   4   1   1 4861.32 519.685   3
   4   1   1 4995.06 421.793   8
   4   1   1 4469.81 276.000   4
  -4  -1  -1 4581.21 262.075   4
   4   1   1 4904.22 550.623   1
  -4  -1  -1 4782.97 513.512   2
   4   1   2 84826.3 2649.45   1
  -4  -1  -2 83970.3 2460.30   6
  -4  -1  -2 82734.2 2475.61   3
   4   1   2 82664.3 2184.41   8
   4   1   2 79301.7 2423.73   3
  -4  -1  -3 31017.6 1382.35   3
  -4  -1  -3 32235.9 1390.38   6
   4   1   3 31920.0 1484.20   1
   4   1   3 30540.2 1194.31   8
  -4  -1  -3 29404.6 1167.01   8
   4   1   3 32264.5 1364.22   3
  -4  -1  -4 150818. 3767.59   6
   4   1   4 150509. 3909.40   1
   4   1   4 146926. 3518.28   8
  -4  -1  -4 146975. 3533.29   8
  -4  -1  -4 154039. 3841.85   3
   4   1   4 154682. 3871.67   2
  -4  -1  -5 399.825 80.0933   4
   4   1   5 340.473 185.672   1
  -4  -1  -5 206.528 143.048   6
   4   1   5 328.555 183.484   6
   4   1   5 153.701 82.0497   8
  -4  -1  -5 297.777 124.559   8
  -4  -1  -5 164.481 137.904   3
   4   1   6 1369.26 301.472   6
   4   1   6 1197.35 270.311   1
  -4  -1  -6 1308.41 164.087   4
  -4  -1  -6 982.253 245.820   3
  -4  -1  -7 116.112 78.7412   4
   4   1   7 57.0283 96.8765   6
   4   1   7-53.4182 128.126   8
   4   1   7 327.465 165.173   1
  -4  -1  -7 16.8220 73.8494   8
  -4  -1  -7 28.6258 96.9746   3
   4   1   8 17647.4 1186.48   6
   4   1   8 17700.0 1103.34   1
   4   1   8 15120.3 1190.48   8
  -4  -1  -8 17511.7 1225.40   8
  -4  -1  -8 16788.3 820.779   4
  -4  -1  -9 275.938 148.744   4
   4   1   9 75.0662 72.7488   6
   4   1   9-26.6093 168.563   8
   4   1   9 106.070 114.455   1
   4   1  10 5834.46 647.711   1
   4   1  10 5772.69 866.349   8
  -4  -1 -10 7281.19 622.491   4
  -4  -1 -11-18.7286 125.292   4
   4   1  11 71.7663 84.2681   1
   4   1  12 7131.37 1049.49   8
  -4  -1 -12 5941.12 648.724   4
  -4  -1 -13 747.690 258.672   4
   4   1  13 744.382 392.351   8
  -4  -1 -14 2805.65 509.818   4
   4   1  14 2016.27 653.218   8
  -4  -1 -15 283.227 177.373   4
  -4  -2  10 2174.54 604.806   2
   4   2 -10 2687.78 560.435   4
  -4  -2   9 98.8350 209.138   2
   4   2  -9 1090.21 357.742   4
  -4  -2   9 700.978 227.579   1
  -4  -2   8 1019.18 401.407   2
   4   2  -8 1328.48 341.924   4
  -4  -2   8 1270.40 306.059   1
  -4  -2   7 160.107 149.139   1
   4   2  -7-118.964 117.879   4
  -4  -2   6 2782.06 447.639   1
  -4  -2   6 2694.49 572.616   2
   4   2  -6 3244.58 572.867   8
   4   2  -6 3291.23 501.399   4
  -4  -2   5 239.605 190.758   1
  -4  -2   5-169.481 226.543   2
   4   2  -5 336.327 164.764   4
   4   2  -5 211.379 183.776   8
   4   2  -5 70.8320 40.9496   7
   4   2  -4 24081.4 968.839   6
  -4  -2   4 25140.5 1593.62   2
   4   2  -4 27916.0 1577.62   5
   4   2  -4 23968.4 1409.67   8
   4   2  -4 26482.4 923.575   7
   4   2  -4 26605.2 1286.09   4
  -4  -2   4 24613.5 1363.30   1
   4   2  -3 3835.49 384.974   6
   4   2  -3 3191.19 510.376   5
   4   2  -3 3060.92 458.284   8
   4   2  -3 3197.73 507.983   2
   4   2  -3 3164.18 400.386   4
   4   2  -3 3771.19 352.100   7
  -4  -2   3 3203.26 516.427   2
  -4  -2   3 3600.67 517.845   1
  -4  -2   2 43555.5 1848.20   1
  -4  -2   2 47319.9 2004.79   2
   4   2  -2 46990.6 1593.78   6
   4   2  -2 43033.0 1889.11   2
   4   2  -2 46193.0 1993.59   3
   4   2  -2 46488.7 1568.34   4
   4   2  -2 43662.0 1522.72   7
   4   2  -1 89.6645 115.304   7
   4   2  -1 63.1186 69.1945   4
   4   2  -1-85.9991 116.276   2
   4   2  -1 103.985 71.6779   6
  -4  -2   1-51.6767 136.590   1
  -4  -2   1 108.091 93.5011   2
   4   2   0 1932.45 314.162   7
   4   2   0 1837.23 336.984   2
   4   2   0 1782.52 281.750   6
  -4  -2   0 1599.34 301.722   2
  -4  -2   0 1832.47 333.163   1
   4   2   0 2146.42 230.212   4
   4   2   1 1039.93 249.346   7
   4   2   1 938.170 214.370   6
   4   2   1 930.323 243.836   5
  -4  -2  -1 1177.78 270.561   2
   4   2   1 1224.24 172.930   8
   4   2   1 1418.48 150.308   4
   4   2   1 1369.24 287.870   2
   4   2   2 84936.3 2564.57   2
   4   2   2 86244.4 2522.24   6
  -4  -2  -2 84643.3 2631.16   3
   4   2   2 85727.4 2022.57   8
   4   2   2 87618.0 2637.73   3
   4   2   2 86114.7 2753.60   1
   4   2   2 87510.5 2628.85   7
   4   2   3 150.034 113.926   7
   4   2   3 276.214 90.7090   8
   4   2   3 387.864 170.966   2
   4   2   3 359.321 325.272   1
  -4  -2  -3 285.597 180.352   3
   4   2   3 374.500 160.734   3
   4   2   4 21360.2 939.156   8
  -4  -2  -4 21459.2 1226.30   3
  -4  -2  -4 21320.5 937.443   8
   4   2   4 21355.8 1224.36   1
   4   2   4 23358.2 1200.48   2
   4   2   5 21.8995 116.344   1
   4   2   5 201.839 124.625   2
   4   2   5 63.3469 72.9409   8
  -4  -2  -5-29.6584 58.1767   8
  -4  -2  -5-124.447 153.678   3
  -4  -2  -6 96641.3 2762.77   8
  -4  -2  -6 95323.0 3038.60   3
   4   2   6 94351.1 2801.43   8
  -4  -2  -6 91427.1 2047.35   4
   4   2   6 98401.6 2951.26   1
  -4  -2  -7 394.876 118.841   4
   4   2   7 326.566 155.737   6
   4   2   7 803.821 265.077   1
   4   2   7 285.951 178.085   8
  -4  -2  -7 496.283 218.360   3
   4   2   8 4772.14 571.554   1
   4   2   8 5390.29 654.122   6
   4   2   8 4679.08 646.834   8
  -4  -2  -8 5533.11 649.661   8
  -4  -2  -8 4229.61 578.375   3
  -4  -2  -8 5693.98 452.857   4
  -4  -2  -9-102.584 104.505   4
   4   2   9-34.7112 68.8645   6
   4   2   9-55.4923 71.5626   1
   4   2   9 170.677 146.059   8
  -4  -2  -9 76.9994 97.2207   8
   4   2  10 10141.2 855.583   1
   4   2  10 10703.2 1142.23   8
  -4  -2 -10 11217.6 776.975   4
  -4  -2 -11-68.6911 130.805   4
   4   2  11-89.9280 108.956   1
   4   2  11 4.11186 242.999   8
   4   2  12 17950.3 1663.42   8
  -4  -2 -12 13459.8 985.684   4
  -4  -2 -13 697.416 253.150   4
   4   2  14 111.763 181.387   7
  -4  -2 -14 514.978 233.892   4
   4   2  15 135.353 140.950   7
  -4  -2 -15-134.869 180.078   4
  -4  -3  10 391.629 318.304   2
   4   3 -10 258.388 208.769   4
  -4  -3  10 179.110 228.590   5
  -4  -3   9 7.33340 208.418   2
   4   3  -9 921.746 300.876   4
  -4  -3   9 1029.01 429.546   5
  -4  -3   9 943.559 317.454   1
  -4  -3   8 4447.60 849.489   2
  -4  -3   8 4933.54 836.648   5
   4   3  -8 5609.12 718.824   4
  -4  -3   8 4620.06 630.054   1
  -4  -3   7 1423.38 487.302   2
   4   3  -7 1593.71 380.940   4
  -4  -3   7 1329.03 459.800   5
  -4  -3   7 1305.69 377.948   1
  -4  -3   6 9499.62 1100.09   2
  -4  -3   6 10348.5 1110.94   5
   4   3  -6 9434.03 920.511   8
   4   3  -6 10835.0 923.391   4
  -4  -3   6 9672.60 921.601   1
  -4  -3   6 10001.9 628.321   7
  -4  -3   5 147.200 107.705   7
  -4  -3   5-42.6516 249.337   2
   4   3  -5-1.45068 125.564   4
   4   3  -5 236.054 87.6199   6
  -4  -3   5 229.851 163.689   5
  -4  -3   5 5.28043 139.275   1
   4   3  -5 143.808 108.995   8
   4   3  -5 231.232 100.618   7
  -4  -3   4 3866.52 619.391   2
   4   3  -4 4260.23 382.105   6
  -4  -3   4 3747.17 622.023   5
   4   3  -4 3610.37 493.520   8
  -4  -3   4 3426.50 531.815   1
   4   3  -4 4116.94 396.227   7
   4   3  -4 4209.83 505.321   4
  -4  -3   4 4551.65 447.874   7
   4   3  -3 7215.42 542.036   6
  -4  -3   3 6710.75 773.874   2
   4   3  -3 6694.92 738.686   2
   4   3  -3 7361.44 801.674   3
   4   3  -3 6540.53 740.466   5
   4   3  -3 7645.74 668.271   8
   4   3  -3 7059.93 553.679   7
   4   3  -3 7284.71 615.675   4
  -4  -3   3 7130.33 577.617   7
  -4  -3   3 6821.82 745.379   1
   4   3  -2 12409.7 773.549   8
   4   3  -2 12683.6 753.077   6
  -4  -3   2 13500.0 1042.45   2
   4   3  -2 13226.6 990.892   2
   4   3  -2 12702.8 1012.04   5
   4   3  -2 13154.0 1051.90   3
   4   3  -2 12806.5 816.203   7
   4   3  -2 12818.7 773.834   4
  -4  -3   2 13828.8 832.706   7
  -4  -3   2 12434.7 994.753   1
   4   3  -1 743.611 180.123   6
   4   3  -1 802.273 167.534   4
   4   3  -1 1135.86 299.182   2
   4   3  -1 883.645 278.129   5
   4   3  -1 592.932 149.353   8
  -4  -3   1 873.561 306.703   1
  -4  -3   1 425.908 191.865   2
   4   3  -1 846.320 233.790   7
  -4  -3   0 54085.6 2018.23   2
   4   3   0 52108.9 1800.30   6
   4   3   0 55381.6 2055.16   2
   4   3   0 53823.3 2079.51   5
   4   3   0 51435.7 1402.10   8
   4   3   0 55865.5 1536.28   4
   4   3   0 54730.5 2046.82   7
  -4  -3   0 53475.6 2159.34   1
   4   3   1-197.483 178.713   7
   4   3   1 77.1060 95.1364   2
   4   3   1 67.3810 73.0051   6
   4   3   1 18.5389 46.1579   4
   4   3   1-86.3596 114.400   5
  -4  -3  -1-93.7011 113.607   2
   4   3   1 17.4407 28.3350   8
   4   3   2 986.542 100.433   8
   4   3   2 731.670 224.348   7
   4   3   2 854.171 218.292   6
  -4  -3  -2 812.638 199.120   2
   4   3   2 991.161 245.040   5
  -4  -3  -2 938.626 258.914   3
   4   3   2 1029.30 120.937   4
   4   3   2 1333.06 275.247   2
   4   3   3 818.138 273.338   7
   4   3   3 1134.50 282.642   6
   4   3   3 817.989 121.275   8
   4   3   3 615.600 205.419   5
  -4  -3  -3 1243.23 306.154   3
   4   3   3 590.780 175.633   2
   4   3   4 67594.1 2219.66   2
  -4  -3  -4 69530.4 2372.20   1
   4   3   4 63067.8 1752.01   8
  -4  -3  -4 71807.1 2526.07   3
  -4  -3  -4 67041.6 1728.97   8
   4   3   4 67622.3 2462.94   7
   4   3   5 295.544 208.217   7
   4   3   5 297.420 54.9080   4
   4   3   5 469.374 169.042   2
   4   3   5 91.7724 68.7905   8
  -4  -3  -5 151.072 73.1389   8
  -4  -3  -5 104.283 106.392   3
  -4  -3  -5 229.974 163.968   1
   4   3   6 35930.9 1710.34   6
   4   3   6 31818.0 1409.55   8
  -4  -3  -6 34340.8 1392.67   8
  -4  -3  -6 34003.6 1715.59   3
  -4  -3  -6 35070.4 1042.02   4
   4   3   6 36686.9 1666.16   1
   4   3   6 35557.5 986.947   4
   4   3   6 35327.4 1765.50   7
   4   3   7 715.998 256.133   7
   4   3   7 808.048 219.520   6
   4   3   7 851.048 151.859   4
   4   3   7 743.394 240.127   1
   4   3   7 857.330 248.920   8
  -4  -3  -7 684.895 248.849   3
  -4  -3  -7 898.948 164.880   4
   4   3   8 13127.6 1052.51   6
   4   3   8 10477.8 937.413   8
  -4  -3  -8 11636.1 910.266   8
  -4  -3  -8 10810.2 987.315   3
  -4  -3  -8 12681.1 727.932   4
   4   3   8 11404.5 895.184   1
   4   3   8 11432.2 673.120   4
   4   3   8 11509.6 1024.59   7
  -4  -3  -9 1370.15 257.059   4
   4   3   9 989.423 327.740   7
   4   3   9 1006.89 217.022   4
   4   3   9 1548.95 444.220   8
   4   3   9 1401.57 306.550   1
  -4  -3  -9 922.238 270.817   8
  -4  -3 -10 21778.0 1120.86   4
   4   3  10 19935.6 1215.81   1
   4   3  10 21079.2 1496.08   7
   4   3  10 20536.2 1143.03   4
   4   3  11 681.852 307.986   7
  -4  -3 -11 840.362 254.225   4
   4   3  11 312.458 146.339   4
   4   3  11 167.433 127.403   1
   4   3  12 3351.09 622.021   7
  -4  -3 -12 2577.38 430.712   4
   4   3  13 259.959 253.083   7
  -4  -3 -13 353.151 178.312   4
   4   3  14 1585.79 461.415   7
  -4  -3 -14 2296.52 452.794   4
   4   3  15 350.577 228.607   7
  -4  -3 -15 510.994 237.618   4
  -4  -4   9 405.789 315.036   2
   4   4  -9 472.822 252.592   4
  -4  -4   9 1316.39 490.686   5
  -4  -4   9 1482.44 418.510   1
  -4  -4   8 2015.95 618.807   2
   4   4  -8 2977.23 553.452   4
  -4  -4   8 2009.48 465.613   1
  -4  -4   8 2586.71 619.837   5
  -4  -4   7-53.0977 285.810   2
   4   4  -7 113.938 124.850   4
  -4  -4   7 215.211 191.126   5
  -4  -4   6 2422.86 621.563   2
   4   4  -6 1879.88 402.368   4
  -4  -4   6 2106.45 561.047   5
   4   4  -6 1903.90 390.790   8
   4   4  -6 1552.02 265.473   7
  -4  -4   5 3300.23 628.413   2
   4   4  -5 3666.35 312.134   6
  -4  -4   5 3889.34 691.294   5
   4   4  -5 3418.43 485.322   8
   4   4  -5 4681.53 490.129   7
   4   4  -5 3307.45 519.441   4
   4   4  -4 13083.2 706.186   6
  -4  -4   4 12112.8 1145.31   2
   4   4  -4 12121.8 848.721   8
  -4  -4   4 14713.7 1280.30   5
   4   4  -4 12852.8 820.404   7
   4   4  -4 14546.3 992.022   4
   4   4  -3 6062.80 495.529   6
  -4  -4   3 5839.82 726.352   2
  -4  -4   3 5990.53 781.527   5
   4   4  -3 5794.03 517.731   8
   4   4  -3 6168.10 582.096   7
   4   4  -3 5736.82 577.298   4
   4   4  -2 8272.43 610.319   6
  -4  -4   2 7367.42 778.715   2
  -4  -4   2 7731.78 864.560   5
   4   4  -2 10180.2 891.219   2
   4   4  -2 9157.15 880.038   5
   4   4  -2 8571.73 866.622   3
   4   4  -2 8505.47 536.427   8
   4   4  -2 8968.85 730.524   7
   4   4  -2 8783.55 669.176   4
   4   4  -1 3222.32 389.273   6
   4   4  -1 2801.20 476.074   3
   4   4  -1 3881.26 533.712   2
  -4  -4   1 3056.71 531.698   1
   4   4  -1 2885.32 243.775   8
   4   4  -1 3145.25 489.578   5
   4   4  -1 2944.05 360.792   4
  -4  -4   1 2910.06 468.542   2
   4   4  -1 2686.62 431.889   7
  -4  -4   0 19327.6 1161.94   2
   4   4   0 18819.2 1029.97   6
   4   4   0 18863.9 1153.81   2
   4   4   0 20929.4 1254.54   5
   4   4   0 18250.9 1221.73   3
   4   4   0 21009.3 1250.74   7
  -4  -4   0 20224.1 1330.11   1
   4   4   0 19421.8 912.157   4
  -4  -4   0 21615.3 1208.69   7
  -4  -4  -1 266.576 145.075   7
   4   4   1 271.289 139.699   6
   4   4   1 100.502 121.517   2
   4   4   1 118.738 60.3191   4
   4   4   1 235.351 150.272   5
  -4  -4  -1 359.744 160.907   2
   4   4   1 124.528 85.8485   3
   4   4   1 198.130 153.356   7
   4   4   2 10129.7 803.382   6
   4   4   2 9914.61 756.801   2
   4   4   2 9836.69 794.486   5
  -4  -4  -2 9674.16 854.940   3
   4   4   2 8757.26 512.922   4
   4   4   2 9965.02 892.500   7
  -4  -4  -2 9610.26 893.530   1
  -4  -4  -2 9748.50 716.006   2
   4   4   3 10921.5 859.559   6
   4   4   3 8932.80 718.935   2
   4   4   3 9535.68 755.444   5
  -4  -4  -3 9545.31 873.662   3
   4   4   3 8543.11 452.508   4
   4   4   3 9013.41 1061.11   7
   4   4   4 32391.8 1423.90   2
   4   4   4 34354.8 1630.71   6
  -4  -4  -4 35286.8 1692.14   1
   4   4   4 33881.6 1446.47   5
  -4  -4  -4 32892.8 1735.40   3
  -4  -4  -4 32472.6 887.235   8
   4   4   4 32793.1 944.119   4
   4   4   4 34312.9 1788.95   7
   4   4   5 8364.54 701.504   2
   4   4   5 8540.08 799.621   6
  -4  -4  -5 8957.27 805.669   1
   4   4   5 7669.63 632.970   5
  -4  -4  -5 7363.93 481.312   8
  -4  -4  -5 7525.98 821.530   3
   4   4   5 8204.90 425.642   4
   4   4   5 8503.14 883.999   7
   4   4   6 15933.2 1134.28   6
  -4  -4  -6 14897.0 1028.78   1
  -4  -4  -6 14631.5 1138.69   3
   4   4   6 14346.7 627.128   4
   4   4   6 15753.3 1208.61   7
  -4  -4  -6 13442.3 769.941   8
   4   4   6 13655.4 922.153   2
   4   4   7 237.222 200.628   7
   4   4   7 42.6013 60.2439   4
  -4  -4  -7 161.290 102.085   8
  -4  -4  -7 110.347 125.803   3
  -4  -4  -7 137.429 89.5751   4
  -4  -4  -8 15121.5 1228.97   3
  -4  -4  -8 16955.1 920.496   4
   4   4   8 17479.6 847.921   4
   4   4   8 17993.1 1347.14   7
   4   4   9-13.7379 236.724   7
   4   4   9 60.2457 80.3470   4
  -4  -4  -9-146.643 144.236   8
  -4  -4  -9 185.576 190.901   3
  -4  -4  -9 243.079 131.377   4
  -4  -4 -10 185.892 121.507   4
   4   4  10 554.015 329.252   7
  -4  -4 -10 400.883 206.728   8
  -4  -4 -11 294.361 192.226   4
   4   4  11 179.252 237.694   7
   4   4  11 154.986 117.029   4
  -4  -4 -12 18746.3 1211.29   4
   4   4  12 17014.9 1460.39   7
  -4  -4 -13 379.107 224.265   4
   4   4  13 119.139 164.497   7
  -4  -4 -14 2262.61 451.288   4
   4   4  14 1715.50 502.594   7
   4   4  15 110.636 168.894   7
  -4  -5   9-431.064 358.402   2
   4   5  -9 78.1982 158.478   4
  -4  -5   8 411.420 310.686   2
   4   5  -8 1459.46 421.270   4
  -4  -5   8 1164.04 457.894   5
  -4  -5   7 1517.31 550.507   2
   4   5  -7 2291.36 486.600   4
  -4  -5   7 2391.64 600.223   5
  -4  -5   6 12958.4 1449.46   2
  -4  -5   6 13218.7 1346.90   5
   4   5  -6 14152.3 916.173   7
   4   5  -6 14314.5 1154.46   4
  -4  -5   5-20.5432 144.067   7
  -4  -5   5 62.3060 148.301   2
   4   5  -5 252.866 169.882   4
  -4  -5   5-113.895 160.352   5
   4   5  -5-36.3280 68.6989   8
   4   5  -5 138.040 131.266   7
  -4  -5   4 187.008 106.004   7
  -4  -5   4 5.94087 229.826   2
   4   5  -4 162.352 76.3616   6
   4   5  -4 256.786 150.927   4
  -4  -5   4-21.1360 154.100   5
   4   5  -4 125.786 75.3605   8
   4   5  -4 237.330 162.857   7
  -4  -5   3 564.606 212.970   7
   4   5  -3 503.229 146.163   6
   4   5  -3 640.810 209.533   4
  -4  -5   3 920.599 351.785   5
   4   5  -3 632.619 159.514   8
   4   5  -3 715.679 252.807   7
  -4  -5   3 322.951 236.435   2
   4   5  -2 11870.5 781.652   6
  -4  -5   2 11727.1 1014.97   2
  -4  -5   2 12023.5 1130.16   5
   4   5  -2 13088.0 657.189   8
   4   5  -2 12429.9 963.748   7
  -4  -5   2 12638.8 1004.22   7
   4   5  -2 12409.7 894.633   4
   4   5  -1 5172.82 531.232   6
  -4  -5   1 5552.45 649.804   2
  -4  -5   1 5986.67 763.408   5
   4   5  -1 5308.78 308.924   8
   4   5  -1 6123.99 673.129   7
  -4  -5   1 5920.57 677.349   7
   4   5  -1 5250.52 530.104   4
   4   5   0 7935.55 691.249   6
  -4  -5   0 7113.03 696.506   2
   4   5   0 8067.07 726.615   2
   4   5   0 7428.72 765.360   5
   4   5   0 7480.34 788.936   3
   4   5   0 8837.77 861.483   7
  -4  -5   0 8624.56 823.181   7
   4   5   0 9090.41 676.384   4
  -4  -5  -1 7925.43 676.948   2
   4   5   1 9050.60 762.696   6
   4   5   1 7478.22 681.834   2
   4   5   1 7938.19 747.208   5
   4   5   1 7793.99 785.457   3
  -4  -5  -1 8119.40 855.758   1
   4   5   1 8061.86 830.075   7
  -4  -5  -1 7267.09 757.722   7
   4   5   2 43394.1 1823.75   6
   4   5   2 41161.7 1679.80   2
   4   5   2 38390.1 1405.66   4
   4   5   2 42680.6 1791.67   5
  -4  -5  -2 40225.4 1953.63   3
   4   5   2 44984.9 1943.61   3
   4   5   2 44049.6 2090.00   7
  -4  -5  -2 41289.0 2036.81   1
  -4  -5  -2 43181.6 1963.29   7
  -4  -5  -2 39649.1 1569.17   2
   4   5   3 10527.0 772.479   2
   4   5   3 9697.99 807.595   5
  -4  -5  -3 10623.2 980.099   3
   4   5   3 11218.8 930.771   3
   4   5   3 9810.29 585.273   4
   4   5   3 10957.4 1044.78   7
  -4  -5  -3 10424.2 965.659   7
  -4  -5  -3 11483.9 1012.10   1
  -4  -5  -4 980.638 274.807   1
   4   5   4 856.045 327.773   7
   4   5   4 1048.18 175.539   4
   4   5   4 876.900 221.410   5
  -4  -5  -4 847.907 263.225   3
   4   5   4 975.722 224.146   2
   4   5   5 2677.44 537.212   7
   4   5   5 3055.56 407.325   2
  -4  -5  -5 2506.80 456.846   1
   4   5   5 3071.41 400.239   5
  -4  -5  -5 3272.18 263.910   8
   4   5   5 3522.95 327.305   4
  -4  -5  -5 4112.10 606.419   3
   4   5   6 31478.6 1433.30   2
  -4  -5  -6 34803.9 1719.54   1
   4   5   6 32488.9 1349.97   5
  -4  -5  -6 31542.7 1150.14   8
  -4  -5  -6 34203.6 1910.78   3
   4   5   6 33816.6 1176.94   4
   4   5   6 33865.4 1976.30   7
   4   5   7 1422.59 448.346   7
   4   5   7 1073.82 202.392   4
   4   5   7 1115.10 220.304   5
   4   5   7 1103.85 263.520   2
  -4  -5  -7 881.598 205.786   8
  -4  -5  -7 1069.27 350.628   3
  -4  -5  -7 1178.43 232.424   4
  -4  -5  -7 917.854 288.875   1
   4   5   8 222.023 308.481   7
   4   5   8 63.9253 57.3774   4
   4   5   8 37.2526 80.5982   2
   4   5   8-21.7031 97.9011   5
  -4  -5  -8 209.075 204.269   3
  -4  -5  -8-3.44118 67.3722   4
   4   5   9 3566.51 646.322   7
   4   5   9 2542.09 303.529   5
  -4  -5  -9 2255.61 403.706   8
   4   5   9 2968.15 384.523   4
  -4  -5  -9 2676.49 575.125   3
  -4  -5  -9 2415.57 376.121   4
  -4  -5 -10 5942.63 716.864   8
  -4  -5 -10 8111.88 1043.48   3
  -4  -5 -10 6530.59 686.924   4
   4   5  10 6977.12 645.773   4
   4   5  10 6536.93 871.068   7
   4   5  11 676.319 335.424   7
  -4  -5 -11 626.878 338.780   3
  -4  -5 -11 510.453 204.460   4
   4   5  12 4872.99 793.289   7
  -4  -5 -12 4494.00 606.699   4
   4   5  13-123.493 176.649   7
  -4  -5 -13 80.7914 103.481   4
  -4  -5 -14 841.133 310.340   4
   4   5  14 485.346 283.682   7
   4   5  15 184.500 218.767   7
  -4  -6   8 1225.13 564.728   2
   4   6  -8 1281.04 416.738   4
  -4  -6   7-388.935 346.609   2
   4   6  -7-54.5095 153.385   4
  -4  -6   7 180.393 215.532   5
  -4  -6   6 979.463 431.705   2
   4   6  -6 908.523 330.148   4
  -4  -6   6 1148.59 431.292   5
   4   6  -6 717.668 213.205   7
  -4  -6   5 241.962 223.620   2
   4   6  -5 109.795 105.311   4
  -4  -6   5-67.0576 258.770   5
   4   6  -5 192.694 149.739   7
  -4  -6   4 17673.2 1487.90   2
  -4  -6   4 20532.1 1668.87   5
   4   6  -4 19351.6 1222.84   7
   4   6  -4 18384.3 1268.74   4
  -4  -6   4 17482.1 1329.13   7
  -4  -6   3 3636.56 588.001   7
   4   6  -3 3193.28 399.626   6
   4   6  -3 3418.89 513.299   4
  -4  -6   3 3498.74 681.481   5
   4   6  -3 2647.72 338.172   8
   4   6  -3 3349.12 509.392   7
  -4  -6   3 3930.41 634.781   2
  -4  -6   2 547.710 236.976   7
   4   6  -2 728.248 205.995   6
   4   6  -2 575.043 226.494   4
  -4  -6   2 618.960 307.926   5
   4   6  -2 689.881 146.973   8
   4   6  -2 696.529 258.820   7
  -4  -6   2 458.258 197.703   2
  -4  -6   1 2489.37 492.187   7
   4   6  -1 2110.95 356.904   6
   4   6  -1 2500.26 411.513   4
  -4  -6   1 2302.08 507.022   5
  -4  -6   1 2022.02 391.082   2
   4   6  -1 2786.28 498.728   7
   4   6   0 15228.0 1026.32   6
  -4  -6   0 14552.7 1013.12   2
  -4  -6   0 14729.7 1201.90   5
   4   6   0 15375.3 1205.77   7
  -4  -6   0 15331.9 1196.47   7
  -4  -6  -1 160.946 188.312   7
  -4  -6  -1 82.1974 91.5701   2
   4   6   1 175.713 139.887   2
   4   6   1-227.923 222.433   7
   4   6   2 4811.12 528.734   2
  -4  -6  -2 5690.57 724.691   3
   4   6   2 5015.50 508.674   4
  -4  -6  -2 4990.75 513.905   2
   4   6   3 1167.23 252.592   2
  -4  -6  -3 669.423 245.188   1
   4   6   3 1264.68 277.543   5
  -4  -6  -3 1593.00 406.289   3
   4   6   3 1067.20 225.153   4
   4   6   3 1256.16 403.434   7
  -4  -6  -4 17859.5 1379.92   3
   4   6   4 17992.9 1000.47   2
   4   6   4 18994.3 1069.72   5
   4   6   4 17375.8 890.640   4
   4   6   4 21510.0 1584.04   7
  -4  -6  -4 17123.1 1310.84   1
   4   6   5 2565.10 371.039   2
   4   6   5 2840.48 386.978   5
  -4  -6  -5 2710.46 176.086   8
   4   6   5 2554.24 324.766   4
  -4  -6  -5 3075.84 575.841   3
  -4  -6  -5 2876.91 527.844   1
   4   6   5 2715.52 555.411   7
  -4  -6  -6 7720.04 837.064   1
   4   6   6 8061.45 666.626   2
   4   6   6 8912.25 643.660   5
  -4  -6  -6 7754.88 475.535   8
  -4  -6  -6 7704.24 916.101   3
   4   6   6 8098.09 587.449   4
   4   6   6 10127.6 1128.15   7
   4   6   7 8863.40 722.746   2
  -4  -6  -7 8757.44 866.767   1
   4   6   7 8254.15 599.197   5
  -4  -6  -7 6952.28 553.948   8
  -4  -6  -7 8959.30 1016.58   3
   4   6   7 9435.72 651.597   4
   4   6   7 10307.6 1136.45   7
   4   6   8 13450.4 934.241   2
  -4  -6  -8 14311.3 1087.51   1
   4   6   8 13209.2 694.420   5
  -4  -6  -8 14012.2 1287.20   3
  -4  -6  -8 13975.6 972.900   4
   4   6   8 12949.2 810.771   4
   4   6   8 15207.2 1395.06   7
   4   6   9-31.1704 239.753   7
   4   6   9-49.3422 70.6725   4
   4   6   9 104.335 76.2345   2
  -4  -6  -9-125.745 102.666   8
  -4  -6  -9 64.0647 90.7889   4
  -4  -6  -9-174.347 225.114   3
   4   6  10 694.625 308.943   7
  -4  -6 -10 597.039 222.589   8
  -4  -6 -10 698.632 253.738   4
  -4  -6 -10 1027.85 392.998   3
   4   6  11 14.4372 209.666   7
  -4  -6 -11 251.019 88.1110   4
  -4  -6 -11-127.901 211.819   3
   4   6  12 1976.24 549.085   7
  -4  -6 -12 1897.95 617.915   3
  -4  -6 -12 1251.19 332.462   4
   4   6  13-123.372 147.160   7
  -4  -6 -13 275.588 303.286   3
  -4  -6 -13-62.9152 127.342   4
   4   6  14 1393.58 476.658   7
  -4  -7   7 99.3301 170.466   2
   4   7  -7 608.897 280.436   4
  -4  -7   6 2544.36 767.326   2
  -4  -7   6 4139.51 849.178   5
   4   7  -6 4262.59 592.964   7
   4   7  -6 5862.07 796.550   4
  -4  -7   5 723.849 339.375   2
   4   7  -5 978.280 323.207   4
  -4  -7   5 1492.51 511.805   5
   4   7  -5 1328.92 351.908   7
  -4  -7   4 2880.28 624.766   2
   4   7  -4 3077.62 548.605   4
  -4  -7   4 3056.42 683.387   5
   4   7  -4 2768.18 502.156   7
   4   7  -3 18.2210 105.394   4
  -4  -7   3 44.3686 197.035   5
   4   7  -3 375.305 230.455   7
  -4  -7   3 492.852 253.563   2
   4   7  -2 5514.38 597.990   6
  -4  -7   2 6936.15 804.796   2
  -4  -7   2 5493.32 853.615   5
   4   7  -2 6647.84 796.076   7
   4   7  -2 6126.28 729.998   4
   4   7  -1 612.171 210.737   6
  -4  -7   1 511.872 268.043   5
  -4  -7   1 768.388 258.215   2
   4   7  -1 875.969 276.602   7
  -4  -7   0 5240.23 613.111   2
  -4  -7   0 5677.72 765.543   5
   4   7   0 4913.91 709.655   7
  -4  -7  -1-63.3308 128.307   5
  -4  -7  -1 80.0772 78.5672   2
  -4  -7  -2 5634.73 760.324   3
   4   7   2 5728.78 603.998   4
   4   7   2 5604.10 805.264   7
  -4  -7  -2 6231.65 563.570   2
   4   7   3-75.5753 71.7081   2
   4   7   3-19.6332 82.5826   4
   4   7   4 8213.40 640.475   2
  -4  -7  -4 9507.03 1022.70   3
   4   7   4 8483.03 680.393   4
  -4  -7  -4 9061.47 989.097   1
   4   7   4 10570.7 1129.45   7
   4   7   5 9224.77 668.889   2
  -4  -7  -5 9390.78 1056.30   3
   4   7   5 8186.13 659.634   4
   4   7   5 10788.3 1176.47   7
  -4  -7  -5 7651.47 919.720   1
   4   7   6 10746.1 726.792   2
  -4  -7  -6 10507.5 519.233   8
  -4  -7  -6 12347.0 1235.12   3
   4   7   6 12373.7 814.183   4
   4   7   6 14381.1 1381.30   7
  -4  -7  -6 11938.3 1117.49   1
   4   7   7 339.075 120.470   4
  -4  -7  -7 244.746 199.819   1
  -4  -7  -7 312.401 115.917   8
  -4  -7  -7 507.690 270.330   3
   4   7   7 282.504 150.679   2
   4   7   7 176.047 272.876   7
   4   7   8 7839.62 663.044   2
  -4  -7  -8 8943.72 904.537   1
  -4  -7  -8 6808.45 619.130   8
  -4  -7  -8 7156.41 983.735   3
   4   7   8 7365.99 647.597   4
  -4  -7  -9 354.730 198.383   1
  -4  -7  -9 416.939 180.539   4
  -4  -7  -9 517.167 235.888   3
   4   7   9 182.143 319.063   7
  -4  -7 -10 673.827 238.179   4
  -4  -7 -10 1378.58 431.393   3
   4   7  10 1009.91 404.559   7
  -4  -7 -11 285.254 170.775   4
  -4  -7 -11 42.6419 157.290   3
   4   7  11 513.440 322.569   7
  -4  -7 -12 3491.55 601.373   4
  -4  -7 -12 1962.88 628.039   3
   4   7  12 3552.43 766.698   7
  -4  -7 -13 432.646 227.520   4
   4   7  13 38.4386 143.059   7
   4   7  14 218.611 210.645   7
  -4  -8   7 2.81540 158.728   2
  -4  -8   6-4.55646 229.945   2
   4   8  -6 83.9775 112.686   4
  -4  -8   5 23.6532 153.078   2
   4   8  -5 376.248 234.828   4
  -4  -8   5 35.9909 179.551   5
   4   8  -5-37.1993 105.950   7
   4   8  -4 2837.08 561.937   4
  -4  -8   4 3924.30 867.871   5
   4   8  -4 3390.04 574.219   7
  -4  -8   4 3600.35 700.380   2
   4   8  -3 872.589 310.793   4
  -4  -8   3 1319.04 498.537   5
   4   8  -3 978.596 346.505   7
  -4  -8   3 874.690 320.893   2
  -4  -8   2 6816.23 825.114   2
  -4  -8   2 7018.38 1016.65   5
   4   8  -2 6943.56 861.004   7
   4   8  -2 6898.41 826.886   4
  -4  -8   1 1279.43 415.975   5
  -4  -8   1 1114.04 320.621   2
   4   8  -1 1027.08 404.208   7
  -4  -8   0 1366.30 416.462   5
  -4  -8   0 1500.06 325.889   2
   4   8   0 1120.54 372.394   7
  -4  -8  -1 137.791 192.809   5
  -4  -8  -1 162.002 133.104   2
   4   8   1 189.128 164.184   7
   4   8   2 8800.92 819.722   4
   4   8   2 10083.5 1104.86   7
  -4  -8  -2 9764.02 692.618   2
  -4  -8  -3 348.298 212.965   3
   4   8   3-125.143 111.053   4
   4   8   3 52.3451 174.654   7
  -4  -8  -4 2502.75 538.152   3
   4   8   4 2308.74 541.242   7
   4   8   4 2193.65 368.007   4
   4   8   5 93.6148 68.6414   4
  -4  -8  -5-154.514 221.310   1
  -4  -8  -5-144.865 201.446   3
   4   8   5-173.667 252.195   7
  -4  -8  -6 4975.48 824.605   3
  -4  -8  -6 5035.26 337.845   8
   4   8   6 4942.83 548.140   4
  -4  -8  -6 4443.02 702.231   1
   4   8   6 4872.53 854.596   7
   4   8   7 814.880 220.507   4
  -4  -8  -7 346.314 226.509   3
  -4  -8  -7 974.938 323.476   1
   4   8   7 662.705 353.725   7
  -4  -8  -8 2986.84 543.169   1
  -4  -8  -8 3885.71 750.675   3
   4   8   8 4323.87 858.523   7
  -4  -8  -9 372.589 190.656   1
  -4  -8  -9 210.719 312.566   3
  -4  -8 -10 2752.20 490.716   1
  -4  -8 -10 3435.11 749.583   3
   4   8  10 3626.53 768.792   7
  -4  -8 -11 132.337 132.134   4
  -4  -8 -11 155.276 223.866   3
   4   8  11-62.1244 177.587   7
  -4  -8 -12 1315.80 399.467   4
  -4  -8 -12 930.241 442.783   3
   4   8  12 2305.08 675.411   7
   4   8  13 286.708 311.987   7
  -4  -9   6 43.4224 143.142   2
   4   9  -5 802.240 327.409   4
   4   9  -5 471.768 254.369   7
  -4  -9   5 516.914 297.860   2
   4   9  -4 933.362 323.010   4
  -4  -9   4 335.874 331.479   5
   4   9  -4 1311.70 385.286   7
  -4  -9   4 731.667 302.201   2
   4   9  -3 23.0433 124.616   4
  -4  -9   3 400.652 242.406   5
   4   9  -3 270.693 215.871   7
  -4  -9   3 372.331 232.577   2
   4   9  -2 662.859 270.621   4
  -4  -9   2 956.853 453.662   5
  -4  -9   2 1344.87 358.942   2
   4   9  -2 1826.81 479.481   7
  -4  -9   1 1346.48 475.217   5
  -4  -9   1 1115.79 319.192   2
   4   9  -1 1251.86 443.964   7
  -4  -9   0 5542.56 619.563   2
  -4  -9   0 4233.41 775.364   5
   4   9   0 6078.67 894.955   7
  -4  -9  -1 1738.53 443.097   5
  -4  -9  -1 1615.94 300.383   2
   4   9   1 2541.74 584.318   7
  -4  -9  -2 1655.00 415.911   5
   4   9   2 1247.62 440.669   7
  -4  -9  -3 30.1916 86.8302   3
   4   9   3 333.230 277.864   7
  -4  -9  -4 2994.21 632.038   3
   4   9   4 1843.22 525.546   7
  -4  -9  -5-106.428 163.506   3
   4   9   5-75.0444 208.072   7
  -4  -9  -6 1513.45 448.635   1
  -4  -9  -6 1618.32 486.857   3
   4   9   6 2544.44 651.836   7
  -4  -9  -7 724.933 246.204   1
  -4  -9  -7 561.988 295.143   3
   4   9   7 537.529 353.352   7
  -4  -9  -8 2017.22 477.557   1
  -4  -9  -8 3126.45 698.850   3
   4   9   8 2931.07 716.555   7
  -4  -9  -9 233.484 183.053   1
  -4  -9  -9 496.183 318.350   3
  -4  -9 -10 597.759 250.517   1
  -4  -9 -10 682.187 345.927   3
   4   9  10 914.012 373.864   7
  -4  -9 -11 56.2557 125.982   3
   4   9  11-95.2973 162.937   7
   4  10  -4 323.766 256.464   7
   4  10  -3 102.219 151.899   4
   4  10  -3 256.040 229.623   7
   4  10  -2 1100.38 369.144   4
  -4 -10   2 1221.73 514.662   5
   4  10  -2 1623.08 475.075   7
  -4 -10   1 533.596 324.437   5
   4  10  -1-210.586 198.175   7
  -4 -10   0 790.835 412.428   5
   4  10   0 1359.93 465.223   7
  -4 -10  -1 666.246 318.743   5
   4  10   1 366.178 282.854   7
  -4 -10  -2 1439.19 424.037   5
   4  10   2 2443.46 610.802   7
   4  10   3 215.697 205.119   7
  -4 -10  -4 1674.74 500.216   3
   4  10   4 1419.43 487.389   7
  -4 -10  -5 346.527 206.359   3
   4  10   5 906.766 425.096   7
  -4 -10  -6 1811.66 494.333   1
  -4 -10  -6 1459.82 481.906   3
   4  10   6 2564.21 663.975   7
  -4 -10  -7 171.366 246.785   1
  -4 -10  -7 104.273 146.244   3
   4  10   7 254.235 235.408   7
  -4 -10  -8 686.692 310.239   3
  -4 -10  -8 719.683 303.638   1
   4  10   8 853.344 346.537   7
  -4 -10  -9 171.382 180.536   1
  -4 -10  -9-146.514 214.294   3
   4  10   9 513.480 371.805   7
  -4 -10 -10 697.781 385.021   3
  -4 -11   1 444.251 401.023   5
  -4 -11   0 1185.95 450.562   5
  -4 -11  -1 325.733 285.114   5
  -4 -11  -2 849.791 348.226   5
  -4 -11  -5 270.827 268.614   3
  -4 -11  -6 699.086 347.294   1
  -4 -11  -6 906.776 414.553   3
  -4 -11  -7-45.6788 206.440   1
  -4 -11  -7-91.2390 187.078   3
  -4 -11  -8 1681.70 569.575   3
  -4 -11  -8 838.296 362.043   1
  -4 -11  -9-18.3608 125.174   1
  -4 -12  -6 643.691 343.429   3
  -5   8   6 352.309 305.440   6
   5  -8  -6-606.071 344.756   4
  -5   8   5 711.369 382.958   6
   5  -8  -5 719.674 353.370   4
  -5   8   4 110.237 138.804   6
   5  -8  -4 21.7285 234.510   8
  -5   8   3 3566.99 767.598   6
   5  -8  -3 4063.11 870.307   8
  -5   8   2 293.957 339.692   6
   5  -8  -2-177.504 185.911   8
  -5   8   1 3929.24 770.137   6
   5  -8  -1 4045.57 870.205   8
  -5   8   0 564.944 321.296   6
   5  -8   0 424.690 338.105   8
  -5   8  -1 456.144 277.189   6
   5  -8   1 344.635 265.959   8
  -5   8  -2 83.1068 187.172   6
   5  -8   2 227.816 276.598   8
  -5   8  -3 2356.59 555.825   6
   5  -8   3 2589.79 682.546   8
  -5   8  -4-104.662 184.512   6
   5  -8   4-76.6026 144.426   8
  -5   8  -5 1754.98 486.917   6
  -5   8  -6 175.095 164.389   6
  -5   8  -7 1161.96 384.982   6
  -5   7   9 1090.11 444.094   6
  -5   7   8 21.9337 137.505   6
  -5   7   7 584.524 322.187   6
   5  -7  -7 1072.48 453.007   4
  -5   7   6 23.2283 111.030   6
   5  -7  -6 217.511 228.058   4
  -5   7   5 4703.08 924.355   6
   5  -7  -5 5586.05 936.558   4
  -5   7   4-20.3748 164.656   6
   5  -7  -4 386.172 287.159   8
   5  -7  -4 206.292 247.498   4
  -5   7   3 6466.76 1032.04   6
   5  -7  -3 7099.54 1082.37   8
  -5   7   2 47.4851 122.095   6
   5  -7  -2 20.0051 232.860   8
  -5   7   1 89.7679 140.790   6
   5  -7  -1 348.899 218.413   8
  -5   7   0 115.715 154.847   6
   5  -7   0-220.012 231.103   8
  -5   7  -1 12285.4 1274.71   6
   5  -7   1 15534.0 1545.83   8
  -5   7  -2 312.688 207.848   6
   5  -7   2 403.650 200.745   8
  -5   7  -3 6657.63 895.441   6
   5  -7   3 8192.95 1137.54   8
  -5   7  -4-85.0031 114.517   6
   5  -7   4-135.680 263.457   8
  -5   7  -5 1839.19 461.446   6
   5  -7   5 2728.14 670.744   8
  -5   7  -6 65.5436 117.615   6
   5  -7   6 255.351 240.950   8
  -5   7  -7 5206.02 791.168   6
  -5   7  -8 24.0371 98.7933   6
  -5   6  10-75.5600 190.405   6
  -5   6   9 374.397 252.099   6
  -5   6   9 502.145 246.432   2
  -5   6   8 93.1794 213.379   6
  -5   6   8 241.628 87.1581   2
   5  -6  -8-33.8674 204.014   4
  -5   6   7 1818.78 540.248   6
  -5   6   7 2379.44 496.420   2
   5  -6  -7 2087.83 536.614   4
  -5   6   6 19.4688 124.055   6
  -5   6   6 321.457 164.709   2
   5  -6  -6 4.55414 170.053   4
  -5   6   5 1626.57 530.805   6
   5  -6  -5 1752.68 476.635   4
  -5   6   4 11.0244 159.594   6
   5  -6  -4 432.103 258.706   4
  -5   6   3 4002.28 800.475   6
   5  -6  -3 6368.87 961.652   8
   5  -6  -3 5105.22 804.506   4
  -5   6   2 167.794 142.687   6
   5  -6  -2 193.346 219.539   8
  -5   6   1 19998.2 1692.40   6
   5  -6  -1 25952.7 1897.75   8
  -5   6   0 946.922 354.455   6
   5  -6   0 985.791 360.110   8
  -5   6  -1 4670.86 748.141   6
   5  -6   1 5274.28 838.245   8
  -5   6  -2-74.9268 179.725   6
   5  -6   2 284.357 170.569   8
  -5   6  -3 9277.02 1040.17   6
   5  -6   3 10954.5 1222.43   8
  -5   6  -4 92.3000 98.3405   6
   5  -6   4-219.483 250.758   8
  -5   6  -5 11528.1 1129.64   6
   5  -6   5 12459.0 1345.28   8
  -5   6  -6 81.9967 122.857   6
   5  -6   6 278.568 263.409   8
  -5   6  -7 4378.26 693.758   6
   5  -6   7 4030.74 768.106   8
  -5   6  -8 84.7984 113.156   6
   5  -6   8-112.904 227.226   8
  -5   6  -9 4854.92 725.677   6
  -5   6  -9 5790.60 819.948   4
  -5   6 -10 163.956 161.461   4
  -5   5  11-227.889 277.517   2
  -5   5  10 18.1718 135.263   6
  -5   5  10 177.817 160.777   2
  -5   5   9 1003.96 394.760   6
  -5   5   9 1113.52 396.136   2
   5  -5  -9 975.158 385.836   4
  -5   5   8 298.551 223.547   6
  -5   5   8 58.7384 111.422   2
   5  -5  -8-297.491 280.867   4
  -5   5   7 551.879 279.429   6
  -5   5   7 720.452 291.230   2
   5  -5  -7 840.050 335.089   4
  -5   5   6-239.234 272.880   6
  -5   5   6-139.227 165.823   2
   5  -5  -6-238.938 272.310   4
  -5   5   5 1274.86 459.410   6
  -5   5   5 2006.45 437.866   2
   5  -5  -5 2158.82 399.659   1
   5  -5  -5 1663.65 429.693   4
  -5   5   4-6.39728 86.0335   2
   5  -5  -4 64.0255 126.966   4
   5  -5  -4 183.881 89.8925   7
   5  -5  -3 15063.9 1307.57   4
   5  -5  -3 14557.3 989.482   7
  -5   5   2 5550.28 874.754   6
   5  -5  -2 6151.65 586.330   3
   5  -5  -2 7228.73 961.952   8
   5  -5  -2 6726.62 861.521   4
   5  -5  -2 6482.58 663.624   7
  -5   5   1 1487.46 442.071   6
   5  -5  -1 1821.30 285.632   3
   5  -5  -1 1605.64 425.654   8
   5  -5  -1 1924.70 367.646   7
  -5   5   0 1124.11 366.016   6
   5  -5   0 677.965 320.452   8
   5  -5   0 764.937 144.900   3
  -5   5  -1 9635.90 1038.98   6
   5  -5   1 9862.61 1084.30   8
  -5   5  -1 8781.92 821.132   4
  -5   5  -2-82.2951 153.583   6
   5  -5   2-1.25298 129.010   8
  -5   5  -2-21.7249 97.7255   4
  -5   5  -3 24884.6 1629.08   6
   5  -5   3 24209.4 1766.97   8
  -5   5  -4-260.592 239.877   6
   5  -5   4 126.375 160.026   8
  -5   5  -5 3777.43 637.296   6
   5  -5   5 4779.45 776.424   8
  -5   5  -6 115.269 117.507   6
   5  -5   6 143.218 178.455   8
  -5   5  -7 9415.37 985.688   6
   5  -5   7 9839.82 1181.31   8
  -5   5  -8-10.7098 104.328   6
   5  -5   8 388.676 290.159   8
  -5   5  -9 6620.65 827.459   6
   5  -5   9 7080.60 1061.66   8
  -5   5  -9 7150.94 852.226   4
  -5   5 -10-8.49936 88.1671   6
  -5   5 -10 123.211 158.359   4
  -5   5 -11 2269.98 502.779   4
  -5   4  11 840.134 391.882   2
   5  -4 -10 471.145 333.451   4
  -5   4  10 150.920 223.640   2
   5  -4  -9 1144.89 401.733   4
  -5   4   9 652.386 269.208   6
  -5   4   9 563.314 301.193   2
  -5   4   8-30.9173 141.553   6
  -5   4   8 217.349 214.176   2
   5  -4  -8 394.999 248.446   4
  -5   4   7 2626.28 620.001   6
  -5   4   7 3297.73 615.133   2
   5  -4  -7 3678.72 675.824   4
  -5   4   6 264.562 176.332   6
  -5   4   6 365.265 230.535   2
   5  -4  -6 317.564 206.971   4
  -5   4   5 1761.41 509.464   6
  -5   4   5 1842.23 419.037   2
   5  -4  -5 1812.29 361.114   1
   5  -4  -5 1147.83 405.871   4
  -5   4   4 933.246 348.653   6
  -5   4   4 1127.35 326.481   2
   5  -4  -4 957.234 267.238   1
   5  -4  -4 1076.01 220.796   7
   5  -4  -4 1298.37 344.807   4
   5  -4  -3 3142.12 477.281   1
  -5   4   3 3057.10 641.077   6
  -5   4   3 3584.27 557.020   2
   5  -4  -3 2855.40 394.225   7
   5  -4  -3 3250.29 571.873   4
  -5   4   2 38.1696 104.056   4
  -5   4   2 41.4168 118.815   6
   5  -4  -2 168.827 130.410   7
   5  -4  -2-100.639 150.325   4
   5  -4  -1 15102.0 1151.97   2
  -5   4   1 18373.5 1438.92   6
   5  -4  -1 16226.6 953.274   3
   5  -4  -1 16664.9 1361.21   8
   5  -4  -1 16767.5 1215.14   4
  -5   4   1 17715.6 1138.94   4
   5  -4  -1 16668.4 1025.84   7
  -5   4   0 627.660 206.503   4
  -5   4   0 344.351 140.663   6
   5  -4   0 620.070 273.855   8
   5  -4   0 547.589 158.556   3
   5  -4   0 157.219 89.0600   2
   5  -4   0 452.571 189.417   7
   5  -4   1 3672.39 547.686   2
   5  -4   1 3839.94 349.654   3
  -5   4  -1 4013.34 620.499   6
  -5   4  -1 4484.37 532.479   4
   5  -4   1 4305.34 671.911   8
   5  -4   1 4035.77 540.507   7
  -5   4  -2 1464.41 351.665   6
   5  -4   2 1383.54 364.319   8
  -5   4  -2 1160.66 271.200   4
  -5   4  -3 2729.03 507.859   6
  -5   4  -3 3344.94 462.521   4
   5  -4   3 3007.96 576.160   8
  -5   4  -4 21.8073 81.8889   6
   5  -4   4 318.040 204.173   8
  -5   4  -4 175.788 112.214   4
  -5   4  -5 27110.9 1629.00   6
   5  -4   5 27897.9 1828.44   8
  -5   4  -5 26247.2 1460.63   4
  -5   4  -6 1003.64 293.628   6
   5  -4   6 894.866 322.219   8
  -5   4  -6 961.229 281.427   4
  -5   4  -7 6768.11 810.419   6
  -5   4  -7 6629.28 482.694   3
   5  -4   7 6606.86 917.994   8
  -5   4  -8-98.1406 171.413   6
  -5   4  -8-159.937 178.033   4
   5  -4   8-88.9485 193.293   8
  -5   4  -8 177.511 86.2890   3
  -5   4  -9 5549.19 731.932   6
   5  -4   9 6463.12 966.454   8
  -5   4  -9 5834.01 722.624   4
  -5   4 -10-60.4433 148.750   6
  -5   4 -10-2.89684 129.340   4
   5  -4  10 18.6329 225.950   8
  -5   4 -11 680.652 259.599   6
  -5   4 -11 1169.72 318.715   4
  -5   4 -12 79.5313 127.371   4
   5  -3 -10 697.246 341.958   4
  -5   3  10 118.223 149.238   2
   5  -3  -9 1806.41 502.714   4
  -5   3   9 1371.90 385.058   6
  -5   3   9 1380.22 448.947   2
   5  -3  -8 1975.28 524.367   4
  -5   3   8 1125.79 350.472   6
  -5   3   8 1060.57 412.647   2
   5  -3  -7 3067.67 598.913   4
  -5   3   7 3074.35 598.433   6
  -5   3   7 3364.14 635.330   2
   5  -3  -6 1031.13 339.132   4
  -5   3   6 575.075 271.329   6
  -5   3   6 372.957 222.162   2
  -5   3   5 6191.09 809.118   2
  -5   3   5 6920.36 889.141   6
   5  -3  -5 7057.98 839.709   4
   5  -3  -5 6923.45 367.562   7
   5  -3  -5 6214.71 653.532   1
  -5   3   4 2635.40 549.660   6
   5  -3  -4 1855.34 362.398   1
  -5   3   4 2366.84 488.510   2
   5  -3  -4 1881.02 249.993   7
   5  -3  -4 2292.56 463.832   4
  -5   3   3 8870.07 903.538   2
  -5   3   3 9380.26 1000.23   6
   5  -3  -3 9081.95 813.110   1
   5  -3  -3 8936.90 873.194   4
  -5   3   3 10656.3 891.554   4
   5  -3  -3 8776.94 601.349   7
   5  -3  -2 1055.12 311.439   2
  -5   3   2 832.882 247.234   4
  -5   3   2 367.046 181.619   6
  -5   3   2 276.000 132.458   2
   5  -3  -2 707.009 188.964   7
   5  -3  -2 344.971 201.346   4
   5  -3  -2 710.608 228.292   1
  -5   3   1 4632.81 664.843   6
   5  -3  -1 4987.05 632.744   2
   5  -3  -1 4881.89 536.076   3
   5  -3  -1 4852.87 671.074   8
   5  -3  -1 4524.91 571.435   4
  -5   3   1 4595.95 547.069   4
   5  -3  -1 5131.07 500.419   7
  -5   3   0 3666.77 566.909   6
   5  -3   0 3331.54 411.083   3
  -5   3   0 3370.61 451.316   4
   5  -3   0 3317.29 564.278   8
   5  -3   0 3968.68 464.425   7
   5  -3   0 2937.71 480.408   2
   5  -3   0 2904.86 429.482   4
   5  -3   1 5333.49 640.138   2
  -5   3  -1 5189.63 664.545   6
   5  -3   1 4948.25 452.851   3
   5  -3   1 5427.08 702.503   8
   5  -3   1 5869.68 600.168   7
  -5   3  -2 1253.69 328.432   6
   5  -3   2 877.815 242.792   2
   5  -3   2 1190.81 348.150   8
   5  -3   2 1648.89 316.638   7
   5  -3   2 1446.50 221.878   3
  -5   3  -3 21829.2 1383.11   6
   5  -3   3 23584.8 1533.54   8
  -5   3  -4 1480.13 347.068   6
   5  -3   4 1079.68 319.040   8
  -5   3  -5 9850.98 920.313   6
  -5   3  -5 8424.00 576.742   3
   5  -3   5 8225.31 937.921   8
  -5   3  -5 8389.83 728.673   4
  -5   3  -6-154.167 150.501   6
  -5   3  -6 58.1405 67.2562   3
  -5   3  -6-1.46574 70.8351   4
  -5   3  -7 8497.07 870.770   6
   5  -3   7 9858.42 1057.51   8
  -5   3  -7 9448.28 695.394   3
  -5   3  -8-56.2582 104.994   6
  -5   3  -8-163.458 156.215   4
   5  -3   8-48.6634 147.997   8
  -5   3  -8 120.116 105.946   3
  -5   3  -9 4968.80 666.026   6
   5  -3   9 6466.23 934.833   8
  -5   3  -9 5300.56 594.698   3
  -5   3  -9 5661.84 639.061   4
  -5   3 -10 13.1530 86.7624   6
  -5   3 -10 78.8232 103.746   4
   5  -3  10 414.368 241.736   8
  -5   3 -10 275.056 142.585   3
   5  -3  11 4427.47 838.095   8
  -5   3 -11 3275.18 521.039   4
  -5   3 -12-3.93737 117.947   4
  -5   3 -13 119.803 142.081   4
   5  -2 -10-233.336 222.453   4
  -5   2  10 518.813 327.903   2
   5  -2  -9 1520.25 442.349   4
  -5   2   9 1293.11 480.449   2
   5  -2  -8-115.481 173.593   4
  -5   2   8 296.530 159.368   6
  -5   2   8 48.8887 143.581   2
  -5   2   7 5234.61 811.987   2
  -5   2   7 5961.55 714.574   6
   5  -2  -7 6335.39 825.980   4
  -5   2   6 766.443 265.555   6
  -5   2   6 641.540 239.898   2
   5  -2  -5 3453.79 581.551   4
  -5   2   5 1914.63 399.971   6
  -5   2   5 2903.94 545.841   2
   5  -2  -4 438.192 169.358   4
  -5   2   4 450.769 177.059   4
  -5   2   4 412.736 188.030   6
  -5   2   4 504.907 252.341   2
   5  -2  -4 597.350 227.515   1
   5  -2  -4 511.964 107.511   7
   5  -2  -3 12709.0 978.723   1
  -5   2   3 12475.8 1071.79   2
  -5   2   3 11065.5 984.720   6
   5  -2  -3 12256.9 959.881   4
   5  -2  -3 11820.0 620.341   7
  -5   2   3 13455.6 960.771   4
   5  -2  -2-93.5865 85.3121   2
  -5   2   2 45.7230 101.161   4
  -5   2   2 5.89412 111.764   6
  -5   2   2 213.767 175.504   2
   5  -2  -2 338.880 196.825   1
   5  -2  -2 81.5578 99.9223   7
   5  -2  -2-94.8984 145.935   4
  -5   2   1 52535.7 2235.61   6
   5  -2  -1 55318.2 2260.34   2
   5  -2  -1 54154.2 2169.54   1
   5  -2  -1 54718.9 2068.29   3
   5  -2  -1 53470.9 1997.64   4
   5  -2  -1 55299.4 1758.31   7
  -5   2   1 55059.8 2235.14   2
  -5   2   0 887.023 261.923   6
   5  -2   0 1595.84 315.988   6
   5  -2   0 1253.39 305.037   1
   5  -2   0 1329.06 356.469   8
   5  -2   0 1229.33 267.304   3
   5  -2   0 835.463 248.444   2
   5  -2   0 996.109 232.390   4
   5  -2   1 19373.5 1231.47   2
  -5   2  -1 18679.6 1213.41   6
   5  -2   1 20551.9 1175.36   6
   5  -2   1 17186.1 956.809   3
   5  -2   1 18717.6 1227.28   8
  -5   2  -1 15204.1 867.185   4
  -5   2  -2 343.809 150.743   4
  -5   2  -2 44.7199 102.973   6
   5  -2   2 335.621 180.739   6
   5  -2   2 68.9992 124.146   2
   5  -2   2 67.3131 88.1459   8
   5  -2   2 102.463 78.9979   3
  -5   2  -3 544.887 191.344   6
   5  -2   3 537.006 191.032   6
   5  -2   3 121.219 131.265   2
   5  -2   3 67.2452 88.7118   8
  -5   2  -3 416.251 133.259   4
  -5   2  -4 1076.61 288.715   6
  -5   2  -4 808.980 199.389   3
   5  -2   4 1609.26 374.225   8
  -5   2  -4 1220.38 218.587   4
  -5   2  -5 8456.64 836.609   6
  -5   2  -5 8827.64 653.049   3
   5  -2   5 8472.81 883.797   8
  -5   2  -5 8270.69 641.467   4
  -5   2  -6-151.575 184.239   6
   5  -2   6 395.852 235.710   8
  -5   2  -6 219.756 111.272   3
  -5   2  -7 17608.3 1231.30   6
   5  -2   7 18115.7 1385.36   8
  -5   2  -7 16850.3 1029.61   3
  -5   2  -7 18065.4 1001.11   4
  -5   2  -8 561.960 216.352   6
  -5   2  -8 1049.85 244.861   4
   5  -2   8 845.899 317.647   8
  -5   2  -8 676.665 210.962   3
  -5   2  -9 18022.8 1288.74   6
   5  -2   9 19894.9 1591.71   8
  -5   2  -9 20543.3 1246.47   3
  -5   2  -9 20069.4 1128.89   4
  -5   2 -10-68.0481 117.077   6
  -5   2 -10-32.8684 73.4883   4
   5  -2  10 59.3767 131.456   8
  -5   2 -10-80.0581 108.126   3
  -5   2 -11 1734.37 354.226   4
   5  -2  11 2038.95 584.281   8
  -5   2 -11 1966.46 406.227   3
  -5   2 -12-36.5321 152.549   4
   5  -2  12 269.990 197.432   8
  -5   2 -12 67.4226 102.132   3
  -5   2 -13 533.672 203.597   4
   5  -1 -10 222.410 182.434   4
  -5   1  10 141.142 120.529   2
   5  -1  -9 1342.11 391.061   4
  -5   1   9 1186.69 444.429   2
   5  -1  -8 10.3160 132.917   4
  -5   1   8 274.652 161.472   6
  -5   1   8 237.598 163.078   2
   5  -1  -7 1518.80 395.760   4
  -5   1   7 1599.73 327.612   6
  -5   1   7 2054.29 533.544   2
  -5   1   6 4946.94 587.428   6
   5  -1  -6 5322.21 684.094   4
  -5   1   6 4752.22 759.701   2
  -5   1   5 19434.8 1490.14   2
  -5   1   5 20717.1 1247.15   6
   5  -1  -5 22761.4 1397.42   4
   5  -1  -4 3462.69 517.727   4
  -5   1   4 3864.88 521.982   6
  -5   1   4 3783.80 630.023   2
   5  -1  -4 4289.65 209.888   7
  -5   1   4 3865.24 533.191   4
   5  -1  -4 3885.21 213.025   7
  -5   1   3 21197.0 1430.04   2
  -5   1   3 20343.8 1233.40   6
   5  -1  -3 20006.5 1198.08   4
   5  -1  -3 20333.2 745.899   7
  -5   1   3 20410.0 1170.43   4
   5  -1  -3 20511.3 835.056   7
   5  -1  -3 19926.3 1256.34   1
   5  -1  -2 1156.50 253.374   4
   5  -1  -2 887.794 286.554   1
   5  -1  -2 929.047 297.652   2
  -5   1   2 1050.57 280.204   6
   5  -1  -2 1256.03 265.902   6
  -5   1   2 1113.81 323.067   2
   5  -1  -1 9215.37 844.775   1
  -5   1   1 9332.59 812.803   6
   5  -1  -1 10098.6 772.155   6
   5  -1  -1 8230.89 814.368   2
   5  -1  -1 8689.13 799.143   3
   5  -1  -1 8176.96 653.458   4
  -5   1   1 8900.00 646.736   4
  -5   1   1 8777.41 844.398   2
   5  -1   0 158.442 151.396   1
  -5   1   0 189.810 107.355   4
  -5   1   0 111.924 83.9759   6
   5  -1   0 85.2584 110.098   6
  -5   1   0-94.0009 121.581   2
   5  -1   0 88.4290 77.9831   3
   5  -1   0 119.938 129.176   8
   5  -1   0 19.4459 122.968   2
   5  -1   0 30.0455 67.7744   4
   5  -1   1 21794.2 1306.37   2
  -5   1  -1 21489.1 1279.16   6
   5  -1   1 24417.8 1288.92   6
   5  -1   1 21380.3 1284.35   1
   5  -1   1 20574.7 1124.51   3
   5  -1   1 21092.9 1244.43   8
   5  -1   1 21202.6 962.162   4
  -5   1  -1 20763.3 918.648   4
   5  -1   2 1571.75 347.058   1
  -5   1  -2 1614.04 227.959   4
  -5   1  -2 1333.40 318.990   6
   5  -1   2 1669.72 331.107   6
   5  -1   2 990.255 258.762   2
   5  -1   2 1243.64 282.669   8
   5  -1   2 1320.26 261.487   3
   5  -1   3 32856.7 1665.84   2
  -5   1  -3 30826.9 1567.81   6
   5  -1   3 32812.1 1563.26   6
   5  -1   3 30132.1 1542.11   8
   5  -1   3 32222.0 1352.49   3
  -5   1  -3 30209.6 1070.76   4
  -5   1  -4-111.369 139.593   6
   5  -1   4-61.7423 70.1388   6
   5  -1   4 74.3317 76.6788   2
   5  -1   4-115.905 159.536   8
  -5   1  -4-64.8315 81.9616   3
  -5   1  -4 49.9625 63.0622   4
  -5   1  -5 6421.19 706.261   6
   5  -1   5 7080.56 723.716   6
  -5   1  -5 7000.04 639.413   3
   5  -1   5 6838.75 732.445   8
  -5   1  -5 6757.87 734.348   8
  -5   1  -5 5857.36 464.293   4
  -5   1  -6 2211.40 423.358   6
  -5   1  -6 2711.25 408.465   3
  -5   1  -6 2196.87 304.099   4
   5  -1   6 1644.23 370.448   8
  -5   1  -6 2106.10 418.082   8
  -5   1  -6 1994.40 262.708   4
  -5   1  -7 17025.4 1181.49   6
   5  -1   7 17489.2 1294.81   8
  -5   1  -7 16271.9 1066.60   3
  -5   1  -7 16869.7 837.090   4
  -5   1  -8 133.956 127.490   6
  -5   1  -8-5.47793 66.6821   4
   5  -1   8-66.6786 140.941   8
  -5   1  -8 105.923 79.1612   3
  -5   1  -9 6639.07 749.792   6
   5  -1   9 6968.43 914.998   8
  -5   1  -9 6127.46 690.940   3
  -5   1  -9 7007.34 604.339   4
  -5   1 -10-17.6276 123.601   4
   5  -1  10-199.006 216.171   8
  -5   1 -10-136.022 171.093   3
   5  -1  11 8686.51 1178.26   8
  -5   1 -11 8470.07 867.988   3
  -5   1 -11 8665.63 768.419   4
  -5   1 -12 289.514 152.453   4
   5  -1  12 199.553 253.315   8
  -5   1 -13 1251.25 322.816   4
   5  -1  13 1102.94 494.807   8
   5   0 -10 365.941 264.313   4
  -5   0  10 367.932 290.633   2
   5   0  -9 1880.81 486.793   4
  -5   0   9 1387.89 491.455   2
   5   0  -8 733.636 297.557   4
  -5   0   8 385.067 257.429   2
  -5   0   7 5923.67 595.706   6
  -5   0   7 7520.90 1007.57   2
   5   0  -7 7040.66 828.140   4
   5   0  -6 1179.86 319.482   4
  -5   0   6 1514.28 305.262   6
  -5   0   6 1477.77 442.563   2
   5   0  -5 1425.52 334.199   4
  -5   0   5 1248.08 286.591   6
  -5   0   5 2081.73 502.759   2
  -5   0   4 5233.46 742.502   2
  -5   0   4 6125.01 630.570   6
   5   0  -4 6911.68 690.907   4
  -5   0   4 7266.78 702.114   4
  -5   0   3 6864.13 818.179   2
  -5   0   3 6967.91 668.634   6
   5   0  -3 6755.22 582.718   6
   5   0  -3 7058.57 643.946   4
  -5   0   3 6337.40 601.962   4
   5   0  -3 5976.37 421.095   7
   5   0  -2 68.1598 83.5159   7
   5   0  -2-17.5972 129.005   4
   5   0  -2-124.387 172.183   2
  -5   0   2 137.988 151.412   6
   5   0  -2 252.665 124.803   6
   5   0  -2 230.037 139.459   5
   5   0  -2 166.257 157.866   1
   5   0  -2 243.901 166.285   3
  -5   0   2 55.2829 152.887   2
  -5   0   1 44880.3 2022.18   2
  -5   0   1 44777.1 1850.56   6
   5   0  -1 47996.9 1797.61   6
   5   0  -1 44680.4 1997.57   2
   5   0  -1 43476.2 1555.47   4
  -5   0   1 41494.5 1469.09   4
   5   0  -1 43896.1 1968.81   1
   5   0  -1 44807.3 1982.48   3
  -5   0   0 8325.43 752.656   6
   5   0   0 8874.66 733.155   6
   5   0   0 7233.91 743.020   2
   5   0   0 8280.49 768.025   3
   5   0   0 6848.02 638.656   8
   5   0   0 7741.94 536.160   4
  -5   0   0 7809.07 504.523   4
   5   0   0 7561.58 765.604   1
  -5   0   0 6959.60 733.458   2
   5   0   1 54411.9 2218.95   1
  -5   0  -1 53522.0 2089.01   6
   5   0   1 50767.5 2114.06   2
   5   0   1 55080.6 2059.71   6
   5   0   1 51811.7 1993.25   3
   5   0   1 52226.7 1924.31   8
   5   0   1 51697.5 1467.31   4
  -5   0  -1 54894.5 1447.93   4
   5   0   2 11245.4 928.599   2
  -5   0  -2 11100.1 878.290   6
   5   0   2 11788.0 894.646   6
   5   0   2 12045.3 963.924   1
   5   0   2 10542.2 802.678   8
   5   0   2 10448.7 793.897   3
  -5   0  -2 10961.1 470.159   4
   5   0   3 13531.4 1026.83   2
  -5   0  -3 12702.1 970.464   6
   5   0   3 13899.8 997.866   6
   5   0   3 13992.4 1048.74   1
  -5   0  -3 12579.3 879.430   3
   5   0   3 12677.7 894.169   8
   5   0   3 13530.3 892.067   3
  -5   0  -3 12605.3 461.763   4
  -5   0  -4 1595.59 348.984   6
   5   0   4 1758.46 349.695   6
   5   0   4 1491.95 337.548   2
   5   0   4 1699.32 319.210   8
  -5   0  -4 1858.74 163.571   4
  -5   0  -4 1412.71 287.079   3
  -5   0  -4 2094.86 163.847   4
   5   0   4 1569.87 329.910   1
  -5   0  -5 19089.2 1212.39   6
   5   0   5 19937.3 1253.15   6
   5   0   5 18198.8 1208.15   1
  -5   0  -5 18357.9 1130.85   3
   5   0   5 19018.0 1168.35   8
  -5   0  -5 19475.0 1189.47   8
  -5   0  -5 18014.1 654.834   4
  -5   0  -5 19375.3 624.185   4
   5   0   5 18842.8 1249.37   2
  -5   0  -6 260.942 170.438   6
  -5   0  -6 125.562 65.5397   4
   5   0   6 127.139 143.665   6
   5   0   6-171.479 131.751   8
  -5   0  -6 209.538 141.188   8
  -5   0  -6-31.0673 94.9764   3
  -5   0  -6 230.873 82.9409   4
  -5   0  -7 146.192 122.891   6
  -5   0  -7 251.648 94.4188   4
   5   0   7 60.1245 142.770   8
  -5   0  -7 449.906 217.397   8
  -5   0  -7 160.098 128.403   3
  -5   0  -8 794.716 179.120   4
   5   0   8 734.636 288.492   8
  -5   0  -8 766.602 257.710   3
   5   0   9 17219.2 1418.54   8
  -5   0  -9 16477.9 1175.04   3
  -5   0  -9 20111.9 987.771   4
  -5   0 -10 416.136 161.039   4
   5   0  10-135.737 226.959   8
  -5   0 -10 363.320 187.430   3
   5   0  11 4634.05 829.258   8
  -5   0 -11 5090.95 694.184   3
  -5   0 -11 5754.16 578.747   4
  -5   0 -12 358.053 150.098   4
   5   0  12 356.365 235.965   8
  -5   0 -13 1617.22 354.339   4
   5   0  13 362.383 313.399   8
   5   1 -10 856.288 340.156   4
  -5  -1   9 1355.23 483.314   2
   5   1  -9 1967.97 473.949   4
   5   1  -8 417.405 228.270   4
  -5  -1   8 223.742 267.342   2
   5   1  -7 802.535 284.661   4
  -5  -1   7 984.973 371.278   2
   5   1  -6 38.8300 103.487   4
  -5  -1   6 54.1290 59.3876   6
  -5  -1   6-66.0834 155.048   2
  -5  -1   6 207.007 213.356   1
  -5  -1   5 13596.4 875.185   6
  -5  -1   5 12513.2 1218.30   2
  -5  -1   5 13437.7 960.016   1
   5   1  -5 11057.9 1111.60   8
   5   1  -5 12753.5 992.441   4
  -5  -1   4 3339.07 447.359   6
   5   1  -4 3798.44 410.667   6
  -5  -1   4 3741.38 512.667   1
   5   1  -4 3690.28 502.983   4
   5   1  -4 3287.60 238.682   7
  -5  -1   4 3100.93 463.642   4
  -5  -1   4 4030.40 653.221   2
  -5  -1   3 24251.0 1250.27   6
  -5  -1   3 25164.6 1599.43   2
   5   1  -3 24403.1 1162.86   6
  -5  -1   3 25843.1 1373.09   1
   5   1  -3 27263.0 1292.07   4
   5   1  -3 23446.8 968.217   7
  -5  -1   3 23727.9 1234.04   4
   5   1  -2 1084.55 210.338   7
   5   1  -2 1067.86 228.152   4
  -5  -1   2 1125.42 276.009   6
   5   1  -2 790.357 207.064   6
   5   1  -2 1160.64 324.601   5
   5   1  -2 870.790 267.152   3
  -5  -1   2 888.553 294.154   2
  -5  -1   1 8718.34 860.486   2
  -5  -1   1 8896.10 751.578   6
   5   1  -1 9684.27 759.172   6
   5   1  -1 8427.33 836.731   2
   5   1  -1 9257.95 882.074   5
   5   1  -1 9541.93 886.697   3
   5   1  -1 8569.99 598.354   4
   5   1  -1 9006.12 675.223   7
  -5  -1   1 7792.86 559.083   4
  -5  -1   0 4217.99 573.356   2
  -5  -1   0 4750.38 538.070   6
   5   1   0 4484.59 522.420   6
   5   1   0 4119.67 562.512   2
   5   1   0 5117.18 620.278   3
   5   1   0 4892.96 496.075   8
   5   1   0 4437.25 378.082   4
   5   1   0 4549.02 602.429   1
  -5  -1   0 4348.03 360.093   4
   5   1   0 4137.02 480.440   7
  -5  -1  -1 17211.2 1071.25   6
   5   1   1 16341.2 1129.84   2
   5   1   1 18938.8 1122.31   6
   5   1   1 16845.4 1105.05   3
   5   1   1 15797.9 895.528   8
   5   1   1 16465.6 644.851   4
  -5  -1  -1 17129.1 626.991   4
   5   1   1 16981.2 1050.65   7
   5   1   1 18769.6 1241.95   1
  -5  -1  -1 15220.3 1067.93   2
  -5  -1  -2 14168.9 980.254   6
   5   1   2 12819.6 981.445   2
   5   1   2 14699.8 990.946   6
   5   1   2 12442.0 785.188   8
   5   1   2 11772.5 885.967   3
   5   1   2 14008.9 1056.11   1
   5   1   3 65714.5 2479.56   1
   5   1   3 60424.4 2335.20   2
  -5  -1  -3 60710.8 2247.45   6
   5   1   3 63430.6 2304.77   6
  -5  -1  -3 59336.8 2205.12   3
   5   1   3 61825.0 2001.57   8
   5   1   3 63254.8 2221.95   3
  -5  -1  -4 2537.90 417.273   6
   5   1   4 2101.28 380.779   6
   5   1   4 1954.85 413.878   1
   5   1   4 2669.75 453.828   2
   5   1   4 2355.43 352.247   8
  -5  -1  -4 1866.22 361.915   3
  -5  -1  -5 9063.54 808.207   6
   5   1   5 8646.22 831.121   1
   5   1   5 9185.79 836.976   6
  -5  -1  -5 9579.04 850.050   3
   5   1   5 7953.78 682.922   8
   5   1   5 9049.67 844.047   2
  -5  -1  -6 541.649 70.1257   4
   5   1   6 857.054 258.934   6
   5   1   6 441.134 157.593   8
  -5  -1  -6 466.899 177.137   8
  -5  -1  -6 815.958 263.650   3
   5   1   6 960.846 289.582   1
  -5  -1  -6 482.355 67.2124   4
   5   1   7 9113.25 851.605   8
  -5  -1  -7 8849.97 841.502   8
  -5  -1  -7 7760.30 803.750   3
  -5  -1  -7 9064.34 441.745   4
   5   1   8 2603.55 487.221   8
  -5  -1  -8 2908.95 520.986   8
  -5  -1  -8 2655.83 281.766   4
  -5  -1  -8 2665.07 468.587   3
   5   1   9 5365.41 766.453   8
  -5  -1  -9 4830.00 656.363   3
  -5  -1  -9 6555.28 499.496   4
  -5  -1 -10 505.774 165.044   4
   5   1  10 339.897 152.755   8
  -5  -1 -10 368.574 189.057   3
   5   1  11 4879.47 839.026   8
  -5  -1 -11 4196.25 656.962   3
  -5  -1 -11 5599.45 550.746   4
  -5  -1 -12 1284.99 295.789   4
   5   1  12 332.973 263.413   8
  -5  -1 -12 1222.91 387.698   3
  -5  -1 -13 2395.71 422.611   4
   5   1  13 3409.76 774.296   8
   5   1  14 643.965 364.656   8
   5   2 -10 163.794 186.814   4
  -5  -2   9 1181.26 458.673   2
   5   2  -9 853.817 308.870   4
  -5  -2   8 15.2742 199.130   2
   5   2  -8 48.4132 137.994   4
  -5  -2   8 268.254 149.556   1
  -5  -2   7 5553.69 648.746   1
   5   2  -7 5348.86 713.888   4
  -5  -2   7 4746.79 853.825   2
   5   2  -6 132.996 120.936   4
  -5  -2   6 280.000 163.610   1
  -5  -2   6-95.6466 221.443   2
   5   2  -5 2166.76 394.885   4
   5   2  -5 2304.93 485.376   8
   5   2  -5 1954.95 168.453   7
  -5  -2   5 1431.29 356.826   1
  -5  -2   5 1975.45 495.741   2
   5   2  -4-78.8973 120.108   4
   5   2  -4-54.8554 76.6316   6
   5   2  -4 204.681 154.602   8
  -5  -2   4 202.319 203.835   2
   5   2  -4 226.442 98.7501   7
  -5  -2   4-55.3182 117.635   1
   5   2  -3 3610.97 425.542   6
  -5  -2   3 4374.00 599.970   1
   5   2  -3 3566.65 523.719   8
   5   2  -3 4175.43 496.457   4
   5   2  -3 4258.33 412.002   7
  -5  -2   3 4033.21 648.992   2
  -5  -2   2 5806.98 578.202   6
  -5  -2   2 6481.98 780.368   2
   5   2  -2 6248.36 582.556   6
  -5  -2   2 5885.81 715.747   1
   5   2  -2 6492.72 571.848   4
   5   2  -2 6233.60 577.068   7
  -5  -2   1 50185.8 2187.45   2
  -5  -2   1 48601.8 1880.37   6
   5   2  -1 51454.2 1897.39   6
  -5  -2   1 51023.9 2127.57   1
   5   2  -1 49597.1 2185.76   2
   5   2  -1 51458.9 2248.66   5
   5   2  -1 49978.4 2240.85   3
   5   2  -1 49980.6 1618.07   4
   5   2  -1 49698.3 1873.26   7
   5   2   0 337.780 190.979   7
   5   2   0 44.9001 68.6083   2
   5   2   0 205.482 101.066   4
  -5  -2   0 123.408 114.869   6
  -5  -2   0 213.665 174.573   1
   5   2   0 72.0420 93.2441   6
   5   2   0 449.627 190.808   5
  -5  -2   0-3.96219 95.1729   2
   5   2   0 92.6898 81.0271   8
   5   2   0 329.021 200.231   3
  -5  -2  -1 14699.3 973.553   6
   5   2   1 15832.8 1005.63   6
   5   2   1 14296.5 1054.51   2
  -5  -2  -1 15424.8 1094.30   1
   5   2   1 15670.9 1131.93   5
   5   2   1 14282.9 1055.41   3
   5   2   1 14592.0 758.645   8
   5   2   1 14499.6 578.046   4
   5   2   1 15349.7 1013.25   7
  -5  -2  -1 13951.7 1017.25   2
   5   2   2 2856.75 449.999   7
   5   2   2 3223.87 485.339   2
   5   2   2 3387.26 465.271   6
   5   2   2 3030.56 489.400   1
   5   2   2 2813.53 310.712   8
   5   2   2 3139.11 462.168   3
   5   2   3 23583.6 1345.14   2
   5   2   3 22922.5 1294.40   6
  -5  -2  -3 23807.0 1375.61   3
   5   2   3 24128.6 1010.55   8
   5   2   3 24095.2 1345.54   3
   5   2   3 24802.2 1392.68   7
   5   2   3 24915.3 1463.52   1
   5   2   4 141.440 166.449   7
   5   2   4 117.353 61.0943   6
   5   2   4 156.984 90.3696   8
   5   2   4 224.100 161.625   2
  -5  -2  -4 77.1227 143.985   3
   5   2   4 71.4738 125.563   1
   5   2   4 191.633 124.390   3
   5   2   5 27011.2 1499.42   2
   5   2   5 27463.2 1506.60   6
   5   2   5 27300.7 1239.62   8
  -5  -2  -5 29959.8 1622.33   3
  -5  -2  -5 24189.7 1193.67   8
   5   2   5 28921.2 1598.15   1
   5   2   6 1823.35 388.551   1
   5   2   6 1687.79 362.152   2
   5   2   6 1670.65 329.372   8
  -5  -2  -6 2250.76 452.462   3
   5   2   7 13545.9 1014.46   8
  -5  -2  -7 14106.1 998.560   8
  -5  -2  -7 13338.8 1086.75   3
  -5  -2  -7 13512.7 455.972   4
   5   2   7 14074.0 1098.52   1
  -5  -2  -8 4214.74 580.451   8
   5   2   8 3788.20 568.364   8
  -5  -2  -8 3578.16 308.867   4
  -5  -2  -8 3726.39 568.096   3
  -5  -2  -9 4995.55 680.657   8
   5   2   9 4212.56 656.787   8
  -5  -2  -9 4951.62 679.616   3
  -5  -2  -9 5181.28 421.708   4
  -5  -2 -10 894.486 198.517   4
   5   2  10 624.755 302.071   8
  -5  -2 -10 882.216 301.210   3
   5   2  11 8102.09 1087.84   8
  -5  -2 -11 9922.62 1065.85   3
  -5  -2 -11 11280.0 778.007   4
  -5  -2 -12 278.666 176.798   4
   5   2  12 137.543 190.712   8
  -5  -2 -12-96.1344 191.381   3
  -5  -2 -13-41.1497 105.142   4
   5   2  13-98.7492 277.854   8
   5   2  14 679.856 352.261   7
   5   3  -9 1840.79 453.363   4
  -5  -3   8 759.392 361.886   2
   5   3  -8 832.189 294.939   4
  -5  -3   8 494.429 214.420   1
  -5  -3   7 706.936 381.366   2
   5   3  -7 800.486 276.573   4
  -5  -3   7 1481.21 384.480   1
   5   3  -6 54.8887 130.601   4
  -5  -3   6 20.6218 108.097   1
  -5  -3   6-172.074 175.065   2
   5   3  -5 1802.95 257.418   6
   5   3  -5 1761.73 364.591   4
  -5  -3   5 1809.04 410.985   1
   5   3  -5 1790.17 399.306   8
   5   3  -5 2121.69 269.447   7
  -5  -3   5 1890.61 508.644   2
  -5  -3   4 6661.60 786.285   1
  -5  -3   4 6654.51 894.177   2
   5   3  -4 6697.69 549.493   6
   5   3  -4 7077.71 752.645   8
   5   3  -4 7466.91 707.123   4
   5   3  -4 6692.74 525.973   7
  -5  -3   3 22506.7 1481.64   1
  -5  -3   3 22030.5 1547.73   2
   5   3  -3 21852.1 1103.92   6
   5   3  -3 20673.8 1227.46   8
   5   3  -3 21826.1 1175.89   4
   5   3  -3 21446.9 1056.86   7
   5   3  -2 7.73471 72.2629   4
   5   3  -2 163.172 112.733   6
  -5  -3   2 176.907 202.735   1
   5   3  -2 70.1549 99.5491   8
  -5  -3   2 209.906 209.332   2
   5   3  -2 175.816 155.477   7
   5   3  -1 2476.95 370.254   6
   5   3  -1 2125.72 420.589   2
   5   3  -1 2327.40 327.223   8
  -5  -3   1 2344.72 463.399   1
  -5  -3   1 1986.66 417.753   2
   5   3  -1 2610.81 331.494   4
   5   3  -1 2703.90 429.854   7
   5   3   0 2000.90 390.321   7
   5   3   0 1563.07 232.194   4
   5   3   0 1530.31 333.768   2
   5   3   0 1279.85 276.480   6
   5   3   0 1880.89 409.658   5
  -5  -3   0 1042.98 272.657   2
  -5  -3   0 1308.37 368.049   1
   5   3   0 1019.95 158.775   8
   5   3   0 1327.80 339.754   3
  -5  -3  -1 45411.3 1932.39   2
   5   3   1 43735.2 1797.84   6
  -5  -3  -1 45529.6 2074.63   1
   5   3   1 46519.9 1996.01   2
   5   3   1 42759.6 2006.40   5
   5   3   1 46927.7 2062.61   3
   5   3   1 43820.6 1222.42   8
   5   3   1 45923.7 1248.93   4
   5   3   1 43444.4 1965.34   7
   5   3   2 2027.28 407.714   7
   5   3   2 1641.77 327.527   6
  -5  -3  -2 1614.93 332.185   2
   5   3   2 1325.68 333.746   5
   5   3   2 1792.45 191.782   8
  -5  -3  -2 1635.87 384.716   1
   5   3   2 1713.21 139.000   4
   5   3   2 1791.03 370.696   3
   5   3   2 1813.95 370.140   2
   5   3   3 8185.45 763.815   6
   5   3   3 8315.15 784.339   2
  -5  -3  -3 8250.65 829.352   1
   5   3   3 9064.65 823.826   5
  -5  -3  -3 7731.23 797.627   3
   5   3   3 7825.19 446.531   8
   5   3   3 8590.24 816.538   3
   5   3   3 8455.80 836.049   7
   5   3   4 6308.67 677.977   2
   5   3   4 5590.94 655.148   6
  -5  -3  -4 5889.96 687.888   1
  -5  -3  -4 5709.54 711.829   3
   5   3   4 5054.87 405.843   8
   5   3   4 6589.43 704.547   3
   5   3   4 5767.66 698.791   7
   5   3   5 50975.0 2094.67   2
   5   3   5 46941.7 1606.06   8
  -5  -3  -5 49534.0 2280.73   3
  -5  -3  -5 48879.3 1609.01   8
   5   3   5 49133.6 2229.50   7
   5   3   6 72.5757 138.267   7
   5   3   6 386.699 331.342   1
   5   3   6-8.23855 78.1840   2
   5   3   6 28.0265 119.169   8
  -5  -3  -6 118.330 94.6236   8
  -5  -3  -6 423.133 248.491   3
   5   3   7 4367.56 686.981   7
  -5  -3  -7 4257.40 641.576   3
   5   3   7 3414.67 477.001   8
   5   3   7 4549.24 619.847   1
   5   3   7 4134.44 560.804   2
   5   3   8-127.299 180.722   7
   5   3   8 281.204 186.477   8
  -5  -3  -8 30.8820 61.6279   8
  -5  -3  -8 197.949 165.621   3
  -5  -3  -8 245.444 81.3710   4
   5   3   9 11411.9 1046.78   8
  -5  -3  -9 12172.8 1018.81   8
  -5  -3  -9 11962.7 1117.65   3
  -5  -3  -9 11891.8 678.770   4
   5   3   9 13291.8 1195.77   7
  -5  -3 -10 230.185 125.856   4
   5   3  10-193.722 210.635   7
   5   3  10 268.285 230.323   8
  -5  -3 -10 290.466 227.986   3
   5   3  11 4611.93 759.459   7
   5   3  11 3757.17 683.463   8
  -5  -3 -11 4599.06 489.414   4
  -5  -3 -11 3664.32 671.465   3
  -5  -3 -12 639.702 209.748   4
   5   3  12 565.662 314.017   7
  -5  -3 -12 854.934 360.047   3
   5   3  13 4355.86 777.971   7
  -5  -3 -13 3657.70 791.357   3
   5   3  14-140.881 133.991   7
  -5  -3 -14 433.777 280.585   3
   5   4  -9 404.136 243.786   4
  -5  -4   8 128.709 108.662   1
  -5  -4   8 207.403 254.857   2
   5   4  -8 358.773 235.285   4
  -5  -4   7 2943.98 736.050   2
   5   4  -7 2790.29 527.464   4
  -5  -4   7 2685.49 554.181   1
   5   4  -6 1808.39 409.232   4
  -5  -4   6 1791.21 441.454   1
  -5  -4   6 1086.23 391.079   2
   5   4  -5 3459.25 535.030   4
   5   4  -5 3819.61 412.913   7
  -5  -4   5 3758.65 641.613   1
  -5  -4   5 3235.23 642.824   2
   5   4  -4-137.988 170.631   4
   5   4  -4-76.7969 87.1609   6
   5   4  -4-97.0881 118.377   8
  -5  -4   4 62.5433 160.115   1
   5   4  -4 95.7077 128.211   7
  -5  -4   4-139.291 218.570   2
   5   4  -3 984.036 260.664   4
   5   4  -3 969.877 219.284   6
   5   4  -3 1083.14 241.542   8
  -5  -4   3 839.249 308.856   1
  -5  -4   3 1013.30 370.255   2
   5   4  -3 741.234 199.829   7
   5   4  -2 2130.85 338.997   4
   5   4  -2 2193.14 342.212   6
   5   4  -2 2023.21 288.792   8
  -5  -4   2 2158.67 468.618   2
  -5  -4   2 1558.22 420.420   1
   5   4  -2 2162.45 376.853   7
  -5  -4   1 45879.2 2116.61   2
   5   4  -1 41388.1 1676.07   6
   5   4  -1 39706.8 1214.82   8
   5   4  -1 43838.4 1571.96   4
   5   4  -1 42827.0 1908.06   7
  -5  -4   1 43712.2 2181.67   1
  -5  -4   0 5846.44 687.458   2
   5   4   0 5901.04 602.980   6
  -5  -4   0 5206.96 719.115   1
   5   4   0 4775.77 635.638   2
   5   4   0 5763.20 271.603   8
   5   4   0 5828.74 274.357   8
   5   4   0 6406.19 502.353   4
   5   4   0 6802.62 750.893   7
  -5  -4  -1 6344.21 674.206   2
  -5  -4  -1 6036.60 766.191   1
   5   4   1 6515.20 659.475   6
   5   4   1 5699.48 669.931   2
   5   4   1 6796.76 766.652   5
   5   4   1 6003.21 433.456   4
   5   4   1 6546.94 757.022   7
   5   4   2 1984.90 449.178   7
   5   4   2 2041.21 385.632   2
   5   4   2 1854.98 372.906   6
   5   4   2 1513.44 181.659   4
  -5  -4  -2 1735.81 334.642   2
   5   4   2 2135.73 426.160   5
   5   4   2 1475.67 193.706   4
  -5  -4  -2 1888.27 421.551   1
   5   4   3 29406.9 1551.38   6
   5   4   3 27844.2 1476.20   2
  -5  -4  -3 28904.2 1653.54   1
   5   4   3 27572.1 1507.04   5
  -5  -4  -3 28606.8 1688.14   3
   5   4   3 26158.6 729.748   4
   5   4   3 28425.4 743.741   4
   5   4   3 29794.6 1707.51   7
   5   4   4 796.116 282.108   7
  -5  -4  -4 318.266 167.296   1
   5   4   4 470.537 160.077   5
  -5  -4  -4 539.068 235.363   3
   5   4   4 310.502 153.679   2
   5   4   5 7744.21 755.429   2
  -5  -4  -5 7069.86 771.992   1
   5   4   5 6975.22 705.337   5
  -5  -4  -5 6300.93 812.619   3
  -5  -4  -5 6522.82 435.228   8
   5   4   5 5548.33 749.848   7
   5   4   6 849.019 345.426   7
   5   4   6 589.689 225.770   2
  -5  -4  -6 615.992 161.429   8
  -5  -4  -6 564.676 267.537   3
  -5  -4  -7 11461.4 783.983   8
  -5  -4  -7 12825.5 1160.90   3
   5   4   7 13970.0 1230.01   7
   5   4   7 13614.2 1048.42   2
   5   4   8 305.220 178.949   7
   5   4   8 302.762 177.965   2
  -5  -4  -8 420.556 229.118   3
  -5  -4  -8 276.199 91.9857   4
   5   4   9 2313.81 536.578   7
  -5  -4  -9 1912.41 280.975   4
  -5  -4  -9 2525.14 424.500   8
  -5  -4  -9 2095.33 493.718   3
   5   4  10 3146.69 631.845   7
  -5  -4 -10 2763.61 484.841   8
  -5  -4 -10 2601.08 561.192   3
  -5  -4 -10 2215.24 337.208   4
  -5  -4 -11 11422.9 1247.84   3
  -5  -4 -11 11235.4 819.826   4
   5   4  11 12064.4 1237.17   7
   5   4  12 346.919 291.278   7
  -5  -4 -12-90.4926 155.342   3
  -5  -4 -12 120.328 159.922   4
   5   4  13 2955.01 632.335   7
  -5  -4 -13 1556.11 550.423   3
   5   4  14 395.327 286.432   7
   5   5  -8 95.5515 98.1688   4
  -5  -5   8 19.5579 161.828   1
  -5  -5   7 1366.12 536.309   2
   5   5  -7 1317.12 388.723   4
  -5  -5   7 1310.56 424.247   1
   5   5  -6 37.3658 97.9760   4
  -5  -5   6-43.2876 144.186   1
  -5  -5   6-50.6924 146.906   2
   5   5  -5 1076.42 300.806   4
  -5  -5   5 1249.87 430.848   1
   5   5  -5 1198.11 258.934   7
  -5  -5   5 1104.30 422.079   2
  -5  -5   4 1606.81 347.957   7
   5   5  -4 1307.96 328.944   4
  -5  -5   4 1290.74 458.971   1
   5   5  -4 1184.40 266.402   7
  -5  -5   4 2530.48 571.026   2
   5   5  -3 6137.75 571.110   6
  -5  -5   3 6931.13 894.348   2
   5   5  -3 7483.88 722.402   7
   5   5  -3 7641.05 740.887   4
  -5  -5   3 8488.28 1072.13   1
  -5  -5   3 7977.37 777.481   7
  -5  -5   2 9451.20 986.064   2
   5   5  -2 9155.28 729.606   6
   5   5  -2 8082.31 490.954   8
   5   5  -2 9408.65 837.362   7
   5   5  -2 9840.34 794.519   4
  -5  -5   2 9102.22 843.626   7
  -5  -5   2 9439.28 1047.98   1
  -5  -5   1 81.4137 132.823   7
   5   5  -1 30.1894 62.6075   6
   5   5  -1 203.739 151.673   4
   5   5  -1 13.8729 21.2229   8
  -5  -5   1-211.759 219.903   1
  -5  -5   1 191.477 193.651   2
   5   5  -1 204.003 147.813   7
   5   5   0 303.993 170.808   6
   5   5   0 16.7249 62.6766   4
   5   5   0 289.204 180.404   2
  -5  -5   0 33.6275 138.977   2
  -5  -5   0 27.1670 221.526   1
   5   5   0-82.8017 130.513   7
  -5  -5  -1 18210.2 1201.11   2
   5   5   1 18018.8 1182.53   6
   5   5   1 17408.6 1195.07   2
   5   5   1 19885.8 1422.37   7
   5   5   1 19043.6 919.894   4
  -5  -5  -1 17878.2 1418.43   1
  -5  -5  -2 2562.41 545.220   1
   5   5   2 2349.31 414.660   2
   5   5   2 2353.05 425.485   6
  -5  -5  -2 2251.67 410.572   2
   5   5   2 2503.33 459.942   5
   5   5   2 2516.40 301.838   4
   5   5   2 2498.31 296.679   4
   5   5   2 1822.75 470.625   7
  -5  -5  -3 12451.8 1152.23   1
   5   5   3 12187.0 965.724   2
   5   5   3 12621.1 997.584   5
  -5  -5  -3 12147.9 1145.13   3
   5   5   3 11120.1 579.121   4
   5   5   3 12850.1 1200.13   7
   5   5   3 13375.5 644.207   4
   5   5   4 5390.17 774.932   7
  -5  -5  -4 6022.18 800.522   1
   5   5   4 5195.48 613.318   2
   5   5   4 4734.22 592.475   5
  -5  -5  -4 5162.28 740.666   3
   5   5   4 5419.77 348.614   4
   5   5   5 7213.42 719.856   2
  -5  -5  -5 7894.97 869.506   1
   5   5   5 7897.67 748.298   5
  -5  -5  -5 6423.65 856.705   3
   5   5   5 7750.65 388.576   4
   5   5   5 8766.07 1012.65   7
   5   5   6 178.715 235.147   7
   5   5   6 107.255 46.8944   4
   5   5   6 85.3892 88.5694   5
  -5  -5  -6 123.927 60.7629   8
   5   5   6 184.388 95.0489   2
  -5  -5  -6 372.507 236.954   3
  -5  -5  -6 185.843 190.423   1
   5   5   7 7657.79 775.405   2
  -5  -5  -7 8873.54 888.587   1
   5   5   7 8085.32 713.347   5
  -5  -5  -7 7700.18 582.696   8
  -5  -5  -7 7808.54 953.662   3
   5   5   7 8876.69 461.609   4
   5   5   7 8814.07 1037.35   7
   5   5   8 530.140 338.024   7
   5   5   8 442.848 110.659   4
   5   5   8 229.305 124.531   5
   5   5   8 444.834 216.645   2
  -5  -5  -8 122.677 140.881   3
   5   5   9 3191.45 626.669   7
   5   5   9 2643.41 387.664   5
  -5  -5  -9 2530.97 335.242   4
  -5  -5  -9 2218.46 378.421   8
  -5  -5  -9 1755.49 460.512   3
   5   5  10 131.093 149.469   7
  -5  -5 -10 157.125 129.043   8
  -5  -5 -10-177.018 109.719   3
  -5  -5 -10-21.3158 57.7247   4
   5   5  11 3477.03 679.592   7
  -5  -5 -11 2510.42 615.348   3
  -5  -5 -11 2048.52 358.230   4
   5   5  12-16.2456 165.080   7
  -5  -5 -12-76.3592 95.6227   3
   5   5  13 2312.89 606.880   7
  -5  -5 -13 1447.80 523.202   3
   5   5  14-126.550 205.736   7
  -5  -6   8 277.740 239.555   1
  -5  -6   7 534.569 310.399   2
   5   6  -7 952.662 329.710   4
  -5  -6   7 582.694 287.661   1
   5   6  -6 569.774 284.053   4
  -5  -6   6-131.499 247.837   5
  -5  -6   6 815.845 409.951   1
  -5  -6   6 322.528 258.654   2
  -5  -6   5 4418.66 832.101   5
  -5  -6   5 4932.22 829.420   1
   5   6  -5 4102.64 525.315   7
   5   6  -5 4256.00 639.724   4
  -5  -6   5 4790.14 871.868   2
   5   6  -4 871.529 291.270   4
  -5  -6   4 956.331 385.237   1
  -5  -6   4 975.625 383.633   5
   5   6  -4 315.373 168.562   7
  -5  -6   4 388.303 257.087   2
   5   6  -3 430.915 185.588   4
  -5  -6   3 452.596 350.807   1
  -5  -6   3 829.530 301.390   2
   5   6  -3 776.132 294.535   7
   5   6  -2 24.3838 59.0883   6
   5   6  -2 167.582 139.863   4
  -5  -6   2 256.268 285.433   1
  -5  -6   2-256.027 188.593   2
   5   6  -2 133.434 156.522   7
   5   6  -1 1731.97 345.751   6
   5   6  -1 1781.25 346.804   4
  -5  -6   1 2510.27 571.755   1
  -5  -6   1 2279.80 482.045   2
   5   6  -1 1815.99 406.901   7
   5   6   0 2959.46 468.847   6
   5   6   0 3473.61 543.839   2
  -5  -6   0 3595.34 668.242   1
  -5  -6   0 3308.64 530.073   2
   5   6   0 3751.18 472.534   4
   5   6   0 2944.39 538.303   7
  -5  -6  -1 10522.3 905.365   2
   5   6   1 9891.04 894.131   2
   5   6   1 10452.5 1076.65   7
   5   6   1 11628.6 805.614   4
  -5  -6  -1 8892.72 1051.70   1
   5   6   2 911.899 279.083   2
   5   6   2 761.133 188.101   4
  -5  -6  -2 946.744 256.448   2
  -5  -6  -2 647.112 276.344   1
   5   6   2 977.730 228.910   4
   5   6   2 1061.58 382.607   7
   5   6   3 2493.26 426.188   2
   5   6   3 2252.72 441.125   5
  -5  -6  -3 2216.81 495.693   3
   5   6   3 1367.29 236.055   4
  -5  -6  -3 1498.80 409.436   1
   5   6   3 2099.45 511.013   7
   5   6   4 4456.20 560.784   2
   5   6   4 4872.28 606.696   5
  -5  -6  -4 5384.25 797.799   3
   5   6   4 4480.88 397.254   4
   5   6   4 5129.96 822.180   7
  -5  -6  -4 5847.58 807.702   1
  -5  -6  -5 18237.7 1415.74   1
   5   6   5 15588.5 1069.99   2
   5   6   5 16205.2 1109.07   5
  -5  -6  -5 17536.3 1485.20   3
   5   6   5 16066.4 755.998   4
   5   6   5 18631.8 1587.85   7
   5   6   6 4918.89 828.087   7
   5   6   6 4625.28 575.725   2
   5   6   6 4366.82 526.004   5
  -5  -6  -6 5855.77 868.648   3
   5   6   6 4952.97 393.770   4
  -5  -6  -6 4625.57 682.437   1
   5   6   7 3613.73 704.824   7
   5   6   7 3124.78 431.560   5
  -5  -6  -7 2983.22 311.686   8
  -5  -6  -7 2819.80 513.060   1
   5   6   7 2749.68 445.180   2
   5   6   7 3060.15 315.391   4
  -5  -6  -7 4426.08 754.791   3
   5   6   8-45.9241 240.762   7
  -5  -6  -8 278.206 181.349   1
   5   6   8 121.129 107.179   5
   5   6   8-0.83533 63.9399   2
  -5  -6  -8 158.720 87.9259   8
  -5  -6  -8 175.825 135.197   3
   5   6   9 1748.18 497.421   7
  -5  -6  -9 1778.34 484.630   3
   5   6  10 81.7725 173.854   7
  -5  -6 -10-12.1408 162.796   3
  -5  -6 -10 48.6861 97.4009   4
   5   6  11 426.971 249.776   7
  -5  -6 -11 870.390 399.883   3
   5   6  12 30.7544 224.239   7
  -5  -6 -12 446.781 319.182   3
   5   6  13 1568.55 506.643   7
  -5  -7   7 318.651 280.561   1
   5   7  -6 115.177 175.094   4
  -5  -7   6 391.971 322.196   2
   5   7  -5 765.089 306.378   4
  -5  -7   5 1015.12 439.453   5
  -5  -7   5 942.430 388.213   2
   5   7  -4 75.3868 122.789   4
  -5  -7   4 27.7073 123.393   5
   5   7  -4 198.918 179.286   7
  -5  -7   4 95.4674 157.629   2
  -5  -7   3 3211.03 720.196   5
   5   7  -3 3897.59 589.144   4
  -5  -7   3 4350.07 742.391   2
   5   7  -3 3562.07 573.013   7
   5   7  -2 1262.78 348.711   4
  -5  -7   2 1353.76 405.489   2
   5   7  -2 1309.13 352.907   7
   5   7  -1 2880.24 473.712   4
  -5  -7   1 2936.40 525.732   2
   5   7  -1 3518.08 603.612   7
   5   7   0-103.256 134.145   4
  -5  -7   0 368.545 296.631   1
  -5  -7   0 133.861 113.164   2
   5   7   0-172.363 226.506   7
   5   7   1 260.559 112.095   4
  -5  -7  -1 676.554 304.900   1
  -5  -7  -1 412.480 181.493   2
   5   7   1-86.3129 245.805   7
  -5  -7  -2 278.607 143.458   2
  -5  -7  -2 344.194 231.404   1
   5   7   2 261.991 128.109   2
   5   7   2 146.186 112.444   4
   5   7   2-92.0702 212.409   7
   5   7   3 10475.2 873.322   2
  -5  -7  -3 11448.6 1168.56   3
   5   7   3 11452.8 793.732   4
   5   7   3 12397.3 1257.65   7
  -5  -7  -3 11807.0 1229.96   1
   5   7   4 2435.75 401.364   2
   5   7   4 2194.98 414.736   5
   5   7   4 2767.96 360.998   4
  -5  -7  -4 2996.17 618.667   3
  -5  -7  -4 2705.63 581.445   1
   5   7   4 3043.72 619.226   7
   5   7   5 1906.78 289.560   4
  -5  -7  -5 2266.41 530.945   1
   5   7   5 1700.00 336.297   2
   5   7   5 1464.46 321.455   5
  -5  -7  -5 1299.58 407.358   3
   5   7   5 1271.73 423.578   7
  -5  -7  -6 2005.01 465.781   1
   5   7   6 1676.30 325.522   5
  -5  -7  -6 1274.93 412.469   3
   5   7   6 2375.51 612.315   7
   5   7   6 1791.42 360.835   2
  -5  -7  -7 6433.66 845.371   1
  -5  -7  -7 6717.25 964.900   3
   5   7   7 5177.34 934.781   7
  -5  -7  -8 131.329 186.256   1
  -5  -7  -8 366.142 217.883   3
   5   7   8 253.542 179.423   7
   5   7   9 2642.83 652.381   7
  -5  -7  -9 1559.55 406.277   1
  -5  -7  -9 2100.33 616.486   3
   5   7  10 608.320 405.218   7
  -5  -7 -10 667.961 367.812   3
   5   7  11 2959.85 718.641   7
  -5  -7 -11 1918.05 560.124   3
   5   7  12-218.623 249.013   7
  -5  -7 -12-155.888 129.913   3
   5   8  -5 810.576 360.429   4
  -5  -8   5 866.534 376.463   2
   5   8  -4 111.119 144.532   4
  -5  -8   4 63.9580 212.682   5
   5   8  -4 414.272 242.270   7
  -5  -8   4 165.803 208.042   2
   5   8  -3 2054.87 464.533   4
  -5  -8   3 1648.44 579.596   5
  -5  -8   3 2008.75 514.082   2
   5   8  -3 2428.86 523.452   7
   5   8  -2 68.7964 78.6960   4
  -5  -8   2 138.910 207.899   5
  -5  -8   2-29.3575 93.5737   2
   5   8  -1 908.667 282.894   4
  -5  -8   1 1299.19 386.847   2
   5   8  -1 1430.18 464.921   7
   5   8   0 1268.25 326.148   4
  -5  -8   0 1111.40 314.290   2
   5   8   0 1216.94 405.707   7
  -5  -8  -1 3298.42 498.514   2
   5   8   1 3627.27 675.251   7
  -5  -8  -2 183.719 131.007   2
  -5  -8  -2-153.977 229.948   1
   5   8   2-322.764 315.692   7
  -5  -8  -3 1638.95 465.787   1
   5   8   3 1777.75 495.857   7
  -5  -8  -4 71.8584 175.340   3
  -5  -8  -4 85.0941 172.955   1
   5   8   4-167.939 223.509   7
  -5  -8  -5 2768.18 632.528   3
  -5  -8  -5 3143.23 630.768   1
   5   8   5 2823.37 685.395   7
  -5  -8  -6 244.653 165.200   1
  -5  -8  -6 236.122 235.137   3
   5   8   6 268.414 276.799   7
  -5  -8  -7 2501.17 563.011   1
  -5  -8  -7 2937.46 686.957   3
   5   8   7 3631.18 779.471   7
  -5  -8  -8 1916.19 573.565   3
  -5  -8  -8 1250.81 406.604   1
   5   8   8 1709.24 574.606   7
  -5  -8  -9 1581.49 420.815   1
  -5  -8  -9 2002.49 603.373   3
   5   8   9 2661.52 675.769   7
  -5  -8 -10 407.790 296.564   3
  -5  -8 -10 175.660 199.082   1
   5   8  10 313.069 360.065   7
  -5  -8 -11 876.944 430.575   3
   5   8  11 626.721 381.059   7
   5   9  -4 22.5086 90.9902   4
  -5  -9   4 68.3383 115.057   2
   5   9  -4 140.573 177.112   7
   5   9  -3 379.697 194.885   4
  -5  -9   3 353.278 200.510   2
   5   9  -3 881.624 314.911   7
   5   9  -2 1159.50 371.759   4
  -5  -9   2 774.221 399.246   5
  -5  -9   2 562.997 269.426   2
   5   9  -2 813.750 341.678   7
   5   9  -1 1986.06 441.764   4
  -5  -9   1 1650.25 388.093   2
   5   9  -1 1483.06 464.265   7
   5   9   0 216.793 163.675   4
  -5  -9   0 361.656 182.814   2
   5   9   0 758.962 361.622   7
  -5  -9  -1 1499.47 333.164   2
   5   9   1 1977.66 508.006   7
   5   9   2-15.1462 166.093   7
  -5  -9  -3 669.403 292.122   1
   5   9   3 1953.35 550.575   7
  -5  -9  -4 134.576 193.981   1
  -5  -9  -4-85.5150 208.759   3
   5   9   4-131.060 278.794   7
  -5  -9  -5 2675.85 656.126   3
  -5  -9  -5 2464.33 590.427   1
   5   9   5 1819.05 568.035   7
  -5  -9  -6 776.482 370.471   3
  -5  -9  -6 645.704 310.527   1
   5   9   6 1286.02 495.576   7
  -5  -9  -7 1197.88 402.571   1
  -5  -9  -7 1721.11 532.617   3
   5   9   7 1321.60 520.881   7
  -5  -9  -8 261.147 231.840   1
  -5  -9  -8-426.096 290.668   3
   5   9   8 698.672 420.568   7
  -5  -9  -9 758.836 370.070   3
  -5  -9  -9 377.719 253.667   1
   5   9   9 1261.71 517.222   7
  -5  -9 -10 137.883 135.221   1
  -5  -9 -10 351.428 286.772   3
   5  10  -2 149.687 151.558   4
   5  10  -2-162.907 169.684   7
   5  10  -1 628.238 276.303   4
  -5 -10   1 1062.35 447.865   5
   5  10  -1 461.605 354.485   7
   5  10   0 211.291 124.828   4
   5  10   0 618.712 304.422   7
   5  10   1 990.371 416.048   7
   5  10   2 220.922 147.526   7
  -5 -10  -3 1144.16 437.649   1
   5  10   3 781.483 380.404   7
  -5 -10  -4 864.089 392.462   1
   5  10   4 285.549 246.241   7
  -5 -10  -5 2447.81 634.071   3
  -5 -10  -5 1099.42 412.460   1
   5  10   5 1340.93 511.062   7
  -5 -10  -6 362.206 286.107   3
  -5 -10  -6 171.190 197.686   1
   5  10   6 12.9082 168.432   7
  -5 -10  -7 864.784 371.473   1
  -5 -10  -7 369.794 264.206   3
  -5 -10  -8-177.572 118.177   1
  -5 -10  -8-37.6599 197.941   3
  -5 -10  -9 417.825 329.633   1
  -5 -10 -10 440.349 227.743   1
  -5 -11  -8 196.098 203.766   1
   6  -7  -6 598.312 379.390   4
  -6   7   5-498.132 351.928   6
   6  -7  -5 1.80975 165.582   4
  -6   7   4 349.242 247.498   6
   6  -7  -4 722.862 339.486   8
  -6   7   3-46.2824 213.692   6
   6  -7  -3 131.866 300.196   8
  -6   7   2 1152.35 488.474   6
   6  -7  -2 1535.28 521.183   8
  -6   7   1 86.9445 144.092   6
   6  -7  -1 53.7590 137.396   8
  -6   7   0 2129.85 573.012   6
   6  -7   0 3014.61 716.183   8
  -6   7  -1 1159.32 419.258   6
   6  -7   1 668.405 337.407   8
  -6   7  -2 526.199 271.387   6
   6  -7   2 967.528 420.701   8
  -6   7  -3-384.663 243.819   6
   6  -7   3 201.877 180.068   8
  -6   7  -4 1394.41 440.690   6
   6  -7   4 2185.06 622.502   8
  -6   7  -5 23.7063 129.114   6
  -6   7  -6 1218.73 415.818   6
  -6   7  -7-34.1857 235.095   6
  -6   6   8 136.231 135.566   6
  -6   6   8 861.813 370.225   2
  -6   6   7-537.833 351.841   6
  -6   6   7-364.348 219.377   2
   6  -6  -7 85.0030 151.638   4
  -6   6   6 1085.58 536.864   6
   6  -6  -6 1336.96 488.728   4
  -6   6   5-1000.53 471.900   6
   6  -6  -5 351.505 197.587   4
  -6   6   4 2832.00 771.622   6
   6  -6  -4 3843.06 736.698   4
  -6   6   3 477.422 276.533   6
   6  -6  -3 1006.55 427.339   8
   6  -6  -3 814.428 301.733   4
  -6   6   2 3641.31 806.824   6
   6  -6  -2 4749.44 875.947   8
  -6   6   1 1147.33 431.328   6
   6  -6  -1 1062.72 392.228   8
  -6   6   0 2206.24 607.227   6
   6  -6   0 2480.71 634.934   8
  -6   6  -1 294.535 197.313   6
   6  -6   1 712.274 320.119   8
  -6   6  -2 7889.61 1055.49   6
   6  -6   2 9206.43 1178.63   8
  -6   6  -3-44.3346 130.837   6
   6  -6   3-267.379 283.230   8
  -6   6  -4 4073.05 730.238   6
   6  -6   4 3075.94 726.779   8
  -6   6  -5 184.756 175.223   6
   6  -6   5 362.370 321.422   8
  -6   6  -6 636.055 297.149   6
   6  -6   6 997.010 432.798   8
  -6   6  -7 314.029 221.681   6
  -6   6  -8 3316.83 642.612   6
  -6   6  -9-86.9558 150.059   6
  -6   6  -9 214.061 201.968   4
  -6   5   9 10.7997 187.498   6
  -6   5   9-80.1281 161.784   2
  -6   5   8 376.358 284.779   6
  -6   5   8 116.461 124.991   2
  -6   5   7-32.6569 168.783   6
  -6   5   7 315.115 252.345   2
   6  -5  -7-153.918 174.779   4
  -6   5   6 1354.83 520.362   6
  -6   5   6 2060.13 489.927   2
   6  -5  -6 1242.22 429.780   4
  -6   5   5 138.123 118.541   6
  -6   5   5 554.453 251.858   2
   6  -5  -5 584.493 282.458   4
  -6   5   4 2900.90 747.940   6
   6  -5  -4 2639.39 618.773   4
  -6   5   3 723.231 366.842   6
   6  -5  -3 602.300 287.551   8
   6  -5  -3 1370.82 431.706   4
  -6   5   2 6759.68 1064.08   6
   6  -5  -2 7626.68 1056.18   8
   6  -5  -2 7698.85 969.043   4
  -6   5   1 185.662 112.330   6
   6  -5  -1 467.844 282.789   8
  -6   5   0 5870.39 915.325   6
   6  -5   0 5462.95 871.709   8
  -6   5  -1 126.505 137.575   6
   6  -5   1 347.574 190.778   8
  -6   5  -2 6339.86 889.691   6
   6  -5   2 6073.28 910.825   8
  -6   5  -3-236.345 199.550   6
   6  -5   3-166.679 244.541   8
  -6   5  -4 8870.14 1046.77   6
   6  -5   4 11174.1 1290.56   8
  -6   5  -5 450.703 218.293   6
   6  -5   5 207.250 194.211   8
  -6   5  -6 6668.94 897.972   6
   6  -5   6 7999.58 1097.28   8
  -6   5  -7 223.877 177.196   6
   6  -5   7-115.633 160.055   8
  -6   5  -8 1064.08 349.944   6
   6  -5   8 1170.15 443.219   8
  -6   5  -9-144.778 133.134   6
  -6   5  -9-102.160 170.993   4
  -6   5 -10 1572.96 437.821   6
  -6   4   9 676.933 344.950   2
  -6   4   8 1274.06 435.906   6
  -6   4   8 1563.03 482.326   2
   6  -4  -8 1406.07 446.639   4
  -6   4   7 195.997 182.124   2
   6  -4  -7 175.681 144.955   4
  -6   4   6 1762.03 539.437   6
  -6   4   6 1376.00 422.113   2
   6  -4  -6 1053.43 373.944   4
  -6   4   5-106.910 260.440   6
  -6   4   5 254.173 174.015   2
   6  -4  -5 11.4965 110.821   4
  -6   4   4 3309.29 743.964   6
  -6   4   4 3242.26 602.563   2
   6  -4  -4 2409.74 510.464   4
  -6   4   3 86.1188 144.965   6
   6  -4  -3 93.3658 162.163   4
  -6   4   2 1580.78 472.581   6
   6  -4  -2 2078.82 393.156   3
   6  -4  -2 2055.94 524.306   8
   6  -4  -2 2649.70 536.533   4
   6  -4  -2 2476.77 401.113   7
  -6   4   1 4554.72 788.443   6
   6  -4  -1 3838.57 501.659   3
   6  -4  -1 4264.94 738.025   8
   6  -4  -1 4510.94 565.225   7
   6  -4  -1 4033.70 628.005   4
  -6   4   0 6645.30 917.496   6
   6  -4   0 6194.54 576.327   3
   6  -4   0 7445.39 944.643   8
  -6   4   0 6729.86 708.091   4
  -6   4  -1 2502.87 418.381   4
  -6   4  -1 2405.90 533.294   6
   6  -4   1 2780.90 357.718   3
   6  -4   1 1976.58 499.211   8
  -6   4  -2 11667.3 1165.04   6
   6  -4   2 12237.8 1217.84   8
  -6   4  -2 9699.82 826.481   4
  -6   4  -3 218.625 131.372   4
  -6   4  -3 252.745 191.306   6
   6  -4   3 232.844 111.631   8
  -6   4  -4 13491.0 1216.72   6
  -6   4  -4 11513.2 910.421   4
  -6   4  -5 343.550 178.644   6
   6  -4   5 578.753 269.585   8
  -6   4  -5 687.633 201.318   4
  -6   4  -6 5509.65 787.106   6
   6  -4   6 5172.36 822.893   8
  -6   4  -7-9.37600 118.176   6
   6  -4   7 297.854 260.523   8
  -6   4  -8 4030.03 682.645   6
   6  -4   8 4181.28 787.055   8
  -6   4  -8 4217.38 586.367   4
  -6   4  -9 42.8528 136.933   6
  -6   4  -9 6.22011 63.2711   4
   6  -4   9 108.826 232.094   8
  -6   4 -10 1041.98 332.278   6
  -6   4 -10 825.089 283.472   4
  -6   4 -11 16.4704 124.064   6
   6  -3  -9 432.123 257.980   4
  -6   3   9 79.3654 173.374   2
   6  -3  -8 484.644 333.775   4
  -6   3   8 228.490 195.517   6
  -6   3   8 558.330 285.544   2
  -6   3   7-147.211 208.764   6
  -6   3   7 181.369 154.529   2
   6  -3  -7 267.770 201.056   4
  -6   3   6 1809.29 472.148   6
  -6   3   6 996.922 374.062   2
   6  -3  -6 1322.24 403.782   4
  -6   3   5-177.807 168.442   6
  -6   3   5 24.3491 114.002   2
   6  -3  -5 126.283 162.317   4
  -6   3   4 1796.36 470.065   6
  -6   3   4 2061.99 491.233   2
   6  -3  -4 1400.76 355.167   4
  -6   3   3-274.337 201.985   6
  -6   3   3 227.990 195.771   2
   6  -3  -3-97.0059 171.460   4
  -6   3   2 13029.0 1258.90   6
   6  -3  -2 12523.9 1038.92   3
   6  -3  -2 12921.1 1073.84   4
  -6   3   2 12786.8 1010.65   4
   6  -3  -2 11954.4 806.579   7
  -6   3   2 12791.8 1133.72   2
  -6   3   1 1185.95 275.967   4
  -6   3   1 751.629 276.508   6
   6  -3  -1 950.177 280.816   3
   6  -3  -1 756.029 279.790   8
   6  -3  -1 932.468 246.392   7
   6  -3  -1 1147.32 290.622   4
  -6   3   0 6216.52 808.589   6
   6  -3   0 4558.91 537.956   3
   6  -3   0 5150.96 743.201   8
  -6   3   0 4785.52 557.800   4
   6  -3   0 5007.50 582.581   7
  -6   3  -1 2205.83 364.664   4
  -6   3  -1 2342.10 482.019   6
   6  -3   1 2238.97 354.672   3
   6  -3   1 2201.40 492.826   8
   6  -3   1 2299.69 401.245   7
  -6   3  -2 2122.69 351.462   4
  -6   3  -2 1886.29 429.147   6
   6  -3   2 1616.61 406.478   8
   6  -3   2 1705.80 288.979   3
  -6   3  -3 91.0316 76.2457   4
  -6   3  -3 220.679 133.679   6
  -6   3  -4 10066.3 1010.55   6
   6  -3   4 10086.9 1069.13   8
  -6   3  -4 8783.40 708.040   4
  -6   3  -5 665.771 284.027   6
   6  -3   5 706.129 308.186   8
  -6   3  -5 623.004 200.461   4
  -6   3  -6 16241.8 1303.61   6
   6  -3   6 16866.4 1420.86   8
  -6   3  -6 13937.6 952.854   4
  -6   3  -7 703.416 291.052   6
   6  -3   7 1090.58 403.399   8
  -6   3  -7 984.896 227.317   3
  -6   3  -8 6904.94 849.437   6
  -6   3  -8 6595.83 622.887   3
   6  -3   8 7226.40 978.756   8
  -6   3  -8 6592.39 665.373   4
  -6   3  -9-11.0926 190.326   6
  -6   3  -9 243.482 136.601   4
   6  -3   9 35.1698 125.550   8
  -6   3 -10 1775.40 439.849   6
  -6   3 -10 2273.34 397.370   4
   6  -3  10 2396.22 656.648   8
  -6   3 -11-178.928 189.812   6
   6  -2  -9 631.083 350.570   4
  -6   2   9 96.8849 184.141   2
   6  -2  -8 1814.95 521.319   4
  -6   2   8 1123.19 334.802   6
  -6   2   8 854.358 388.622   2
   6  -2  -7 151.339 204.460   4
  -6   2   7 329.979 178.914   6
  -6   2   7-33.4588 143.959   2
   6  -2  -6 3422.71 609.383   4
  -6   2   6 2904.94 536.231   6
  -6   2   6 2759.06 603.461   2
   6  -2  -5 632.723 296.447   4
  -6   2   5 635.271 302.649   6
  -6   2   5 860.570 376.731   2
  -6   2   4 7451.96 927.395   2
  -6   2   4 7595.09 870.673   6
   6  -2  -4 7314.88 839.918   4
   6  -2  -4 7336.99 810.640   1
   6  -2  -4 6932.50 424.798   7
  -6   2   3 287.892 157.039   4
  -6   2   3 138.043 95.8905   6
  -6   2   3 225.695 191.435   2
   6  -2  -3 148.052 91.5913   7
   6  -2  -3 199.104 161.841   4
  -6   2   2 814.864 241.350   4
  -6   2   2 548.608 250.855   6
  -6   2   2 587.720 262.253   2
   6  -2  -2 747.129 263.940   3
   6  -2  -2 651.598 171.100   7
   6  -2  -2 797.767 202.207   4
  -6   2   1 27.6596 52.5249   4
  -6   2   1-92.8051 145.490   6
  -6   2   1 63.1786 136.604   2
   6  -2  -1-10.5083 60.7403   3
   6  -2  -1-1.04422 109.596   8
   6  -2  -1-2.19301 91.3651   7
   6  -2  -1-54.9168 116.701   4
  -6   2   0 5121.03 696.443   6
   6  -2   0 4834.60 594.389   3
   6  -2   0 5462.37 746.118   8
   6  -2   0 5688.28 599.200   4
  -6   2  -1 161.635 160.750   6
   6  -2   1 134.463 129.476   8
   6  -2   1 220.426 119.176   3
  -6   2  -2 14037.9 1159.74   6
   6  -2   2 13799.1 1165.36   8
   6  -2   2 13440.8 911.349   3
  -6   2  -2 13426.2 815.756   4
  -6   2  -3-30.9288 53.9519   4
  -6   2  -3 251.811 203.116   6
   6  -2   3-40.4866 140.388   8
  -6   2  -4 8583.77 902.847   6
   6  -2   4 7942.55 883.086   8
  -6   2  -4 6978.75 562.980   4
  -6   2  -5 899.842 310.551   6
   6  -2   5 843.381 294.548   8
  -6   2  -5 491.303 140.134   4
  -6   2  -6 9164.51 947.320   6
  -6   2  -6 9215.45 745.140   3
   6  -2   6 9941.25 1031.41   8
  -6   2  -7 1107.02 333.026   6
  -6   2  -7 1579.11 267.948   4
   6  -2   7 1098.32 358.773   8
  -6   2  -7 1237.53 290.292   3
  -6   2  -8 12741.9 1138.49   6
   6  -2   8 13143.2 1279.97   8
  -6   2  -8 13759.0 1014.21   3
  -6   2  -8 13872.5 863.435   4
  -6   2  -9 29.4396 129.600   6
  -6   2  -9-77.9863 95.8612   4
   6  -2   9 35.0459 121.482   8
  -6   2  -9-24.4725 93.7644   3
  -6   2 -10 2284.86 486.951   6
   6  -2  10 2971.27 668.265   8
  -6   2 -10 2531.20 387.243   4
  -6   2 -10 1888.57 393.633   3
   6  -2  11 415.471 362.865   8
   6  -1  -9 445.631 289.713   4
   6  -1  -8 797.546 336.896   4
  -6   1   8 866.804 386.511   2
   6  -1  -7 383.563 204.517   4
  -6   1   7 179.799 167.313   6
  -6   1   7 161.177 112.734   2
   6  -1  -6 1673.22 432.701   4
  -6   1   6 1542.79 367.386   6
  -6   1   6 1773.66 498.635   2
   6  -1  -5 1243.08 367.111   4
  -6   1   5 779.431 264.174   6
  -6   1   5 437.925 254.100   2
   6  -1  -4 1764.54 376.660   4
  -6   1   4 1466.17 362.419   6
  -6   1   4 1410.58 441.970   2
   6  -1  -4 1260.34 140.375   7
   6  -1  -3 233.751 187.744   4
   6  -1  -3 94.4336 108.991   7
  -6   1   3-42.7958 78.1053   6
  -6   1   3-44.2383 121.753   4
  -6   1   3-172.462 199.449   2
   6  -1  -3 32.1729 76.4922   7
  -6   1   2 16306.5 1315.20   2
  -6   1   2 15946.5 1194.08   6
   6  -1  -2 15786.6 1056.88   4
  -6   1   2 14751.1 977.379   4
  -6   1   1 51.6336 74.1272   6
  -6   1   1 215.985 189.040   2
   6  -1  -1 74.1667 108.036   3
   6  -1  -1-74.2674 150.403   8
   6  -1  -1-43.8820 108.647   4
  -6   1   0 11015.3 990.355   6
   6  -1   0 11784.6 972.663   3
   6  -1   0 10596.3 957.040   8
   6  -1   0 11721.2 792.211   4
  -6   1   0 10330.4 700.829   4
  -6   1  -1 475.150 132.581   4
  -6   1  -1 595.020 267.494   6
   6  -1   1 801.645 259.061   8
   6  -1   1 530.096 198.403   3
  -6   1  -2 3698.65 575.472   6
   6  -1   2 3435.69 472.478   3
   6  -1   2 3256.52 520.378   8
  -6   1  -2 3619.33 348.597   4
  -6   1  -3 250.929 92.2717   4
  -6   1  -3 107.970 117.940   6
   6  -1   3 412.989 227.304   8
   6  -1   3 131.337 94.5209   3
  -6   1  -4 8945.34 917.743   6
   6  -1   4 9556.69 927.154   8
  -6   1  -4 8545.39 513.742   4
  -6   1  -5 22.1152 65.3491   4
  -6   1  -5-30.4727 89.7167   6
  -6   1  -5 76.2894 84.5838   3
   6  -1   5-80.8927 120.511   8
  -6   1  -6 8258.62 882.886   6
  -6   1  -6 9057.48 799.960   3
   6  -1   6 9384.56 931.520   8
  -6   1  -6 7767.75 517.641   4
  -6   1  -6 9179.00 534.069   4
  -6   1  -7 212.556 159.672   6
  -6   1  -7 325.582 109.840   4
   6  -1   7 55.5602 149.062   8
  -6   1  -7 234.471 140.576   3
  -6   1  -7 256.315 88.0261   4
  -6   1  -8 9223.05 940.731   6
   6  -1   8 9077.54 1009.61   8
  -6   1  -8 9993.65 915.523   3
  -6   1  -8 10171.5 640.192   4
  -6   1  -9-54.9588 108.544   6
  -6   1  -9-71.5392 91.7499   4
   6  -1   9-61.2016 164.518   8
  -6   1  -9 37.0840 97.4852   3
   6  -1  10 8534.71 1095.50   8
  -6   1 -10 7338.50 829.805   3
  -6   1 -10 7839.14 647.074   4
   6  -1  11 237.621 229.856   8
  -6   1 -11-131.523 169.084   3
   6  -1  12 1028.27 411.039   8
  -6   1 -12 597.208 266.675   3
   6   0  -9 164.406 164.543   4
   6   0  -8 565.035 293.666   4
  -6   0   8 872.351 358.410   2
   6   0  -7 373.502 240.140   4
  -6   0   7 261.048 151.155   6
  -6   0   7 109.765 160.415   2
   6   0  -6 2897.69 524.987   4
  -6   0   6 2872.16 467.994   6
  -6   0   6 2814.90 641.850   2
   6   0  -5 1541.65 373.134   4
  -6   0   5 1272.25 326.115   6
  -6   0   5 1301.29 429.456   2
  -6   0   4 12340.9 1228.02   2
  -6   0   4 11709.7 974.328   6
   6   0  -4 11444.8 962.294   4
   6   0  -4 9649.93 378.271   7
  -6   0   4 9960.62 877.059   4
  -6   0   3 2989.55 493.248   6
  -6   0   3 2437.43 539.897   2
   6   0  -3 3679.23 508.216   4
   6   0  -3 2429.21 307.508   7
  -6   0   3 2518.38 405.842   4
   6   0  -2 2647.35 356.639   7
   6   0  -2 2906.46 452.187   6
  -6   0   2 2718.39 463.561   6
  -6   0   2 2828.59 558.622   2
   6   0  -2 3131.25 447.447   4
  -6   0   2 2631.23 373.669   4
   6   0  -1-50.8126 119.480   7
  -6   0   1-193.799 191.026   6
  -6   0   1 120.511 137.840   2
   6   0  -1 100.441 100.530   4
  -6   0   0 1238.41 306.833   6
  -6   0   0 1604.63 236.927   4
  -6   0   0 1907.15 429.512   2
   6   0   0 2012.71 398.092   8
   6   0   0 2502.54 467.289   3
   6   0   0 1557.07 256.102   4
  -6   0  -1 12229.8 1022.99   6
   6   0   1 11056.1 932.067   3
   6   0   1 11937.1 934.225   8
   6   0   1 11621.7 644.259   4
  -6   0  -1 11733.9 603.893   4
  -6   0  -2 24624.5 1499.95   6
   6   0   2 23810.3 1378.77   8
   6   0   2 23656.2 1353.76   3
  -6   0  -2 24714.9 803.561   4
  -6   0  -3-136.748 198.009   6
  -6   0  -3 30.7195 30.1144   4
   6   0   3 55.3176 121.408   8
   6   0   3-72.0253 117.643   3
  -6   0  -4 4788.25 647.750   6
  -6   0  -4 4655.24 575.268   3
   6   0   4 5258.65 630.747   8
  -6   0  -5 386.133 207.514   6
   6   0   5 148.065 121.839   8
  -6   0  -5 113.869 105.069   3
  -6   0  -6 6864.18 778.859   6
  -6   0  -6 5705.73 697.502   3
   6   0   6 6109.12 714.617   8
  -6   0  -6 6974.46 777.380   8
  -6   0  -6 5797.45 297.043   4
  -6   0  -6 6714.02 295.124   4
  -6   0  -7 639.729 224.726   6
  -6   0  -7 572.494 113.560   4
   6   0   7 609.255 241.328   8
  -6   0  -7 712.292 252.399   3
  -6   0  -7 675.452 119.877   4
  -6   0  -8 8149.56 875.797   6
   6   0   8 7051.69 850.613   8
  -6   0  -8 7720.35 851.045   3
  -6   0  -8 6760.33 475.720   4
  -6   0  -8 8044.42 475.857   4
  -6   0  -9 175.533 85.6307   4
   6   0   9 259.934 176.899   8
  -6   0  -9-22.5622 144.997   3
   6   0  10 5813.28 868.515   8
  -6   0 -10 6417.02 788.729   3
  -6   0 -10 6549.09 529.114   4
   6   0  11-16.0705 148.918   8
  -6   0 -11-87.8485 171.935   3
   6   0  12 783.878 366.031   8
  -6   0 -12 1124.56 350.539   3
   6   0  13-117.969 193.822   8
  -6   0 -13 108.129 146.254   3
  -6   0 -14 810.811 357.485   3
   6   1  -9 743.017 319.044   4
   6   1  -8 1367.44 405.194   4
  -6  -1   8 1015.47 440.778   2
   6   1  -7 435.608 246.147   4
  -6  -1   7 290.883 254.634   2
   6   1  -6 1846.34 425.440   4
  -6  -1   6 1915.38 349.512   6
  -6  -1   6 2037.22 544.249   2
   6   1  -5 1918.64 416.764   4
  -6  -1   5 1636.82 340.956   6
  -6  -1   5 1870.81 510.576   2
   6   1  -4 1800.35 368.031   4
  -6  -1   4 1444.24 327.155   6
  -6  -1   4 1735.88 376.885   4
  -6  -1   4 2198.45 528.645   2
   6   1  -4 1443.58 165.964   7
   6   1  -3 16.4791 87.1191   4
  -6  -1   3 310.476 167.787   6
   6   1  -3 496.415 177.768   6
  -6  -1   3 166.258 110.177   4
  -6  -1   3 247.377 186.019   2
   6   1  -3 588.761 168.456   7
  -6  -1   2 12302.1 1149.35   2
  -6  -1   2 11457.2 949.194   6
   6   1  -2 12415.5 925.326   6
   6   1  -2 12125.0 838.595   4
   6   1  -2 11957.0 813.148   7
  -6  -1   2 11668.8 812.436   4
  -6  -1   1 8459.04 943.198   2
  -6  -1   1 8508.99 831.947   6
   6   1  -1 9876.96 842.633   6
   6   1  -1 8831.00 660.856   4
   6   1  -1 8335.51 722.338   7
  -6  -1   1 9094.48 645.805   4
  -6  -1   0 22222.5 1365.91   6
   6   1   0 20795.6 1283.04   6
   6   1   0 20872.3 1195.56   8
   6   1   0 20281.3 943.292   4
   6   1   0 20990.5 1234.04   7
  -6  -1   0 20633.7 905.715   4
  -6  -1   0 19988.2 1397.22   2
   6   1   1 411.611 190.832   7
  -6  -1  -1 343.615 173.570   6
  -6  -1  -1 179.708 185.838   2
   6   1   1 248.867 112.350   8
   6   1   1 154.991 84.0197   3
   6   1   1 258.146 90.3852   4
  -6  -1  -2 450.819 226.993   6
   6   1   2 295.263 131.810   8
   6   1   2 148.549 136.949   3
  -6  -1  -3 2526.31 462.877   6
   6   1   3 2419.70 379.234   8
   6   1   3 2405.14 431.742   3
  -6  -1  -4 26308.0 1529.16   6
  -6  -1  -4 22824.5 1414.32   3
   6   1   4 25408.7 1300.41   8
   6   1   4 26047.2 1433.33   3
  -6  -1  -5 1546.76 392.090   6
   6   1   5 1226.19 272.880   8
  -6  -1  -5 1380.06 347.125   3
  -6  -1  -6 3118.22 520.169   6
  -6  -1  -6 3632.49 521.255   8
   6   1   6 2978.18 466.462   8
  -6  -1  -6 3484.97 568.278   3
  -6  -1  -7 3223.77 520.712   8
   6   1   7 2676.80 487.437   8
  -6  -1  -7 3287.17 561.600   3
   6   1   8 7743.36 861.798   8
  -6  -1  -8 6643.95 814.271   3
  -6  -1  -8 5938.84 290.850   4
  -6  -1  -8 6557.91 300.133   4
  -6  -1  -9 667.197 137.038   4
   6   1   9 758.555 324.580   8
  -6  -1  -9 704.987 262.878   3
  -6  -1 -10 3377.40 609.280   3
   6   1  10 3874.85 702.298   8
   6   1  11-268.387 302.618   8
  -6  -1 -11 243.808 196.602   3
   6   1  12 1236.03 463.347   8
  -6  -1 -12 1221.04 380.606   3
   6   1  13 463.870 336.831   8
  -6  -1 -13-96.0121 118.802   3
  -6  -1 -14-151.361 143.426   3
   6   2  -9 515.853 279.489   4
   6   2  -8 1.20042 158.698   4
   6   2  -7 992.899 338.649   4
  -6  -2   7 500.371 336.562   2
   6   2  -6 558.701 256.256   4
  -6  -2   6 1461.79 356.203   1
  -6  -2   6 1618.17 510.716   2
   6   2  -5 419.196 188.670   4
  -6  -2   5 289.482 232.146   1
  -6  -2   5 533.729 291.823   2
  -6  -2   4 5896.42 875.208   2
   6   2  -4 5331.64 543.668   6
  -6  -2   4 6133.66 740.961   1
   6   2  -4 5466.94 743.276   8
   6   2  -4 5805.74 655.247   4
   6   2  -4 5817.78 428.558   7
   6   2  -3 3698.60 476.049   6
  -6  -2   3 3549.52 571.739   1
   6   2  -3 3722.72 495.283   4
  -6  -2   3 3403.25 633.776   2
   6   2  -3 3118.64 374.457   7
  -6  -2   2 14645.7 1307.99   2
   6   2  -2 15566.8 1047.36   6
  -6  -2   2 16493.9 1229.88   1
   6   2  -2 15394.1 946.920   4
   6   2  -2 15253.0 978.118   7
   6   2  -1 1339.91 316.023   7
   6   2  -1 1226.21 259.665   4
  -6  -2   1 1318.17 310.035   6
   6   2  -1 885.509 252.580   6
  -6  -2   1 1384.36 356.999   2
   6   2   0 290.205 163.994   7
   6   2   0 271.854 77.0837   4
  -6  -2   0 635.547 258.526   6
   6   2   0 221.419 106.788   6
  -6  -2   0 627.192 282.146   2
   6   2   0 320.088 162.580   8
   6   2   1 3495.25 532.147   7
  -6  -2  -1 3999.26 569.123   6
  -6  -2  -1 3203.96 542.593   2
   6   2   1 2687.28 355.508   8
   6   2   1 2845.54 254.949   4
  -6  -2  -2 27864.7 1548.30   6
   6   2   2 28136.5 1216.81   8
   6   2   2 29098.9 1622.76   7
   6   2   3 12598.7 779.257   8
   6   2   3 13172.7 1110.65   7
   6   2   4 893.105 264.614   7
   6   2   4 1473.61 261.531   8
  -6  -2  -4 1054.28 319.411   3
   6   2   5 279.289 172.829   7
   6   2   5 0.57997 89.0745   8
  -6  -2  -5 212.517 170.924   3
   6   2   6 13163.6 938.398   8
  -6  -2  -6 13199.5 1177.08   3
  -6  -2  -6 12330.7 920.667   8
   6   2   7 1558.40 365.953   8
  -6  -2  -7 1660.74 348.657   8
  -6  -2  -7 1115.94 326.462   3
  -6  -2  -8 3253.04 516.927   8
   6   2   8 2680.82 490.377   8
  -6  -2  -8 3553.68 617.063   3
   6   2   9 1793.41 446.886   8
  -6  -2  -9 1926.82 444.850   3
  -6  -2 -10 5169.88 738.525   3
   6   2  10 4880.48 766.832   8
   6   2  11 151.825 225.656   8
  -6  -2 -11 231.867 231.266   3
   6   2  12 662.265 397.776   8
  -6  -2 -12 845.992 335.418   3
   6   2  13 688.669 358.264   8
  -6  -2 -13 552.210 282.503   3
   6   2  14 868.205 461.947   8
  -6  -2 -14 275.508 191.080   3
   6   3  -8 413.866 236.555   4
   6   3  -7 657.247 264.503   4
  -6  -3   7 211.194 155.123   1
  -6  -3   7 381.126 277.428   2
   6   3  -6 1603.35 390.833   4
  -6  -3   6 853.424 286.436   1
  -6  -3   6 1521.88 466.928   2
   6   3  -5 411.249 235.335   4
  -6  -3   5-15.8705 135.635   1
  -6  -3   5 577.571 278.157   2
   6   3  -4 1443.85 337.476   4
  -6  -3   4 896.597 308.130   1
  -6  -3   4 1537.63 472.915   2
   6   3  -4 1670.50 257.375   7
   6   3  -3 205.822 142.141   4
  -6  -3   3 164.585 210.126   1
   6   3  -3 66.6672 75.3907   6
   6   3  -3-26.4668 79.1496   8
  -6  -3   3 13.8254 141.996   2
   6   3  -3 124.110 124.139   7
  -6  -3   2 4995.05 739.083   2
   6   3  -2 5602.60 612.206   6
  -6  -3   2 5356.00 736.432   1
   6   3  -2 4251.71 537.175   8
   6   3  -2 5708.03 572.485   4
   6   3  -2 4912.05 568.556   7
   6   3  -1 1037.39 231.778   4
   6   3  -1 1172.17 300.203   6
   6   3  -1 854.433 223.841   8
  -6  -3   1 1634.65 429.566   1
  -6  -3   1 898.633 319.277   2
   6   3  -1 851.000 253.791   7
  -6  -3   0 41714.0 2080.64   2
   6   3   0 36718.7 1750.53   6
  -6  -3   0 39928.3 2108.62   1
   6   3   0 37747.1 1348.34   8
   6   3   0 40764.1 1365.06   4
   6   3   0 39516.7 1916.66   7
  -6  -3  -1 4172.18 612.762   2
   6   3   1 3928.48 362.639   8
  -6  -3  -1 4105.98 650.007   1
   6   3   1 4099.53 311.482   4
   6   3   1 4766.82 674.965   7
   6   3   2-133.738 205.421   7
   6   3   2 307.287 112.327   8
  -6  -3  -2 26.2189 183.633   1
   6   3   3 192.672 288.535   7
   6   3   3 226.840 92.2702   8
  -6  -3  -4 11689.2 1085.82   3
   6   3   4 9795.14 626.250   8
   6   3   4 11042.3 1054.93   7
   6   3   5 255.196 222.721   7
   6   3   5 324.012 129.886   8
  -6  -3  -5 353.167 164.959   3
   6   3   6 8231.77 682.197   8
  -6  -3  -6 8299.29 984.304   3
  -6  -3  -6 8080.34 667.984   8
   6   3   6 7468.16 898.682   7
   6   3   7 554.786 253.561   7
   6   3   7 318.359 141.730   8
  -6  -3  -7 293.769 177.922   3
   6   3   8 3527.06 661.801   7
  -6  -3  -8 3313.32 496.831   8
   6   3   8 3206.42 510.650   8
  -6  -3  -8 3100.46 590.733   3
   6   3   9 2006.59 514.228   7
   6   3   9 2251.95 469.204   8
  -6  -3  -9 2550.49 456.516   8
  -6  -3  -9 2374.69 536.425   3
   6   3  10 6008.54 814.933   8
  -6  -3 -10 4722.07 751.419   3
   6   3  10 7012.84 974.819   7
   6   3  11 2275.14 595.091   7
   6   3  11 1175.10 408.618   8
  -6  -3 -11 1343.68 410.465   3
   6   3  12 2711.44 614.732   7
   6   3  12 1723.75 555.595   8
  -6  -3 -12 2297.42 555.601   3
   6   3  13-199.549 226.831   7
  -6  -3 -13-41.2920 157.209   3
   6   4  -8 441.326 258.581   4
   6   4  -7 231.955 156.126   4
  -6  -4   7 149.378 170.534   1
   6   4  -6 1316.77 358.216   4
  -6  -4   6 906.115 399.114   1
  -6  -4   6 1417.84 488.023   2
   6   4  -5 646.050 223.961   4
  -6  -4   5 773.909 330.729   1
  -6  -4   5 898.891 405.887   2
   6   4  -4 1329.18 325.630   4
  -6  -4   4 1151.93 400.175   1
  -6  -4   4 2151.62 555.520   2
   6   4  -4 1324.58 263.554   7
   6   4  -3 1492.77 323.549   4
  -6  -4   3 761.804 290.230   1
  -6  -4   3 1482.10 423.267   2
   6   4  -3 1438.70 302.162   7
  -6  -4   2 5916.26 838.095   2
   6   4  -2 5019.42 580.818   6
  -6  -4   2 4296.74 693.735   1
   6   4  -2 5606.51 574.491   4
   6   4  -2 5812.92 650.675   7
   6   4  -1 1104.20 245.627   4
   6   4  -1 858.646 244.122   6
   6   4  -1 843.610 168.968   8
  -6  -4   1 675.604 295.605   2
  -6  -4   1 1376.24 420.409   1
   6   4  -1 918.156 175.087   8
   6   4  -1 1190.26 333.274   7
  -6  -4   0 5555.55 764.490   2
  -6  -4   0 6638.24 856.524   1
   6   4   0 5362.64 341.825   8
   6   4   0 5516.48 334.827   8
   6   4   0 6223.15 499.525   4
   6   4   0 6403.24 774.106   7
  -6  -4  -1 1283.79 382.627   1
   6   4   1 1136.64 187.736   4
  -6  -4  -1 727.905 260.460   2
   6   4   1 888.296 328.258   7
  -6  -4  -2 14964.8 1294.86   1
   6   4   2 12935.5 522.605   4
   6   4   2 13782.1 519.300   4
   6   4   2 16202.5 1312.06   7
  -6  -4  -2 13674.7 1072.51   2
  -6  -4  -3 6066.40 783.865   1
   6   4   3 5276.34 777.555   7
  -6  -4  -4 10727.7 1054.08   1
  -6  -4  -4 9908.59 1058.33   3
   6   4   4 8752.79 426.293   8
   6   4   4 10083.5 1054.22   7
   6   4   5-86.3166 161.804   7
   6   4   5 79.9587 71.1386   8
  -6  -4  -5-26.8578 167.688   3
   6   4   6 1963.96 501.022   7
   6   4   6 1291.98 258.362   8
  -6  -4  -6 1966.63 486.610   3
   6   4   7 110.864 200.235   7
   6   4   7 154.666 103.723   8
  -6  -4  -7-16.5245 73.8522   8
  -6  -4  -7-79.1606 162.251   3
   6   4   8 7351.00 747.477   8
  -6  -4  -8 7740.32 968.352   3
   6   4   8 9184.78 1062.95   7
   6   4   9 1694.94 502.937   7
  -6  -4  -9 1709.69 350.887   8
  -6  -4  -9 1572.94 436.766   3
   6   4  10 2816.09 633.030   7
  -6  -4 -10 2013.40 512.256   3
   6   4  11 666.307 375.622   7
  -6  -4 -11 268.874 194.685   3
   6   4  12 3514.32 737.574   7
  -6  -4 -12 2195.96 575.115   3
   6   4  13 496.241 300.886   7
  -6  -4 -13 25.4658 122.230   3
   6   5  -7-36.5329 103.852   4
  -6  -5   7-1.48388 167.434   1
   6   5  -6 1105.11 343.458   4
  -6  -5   6 1373.90 459.717   1
  -6  -5   6 1790.65 580.081   2
  -6  -5   5 300.316 215.982   1
   6   5  -5 211.579 152.636   4
  -6  -5   5-26.1844 167.374   2
  -6  -5   4 536.863 287.142   1
   6   5  -4 887.141 268.409   4
  -6  -5   4 285.322 197.421   2
  -6  -5   3 404.627 300.106   1
   6   5  -3 716.824 238.075   4
  -6  -5   3 971.430 345.980   2
   6   5  -3 1010.46 278.297   7
  -6  -5   2 1392.21 419.413   1
   6   5  -2 1514.02 325.140   4
  -6  -5   2 1150.06 360.127   2
   6   5  -2 1327.90 326.239   7
   6   5  -1 385.263 148.936   4
  -6  -5   1 499.776 281.531   1
  -6  -5   1 656.504 285.993   2
   6   5  -1 389.692 177.267   7
  -6  -5   0 5857.24 765.495   2
  -6  -5   0 6399.22 873.807   1
   6   5   0 5955.87 547.954   4
   6   5   0 6701.83 818.012   7
  -6  -5  -1 2761.82 504.245   2
  -6  -5  -1 2559.14 568.184   1
   6   5   1 2613.90 321.189   4
   6   5   1 2577.26 533.643   7
  -6  -5  -2 12402.7 1240.77   1
   6   5   2 12447.1 649.604   4
   6   5   2 14922.9 697.935   4
   6   5   2 13968.5 1301.74   7
  -6  -5  -2 14388.5 1107.45   2
   6   5   3 918.113 368.560   7
   6   5   3 448.823 83.2287   4
  -6  -5  -3 586.383 312.141   1
   6   5   3 419.012 84.2959   4
   6   5   4 1128.73 416.326   7
  -6  -5  -4 1238.85 367.361   1
  -6  -5  -4 982.401 339.814   3
   6   5   5 1033.72 406.689   7
  -6  -5  -5 1062.55 347.436   1
  -6  -5  -5 455.927 251.762   3
   6   5   6 10947.7 966.231   5
  -6  -5  -6 13203.2 1202.07   1
  -6  -5  -6 12374.4 1290.33   3
   6   5   6 13841.0 1338.40   7
   6   5   7 338.850 271.432   7
   6   5   7 44.4643 135.786   5
  -6  -5  -7 27.8381 168.869   3
   6   5   8 841.033 352.733   7
  -6  -5  -8 1466.38 450.164   3
   6   5   9-219.497 214.852   7
  -6  -5  -9-128.517 178.747   3
   6   5  10 3546.45 725.263   7
  -6  -5 -10 3264.97 656.741   3
   6   5  11 323.291 282.912   7
  -6  -5 -11 955.107 386.774   3
   6   5  12 1813.33 521.286   7
  -6  -5 -12 1457.25 496.924   3
  -6  -6   7 96.5627 203.409   1
   6   6  -6 338.057 227.105   4
  -6  -6   6 249.934 175.381   1
   6   6  -5 270.872 216.190   4
  -6  -6   5 520.754 285.603   2
  -6  -6   5 352.173 223.815   1
   6   6  -4 1945.69 424.293   4
  -6  -6   4 2253.44 592.113   2
  -6  -6   4 2000.38 558.915   1
   6   6  -3 807.663 260.553   4
  -6  -6   3 1002.96 368.168   2
  -6  -6   3 314.491 301.852   1
   6   6  -3 902.441 278.685   7
   6   6  -2 882.230 252.489   4
  -6  -6   2 553.034 201.082   2
   6   6  -2 445.178 207.449   7
  -6  -6   2 938.202 388.918   1
   6   6  -1 880.425 241.770   4
  -6  -6   1 670.546 278.812   2
   6   6  -1 1007.51 309.983   7
  -6  -6   1 807.450 334.528   1
  -6  -6   0 3048.76 651.446   1
  -6  -6   0 3221.57 578.170   2
   6   6   0 2618.44 391.046   4
   6   6   0 2056.86 472.165   7
  -6  -6  -1 258.588 204.619   1
   6   6   1 533.095 182.724   4
  -6  -6  -1 476.044 225.953   2
   6   6   1 275.724 234.976   7
  -6  -6  -2 2952.31 647.623   1
  -6  -6  -2 2236.59 441.368   2
   6   6   2 2676.09 329.350   4
   6   6   2 2648.52 571.145   7
  -6  -6  -3 2988.90 625.513   1
   6   6   3 3036.35 307.940   4
   6   6   3 3306.81 665.582   7
  -6  -6  -4 9356.03 1072.52   1
  -6  -6  -4 8185.66 1045.21   3
   6   6   4 8487.81 1101.42   7
   6   6   4 6902.21 408.233   4
   6   6   5 1235.45 434.553   7
  -6  -6  -5 1340.37 393.668   1
  -6  -6  -5 1129.34 385.511   3
   6   6   6 2652.89 620.937   7
  -6  -6  -6 2223.48 588.572   3
  -6  -6  -6 2435.14 536.765   1
   6   6   7-242.463 309.371   7
  -6  -6  -7 82.3386 138.838   1
  -6  -6  -7-358.974 281.786   3
   6   6   8 3413.44 718.846   7
  -6  -6  -8 2841.90 639.604   3
   6   6   9-491.005 344.405   7
  -6  -6  -9 460.732 294.288   3
   6   6  10 2568.67 660.681   7
  -6  -6 -10 1319.04 454.154   3
   6   6  11 446.182 301.404   7
  -6  -6 -11 494.343 315.713   3
   6   6  12 1350.98 482.390   7
   6   7  -5-180.319 175.955   4
  -6  -7   5-63.4572 167.877   1
  -6  -7   5 265.129 239.937   2
   6   7  -4 416.742 206.356   4
  -6  -7   4 946.124 410.498   2
   6   7  -3 90.8002 105.223   4
  -6  -7   3 138.763 148.799   1
  -6  -7   3-105.786 127.085   2
   6   7  -3 150.180 160.778   7
   6   7  -2 1514.05 364.207   4
  -6  -7   2 1150.79 381.812   2
  -6  -7   2 1328.27 460.363   1
   6   7  -2 1097.97 350.134   7
   6   7  -1 993.001 280.988   4
  -6  -7   1 1321.67 407.590   2
  -6  -7   1 1140.47 415.580   1
   6   7  -1 325.287 192.288   7
   6   7   0 1154.00 294.907   4
  -6  -7   0 1123.33 342.786   2
  -6  -7   0 1519.39 530.409   1
   6   7   0 847.516 323.216   7
   6   7   1 564.469 184.168   4
  -6  -7  -1 726.597 298.336   2
  -6  -7  -1 444.587 258.100   1
   6   7   1 441.149 281.900   7
  -6  -7  -2 1871.05 512.509   1
  -6  -7  -2 2173.12 433.421   2
   6   7   2 2412.33 366.821   4
   6   7   2 2728.09 623.642   7
  -6  -7  -3 631.897 330.343   1
   6   7   3 439.953 149.043   4
   6   7   3 400.153 266.509   7
  -6  -7  -4 2436.95 615.117   1
  -6  -7  -4 2991.09 642.979   3
   6   7   4 2954.18 657.742   7
  -6  -7  -5 921.300 355.349   1
  -6  -7  -5 623.119 276.774   3
   6   7   5 893.672 409.087   7
  -6  -7  -6 2090.09 569.551   3
  -6  -7  -6 2615.53 580.613   1
   6   7   6 2498.55 668.716   7
  -6  -7  -7 402.005 218.310   3
   6   7   7 151.809 226.264   7
   6   7   8 3313.69 759.570   7
  -6  -7  -8 1932.13 540.567   3
  -6  -7  -8 2687.59 557.810   1
   6   7   9 290.240 318.560   7
  -6  -7  -9 676.959 351.622   3
   6   7  10 2250.18 647.407   7
  -6  -7 -10 1314.45 468.842   3
   6   7  11-30.3297 224.018   7
  -6  -7 -11 653.661 365.907   3
   6   8  -4 380.528 174.619   4
  -6  -8   4 179.488 219.025   2
   6   8  -3 525.615 234.942   4
  -6  -8   3 325.604 226.462   2
   6   8  -2 787.650 272.340   4
  -6  -8   2 692.182 378.114   1
  -6  -8   2 541.389 273.856   2
   6   8  -2 1028.69 381.458   7
   6   8  -1 126.295 102.224   4
  -6  -8   1 275.910 183.772   2
  -6  -8   1-133.748 244.304   1
   6   8  -1 126.669 118.515   7
   6   8   0 1009.03 278.949   4
  -6  -8   0 1007.67 328.485   2
  -6  -8   0 778.628 401.484   1
   6   8   0 1195.01 394.480   7
   6   8   1 286.775 149.919   4
  -6  -8  -1-10.8516 130.249   2
  -6  -8  -1-28.9498 183.852   1
  -6  -8  -2 1735.01 531.758   1
   6   8   2 2413.58 601.455   7
   6   8   3 537.266 340.119   7
  -6  -8  -3-140.041 195.213   1
  -6  -8  -4 46.9121 135.680   1
   6   8   4 1673.70 528.778   7
  -6  -8  -5 691.448 347.053   1
  -6  -8  -5 801.085 376.945   3
   6   8   5 903.297 402.471   7
  -6  -8  -6 1960.03 517.581   1
  -6  -8  -6 2593.44 662.582   3
   6   8   6 1896.95 600.393   7
  -6  -8  -7 364.404 279.050   3
  -6  -8  -7 348.559 215.955   1
   6   8   7 313.768 312.245   7
  -6  -8  -8 959.541 373.504   1
  -6  -8  -8 410.450 346.492   3
   6   8   8 1666.45 565.529   7
  -6  -8  -9-25.7944 138.153   1
  -6  -8  -9 311.601 271.108   3
   6   9  -2-24.3254 167.539   7
   6   9  -1 564.071 326.388   7
   6   9   0 1200.45 415.880   7
   6   9   1 590.810 284.241   7
  -6  -9  -2 630.700 317.084   1
   6   9   2 334.757 299.144   7
  -6  -9  -3 570.667 295.383   1
   6   9   3 643.512 314.816   7
   6   9   4 979.347 408.183   7
  -6  -9  -4 828.439 358.967   1
  -6  -9  -5 546.954 353.468   1
  -6  -9  -5 546.057 365.381   3
   6   9   5 36.2513 157.562   7
  -6  -9  -6 1487.15 490.238   1
  -6  -9  -6 720.430 366.906   3
   6   9   6 1513.35 543.896   7
  -6  -9  -7-51.5384 154.726   1
  -6  -9  -7-208.831 184.783   3
   6   9   7 203.942 243.956   7
  -6  -9  -8 261.171 219.095   1
  -6  -9  -9 100.116 157.618   1
  -6  -9 -10 466.245 238.160   1
   7  -6  -5 1048.37 433.756   4
   7  -6  -4-71.5729 219.282   4
  -7   6   3 629.426 375.971   6
  -7   6   2-130.023 266.396   6
   7  -6  -2 52.7444 122.701   8
  -7   6   1 922.080 471.225   6
   7  -6  -1 1194.60 416.955   8
  -7   6   0 448.527 278.114   6
   7  -6   0 5.60724 188.171   8
  -7   6  -1 706.359 350.695   6
   7  -6   1 1380.38 478.941   8
  -7   6  -2-175.594 247.073   6
   7  -6   2-78.6281 159.087   8
  -7   6  -3 2849.39 654.761   6
   7  -6   3 2023.87 575.543   8
  -7   6  -4 52.5109 113.344   6
  -7   5   7 783.404 429.443   6
  -7   5   6 78.7359 233.011   6
  -7   5   6-131.192 250.870   2
   7  -5  -6 331.878 243.559   4
  -7   5   5 154.794 162.386   6
   7  -5  -5 523.162 248.486   4
  -7   5   4 51.9935 189.483   6
   7  -5  -4 199.763 93.7945   8
   7  -5  -4-37.7501 154.143   4
  -7   5   3 996.309 436.006   6
   7  -5  -3 1287.66 470.718   8
   7  -5  -3 1547.49 440.973   4
  -7   5   2 86.5004 196.182   6
   7  -5  -2 944.895 426.346   8
  -7   5   1 2041.00 629.750   6
   7  -5  -1 2650.97 667.714   8
  -7   5   0 588.199 352.473   6
   7  -5   0 88.6715 227.355   8
  -7   5  -1 4995.49 888.246   6
   7  -5   1 5965.38 959.619   8
  -7   5  -2 129.469 183.171   6
   7  -5   2 494.907 303.274   8
  -7   5  -3 1776.36 474.863   6
   7  -5   3 2169.42 565.908   8
  -7   5  -4 176.007 192.155   6
   7  -5   4-158.219 197.117   8
  -7   5  -5 1551.81 470.793   6
   7  -5   5 1115.58 415.757   8
  -7   5  -6 488.979 258.809   6
   7  -5   6 274.722 224.222   8
  -7   5  -7 672.035 319.339   6
  -7   4   7-163.475 134.199   6
   7  -4  -7 122.314 128.835   4
  -7   4   6 112.637 164.519   6
  -7   4   6 262.820 183.757   2
   7  -4  -6 401.119 266.565   4
  -7   4   5 2210.37 631.734   6
  -7   4   5 1672.93 477.768   2
   7  -4  -5 2244.64 548.306   4
  -7   4   4 567.013 379.179   6
  -7   4   4 591.731 291.391   2
   7  -4  -4 332.482 254.558   4
  -7   4   3 3025.35 731.118   6
   7  -4  -3 2828.99 663.197   8
   7  -4  -3 1923.97 465.214   4
  -7   4   2 1165.67 431.618   6
   7  -4  -2 1997.54 553.071   8
   7  -4  -2 1661.40 421.650   4
  -7   4   1 4885.91 888.399   6
   7  -4  -1 3916.97 765.317   8
  -7   4   0 1830.07 543.992   6
   7  -4   0 1128.57 426.474   8
  -7   4  -1 2078.89 539.756   6
   7  -4   1 1371.84 484.476   8
  -7   4  -2 28.1628 131.053   6
   7  -4   2 81.2335 127.974   8
  -7   4  -3 5662.41 856.633   6
   7  -4   3 6053.38 926.570   8
  -7   4  -4 358.348 232.722   6
   7  -4   4 337.191 206.579   8
  -7   4  -5 5337.41 822.258   6
   7  -4   5 5829.85 907.926   8
  -7   4  -6 222.973 182.172   6
   7  -4   6 136.490 169.592   8
  -7   4  -7 1225.06 415.297   6
   7  -4   7 1208.89 438.759   8
  -7   4  -8-16.8015 112.602   6
   7  -4   8 193.064 201.632   8
  -7   4  -9 565.114 297.504   6
  -7   3   7 1120.91 397.754   6
  -7   3   7 532.207 376.387   2
   7  -3  -7 1416.66 462.769   4
  -7   3   6 276.152 217.345   6
  -7   3   6 668.387 302.671   2
   7  -3  -6 288.153 200.317   4
  -7   3   5 931.367 351.602   6
  -7   3   5 1569.72 474.878   2
   7  -3  -5 836.042 315.283   4
  -7   3   4 463.223 288.987   6
  -7   3   4 258.656 221.850   2
   7  -3  -4 187.602 150.304   4
  -7   3   3 1411.06 454.729   6
  -7   3   3 917.014 335.126   2
   7  -3  -3 1419.02 378.222   4
  -7   3   2 310.119 192.003   6
   7  -3  -2 389.585 255.376   8
   7  -3  -2 288.136 200.428   4
  -7   3   1 1213.13 401.528   6
   7  -3  -1 1644.88 467.962   8
   7  -3  -1 1780.55 410.996   4
  -7   3   0 1975.95 506.360   6
   7  -3   0 1710.32 462.328   8
  -7   3  -1 8766.74 1057.14   6
   7  -3   1 9437.80 1095.83   8
  -7   3  -2 1262.21 383.714   6
   7  -3   2 684.068 284.401   8
  -7   3  -3 5401.78 812.335   6
   7  -3   3 6143.26 880.008   8
  -7   3  -4 137.675 230.676   6
   7  -3   4-5.37370 128.963   8
  -7   3  -5 2505.09 557.183   6
   7  -3   5 2170.51 522.795   8
  -7   3  -6 1987.45 492.087   6
   7  -3   6 2455.73 574.128   8
  -7   3  -7 3962.26 708.499   6
   7  -3   7 5442.95 876.909   8
  -7   3  -8-50.9092 134.699   6
   7  -3   8-63.2385 126.969   8
  -7   3  -9 740.650 330.050   6
   7  -3   9 1035.61 429.871   8
  -7   3 -10 166.894 179.464   6
  -7   3 -11 348.534 221.536   6
   7  -2  -8 76.3517 113.606   4
   7  -2  -7 94.3781 131.144   4
  -7   2   6-88.3581 203.930   6
  -7   2   6 441.797 282.978   2
   7  -2  -6-77.9467 151.247   4
  -7   2   5 1153.81 371.890   6
  -7   2   5 862.522 345.216   2
   7  -2  -5 1326.79 399.794   4
  -7   2   4 251.132 180.997   6
  -7   2   4 219.820 167.221   2
   7  -2  -4 237.202 156.979   4
  -7   2   3 3414.64 638.345   6
  -7   2   3 2763.35 601.675   2
   7  -2  -3 2942.48 520.940   4
  -7   2   2-72.8807 137.464   6
  -7   2   2 82.7914 178.931   2
   7  -2  -2-65.8872 129.470   8
   7  -2  -2-82.6631 113.734   4
  -7   2   1 5128.51 782.655   6
   7  -2  -1 5316.21 794.100   8
   7  -2  -1 5720.42 669.627   4
  -7   2   1 5536.71 617.493   4
  -7   2   0 1597.35 311.820   4
  -7   2   0 2540.18 549.737   6
   7  -2   0 1883.52 462.182   8
   7  -2   0 2164.94 381.904   7
  -7   2  -1 3071.22 590.598   6
   7  -2   1 3037.43 580.046   8
   7  -2   1 2299.98 425.619   3
   7  -2   2-146.398 155.222   8
   7  -2   2 89.3925 91.5637   3
  -7   2  -3 4714.52 741.055   6
   7  -2   3 4078.82 685.225   8
  -7   2  -4 1765.45 457.404   6
   7  -2   4 1262.79 399.387   8
  -7   2  -5 11186.3 1142.16   6
   7  -2   5 10821.1 1124.55   8
  -7   2  -6 690.489 273.510   6
   7  -2   6 398.373 206.115   8
  -7   2  -7 1517.41 418.947   6
  -7   2  -7 1866.64 361.855   3
   7  -2   7 1730.12 473.601   8
  -7   2  -8 676.413 302.149   6
   7  -2   8-4.16960 103.981   8
  -7   2  -8 434.553 181.604   3
  -7   2  -9 3471.80 632.724   6
   7  -2   9 2203.09 569.472   8
  -7   2 -10 53.9475 109.093   6
   7  -2  10 9.95688 159.211   8
   7  -1  -8 353.514 241.553   4
   7  -1  -7 1195.63 439.396   4
   7  -1  -6 264.045 182.306   4
  -7   1   6 78.6020 65.6505   6
  -7   1   6 13.3935 153.606   2
   7  -1  -5 2017.58 464.203   4
  -7   1   5 2183.57 490.568   6
  -7   1   5 1215.11 445.733   2
  -7   1   4 228.760 171.483   6
  -7   1   4 138.639 194.338   2
   7  -1  -4 223.872 189.939   4
  -7   1   3 1609.52 414.649   6
  -7   1   3 1608.04 495.356   2
   7  -1  -3 2313.37 452.290   4
   7  -1  -2 123.737 115.989   7
  -7   1   2 363.683 237.417   6
  -7   1   2 0.72407 127.940   4
   7  -1  -2 129.505 130.813   4
  -7   1   1 596.584 258.526   6
  -7   1   1 421.916 141.558   4
  -7   1   1 541.205 183.600   2
   7  -1  -1 397.591 242.684   8
   7  -1  -1 792.000 224.964   4
  -7   1   0 235.898 174.627   6
   7  -1   0 125.272 97.4810   8
   7  -1   0 56.8878 99.2841   4
  -7   1  -1 6792.16 854.157   6
   7  -1   1 6317.15 788.211   8
  -7   1  -1 6378.42 519.539   4
  -7   1  -2 2464.20 543.886   6
   7  -1   2 2438.38 507.604   8
  -7   1  -2 2737.14 308.237   4
   7  -1   2 1875.73 388.293   3
  -7   1  -3 18590.5 1431.74   6
   7  -1   3 15794.3 1273.06   8
   7  -1   3 16935.7 1178.06   3
  -7   1  -3 16512.5 727.924   4
  -7   1  -4 983.231 326.718   6
   7  -1   4 1014.24 320.051   8
  -7   1  -5 1172.34 365.573   6
  -7   1  -5 821.730 132.098   4
   7  -1   5 875.654 296.192   8
  -7   1  -6 250.743 203.286   6
  -7   1  -6 434.619 185.960   3
   7  -1   6 465.949 223.082   8
  -7   1  -7 8945.11 999.241   6
  -7   1  -7 9228.43 887.551   3
   7  -1   7 8699.16 990.888   8
  -7   1  -8 881.586 361.261   6
   7  -1   8 656.990 267.653   8
  -7   1  -8 1044.59 324.236   3
  -7   1  -9 2636.91 547.409   6
   7  -1   9 2918.11 635.225   8
  -7   1  -9 3286.60 569.804   3
   7  -1  10 299.449 268.425   8
  -7   1 -10 13.6631 100.753   3
   7  -1  11 1007.15 441.474   8
   7   0  -8 34.7604 141.506   4
   7   0  -7 152.381 154.678   4
   7   0  -6-99.6763 153.609   4
  -7   0   6 37.2496 87.4675   6
   7   0  -5 750.480 271.272   4
  -7   0   5 942.856 312.940   6
  -7   0   5 1047.89 397.049   2
   7   0  -4 708.756 295.805   4
  -7   0   4 918.219 300.123   6
  -7   0   4 605.091 301.872   2
   7   0  -3 2877.61 489.780   4
  -7   0   3 1863.56 425.871   6
  -7   0   3 3115.84 647.475   2
   7   0  -2 183.017 127.262   7
  -7   0   2 163.214 154.136   6
  -7   0   2 131.943 74.5408   4
  -7   0   2 100.009 195.132   2
   7   0  -2 53.7888 112.309   4
   7   0  -1 3214.05 461.753   7
  -7   0   1 3177.04 559.503   6
  -7   0   1 3043.01 609.051   2
   7   0  -1 3454.00 570.991   8
   7   0  -1 2525.35 392.166   4
   7   0   0 1915.02 389.535   7
  -7   0   0 1831.76 424.108   6
   7   0   0 1862.41 410.984   8
  -7   0   0 1979.65 294.354   4
   7   0   0 2231.62 317.985   4
  -7   0  -1 3249.13 572.034   6
   7   0   1 3066.23 525.045   8
  -7   0  -1 3323.48 321.343   4
  -7   0  -2 209.090 152.034   6
  -7   0  -2 173.195 68.8966   4
   7   0   2 165.291 83.2397   8
  -7   0  -3 1814.58 450.455   6
   7   0   3 1294.39 338.309   8
  -7   0  -4 129.891 213.241   6
   7   0   4 235.248 166.857   8
  -7   0  -5 25342.4 1657.43   6
   7   0   5 21886.4 1436.39   8
  -7   0  -6 1221.14 379.892   6
   7   0   6 1031.89 332.660   8
  -7   0  -6 1645.13 393.843   3
  -7   0  -7 1844.43 439.013   6
   7   0   7 1907.08 431.853   8
  -7   0  -7 1506.75 383.384   3
  -7   0  -8 102.365 140.182   6
   7   0   8-57.5262 151.186   8
  -7   0  -8 167.606 181.991   3
   7   0   9 4988.90 770.612   8
  -7   0  -9 5438.49 781.629   3
   7   0  10-236.890 228.183   8
  -7   0 -10 24.2917 92.2588   3
   7   0  11 1656.77 508.286   8
  -7   0 -11 1339.68 414.335   3
   7   0  12-231.256 239.884   8
  -7   0 -12-45.6623 79.0362   3
   7   1  -8 300.004 200.151   4
   7   1  -7 683.392 299.805   4
   7   1  -6 334.414 222.385   4
  -7  -1   6 351.752 268.672   2
   7   1  -5 1356.98 355.917   4
  -7  -1   5 1125.77 315.407   6
  -7  -1   5 1710.89 520.663   2
   7   1  -4 681.905 247.876   4
  -7  -1   4 682.464 260.793   6
  -7  -1   4 975.403 411.026   2
   7   1  -3 2577.16 442.795   4
  -7  -1   3 2830.57 516.505   6
  -7  -1   3 2659.76 622.328   2
   7   1  -2 480.188 152.418   7
   7   1  -2 111.415 113.024   4
  -7  -1   2 319.038 164.433   6
  -7  -1   2 396.752 256.577   2
   7   1  -1 1995.62 374.531   7
  -7  -1   1 1793.41 403.488   6
  -7  -1   1 2010.27 505.110   2
   7   1  -1 1854.26 392.624   8
   7   1  -1 1539.55 286.102   4
   7   1   0 228.516 156.701   7
  -7  -1   0 366.925 200.158   6
   7   1   0 249.435 105.451   8
   7   1   0 297.058 121.850   4
   7   1   1 193.594 106.574   7
  -7  -1  -1 425.877 211.848   6
   7   1   1 68.7059 78.2078   8
   7   1   1 273.488 93.4314   4
  -7  -1  -2 4509.02 672.032   6
   7   1   2 4629.81 574.158   8
   7   1   2 4345.11 657.012   7
  -7  -1  -3 14889.0 1239.76   6
   7   1   3 13049.1 978.462   8
  -7  -1  -4 1822.59 442.185   6
   7   1   4 1629.60 345.480   8
  -7  -1  -5 3290.14 573.419   6
  -7  -1  -5 1877.77 428.552   3
   7   1   5 2156.33 407.181   8
  -7  -1  -6 124.730 147.389   6
   7   1   6-87.7629 128.439   8
  -7  -1  -6 207.763 212.847   3
  -7  -1  -7 6014.44 818.584   3
   7   1   7 6561.44 768.426   8
   7   1   8 904.260 299.565   8
  -7  -1  -8 1467.44 410.633   3
   7   1   9 4540.63 723.635   8
  -7  -1  -9 3813.10 680.246   3
   7   1  10 192.271 196.775   8
  -7  -1 -10 68.0812 146.004   3
   7   1  11 1669.29 496.728   8
  -7  -1 -11 963.373 350.390   3
   7   1  12-106.621 245.419   8
  -7  -1 -12-163.208 178.392   3
   7   1  13 605.624 357.998   8
  -7  -1 -13 695.284 317.590   3
   7   2  -8 248.240 212.572   4
   7   2  -7 204.310 191.946   4
   7   2  -6 448.028 239.076   4
  -7  -2   6 504.678 268.475   2
   7   2  -5 688.749 259.632   4
  -7  -2   5 613.596 393.223   2
   7   2  -4-108.597 147.330   4
  -7  -2   4-34.1379 180.570   2
  -7  -2   3 2121.43 542.740   2
   7   2  -3 3157.02 473.641   4
   7   2  -2 1307.27 290.327   4
  -7  -2   2 1785.43 493.714   2
   7   2  -2 1271.34 295.050   7
  -7  -2   1 3499.32 683.736   2
   7   2  -1 4921.99 581.816   8
   7   2  -1 4387.70 475.658   4
   7   2  -1 4625.17 605.422   7
   7   2   0 1333.42 360.383   7
  -7  -2   0 1331.15 404.252   2
   7   2   0 1431.12 297.498   8
   7   2   0 937.583 195.118   4
   7   2   1 1742.66 415.596   7
  -7  -2  -1 2354.02 496.691   2
   7   2   1 1847.48 193.075   4
   7   2   1 1788.53 329.347   8
   7   2   2 2890.10 535.571   7
   7   2   2 3106.48 416.713   8
   7   2   3 2.15502 153.743   7
   7   2   3 85.8970 89.6808   8
   7   2   4-11.2230 172.378   7
   7   2   4 53.1058 119.516   8
  -7  -2  -5 6827.87 871.620   3
   7   2   5 7592.90 697.934   8
   7   2   5 8563.55 983.598   7
   7   2   6 2536.39 570.441   7
   7   2   6 3257.45 479.606   8
  -7  -2  -6 2359.77 525.279   3
  -7  -2  -7 6377.57 871.005   3
   7   2   7 5997.05 682.551   8
   7   2   8 1375.59 369.185   8
  -7  -2  -8 2040.09 501.546   3
   7   2   9 1993.37 461.833   8
  -7  -2  -9 1623.69 461.671   3
   7   2  10 14.4920 133.208   8
  -7  -2 -10 446.777 270.058   3
   7   2  11 2082.36 528.503   8
  -7  -2 -11 1821.30 479.728   3
   7   2  12-97.3372 178.937   8
  -7  -2 -12 122.649 166.136   3
   7   2  13 27.6262 156.215   8
  -7  -2 -13 368.375 251.782   3
   7   3  -7 781.295 307.256   4
   7   3  -6 164.561 141.776   4
   7   3  -5 926.292 323.232   4
  -7  -3   5 1028.84 428.846   2
  -7  -3   5 1406.67 415.716   1
  -7  -3   4 667.261 286.783   1
   7   3  -4 1056.62 285.252   4
  -7  -3   4 627.669 320.363   2
   7   3  -3 1526.82 342.902   4
  -7  -3   3 2053.26 469.556   1
  -7  -3   2 262.414 218.699   1
   7   3  -2 92.1937 105.349   4
  -7  -3   2 144.615 156.625   2
   7   3  -2 316.760 196.683   7
  -7  -3   1 2144.42 510.955   2
   7   3  -1 2608.06 358.689   4
   7   3  -1 2080.57 350.442   8
   7   3  -1 2677.34 482.206   7
   7   3   0 448.556 138.073   4
  -7  -3   0 574.355 277.284   2
   7   3   0 173.718 98.2417   8
   7   3   0 188.756 168.176   7
   7   3   1 3873.67 639.767   7
  -7  -3  -1 3451.78 621.205   2
   7   3   1 3422.97 378.203   8
   7   3   1 3117.58 255.030   4
   7   3   2 971.567 339.498   7
   7   3   2 430.292 121.152   8
   7   3   3 1649.27 431.550   7
   7   3   3 1542.46 243.711   8
   7   3   4 2281.67 504.850   7
   7   3   4 2605.13 336.943   8
   7   3   5 4674.00 735.280   7
  -7  -3  -5 4882.74 754.788   3
   7   3   5 4564.13 473.955   8
   7   3   6 124.642 179.344   7
   7   3   6 160.984 122.224   8
  -7  -3  -6 91.4030 108.843   3
   7   3   7 906.870 341.501   7
   7   3   7 1375.94 311.762   8
  -7  -3  -7 1458.85 444.254   3
   7   3   8 3040.58 696.434   7
   7   3   8 3479.97 542.575   8
  -7  -3  -8 2154.61 538.647   3
   7   3   9 5196.66 849.819   7
   7   3   9 4891.65 693.488   8
  -7  -3  -9 4765.47 786.224   3
   7   3  10 1678.96 515.979   7
   7   3  10 940.466 341.251   8
  -7  -3 -10 1220.79 406.972   3
   7   3  11 1974.73 564.310   7
   7   3  11 859.787 376.813   8
  -7  -3 -11 945.552 362.263   3
   7   3  12 51.6254 252.838   8
  -7  -3 -12-10.4845 112.135   3
  -7  -4   6 56.7173 133.857   1
   7   4  -6 240.337 185.616   4
   7   4  -5 1192.11 334.593   4
  -7  -4   5 1059.25 436.441   2
  -7  -4   5 481.442 235.869   1
   7   4  -4 56.1517 87.8506   4
  -7  -4   4 327.011 227.144   1
  -7  -4   4 210.411 227.653   2
   7   4  -3 682.677 257.319   4
  -7  -4   3 288.388 221.032   2
  -7  -4   3 1019.45 378.703   1
   7   4  -2 624.247 198.504   4
  -7  -4   2 531.275 265.112   1
  -7  -4   1 4785.31 782.460   2
  -7  -4   1 4017.87 699.892   1
   7   4  -1 5244.72 530.086   4
   7   4  -1 4558.48 658.495   7
   7   4   0 342.915 128.332   4
  -7  -4   0 635.963 317.924   1
  -7  -4   0 729.116 309.033   2
   7   4   0 714.943 336.476   7
  -7  -4  -1 2407.27 516.591   2
  -7  -4  -1 2776.26 580.892   1
   7   4   1 2615.01 550.753   7
   7   4   2 908.286 357.505   7
  -7  -4  -2 744.523 300.340   1
   7   4   3 3030.52 659.139   7
   7   4   4 352.463 228.473   7
   7   4   5 749.308 354.854   7
  -7  -4  -5 1081.05 364.644   3
   7   4   6 413.238 223.805   7
  -7  -4  -6 41.8391 155.983   3
   7   4   7 5321.41 875.375   7
   7   4   7 4471.38 516.598   8
  -7  -4  -7 5356.61 876.319   3
   7   4   8 1142.01 425.181   7
  -7  -4  -8 600.348 271.028   3
   7   4   9 1237.87 433.991   7
  -7  -4  -9 1863.86 523.552   3
   7   4  10 803.648 392.383   7
  -7  -4 -10 872.272 387.118   3
   7   4  11 1425.97 494.541   7
  -7  -4 -11 1390.94 439.477   3
  -7  -4 -12 114.553 241.482   3
  -7  -5   6-28.0133 131.412   1
  -7  -5   5 678.683 329.714   1
  -7  -5   4 297.454 244.976   2
  -7  -5   4 162.785 173.341   1
  -7  -5   3 1627.35 470.929   2
  -7  -5   3 1267.40 427.344   1
  -7  -5   2 938.996 377.293   2
  -7  -5   2 715.068 315.908   1
   7   5  -2 502.320 220.612   7
  -7  -5   1 529.708 251.142   1
  -7  -5   1 847.731 337.923   2
   7   5  -1 699.865 281.269   7
  -7  -5   0-85.7048 183.722   1
  -7  -5   0 146.370 178.831   2
   7   5   0 328.417 181.785   7
  -7  -5  -1 2858.40 605.412   1
  -7  -5  -1 3163.15 599.786   2
   7   5   1 2912.53 612.526   7
  -7  -5  -2 2101.20 536.757   1
   7   5   2 1619.67 446.232   7
   7   5   3 2652.45 613.948   7
  -7  -5  -3 2840.90 670.517   1
   7   5   4-155.536 265.780   7
  -7  -5  -4 975.188 363.198   1
   7   5   5 3110.34 672.079   7
  -7  -5  -5 2926.83 654.947   3
   7   5   6 252.980 255.049   7
  -7  -5  -6-240.938 261.223   3
   7   5   7 2317.49 618.798   7
  -7  -5  -7 2424.03 615.567   3
   7   5   8 137.050 191.007   7
  -7  -5  -8 260.771 215.606   3
   7   5   9 1505.39 490.539   7
  -7  -5  -9 1461.95 499.560   3
   7   5  10 443.009 297.902   7
  -7  -5 -10 402.028 280.110   3
  -7  -5 -11 1348.39 462.901   3
  -7  -6   4 224.156 259.521   1
  -7  -6   3 199.563 252.491   1
  -7  -6   3 1051.33 386.504   2
  -7  -6   2 778.374 357.689   1
  -7  -6   2 168.571 213.235   2
  -7  -6   1 756.040 302.096   2
  -7  -6   1 1539.51 512.198   1
   7   6  -1 1418.80 387.146   7
  -7  -6   0 704.023 298.018   2
  -7  -6   0 955.209 385.037   1
   7   6   0 1020.83 335.597   7
  -7  -6  -1 1429.33 420.366   2
  -7  -6  -1 1702.10 480.476   1
   7   6   1 1723.08 457.666   7
   7   6   2 581.076 279.263   7
  -7  -6  -2 759.603 382.240   1
  -7  -6  -3 1693.11 577.485   1
   7   6   3 2075.98 539.966   7
  -7  -6  -4 426.577 234.551   1
   7   6   4 349.884 261.543   7
   7   6   5 3137.93 707.608   7
  -7  -6  -5 3594.10 699.580   1
  -7  -6  -5 1987.99 559.381   3
   7   6   6 645.737 343.179   7
  -7  -6  -6 530.004 308.804   1
  -7  -6  -6 155.271 164.440   3
   7   6   7 1032.42 436.645   7
  -7  -6  -7 1652.69 511.080   3
   7   6   8 908.139 382.835   7
  -7  -6  -8 401.810 213.397   3
   7   6   9 2422.29 653.770   7
  -7  -6  -9 1258.39 453.436   3
   7   6  10 641.293 370.666   7
  -7  -6 -10 361.090 272.150   3
  -7  -7   3 996.049 408.639   2
  -7  -7   2 372.874 244.315   2
  -7  -7   1 736.642 345.137   1
  -7  -7   1 915.119 341.077   2
   7   7  -1 1020.16 365.091   7
  -7  -7   0 198.898 153.913   1
  -7  -7   0-28.5010 138.500   2
   7   7   0-107.118 182.362   7
  -7  -7  -1 1182.49 369.630   2
  -7  -7  -1 835.845 375.262   1
   7   7   1 1154.14 408.211   7
  -7  -7  -2 253.953 141.499   1
   7   7   2 519.515 262.525   7
  -7  -7  -3 1920.86 597.200   1
   7   7   3 944.130 425.435   7
  -7  -7  -4 498.284 302.264   1
   7   7   4 692.814 308.740   7
  -7  -7  -5 1060.59 448.280   1
  -7  -7  -5 751.994 360.979   3
   7   7   5 923.393 446.361   7
  -7  -7  -6-266.927 226.711   1
  -7  -7  -6 319.225 297.148   3
   7   7   6 190.103 310.280   7
  -7  -7  -7 1597.57 560.393   3
  -7  -7  -7 1839.89 501.800   1
   7   7   7 1881.15 586.369   7
   7   7   8 528.841 307.298   7
  -7  -7  -8 186.398 201.274   3
   7   7   9 1311.27 546.003   7
  -7  -8   2 154.615 196.436   2
  -7  -8   1 1045.18 365.531   2
   7   8  -1 1000.58 372.818   7
  -7  -8   0 899.200 352.539   2
   7   8   0 193.260 182.331   7
  -7  -8  -1 646.257 281.969   2
   7   8   1 444.839 261.417   7
   7   8   2 232.445 261.320   7
  -7  -8  -3 1055.22 485.975   1
   7   8   3 1551.82 521.071   7
  -7  -8  -4 156.546 300.694   1
   7   8   4-124.952 215.322   7
  -7  -8  -5 207.781 280.669   1
   7   8   5 911.538 399.646   7
  -7  -8  -6 325.552 272.289   1
  -7  -8  -6 237.404 219.932   3
   7   8   6 927.341 452.316   7
  -7  -8  -7 1655.20 492.200   1
   7   8   7 1391.29 589.588   7
  -7  -8  -8 9.11190 110.874   1
   7   9   0-119.202 141.965   7
   7   9   1 511.615 291.000   7
   7   9   2 133.479 158.539   7
   7   9   3-137.135 224.243   7
   8  -5   1 309.497 245.494   8
  -8   4   3 50.7207 137.175   6
   8  -4  -3 223.750 194.607   8
  -8   4   2 1227.75 538.817   6
   8  -4  -2 1596.73 532.847   8
  -8   4   1 82.9856 175.031   6
   8  -4  -1-19.5075 233.577   8
  -8   4   0 1832.44 576.584   6
   8  -4   0 1841.47 528.071   8
  -8   4  -1 59.2083 142.858   6
   8  -4   1 147.647 197.402   8
  -8   4  -2 2237.49 605.081   6
   8  -4   2 2245.42 617.458   8
  -8   4  -3 211.473 197.464   6
   8  -4   3 118.422 157.811   8
   8  -4   4 491.492 319.027   8
   8  -4   5-26.0371 143.452   8
   8  -4   6 707.182 363.886   8
  -8   3   5-145.716 170.367   6
  -8   3   4 1195.20 485.576   6
   8  -3  -4 1147.04 475.855   8
  -8   3   3 492.812 291.508   6
   8  -3  -3 269.211 259.804   8
  -8   3   2 2005.99 581.662   6
   8  -3  -2 946.471 404.477   8
  -8   3   1 1055.40 423.322   6
   8  -3  -1 584.261 300.082   8
  -8   3   0 1283.74 445.688   6
   8  -3   0 1637.05 483.873   8
  -8   3  -1 405.568 242.898   6
   8  -3   1 773.236 352.651   8
  -8   3  -2 1438.24 476.871   6
   8  -3   2 1579.28 474.427   8
  -8   3  -3-24.3352 98.0939   6
   8  -3   3 38.2148 140.743   8
  -8   3  -4 1039.79 400.463   6
   8  -3   4 1245.76 429.013   8
  -8   3  -5 1229.51 416.837   6
   8  -3   5 604.524 276.259   8
  -8   3  -6 1945.73 524.907   6
   8  -3   6 2065.94 556.996   8
   8  -3   7-25.8315 115.512   8
   8  -3   8 299.612 292.881   8
  -8   2   5 757.753 341.100   6
  -8   2   4 313.328 221.049   6
  -8   2   3 165.455 222.039   6
  -8   2   3 255.018 197.230   2
   8  -2  -3 391.890 233.128   8
  -8   2   2 1039.17 409.791   6
   8  -2  -2 409.296 247.924   8
  -8   2   1 644.905 333.320   6
   8  -2  -1 421.002 241.051   8
  -8   2   0 2343.17 576.121   6
   8  -2   0 1935.33 511.756   8
  -8   2  -1 894.179 352.160   6
   8  -2   1 246.592 191.299   8
  -8   2  -2 4404.77 764.605   6
   8  -2   2 4041.72 740.534   8
  -8   2  -3 343.869 156.070   6
   8  -2   3 238.807 188.019   8
  -8   2  -4 2527.38 578.812   6
   8  -2   4 2390.41 553.687   8
  -8   2  -5 163.957 165.657   6
   8  -2   5-92.4479 175.805   8
  -8   2  -6 46.7950 190.931   6
   8  -2   6 334.311 248.882   8
  -8   2  -7 1523.30 455.315   6
   8  -2   7 1189.32 445.082   8
  -8   2  -8 3055.42 644.828   6
   8  -2   8 3292.16 688.566   8
   8  -2   9 92.8795 147.423   8
  -8   1   5 289.588 195.734   6
  -8   1   4 1227.70 396.953   6
  -8   1   3 662.342 299.563   6
  -8   1   3 526.040 291.988   2
   8  -1  -3 361.913 246.951   8
  -8   1   2 871.900 340.255   6
  -8   1   2 1214.38 446.715   2
   8  -1  -2 1104.02 370.339   8
  -8   1   1 391.127 171.590   6
   8  -1  -1 108.969 192.247   8
  -8   1   0 2050.13 495.921   6
   8  -1   0 1702.52 458.232   8
  -8   1  -1 127.148 89.4766   6
   8  -1   1 243.977 205.170   8
  -8   1  -2 3979.80 704.650   6
   8  -1   2 4243.96 699.559   8
  -8   1  -3 374.447 227.242   6
   8  -1   3-190.444 216.900   8
  -8   1  -4 3626.19 677.122   6
   8  -1   4 2875.44 572.303   8
  -8   1  -5 1206.48 385.482   6
   8  -1   5 1121.13 362.589   8
  -8   1  -6 3511.30 679.267   6
   8  -1   6 2951.76 603.686   8
  -8   1  -7 1030.05 364.199   6
   8  -1   7 1174.01 413.745   8
  -8   1  -8 499.817 302.185   6
   8  -1   8-18.0924 183.954   8
  -8   1  -8 157.474 118.524   3
  -8   1  -9 105.507 172.867   6
   8  -1   9 3.00446 95.1866   8
   8  -1  10 903.422 390.745   8
  -8   0   4 70.8913 111.381   6
  -8   0   3 211.656 179.602   6
  -8   0   3 417.174 293.363   2
  -8   0   2 1302.34 387.106   6
  -8   0   2 1184.63 425.912   2
   8   0  -2 944.845 342.950   8
  -8   0   1 176.182 150.871   6
  -8   0   1 147.262 136.648   2
   8   0  -1 179.255 175.975   8
   8   0   0 1953.81 416.049   7
  -8   0   0 1156.59 382.439   6
   8   0   0 1328.21 371.488   8
   8   0   1 1101.11 325.934   7
  -8   0  -1 815.101 337.341   6
   8   0   1 1108.77 330.150   8
  -8   0  -2 4556.32 734.662   6
   8   0   2 4842.21 677.989   8
  -8   0  -3 54.9615 192.886   6
   8   0   3 53.4529 118.970   8
  -8   0  -4 7484.74 970.507   6
   8   0   4 6591.65 809.770   8
  -8   0  -5 126.469 176.373   6
   8   0   5 97.0291 148.743   8
  -8   0  -6 1045.10 395.247   6
   8   0   6 887.431 317.200   8
  -8   0  -7 297.214 232.643   6
  -8   0  -7-38.3808 90.2390   3
   8   0   7-43.6814 152.060   8
   8   0   8 1924.82 491.068   8
  -8   0  -8 1746.05 441.414   3
   8   0   9 61.5427 143.653   8
  -8   0  -9 85.6929 161.202   3
   8   0  10 1032.52 413.956   8
  -8   0 -10 1314.74 407.752   3
   8   0  11-11.7931 137.847   8
  -8  -1   4 1230.01 370.854   6
  -8  -1   3 287.933 207.965   6
  -8  -1   3 139.737 214.180   2
  -8  -1   2 1064.53 349.272   6
  -8  -1   2 1703.36 526.509   2
   8   1  -2 887.852 303.364   8
  -8  -1   1 738.061 285.598   6
  -8  -1   1 858.061 386.258   2
   8   1  -1 635.017 258.474   8
   8   1   0 1338.26 348.123   7
  -8  -1   0 1302.24 387.574   6
   8   1   0 1200.97 327.590   8
   8   1   1-25.9879 157.691   7
  -8  -1  -1 217.166 167.303   6
   8   1   1 50.3721 73.4673   8
   8   1   2 1462.09 393.059   7
  -8  -1  -2 1235.26 374.315   6
   8   1   2 972.785 280.060   8
   8   1   3 646.477 289.246   7
  -8  -1  -3 304.404 166.715   6
   8   1   3 390.554 187.734   8
   8   1   4 4932.67 761.052   7
  -8  -1  -4 5243.09 803.696   6
   8   1   4 5619.48 673.791   8
  -8  -1  -5 61.6647 113.685   6
   8   1   5 130.719 140.646   8
   8   1   6 4035.17 603.382   8
   8   1   7 726.636 252.059   8
  -8  -1  -7 639.098 279.009   3
   8   1   8 1384.68 378.656   8
  -8  -1  -8 1468.51 420.035   3
   8   1   9 13.6655 117.805   8
  -8  -1  -9-99.9623 104.108   3
   8   1  10 472.771 272.487   8
  -8  -1 -10 449.892 282.628   3
   8   1  11-248.429 234.924   8
  -8  -1 -11 97.4249 176.068   3
  -8  -1 -12 1128.78 409.387   3
  -8  -2   3 456.444 305.612   2
  -8  -2   2 740.707 355.614   2
  -8  -2   1 263.847 305.592   2
   8   2   0 1029.61 349.222   7
  -8  -2   0 1298.32 425.290   2
   8   2   1 890.125 315.785   7
   8   2   2 2317.64 523.316   7
   8   2   2 2295.40 390.885   8
   8   2   3 488.615 203.756   7
   8   2   3 303.804 122.661   8
   8   2   4 2081.81 493.823   7
   8   2   4 2193.40 371.980   8
   8   2   5 178.930 156.470   7
   8   2   5 73.0227 63.4013   8
   8   2   6 3944.02 740.403   7
   8   2   6 3013.18 472.861   8
  -8  -2  -6 4438.55 749.359   3
   8   2   7 799.668 375.524   7
   8   2   7 301.680 176.509   8
  -8  -2  -7 573.877 301.989   3
   8   2   8 1286.12 452.509   7
   8   2   8 1239.89 358.883   8
  -8  -2  -8 590.396 287.824   3
   8   2   9 212.623 246.373   7
   8   2   9 563.775 235.444   8
  -8  -2  -9 497.228 286.963   3
  -8  -2 -10 946.306 377.351   3
  -8  -2 -11 298.211 266.727   3
  -8  -2 -12 308.481 236.883   3
  -8  -3   2 28.8309 117.107   2
  -8  -3   1 917.287 365.712   2
  -8  -3   0 1605.67 467.494   2
   8   3   0 2068.57 475.157   7
   8   3   1 908.378 342.908   7
   8   3   2 1030.37 370.754   7
   8   3   3 92.2805 213.710   7
   8   3   4 1588.91 480.635   7
   8   3   5 677.577 344.467   7
   8   3   6 1942.47 516.730   7
  -8  -3  -6 1781.08 493.094   3
   8   3   7 397.348 256.873   7
  -8  -3  -7 448.740 199.304   3
   8   3   8 1932.80 550.879   7
  -8  -3  -8 1941.34 525.889   3
   8   3   9 671.078 366.683   7
  -8  -3  -9 260.604 214.701   3
  -8  -3 -10 761.894 349.375   3
  -8  -3 -11-136.204 129.613   3
  -8  -4   2 355.811 290.026   2
  -8  -4   1 104.762 138.146   2
  -8  -4   0 937.254 377.131   2
   8   4   0 683.003 286.233   7
   8   4   1 664.370 305.036   7
   8   4   2 1923.35 526.106   7
   8   4   3 1314.89 441.107   7
   8   4   4 1350.46 446.850   7
   8   4   5 94.2251 154.777   7
   8   4   6 1363.12 468.338   7
  -8  -4  -6 1408.81 451.553   3
   8   4   7 484.654 327.313   7
  -8  -4  -7 268.650 212.690   3
   8   4   8 815.320 367.859   7
  -8  -4  -8 1262.29 449.347   3
   8   4   9 508.913 304.007   7
  -8  -4  -9 1130.95 441.294   3
  -8  -4 -10 642.495 308.868   3
  -8  -5   2 230.357 214.019   1
  -8  -5   1 305.200 192.319   2
  -8  -5   1 545.502 268.980   1
  -8  -5   0 350.574 251.952   2
   8   5   0 124.160 178.224   7
  -8  -5  -1 424.521 258.578   2
  -8  -5  -1 420.470 267.754   1
   8   5   1 386.245 316.300   7
   8   5   2 1513.53 481.272   7
   8   5   3 155.414 188.561   7
   8   5   4 1740.11 504.002   7
   8   5   5 340.462 250.128   7
   8   5   6 1213.52 477.066   7
  -8  -5  -6 2013.12 568.652   3
   8   5   7 494.594 365.486   7
  -8  -5  -7 639.594 334.318   3
   8   5   8 1117.00 463.613   7
  -8  -5  -8 619.440 370.739   3
  -8  -5  -9 660.493 347.803   3
  -8  -6   1 106.753 175.584   2
  -8  -6   0 230.475 156.045   2
  -8  -6  -1 438.074 321.689   1
  -8  -6  -1 188.955 132.865   2
  -8  -6  -2 462.620 296.115   1
   8   6   2 263.151 243.055   7
  -8  -6  -3 631.913 364.117   1
   8   6   3 767.456 367.742   7
  -8  -6  -4 607.551 318.446   1
   8   6   4 745.331 380.121   7
   8   6   5 477.012 281.782   7
   8   6   6 1636.92 558.407   7
  -8  -6  -6 1812.87 583.918   3
   8   6   7 538.954 216.888   7
  -8  -6  -7 552.242 347.630   3
  -8  -7   0 911.501 354.085   2
   8   7   1 375.868 237.913   7
   8   7   2 262.203 256.551   7
   8   7   3 444.202 346.271   7
   8   7   4 1099.64 461.709   7
   8   7   5 412.110 343.600   7
   8   7   6 605.180 392.302   7
   8   8   2 1029.30 422.076   7
   8   8   3 633.910 355.379   7
   9  -3  -1 398.387 305.352   8
   9  -3   0 454.695 274.481   8
   9  -3   1 481.718 323.771   8
   9  -3   2 82.7904 196.234   8
   9  -3   3 614.007 324.097   8
   9  -3   4 22.8292 193.770   8
   9  -2  -2 347.443 248.390   8
   9  -2  -1 320.052 255.878   8
   9  -2   0 613.608 318.032   8
   9  -2   1 1084.23 404.021   8
   9  -2   2 373.975 277.402   8
   9  -2   3 613.918 322.230   8
   9  -2   4 624.429 327.641   8
   9  -2   5-128.176 203.255   8
   9  -2   6 503.534 288.546   8
   9  -2   7 679.186 367.098   8
  -9   1   3 215.687 102.950   6
  -9   1   2 819.992 366.284   6
   9  -1  -2 485.948 315.620   8
  -9   1   1 835.866 365.926   6
   9  -1  -1 700.322 351.934   8
  -9   1   0 116.754 124.058   6
   9  -1   0-30.9650 145.880   8
  -9   1  -1 696.107 337.696   6
   9  -1   1 332.345 221.259   8
  -9   1  -2 486.536 270.614   6
   9  -1   2 481.999 220.676   8
   9  -1   3 1201.51 394.943   8
   9  -1   4 176.661 195.848   8
   9  -1   5 249.552 206.199   8
   9  -1   6 99.6664 152.060   8
   9  -1   7-29.2037 132.747   8
   9  -1   8 178.233 162.733   8
  -9   0   3 526.367 279.981   6
  -9   0   2 184.273 132.295   6
  -9   0   1 489.511 323.178   6
  -9   0   0 381.828 228.398   6
  -9   0  -1 1432.35 449.828   6
   9   0   2-135.196 147.487   7
  -9   0  -2 517.887 249.100   6
   9   0   3 915.695 285.664   7
  -9   0  -3 1392.96 440.526   6
   9   0   3 802.012 299.608   8
  -9   0  -4 542.008 293.070   6
   9   0   4-184.130 138.343   8
   9   0   5 609.689 305.540   8
   9   0   6 320.345 157.849   8
   9   0   7 162.520 178.935   8
  -9  -1   2 166.000 183.932   6
  -9  -1   1 1302.59 428.892   6
  -9  -1   0 393.740 271.711   6
  -9  -1  -1 1266.06 426.953   6
   9   1   2 90.3115 139.936   7
  -9  -1  -2 556.997 268.612   6
   9   1   3 1173.74 465.026   7
  -9  -1  -3 1659.06 477.510   6
   9   1   4 228.125 199.701   7
   9   1   5 797.056 340.755   7
   9   1   6 19.1899 136.219   7
   9   1   7 415.474 287.056   7
  -9  -1  -9 304.907 245.104   3
   9   2   2 770.591 378.972   7
   9   2   3 546.077 289.771   7
   9   2   4 307.955 241.395   7
   9   2   5 1139.55 499.116   7
   9   2   6 64.4625 183.233   7
   9   2   7 760.696 343.268   7
  -9  -2  -8 166.855 185.551   3
  -9  -2  -9 658.757 330.586   3
   9   3   2 155.349 129.206   7
   9   3   3 1644.87 528.400   7
   9   3   4-25.7515 174.144   7
   9   3   5 1203.08 417.811   7
   9   3   6 272.049 299.827   7
   9   3   7 344.070 261.329   7
  -9  -3  -8 7.07573 180.787   3
   9   4   2 380.333 270.988   7
   9   4   3 1309.54 487.898   7
   9   4   4 278.444 231.840   7
   9   4   5 1907.38 606.986   7
   9   4   6 280.171 285.821   7
   9   5   2 1101.18 425.111   7
   9   5   3 842.826 368.891   7
   9   5   4 454.162 351.609   7
   9   5   5 408.980 305.560   7
   9   6   3 9.36121 193.038   7
   9   6   4 407.436 308.612   7
   0   0   0    0.00    0.00   0

TITL exp_1339 in P-1
REM P-1 (#2 in standard setting)
CELL 0.71073   7.203374   9.195834  11.712321  77.1696  77.2613  83.9590
ZERR    2.00   0.000444   0.000602   0.000775   0.0056   0.0054   0.0053
LATT  1
SFAC C H F Fe
UNIT 32.00 20.00 12.00 2.00
TREF
HKLF 4
END
;
_shelx_hkl_checksum              53014
_olex2_date_sample_data_collection 2018-12-13
_olex2_exptl_crystal_mounting_method 'Inside 1.0 mm X-ray capillary'
_olex2_submission_special_instructions 'No special instructions were received'
_oxdiff_exptl_absorpt_empirical_details
;
Empirical correction (ABSPACK) includes:
- Absorption correction using spherical harmonics
- Frame scaling
;
_oxdiff_exptl_absorpt_empirical_full_max 1.882
_oxdiff_exptl_absorpt_empirical_full_min 0.721
loop_
_space_group_symop_operation_xyz
'x, y, z'
'-x, -y, -z'
loop_
_atom_site_label
_atom_site_type_symbol
_atom_site_fract_x
_atom_site_fract_y
_atom_site_fract_z
_atom_site_U_iso_or_equiv
_atom_site_adp_type
_atom_site_occupancy
_atom_site_site_symmetry_order
_atom_site_calc_flag
Fe1 Fe 0.24127(4) 0.49664(3) 0.25177(3) 0.0490(2) Uani 1 1 d
C7 C 0.3121(6) 0.6774(5) 0.1218(4) 0.0996(15) Uani 1 1 d
H7 H 0.419(4) 0.708(3) 0.104(3) 0.083(10) Uiso 1 1 d
C8 C 0.2370(6) 0.5734(4) 0.0760(3) 0.0823(10) Uani 1 1 d
H8 H 0.305(4) 0.525(4) 0.024(3) 0.092(11) Uiso 1 1 d
C9 C 0.0560(5) 0.5521(4) 0.1391(3) 0.0753(9) Uani 1 1 d
H9 H -0.028(4) 0.483(4) 0.132(3) 0.096(10) Uiso 1 1 d
C10 C 0.0143(5) 0.6398(4) 0.2246(3) 0.0764(9) Uani 1 1 d
H10 H -0.116(5) 0.648(4) 0.288(3) 0.133(13) Uiso 1 1 d
C11 C 0.1711(7) 0.7179(4) 0.2143(4) 0.0876(11) Uani 1 1 d
H11 H 0.179(5) 0.776(4) 0.265(3) 0.097(11) Uiso 1 1 d
C12 C 0.4729(5) 0.4076(5) 0.3182(4) 0.0934(13) Uani 1 1 d
H12 H 0.580(5) 0.445(4) 0.296(3) 0.091(11) Uiso 1 1 d
C13 C 0.4044(5) 0.3034(4) 0.2687(3) 0.0832(10) Uani 1 1 d
H13 H 0.467(4) 0.260(3) 0.208(3) 0.086(10) Uiso 1 1 d
C14 C 0.2208(5) 0.2773(3) 0.3299(3) 0.0709(8) Uani 1 1 d
H14 H 0.135(5) 0.217(4) 0.312(3) 0.107(12) Uiso 1 1 d
C15 C 0.1735(5) 0.3632(3) 0.4170(3) 0.0693(8) Uani 1 1 d
H15 H 0.051(5) 0.370(4) 0.472(3) 0.113(12) Uiso 1 1 d
C16 C 0.3267(5) 0.4436(4) 0.4106(3) 0.0755(9) Uani 1 1 d
H16 H 0.332(4) 0.509(3) 0.446(3) 0.082(10) Uiso 1 1 d
F1 F 0.3690(3) 0.9973(3) -0.1135(2) 0.1038(7) Uani 1 1 d
F2 F 0.1309(3) 0.8148(2) -0.15378(17) 0.0935(6) Uani 1 1 d
F3 F -0.2372(3) 0.8168(3) -0.0400(2) 0.1080(7) Uani 1 1 d
C1 C 0.1859(4) 0.9988(3) -0.0577(3) 0.0660(8) Uani 1 1 d
C2 C 0.0659(4) 0.9068(3) -0.0783(2) 0.0628(7) Uani 1 1 d
C3 C -0.1190(4) 0.9081(3) -0.0207(3) 0.0664(7) Uani 1 1 d
F4 F 0.7923(3) 0.1551(3) 0.5089(3) 0.1223(8) Uani 1 1 d
F5 F 0.4437(4) 0.2014(2) 0.64225(19) 0.1084(7) Uani 1 1 d
F6 F 0.1512(3) 0.0473(3) 0.63275(19) 0.1082(7) Uani 1 1 d
C4 C 0.6470(4) 0.0778(3) 0.5044(3) 0.0693(8) Uani 1 1 d
C5 C 0.4722(5) 0.1016(3) 0.5722(3) 0.0653(7) Uani 1 1 d
C6 C 0.3250(4) 0.0237(3) 0.5677(3) 0.0671(8) Uani 1 1 d
loop_
_atom_site_aniso_label
_atom_site_aniso_U_11
_atom_site_aniso_U_22
_atom_site_aniso_U_33
_atom_site_aniso_U_23
_atom_site_aniso_U_13
_atom_site_aniso_U_12
Fe1 0.0547(3) 0.0442(3) 0.0472(3) -0.00482(17) -0.01557(17) 0.00194(17)
C7 0.073(2) 0.087(3) 0.116(3) 0.047(3) -0.030(2) -0.022(2)
C8 0.101(3) 0.083(2) 0.0507(18) -0.0026(17) -0.0154(18) 0.025(2)
C9 0.090(2) 0.0679(19) 0.077(2) -0.0085(16) -0.0441(19) -0.0001(17)
C10 0.079(2) 0.076(2) 0.069(2) -0.0082(17) -0.0249(16) 0.0259(17)
C11 0.137(4) 0.0437(17) 0.093(3) -0.0086(17) -0.060(3) 0.0103(19)
C12 0.0594(19) 0.096(3) 0.112(3) 0.028(2) -0.038(2) -0.0066(19)
C13 0.091(2) 0.070(2) 0.073(2) -0.0055(17) -0.0132(19) 0.0334(19)
C14 0.095(2) 0.0442(15) 0.074(2) -0.0031(14) -0.0288(17) -0.0004(15)
C15 0.081(2) 0.0642(18) 0.0548(17) 0.0018(14) -0.0132(15) 0.0020(15)
C16 0.105(3) 0.0616(19) 0.071(2) -0.0088(16) -0.049(2) 0.0009(18)
F1 0.0690(11) 0.1161(16) 0.1086(15) -0.0129(12) 0.0071(10) -0.0013(10)
F2 0.1261(15) 0.0767(12) 0.0761(12) -0.0297(10) -0.0145(11) 0.0180(11)
F3 0.1083(15) 0.0995(15) 0.1300(18) -0.0304(13) -0.0355(13) -0.0296(12)
C1 0.0623(16) 0.0621(18) 0.0616(17) 0.0023(14) -0.0072(13) 0.0069(14)
C2 0.0839(19) 0.0478(15) 0.0529(16) -0.0059(12) -0.0163(14) 0.0091(14)
C3 0.0728(18) 0.0544(16) 0.0715(19) -0.0016(14) -0.0234(15) -0.0073(14)
F4 0.1006(15) 0.1177(18) 0.161(2) -0.0179(15) -0.0455(14) -0.0436(13)
F5 0.163(2) 0.0817(13) 0.0920(14) -0.0393(11) -0.0397(13) 0.0161(13)
F6 0.0780(12) 0.1214(17) 0.0962(14) 0.0000(12) 0.0096(10) 0.0177(11)
C4 0.0709(18) 0.0586(17) 0.079(2) 0.0032(15) -0.0294(16) -0.0123(14)
C5 0.091(2) 0.0473(15) 0.0594(17) -0.0102(13) -0.0258(15) 0.0071(14)
C6 0.0603(16) 0.0648(18) 0.0612(18) 0.0056(14) -0.0061(13) 0.0105(14)
loop_
_atom_type_symbol
_atom_type_description
_atom_type_scat_dispersion_real
_atom_type_scat_dispersion_imag
_atom_type_scat_source
C C 0.0033 0.0016 'International Tables Vol C Tables 4.2.6.8 and 6.1.1.4'
H H 0.0000 0.0000 'International Tables Vol C Tables 4.2.6.8 and 6.1.1.4'
F F 0.0171 0.0103 'International Tables Vol C Tables 4.2.6.8 and 6.1.1.4'
Fe Fe 0.3463 0.8444 'International Tables Vol C Tables 4.2.6.8 and 6.1.1.4'
loop_
_exptl_crystal_face_index_h
_exptl_crystal_face_index_k
_exptl_crystal_face_index_l
_exptl_crystal_face_perp_dist
0 2 16 0.1688
-2 -11 3 0.3527
-2 10 11 0.1016
1 -7 -14 0.1000
0 11 -6 0.1527
-1 7 14 0.1000
-7 7 -8 0.1653
8 -2 10 0.2091
2 -8 10 0.2361
-6 2 -14 0.1401
1 6 -12 0.1415
0 -5 13 0.2332
-5 10 1 0.1680
8 0 12 0.2066
1 -9 -13 0.1120
3 -12 -3 0.2141
3 -11 5 0.2285
6 -9 6 0.2201
-8 5 -7 0.1646
7 6 -6 0.2193
2 13 4 0.1666
loop_
_geom_angle_atom_site_label_1
_geom_angle_atom_site_label_2
_geom_angle_atom_site_label_3
_geom_angle
_geom_angle_site_symmetry_3
C7 Fe1 C8 40.52(17) .
C7 Fe1 C9 66.79(15) .
C7 Fe1 C10 67.26(15) .
C7 Fe1 C11 40.61(17) .
C7 Fe1 C12 109.53(15) .
C7 Fe1 C13 123.48(18) .
C7 Fe1 C14 157.9(2) .
C7 Fe1 C15 161.02(19) .
C7 Fe1 C16 125.87(18) .
C8 Fe1 C9 39.15(14) .
C8 Fe1 C15 156.77(17) .
C8 Fe1 C16 162.40(17) .
C9 Fe1 C15 122.69(14) .
C10 Fe1 C8 67.03(14) .
C10 Fe1 C9 39.96(14) .
C10 Fe1 C14 123.89(15) .
C10 Fe1 C15 108.42(14) .
C10 Fe1 C16 122.51(15) .
C11 Fe1 C8 67.82(16) .
C11 Fe1 C9 66.87(14) .
C11 Fe1 C10 39.63(15) .
C11 Fe1 C13 159.63(18) .
C11 Fe1 C14 159.52(18) .
C11 Fe1 C15 124.28(17) .
C11 Fe1 C16 109.12(15) .
C12 Fe1 C8 125.46(17) .
C12 Fe1 C9 160.43(18) .
C12 Fe1 C10 158.42(19) .
C12 Fe1 C11 123.88(18) .
C12 Fe1 C13 40.71(16) .
C12 Fe1 C14 67.36(15) .
C12 Fe1 C15 67.22(14) .
C12 Fe1 C16 40.64(16) .
C13 Fe1 C8 108.44(16) .
C13 Fe1 C9 123.77(17) .
C13 Fe1 C10 159.22(17) .
C13 Fe1 C14 39.73(14) .
C13 Fe1 C15 67.23(14) .
C13 Fe1 C16 68.01(16) .
C14 Fe1 C8 122.03(16) .
C14 Fe1 C9 108.35(14) .
C14 Fe1 C15 39.97(13) .
C14 Fe1 C16 67.06(14) .
C16 Fe1 C9 157.25(17) .
C16 Fe1 C15 39.44(13) .
Fe1 C7 H7 122(2) .
C8 C7 Fe1 70.31(19) .
C8 C7 H7 130(2) .
C11 C7 Fe1 69.9(2) .
C11 C7 H7 123(2) .
C11 C7 C8 107.5(3) .
Fe1 C8 H8 119(2) .
C7 C8 Fe1 69.2(2) .
C7 C8 H8 123(2) .
C9 C8 Fe1 70.47(19) .
C9 C8 C7 107.5(3) .
C9 C8 H8 129(2) .
Fe1 C9 H9 122.6(19) .
C8 C9 Fe1 70.38(19) .
C8 C9 H9 127(2) .
C8 C9 C10 109.2(3) .
C10 C9 Fe1 69.84(18) .
C10 C9 H9 124(2) .
Fe1 C10 H10 126(2) .
C9 C10 Fe1 70.21(18) .
C9 C10 H10 127(2) .
C11 C10 Fe1 69.92(19) .
C11 C10 C9 108.0(3) .
C11 C10 H10 125(2) .
Fe1 C11 H11 121(2) .
C7 C11 Fe1 69.5(2) .
C7 C11 H11 129(2) .
C10 C11 Fe1 70.45(19) .
C10 C11 C7 107.7(3) .
C10 C11 H11 123(2) .
Fe1 C12 H12 123(2) .
C13 C12 Fe1 69.86(19) .
C13 C12 H12 127(2) .
C13 C12 C16 107.5(3) .
C16 C12 Fe1 70.22(19) .
C16 C12 H12 125(2) .
Fe1 C13 H13 125.8(19) .
C12 C13 Fe1 69.4(2) .
C12 C13 H13 127.3(19) .
C14 C13 Fe1 70.40(18) .
C14 C13 C12 107.5(3) .
C14 C13 H13 125(2) .
Fe1 C14 H14 122(2) .
C13 C14 Fe1 69.87(19) .
C13 C14 H14 126(2) .
C13 C14 C15 108.6(3) .
C15 C14 Fe1 70.33(17) .
C15 C14 H14 125(2) .
Fe1 C15 H15 124(2) .
C14 C15 Fe1 69.70(17) .
C14 C15 H15 127(2) .
C16 C15 Fe1 70.02(19) .
C16 C15 C14 108.6(3) .
C16 C15 H15 124(2) .
Fe1 C16 H16 120(2) .
C12 C16 Fe1 69.1(2) .
C12 C16 H16 124(2) .
C15 C16 Fe1 70.54(18) .
C15 C16 C12 107.8(3) .
C15 C16 H16 128(2) .
F1 C1 C2 119.9(3) .
F1 C1 C3 120.1(3) 2_575
C2 C1 C3 120.0(3) 2_575
F2 C2 C1 120.2(3) .
F2 C2 C3 120.3(3) .
C3 C2 C1 119.5(3) .
F3 C3 C1 119.8(3) 2_575
F3 C3 C2 119.7(3) .
C2 C3 C1 120.5(3) 2_575
F4 C4 C5 119.4(3) .
F4 C4 C6 120.2(3) 2_656
C5 C4 C6 120.4(3) 2_656
F5 C5 C4 120.6(3) .
F5 C5 C6 119.9(3) .
C6 C5 C4 119.5(3) .
F6 C6 C4 119.6(3) 2_656
F6 C6 C5 120.2(3) .
C5 C6 C4 120.1(3) 2_656
loop_
_geom_bond_atom_site_label_1
_geom_bond_atom_site_label_2
_geom_bond_distance
_geom_bond_site_symmetry_2
Fe1 C7 2.014(3) .
Fe1 C8 2.028(3) .
Fe1 C9 2.029(3) .
Fe1 C10 2.025(3) .
Fe1 C11 2.018(3) .
Fe1 C12 2.015(3) .
Fe1 C13 2.021(3) .
Fe1 C14 2.028(3) .
Fe1 C15 2.036(3) .
Fe1 C16 2.029(3) .
C7 H7 0.82(3) .
C7 C8 1.400(6) .
C7 C11 1.399(6) .
C8 H8 0.86(3) .
C8 C9 1.360(5) .
C9 H9 0.95(3) .
C9 C10 1.385(5) .
C10 H10 1.07(4) .
C10 C11 1.370(5) .
C11 H11 0.90(3) .
C12 H12 0.84(3) .
C12 C13 1.404(6) .
C12 C16 1.405(5) .
C13 H13 0.90(3) .
C13 C14 1.376(5) .
C14 H14 0.96(3) .
C14 C15 1.389(4) .
C15 H15 0.98(3) .
C15 C16 1.372(5) .
C16 H16 0.81(3) .
F1 C1 1.337(3) .
F2 C2 1.335(3) .
F3 C3 1.342(3) .
C1 C2 1.363(4) .
C1 C3 1.370(4) 2_575
C2 C3 1.354(4) .
C3 C1 1.370(4) 2_575
F4 C4 1.342(3) .
F5 C5 1.334(3) .
F6 C6 1.338(3) .
C4 C5 1.357(4) .
C4 C6 1.363(4) 2_656
C5 C6 1.357(4) .
C6 C4 1.363(4) 2_656
loop_
_geom_torsion_atom_site_label_1
_geom_torsion_atom_site_label_2
_geom_torsion_atom_site_label_3
_geom_torsion_atom_site_label_4
_geom_torsion
_geom_torsion_site_symmetry_1
_geom_torsion_site_symmetry_4
Fe1 C7 C8 C9 60.3(2) . .
Fe1 C7 C11 C10 -60.4(2) . .
Fe1 C8 C9 C10 59.2(2) . .
Fe1 C9 C10 C11 59.9(2) . .
Fe1 C10 C11 C7 59.8(2) . .
Fe1 C12 C13 C14 -60.4(2) . .
Fe1 C12 C16 C15 60.2(2) . .
Fe1 C13 C14 C15 -59.9(2) . .
Fe1 C14 C15 C16 -59.4(2) . .
Fe1 C15 C16 C12 -59.4(2) . .
C7 C8 C9 Fe1 -59.5(2) . .
C7 C8 C9 C10 -0.3(4) . .
C8 C7 C11 Fe1 60.5(2) . .
C8 C7 C11 C10 0.1(4) . .
C8 C9 C10 Fe1 -59.5(2) . .
C8 C9 C10 C11 0.4(4) . .
C9 C10 C11 Fe1 -60.1(2) . .
C9 C10 C11 C7 -0.3(4) . .
C11 C7 C8 Fe1 -60.2(2) . .
C11 C7 C8 C9 0.1(4) . .
C12 C13 C14 Fe1 59.8(2) . .
C12 C13 C14 C15 -0.1(4) . .
C13 C12 C16 Fe1 -60.2(2) . .
C13 C12 C16 C15 0.1(4) . .
C13 C14 C15 Fe1 59.6(2) . .
C13 C14 C15 C16 0.1(4) . .
C14 C15 C16 Fe1 59.2(2) . .
C14 C15 C16 C12 -0.1(4) . .
C16 C12 C13 Fe1 60.4(2) . .
C16 C12 C13 C14 0.0(4) . .
F1 C1 C2 F2 0.2(4) . .
F1 C1 C2 C3 179.5(2) . .
F2 C2 C3 F3 -0.2(4) . .
F2 C2 C3 C1 179.3(3) . 2_575
C1 C2 C3 F3 -179.4(3) . .
C1 C2 C3 C1 0.1(5) . 2_575
C3 C1 C2 F2 -179.3(3) 2_575 .
C3 C1 C2 C3 -0.1(5) 2_575 .
F4 C4 C5 F5 0.5(4) . .
F4 C4 C5 C6 180.0(3) . .
F5 C5 C6 F6 0.4(4) . .
F5 C5 C6 C4 179.6(3) . 2_656
C4 C5 C6 F6 -179.1(2) . .
C4 C5 C6 C4 0.1(5) . 2_656
C6 C4 C5 F5 -179.6(3) 2_656 .
C6 C4 C5 C6 -0.1(5) 2_656 .
loop_
_exptl_oxdiff_crystal_face_indexfrac_h
_exptl_oxdiff_crystal_face_indexfrac_k
_exptl_oxdiff_crystal_face_indexfrac_l
_exptl_oxdiff_crystal_face_x
_exptl_oxdiff_crystal_face_y
_exptl_oxdiff_crystal_face_z
-0.1979 2.2771 16.0263 0.2326 0.9726 0.0006
-2.2971 -11.4184 3.4910 0.9057 0.0887 0.4145
-1.5342 9.9481 11.4678 -0.4931 0.8699 -0.0090
1.0033 -7.2115 -14.3823 0.2002 -0.9797 0.0091
0.3548 10.7780 -5.8459 -0.9583 -0.1780 -0.2234
-1.0033 7.2115 14.3823 -0.2002 0.9797 -0.0091
-6.5931 6.7288 -7.9688 -0.8524 -0.1597 0.4979
8.4645 -2.3351 9.7511 0.6045 0.2777 -0.7466
1.7816 -8.0441 10.2761 0.9094 0.4154 -0.0188
-5.5794 2.1789 -13.9261 -0.6385 -0.6081 0.4717
1.3898 5.5243 -12.3211 -0.7039 -0.6684 -0.2404
0.3045 -4.9574 13.3524 0.7230 0.6871 0.0723
-5.4454 10.1493 0.5990 -0.8685 0.3582 0.3427
8.0216 -0.1016 12.1334 0.4868 0.4647 -0.7396
0.5028 -9.2940 -13.0281 0.3820 -0.9195 0.0933
3.2275 -11.7741 -2.7467 0.8899 -0.4430 -0.1087
2.9171 -10.6842 4.8868 0.9958 0.0268 -0.0881
5.6081 -8.7593 5.6927 0.9273 0.0244 -0.3735
-8.3167 4.8685 -6.7666 -0.7171 -0.0684 0.6936
6.7143 6.1808 -6.1515 -0.4837 -0.4578 -0.7460
2.0972 12.8913 3.5380 -0.8420 0.3487 -0.4116
