#------------------------------------------------------------------------------
#$Date: 2019-11-26 09:59:12 +0200 (Tue, 26 Nov 2019) $
#$Revision: 243189 $
#$URL: file:///home/coder/svn-repositories/cod/cif/4/13/33/4133386.cif $
#------------------------------------------------------------------------------
#
# This file is available in the Crystallography Open Database (COD),
# http://www.crystallography.net/
#
# All data on this site have been placed in the public domain by the
# contributors.
#
data_4133386
loop_
_publ_author_name
'Ren, Yansong'
'Xie, Sheng'
'Svensson Grape, Erik'
'Inge, A. Ken'
'Ramstr\"om, Olof'
_publ_section_title
;
 Multistimuli-Responsive Enaminitrile Molecular Switches Displaying
 H<sup>+</sup>-Induced Aggregate Emission, Metal Ion-Induced Turn-On
 Fluorescence, and Organogelation Properties.
;
_journal_issue                   42
_journal_name_full               'Journal of the American Chemical Society'
_journal_page_first              13640
_journal_page_last               13643
_journal_paper_doi               10.1021/jacs.8b09843
_journal_volume                  140
_journal_year                    2018
_chemical_formula_sum            'C15 H13 N3'
_chemical_formula_weight         235.28
_space_group_crystal_system      triclinic
_space_group_IT_number           2
_space_group_name_Hall           '-P 1'
_space_group_name_H-M_alt        'P -1'
_atom_sites_solution_hydrogens   mixed
_audit_creation_method           SHELXL-2018/1
_audit_update_record
;
2018-09-05 deposited with the CCDC.
2018-09-07 downloaded from the CCDC.
;
_cell_angle_alpha                79.1900(10)
_cell_angle_beta                 86.8260(10)
_cell_angle_gamma                86.3650(10)
_cell_formula_units_Z            2
_cell_length_a                   5.5819(2)
_cell_length_b                   9.2612(3)
_cell_length_c                   12.4359(5)
_cell_measurement_reflns_used    7439
_cell_measurement_temperature    295(2)
_cell_measurement_theta_max      28.38
_cell_measurement_theta_min      2.24
_cell_volume                     629.58(4)
_computing_structure_refinement  'SHELXL-2018/1 (Sheldrick, 2018)'
_computing_structure_solution    'SHELXT 2014/5 (Sheldrick, 2014)'
_diffrn_ambient_temperature      295(2)
_diffrn_measured_fraction_theta_full 1.000
_diffrn_measured_fraction_theta_max 0.999
_diffrn_measurement_device_type  'Bruker D8 Venture'
_diffrn_radiation_type           MoK\a
_diffrn_radiation_wavelength     0.71073
_diffrn_reflns_av_R_equivalents  0.0430
_diffrn_reflns_av_unetI/netI     0.0315
_diffrn_reflns_Laue_measured_fraction_full 1.000
_diffrn_reflns_Laue_measured_fraction_max 0.999
_diffrn_reflns_limit_h_max       7
_diffrn_reflns_limit_h_min       -7
_diffrn_reflns_limit_k_max       13
_diffrn_reflns_limit_k_min       -13
_diffrn_reflns_limit_l_max       17
_diffrn_reflns_limit_l_min       -17
_diffrn_reflns_number            25727
_diffrn_reflns_point_group_measured_fraction_full 1.000
_diffrn_reflns_point_group_measured_fraction_max 0.999
_diffrn_reflns_theta_full        25.242
_diffrn_reflns_theta_max         30.508
_diffrn_reflns_theta_min         2.242
_exptl_absorpt_coefficient_mu    0.076
_exptl_absorpt_correction_T_max  0.7461
_exptl_absorpt_correction_T_min  0.6972
_exptl_absorpt_correction_type   multi-scan
_exptl_absorpt_process_details
'Sheldrick, G. M. (1996). SADABS. University of G\~A?ttingen, Germany.'
_exptl_crystal_colour            colorless
_exptl_crystal_density_diffrn    1.241
_exptl_crystal_description       stubby
_exptl_crystal_F_000             248
_exptl_crystal_size_max          0.30
_exptl_crystal_size_mid          0.25
_exptl_crystal_size_min          0.08
_refine_diff_density_max         0.149
_refine_diff_density_min         -0.203
_refine_diff_density_rms         0.042
_refine_ls_extinction_method     none
_refine_ls_goodness_of_fit_ref   1.019
_refine_ls_hydrogen_treatment    mixed
_refine_ls_matrix_type           full
_refine_ls_number_parameters     166
_refine_ls_number_reflns         3823
_refine_ls_number_restraints     0
_refine_ls_restrained_S_all      1.019
_refine_ls_R_factor_all          0.1112
_refine_ls_R_factor_gt           0.0605
_refine_ls_shift/su_max          0.000
_refine_ls_shift/su_mean         0.000
_refine_ls_structure_factor_coef Fsqd
_refine_ls_weighting_details
'w=1/[\s^2^(Fo^2^)+(0.0581P)^2^+0.1370P] where P=(Fo^2^+2Fc^2^)/3'
_refine_ls_weighting_scheme      calc
_refine_ls_wR_factor_gt          0.1308
_refine_ls_wR_factor_ref         0.1533
_reflns_Friedel_coverage         0.000
_reflns_number_gt                2303
_reflns_number_total             3823
_reflns_threshold_expression     'I > 2\s(I)'
_cod_data_source_file            ja8b09843_si_002.cif
_cod_data_source_block           CN1
_cod_depositor_comments
;
The following automatic conversions were performed:

data item '_exptl_absorpt_correction_type' value 'Multi-scan' was
changed to 'multi-scan' in accordance with the
/home/saulius/struct/COD-crude-data/automatic-downloads/DataCite-retrospective/ACS/depositions/lib/dictionaries/cif_core.dic
dictionary named 'cif_core.dic' version 2.4.2 last updated on
2011-04-26.

Automatic conversion script
Id: cif_fix_values 6909 2019-04-08 15:41:33Z antanas 
;
_cod_database_code               4133386
_shelx_shelxl_version_number     2018/1
_shelx_space_group_comment
;
The symmetry employed for this shelxl refinement is uniquely defined
by the following loop, which should always be used as a source of
symmetry information in preference to the above space-group names.
They are only intended as comments.
;
_shelx_res_file
;
TITL mo_esg_Yansong_CN1_c1_0m_a.res in P-1
    CN1_#5.res
    created by SHELXL-2018/1 at 14:38:32 on 23-Mar-2018
CELL 0.71073 5.5819 9.2612 12.4359 79.19 86.826 86.365
ZERR 2 0.0002 0.0003 0.0005 0.001 0.001 0.001
LATT 1
SFAC C H N
UNIT 30 26 6

L.S. 50
PLAN  -10 0 0
TEMP 22.34
ACTA
FMAP 2
HTAB
BOND $H
CONF

WGHT    0.058100    0.137000
FVAR       1.28246
N3    3    0.112227    0.372224    0.309060    11.00000    0.06348    0.04757 =
         0.05281   -0.00777   -0.00582    0.01303
H5    2    0.135957    0.303164    0.266829    11.00000   -1.20000
N1    3    0.394696    0.133943    0.266843    11.00000    0.06044    0.04614 =
         0.05799   -0.01369   -0.01519    0.00953
N2    3    0.703269    0.291577    0.572870    11.00000    0.11241    0.07611 =
         0.07060   -0.01709   -0.03667    0.00020
C2    1    0.665754   -0.061590    0.227929    11.00000    0.07656    0.04910 =
         0.07536   -0.01568   -0.00278    0.01200
AFIX  43
H2    2    0.708042   -0.131633    0.184573    11.00000   -1.20000
AFIX   0
C3    1    0.801277   -0.048302    0.313311    11.00000    0.05916    0.05031 =
         0.08779   -0.00303   -0.00754    0.01553
AFIX  43
H3    2    0.938847   -0.109124    0.328800    11.00000   -1.20000
AFIX   0
C4    1    0.732670    0.055617    0.376074    11.00000    0.05701    0.05306 =
         0.06493   -0.00161   -0.01747    0.00413
AFIX  43
H4    2    0.822936    0.065301    0.434727    11.00000   -1.20000
AFIX   0
C5    1    0.526666    0.146621    0.351320    11.00000    0.04985    0.03481 =
         0.04705    0.00123   -0.00519   -0.00287
C6    1    0.447039    0.260515    0.413950    11.00000    0.05764    0.04150 =
         0.04210   -0.00097   -0.00607   -0.00362
C8    1    0.257588    0.361425    0.390397    11.00000    0.06517    0.04115 =
         0.04243   -0.00446    0.00455   -0.00188
AFIX  43
H8    2    0.228877    0.429258    0.436717    11.00000   -1.20000
AFIX   0
C9    1   -0.080425    0.486205    0.286750    11.00000    0.05439    0.06014 =
         0.06503    0.00034    0.00792    0.01409
AFIX  23
H9    2   -0.085000    0.547366    0.342259    11.00000   -1.20000
H10   2   -0.232748    0.439872    0.292011    11.00000   -1.20000
AFIX   0
C10   1   -0.051440    0.582002    0.175798    11.00000    0.03830    0.04179 =
         0.05187   -0.01100   -0.00079    0.01111
C15   1    0.139066    0.671806    0.150758    11.00000    0.04294    0.05498 =
         0.05393   -0.01387   -0.00909    0.00329
AFIX  43
H15   2    0.252428    0.672399    0.202711    11.00000   -1.20000
AFIX   0
C14   1    0.162502    0.760998    0.048820    11.00000    0.05305    0.05461 =
         0.06531   -0.00895    0.00330   -0.00454
AFIX  43
H14   2    0.292119    0.820895    0.032408    11.00000   -1.20000
AFIX   0
C13   1   -0.004440    0.761775   -0.028457    11.00000    0.06814    0.06198 =
         0.05129   -0.00432   -0.00240    0.01288
AFIX  43
H13   2    0.011871    0.822110   -0.096925    11.00000   -1.20000
AFIX   0
C1    1    0.466455    0.030894    0.208061    11.00000    0.07652    0.05349 =
         0.06695   -0.02106   -0.01742    0.01231
AFIX  43
H1    2    0.374586    0.021609    0.149827    11.00000   -1.20000
AFIX   0
C12   1   -0.194019    0.673754   -0.004337    11.00000    0.05893    0.07179 =
         0.05823   -0.01943   -0.02026    0.01576
AFIX  43
H12   2   -0.307691    0.674433   -0.056378    11.00000   -1.20000
AFIX   0
C11   1   -0.217937    0.583742    0.096868    11.00000    0.03986    0.05029 =
         0.07349   -0.01823   -0.00607    0.00326
AFIX  43
H11   2   -0.347251    0.523488    0.112380    11.00000   -1.20000
AFIX   0
C7    1    0.586209    0.277393    0.502922    11.00000    0.07889    0.04982 =
         0.05169   -0.00429   -0.01034   -0.00394
HKLF 4




REM  mo_esg_Yansong_CN1_c1_0m_a.res in P-1
REM R1 =  0.0605 for    2303 Fo > 4sig(Fo)  and  0.1112 for all    3823 data
REM    166 parameters refined using      0 restraints

END

WGHT      0.0581      0.1368

REM Instructions for potential hydrogen bonds
HTAB N3 N1
EQIV $1 -x+1, -y+1, -z+1
HTAB C8 N2_$1

REM Highest difference peak  0.149,  deepest hole -0.203,  1-sigma level  0.042
Q1    1   0.5679  0.3528  0.5818  11.00000  0.05    0.15
Q2    1   0.5356  0.3264  0.5594  11.00000  0.05    0.14
Q3    1   0.6686  0.1214  0.3528  11.00000  0.05    0.12
Q4    1   0.0067  0.5841  0.3575  11.00000  0.05    0.12
Q5    1   0.2593  0.1796  0.2435  11.00000  0.05    0.12
Q6    1   0.2095  0.7421  0.2567  11.00000  0.05    0.12
Q7    1   0.1059  0.2611  0.6979  11.00000  0.05    0.11
Q8    1   0.2235 -0.0373  0.1602  11.00000  0.05    0.11
Q9    1  -0.0984  0.5453  0.1339  11.00000  0.05    0.11
Q10   1   0.1505  0.7742  0.7184  11.00000  0.05    0.11
;
_shelx_res_checksum              71144
_shelx_hkl_file
;
  -1   0   0   20.30    0.90
  -1   0   0   20.40    1.10
  -1   0   0   19.50    1.00
  -1   0   0   19.10    0.90
  -1   0   0   20.60    0.90
   1   0   0   20.50    0.90
   1   0   0   19.80    1.10
   1   0   0   19.10    0.90
   1   0   0   21.10    0.70
   1   0   0   20.70    0.90
   1   0   0   19.30    1.00
  -2   0   0  115.89    4.00
  -2   0   0  122.19    3.90
  -2   0   0  122.19    3.70
   2   0   0  121.09    3.70
   2   0   0  119.89    3.80
   2   0   0  121.19    3.90
   2   0   0  120.09    4.20
   2   0   0  108.89    4.00
   2   0   0  119.89    3.20
  -3   0   0  173.78    5.70
  -3   0   0  173.08    5.70
  -3   0   0  162.58    6.00
  -3   0   0  175.38    5.40
   3   0   0  158.28    5.40
   3   0   0  178.08    6.00
   3   0   0  168.18    5.30
   3   0   0  169.68    5.60
   3   0   0  158.78    4.40
   3   0   0  167.08    6.20
   3   0   0  163.98    4.50
   3   0   0  162.68    5.30
  -4   0   0   12.80    2.30
  -4   0   0   15.80    2.50
  -4   0   0   18.60    2.40
  -4   0   0   12.70    2.10
   4   0   0   14.80    2.00
   4   0   0   16.60    2.20
   4   0   0   12.80    1.20
   4   0   0   15.50    1.30
   4   0   0   17.10    3.00
   4   0   0   18.20    2.50
   4   0   0   17.50    2.10
  -5   0   0    1.20    2.10
  -5   0   0    6.40    2.60
   5   0   0    3.30    0.90
   5   0   0    4.80    2.00
   5   0   0    5.30    2.60
   5   0   0    4.20    1.60
   5   0   0    4.70    1.80
  -6   0   0    5.00    3.50
  -6   0   0    2.50    3.00
   6   0   0    2.00    0.70
   6   0   0    1.70    0.70
   6   0   0    0.70    2.10
   6   0   0    2.20    2.60
   6   0   0    6.30    2.70
  -7   0   0    1.90    4.00
  -7   0   0    2.60    4.80
   7   0   0   -1.80    3.40
   7   0   0    1.60    2.90
   7   0   0   -1.20    3.50
   7  -1   0   -0.70    2.60
   7  -1   0    2.60    3.90
   7  -1   0    9.00    3.90
  -7   1   0    0.10    5.00
  -7   1   0   -0.20    4.30
   6  -1   0   53.89    5.10
   6  -1   0   55.09    3.80
   6  -1   0   53.29    4.60
   6  -1   0   48.40    5.90
  -6   1   0   55.29    5.10
  -6   1   0   50.49    6.20
  -6   1   0   46.10    5.50
   5  -1   0   33.10    4.00
   5  -1   0   33.60    3.60
   5  -1   0   36.70    2.70
   5  -1   0   35.20    3.40
  -5   1   0   33.50    3.70
  -5   1   0   32.10    4.30
  -5   1   0   37.00    3.30
   4  -1   0   10.90    1.50
   4  -1   0   11.50    1.90
   4  -1   0   11.80    2.90
   4  -1   0   10.60    1.80
   4  -1   0    9.20    1.40
   4  -1   0    9.70    2.00
  -4   1   0   11.60    2.00
  -4   1   0   11.90    2.30
  -4   1   0    9.20    2.20
  -4   1   0   10.60    2.00
   3  -1   0   31.50    1.90
   3  -1   0   32.30    1.90
   3  -1   0   32.50    2.10
   3  -1   0   32.00    0.90
   3  -1   0   30.00    2.30
   3  -1   0   35.80    2.30
   3  -1   0   35.40    2.90
  -3   1   0   35.30    2.30
  -3   1   0   34.80    2.20
  -3   1   0   34.50    2.30
  -3   1   0   35.10    2.70
  -3   1   0   31.90    2.40
   2  -1   0   20.30    1.10
   2  -1   0   20.90    1.30
   2  -1   0   20.70    1.80
   2  -1   0   24.00    1.70
   2  -1   0   20.60    1.30
  -2   1   0   22.50    1.50
  -2   1   0   21.20    1.40
  -2   1   0   20.60    1.30
  -2   1   0   23.40    1.70
  -2   1   0   21.60    1.40
   1  -1   0 2413.56   53.79
   1  -1   0 2442.46   54.19
   1  -1   0 2471.55   54.89
   1  -1   0 2270.17   54.29
   1  -1   0 2170.88   53.29
   1  -1   0 2486.05   54.89
  -1   1   0 2377.26   54.79
  -1   1   0 2472.55   54.69
  -1   1   0 2438.76   55.89
  -1   1   0 2335.67   53.59
  -1   1   0 2370.76   53.19
  -1   1   0 2535.15   54.99
  -1   1   0 2489.75   55.39
  -1   1   0 2405.76   54.09
   0  -1   0   49.20    1.80
   0  -1   0   47.80    1.70
   0   1   0   45.90    1.40
   0   1   0   44.70    1.70
   0   1   0   41.30    1.30
   0   1   0   45.80    1.30
  -1  -1   0 4567.34  103.19
  -1  -1   0 4656.33  103.79
  -1  -1   0 4587.24  102.09
  -1  -1   0 4252.57  102.59
  -1  -1   0 4440.46  102.29
   1   1   0 4491.05  100.59
   1   1   0 4556.94  103.39
   1   1   0 4677.93  103.09
   1   1   0 4554.14  102.39
   1   1   0 4515.55  103.09
  -2  -1   0   10.40    1.10
  -2  -1   0   10.80    1.40
   2   1   0    8.60    0.80
   2   1   0   10.50    1.40
   2   1   0   10.60    1.50
  -3  -1   0   -1.60    1.20
  -3  -1   0   -0.10    1.00
  -3  -1   0   -0.40    0.90
  -3  -1   0    0.60    0.90
   3   1   0   -1.50    0.80
   3   1   0    2.70    1.30
   3   1   0    0.70    0.80
   3   1   0    0.80    1.20
   3   1   0    0.00    0.70
  -4  -1   0    5.90    1.70
  -4  -1   0    8.20    1.90
  -4  -1   0   11.10    2.20
  -4  -1   0   14.90    2.60
   4   1   0   10.40    1.50
   4   1   0    7.90    1.60
   4   1   0    6.80    1.50
   4   1   0    8.70    1.80
   4   1   0    7.00    2.30
   4   1   0    9.30    2.50
  -5  -1   0   12.50    2.70
  -5  -1   0   13.30    3.20
   5   1   0   12.80    1.90
   5   1   0   18.70    2.70
   5   1   0   11.80    2.30
   5   1   0   11.30    3.30
   5   1   0   14.10    2.20
  -6  -1   0   -5.40    2.80
  -6  -1   0    5.00    3.30
   6   1   0    1.40    1.60
   6   1   0   -0.40    2.20
   6   1   0    1.20    2.30
   6   1   0   -2.40    2.30
   6   1   0    0.20    1.60
  -7  -1   0    7.10    4.80
  -7  -1   0   -2.60    4.20
   7   1   0   -0.40    3.50
   7   1   0    3.80    3.40
   7  -2   0   15.30    2.60
   7  -2   0   14.70    4.20
   7  -2   0   17.30    4.90
  -7   2   0   12.10    5.20
  -7   2   0   16.10    4.80
   6  -2   0   15.70    3.60
   6  -2   0   11.40    3.30
   6  -2   0   10.70    3.70
   6  -2   0   14.90    2.10
  -6   2   0    8.20    3.30
  -6   2   0   15.60    4.40
  -6   2   0   17.80    3.40
   5  -2   0  133.59    6.40
   5  -2   0  132.29    6.10
   5  -2   0  129.19    4.50
   5  -2   0  133.99    5.30
   5  -2   0  148.39    5.30
  -5   2   0  133.69    5.80
  -5   2   0  131.89    6.20
  -5   2   0  119.69    6.70
   4  -2   0    2.80    0.90
   4  -2   0    1.50    2.40
   4  -2   0    5.60    1.60
   4  -2   0    2.90    1.80
   4  -2   0    2.90    1.60
   4  -2   0    4.40    1.30
  -4   2   0    4.50    1.90
  -4   2   0    3.40    1.70
  -4   2   0    2.40    1.80
  -4   2   0    4.60    1.50
  -4   2   0    4.60    1.60
  -4   2   0    3.30    2.10
   3  -2   0  139.39    5.00
   3  -2   0  141.89    5.40
   3  -2   0  138.49    4.20
   3  -2   0  147.49    5.60
  -3   2   0  142.69    5.60
  -3   2   0  136.79    4.70
  -3   2   0  138.39    4.70
  -3   2   0  139.59    5.00
  -3   2   0  142.79    5.40
  -3   2   0  141.59    4.70
  -3   2   0  134.49    4.80
   2  -2   0 1126.19   25.10
   2  -2   0 1150.88   26.90
   2  -2   0 1128.39   26.20
   2  -2   0 1163.28   26.80
   2  -2   0 1089.99   25.00
   2  -2   0 1033.20   26.90
  -2   2   0 1140.99   25.50
  -2   2   0 1110.49   27.50
  -2   2   0 1163.68   26.20
  -2   2   0 1183.98   26.30
  -2   2   0 1104.69   24.80
  -2   2   0 1146.29   26.10
  -2   2   0 1111.99   25.80
   1  -2   0   43.20    2.10
   1  -2   0   36.00    2.00
   1  -2   0   38.90    1.80
   1  -2   0   39.50    1.70
  -1   2   0   41.90    1.80
  -1   2   0   43.30    2.10
  -1   2   0   41.50    1.80
  -1   2   0   42.10    1.70
  -1   2   0   40.60    2.00
  -1   2   0   41.80    1.10
  -1   2   0   41.80    1.00
  -1   2   0   39.90    1.70
   0  -2   0  209.18    5.50
   0  -2   0  208.98    5.50
   0  -2   0  203.68    5.20
   0  -2   0  212.48    5.10
   0  -2   0  209.68    5.20
   0  -2   0  207.98    5.60
   0   2   0  208.58    4.80
   0   2   0  208.48    4.80
   0   2   0  211.78    5.60
   0   2   0  208.98    5.50
   0   2   0  207.78    5.20
   0   2   0  208.98    5.00
   0   2   0  212.18    5.50
   0   2   0  205.28    5.20
  -1  -2   0  438.06   11.00
  -1  -2   0  460.45   11.00
  -1  -2   0  463.85   11.10
  -1  -2   0  467.25   10.90
  -1  -2   0  471.15   11.10
  -1  -2   0  452.75   11.20
   1   2   0  462.25   10.90
   1   2   0  484.15   11.30
   1   2   0  470.15   11.20
   1   2   0  479.75   11.20
   1   2   0  473.35   11.00
  -2  -2   0  282.67    7.90
  -2  -2   0  279.07    7.50
  -2  -2   0  278.17    7.60
   2   2   0  281.07    8.00
   2   2   0  275.97    7.50
   2   2   0  289.97    7.90
   2   2   0  272.07    6.70
   2   2   0  282.97    7.80
  -3  -2   0   19.30    2.10
  -3  -2   0   23.80    2.30
  -3  -2   0   25.10    2.40
  -3  -2   0   18.40    2.20
  -3  -2   0   19.50    1.90
   3   2   0   20.70    1.40
   3   2   0   20.90    2.10
   3   2   0   19.60    1.70
   3   2   0   21.50    2.30
   3   2   0   24.70    2.50
  -4  -2   0   18.60    2.80
  -4  -2   0   17.20    2.70
  -4  -2   0   14.10    2.30
  -4  -2   0   10.70    2.20
  -4  -2   0   16.10    2.70
   4   2   0   13.60    3.00
   4   2   0   17.00    2.50
   4   2   0   13.80    2.00
   4   2   0   20.70    3.20
   4   2   0   12.70    1.80
  -5  -2   0   25.20    3.90
   5   2   0   20.10    2.70
   5   2   0   21.70    3.10
   5   2   0   15.40    2.50
   5   2   0   18.50    3.00
   5   2   0   22.90    2.80
  -6  -2   0    2.80    3.20
  -6  -2   0    5.50    3.50
   6   2   0    8.60    2.80
   6   2   0    9.30    2.20
   6   2   0    6.20    2.90
   6   2   0    8.50    2.70
  -7  -2   0   12.70    4.90
  -7  -2   0    7.10    4.70
   7   2   0    5.60    3.40
   7   2   0    5.20    2.60
   7   2   0    4.80    3.70
   7  -3   0    8.40    4.20
  -7   3   0    3.80    4.50
  -7   3   0   12.30    5.50
   6  -3   0   24.00    3.90
   6  -3   0   23.50    4.20
   6  -3   0   23.00    2.00
  -6   3   0   30.60    4.30
   5  -3   0    0.60    2.50
   5  -3   0    0.60    1.10
   5  -3   0    1.50    2.10
   5  -3   0    1.20    1.90
   5  -3   0    1.40    0.90
  -5   3   0    1.30    2.30
  -5   3   0    3.50    2.70
   4  -3   0    0.50    1.60
   4  -3   0    0.20    1.80
   4  -3   0   -3.30    2.30
   4  -3   0    1.50    1.40
   4  -3   0    0.10    0.60
   4  -3   0    0.10    0.70
  -4   3   0    6.70    2.50
  -4   3   0    0.30    1.60
  -4   3   0    2.50    1.80
  -4   3   0    0.10    1.70
  -4   3   0    1.90    1.50
  -4   3   0    1.40    1.80
  -4   3   0    1.80    1.60
   3  -3   0   34.30    3.10
   3  -3   0   38.80    2.90
   3  -3   0   40.90    3.10
   3  -3   0   35.50    2.40
  -3   3   0   34.80    2.70
  -3   3   0   35.70    2.90
  -3   3   0   36.70    2.50
  -3   3   0   35.00    2.20
  -3   3   0   34.20    3.30
  -3   3   0   37.70    2.60
   2  -3   0  413.76   11.80
   2  -3   0  429.56   11.10
   2  -3   0  422.86   11.00
   2  -3   0  426.66   11.50
   2  -3   0  398.76   11.80
  -2   3   0  446.06   11.10
  -2   3   0  437.46   11.10
  -2   3   0  447.16   11.90
  -2   3   0  430.36   10.00
  -2   3   0  420.86    9.90
  -2   3   0  418.06   11.40
  -2   3   0  428.16   10.20
  -2   3   0  420.16   11.10
  -2   3   0  418.46   11.40
   1  -3   0 1909.71   43.90
   1  -3   0 1847.02   45.40
  -1   3   0 1949.10   44.70
  -1   3   0 1917.61   43.80
  -1   3   0 1915.41   43.90
  -1   3   0 2014.90   44.30
  -1   3   0 1990.20   44.00
  -1   3   0 2055.09   44.70
   0  -3   0 1229.58   31.20
   0  -3   0 1369.26   29.90
   0  -3   0 1313.57   29.70
   0  -3   0 1302.27   29.90
   0   3   0 1296.47   29.90
   0   3   0 1344.17   30.60
   0   3   0 1343.97   30.00
   0   3   0 1325.47   30.40
   0   3   0 1332.17   29.40
   0   3   0 1321.97   29.60
   0   3   0 1338.27   29.90
   0   3   0 1365.36   30.50
   0   3   0 1311.27   29.30
  -1  -3   0 1507.25   34.50
  -1  -3   0 1563.34   34.80
  -1  -3   0 1534.75   34.30
  -1  -3   0 1577.34   35.00
  -1  -3   0 1496.35   34.60
  -1  -3   0 1577.24   34.60
   1   3   0 1554.34   34.60
   1   3   0 1513.35   34.70
   1   3   0 1451.75   34.80
   1   3   0 1484.05   34.30
   1   3   0 1563.14   34.90
   1   3   0 1566.14   34.90
  -2  -3   0 1010.40   23.60
  -2  -3   0 1030.20   23.60
  -2  -3   0  875.41   24.00
  -2  -3   0 1014.00   23.20
  -2  -3   0 1017.00   23.80
   2   3   0 1001.30   23.80
   2   3   0 1061.19   24.00
   2   3   0 1010.90   23.80
   2   3   0  977.40   22.90
   2   3   0  987.10   23.50
  -3  -3   0  152.58    5.20
  -3  -3   0  154.28    5.60
  -3  -3   0  148.39    5.50
  -3  -3   0  144.59    5.30
  -3  -3   0  145.99    5.60
   3   3   0  148.39    5.80
   3   3   0  143.49    3.90
   3   3   0  143.29    5.20
   3   3   0  146.49    5.50
   3   3   0  144.09    5.70
  -4  -3   0    2.40    1.80
  -4  -3   0    3.80    2.40
  -4  -3   0   -0.20    1.80
  -4  -3   0    2.20    1.90
   4   3   0    1.00    0.90
   4   3   0    0.90    2.40
   4   3   0   -1.10    2.50
   4   3   0    2.30    1.30
   4   3   0   -0.10    1.60
  -5  -3   0   -0.60    2.30
  -5  -3   0    6.60    2.60
   5   3   0    3.70    1.50
   5   3   0    1.70    1.90
   5   3   0    3.90    2.00
  -6  -3   0   13.10    3.90
  -6  -3   0   19.90    4.70
   6   3   0   16.50    3.60
   6   3   0   18.30    3.70
   6   3   0   16.30    3.40
   6   3   0   14.50    3.40
  -7  -3   0   -2.70    4.60
  -7  -3   0    1.70    4.70
   7   3   0    3.80    3.90
   7   3   0    1.80    3.60
   7   3   0   -1.40    3.00
   7  -4   0    4.70    4.50
  -7   4   0    7.80    4.70
  -7   4   0    5.80    5.60
   6  -4   0    1.10    3.80
   6  -4   0    2.50    2.90
  -6   4   0    1.40    3.90
  -6   4   0    3.70    3.20
   5  -4   0   -0.60    2.60
   5  -4   0   -0.30    2.60
   5  -4   0    0.80    2.30
  -5   4   0    2.30    3.40
  -5   4   0    4.30    2.80
  -5   4   0   -2.00    2.60
   4  -4   0    8.00    2.40
   4  -4   0    9.10    3.00
   4  -4   0   12.70    2.50
   4  -4   0   13.50    2.30
  -4   4   0   14.60    2.80
  -4   4   0   12.20    2.40
  -4   4   0   12.30    2.30
  -4   4   0    8.40    3.20
  -4   4   0   12.10    2.10
  -4   4   0   13.80    2.30
  -4   4   0   13.00    2.60
   3  -4   0    5.40    1.90
   3  -4   0    6.10    2.00
   3  -4   0    4.70    1.40
  -3   4   0    4.80    1.60
  -3   4   0    5.20    1.10
  -3   4   0    3.60    1.60
  -3   4   0    5.90    1.70
  -3   4   0    4.00    1.60
  -3   4   0    6.40    1.30
  -3   4   0    4.40    0.50
  -3   4   0    4.30    2.00
  -3   4   0    5.60    2.30
   2  -4   0   60.49    3.60
   2  -4   0   60.19    3.60
   2  -4   0   58.39    3.00
   2  -4   0   53.89    2.80
  -2   4   0   60.99    3.70
  -2   4   0   60.29    3.80
  -2   4   0   59.59    3.00
  -2   4   0   59.99    2.30
  -2   4   0   60.69    2.00
  -2   4   0   59.39    1.80
  -2   4   0   61.19    3.30
  -2   4   0   60.49    3.20
  -2   4   0   67.89    3.10
   1  -4   0   28.10    1.80
   1  -4   0   29.90    2.50
   1  -4   0   31.60    2.40
   1  -4   0   26.20    2.00
   1  -4   0   29.20    2.00
  -1   4   0   28.80    1.80
  -1   4   0   28.90    2.10
  -1   4   0   31.90    1.90
  -1   4   0   31.50    2.60
  -1   4   0   31.30    2.60
  -1   4   0   28.80    2.00
   0  -4   0    0.50    1.00
   0  -4   0    0.30    0.50
   0  -4   0    0.00    0.60
   0  -4   0    0.70    0.80
   0   4   0    0.70    1.10
   0   4   0    0.30    0.80
   0   4   0    0.10    0.70
   0   4   0   -0.10    0.40
   0   4   0    0.20    0.40
   0   4   0    1.00    0.50
  -1  -4   0    6.00    0.80
  -1  -4   0    5.60    1.10
  -1  -4   0    6.70    0.90
  -1  -4   0    6.50    1.10
  -1  -4   0    5.30    1.10
  -1  -4   0    6.60    0.90
   1   4   0    5.40    0.90
   1   4   0    5.30    1.10
   1   4   0    6.20    0.80
   1   4   0    4.00    0.90
   1   4   0    7.00    1.20
   1   4   0    6.80    1.30
   1   4   0    8.20    1.20
  -2  -4   0  105.79    4.00
  -2  -4   0  102.59    4.00
  -2  -4   0  114.29    4.10
  -2  -4   0  102.69    3.90
  -2  -4   0  105.89    3.50
   2   4   0  104.79    4.10
   2   4   0  110.89    4.40
   2   4   0   93.99    4.30
   2   4   0  103.79    3.80
   2   4   0   94.79    4.10
   2   4   0   99.19    3.90
  -3  -4   0    0.40    1.30
  -3  -4   0    0.10    1.20
  -3  -4   0   -0.50    1.70
  -3  -4   0    1.30    1.10
  -3  -4   0    3.80    1.30
   3   4   0    0.80    1.70
   3   4   0   -0.70    0.90
   3   4   0    0.70    1.40
   3   4   0    1.70    1.00
   3   4   0    1.50    2.10
  -4  -4   0   14.60    2.50
  -4  -4   0   19.30    2.80
  -4  -4   0   17.20    3.10
  -4  -4   0   23.30    3.20
  -4  -4   0   21.00    2.80
   4   4   0   18.00    3.30
   4   4   0   17.90    3.50
   4   4   0   17.70    2.60
   4   4   0   18.40    1.60
   4   4   0   13.40    2.10
  -5  -4   0    5.10    2.60
  -5  -4   0   14.70    3.20
   5   4   0    8.00    2.70
   5   4   0    9.70    2.40
   5   4   0    8.70    1.40
  -6  -4   0    6.20    3.70
  -6  -4   0    2.50    3.70
   6   4   0    2.30    3.00
   6   4   0    8.80    3.10
  -7  -4   0   -8.80    4.40
   7   4   0    7.50    4.00
   7   4   0   -7.90    3.80
   7   4   0   -1.90    4.10
   7  -5   0    2.00    4.90
  -7   5   0    5.50    4.90
  -7   5   0   18.90    6.60
   6  -5   0    0.70    3.30
   6  -5   0   -2.20    3.80
  -6   5   0    0.50    4.20
  -6   5   0   -0.30    3.10
   5  -5   0    2.40    2.40
   5  -5   0    5.30    3.20
   5  -5   0   10.40    3.50
  -5   5   0    8.70    3.60
  -5   5   0    5.80    2.20
  -5   5   0    8.90    3.50
   4  -5   0    6.70    2.10
   4  -5   0   13.20    3.20
   4  -5   0   10.10    2.70
  -4   5   0   10.50    3.30
  -4   5   0    9.30    2.10
  -4   5   0    8.10    2.60
  -4   5   0    9.40    2.70
   3  -5   0    4.90    1.50
   3  -5   0    2.10    1.80
   3  -5   0    3.80    2.10
  -3   5   0    2.60    1.80
  -3   5   0    3.50    1.70
  -3   5   0    9.50    3.00
  -3   5   0    1.60    1.90
  -3   5   0    5.50    2.10
  -3   5   0    1.00    1.10
  -3   5   0    3.60    0.60
  -3   5   0    2.00    2.40
   2  -5   0    1.60    1.10
   2  -5   0    1.60    0.90
   2  -5   0    2.00    1.70
   2  -5   0    1.50    1.40
  -2   5   0    0.20    0.90
  -2   5   0   -0.20    1.90
  -2   5   0    1.10    0.50
  -2   5   0   -0.90    1.10
  -2   5   0    0.90    1.90
  -2   5   0    1.30    1.30
  -2   5   0   -0.30    1.00
  -2   5   0    0.50    1.40
   1  -5   0    8.40    1.70
   1  -5   0    7.50    1.50
   1  -5   0    8.70    1.30
   1  -5   0    6.50    1.30
   1  -5   0   10.10    2.00
  -1   5   0    9.50    1.30
  -1   5   0   11.40    1.80
  -1   5   0    9.80    1.50
  -1   5   0    8.70    1.20
  -1   5   0    8.70    2.20
  -1   5   0    9.10    1.40
  -1   5   0   10.90    2.10
   0  -5   0   65.59    2.60
   0  -5   0   62.99    3.50
   0  -5   0   64.89    3.30
   0  -5   0   64.99    2.90
   0   5   0   64.79    2.90
   0   5   0   67.59    2.90
   0   5   0   63.69    3.80
   0   5   0   68.09    3.60
   0   5   0   64.49    2.20
   0   5   0   66.29    2.40
   0   5   0   63.29    2.80
   0   5   0   63.19    2.80
  -1  -5   0  381.06    9.50
  -1  -5   0  369.16   10.70
  -1  -5   0  385.66    9.30
  -1  -5   0  374.26    9.30
  -1  -5   0  361.86   10.10
  -1  -5   0  400.86   10.20
  -1  -5   0  393.66   10.80
   1   5   0  391.66   10.20
   1   5   0  377.66   10.50
   1   5   0  389.36    9.70
   1   5   0  374.66    9.50
   1   5   0  368.06   10.20
   1   5   0  395.66   10.80
  -2  -5   0   23.50    2.40
  -2  -5   0   19.00    2.20
  -2  -5   0   22.30    2.10
  -2  -5   0   21.10    2.00
  -2  -5   0   23.30    1.70
  -2  -5   0   21.80    2.20
  -2  -5   0   22.40    2.10
  -2  -5   0   22.60    2.00
   2   5   0   21.50    2.00
   2   5   0   20.50    2.20
   2   5   0   23.60    2.60
   2   5   0   22.30    2.50
   2   5   0   23.80    2.00
   2   5   0   21.20    2.20
   2   5   0   22.50    1.90
  -3  -5   0   39.50    3.40
  -3  -5   0   36.50    3.30
  -3  -5   0   39.50    2.80
  -3  -5   0   42.30    2.60
  -3  -5   0   36.60    3.00
   3   5   0   37.90    2.70
   3   5   0   36.30    3.40
   3   5   0   42.40    4.00
   3   5   0   38.80    2.80
   3   5   0   32.70    3.10
  -4  -5   0   45.60    3.70
  -4  -5   0   37.90    4.60
  -4  -5   0   45.80    4.00
  -4  -5   0   49.30    3.70
   4   5   0   42.80    3.80
   4   5   0   53.99    5.00
   4   5   0   48.70    3.60
  -5  -5   0    1.60    2.80
  -5  -5   0    1.60    2.50
   5   5   0    1.70    2.20
   5   5   0   -2.10    2.40
  -6  -5   0    7.00    3.70
   6   5   0    2.60    3.30
   6   5   0    5.70    3.00
  -7  -5   0   14.00    5.80
  -7  -5   0   21.80    5.50
   7   5   0   15.70    5.10
   7   5   0   11.40    4.80
   7   5   0    5.70    4.50
   6  -6   0    4.30    3.80
   6  -6   0    6.30    5.00
  -6   6   0    9.40    3.60
  -6   6   0    9.80    4.90
   5  -6   0    5.80    3.60
   5  -6   0    4.80    3.20
   5  -6   0   11.00    3.90
  -5   6   0   17.90    4.10
  -5   6   0    4.00    3.70
  -5   6   0    8.70    2.50
   4  -6   0   14.70    3.60
   4  -6   0   11.50    2.60
   4  -6   0   14.30    3.50
  -4   6   0   14.40    3.20
  -4   6   0   15.00    2.40
  -4   6   0   13.70    2.00
   3  -6   0   22.20    2.60
   3  -6   0   21.60    3.40
   3  -6   0   17.40    3.50
  -3   6   0   21.40    3.60
  -3   6   0   21.90    3.20
  -3   6   0   23.50    3.40
  -3   6   0   18.60    1.70
  -3   6   0   23.90    2.60
  -3   6   0   18.60    2.70
   2  -6   0    9.90    1.90
   2  -6   0    4.10    2.20
   2  -6   0   10.20    2.60
   2  -6   0    6.20    1.70
  -2   6   0    9.50    2.90
  -2   6   0    8.30    0.70
  -2   6   0   10.40    1.90
  -2   6   0    8.80    1.60
  -2   6   0    7.00    1.80
  -2   6   0    7.60    0.80
  -2   6   0    7.60    1.70
  -2   6   0    4.30    2.60
  -2   6   0    8.10    2.40
   1  -6   0   47.60    3.60
   1  -6   0   44.80    2.80
   1  -6   0   50.29    3.30
  -1   6   0   45.90    2.50
  -1   6   0   45.90    3.90
  -1   6   0   48.10    1.50
  -1   6   0   47.10    2.90
  -1   6   0   49.70    1.70
  -1   6   0   49.10    2.70
  -1   6   0   46.30    3.60
  -1   6   0   50.29    3.00
  -1   6   0   50.69    4.10
   0  -6   0   34.60    2.40
   0  -6   0   41.70    3.10
   0  -6   0   43.20    3.50
   0   6   0   38.40    2.10
   0   6   0   39.60    2.60
   0   6   0   38.90    1.90
   0   6   0   36.20    2.00
   0   6   0   43.00    3.60
   0   6   0   38.50    2.10
   0   6   0   44.90    2.70
   0   6   0   40.40    2.40
   0   6   0   40.40    3.50
  -1  -6   0  166.08    4.40
  -1  -6   0  165.88    5.70
  -1  -6   0  170.48    6.40
  -1  -6   0  172.58    6.40
  -1  -6   0  163.58    4.30
  -1  -6   0  162.88    5.70
   1   6   0  165.78    4.90
   1   6   0  168.38    6.60
   1   6   0  172.48    6.20
   1   6   0  170.18    5.70
   1   6   0  170.68    5.20
   1   6   0  167.38    5.60
   1   6   0  164.58    5.50
  -2  -6   0    2.30    1.40
  -2  -6   0    3.50    1.10
  -2  -6   0    3.80    1.80
  -2  -6   0    2.80    1.20
  -2  -6   0    4.50    1.40
  -2  -6   0    2.20    1.20
  -2  -6   0    4.50    1.60
   2   6   0    2.60    1.30
   2   6   0    5.10    1.60
   2   6   0    4.00    1.10
   2   6   0    2.40    1.50
   2   6   0    4.80    1.70
   2   6   0    7.10    2.10
   2   6   0    1.30    1.90
  -3  -6   0   25.40    3.10
  -3  -6   0   26.50    3.10
  -3  -6   0   25.90    2.70
  -3  -6   0   29.60    3.00
  -3  -6   0   28.20    2.80
  -3  -6   0   25.50    2.40
  -3  -6   0   23.90    3.10
   3   6   0   25.80    3.10
   3   6   0   23.40    3.10
   3   6   0   23.90    3.40
   3   6   0   27.30    3.70
   3   6   0   21.00    2.50
   3   6   0   26.60    2.60
  -4  -6   0    4.80    2.20
  -4  -6   0    3.90    2.10
  -4  -6   0    3.90    2.30
  -4  -6   0    9.10    3.80
   4   6   0    7.50    1.90
   4   6   0    2.70    3.30
   4   6   0    5.30    2.40
   4   6   0    7.50    1.60
  -5  -6   0   19.60    3.70
  -5  -6   0   15.10    3.50
   5   6   0   22.40    3.90
   5   6   0   14.80    3.20
  -6  -6   0   -4.80    3.90
  -6  -6   0    0.20    4.10
   6   6   0    5.20    3.40
   6   6   0    3.70    3.60
  -7  -6   0    2.90    5.80
  -7  -6   0    8.50    5.50
   7   6   0   10.50    5.10
   7   6   0    5.00    4.60
   6  -7   0   -5.30    4.10
  -6   7   0   -4.50    3.70
  -6   7   0   -4.80    5.10
   5  -7   0    2.60    4.50
   5  -7   0   -2.30    3.00
  -5   7   0    4.60    3.90
  -5   7   0   -0.40    2.30
   4  -7   0   15.40    4.10
   4  -7   0   11.90    2.80
  -4   7   0    7.80    2.40
  -4   7   0    7.10    0.90
  -4   7   0    9.10    2.80
  -4   7   0    8.50    1.30
  -4   7   0   11.60    3.20
  -4   7   0    8.40    1.90
   3  -7   0   19.30    3.10
   3  -7   0   21.60    3.90
   3  -7   0   13.90    2.50
  -3   7   0   20.50    2.60
  -3   7   0   14.60    2.80
  -3   7   0   17.80    1.80
  -3   7   0   22.80    3.30
  -3   7   0   16.10    2.60
  -3   7   0   16.10    1.70
   2  -7   0   45.80    3.80
   2  -7   0   41.70    4.70
   2  -7   0   50.79    3.50
  -2   7   0   46.60    1.60
  -2   7   0   48.50    1.60
  -2   7   0   53.09    3.80
  -2   7   0   51.89    3.20
  -2   7   0   49.50    3.10
  -2   7   0   51.89    4.30
  -2   7   0   46.70    3.40
   1  -7   0  197.78    7.60
   1  -7   0  200.18    6.80
   1  -7   0  203.08    8.10
  -1   7   0  183.68    8.20
  -1   7   0  202.48    6.80
  -1   7   0  197.78    5.10
  -1   7   0  184.78    8.10
  -1   7   0  195.08    6.80
  -1   7   0  203.18    7.70
  -1   7   0  205.78    6.30
  -1   7   0  199.08    6.70
  -1   7   0  209.38    6.40
  -1   7   0  197.68    5.30
   0  -7   0    8.20    2.40
   0  -7   0    4.10    1.40
   0  -7   0    4.40    1.60
   0   7   0    2.20    1.30
   0   7   0    4.00    1.10
   0   7   0    4.30    1.50
   0   7   0    2.60    1.00
   0   7   0    1.30    2.30
   0   7   0    3.30    1.60
   0   7   0    2.90    1.20
   0   7   0    3.70    2.60
   0   7   0    4.60    1.30
  -1  -7   0   97.99    4.30
  -1  -7   0   95.89    3.70
  -1  -7   0   87.69    5.00
  -1  -7   0   92.79    5.00
  -1  -7   0   92.99    4.60
   1   7   0   91.89    3.50
   1   7   0   94.19    5.60
   1   7   0   94.69    3.80
   1   7   0   97.29    4.40
   1   7   0  103.89    4.50
   1   7   0   99.59    4.10
   1   7   0   90.19    5.00
  -2  -7   0   87.79    3.60
  -2  -7   0   97.59    5.10
  -2  -7   0   83.69    3.50
  -2  -7   0   90.09    4.80
  -2  -7   0   91.79    4.80
  -2  -7   0   87.79    4.30
  -2  -7   0   75.49    4.60
   2   7   0   92.49    4.80
   2   7   0   92.09    4.50
   2   7   0   91.79    4.60
   2   7   0   90.89    4.30
   2   7   0   90.99    3.90
   2   7   0   91.89    5.50
   2   7   0   85.89    5.10
  -3  -7   0    4.70    1.70
  -3  -7   0    3.70    1.80
  -3  -7   0    1.70    1.60
  -3  -7   0    4.80    1.90
  -3  -7   0   -0.50    2.10
  -3  -7   0    1.50    1.80
   3   7   0    2.10    2.40
   3   7   0    4.10    2.10
   3   7   0    2.20    2.60
   3   7   0    0.70    1.90
   3   7   0    4.40    1.80
  -4  -7   0   12.10    2.80
  -4  -7   0   13.30    2.70
  -4  -7   0    3.80    2.20
  -4  -7   0   11.60    2.90
  -4  -7   0   11.80    2.60
   4   7   0    9.60    3.00
   4   7   0    9.90    3.80
   4   7   0    8.90    2.40
   4   7   0    7.70    2.20
  -5  -7   0   23.60    4.10
  -5  -7   0   12.60    3.70
  -5  -7   0   14.00    3.40
   5   7   0   10.90    3.90
   5   7   0    8.00    2.90
  -6  -7   0    0.00    3.90
  -6  -7   0    2.40    4.40
  -6  -7   0   -4.60    4.10
   6   7   0   -1.20    3.50
   6   7   0    5.70    4.50
   5  -8   0    0.90    3.40
   5  -8   0   -8.60    5.10
  -5   8   0   -3.60    4.00
  -5   8   0   -4.50    3.60
   4  -8   0   11.90    4.90
   4  -8   0    7.30    3.20
  -4   8   0   11.90    2.30
  -4   8   0   12.70    3.60
  -4   8   0    8.50    3.10
   3  -8   0    4.80    3.60
   3  -8   0    3.50    2.30
   3  -8   0    7.50    2.40
  -3   8   0    4.80    2.30
  -3   8   0    8.10    2.60
  -3   8   0    7.60    1.20
  -3   8   0    7.90    1.60
  -3   8   0    7.90    2.10
   2  -8   0  172.68    7.70
   2  -8   0  180.08    8.70
  -2   8   0  177.38    6.50
  -2   8   0  182.68    6.40
  -2   8   0  173.48    4.50
  -2   8   0  180.78    6.60
  -2   8   0  166.48    4.50
  -2   8   0  180.38    6.70
  -2   8   0  173.48    7.00
   1  -8   0    0.50    1.50
   1  -8   0   -0.80    2.50
   1  -8   0   -1.40    1.80
  -1   8   0    1.00    1.20
  -1   8   0   -0.50    1.50
  -1   8   0    1.10    0.90
  -1   8   0   -0.80    1.40
  -1   8   0    5.60    2.20
  -1   8   0    0.90    1.10
   0  -8   0    8.60    2.30
   0  -8   0   11.50    2.20
   0  -8   0   12.60    3.00
   0   8   0    7.60    3.40
   0   8   0   12.40    2.00
   0   8   0   12.20    2.40
   0   8   0   12.00    2.20
   0   8   0   11.60    1.90
   0   8   0   15.10    1.90
   0   8   0    9.30    2.30
  -1  -8   0   14.40    3.00
  -1  -8   0   16.20    2.80
  -1  -8   0   12.80    2.60
  -1  -8   0   15.70    2.00
  -1  -8   0   15.20    2.30
   1   8   0   16.10    2.30
   1   8   0   15.00    2.70
   1   8   0   14.80    2.40
   1   8   0   16.90    2.70
   1   8   0   13.80    1.80
   1   8   0   15.10    2.30
   1   8   0   17.30    3.40
   1   8   0    8.80    3.60
  -2  -8   0    8.80    1.80
  -2  -8   0    5.50    1.30
  -2  -8   0    5.40    1.30
  -2  -8   0    6.40    2.30
  -2  -8   0    6.80    1.90
  -2  -8   0    7.60    2.30
   2   8   0    3.60    1.80
   2   8   0    5.30    2.20
   2   8   0    3.90    2.10
   2   8   0    4.30    3.00
   2   8   0    8.40    3.40
   2   8   0    7.10    1.60
   2   8   0    3.90    2.90
  -3  -8   0   17.60    3.20
  -3  -8   0   19.60    2.60
  -3  -8   0   20.70    3.00
  -3  -8   0   17.00    2.90
  -3  -8   0   11.70    2.30
   3   8   0   13.30    2.80
   3   8   0   21.30    3.70
   3   8   0   20.70    4.10
   3   8   0   15.10    3.00
   3   8   0   17.00    3.30
  -4  -8   0    4.60    2.90
  -4  -8   0   -0.40    2.30
  -4  -8   0    5.10    2.70
  -4  -8   0    6.50    2.70
  -4  -8   0    1.30    2.50
   4   8   0    2.70    2.70
   4   8   0    1.20    2.30
   4   8   0    3.90    2.90
  -5  -8   0    0.50    3.40
  -5  -8   0    3.80    3.30
  -5  -8   0   -2.40    3.40
   5   8   0    4.40    3.70
   5   8   0   -6.40    2.70
  -6  -8   0   -4.60    4.50
  -6  -8   0    1.50    4.80
  -6  -8   0    9.00    4.30
  -6  -8   0   -6.30    4.70
   6   8   0   14.10    5.30
   6   8   0   -2.40    4.30
   5  -9   0    8.80    4.60
   5  -9   0   10.60    6.30
  -5   9   0    4.30    5.10
  -5   9   0   -0.90    4.40
   4  -9   0    9.30    3.60
   4  -9   0   12.30    5.80
  -4   9   0   17.40    4.20
  -4   9   0    7.30    3.10
  -4   9   0    7.50    3.80
   3  -9   0    3.90    3.10
   3  -9   0   -4.30    4.90
  -3   9   0    0.80    1.60
  -3   9   0   -0.10    2.80
  -3   9   0    2.40    2.40
  -3   9   0    2.40    1.10
  -3   9   0    2.60    2.50
   2  -9   0   11.70    3.30
   2  -9   0   15.20    4.10
  -2   9   0   10.60    2.50
  -2   9   0    9.90    1.30
  -2   9   0   13.00    2.60
  -2   9   0   11.30    2.40
  -2   9   0    9.90    1.20
  -2   9   0   11.40    2.70
   1  -9   0   38.80    3.80
   1  -9   0   47.10    5.50
   1  -9   0   39.20    4.80
  -1   9   0   40.00    3.20
  -1   9   0   43.30    3.20
  -1   9   0   40.10    2.50
  -1   9   0   36.80    2.80
  -1   9   0   45.80    3.70
   0  -9   0   49.40    5.30
   0  -9   0   51.29    5.00
   0  -9   0   43.80    3.70
   0   9   0   40.90    2.90
   0   9   0   40.00    3.10
   0   9   0   44.10    3.60
   0   9   0   35.10    3.80
   0   9   0   43.70    3.70
  -1  -9   0    9.70    3.30
  -1  -9   0    8.20    3.00
  -1  -9   0    8.60    2.20
   1   9   0    9.20    2.10
   1   9   0    4.90    2.20
   1   9   0    7.40    2.90
   1   9   0   13.70    4.70
   1   9   0   10.00    2.30
   1   9   0    9.00    1.70
  -2  -9   0   10.90    2.50
  -2  -9   0   12.50    3.20
  -2  -9   0    9.60    2.50
   2   9   0   11.40    2.30
   2   9   0   21.50    4.30
   2   9   0    8.00    2.30
   2   9   0   14.80    3.00
   2   9   0   13.00    2.80
  -3  -9   0    6.10    2.30
  -3  -9   0    3.00    2.90
  -3  -9   0    5.70    2.00
  -3  -9   0    4.10    2.40
  -3  -9   0   -1.20    2.50
   3   9   0   -1.20    2.80
   3   9   0    4.30    3.70
   3   9   0    1.90    2.30
   3   9   0    6.20    3.60
  -4  -9   0    1.30    3.40
  -4  -9   0    0.30    2.70
  -4  -9   0    1.00    3.10
   4   9   0    2.40    5.30
   4   9   0    2.20    2.90
  -5  -9   0    7.00    3.80
  -5  -9   0   -0.50    4.00
  -5  -9   0    0.20    4.10
  -5  -9   0    4.20    3.60
   5   9   0   -1.00    4.30
   5   9   0    1.00    3.50
  -6  -9   0   13.00    5.90
  -6  -9   0   10.80    5.00
  -6  -9   0   14.00    5.80
  -6  -9   0   14.70    5.50
   6   9   0    2.60    5.50
   6   9   0   12.70    5.20
   4 -10   0    4.00    6.10
  -4  10   0    9.70    4.50
  -4  10   0    5.60    4.10
  -4  10   0    3.70    3.70
   3 -10   0    2.40    3.70
   3 -10   0   10.30    5.90
  -3  10   0   10.40    3.20
  -3  10   0    6.50    2.40
  -3  10   0   10.20    3.50
  -3  10   0    9.30    3.20
   2 -10   0    4.90    4.30
   2 -10   0    6.20    3.60
  -2  10   0    2.00    1.40
  -2  10   0   -0.90    2.30
  -2  10   0    1.70    2.30
  -2  10   0    2.10    2.30
  -2  10   0    2.80    2.30
   1 -10   0   21.60    3.40
  -1  10   0   18.80    2.50
  -1  10   0   12.90    2.70
  -1  10   0   14.10    2.60
  -1  10   0   23.00    3.20
  -1  10   0   17.20    2.70
  -1  10   0   18.20    3.00
   0 -10   0   63.09    6.60
   0 -10   0   62.59    6.10
   0 -10   0   69.49    4.90
   0  10   0   60.89    4.00
   0  10   0   56.79    4.80
   0  10   0   67.69    4.80
   0  10   0   59.59    4.10
   0  10   0   65.49    3.80
   0  10   0   57.89    3.70
  -1 -10   0    2.50    3.50
  -1 -10   0   15.40    3.60
  -1 -10   0    9.90    2.60
   1  10   0   12.80    2.20
   1  10   0    5.20    2.40
   1  10   0   12.60    2.80
   1  10   0   11.60    2.60
  -2 -10   0    4.10    2.50
   2  10   0    4.10    2.80
   2  10   0    3.40    3.00
   2  10   0    6.70    2.30
  -3 -10   0    3.10    2.90
  -3 -10   0    0.70    3.60
  -3 -10   0    4.50    1.80
   3  10   0    2.60    3.50
   3  10   0    8.40    3.30
  -4 -10   0   -2.60    2.70
  -4 -10   0    2.40    3.30
  -4 -10   0    6.80    4.50
   4  10   0   -2.30    4.00
   4  10   0    5.80    3.70
  -5 -10   0    0.60    4.10
  -5 -10   0   -2.10    5.30
  -5 -10   0    3.10    4.50
   5  10   0   -3.80    4.00
   5  10   0    6.90    5.30
   3 -11   0    1.70    6.20
  -3  11   0    3.50    3.80
  -3  11   0   -3.00    2.70
  -3  11   0    1.70    3.50
   2 -11   0    2.80    5.20
   2 -11   0    3.50    4.00
  -2  11   0    0.50    3.40
  -2  11   0   -0.10    3.00
  -2  11   0   -0.30    3.30
  -2  11   0    4.50    2.90
   1 -11   0    6.80    4.30
   1 -11   0    5.90    5.00
   1 -11   0    4.00    3.30
  -1  11   0    4.40    2.40
  -1  11   0    9.10    3.10
  -1  11   0    5.80    2.70
  -1  11   0    4.60    2.30
   0 -11   0   19.40    5.40
   0 -11   0   28.60    5.10
   0 -11   0   29.80    4.50
   0  11   0   26.30    3.00
   0  11   0   31.30    3.60
   0  11   0   25.50    3.90
  -1 -11   0    3.60    3.80
  -1 -11   0    0.90    4.00
  -1 -11   0    2.70    3.00
   1  11   0    1.00    2.10
   1  11   0    5.90    3.10
  -2 -11   0   -5.70    3.70
   2  11   0    0.00    3.60
   2  11   0   -3.40    3.10
   2  11   0   -0.90    2.70
  -3 -11   0    4.40    3.50
  -3 -11   0   -2.70    4.60
   3  11   0    5.40    3.80
  -4 -11   0  -11.60    5.00
  -4 -11   0    0.00    4.10
   4  11   0    8.10    4.40
   4  11   0    1.90    5.10
   2 -12   0    9.50    7.00
   2 -12   0   10.70    5.10
  -2  12   0    4.90    3.60
  -2  12   0   12.10    4.10
  -2  12   0    7.00    3.80
   1 -12   0   16.40    5.00
   1 -12   0    5.90    4.20
   1 -12   0    7.70    6.10
  -1  12   0    6.70    3.00
  -1  12   0   11.20    3.90
  -1  12   0    3.40    4.00
   0 -12   0    1.60    4.50
   0 -12   0   -2.90    5.60
   0 -12   0    1.40    4.80
   0  12   0   -1.90    3.60
  -1 -12   0    1.50    5.00
  -1 -12   0    0.60    3.40
   1  12   0   -8.60    3.70
   1  12   0   -3.10    3.70
   1  12   0    2.80    3.00
  -2 -12   0   -2.00    3.60
  -2 -12   0    6.70    5.40
   2  12   0   -3.60    3.90
   2  12   0    7.60    4.50
  -3 -12   0   -1.00    4.10
  -3 -12   0    2.80    5.80
   3  12   0    2.40    5.00
   3  12   0   -3.50    4.20
   3  12  -1    2.10    5.10
   3  12  -1    6.90    4.50
  -3 -12   1    0.70    4.50
  -3 -12   1   -0.80    5.90
   2  12  -1   10.60    4.30
  -2 -12   1   15.80    4.60
  -2 -12   1    6.30    5.60
   1  12  -1   -2.40    3.70
   1  12  -1   -4.70    3.90
  -1 -12   1   -0.30    3.60
  -1 -12   1   -8.40    4.70
   0  12  -1    7.70    4.00
   0  12  -1    4.00    3.70
   0 -12   1   11.10    4.40
   0 -12   1    8.70    4.80
  -1  12  -1    6.80    4.00
  -1  12  -1    3.90    3.90
   1 -12   1    4.20    4.10
   1 -12   1    3.00    4.60
  -2  12  -1    3.60    4.10
  -2  12  -1   11.60    3.90
  -2  12  -1    7.60    3.60
   2 -12   1   13.00    5.10
   4  11  -1  -10.10    4.20
   4  11  -1    3.80    5.20
  -4 -11   1    7.10    5.80
  -4 -11   1   -3.30    4.20
   3  11  -1    0.90    5.50
   3  11  -1    6.20    3.70
  -3 -11   1   -1.40    3.50
  -3 -11   1    3.10    4.70
   2  11  -1   13.80    3.60
   2  11  -1   -5.50    3.40
   2  11  -1    4.30    2.70
  -2 -11   1   -2.10    3.30
  -2 -11   1   13.40    4.60
   1  11  -1    5.20    3.10
   1  11  -1   11.50    3.30
   1  11  -1    7.60    2.40
  -1 -11   1    8.70    3.90
  -1 -11   1   18.40    4.80
   0  11  -1    3.00    2.50
   0  11  -1    3.60    2.90
   0  11  -1    0.60    2.70
   0  11  -1    4.80    2.10
   0 -11   1    3.50    3.40
   0 -11   1    1.50    4.10
  -1  11  -1    1.70    2.90
  -1  11  -1   -0.20    2.10
  -1  11  -1    5.00    2.90
  -1  11  -1    1.00    3.80
   1 -11   1    3.00    4.00
   1 -11   1    6.80    5.00
   1 -11   1    7.90    3.40
  -2  11  -1    2.90    3.10
  -2  11  -1    1.10    3.30
  -2  11  -1    6.20    3.30
  -2  11  -1   -0.60    2.80
   2 -11   1    1.90    5.20
   2 -11   1    3.50    4.00
  -3  11  -1    6.10    3.00
  -3  11  -1    6.80    3.70
   3 -11   1    5.20    6.10
   5  10  -1   -4.30    5.00
   5  10  -1    0.00    4.30
  -5 -10   1   10.80    4.90
  -5 -10   1   -1.00    4.20
  -5 -10   1   -5.00    5.20
   4  10  -1   -1.30    3.40
   4  10  -1   -3.20    4.10
  -4 -10   1   -5.70    4.50
  -4 -10   1    2.40    3.70
  -4 -10   1    4.20    2.70
   3  10  -1    3.90    3.50
   3  10  -1   -4.10    2.80
  -3 -10   1    5.00    3.60
  -3 -10   1    1.40    2.90
  -3 -10   1   -3.20    1.50
   2  10  -1    0.70    2.00
   2  10  -1    2.30    2.70
   2  10  -1   -1.30    2.70
  -2 -10   1   -1.40    2.60
   1  10  -1   47.90    4.60
   1  10  -1   57.99    4.70
   1  10  -1   47.20    4.60
   1  10  -1   54.49    3.40
  -1 -10   1   55.49    4.90
  -1 -10   1   58.79    7.20
   0  10  -1   -2.10    2.50
   0  10  -1    3.50    3.10
   0  10  -1    2.20    2.10
   0  10  -1    3.50    1.70
   0  10  -1   -1.80    2.20
   0 -10   1   -4.40    3.50
   0 -10   1   -2.60    2.30
  -1  10  -1   54.29    4.90
  -1  10  -1   53.59    4.60
  -1  10  -1   59.39    4.30
  -1  10  -1   55.69    3.90
  -1  10  -1   52.09    3.50
   1 -10   1   63.39    5.90
   1 -10   1   62.49    5.30
   1 -10   1   59.99    6.80
  -2  10  -1    5.60    2.60
  -2  10  -1    3.70    2.80
  -2  10  -1    8.00    2.50
  -2  10  -1    7.50    2.40
   2 -10   1    6.80    4.70
   2 -10   1    6.70    3.30
  -3  10  -1    0.10    2.80
  -3  10  -1    3.60    2.20
  -3  10  -1    3.60    2.80
  -3  10  -1    2.80    3.50
   3 -10   1    1.40    5.50
  -4  10  -1   -1.50    4.00
  -4  10  -1   14.90    6.70
  -4  10  -1    2.40    4.80
   4 -10   1    5.90    6.10
   5   9  -1   -5.80    4.30
   5   9  -1   -1.70    3.50
  -5  -9   1    6.50    4.60
  -5  -9   1    0.40    3.90
  -5  -9   1    3.40    3.80
   4   9  -1   -1.50    3.00
  -4  -9   1   -5.70    3.30
  -4  -9   1    6.20    2.80
  -4  -9   1   -4.40    3.00
   3   9  -1   10.10    4.20
   3   9  -1   20.70    3.90
   3   9  -1   15.30    3.30
   3   9  -1   11.00    3.10
  -3  -9   1   15.10    3.10
  -3  -9   1   12.10    2.80
  -3  -9   1   10.90    3.60
  -3  -9   1   15.00    2.10
  -3  -9   1   15.80    3.00
   2   9  -1   19.50    3.00
   2   9  -1   24.70    3.50
   2   9  -1   21.30    3.40
   2   9  -1   20.10    2.50
   2   9  -1   21.50    4.20
  -2  -9   1   21.90    2.40
  -2  -9   1   18.80    3.00
  -2  -9   1   23.40    3.80
   1   9  -1   50.39    3.00
   1   9  -1   45.90    4.50
   1   9  -1   37.60    5.10
   1   9  -1   39.40    3.80
   1   9  -1   48.80    4.00
   1   9  -1   51.89    3.90
  -1  -9   1   49.99    4.10
  -1  -9   1   51.99    5.00
   0   9  -1  421.06   11.60
   0   9  -1  434.56   11.90
   0   9  -1  422.16   11.30
   0   9  -1  422.76   12.60
   0   9  -1  424.26   11.80
   0  -9   1  437.46   13.00
   0  -9   1  436.86   14.10
   0  -9   1  447.66   14.90
  -1   9  -1  130.59    5.00
  -1   9  -1  125.49    5.60
  -1   9  -1  125.49    4.50
  -1   9  -1  124.89    5.50
  -1   9  -1  120.59    4.20
   1  -9   1  128.79    6.90
   1  -9   1  124.99    6.30
   1  -9   1  116.59    7.20
  -2   9  -1    2.70    1.90
  -2   9  -1    6.00    2.30
  -2   9  -1    2.50    2.00
  -2   9  -1    0.70    2.00
   2  -9   1    3.90    2.80
   2  -9   1   -0.90    3.50
  -3   9  -1    1.50    2.50
  -3   9  -1   -1.30    2.90
  -3   9  -1   -0.50    2.10
  -3   9  -1   -2.80    1.70
   3  -9   1    5.70    4.40
  -4   9  -1    3.20    2.90
  -4   9  -1    4.90    2.00
  -4   9  -1   11.30    4.10
   4  -9   1   -3.00    4.90
   4  -9   1    2.20    3.20
  -5   9  -1    5.90    5.40
  -5   9  -1    5.60    4.50
   5  -9   1    7.30    4.30
   6   8  -1   13.50    5.10
   6   8  -1    3.20    4.00
  -6  -8   1    8.40    5.50
  -6  -8   1    5.70    5.20
  -6  -8   1    2.50    4.80
  -6  -8   1    9.20    5.00
   5   8  -1   -1.20    2.90
   5   8  -1   -3.50    3.60
  -5  -8   1    3.70    3.50
  -5  -8   1    0.60    3.50
  -5  -8   1   -2.20    3.60
   4   8  -1   -0.40    3.00
   4   8  -1    0.10    2.40
   4   8  -1   -1.20    2.00
  -4  -8   1    0.30    2.30
  -4  -8   1   -4.70    2.70
  -4  -8   1    0.50    2.40
  -4  -8   1    1.40    2.60
   3   8  -1    2.20    2.20
   3   8  -1    3.60    3.30
   3   8  -1    3.90    2.70
   3   8  -1   -6.30    3.70
   3   8  -1    0.80    2.40
  -3  -8   1   -0.80    2.40
  -3  -8   1    2.80    2.20
  -3  -8   1    0.20    2.40
  -3  -8   1   -0.80    1.70
  -3  -8   1    0.80    1.70
   2   8  -1    0.10    2.60
   2   8  -1    1.50    2.20
   2   8  -1   -4.80    3.70
   2   8  -1    0.50    1.90
   2   8  -1    0.80    1.40
   2   8  -1    1.70    1.70
   2   8  -1   -2.00    3.10
  -2  -8   1    0.80    1.00
  -2  -8   1    0.90    1.40
  -2  -8   1    2.40    1.20
  -2  -8   1   -0.20    1.80
  -2  -8   1   -1.30    2.00
   1   8  -1    7.00    3.10
   1   8  -1    7.70    1.80
   1   8  -1    9.50    2.20
   1   8  -1    3.30    2.30
   1   8  -1    5.20    1.90
   1   8  -1    5.20    1.20
   1   8  -1    2.30    2.30
  -1  -8   1    4.50    2.30
  -1  -8   1    6.20    2.20
  -1  -8   1    9.60    2.60
  -1  -8   1    6.30    1.90
   0   8  -1   11.90    1.60
   0   8  -1   14.00    2.20
   0   8  -1   10.50    2.60
   0   8  -1   10.90    2.00
   0   8  -1   10.90    2.50
   0   8  -1   10.80    1.90
   0   8  -1   14.10    3.70
   0  -8   1    9.10    2.20
   0  -8   1   10.50    2.40
   0  -8   1   12.40    2.90
  -1   8  -1   67.69    2.60
  -1   8  -1   65.89    3.90
  -1   8  -1   72.69    3.80
  -1   8  -1   64.59    2.80
  -1   8  -1   69.89    4.80
  -1   8  -1   76.59    3.50
   1  -8   1   72.09    4.40
   1  -8   1   71.49    5.00
   1  -8   1   68.99    5.30
  -2   8  -1   19.90    2.50
  -2   8  -1   18.70    2.90
  -2   8  -1   16.00    2.40
  -2   8  -1   15.20    2.30
   2  -8   1   24.50    4.20
   2  -8   1   16.00    3.30
  -3   8  -1   -2.30    1.20
  -3   8  -1    0.00    2.40
  -3   8  -1    1.80    2.10
  -3   8  -1   -0.70    0.90
  -3   8  -1    0.40    1.10
  -3   8  -1    0.50    1.80
   3  -8   1    2.20    2.20
   3  -8   1   -0.20    3.50
  -4   8  -1   -1.80    3.30
  -4   8  -1   -0.20    1.20
  -4   8  -1   -2.90    2.60
   4  -8   1   -5.30    2.70
   4  -8   1    2.30    4.80
  -5   8  -1    0.00    3.70
   5  -8   1    5.70    3.80
   6   7  -1    1.90    4.40
   6   7  -1   -1.40    3.70
  -6  -7   1    2.50    3.80
  -6  -7   1   -3.50    4.40
  -6  -7   1   -2.70    4.30
   5   7  -1   12.60    3.10
   5   7  -1   12.70    3.70
  -5  -7   1   11.10    3.40
  -5  -7   1    6.90    3.40
  -5  -7   1    3.50    3.40
  -5  -7   1    1.90    3.10
   4   7  -1   37.80    4.40
   4   7  -1   34.30    2.20
   4   7  -1   34.60    3.90
   4   7  -1   37.30    4.00
  -4  -7   1   32.90    3.80
  -4  -7   1   32.80    3.60
  -4  -7   1   32.90    4.20
  -4  -7   1   36.10    4.30
  -4  -7   1   33.90    4.40
   3   7  -1    0.10    1.70
   3   7  -1    4.90    3.10
   3   7  -1    0.80    2.20
   3   7  -1    2.90    2.70
  -3  -7   1    2.60    2.30
  -3  -7   1    2.40    1.60
  -3  -7   1    2.60    1.90
  -3  -7   1    2.10    1.70
  -3  -7   1   -2.60    1.70
   2   7  -1   92.89    5.30
   2   7  -1   95.69    4.50
   2   7  -1   89.99    3.70
   2   7  -1   84.19    4.50
   2   7  -1   89.29    4.60
   2   7  -1   91.29    4.70
   2   7  -1   77.99    5.60
  -2  -7   1   85.29    4.90
  -2  -7   1   87.99    4.00
  -2  -7   1   89.99    3.40
  -2  -7   1   90.09    4.90
  -2  -7   1   87.49    4.50
  -2  -7   1   80.99    3.40
   1   7  -1   17.90    2.20
   1   7  -1   17.00    2.20
   1   7  -1   16.90    2.40
   1   7  -1   19.10    3.00
   1   7  -1   19.70    3.40
   1   7  -1   17.80    1.70
   1   7  -1   17.40    2.20
  -1  -7   1   14.90    2.30
  -1  -7   1   17.10    2.40
  -1  -7   1   16.80    2.50
  -1  -7   1   12.60    2.60
   0   7  -1   26.20    2.10
   0   7  -1   28.30    3.90
   0   7  -1   27.50    2.30
   0   7  -1   30.00    2.00
   0   7  -1   26.80    2.60
   0   7  -1   28.30    2.40
   0   7  -1   35.40    4.00
   0   7  -1   32.70    3.10
   0   7  -1   32.50    2.50
   0  -7   1   26.80    2.50
   0  -7   1   31.10    3.50
   0  -7   1   27.50    3.20
  -1   7  -1   44.30    4.50
  -1   7  -1   40.20    4.60
  -1   7  -1   50.39    3.50
  -1   7  -1   47.40    5.30
  -1   7  -1   46.50    2.90
  -1   7  -1   49.60    3.60
  -1   7  -1   55.79    3.20
  -1   7  -1   50.29    1.80
  -1   7  -1   49.40    2.00
  -1   7  -1   49.30    2.70
   1  -7   1   48.30    3.30
   1  -7   1   38.80    4.20
   1  -7   1   49.30    3.70
  -2   7  -1   18.50    2.90
  -2   7  -1   23.50    2.90
  -2   7  -1   20.20    2.50
  -2   7  -1   18.80    2.20
  -2   7  -1   21.80    2.40
  -2   7  -1   24.50    3.10
   2  -7   1   24.40    3.70
   2  -7   1   19.70    2.90
   2  -7   1   18.90    3.30
   2  -7   1   19.40    2.70
  -3   7  -1    2.50    1.10
  -3   7  -1    1.40    2.20
  -3   7  -1    1.70    1.10
  -3   7  -1    3.40    1.80
   3  -7   1    0.50    2.80
   3  -7   1   -1.70    2.90
   3  -7   1    0.90    1.80
  -4   7  -1   14.10    3.40
  -4   7  -1   16.80    2.60
   4  -7   1   15.20    4.30
   4  -7   1    7.80    3.70
   4  -7   1   12.90    3.00
  -5   7  -1    4.90    2.50
  -5   7  -1    4.70    4.20
   5  -7   1   -1.00    4.50
   5  -7   1    0.60    4.30
   5  -7   1    1.00    3.20
  -6   7  -1   28.30    6.20
   6  -7   1   24.30    4.90
   7   6  -1    9.20    4.70
   7   6  -1   -0.50    4.60
   7   6  -1    0.90    5.20
   7   6  -1    5.40    5.30
  -7  -6   1   -1.70    5.80
  -7  -6   1    7.30    5.60
  -7  -6   1    6.90    5.10
   6   6  -1    1.20    3.20
   6   6  -1    4.60    3.80
  -6  -6   1   -0.70    4.00
  -6  -6   1   -6.70    3.70
  -6  -6   1   -1.90    3.30
   5   6  -1    5.10    2.70
   5   6  -1    1.10    2.90
  -5  -6   1   10.50    3.20
  -5  -6   1    3.40    2.50
  -5  -6   1    7.10    3.40
   4   6  -1   -1.00    1.50
   4   6  -1   -1.00    3.90
   4   6  -1   -0.70    2.20
   4   6  -1   -3.00    2.00
  -4  -6   1    1.60    2.00
  -4  -6   1    0.00    2.00
  -4  -6   1    0.20    2.00
  -4  -6   1   -1.10    1.80
   3   6  -1    9.60    3.10
   3   6  -1   10.80    2.70
   3   6  -1    7.90    1.90
   3   6  -1    9.00    1.60
   3   6  -1    9.30    2.30
   3   6  -1   12.10    2.70
  -3  -6   1    8.50    2.40
  -3  -6   1    6.70    2.00
  -3  -6   1    8.50    2.00
  -3  -6   1   11.10    2.30
  -3  -6   1    8.20    2.40
  -3  -6   1   10.90    1.70
  -3  -6   1    8.60    2.10
   2   6  -1    3.70    1.10
   2   6  -1    2.10    1.50
   2   6  -1    2.90    2.00
   2   6  -1    2.10    1.60
   2   6  -1    2.80    1.50
   2   6  -1    2.10    2.10
   2   6  -1    2.40    1.20
  -2  -6   1    1.90    1.10
  -2  -6   1    4.10    1.80
  -2  -6   1    3.60    1.40
  -2  -6   1    1.30    1.40
  -2  -6   1   -0.40    1.20
   1   6  -1  210.08    6.10
   1   6  -1  199.88    6.30
   1   6  -1  216.78    6.60
   1   6  -1  199.78    6.20
   1   6  -1  206.98    6.50
   1   6  -1  199.58    6.90
   1   6  -1  204.58    7.50
  -1  -6   1  205.08    5.00
  -1  -6   1  203.78    5.60
  -1  -6   1  197.98    7.30
  -1  -6   1  195.68    7.10
  -1  -6   1  200.18    6.70
  -1  -6   1  202.18    5.00
  -1  -6   1  207.48    6.50
   0   6  -1    5.60    1.10
   0   6  -1    7.90    2.20
   0   6  -1    5.90    1.70
   0   6  -1    6.00    1.40
   0   6  -1    3.20    0.90
   0   6  -1    6.10    1.20
   0   6  -1    4.20    1.60
   0   6  -1    4.70    2.10
   0  -6   1    5.10    1.50
   0  -6   1    5.90    2.00
   0  -6   1    6.60    1.50
  -1   6  -1  385.66   11.80
  -1   6  -1  380.56   10.40
  -1   6  -1  357.86   10.00
  -1   6  -1  360.06   11.60
  -1   6  -1  350.96   10.20
  -1   6  -1  368.26    9.70
  -1   6  -1  383.06   11.30
   1  -6   1  367.56   11.50
   1  -6   1  355.96   11.40
   1  -6   1  374.26   10.50
   1  -6   1  380.86   11.20
  -2   6  -1   29.20    3.00
  -2   6  -1   22.50    2.70
  -2   6  -1   28.30    3.90
  -2   6  -1   30.30    3.50
  -2   6  -1   26.10    2.90
  -2   6  -1   34.30    4.20
  -2   6  -1   29.00    2.40
  -2   6  -1   28.70    2.20
  -2   6  -1   30.20    2.30
   2  -6   1   31.30    3.30
   2  -6   1   29.00    3.00
   2  -6   1   30.20    3.70
   2  -6   1   31.60    2.60
  -3   6  -1   -3.10    2.10
  -3   6  -1    0.60    1.90
  -3   6  -1    3.50    1.10
  -3   6  -1   -1.40    3.50
   3  -6   1    2.20    2.50
   3  -6   1   -0.60    2.20
   3  -6   1    2.90    1.60
  -4   6  -1    2.50    2.40
  -4   6  -1   -0.10    0.70
  -4   6  -1    0.70    1.80
  -4   6  -1   -1.10    2.00
   4  -6   1   -1.10    2.10
   4  -6   1    3.30    3.00
   4  -6   1    0.90    3.10
  -5   6  -1   15.50    2.90
  -5   6  -1   11.10    4.00
  -5   6  -1    9.60    3.70
   5  -6   1   12.10    3.90
   5  -6   1   16.50    4.10
  -6   6  -1   10.30    3.60
  -6   6  -1    6.30    4.70
   6  -6   1   14.20    4.30
   6  -6   1   14.50    5.50
   7   5  -1   11.90    4.60
   7   5  -1    5.20    4.70
   7   5  -1   14.10    4.90
   7   5  -1    9.50    4.70
  -7  -5   1    8.10    5.90
  -7  -5   1    9.00    5.20
   6   5  -1    7.70    3.20
   6   5  -1    5.60    3.50
  -6  -5   1    4.60    4.00
  -6  -5   1    2.20    3.70
   5   5  -1    1.40    2.10
   5   5  -1    3.80    2.70
  -5  -5   1    1.80    2.60
  -5  -5   1    1.00    2.50
   4   5  -1    1.80    2.90
   4   5  -1   -0.10    1.80
   4   5  -1   -0.60    1.50
   4   5  -1    2.40    1.50
  -4  -5   1    1.60    1.90
  -4  -5   1    2.20    1.90
  -4  -5   1    1.10    1.90
  -4  -5   1   -0.30    2.80
   3   5  -1   24.40    2.40
   3   5  -1   33.00    3.40
   3   5  -1   28.20    1.80
   3   5  -1   28.00    2.90
   3   5  -1   32.70    3.80
  -3  -5   1   23.00    2.50
  -3  -5   1   26.50    3.20
  -3  -5   1   23.20    3.10
  -3  -5   1   24.30    2.30
  -3  -5   1   24.20    2.60
  -3  -5   1   26.90    2.80
   2   5  -1   94.29    3.60
   2   5  -1   96.89    4.20
   2   5  -1   99.59    4.40
   2   5  -1   93.69    4.10
   2   5  -1   92.09    3.90
  -2  -5   1   93.69    3.20
  -2  -5   1   95.39    4.20
  -2  -5   1   94.59    3.70
  -2  -5   1   90.89    4.10
  -2  -5   1   94.49    3.90
  -2  -5   1   97.09    3.90
  -2  -5   1   89.89    4.00
   1   5  -1  107.19    3.80
   1   5  -1  102.89    3.90
   1   5  -1  108.19    4.70
   1   5  -1  101.19    3.20
   1   5  -1  104.99    3.90
  -1  -5   1   97.29    4.30
  -1  -5   1  100.79    3.00
  -1  -5   1  101.59    3.10
  -1  -5   1  101.99    4.00
  -1  -5   1  101.69    3.10
  -1  -5   1  105.29    3.90
  -1  -5   1  102.49    4.30
   0   5  -1    4.30    1.00
   0   5  -1    5.60    1.20
   0   5  -1    4.80    0.80
   0   5  -1    3.80    0.90
   0   5  -1    4.50    1.50
   0   5  -1    4.80    0.80
   0   5  -1    5.10    1.50
   0   5  -1    6.90    1.80
   0   5  -1    3.40    0.70
   0  -5   1    2.90    1.00
   0  -5   1    4.30    1.20
   0  -5   1    4.40    1.40
   0  -5   1    7.30    1.70
  -1   5  -1   10.10    1.40
  -1   5  -1   12.90    1.70
  -1   5  -1   16.50    2.50
  -1   5  -1   12.50    2.30
  -1   5  -1   11.60    1.60
  -1   5  -1   11.10    1.90
  -1   5  -1   13.40    1.50
   1  -5   1    9.80    1.70
   1  -5   1   13.30    1.80
   1  -5   1    9.80    1.80
   1  -5   1   13.60    1.80
   1  -5   1    9.60    1.90
  -2   5  -1    8.20    1.20
  -2   5  -1    5.60    1.50
  -2   5  -1    5.30    1.60
  -2   5  -1   10.90    2.10
  -2   5  -1    8.00    1.70
  -2   5  -1    4.20    2.30
  -2   5  -1    4.90    2.20
   2  -5   1    9.50    1.60
   2  -5   1    8.50    2.10
   2  -5   1    7.50    2.10
   2  -5   1    7.10    1.40
  -3   5  -1   -0.20    0.60
  -3   5  -1   -0.50    1.80
  -3   5  -1    1.90    1.00
  -3   5  -1   -0.80    1.60
  -3   5  -1    0.10    0.90
  -3   5  -1    0.90    1.90
  -3   5  -1    1.80    2.90
  -3   5  -1    6.90    2.70
  -3   5  -1   -2.70    1.70
   3  -5   1    0.10    1.20
   3  -5   1    2.00    2.00
   3  -5   1    1.50    2.10
  -4   5  -1   71.49    3.80
  -4   5  -1   68.39    4.40
  -4   5  -1   72.19    3.90
  -4   5  -1   74.69    5.20
   4  -5   1   73.89    5.20
   4  -5   1   64.79    5.60
   4  -5   1   75.39    4.50
  -5   5  -1    7.60    3.60
  -5   5  -1    4.50    3.40
  -5   5  -1    0.80    2.40
   5  -5   1    0.80    2.50
   5  -5   1   -1.80    2.90
   5  -5   1    2.70    3.40
  -6   5  -1    1.30    3.20
  -6   5  -1   -4.60    4.10
   6  -5   1    4.60    4.40
   6  -5   1   -2.20    3.20
  -7   5  -1    1.80    5.00
  -7   5  -1  -10.00    5.90
   7  -5   1    0.30    4.40
   7   4  -1    4.10    4.00
   7   4  -1    9.70    4.50
   7   4  -1   11.20    3.70
  -7  -4   1    5.90    4.80
  -7  -4   1   17.30    5.50
   6   4  -1   -1.60    2.60
   6   4  -1    2.30    3.30
   6   4  -1    0.20    2.90
  -6  -4   1    0.30    3.50
   5   4  -1    5.40    2.60
   5   4  -1    4.20    2.30
  -5  -4   1    8.00    2.80
  -5  -4   1    2.80    2.70
   4   4  -1    0.40    1.60
   4   4  -1    0.50    2.90
   4   4  -1    3.10    1.50
   4   4  -1    2.10    1.00
  -4  -4   1    1.00    1.60
  -4  -4   1    3.90    2.00
  -4  -4   1    2.60    1.90
  -4  -4   1    4.30    2.70
   3   4  -1    2.00    0.60
   3   4  -1    2.50    1.20
   3   4  -1    2.50    1.40
   3   4  -1    0.10    1.00
   3   4  -1    2.60    1.80
   3   4  -1   -3.00    2.10
  -3  -4   1    5.30    1.90
  -3  -4   1    0.90    1.20
  -3  -4   1    1.60    1.30
  -3  -4   1    2.40    1.30
  -3  -4   1    2.90    1.60
   2   4  -1   47.80    2.80
   2   4  -1   52.29    2.90
   2   4  -1   48.00    2.70
   2   4  -1   45.10    2.50
   2   4  -1   47.00    3.00
   2   4  -1   45.30    2.10
  -2  -4   1   44.20    2.50
  -2  -4   1   46.20    2.60
  -2  -4   1   51.49    2.70
  -2  -4   1   47.20    2.80
  -2  -4   1   46.70    2.00
  -2  -4   1   45.80    2.50
   1   4  -1   40.70    2.20
   1   4  -1   44.30    2.20
   1   4  -1   47.00    2.30
   1   4  -1   44.00    1.70
   1   4  -1   47.50    2.30
   1   4  -1   42.20    2.70
  -1  -4   1   43.40    1.80
  -1  -4   1   43.00    1.60
  -1  -4   1   43.50    2.40
  -1  -4   1   45.90    2.30
  -1  -4   1   43.70    2.30
  -1  -4   1   45.30    2.50
  -1  -4   1   44.10    1.90
   0   4  -1   23.70    1.10
   0   4  -1   21.90    1.90
   0   4  -1   25.40    1.20
   0   4  -1   24.60    1.70
   0   4  -1   23.30    1.10
   0   4  -1   20.40    1.70
   0   4  -1   26.90    2.20
   0   4  -1   23.50    1.60
   0  -4   1   21.80    2.00
   0  -4   1   24.80    1.80
   0  -4   1   25.40    1.50
   0  -4   1   23.40    2.00
   0  -4   1   24.90    1.70
  -1   4  -1 1040.10   24.40
  -1   4  -1  934.31   24.80
  -1   4  -1 1089.79   25.80
  -1   4  -1 1096.39   24.90
  -1   4  -1 1068.19   24.70
  -1   4  -1 1112.79   25.80
  -1   4  -1 1076.99   25.40
   1  -4   1 1046.30   24.90
   1  -4   1 1046.70   25.20
   1  -4   1 1037.90   25.70
   1  -4   1 1073.89   25.70
   1  -4   1 1043.80   24.70
  -2   4  -1   62.69    3.20
  -2   4  -1   59.09    3.60
  -2   4  -1   63.19    1.90
  -2   4  -1   64.69    3.20
  -2   4  -1   63.49    3.90
  -2   4  -1   63.89    3.40
  -2   4  -1   62.09    2.30
  -2   4  -1   66.99    3.20
  -2   4  -1   63.29    1.80
   2  -4   1   62.19    3.20
   2  -4   1   58.99    2.90
   2  -4   1   58.79    3.60
   2  -4   1   61.09    3.80
  -3   4  -1    5.90    1.20
  -3   4  -1    5.70    2.00
  -3   4  -1    2.80    1.80
  -3   4  -1    6.30    2.30
  -3   4  -1    5.70    0.70
  -3   4  -1    2.20    1.60
  -3   4  -1    4.40    1.70
  -3   4  -1    7.60    1.90
   3  -4   1    3.00    1.90
   3  -4   1    4.60    1.80
   3  -4   1    2.60    1.20
  -4   4  -1   99.29    4.60
  -4   4  -1   93.49    5.30
  -4   4  -1   97.39    4.50
  -4   4  -1   95.69    5.60
  -4   4  -1   96.09    5.30
  -4   4  -1  102.99    6.50
  -4   4  -1   97.29    4.40
   4  -4   1   99.49    5.10
   4  -4   1  101.19    4.90
   4  -4   1   94.59    5.80
  -5   4  -1   20.90    3.30
  -5   4  -1   25.30    3.80
  -5   4  -1   26.40    4.30
   5  -4   1   26.30    3.60
   5  -4   1   26.40    3.60
   5  -4   1   20.10    4.00
  -6   4  -1    1.20    4.10
   6  -4   1   -0.10    3.90
   6  -4   1    1.50    3.10
  -7   4  -1   13.90    5.30
  -7   4  -1    9.90    5.80
   7  -4   1    9.10    5.60
   7  -4   1   10.90    4.70
   7   3  -1    7.30    3.90
   7   3  -1   -0.40    2.80
   7   3  -1    5.40    3.50
  -7  -3   1    4.80    4.50
  -7  -3   1   -3.60    4.80
   6   3  -1    5.50    3.00
   6   3  -1   -1.40    3.60
   6   3  -1    7.20    3.10
  -6  -3   1    3.90    3.80
   5   3  -1    8.60    2.10
   5   3  -1    4.60    2.40
  -5  -3   1    3.60    2.40
  -5  -3   1    7.20    2.70
   4   3  -1    5.30    2.60
   4   3  -1    1.20    2.70
   4   3  -1   -1.30    1.40
   4   3  -1    2.30    1.40
  -4  -3   1    4.80    2.00
  -4  -3   1    4.40    2.40
  -4  -3   1    5.90    2.10
  -4  -3   1   -0.90    1.60
  -4  -3   1    0.60    1.60
   3   3  -1   24.40    2.30
   3   3  -1   24.00    2.90
   3   3  -1   25.20    2.80
   3   3  -1   22.60    2.00
   3   3  -1   23.50    1.60
  -3  -3   1   19.20    2.20
  -3  -3   1   23.60    2.30
  -3  -3   1   27.70    2.20
  -3  -3   1   22.40    2.20
  -3  -3   1   24.60    2.70
   2   3  -1  161.48    4.70
   2   3  -1  161.18    5.50
   2   3  -1  158.48    5.30
   2   3  -1  157.88    4.10
   2   3  -1  152.68    5.20
  -2  -3   1  154.08    5.20
  -2  -3   1  154.88    5.10
  -2  -3   1  157.58    5.20
  -2  -3   1  162.78    4.60
  -2  -3   1  154.78    5.00
   1   3  -1    3.00    0.50
   1   3  -1    0.70    0.60
   1   3  -1    2.80    0.70
   1   3  -1    1.80    0.80
   1   3  -1    1.50    0.60
   1   3  -1    1.20    0.60
   1   3  -1    2.40    0.80
  -1  -3   1    3.00    0.70
  -1  -3   1    2.90    0.90
  -1  -3   1    2.60    0.60
  -1  -3   1    1.70    0.60
  -1  -3   1    2.30    0.70
  -1  -3   1    3.20    0.50
   0   3  -1   20.80    0.80
   0   3  -1   19.90    1.20
   0   3  -1   20.00    1.60
   0   3  -1   20.60    1.50
   0   3  -1   18.80    0.90
   0   3  -1   20.20    1.10
   0   3  -1   20.90    0.90
   0   3  -1   20.30    1.30
   0   3  -1   19.90    1.70
   0  -3   1   19.50    1.70
   0  -3   1   22.20    1.60
   0  -3   1   21.50    1.20
   0  -3   1   16.90    1.40
  -1   3  -1  221.18    6.00
  -1   3  -1  218.88    5.80
  -1   3  -1  204.48    5.70
   1  -3   1  210.58    6.60
   1  -3   1  214.38    6.60
   1  -3   1  207.48    6.30
   1  -3   1  210.58    6.20
  -2   3  -1   17.20    1.00
  -2   3  -1   17.90    1.80
  -2   3  -1   16.50    1.00
  -2   3  -1   17.00    1.90
  -2   3  -1   18.90    1.70
  -2   3  -1   18.30    1.00
  -2   3  -1   18.90    2.10
  -2   3  -1   19.10    2.30
  -2   3  -1   17.30    1.70
   2  -3   1   14.60    1.90
   2  -3   1   18.20    2.10
   2  -3   1   15.80    1.50
  -3   3  -1  524.15   12.00
  -3   3  -1  523.65   14.60
  -3   3  -1  538.55   14.70
  -3   3  -1  544.25   13.50
  -3   3  -1  529.05   14.20
  -3   3  -1  529.95   14.00
  -3   3  -1  524.55   13.90
  -3   3  -1  527.05   13.10
  -3   3  -1  539.95   13.90
   3  -3   1  538.05   13.90
   3  -3   1  501.85   14.80
   3  -3   1  526.45   14.00
  -4   3  -1  100.49    5.60
  -4   3  -1   95.29    4.40
  -4   3  -1  102.49    4.90
  -4   3  -1  106.99    4.60
  -4   3  -1  103.69    5.80
  -4   3  -1  104.29    4.50
   4  -3   1  100.09    4.80
   4  -3   1  104.19    5.50
   4  -3   1  102.99    4.70
   4  -3   1   92.79    5.70
  -5   3  -1    9.30    2.50
  -5   3  -1    6.30    2.70
  -5   3  -1    9.40    3.10
  -5   3  -1   13.50    3.40
   5  -3   1   10.10    1.10
   5  -3   1   12.00    2.60
   5  -3   1    9.10    1.20
   5  -3   1   12.60    3.20
   6  -3   1   27.20    4.60
   6  -3   1   23.40    4.00
  -7   3  -1    0.60    5.40
  -7   3  -1   -0.60    4.40
   7  -3   1   -2.60    5.30
   7  -3   1   10.90    4.20
   7   2  -1    0.50    3.70
   7   2  -1    1.00    3.30
  -7  -2   1   -3.50    4.20
  -7  -2   1    0.00    4.60
   6   2  -1   -1.10    2.70
   6   2  -1   -4.70    2.50
   6   2  -1    0.10    1.90
   6   2  -1    0.70    2.40
  -6  -2   1    2.20    2.90
  -6  -2   1    5.10    3.30
   5   2  -1   -1.80    1.90
   5   2  -1   -1.40    1.60
   5   2  -1    0.90    1.30
   5   2  -1    0.60    1.90
  -5  -2   1    1.30    2.40
  -5  -2   1    4.00    2.30
   4   2  -1    5.20    1.50
   4   2  -1    6.40    2.60
   4   2  -1    3.90    2.50
   4   2  -1    1.40    1.50
   4   2  -1    6.10    1.10
  -4  -2   1    7.50    2.00
  -4  -2   1    3.20    1.80
  -4  -2   1    3.10    2.30
  -4  -2   1    3.60    1.60
  -4  -2   1    8.80    2.30
   3   2  -1    1.00    1.50
   3   2  -1    0.00    0.50
   3   2  -1    2.40    1.50
   3   2  -1   -1.50    0.90
   3   2  -1   -0.70    0.80
   3   2  -1    1.50    0.50
  -3  -2   1    0.00    1.00
  -3  -2   1   -0.60    1.10
  -3  -2   1    0.20    1.30
  -3  -2   1    0.10    1.00
  -3  -2   1    0.60    1.00
   2   2  -1  148.19    5.00
   2   2  -1  142.79    4.00
   2   2  -1  141.39    4.50
   2   2  -1  138.09    4.70
  -2  -2   1  137.79    4.70
  -2  -2   1  149.39    4.50
  -2  -2   1  146.99    4.50
  -2  -2   1  139.39    4.70
  -2  -2   1  145.49    4.90
   1   2  -1 8798.72  197.68
   1   2  -1 8789.52  199.38
   1   2  -1 9505.25  201.98
   1   2  -1 8846.82  200.98
   1   2  -1 8375.16  200.38
  -1  -2   1 8954.80  199.58
  -1  -2   1 9055.59  200.68
  -1  -2   1 9014.10  200.38
  -1  -2   1 8767.32  197.98
  -1  -2   1 8918.41  199.98
  -1  -2   1 8964.10  200.08
   0   2  -1  244.58    6.50
   0   2  -1  250.87    6.40
   0   2  -1  244.98    6.00
   0   2  -1  249.97    6.40
   0   2  -1  238.08    5.70
   0   2  -1  245.18    5.60
   0   2  -1  246.28    6.00
   0   2  -1  241.68    5.70
   0   2  -1  247.38    6.20
   0  -2   1  245.58    5.90
   0  -2   1  251.47    6.50
   0  -2   1  237.38    6.20
   0  -2   1  253.87    6.40
   0  -2   1  245.08    6.50
  -1   2  -1  536.55   12.70
  -1   2  -1  532.95   13.00
  -1   2  -1  543.85   13.20
  -1   2  -1  521.25   12.40
  -1   2  -1  551.34   13.10
  -1   2  -1  550.94   12.90
  -1   2  -1  538.45   13.30
   1  -2   1  536.45   13.20
   1  -2   1  526.05   13.40
   1  -2   1  534.05   12.70
   1  -2   1  534.45   12.90
   1  -2   1  531.45   12.90
  -2   2  -1 1199.48   26.90
  -2   2  -1 1168.38   28.10
  -2   2  -1 1216.18   27.70
  -2   2  -1 1159.18   26.40
  -2   2  -1 1181.98   26.90
  -2   2  -1 1220.28   28.10
  -2   2  -1 1205.98   27.50
   2  -2   1 1222.68   28.40
   2  -2   1 1149.48   27.50
   2  -2   1 1242.78   28.40
   2  -2   1 1090.49   28.50
  -3   2  -1   31.50    2.20
  -3   2  -1   31.90    2.10
  -3   2  -1   33.10    2.40
  -3   2  -1   30.60    2.60
  -3   2  -1   34.40    2.80
  -3   2  -1   33.50    2.30
  -3   2  -1   32.70    2.80
   3  -2   1   30.30    2.70
   3  -2   1   31.50    1.40
   3  -2   1   31.90    2.40
   3  -2   1   31.90    2.20
   3  -2   1   32.30    1.50
   3  -2   1   34.40    3.00
  -4   2  -1   78.69    4.00
  -4   2  -1   82.29    4.10
  -4   2  -1   76.29    4.00
  -4   2  -1   75.49    4.80
  -4   2  -1   75.19    3.90
   4  -2   1   79.99    2.90
   4  -2   1   81.59    4.60
   4  -2   1   94.09    5.40
   4  -2   1   74.49    3.10
   4  -2   1   74.49    3.70
   4  -2   1   74.19    3.90
  -5   2  -1    0.10    2.40
  -5   2  -1    4.30    2.30
  -5   2  -1    1.60    2.00
   5  -2   1    0.10    1.00
   5  -2   1   -2.70    2.10
   5  -2   1    0.70    1.60
   5  -2   1    0.90    1.70
  -6   2  -1   58.79    7.10
  -6   2  -1   46.60    5.20
   6  -2   1   43.40    2.90
   6  -2   1   47.10    5.50
   6  -2   1   40.10    6.70
   6  -2   1   43.30    4.10
  -7   2  -1    5.40    4.50
  -7   2  -1    8.10    4.90
   7  -2   1   -3.70    3.70
   7  -2   1    9.10    4.60
   7  -2   1    3.30    2.10
   7   1  -1    7.80    3.30
   7   1  -1    5.70    3.60
  -7  -1   1   10.20    5.00
  -7  -1   1   -5.40    4.10
   6   1  -1    7.50    2.70
   6   1  -1    5.00    1.80
   6   1  -1    3.50    1.50
   6   1  -1    3.20    2.30
  -6  -1   1    4.30    3.50
  -6  -1   1    2.40    3.00
   5   1  -1    2.20    1.30
   5   1  -1    7.10    3.20
   5   1  -1    9.20    1.80
   5   1  -1    4.00    1.90
   5   1  -1    5.30    2.30
   5   1  -1    4.20    1.70
  -5  -1   1    8.50    2.50
  -5  -1   1    5.90    2.50
   4   1  -1    1.80    1.40
   4   1  -1    1.20    1.30
   4   1  -1    1.10    2.10
   4   1  -1    4.50    1.40
   4   1  -1    1.40    2.10
   4   1  -1    2.60    1.20
  -4  -1   1    2.10    1.80
  -4  -1   1    4.50    1.80
  -4  -1   1    3.20    1.90
  -4  -1   1    3.40    1.60
   3   1  -1  501.35   13.10
   3   1  -1  479.15   12.90
   3   1  -1  520.75   13.90
   3   1  -1  524.35   13.50
   3   1  -1  493.65   12.10
  -3  -1   1  505.25   13.70
  -3  -1   1  507.35   13.00
  -3  -1   1  510.45   13.40
   2   1  -1 1349.66   29.80
   2   1  -1 1268.17   29.30
   2   1  -1 1253.17   29.20
   2   1  -1 1280.77   28.20
   2   1  -1 1374.26   29.60
  -2  -1   1 1281.07   29.90
  -2  -1   1 1214.48   29.60
  -2  -1   1 1191.28   30.10
  -2  -1   1 1175.68   29.80
   1   1  -1 3161.58   71.69
   1   1  -1 3200.08   71.59
   1   1  -1 2936.11   70.19
   1   1  -1 3047.79   71.69
  -1  -1   1 3234.98   71.49
  -1  -1   1 3154.88   70.99
  -1  -1   1 3116.09   72.29
  -1  -1   1 3099.49   71.39
   0   1  -1   -0.20    0.20
   0   1  -1    0.10    0.10
   0   1  -1   -0.10    0.10
   0   1  -1    0.20    0.10
   0   1  -1   -0.20    0.20
   0   1  -1    0.20    0.10
   0   1  -1    0.30    0.20
   0   1  -1    0.10    0.20
   0  -1   1    0.30    0.10
   0  -1   1    0.20    0.10
   0  -1   1   -0.10    0.20
   0  -1   1    0.30    0.10
   0  -1   1    0.00    0.20
   0  -1   1   -0.20    0.20
  -1   1  -1    0.90    0.40
  -1   1  -1    1.60    0.30
  -1   1  -1    1.30    0.20
  -1   1  -1    1.50    0.60
  -1   1  -1    1.10    0.30
  -1   1  -1    1.10    0.40
  -1   1  -1    1.10    0.50
   1  -1   1    1.50    0.20
   1  -1   1    1.10    0.20
   1  -1   1    1.00    0.60
   1  -1   1    0.80    0.40
   1  -1   1    0.90    0.30
   1  -1   1    1.30    0.20
  -2   1  -1  209.08    5.60
  -2   1  -1  211.78    5.70
  -2   1  -1  216.08    5.70
  -2   1  -1  206.78    5.10
  -2   1  -1  209.48    5.80
  -2   1  -1  206.08    6.10
  -2   1  -1  196.58    7.00
   2  -1   1  210.88    5.40
   2  -1   1  216.98    6.40
   2  -1   1  210.28    5.40
   2  -1   1  208.18    5.70
   2  -1   1  205.08    4.90
   2  -1   1  211.08    6.40
  -3   1  -1  281.57    7.80
  -3   1  -1  287.27    7.70
  -3   1  -1  269.67    8.70
  -3   1  -1  280.17    7.30
  -3   1  -1  267.87    8.00
   3  -1   1  265.77    7.30
   3  -1   1  268.77    7.40
   3  -1   1  270.87    8.60
   3  -1   1  277.87    6.40
   3  -1   1  278.97    8.00
   3  -1   1  275.37    8.40
   3  -1   1  268.97    7.30
  -4   1  -1    1.80    1.70
  -4   1  -1    5.00    1.70
  -4   1  -1    5.60    1.90
  -4   1  -1    3.40    1.60
   4  -1   1    3.60    1.50
   4  -1   1    2.20    1.50
   4  -1   1    3.80    0.50
   4  -1   1    4.50    1.20
   4  -1   1    6.00    2.50
   4  -1   1    2.10    1.50
  -5   1  -1   26.00    3.50
  -5   1  -1   27.20    4.00
   5  -1   1   26.70    2.50
   5  -1   1   35.20    3.60
   5  -1   1   27.00    3.20
   5  -1   1   25.50    3.50
  -6   1  -1   11.50    4.00
  -6   1  -1   12.00    3.80
  -6   1  -1    6.20    3.40
   6  -1   1    3.50    3.40
   6  -1   1   10.90    2.20
   6  -1   1   10.10    3.30
   6  -1   1    9.10    3.00
  -7   1  -1   -0.20    4.60
  -7   1  -1    5.30    4.40
   7  -1   1   -1.00    2.50
   7  -1   1    6.70    3.80
   7  -1   1   10.60    4.40
   7   0  -1   14.20    3.40
   7   0  -1   15.60    4.20
  -7   0   1    8.90    4.90
  -7   0   1    7.40    4.40
   6   0  -1    1.80    2.00
   6   0  -1    4.40    2.60
  -6   0   1   -5.90    2.60
  -6   0   1    4.60    3.30
  -6   0   1   -1.10    2.30
   5   0  -1    1.10    0.90
   5   0  -1   -0.70    1.70
   5   0  -1    1.00    1.60
   5   0  -1    3.30    2.90
   5   0  -1    0.40    0.90
   5   0  -1    0.20    0.80
   5   0  -1    2.70    1.60
  -5   0   1   -2.60    1.80
  -5   0   1   -1.80    2.20
   4   0  -1  104.39    4.30
   4   0  -1  107.29    4.30
   4   0  -1  113.69    5.70
   4   0  -1  104.59    3.50
   4   0  -1  102.99    3.30
   4   0  -1  112.19    5.10
   4   0  -1  102.89    3.40
   4   0  -1  107.09    4.60
  -4   0   1  110.59    5.10
  -4   0   1  106.39    4.60
  -4   0   1  108.99    5.30
  -4   0   1  105.79    4.90
   3   0  -1   47.70    3.20
   3   0  -1   46.90    2.00
   3   0  -1   49.60    2.50
   3   0  -1   48.80    3.00
   3   0  -1   49.40    2.60
   3   0  -1   45.50    2.40
  -3   0   1   51.59    2.70
  -3   0   1   51.19    2.80
   2   0  -1   89.99    3.30
   2   0  -1   88.99    3.10
   2   0  -1   94.19    3.60
   2   0  -1   90.59    2.90
   2   0  -1   75.59    3.20
  -2   0   1   92.39    3.10
  -2   0   1   91.39    3.20
  -2   0   1   88.79    2.80
   1   0  -1 2599.74   59.29
   1   0  -1 2703.93   59.29
   1   0  -1 2505.25   57.79
   1   0  -1 2399.46   58.29
   1   0  -1 2634.34   58.59
  -1   0   1 2579.04   58.69
  -1   0   1 2601.24   59.59
  -1   0   1 2497.65   57.89
  -1   0   1 2669.43   59.99
  -1   0   1 2649.33   58.39
  -1   0  -1 2735.43   61.89
  -1   0  -1 2753.62   63.09
  -1   0  -1 2701.73   61.59
  -1   0  -1 2831.62   62.69
  -1   0  -1 2700.73   61.79
   1   0   1 2556.14   61.59
   1   0   1 2530.15   60.99
   1   0   1 2704.83   61.39
   1   0   1 2810.62   62.19
   1   0   1 2846.62   62.29
  -2   0  -1   80.29    2.90
  -2   0  -1   77.29    2.30
  -2   0  -1   80.59    2.70
  -2   0  -1   75.39    2.90
   2   0   1   73.89    2.70
   2   0   1   78.59    2.80
   2   0   1   74.99    2.30
   2   0   1   74.59    2.90
   2   0   1   73.79    3.20
   2   0   1   73.69    2.70
  -3   0  -1  199.58    7.00
  -3   0  -1  212.48    6.50
  -3   0  -1  204.28    6.60
  -3   0  -1  215.08    6.20
   3   0   1  208.68    6.40
   3   0   1  206.28    6.40
   3   0   1  214.28    7.20
   3   0   1  208.58    6.60
   3   0   1  205.68    6.20
   3   0   1  205.38    6.20
   3   0   1  213.38    5.40
  -4   0  -1   38.10    3.40
  -4   0  -1   41.80    3.00
  -4   0  -1   35.80    3.00
  -4   0  -1   34.50    3.40
   4   0   1   37.40    1.70
   4   0   1   34.20    2.90
   4   0   1   38.50    3.00
   4   0   1   37.60    4.00
   4   0   1   38.60    2.80
   4   0   1   35.40    2.60
  -5   0  -1  133.89    6.50
  -5   0  -1  132.79    7.10
   5   0   1  140.59    6.20
   5   0   1  137.69    6.00
   5   0   1  136.19    4.00
   5   0   1  139.49    6.30
   5   0   1  135.09    5.40
  -6   0  -1   85.39    6.30
  -6   0  -1   94.09    6.80
   6   0   1   88.49    5.00
   6   0   1   78.29    6.30
   6   0   1   92.69    5.80
   6   0   1   85.79    5.80
   6   0   1   86.39    2.70
   6   0   1   80.99    2.90
  -7   0  -1    0.30    4.50
  -7   0  -1   -7.60    4.30
   7   0   1   -1.30    3.70
   7   0   1   -2.10    2.80
   7   0   1   -2.00    3.30
   7  -1  -1    5.40    3.60
   7  -1  -1    0.80    2.60
  -7   1   1    1.30    4.10
  -7   1   1    2.80    4.90
   6  -1  -1   63.99    5.10
   6  -1  -1   57.69    6.50
   6  -1  -1   68.59    4.10
   6  -1  -1   66.59    5.10
  -6   1   1   63.99    6.60
  -6   1   1   68.19    5.70
  -6   1   1   60.99    4.80
   5  -1  -1   34.90    2.80
   5  -1  -1   37.10    3.50
   5  -1  -1   33.70    3.40
   5  -1  -1   37.60    2.90
   5  -1  -1   37.80    4.10
  -5   1   1   30.10    3.80
  -5   1   1   37.60    3.10
  -5   1   1   35.30    3.60
   4  -1  -1    1.10    1.10
   4  -1  -1    2.20    1.00
   4  -1  -1    3.40    1.70
   4  -1  -1    4.90    2.40
   4  -1  -1    2.90    1.40
  -4   1   1    0.60    1.10
  -4   1   1    2.90    1.70
  -4   1   1    6.60    2.10
  -4   1   1    1.90    1.60
   3  -1  -1  359.16   10.40
   3  -1  -1  355.56    9.20
   3  -1  -1  345.77    9.70
   3  -1  -1  353.36    9.80
   3  -1  -1  341.97    9.10
  -3   1   1  361.96    9.60
  -3   1   1  337.87   10.20
  -3   1   1  349.96    9.70
  -3   1   1  359.26    9.70
  -3   1   1  365.46   10.40
   2  -1  -1  591.34   15.50
   2  -1  -1  630.14   14.90
   2  -1  -1  592.64   14.40
   2  -1  -1  626.94   15.10
   2  -1  -1  640.34   15.50
   2  -1  -1  601.34   14.70
  -2   1   1  640.34   15.00
  -2   1   1  616.24   14.70
  -2   1   1  656.13   15.20
  -2   1   1  609.34   14.40
  -2   1   1  636.24   14.90
  -2   1   1  610.74   14.90
   1  -1  -1   21.70    0.80
   1  -1  -1   20.30    1.10
   1  -1  -1   22.20    0.70
   1  -1  -1   22.00    1.20
   1  -1  -1   21.90    0.90
   1  -1  -1   22.50    1.00
   1  -1  -1   23.00    1.20
  -1   1   1   23.60    1.20
  -1   1   1   20.50    1.20
  -1   1   1   21.70    1.10
  -1   1   1   22.90    0.60
  -1   1   1   22.30    1.00
  -1   1   1   22.20    0.90
  -1   1   1   22.90    0.90
   0  -1  -1  851.61   20.40
   0  -1  -1  966.50   21.50
   0  -1  -1  875.01   20.40
   0  -1  -1  955.20   21.30
   0   1   1  896.71   20.30
   0   1   1  882.71   20.40
   0   1   1  946.81   21.00
   0   1   1  928.81   20.90
  -1  -1  -1  825.52   18.70
  -1  -1  -1  828.02   18.80
  -1  -1  -1  844.72   19.00
  -1  -1  -1  809.02   18.90
  -1  -1  -1  840.22   18.90
   1   1   1  804.72   18.90
   1   1   1  848.42   18.90
   1   1   1  817.72   18.90
   1   1   1  828.22   19.00
   1   1   1  800.12   18.70
  -2  -1  -1  107.19    4.60
  -2  -1  -1  130.19    3.90
  -2  -1  -1  122.79    4.00
   2   1   1  115.79    3.80
   2   1   1  126.99    4.30
   2   1   1  123.69    3.70
   2   1   1  129.09    4.10
  -3  -1  -1    2.40    1.00
  -3  -1  -1    1.20    1.00
  -3  -1  -1    1.60    1.10
  -3  -1  -1    3.50    1.40
  -3  -1  -1   -0.30    1.10
   3   1   1    2.40    1.30
   3   1   1    1.30    0.80
   3   1   1    1.50    1.20
   3   1   1    0.80    1.00
   3   1   1    1.60    0.80
  -4  -1  -1   52.49    3.40
  -4  -1  -1   51.49    4.10
  -4  -1  -1   57.39    3.70
  -4  -1  -1   59.89    3.90
  -4  -1  -1   54.99    3.90
   4   1   1   52.39    3.30
   4   1   1   54.79    3.80
   4   1   1   57.29    3.20
   4   1   1   65.89    4.50
   4   1   1   57.89    3.20
   4   1   1   53.89    2.80
   4   1   1   60.29    3.30
  -5  -1  -1   76.29    5.00
  -5  -1  -1   81.39    5.60
   5   1   1   86.99    3.60
   5   1   1   90.09    4.80
   5   1   1   83.39    4.60
   5   1   1   90.49    5.70
   5   1   1   84.39    4.70
   5   1   1   83.09    4.60
  -6  -1  -1   25.80    4.30
  -6  -1  -1   21.80    4.50
   6   1   1   26.10    2.60
   6   1   1   24.20    3.40
   6   1   1   21.10    3.60
   6   1   1   22.70    3.40
  -7  -1  -1   -5.00    4.30
  -7  -1  -1   -0.10    4.40
   7   1   1   -1.20    3.40
   7   1   1   -4.00    3.50
   7  -2  -1    8.40    4.00
   7  -2  -1    4.60    2.40
  -7   2   1   -6.50    4.60
  -7   2   1   -1.70    4.30
   6  -2  -1   78.29    3.80
   6  -2  -1   74.69    4.40
   6  -2  -1   73.69    8.40
   6  -2  -1   74.89    5.90
  -6   2   1   63.89    5.70
  -6   2   1   76.59    5.40
  -6   2   1   80.39    6.80
   5  -2  -1   29.40    3.10
   5  -2  -1   26.10    3.60
   5  -2  -1   33.20    3.70
   5  -2  -1   30.20    2.30
   5  -2  -1   31.30    3.40
  -5   2   1   33.30    3.30
  -5   2   1   34.90    3.60
  -5   2   1   31.50    4.20
   4  -2  -1   21.00    2.20
   4  -2  -1   14.40    1.50
   4  -2  -1   17.20    3.00
   4  -2  -1   17.40    2.50
   4  -2  -1   20.10    2.30
   4  -2  -1   18.30    2.30
  -4   2   1   16.30    2.70
  -4   2   1   17.10    2.70
  -4   2   1   16.10    2.20
  -4   2   1   16.70    2.30
  -4   2   1   20.90    2.70
   3  -2  -1   27.80    1.90
   3  -2  -1   27.70    2.30
   3  -2  -1   27.80    2.30
   3  -2  -1   30.50    2.80
   3  -2  -1   27.10    2.10
  -3   2   1   30.30    2.40
  -3   2   1   24.50    2.40
  -3   2   1   27.20    1.90
  -3   2   1   26.40    2.50
  -3   2   1   27.90    2.20
  -3   2   1   26.70    2.10
   2  -2  -1  358.86    8.70
   2  -2  -1  371.46    9.60
   2  -2  -1  366.06    9.00
   2  -2  -1  371.16   10.00
  -2   2   1  377.46   10.10
  -2   2   1  375.16    9.30
  -2   2   1  372.06    9.10
  -2   2   1  372.96    9.60
   1  -2  -1 5678.53  130.09
   1  -2  -1 5786.22  131.79
   1  -2  -1 5614.74  126.99
   1  -2  -1 5869.01  131.69
   1  -2  -1 5919.91  131.69
   1  -2  -1 5698.53  127.39
   1  -2  -1 5708.13  130.99
  -1   2   1 5694.53  128.49
  -1   2   1 5740.23  129.59
  -1   2   1 5598.44  129.39
  -1   2   1 5929.21  131.39
  -1   2   1 5810.32  127.99
  -1   2   1 5588.44  130.29
  -1   2   1 5885.01  131.19
   0  -2  -1  462.05   10.90
   0  -2  -1  447.46   10.20
   0  -2  -1  448.36   10.10
   0  -2  -1  425.46   10.20
   0  -2  -1  444.46   10.40
   0   2   1  433.06   10.50
   0   2   1  465.55   10.30
   0   2   1  454.55   10.20
   0   2   1  445.66   10.20
   0   2   1  442.26   10.40
  -1  -2  -1  538.75   12.80
  -1  -2  -1  565.34   13.00
  -1  -2  -1  551.34   13.20
  -1  -2  -1  546.65   13.00
  -1  -2  -1  541.45   12.90
  -1  -2  -1  551.34   12.90
   1   2   1  525.95   13.00
   1   2   1  592.54   13.30
   1   2   1  559.44   12.90
   1   2   1  539.65   12.90
  -2  -2  -1   46.40    1.40
  -2  -2  -1   44.50    2.40
  -2  -2  -1   46.60    2.50
  -2  -2  -1   45.80    2.20
   2   2   1   44.60    2.80
   2   2   1   45.40    2.10
   2   2   1   43.80    2.30
   2   2   1   49.10    2.50
  -3  -2  -1   14.30    2.00
  -3  -2  -1   11.90    1.60
  -3  -2  -1    9.20    1.70
  -3  -2  -1   12.50    1.80
  -3  -2  -1    9.30    1.60
   3   2   1   14.10    2.20
   3   2   1    9.00    1.40
   3   2   1   11.40    1.80
   3   2   1   11.20    1.90
  -4  -2  -1    1.30    1.70
  -4  -2  -1    1.30    2.10
  -4  -2  -1    0.50    2.10
  -4  -2  -1   -1.70    1.40
  -4  -2  -1    3.20    1.70
   4   2   1    2.20    2.10
   4   2   1    3.50    1.50
   4   2   1    1.70    1.10
   4   2   1    2.00    1.50
   4   2   1    3.00    1.40
   4   2   1    1.00    2.20
  -5  -2  -1   11.80    3.00
  -5  -2  -1   12.00    2.90
   5   2   1   13.80    2.50
   5   2   1   10.40    2.20
   5   2   1    8.00    2.30
   5   2   1    9.30    2.30
   5   2   1   10.10    2.10
   5   2   1   10.90    5.70
  -6  -2  -1    4.00    3.50
   6   2   1    8.40    2.90
   6   2   1    7.50    3.00
   6   2   1    5.80    2.90
   6   2   1    5.80    2.50
   6   2   1    8.20    2.80
  -7  -2  -1   -3.80    4.50
  -7  -2  -1   -3.20    4.00
   7   2   1   -1.70    3.30
   7   2   1   -4.80    3.50
   7   2   1    7.60    3.50
   7  -3  -1    9.20    4.10
  -7   3   1    1.40    4.30
  -7   3   1  -10.40    4.70
   6  -3  -1    8.40    3.00
   6  -3  -1    4.20    2.90
   6  -3  -1    1.40    1.40
  -6   3   1    0.40    3.20
  -6   3   1    0.90    2.90
   5  -3  -1   58.59    2.50
   5  -3  -1   55.99    4.30
   5  -3  -1   57.19    4.60
   5  -3  -1   59.09    4.30
   5  -3  -1   51.59    3.20
  -5   3   1   63.79    5.20
  -5   3   1   53.29    4.20
  -5   3   1   56.89    5.60
  -5   3   1   59.59    4.20
   4  -3  -1   -1.80    1.60
   4  -3  -1    1.20    1.40
   4  -3  -1    0.30    1.00
   4  -3  -1    0.80    1.70
   4  -3  -1    0.10    1.10
   4  -3  -1    0.20    2.50
  -4   3   1    1.10    1.70
  -4   3   1   -2.90    1.20
  -4   3   1   -0.70    1.70
  -4   3   1   -0.90    1.60
  -4   3   1    1.10    1.80
  -4   3   1    0.20    1.40
  -4   3   1    2.30    2.20
   3  -3  -1   24.80    2.80
   3  -3  -1   25.10    1.10
   3  -3  -1   26.10    2.30
   3  -3  -1   24.80    1.30
   3  -3  -1   27.70    2.60
   3  -3  -1   22.90    2.40
  -3   3   1   23.70    2.40
  -3   3   1   24.60    2.20
  -3   3   1   25.80    1.90
  -3   3   1   25.10    3.00
  -3   3   1   22.20    2.50
   2  -3  -1  920.61   21.70
   2  -3  -1  862.81   22.00
   2  -3  -1  886.21   22.50
   2  -3  -1  915.31   22.10
   2  -3  -1  899.11   22.30
  -2   3   1  909.11   20.40
  -2   3   1  916.11   22.00
  -2   3   1  887.71   22.00
  -2   3   1  958.40   21.70
  -2   3   1  930.61   22.40
  -2   3   1  908.31   20.60
  -2   3   1  893.51   22.20
   1  -3  -1  979.70   24.10
   1  -3  -1  979.20   22.40
  -1   3   1 1009.50   23.20
  -1   3   1 1008.70   22.90
  -1   3   1  997.30   22.80
  -1   3   1  961.60   21.80
  -1   3   1  930.91   22.70
  -1   3   1  971.40   22.40
  -1   3   1  969.00   22.50
  -1   3   1  968.70   23.40
  -1   3   1  980.00   21.90
   0  -3  -1  120.09    4.30
   0  -3  -1  130.19    3.60
   0  -3  -1  129.89    3.70
   0  -3  -1  118.49    4.50
   0  -3  -1  130.79    3.20
   0  -3  -1  133.89    3.10
   0   3   1  133.59    3.50
   0   3   1  132.99    3.40
   0   3   1  129.89    3.70
   0   3   1  131.29    3.60
   0   3   1  130.89    3.90
   0   3   1  134.69    4.30
  -1  -3  -1   70.09    2.70
  -1  -3  -1   71.39    2.30
  -1  -3  -1   72.69    2.40
  -1  -3  -1   74.99    2.80
  -1  -3  -1   72.19    2.70
  -1  -3  -1   74.59    2.50
   1   3   1   69.99    2.40
   1   3   1   74.09    2.40
   1   3   1   74.59    2.80
   1   3   1   68.79    2.70
  -2  -3  -1  205.08    6.30
  -2  -3  -1  204.28    5.40
  -2  -3  -1  206.68    6.10
  -2  -3  -1  187.08    6.40
  -2  -3  -1  210.78    6.10
   2   3   1  206.98    6.20
   2   3   1  200.38    6.00
   2   3   1  210.88    6.40
   2   3   1  205.18    6.30
   2   3   1  199.58    6.00
  -3  -3  -1  157.88    6.00
  -3  -3  -1  176.78    6.10
  -3  -3  -1  170.58    5.70
  -3  -3  -1  161.38    5.90
  -3  -3  -1  177.58    5.70
   3   3   1  161.58    5.90
   3   3   1  172.38    6.30
   3   3   1  161.48    5.60
   3   3   1  161.28    6.10
  -4  -3  -1    8.10    2.10
  -4  -3  -1    5.30    2.20
  -4  -3  -1    2.30    1.60
  -4  -3  -1    6.70    2.00
  -4  -3  -1    1.80    1.90
   4   3   1    4.50    1.40
   4   3   1    3.40    1.70
   4   3   1    1.60    2.50
   4   3   1    8.20    2.70
  -5  -3  -1   -4.30    2.20
  -5  -3  -1   -1.00    2.10
   5   3   1   -0.50    2.30
   5   3   1   -1.00    1.60
   5   3   1    0.70    1.60
   5   3   1   -1.60    2.00
  -6  -3  -1   48.50    5.70
   6   3   1   42.10    4.90
   6   3   1   38.90    3.70
   6   3   1   31.20    4.40
   6   3   1   39.40    5.20
   6   3   1   42.60    4.60
  -7  -3  -1   13.00    5.20
  -7  -3  -1   14.60    5.10
   7   3   1   15.00    4.20
   7   3   1   22.60    4.60
   7  -4  -1   29.50    5.30
  -7   4   1   19.80    6.20
  -7   4   1   14.80    4.90
   6  -4  -1   15.20    3.80
   6  -4  -1   12.70    3.70
  -6   4   1   16.00    3.70
  -6   4   1    4.00    4.40
   5  -4  -1   -1.20    2.00
   5  -4  -1   -0.10    2.60
   5  -4  -1    2.20    2.80
  -5   4   1   -2.80    2.50
  -5   4   1    4.00    2.60
  -5   4   1    0.50    2.00
   4  -4  -1   53.89    4.20
   4  -4  -1   46.00    3.50
   4  -4  -1   51.49    4.20
   4  -4  -1   58.49    4.80
  -4   4   1   43.30    3.00
  -4   4   1   40.70    3.80
  -4   4   1   45.10    4.90
  -4   4   1   54.09    3.50
  -4   4   1   49.10    4.10
  -4   4   1   49.60    3.70
   3  -4  -1   55.59    3.70
   3  -4  -1   53.19    3.70
   3  -4  -1   54.79    3.20
   3  -4  -1   51.99    3.70
  -3   4   1   56.49    3.50
  -3   4   1   51.89    3.40
  -3   4   1   54.89    2.50
  -3   4   1   48.20    4.10
  -3   4   1   53.59    3.30
  -3   4   1   50.29    3.40
   2  -4  -1  308.37    9.40
   2  -4  -1  300.57    9.40
   2  -4  -1  289.37    9.20
   2  -4  -1  311.87    8.80
   2  -4  -1  295.07    8.70
  -2   4   1  310.77    7.40
  -2   4   1  317.87    8.50
  -2   4   1  308.37    9.60
  -2   4   1  305.47    7.70
  -2   4   1  315.47    8.80
  -2   4   1  324.27    8.90
  -2   4   1  307.97    8.80
   1  -4  -1   25.70    1.90
   1  -4  -1   26.90    2.30
   1  -4  -1   26.60    1.70
  -1   4   1   24.20    2.30
  -1   4   1   24.40    1.70
  -1   4   1   27.30    1.60
  -1   4   1   24.50    1.80
  -1   4   1   26.80    1.00
  -1   4   1   26.60    1.00
  -1   4   1   26.20    2.30
  -1   4   1   26.30    1.50
  -1   4   1   27.00    2.10
   0  -4  -1   53.89    2.20
   0  -4  -1   53.09    2.70
   0  -4  -1   49.40    2.80
   0  -4  -1   52.69    2.10
   0   4   1   49.90    2.80
   0   4   1   51.49    2.40
   0   4   1   54.09    2.10
   0   4   1   53.19    2.00
   0   4   1   53.89    1.80
   0   4   1   53.29    2.40
  -1  -4  -1  125.29    4.10
  -1  -4  -1  122.39    3.70
  -1  -4  -1  122.29    3.60
  -1  -4  -1  113.09    4.30
  -1  -4  -1  118.09    3.50
   1   4   1  127.19    4.10
   1   4   1  119.69    4.10
   1   4   1  116.59    4.20
   1   4   1  121.19    3.60
   1   4   1  126.59    4.10
  -2  -4  -1  172.98    5.50
  -2  -4  -1  166.38    5.00
  -2  -4  -1  167.38    5.20
  -2  -4  -1  162.88    5.50
  -2  -4  -1  172.58    5.50
   2   4   1  164.18    5.40
   2   4   1  156.28    5.60
   2   4   1  163.98    5.10
   2   4   1  169.98    5.30
   2   4   1  174.18    5.40
   2   4   1  174.58    5.80
  -3  -4  -1   22.70    2.30
  -3  -4  -1   24.70    2.20
  -3  -4  -1   26.20    2.80
  -3  -4  -1   22.20    2.50
  -3  -4  -1   27.30    2.60
   3   4   1   21.40    2.10
   3   4   1   20.20    2.40
   3   4   1   23.00    2.70
   3   4   1   22.70    3.00
  -4  -4  -1    0.50    1.70
  -4  -4  -1    3.30    2.10
  -4  -4  -1    2.90    1.80
  -4  -4  -1    0.80    2.00
  -4  -4  -1    3.30    2.50
   4   4   1    0.60    1.60
   4   4   1   -0.90    1.20
   4   4   1   -0.30    2.60
   4   4   1    2.80    2.40
  -5  -4  -1    9.00    2.90
   5   4   1    7.40    2.60
   5   4   1   12.10    3.20
   5   4   1   10.50    2.40
  -6  -4  -1   35.10    5.20
  -6  -4  -1   23.90    4.60
   6   4   1   28.30    5.70
  -7  -4  -1   16.90    5.50
  -7  -4  -1   -7.40    4.50
   7   4   1   -1.20    3.60
   7   4   1   10.50    4.20
   7   4   1    2.10    4.10
   7  -5  -1   19.30    5.40
  -7   5   1   35.70    5.60
  -7   5   1   31.50    7.00
   6  -5  -1   14.70    4.50
   6  -5  -1    8.60    3.80
  -6   5   1    9.70    3.40
  -6   5   1    8.90    4.20
   5  -5  -1   24.10    3.80
   5  -5  -1   19.90    3.80
  -5   5   1   21.80    3.00
  -5   5   1   29.00    4.50
   4  -5  -1   68.99    5.00
   4  -5  -1   67.89    4.30
   4  -5  -1   66.29    5.10
  -4   5   1   52.59    4.70
  -4   5   1   62.39    4.70
  -4   5   1   77.99    4.00
  -4   5   1   67.89    4.90
  -4   5   1   69.79    3.60
   3  -5  -1   27.80    3.60
   3  -5  -1   23.10    3.20
   3  -5  -1   26.30    2.60
  -3   5   1   27.60    1.30
  -3   5   1   35.80    4.30
  -3   5   1   25.10    3.20
  -3   5   1   26.50    1.90
  -3   5   1   31.40    3.30
  -3   5   1   33.60    3.00
  -3   5   1   26.80    1.50
  -3   5   1   29.10    2.90
   2  -5  -1    2.40    1.20
   2  -5  -1    1.10    1.20
   2  -5  -1    0.50    1.60
  -2   5   1    0.70    1.30
  -2   5   1    0.50    1.10
  -2   5   1   -0.20    2.00
  -2   5   1    1.20    0.50
  -2   5   1    0.70    1.30
  -2   5   1    0.60    0.60
  -2   5   1    1.20    1.00
  -2   5   1   -0.10    1.00
   1  -5  -1    2.20    0.90
   1  -5  -1    0.90    1.50
   1  -5  -1    0.70    1.00
  -1   5   1    1.30    0.80
  -1   5   1    2.70    1.30
  -1   5   1    1.10    0.80
  -1   5   1    1.80    1.60
  -1   5   1    4.50    1.10
  -1   5   1    1.70    1.00
  -1   5   1    4.70    1.60
  -1   5   1    4.10    1.00
  -1   5   1    2.70    0.60
  -1   5   1    2.00    0.40
   0  -5  -1 1078.79   26.80
   0  -5  -1 1110.49   26.50
   0  -5  -1 1073.29   25.60
   0   5   1 1118.69   25.80
   0   5   1 1138.49   26.70
   0   5   1 1073.19   25.80
   0   5   1 1057.69   25.90
   0   5   1 1082.59   25.30
   0   5   1 1071.69   24.70
   0   5   1 1177.38   26.70
   0   5   1 1058.59   24.90
   0   5   1 1115.19   25.10
  -1  -5  -1   80.29    3.20
  -1  -5  -1   83.59    3.90
  -1  -5  -1   89.99    3.60
  -1  -5  -1   83.69    2.80
  -1  -5  -1   87.79    3.90
   1   5   1   84.39    3.90
   1   5   1   80.09    3.40
   1   5   1   85.09    2.90
   1   5   1   85.19    3.50
   1   5   1   82.19    3.00
   1   5   1   86.89    3.80
  -2  -5  -1    2.40    1.40
  -2  -5  -1    1.70    1.30
  -2  -5  -1    2.00    1.00
  -2  -5  -1   -0.40    1.10
   2   5   1    0.80    1.10
   2   5   1    2.00    1.50
   2   5   1    0.20    1.10
   2   5   1   -1.20    1.10
   2   5   1    0.80    0.80
   2   5   1    1.80    1.00
  -3  -5  -1   19.60    2.30
  -3  -5  -1   26.90    3.00
  -3  -5  -1   27.50    2.90
  -3  -5  -1   21.50    2.70
  -3  -5  -1   27.00    2.30
   3   5   1   24.10    3.20
   3   5   1   21.90    2.60
   3   5   1   20.00    2.30
   3   5   1   22.40    2.90
  -4  -5  -1   47.40    3.70
  -4  -5  -1   42.10    3.60
  -4  -5  -1   38.80    4.50
   4   5   1   40.60    3.30
   4   5   1   37.40    4.50
   4   5   1   45.90    3.90
  -5  -5  -1    4.20    2.60
  -5  -5  -1   -2.20    2.50
   5   5   1    1.70    2.00
   5   5   1    0.30    2.50
  -6  -5  -1   -1.10    3.50
  -6  -5  -1   -6.40    3.50
   6   5   1    1.50    1.80
   6   5   1   -2.30    3.00
   6   5   1   -3.30    3.20
  -7  -5  -1    4.40    5.10
  -7  -5  -1   11.40    5.20
   7   5   1    1.20    4.20
   7   5   1    0.50    4.00
   7   5   1  -11.50    4.30
   6  -6  -1    1.40    3.80
   6  -6  -1    2.90    5.00
  -6   6   1    4.40    3.40
  -6   6   1    6.80    4.60
   5  -6  -1   14.10    3.30
   5  -6  -1    2.10    3.90
  -5   6   1   12.30    3.90
  -5   6   1    7.40    2.50
   4  -6  -1    7.50    3.10
   4  -6  -1    6.40    2.30
  -4   6   1   12.60    2.30
  -4   6   1   10.70    2.70
  -4   6   1    9.30    1.80
   3  -6  -1   10.60    2.20
   3  -6  -1    8.60    2.90
   3  -6  -1   13.80    2.30
  -3   6   1   13.80    1.70
  -3   6   1   12.30    1.70
  -3   6   1   13.00    1.70
  -3   6   1   13.70    1.60
  -3   6   1   16.00    3.10
  -3   6   1   15.30    2.50
  -3   6   1   13.40    2.40
  -3   6   1   14.30    2.50
   2  -6  -1   -0.90    2.10
   2  -6  -1    2.20    1.40
   2  -6  -1    2.90    1.40
  -2   6   1    4.20    1.50
  -2   6   1    3.00    2.80
  -2   6   1    4.10    1.40
  -2   6   1    4.30    1.80
  -2   6   1    4.10    0.80
  -2   6   1    6.10    2.10
  -2   6   1    2.70    1.30
  -2   6   1    3.10    0.70
   1  -6  -1  130.99    5.30
   1  -6  -1  127.09    4.50
   1  -6  -1  119.99    5.60
  -1   6   1  125.09    4.90
  -1   6   1  128.69    5.90
  -1   6   1  127.79    4.20
  -1   6   1  133.29    4.50
  -1   6   1  125.59    3.60
  -1   6   1  122.69    3.40
  -1   6   1  124.59    4.50
  -1   6   1  128.89    4.80
  -1   6   1  119.19    5.90
  -1   6   1  128.29    5.50
   0  -6  -1    2.60    1.10
   0  -6  -1   -0.20    1.70
   0  -6  -1    2.40    1.00
   0  -6  -1    2.30    1.30
   0   6   1    1.00    1.90
   0   6   1    2.20    0.70
   0   6   1    3.50    1.00
   0   6   1    2.00    1.10
   0   6   1    2.40    1.30
   0   6   1    1.70    1.90
   0   6   1    1.30    1.00
   0   6   1    4.00    0.90
   0   6   1    2.00    0.80
  -1  -6  -1  225.78    5.80
  -1  -6  -1  233.18    6.90
  -1  -6  -1  229.28    6.50
  -1  -6  -1  223.78    7.60
  -1  -6  -1  234.48    7.20
  -1  -6  -1  226.88    7.80
  -1  -6  -1  214.08    6.30
   1   6   1  234.88    6.20
   1   6   1  229.88    6.50
   1   6   1  236.28    7.10
   1   6   1  226.88    6.80
   1   6   1  227.08    7.70
   1   6   1  223.38    7.10
   1   6   1  234.58    7.60
  -2  -6  -1   -3.80    1.60
  -2  -6  -1   -1.90    1.00
  -2  -6  -1    2.20    1.10
  -2  -6  -1    0.50    1.30
  -2  -6  -1    1.20    1.00
  -2  -6  -1   -0.50    1.00
  -2  -6  -1    1.10    1.20
  -2  -6  -1   -1.00    1.40
   2   6   1   -3.00    1.40
   2   6   1   -0.90    1.30
   2   6   1   -1.20    1.00
   2   6   1   -2.50    1.60
   2   6   1    1.30    1.80
   2   6   1    0.20    0.90
  -3  -6  -1   -0.10    1.30
  -3  -6  -1    1.30    2.00
  -3  -6  -1   -0.30    1.50
  -3  -6  -1   -2.80    1.40
  -3  -6  -1   -2.10    2.00
   3   6   1   -0.90    2.50
   3   6   1    1.60    2.00
   3   6   1    0.90    1.20
   3   6   1    0.20    1.70
   3   6   1   -1.30    1.40
  -4  -6  -1   37.40    3.80
  -4  -6  -1   44.40    3.70
  -4  -6  -1   43.20    4.10
   4   6   1   43.10    5.30
   4   6   1   42.90    3.60
   4   6   1   35.50    4.00
  -5  -6  -1    8.20    2.90
  -5  -6  -1   13.70    3.50
   5   6   1    3.10    2.40
   5   6   1    9.30    3.20
  -6  -6  -1    4.30    4.10
   6   6   1   -2.90    3.70
   6   6   1   -0.60    2.80
  -7  -6  -1    2.80    5.30
  -7  -6  -1    6.30    5.70
   7   6   1   -0.20    5.00
   7   6   1   -4.70    4.00
   6  -7  -1    3.20    4.10
   6  -7  -1   -0.80    5.90
  -6   7   1   -5.00    3.50
  -6   7   1    3.70    4.70
  -6   7   1    1.60    5.10
   5  -7  -1    2.90    4.40
   5  -7  -1   -0.80    3.00
  -5   7   1    4.20    3.40
  -5   7   1   -2.80    2.20
  -5   7   1   -1.20    3.70
   4  -7  -1    9.70    2.60
   4  -7  -1   13.00    4.20
  -4   7   1   10.30    2.90
  -4   7   1   14.60    3.40
  -4   7   1   12.30    1.90
  -4   7   1   13.40    2.60
   3  -7  -1    4.80    2.80
   3  -7  -1   -0.20    1.80
   3  -7  -1   -1.90    1.70
  -3   7   1    0.30    1.70
  -3   7   1    2.70    2.30
  -3   7   1    0.10    1.00
  -3   7   1   -0.10    1.70
  -3   7   1    1.00    1.10
  -3   7   1    2.00    1.90
  -3   7   1   -1.60    1.00
   2  -7  -1  306.87   10.00
   2  -7  -1  279.17   10.60
   2  -7  -1  298.07    9.50
  -2   7   1  286.67    9.00
  -2   7   1  304.97    9.20
  -2   7   1  301.27   10.20
  -2   7   1  297.27    9.00
  -2   7   1  295.37    7.30
  -2   7   1  289.47    7.30
  -2   7   1  302.27    8.90
   1  -7  -1  187.38    7.80
   1  -7  -1  193.88    6.40
   1  -7  -1  191.88    7.30
  -1   7   1  182.28    6.40
  -1   7   1  199.28    8.30
  -1   7   1  183.48    8.00
  -1   7   1  186.88    6.20
  -1   7   1  189.18    5.20
  -1   7   1  194.58    6.30
  -1   7   1  191.98    6.70
  -1   7   1  185.08    5.00
   0  -7  -1    0.90    1.30
   0  -7  -1    0.50    1.00
   0  -7  -1   -0.20    1.30
   0  -7  -1   -2.70    1.70
   0   7   1   -0.60    0.80
   0   7   1    2.50    2.30
   0   7   1    0.10    1.10
   0   7   1   -1.80    2.30
   0   7   1    0.30    1.30
   0   7   1    0.00    0.80
   0   7   1    0.90    1.20
   0   7   1    1.30    1.50
  -1  -7  -1    3.50    1.30
  -1  -7  -1    1.10    0.60
  -1  -7  -1    1.40    0.50
  -1  -7  -1    5.80    2.00
  -1  -7  -1    1.50    1.20
  -1  -7  -1    0.30    1.40
  -1  -7  -1    5.00    2.10
   1   7   1    1.00    1.00
   1   7   1    2.50    2.50
   1   7   1   -0.90    1.60
   1   7   1    2.80    1.10
   1   7   1   -2.50    2.20
   1   7   1    1.30    1.30
   1   7   1    0.10    1.20
  -2  -7  -1   -1.30    1.20
  -2  -7  -1   -0.20    1.20
  -2  -7  -1   -0.60    1.50
  -2  -7  -1    2.00    1.20
  -2  -7  -1    0.60    2.00
  -2  -7  -1    1.50    1.30
  -2  -7  -1   -1.80    1.60
   2   7   1    6.00    2.40
   2   7   1   -1.90    2.10
   2   7   1   -1.30    1.30
   2   7   1   -0.80    1.40
   2   7   1    2.40    2.10
   2   7   1    0.80    1.60
   2   7   1   -0.70    1.10
  -3  -7  -1    1.20    1.80
  -3  -7  -1   -2.00    1.60
  -3  -7  -1    2.80    1.70
  -3  -7  -1    1.30    1.60
  -3  -7  -1   -0.70    2.10
  -3  -7  -1    1.00    1.70
   3   7   1    2.70    2.00
   3   7   1    0.60    1.60
   3   7   1   -0.20    1.90
   3   7   1    2.50    2.20
   3   7   1   -1.10    1.50
  -4  -7  -1   -1.20    2.40
  -4  -7  -1   -0.90    2.10
  -4  -7  -1    0.90    2.10
   4   7   1   -0.60    2.10
   4   7   1    0.40    3.50
   4   7   1   -1.30    2.50
   4   7   1    0.40    2.20
  -5  -7  -1    3.30    3.40
  -5  -7  -1   -0.30    2.90
   5   7   1   -3.70    2.60
   5   7   1   -3.10    5.20
  -6  -7  -1    4.30    4.50
  -6  -7  -1    7.20    4.40
   6   7   1   -1.50    4.00
   6   7   1    3.30    3.50
   6  -8  -1   -3.30    7.20
   6  -8  -1   -9.00    4.60
  -6   8   1   -0.80    5.80
  -6   8   1    0.50    5.20
   5  -8  -1   14.20    4.20
   5  -8  -1    3.50    5.80
  -5   8   1    2.40    4.10
  -5   8   1    8.20    2.70
  -5   8   1   14.00    4.50
   4  -8  -1    3.90    4.30
   4  -8  -1    1.10    2.80
  -4   8   1    0.50    0.90
  -4   8   1    1.70    2.90
  -4   8   1   -0.40    1.60
  -4   8   1    1.70    3.00
   3  -8  -1   31.10    4.00
   3  -8  -1   44.60    5.70
   3  -8  -1   32.60    4.20
  -3   8   1   27.80    2.00
  -3   8   1   29.60    3.90
  -3   8   1   35.40    3.90
  -3   8   1   29.60    2.60
  -3   8   1   30.40    3.80
  -3   8   1   30.50    2.20
   2  -8  -1   53.39    4.30
   2  -8  -1   55.89    5.20
  -2   8   1   59.09    3.90
  -2   8   1   56.39    2.20
  -2   8   1   57.29    3.60
  -2   8   1   59.29    2.30
  -2   8   1   62.69    4.20
  -2   8   1   52.79    3.60
   1  -8  -1  579.44   16.50
   1  -8  -1  603.14   17.50
   1  -8  -1  588.14   15.20
  -1   8   1  541.95   14.10
  -1   8   1  488.25   15.20
  -1   8   1  587.24   15.20
  -1   8   1  569.34   15.40
  -1   8   1  565.94   13.60
  -1   8   1  592.44   14.90
   0  -8  -1   13.30    2.90
   0  -8  -1   16.50    2.90
   0  -8  -1   17.10    2.40
   0   8   1   20.80    4.00
   0   8   1   21.50    4.80
   0   8   1   13.50    2.20
   0   8   1   17.50    2.10
   0   8   1   16.40    2.10
   0   8   1   16.10    1.70
   0   8   1   19.10    2.50
   0   8   1   16.60    1.70
  -1  -8  -1   10.60    2.60
  -1  -8  -1   14.80    3.00
  -1  -8  -1   13.40    2.70
  -1  -8  -1   16.60    2.30
  -1  -8  -1    9.90    1.90
   1   8   1   16.90    2.00
   1   8   1   11.70    2.20
   1   8   1   16.60    2.70
   1   8   1   15.10    1.90
   1   8   1   14.90    3.30
   1   8   1   10.00    3.30
   1   8   1   12.80    2.10
  -2  -8  -1   10.40    2.70
  -2  -8  -1    8.40    2.10
  -2  -8  -1   11.70    1.70
  -2  -8  -1   16.90    2.70
  -2  -8  -1   11.80    1.70
  -2  -8  -1   13.30    2.80
   2   8   1   13.00    2.70
   2   8   1    6.90    1.90
   2   8   1   11.40    2.40
   2   8   1   14.90    3.50
   2   8   1   13.20    2.20
   2   8   1   14.70    3.30
  -3  -8  -1   19.80    3.40
  -3  -8  -1   23.30    3.20
  -3  -8  -1   22.10    2.90
  -3  -8  -1   19.70    2.90
  -3  -8  -1   24.20    3.10
   3   8   1   25.30    3.40
   3   8   1   26.70    3.50
   3   8   1   25.50    3.60
   3   8   1   23.40    3.50
   3   8   1   22.60    3.00
  -4  -8  -1    0.20    2.50
  -4  -8  -1    2.40    2.80
  -4  -8  -1    2.80    2.40
  -4  -8  -1    2.90    2.40
   4   8   1    6.30    3.00
   4   8   1    7.00    2.60
   4   8   1    1.20    4.20
   4   8   1   -0.70    2.80
  -5  -8  -1   -1.10    2.80
  -5  -8  -1   -2.20    3.20
  -5  -8  -1   -0.90    3.10
   5   8   1    1.90    3.20
   5   8   1   -1.00    3.70
  -6  -8  -1   11.10    5.00
  -6  -8  -1    2.90    4.80
  -6  -8  -1    1.10    4.50
   6   8   1    7.80    4.80
   6   8   1    5.70    4.20
   5  -9  -1    0.20    5.90
   5  -9  -1    0.00    4.00
  -5   9   1    2.60    5.20
  -5   9   1   11.20    4.70
   4  -9  -1    6.30    3.10
   4  -9  -1   -2.20    4.80
  -4   9   1    4.80    3.40
  -4   9   1    1.20    3.30
   3  -9  -1    5.20    3.00
  -3   9   1   -1.40    4.80
  -3   9   1   -2.00    1.70
  -3   9   1    3.50    2.50
  -3   9   1    3.20    1.30
  -3   9   1   -0.90    2.40
  -3   9   1    0.80    2.30
   2  -9  -1   40.00    5.50
   2  -9  -1   41.80    4.90
  -2   9   1   41.40    2.30
  -2   9   1   43.30    3.90
  -2   9   1   37.60    2.10
  -2   9   1   42.40    3.50
  -2   9   1   35.20    5.00
  -2   9   1   38.00    3.60
   1  -9  -1   -4.60    2.90
   1  -9  -1    4.30    1.90
   1  -9  -1    4.00    2.50
  -1   9   1   -0.70    2.50
  -1   9   1    1.30    1.50
  -1   9   1    4.30    2.00
  -1   9   1    1.80    1.60
   0  -9  -1   12.90    2.30
   0  -9  -1   11.10    3.20
   0  -9  -1   13.40    3.00
   0   9   1   11.60    1.50
   0   9   1   13.90    1.90
   0   9   1   11.40    2.30
   0   9   1   10.90    2.40
   0   9   1   12.70    1.80
   0   9   1   12.90    1.90
  -1  -9  -1   12.00    2.30
  -1  -9  -1   14.50    2.60
  -1  -9  -1   10.20    2.70
  -1  -9  -1   11.30    3.20
   1   9   1   12.50    1.80
   1   9   1    9.50    1.90
   1   9   1   16.70    3.10
   1   9   1   12.00    2.60
   1   9   1   10.90    2.30
  -2  -9  -1    4.80    2.10
  -2  -9  -1    4.90    2.00
  -2  -9  -1    5.90    2.40
  -2  -9  -1    9.20    2.70
  -2  -9  -1    4.90    1.10
  -2  -9  -1    2.20    2.70
   2   9   1    2.80    2.20
   2   9   1    7.60    2.60
   2   9   1    9.60    4.00
   2   9   1    5.20    2.00
   2   9   1    7.70    2.30
  -3  -9  -1    3.90    2.00
  -3  -9  -1    4.50    3.00
  -3  -9  -1   10.90    2.60
  -3  -9  -1    6.80    2.70
   3   9   1   10.60    3.20
   3   9   1    5.00    2.50
   3   9   1    5.60    4.00
   3   9   1    7.90    2.70
   3   9   1    3.60    3.10
  -4  -9  -1    3.90    2.90
  -4  -9  -1    1.30    2.70
  -4  -9  -1    2.30    3.60
   4   9   1    4.10    3.10
   4   9   1    7.80    4.00
  -5  -9  -1    8.20    3.70
  -5  -9  -1    9.50    4.40
  -5  -9  -1    5.00    3.80
  -5  -9  -1   -1.70    4.20
   5   9   1    8.20    4.00
   5   9   1   11.20    4.80
  -6  -9  -1    1.80    5.60
  -6  -9  -1   -5.20    5.30
  -6  -9  -1    0.40    4.60
  -6  -9  -1   -6.20    5.30
   6   9   1    0.90    5.60
   6   9   1    3.80    4.80
   4 -10  -1    2.20    5.90
  -4  10   1    5.90    4.00
  -4  10   1    2.80    4.00
  -4  10   1    1.60    3.80
   3 -10  -1   48.90    6.50
   3 -10  -1   54.99    7.40
  -3  10   1   38.90    4.60
  -3  10   1   34.70    3.70
  -3  10   1   35.90    4.70
  -3  10   1   43.10    5.00
   2 -10  -1    3.90    4.50
   2 -10  -1    2.00    3.10
  -2  10   1    0.10    2.10
  -2  10   1    2.80    1.60
  -2  10   1    3.10    2.40
  -2  10   1    0.40    2.30
   1 -10  -1   38.00    6.90
   1 -10  -1   25.90    4.40
   1 -10  -1   33.00    4.00
  -1  10   1   36.80    4.10
  -1  10   1   22.30    2.70
  -1  10   1   26.40    3.10
  -1  10   1   25.80    3.10
  -1  10   1   25.80    2.80
   0 -10  -1   28.40    3.80
   0 -10  -1   26.00    4.50
   0 -10  -1   25.40    4.10
   0  10   1   25.90    3.00
   0  10   1   21.70    2.10
   0  10   1   27.60    3.00
   0  10   1   29.30    3.70
   0  10   1   31.80    3.60
   0  10   1   23.40    2.10
  -1 -10  -1    6.00    3.30
  -1 -10  -1    6.00    2.40
  -1 -10  -1    2.70    3.40
   1  10   1    5.10    1.70
   1  10   1    5.70    2.40
   1  10   1    0.40    2.30
   1  10   1    2.80    1.90
  -2 -10  -1    2.90    2.30
  -2 -10  -1    6.50    3.60
  -2 -10  -1   -1.70    3.30
  -2 -10  -1    2.50    3.10
   2  10   1    1.30    2.40
   2  10   1   -3.20    2.40
   2  10   1    2.90    2.80
   2  10   1    4.10    2.30
  -3 -10  -1    2.30    2.70
  -3 -10  -1   -3.90    3.80
  -3 -10  -1   -1.00    1.80
   3  10   1    0.40    3.40
   3  10   1   -3.30    2.70
   3  10   1   -0.30    2.80
  -4 -10  -1    0.90    4.20
  -4 -10  -1    4.80    3.30
  -4 -10  -1    2.20    3.00
   4  10   1   -1.40    3.20
   4  10   1    9.50    4.20
  -5 -10  -1   -5.30    4.40
  -5 -10  -1    2.30    3.90
  -5 -10  -1    3.20    5.30
   5  10   1   13.80    5.40
   5  10   1    9.30    4.50
   3 -11  -1    1.40    4.30
   3 -11  -1   -3.30    6.10
  -3  11   1   -1.30    3.50
  -3  11   1    1.70    3.60
  -3  11   1    1.60    2.80
   2 -11  -1    6.70    4.00
   2 -11  -1   -1.20    5.40
  -2  11   1    8.50    3.20
  -2  11   1   -3.90    3.00
  -2  11   1    4.10    3.20
   1 -11  -1    0.80    4.90
   1 -11  -1   -1.00    2.70
   1 -11  -1    1.90    3.60
  -1  11   1    2.10    2.80
  -1  11   1   -0.60    2.40
  -1  11   1   -0.50    2.30
   0 -11  -1   61.89    6.80
   0 -11  -1   45.40    5.00
   0 -11  -1   56.89    7.40
   0  11   1   47.50    4.60
   0  11   1   47.60    4.30
   0  11   1   53.79    5.00
  -1 -11  -1   25.80    5.20
  -1 -11  -1   33.20    5.20
  -1 -11  -1   43.80    4.70
   1  11   1   27.50    3.40
   1  11   1   34.40    6.30
   1  11   1   33.50    4.20
  -2 -11  -1   -3.20    4.00
  -2 -11  -1    1.70    3.00
  -2 -11  -1   -2.20    4.30
   2  11   1    6.70    2.80
   2  11   1   -2.90    3.10
   2  11   1   -0.40    3.40
  -3 -11  -1    0.90    3.30
  -3 -11  -1   -9.70    4.60
   3  11   1   -8.40    6.50
   3  11   1    0.60    3.50
   3  11   1    1.80    3.70
  -4 -11  -1    2.70    5.50
  -4 -11  -1   -0.60    3.70
   4  11   1   -4.30    5.10
   4  11   1   -3.00    4.10
   2 -12  -1    5.50    5.10
   2 -12  -1   -5.10    6.50
  -2  12   1   -1.00    4.30
  -2  12   1    0.30    3.90
  -2  12   1   -9.00    3.80
   1 -12  -1    0.90    5.70
   1 -12  -1    1.30    4.50
   1 -12  -1    1.00    3.70
  -1  12   1   -0.40    2.90
  -1  12   1   -3.70    3.40
   0 -12  -1   11.20    5.10
   0 -12  -1   15.30    4.00
   0 -12  -1    6.00    5.80
   0  12   1    6.00    2.90
   0  12   1    6.50    3.90
   0  12   1   13.90    4.20
  -1 -12  -1    3.80    5.00
  -1 -12  -1   10.70    5.30
  -1 -12  -1   15.40    4.30
   1  12   1   18.30    4.30
   1  12   1    8.90    3.90
   1  12   1    4.40    3.10
  -2 -12  -1    1.50    3.50
  -2 -12  -1   11.00    5.40
   2  12   1   -0.40    3.70
   2  12   1    3.00    4.50
   2  12   1    7.50    4.20
  -3 -12  -1   -3.20    5.70
  -3 -12  -1   -5.00    3.90
   3  12   1    9.40    4.70
   3  12   1   10.10    5.30
   0 -13  -1    8.60    6.00
   0 -13  -1    4.20    6.80
   0 -13  -1    5.20    4.60
   0  13   1   -5.40    4.50
  -1 -13  -1   -2.20    4.60
  -1 -13  -1    3.40    6.00
   1  13   1    3.10    4.50
   2  12  -2   -2.50    4.50
   2  12  -2   -6.20    4.40
   2  12  -2    5.60    4.30
  -2 -12   2    2.10    5.50
  -2 -12   2    7.20    4.30
   1  12  -2    5.90    4.10
   1  12  -2    4.20    6.50
   1  12  -2   11.00    4.40
  -1 -12   2    3.60    4.10
  -1 -12   2    7.60    5.50
   0  12  -2   10.20    4.00
   0  12  -2   13.50    4.10
   0 -12   2   12.70    5.20
   0 -12   2   10.70    4.70
  -1  12  -2    0.20    4.00
  -1  12  -2    2.00    3.80
   1 -12   2   -1.90    4.20
   1 -12   2    7.60    5.20
  -2  12  -2   -0.60    3.70
  -2  12  -2   -3.20    3.90
   2 -12   2   -0.40    5.00
   4  11  -2    8.60    5.40
   4  11  -2   -7.80    4.30
  -4 -11   2    6.00    6.20
  -4 -11   2    2.10    4.40
   3  11  -2   -0.10    3.60
   3  11  -2   -8.00    4.20
  -3 -11   2    0.30    4.80
  -3 -11   2    4.20    3.90
   2  11  -2    3.00    3.50
   2  11  -2    4.70    3.60
  -2 -11   2    2.20    3.60
  -2 -11   2    4.40    4.50
   1  11  -2   45.60    5.60
   1  11  -2   57.19    5.50
   1  11  -2   52.19    5.50
  -1 -11   2   48.90    5.90
  -1 -11   2   47.50    6.30
   0  11  -2   36.70    4.50
   0  11  -2   40.70    3.40
   0  11  -2   43.30    5.40
   0  11  -2   33.50    4.30
   0 -11   2   42.30    5.50
   0 -11   2   53.79    7.00
  -1  11  -2    2.80    3.10
  -1  11  -2    4.00    3.20
  -1  11  -2    6.80    3.40
  -1  11  -2    3.50    2.20
   1 -11   2   10.30    3.80
   1 -11   2    3.90    4.10
  -2  11  -2    5.60    3.20
  -2  11  -2    2.90    3.20
  -2  11  -2    9.20    4.00
  -2  11  -2   10.90    3.00
   2 -11   2   11.40    4.50
  -3  11  -2    5.60    3.80
  -3  11  -2    1.30    4.60
  -3  11  -2    5.60    3.70
  -3  11  -2   -1.80    2.90
   5  10  -2   -0.60    5.00
   5  10  -2    3.60    4.70
  -5 -10   2    5.00    5.00
  -5 -10   2  -13.40    5.30
  -5 -10   2   -7.50    4.00
   4  10  -2    2.60    3.60
   4  10  -2    1.40    4.40
  -4 -10   2  -10.20    4.40
  -4 -10   2   10.40    4.00
  -4 -10   2    4.80    2.70
   3  10  -2    6.80    3.70
   3  10  -2    5.40    3.30
  -3 -10   2    7.60    3.50
  -3 -10   2   -0.40    3.90
   2  10  -2    5.50    3.10
   2  10  -2    0.50    2.90
  -2 -10   2   -0.20    3.90
  -2 -10   2    2.10    4.30
   1  10  -2   33.70    3.00
   1  10  -2   31.10    3.90
   1  10  -2   34.90    4.10
  -1 -10   2   39.20    4.80
  -1 -10   2   35.30    8.00
   0  10  -2    4.30    1.50
   0  10  -2   -1.00    3.40
   0  10  -2   -2.10    2.00
   0  10  -2    0.70    2.30
   0  10  -2    1.90    2.70
   0  10  -2   -0.30    3.60
   0 -10   2    1.60    3.50
   0 -10   2    2.40    2.70
  -1  10  -2    3.90    2.60
  -1  10  -2    2.70    2.70
  -1  10  -2    3.80    2.40
  -1  10  -2    1.60    1.70
  -1  10  -2   -0.80    1.80
   1 -10   2    0.00    2.90
   1 -10   2    2.40    3.30
  -2  10  -2   -1.60    3.00
  -2  10  -2    2.10    2.40
  -2  10  -2    2.80    2.20
  -2  10  -2   -1.00    2.30
   2 -10   2    0.60    3.40
  -3  10  -2   11.40    3.20
  -3  10  -2   12.70    3.20
  -3  10  -2    7.40    3.90
  -3  10  -2   10.90    2.40
  -4  10  -2   -3.50    5.50
  -4  10  -2    9.90    4.20
  -4  10  -2    2.40    3.60
   5   9  -2    3.10    4.50
   5   9  -2    9.20    4.30
  -5  -9   2   -1.10    3.90
  -5  -9   2    1.10    4.70
  -5  -9   2    7.10    4.00
   4   9  -2    7.70    3.40
   4   9  -2    0.70    3.70
  -4  -9   2    2.10    3.20
  -4  -9   2    5.80    2.70
  -4  -9   2    1.60    3.70
   3   9  -2    5.00    2.70
   3   9  -2    7.10    3.10
  -3  -9   2    3.80    2.80
  -3  -9   2    6.70    1.80
  -3  -9   2    6.20    3.10
   2   9  -2   -0.10    3.20
   2   9  -2    1.60    2.40
   2   9  -2   -1.90    2.00
   2   9  -2    1.00    3.70
  -2  -9   2    0.30    2.70
  -2  -9   2   -3.30    2.20
   1   9  -2   66.19    5.10
   1   9  -2   73.29    4.50
   1   9  -2   76.29    4.70
   1   9  -2   67.39    7.40
   1   9  -2   72.49    5.60
   1   9  -2   75.19    3.40
  -1  -9   2   86.99    6.10
  -1  -9   2   76.19    5.10
   0   9  -2   -0.50    1.80
   0   9  -2    0.60    1.20
   0   9  -2    0.70    1.70
   0   9  -2   -2.30    2.30
   0   9  -2    1.10    2.30
   0  -9   2    0.90    2.50
   0  -9   2    1.00    2.00
  -1   9  -2   24.30    3.20
  -1   9  -2   26.20    2.30
  -1   9  -2   22.20    2.60
  -1   9  -2   24.30    3.40
  -1   9  -2   31.40    3.60
  -1   9  -2   29.50    2.80
   1  -9   2   32.10    4.10
   1  -9   2   29.90    4.10
   1  -9   2   29.60    4.70
  -2   9  -2    3.10    2.00
  -2   9  -2    5.40    2.10
  -2   9  -2    4.70    2.70
  -2   9  -2    6.60    2.00
   2  -9   2    4.50    3.80
   2  -9   2    6.80    3.00
  -3   9  -2    1.40    1.80
  -3   9  -2    1.20    2.50
  -3   9  -2    6.30    3.40
  -3   9  -2    1.40    2.40
  -4   9  -2   16.60    3.40
  -4   9  -2   18.30    4.70
  -4   9  -2   17.90    2.30
  -4   9  -2   20.00    4.70
   4  -9   2   19.30    4.20
  -5   9  -2   27.40    6.40
  -5   9  -2   16.10    5.20
   5  -9   2   23.70    5.20
   6   8  -2    5.90    5.10
   6   8  -2   17.40    4.70
   6   8  -2    9.10    5.40
  -6  -8   2    9.80    6.00
  -6  -8   2    9.50    5.00
  -6  -8   2    2.30    5.30
  -6  -8   2   14.70    5.30
   5   8  -2    1.70    3.40
   5   8  -2    1.70    3.80
  -5  -8   2   -5.00    3.80
  -5  -8   2   -4.30    3.60
  -5  -8   2   -4.50    3.50
  -5  -8   2    2.50    3.60
   4   8  -2    0.50    2.90
   4   8  -2    2.00    2.70
  -4  -8   2    2.90    2.50
  -4  -8   2    2.50    3.00
   3   8  -2   14.20    4.70
   3   8  -2    9.90    4.00
   3   8  -2    5.50    2.70
   3   8  -2   14.80    2.70
   3   8  -2   10.60    2.80
  -3  -8   2   11.70    3.00
  -3  -8   2   14.10    2.20
  -3  -8   2   13.00    1.90
  -3  -8   2   15.10    3.20
  -3  -8   2   10.80    2.80
   2   8  -2   29.10    4.10
   2   8  -2   28.80    3.20
   2   8  -2   26.00    3.20
   2   8  -2   26.60    3.60
  -2  -8   2   24.80    2.10
  -2  -8   2   22.90    3.40
  -2  -8   2   34.60    3.70
  -2  -8   2   20.80    1.80
  -2  -8   2   24.10    2.30
   1   8  -2    5.30    2.40
   1   8  -2    4.10    1.70
   1   8  -2    4.80    1.80
   1   8  -2    4.80    2.20
   1   8  -2    6.20    3.10
   1   8  -2    6.80    2.50
  -1  -8   2    4.80    2.00
  -1  -8   2    7.40    2.40
  -1  -8   2    5.60    2.50
   0   8  -2    1.30    1.40
   0   8  -2   -0.80    1.00
   0   8  -2    2.50    2.00
   0   8  -2   -2.20    3.20
   0   8  -2    2.30    2.10
   0   8  -2    4.40    1.80
   0  -8   2    1.00    1.60
   0  -8   2    0.60    2.10
  -1   8  -2    5.90    1.10
  -1   8  -2    6.40    1.40
  -1   8  -2    4.50    1.50
  -1   8  -2    5.40    1.30
  -1   8  -2    3.40    1.70
  -1   8  -2    3.20    2.50
   1  -8   2    5.30    2.30
   1  -8   2    2.40    2.90
   1  -8   2    4.40    2.20
  -2   8  -2    7.50    1.90
  -2   8  -2    5.70    1.90
  -2   8  -2    7.10    2.40
  -2   8  -2    9.70    1.90
   2  -8   2    9.10    2.70
   2  -8   2    3.80    3.30
   2  -8   2    6.90    3.30
  -3   8  -2    6.30    1.60
  -3   8  -2    7.60    2.40
  -3   8  -2   10.10    2.30
  -3   8  -2   11.80    3.30
   3  -8   2    9.70    2.60
   3  -8   2   15.90    4.40
   3  -8   2   14.00    4.40
  -4   8  -2    6.80    2.40
  -4   8  -2   -0.50    3.60
  -4   8  -2    1.50    1.30
  -4   8  -2    1.80    1.90
  -4   8  -2    2.50    2.90
   4  -8   2   -0.90    3.20
   4  -8   2   -3.10    4.40
  -5   8  -2    0.40    4.80
  -5   8  -2    5.20    4.20
   5  -8   2    6.90    5.60
   5  -8   2    9.50    3.90
   6   7  -2    9.80    4.60
   6   7  -2    5.20    3.90
   6   7  -2    9.10    4.80
  -6  -7   2    0.70    4.00
  -6  -7   2   10.20    4.20
  -6  -7   2   -0.90    4.30
  -6  -7   2    8.10    4.80
   5   7  -2    1.40    3.40
   5   7  -2    0.00    2.90
  -5  -7   2   -2.60    3.40
  -5  -7   2    0.50    2.90
  -5  -7   2    3.30    3.20
  -5  -7   2   -2.10    3.20
   4   7  -2    4.80    2.30
   4   7  -2   -0.60    2.50
   4   7  -2   -4.10    3.50
  -4  -7   2   -2.20    2.00
  -4  -7   2   -0.10    2.30
  -4  -7   2    1.30    2.10
  -4  -7   2   -2.20    2.20
  -4  -7   2   -1.60    2.50
   3   7  -2   21.70    2.40
   3   7  -2   24.10    3.80
   3   7  -2   13.50    2.40
   3   7  -2   14.40    2.90
   3   7  -2   16.20    3.70
  -3  -7   2   14.90    1.90
  -3  -7   2   16.70    3.10
  -3  -7   2   12.80    2.20
  -3  -7   2   20.90    2.90
  -3  -7   2   13.90    2.70
   2   7  -2   58.29    3.80
   2   7  -2   63.29    4.20
   2   7  -2   53.99    4.60
   2   7  -2   52.69    5.40
   2   7  -2   56.29    3.60
   2   7  -2   56.69    3.90
  -2  -7   2   56.09    2.70
  -2  -7   2   62.09    3.90
  -2  -7   2   57.69    2.50
  -2  -7   2   56.69    3.00
  -2  -7   2   60.99    4.20
  -2  -7   2   55.49    4.20
   1   7  -2   80.09    4.70
   1   7  -2   82.99    4.20
   1   7  -2   74.59    2.80
   1   7  -2   74.19    4.00
   1   7  -2   76.59    3.80
   1   7  -2   69.19    3.60
   1   7  -2   72.79    5.70
   1   7  -2   75.99    4.20
  -1  -7   2   76.39    4.20
  -1  -7   2   76.79    4.20
  -1  -7   2   78.19    4.60
   0   7  -2   74.79    4.20
   0   7  -2   68.49    3.70
   0   7  -2   59.39    4.80
   0   7  -2   62.69    2.90
   0   7  -2   51.19    4.60
   0   7  -2   68.39    3.40
   0   7  -2   65.19    5.70
   0   7  -2   66.89    3.60
   0  -7   2   62.99    3.70
   0  -7   2   59.29    4.10
   0  -7   2   73.39    4.70
  -1   7  -2   25.50    2.30
  -1   7  -2   25.50    1.50
  -1   7  -2   23.90    2.60
  -1   7  -2   25.50    3.80
  -1   7  -2   27.50    1.40
  -1   7  -2   28.70    3.30
  -1   7  -2   27.80    3.00
  -1   7  -2   25.80    2.00
   1  -7   2   27.20    2.90
   1  -7   2   26.40    3.30
   1  -7   2   27.00    3.50
   1  -7   2   28.20    3.70
  -2   7  -2   22.80    3.10
  -2   7  -2   20.10    2.40
  -2   7  -2   16.50    2.10
  -2   7  -2   18.90    3.00
  -2   7  -2   12.70    2.70
  -2   7  -2   17.40    2.20
   2  -7   2   16.20    2.70
   2  -7   2   20.00    3.10
   2  -7   2   15.90    3.10
   2  -7   2   15.50    2.40
   2  -7   2   19.40    3.50
  -3   7  -2    3.70    1.60
  -3   7  -2    2.10    1.20
  -3   7  -2    3.30    1.90
  -3   7  -2    5.50    2.50
  -3   7  -2    3.80    1.10
  -3   7  -2    4.20    1.20
   3  -7   2    0.00    1.80
   3  -7   2    5.60    3.30
   3  -7   2    2.10    2.90
  -4   7  -2    4.00    2.40
  -4   7  -2    3.10    3.20
  -4   7  -2    0.10    2.10
  -4   7  -2    0.20    1.10
   4  -7   2    0.60    2.30
   4  -7   2    2.30    3.40
   5  -7   2   -2.70    3.20
   5  -7   2    6.70    5.00
  -6   7  -2    1.70    5.90
   6  -7   2    9.60    6.20
   6  -7   2   11.80    4.30
   7   6  -2   -8.00    4.70
   7   6  -2    3.10    4.70
   7   6  -2    1.20    4.80
   7   6  -2    0.60    5.20
  -7  -6   2    8.60    6.50
  -7  -6   2   13.00    5.70
   6   6  -2    1.40    3.80
   6   6  -2   -0.30    3.90
   6   6  -2    3.40    3.20
  -6  -6   2   -1.10    3.20
  -6  -6   2    0.10    4.40
  -6  -6   2   -1.00    3.90
   5   6  -2    4.50    4.00
   5   6  -2    1.90    2.80
  -5  -6   2    7.90    2.70
  -5  -6   2    4.30    3.20
  -5  -6   2    4.90    2.90
   4   6  -2    0.50    2.40
   4   6  -2   -2.50    2.50
  -4  -6   2    6.60    2.40
  -4  -6   2    2.90    1.90
  -4  -6   2    2.20    2.10
  -4  -6   2    3.10    2.30
  -4  -6   2    1.90    2.00
   3   6  -2   19.70    3.00
   3   6  -2   22.10    2.70
   3   6  -2   22.60    3.40
   3   6  -2   24.00    1.90
   3   6  -2   27.40    3.60
  -3  -6   2   29.00    3.40
  -3  -6   2   21.60    2.90
  -3  -6   2   19.60    2.00
  -3  -6   2   23.30    3.10
  -3  -6   2   22.50    3.70
  -3  -6   2   22.70    2.70
  -3  -6   2   21.00    2.70
   2   6  -2  152.18    6.00
   2   6  -2  153.68    6.40
   2   6  -2  153.98    5.90
   2   6  -2  161.78    6.80
   2   6  -2  159.68    5.70
  -2  -6   2  158.38    5.00
  -2  -6   2  151.78    5.30
  -2  -6   2  152.48    6.20
  -2  -6   2  153.18    6.00
  -2  -6   2  156.08    6.10
  -2  -6   2  154.08    4.50
   1   6  -2    4.40    1.40
   1   6  -2    3.60    2.40
   1   6  -2    4.30    1.70
   1   6  -2    1.60    1.50
   1   6  -2    2.90    1.30
   1   6  -2    3.20    0.80
   1   6  -2    3.20    1.20
  -1  -6   2    3.50    1.50
  -1  -6   2    3.40    0.50
  -1  -6   2    4.40    0.50
  -1  -6   2    3.50    0.80
  -1  -6   2    1.80    1.30
  -1  -6   2    2.70    1.30
   0   6  -2  122.49    3.70
   0   6  -2  124.99    5.40
   0   6  -2  127.79    6.20
   0   6  -2  125.69    4.50
   0   6  -2  122.19    3.90
   0   6  -2  126.49    4.40
   0   6  -2  122.79    4.00
   0   6  -2  128.79    5.60
   0   6  -2  129.59    5.00
   0  -6   2  119.69    5.40
   0  -6   2  122.99    5.60
   0  -6   2  125.29    5.00
   0  -6   2  118.19    5.20
  -1   6  -2  125.19    5.90
  -1   6  -2  111.19    4.60
  -1   6  -2  115.89    6.20
  -1   6  -2  113.39    3.90
  -1   6  -2  119.39    4.20
  -1   6  -2  111.29    4.50
  -1   6  -2  113.79    4.90
  -1   6  -2  111.69    3.00
  -1   6  -2  122.29    5.50
  -1   6  -2  113.69    2.90
   1  -6   2  113.09    5.70
   1  -6   2  109.79    4.80
   1  -6   2  117.99    5.70
   1  -6   2  118.09    5.30
  -2   6  -2   60.79    3.00
  -2   6  -2   59.09    3.90
  -2   6  -2   66.69    3.90
  -2   6  -2   60.49    4.50
  -2   6  -2   58.19    4.00
  -2   6  -2   63.59    4.90
  -2   6  -2   58.89    5.40
  -2   6  -2   58.39    3.20
  -2   6  -2   61.59    3.00
   2  -6   2   57.79    4.60
   2  -6   2   63.19    4.00
   2  -6   2   62.69    3.50
   2  -6   2   64.49    4.40
  -3   6  -2   53.69    2.40
  -3   6  -2   54.89    2.40
  -3   6  -2   56.69    4.30
  -3   6  -2   53.79    2.40
   3  -6   2   51.69    4.80
   3  -6   2   50.09    3.60
   3  -6   2   46.40    5.00
  -4   6  -2    0.70    2.80
  -4   6  -2    4.90    2.60
  -4   6  -2    6.30    2.10
   4  -6   2    2.10    3.40
   4  -6   2    5.80    2.20
   4  -6   2    7.40    3.10
  -5   6  -2    6.50    3.80
  -5   6  -2    1.40    2.60
   5  -6   2   -2.50    3.20
   5  -6   2   -9.40    3.90
  -6   6  -2    7.60    5.50
  -6   6  -2    8.30    3.80
   6  -6   2   17.10    5.80
   6  -6   2    8.50    3.80
   7   5  -2    4.50    4.70
   7   5  -2    8.60    4.70
   7   5  -2   -2.50    4.30
   7   5  -2   10.20    4.60
  -7  -5   2    2.00    5.50
  -7  -5   2    2.40    5.10
   6   5  -2   10.50    3.80
   6   5  -2    3.20    3.10
   6   5  -2   -0.30    3.20
  -6  -5   2    2.60    2.80
  -6  -5   2   -0.80    3.60
  -6  -5   2   -2.10    3.90
   5   5  -2    5.10    2.70
   5   5  -2   13.80    2.90
  -5  -5   2    9.90    3.30
  -5  -5   2   10.50    3.40
  -5  -5   2    8.50    2.50
   4   5  -2   10.30    2.20
   4   5  -2   13.20    2.60
  -4  -5   2   13.60    2.40
  -4  -5   2   14.10    3.90
  -4  -5   2   13.40    2.80
  -4  -5   2   13.40    2.30
  -4  -5   2   11.50    2.50
   3   5  -2   29.20    3.00
   3   5  -2   31.60    3.20
   3   5  -2   24.90    2.40
   3   5  -2   32.90    3.60
   3   5  -2   34.30    4.10
  -3  -5   2   28.00    3.50
  -3  -5   2   26.60    2.70
  -3  -5   2   28.00    3.30
  -3  -5   2   29.10    2.90
  -3  -5   2   29.30    2.30
  -3  -5   2   32.30    2.90
  -3  -5   2   35.10    2.90
   2   5  -2   53.29    3.00
   2   5  -2   57.69    3.60
   2   5  -2   58.69    3.50
   2   5  -2   57.99    3.70
   2   5  -2   53.99    2.60
   2   5  -2   59.89    3.20
  -2  -5   2   61.59    3.40
  -2  -5   2   55.69    2.20
  -2  -5   2   56.49    3.30
  -2  -5   2   50.89    3.30
  -2  -5   2   54.29    2.80
  -2  -5   2   56.79    3.10
   1   5  -2   38.30    2.30
   1   5  -2   41.60    2.60
   1   5  -2   39.40    2.30
   1   5  -2   38.40    1.60
   1   5  -2   41.10    3.30
  -1  -5   2   39.80    1.80
  -1  -5   2   43.00    2.50
  -1  -5   2   44.00    2.60
  -1  -5   2   43.80    2.90
  -1  -5   2   39.30    1.60
  -1  -5   2   38.80    1.50
   0   5  -2   10.80    1.60
   0   5  -2   10.00    1.10
   0   5  -2   11.30    1.90
   0   5  -2    9.30    1.70
   0   5  -2   12.30    1.00
   0   5  -2   10.50    1.50
   0   5  -2   10.20    1.30
   0   5  -2   10.30    2.10
   0   5  -2    8.50    1.10
   0  -5   2   11.50    1.80
   0  -5   2    8.60    1.40
   0  -5   2   10.30    1.90
   0  -5   2   10.70    1.40
   0  -5   2    8.90    1.70
  -1   5  -2    0.90    0.80
  -1   5  -2    0.80    0.80
  -1   5  -2    1.70    1.70
  -1   5  -2    0.30    1.40
  -1   5  -2   -0.70    0.90
  -1   5  -2    2.60    1.90
  -1   5  -2   -0.30    1.20
   1  -5   2    1.00    1.40
   1  -5   2   -0.30    1.10
   1  -5   2    1.80    1.00
   1  -5   2    0.90    1.50
  -2   5  -2  137.79    5.30
  -2   5  -2  132.89    6.30
  -2   5  -2  142.69    5.20
  -2   5  -2  138.89    5.90
  -2   5  -2  138.29    6.40
  -2   5  -2  138.59    5.60
  -2   5  -2  133.79    4.40
   2  -5   2  135.99    5.50
   2  -5   2  135.69    6.30
   2  -5   2  142.09    5.00
   2  -5   2  131.09    5.80
  -3   5  -2   16.90    2.70
  -3   5  -2   15.80    1.30
  -3   5  -2   18.90    3.40
  -3   5  -2   13.30    1.60
  -3   5  -2   13.10    2.50
  -3   5  -2   17.80    1.70
  -3   5  -2   12.90    2.80
  -3   5  -2   13.80    3.10
  -3   5  -2   16.40    2.40
   3  -5   2   13.70    3.10
   3  -5   2   18.90    3.10
   3  -5   2   19.20    2.30
  -4   5  -2    7.20    2.10
  -4   5  -2    4.40    3.20
  -4   5  -2    5.50    1.80
  -4   5  -2    3.00    2.50
  -4   5  -2    6.70    0.90
  -4   5  -2   11.40    2.40
   4  -5   2    4.80    2.60
   4  -5   2    4.60    2.10
   4  -5   2    3.00    2.80
  -5   5  -2    9.20    3.50
  -5   5  -2    3.00    2.50
  -5   5  -2    2.10    3.20
   5  -5   2    2.50    2.60
   5  -5   2    8.40    3.80
  -6   5  -2   12.00    3.90
  -6   5  -2    8.70    5.10
   6  -5   2    0.80    3.40
   6  -5   2    8.10    4.90
  -7   5  -2   -3.10    6.60
  -7   5  -2   11.20    6.10
   7  -5   2   12.90    5.40
   7  -5   2   23.10    6.90
   7   4  -2    0.50    3.40
   7   4  -2    5.40    4.00
   7   4  -2    2.60    4.40
  -7  -4   2    8.80    5.30
  -7  -4   2    6.60    5.50
   6   4  -2    5.60    2.80
   6   4  -2    6.60    3.30
   6   4  -2    1.20    2.90
   6   4  -2    1.60    3.00
  -6  -4   2    5.10    3.70
  -6  -4   2    6.50    4.20
   5   4  -2   16.50    2.70
   5   4  -2   15.50    3.20
  -5  -4   2   16.70    3.50
  -5  -4   2   20.10    3.50
   4   4  -2    1.60    1.40
   4   4  -2    5.70    3.00
   4   4  -2    1.30    1.50
   4   4  -2    0.90    1.90
  -4  -4   2    2.00    2.00
  -4  -4   2    3.20    1.90
  -4  -4   2    2.60    1.90
  -4  -4   2    6.20    2.90
   3   4  -2   14.90    2.70
   3   4  -2   19.10    2.60
   3   4  -2   21.00    3.10
   3   4  -2   13.90    1.90
   3   4  -2   19.40    2.30
  -3  -4   2   18.30    2.00
  -3  -4   2   17.40    2.40
  -3  -4   2   19.90    2.70
  -3  -4   2   17.50    2.30
  -3  -4   2   15.50    2.00
  -3  -4   2   20.10    2.50
   2   4  -2  190.88    6.30
   2   4  -2  188.68    6.20
   2   4  -2  189.18    6.00
   2   4  -2  194.68    6.50
   2   4  -2  194.58    6.40
   2   4  -2  186.28    5.10
  -2  -4   2  190.88    5.20
  -2  -4   2  192.48    6.30
  -2  -4   2  185.38    6.30
  -2  -4   2  190.28    6.10
  -2  -4   2  202.28    6.10
  -2  -4   2  187.18    5.90
  -2  -4   2  193.78    6.20
   1   4  -2  199.78    6.50
   1   4  -2  226.18    6.30
   1   4  -2  219.68    5.40
   1   4  -2  215.18    6.20
   1   4  -2  199.98    6.70
   1   4  -2  196.98    6.60
   1   4  -2  213.38    6.80
  -1  -4   2  222.48    6.70
  -1  -4   2  225.78    5.90
  -1  -4   2  232.48    6.30
  -1  -4   2  211.68    5.70
  -1  -4   2  219.88    5.20
  -1  -4   2  213.28    6.50
   0   4  -2  941.51   22.60
   0   4  -2 1002.70   23.30
   0   4  -2  985.90   22.90
   0   4  -2 1046.00   23.90
   0   4  -2 1044.20   24.20
   0   4  -2 1025.70   24.30
   0   4  -2 1048.20   24.60
   0   4  -2 1009.20   22.80
   0  -4   2  975.80   24.40
   0  -4   2 1010.40   24.20
   0  -4   2  999.50   24.30
   0  -4   2  984.30   23.90
   0  -4   2 1033.80   23.30
  -1   4  -2  628.14   15.20
  -1   4  -2  621.94   15.00
  -1   4  -2  626.54   16.10
  -1   4  -2  629.14   15.90
  -1   4  -2  636.44   16.20
  -1   4  -2  565.04   15.00
  -1   4  -2  639.64   15.50
   1  -4   2  629.64   15.80
   1  -4   2  594.04   15.50
   1  -4   2  583.24   16.20
   1  -4   2  618.54   16.20
   1  -4   2  633.04   15.10
  -2   4  -2   57.79    3.70
  -2   4  -2   60.79    1.80
  -2   4  -2   66.79    3.20
  -2   4  -2   59.09    3.70
  -2   4  -2   64.19    3.50
  -2   4  -2   58.09    3.40
  -2   4  -2   64.09    3.40
  -2   4  -2   60.09    1.90
   2  -4   2   62.79    3.70
   2  -4   2   60.89    3.80
   2  -4   2   60.19    2.90
  -3   4  -2    9.90    2.70
  -3   4  -2   12.30    1.10
  -3   4  -2   15.80    2.40
  -3   4  -2   13.40    1.60
  -3   4  -2   12.40    2.20
  -3   4  -2   15.00    2.60
  -3   4  -2   16.00    2.10
  -3   4  -2   12.60    2.20
  -3   4  -2   12.50    2.10
   3  -4   2   15.80    2.20
   3  -4   2   13.30    2.80
   3  -4   2   14.80    2.30
  -4   4  -2    7.20    2.60
  -4   4  -2    8.00    2.00
  -4   4  -2    8.90    2.10
  -4   4  -2   16.00    2.30
  -4   4  -2    8.50    2.80
  -4   4  -2   12.00    1.10
  -4   4  -2   11.50    2.90
   4  -4   2   10.20    2.80
   4  -4   2   12.30    2.40
  -5   4  -2   14.40    3.80
  -5   4  -2   20.60    3.60
  -5   4  -2   16.00    3.00
   5  -4   2   12.70    2.70
   5  -4   2   13.30    3.70
  -6   4  -2    2.60    4.00
  -6   4  -2    2.10    3.40
   6  -4   2   -7.10    2.90
   6  -4   2    0.40    4.50
  -7   4  -2   20.10    6.70
  -7   4  -2    6.10    5.20
   7  -4   2   12.90    5.90
   7  -4   2    5.50    4.90
   7   3  -2    5.60    3.90
   7   3  -2    4.40    2.80
   7   3  -2   -0.10    3.80
  -7  -3   2    7.20    4.80
  -7  -3   2    8.30    5.10
   6   3  -2   -1.70    2.20
   6   3  -2    6.40    3.00
  -6  -3   2    2.90    3.30
   5   3  -2   -1.30    1.70
   5   3  -2   -0.50    2.10
  -5  -3   2   -2.10    2.00
  -5  -3   2    1.00    2.30
   4   3  -2   19.60    1.80
   4   3  -2   22.70    3.70
   4   3  -2   23.00    3.50
   4   3  -2   20.60    2.80
   4   3  -2   19.80    2.60
  -4  -3   2   19.30    2.80
  -4  -3   2   23.20    2.90
  -4  -3   2   20.60    2.70
  -4  -3   2   21.10    3.20
  -4  -3   2   17.80    2.70
   3   3  -2    1.00    1.00
   3   3  -2    1.80    1.80
   3   3  -2    2.00    1.80
   3   3  -2   -2.00    1.10
   3   3  -2    1.00    1.00
  -3  -3   2    2.20    1.20
  -3  -3   2    1.90    1.30
  -3  -3   2    0.50    1.20
  -3  -3   2    1.40    1.20
  -3  -3   2    3.70    1.90
   2   3  -2   75.59    3.10
   2   3  -2   77.79    3.40
   2   3  -2   77.59    3.60
   2   3  -2   78.59    3.60
   2   3  -2   74.39    3.10
  -2  -3   2   76.69    3.40
  -2  -3   2   78.79    3.20
  -2  -3   2   81.09    3.50
  -2  -3   2   73.09    2.70
  -2  -3   2   72.49    3.20
   1   3  -2  277.27    7.00
   1   3  -2  290.17    7.60
   1   3  -2  269.47    7.20
   1   3  -2  287.57    7.40
   1   3  -2  259.87    7.30
   1   3  -2  273.07    7.60
  -1  -3   2  265.67    6.90
  -1  -3   2  273.47    7.50
  -1  -3   2  275.47    7.20
  -1  -3   2  259.47    7.50
  -1  -3   2  278.67    7.20
  -1  -3   2  270.87    6.40
  -1  -3   2  272.77    7.00
   0   3  -2  262.77    7.10
   0   3  -2  258.27    6.40
   0   3  -2  258.87    6.40
   0   3  -2  265.47    7.20
   0   3  -2  228.28    7.60
   0   3  -2  260.37    6.10
   0   3  -2  260.97    6.20
   0   3  -2  247.58    7.30
   0   3  -2  253.87    5.90
   0  -3   2  254.77    6.30
   0  -3   2  230.48    7.60
   0  -3   2  230.18    7.20
  -1   3  -2  398.56   10.80
  -1   3  -2  403.16   10.60
  -1   3  -2  407.36    9.90
  -1   3  -2  408.16   10.40
  -1   3  -2  454.65   11.50
  -1   3  -2  386.56   10.80
   1  -3   2  384.36   10.30
   1  -3   2  392.16   10.50
   1  -3   2  405.06   11.00
   1  -3   2  380.46   10.70
   1  -3   2  384.76   10.40
  -2   3  -2   97.39    2.80
  -2   3  -2   98.39    3.60
  -2   3  -2  105.39    4.00
  -2   3  -2  100.69    4.50
  -2   3  -2   97.59    4.20
  -2   3  -2  103.79    4.10
  -2   3  -2   96.59    2.90
  -2   3  -2   97.19    2.90
  -2   3  -2   97.19    4.20
   2  -3   2   92.29    3.60
   2  -3   2   92.59    4.40
   2  -3   2   93.39    4.10
  -3   3  -2  132.59    5.10
  -3   3  -2  120.09    5.00
  -3   3  -2  116.69    4.10
  -3   3  -2  118.39    4.60
  -3   3  -2  121.89    4.20
  -3   3  -2  117.49    5.40
  -3   3  -2  122.89    3.40
  -3   3  -2  125.49    5.10
  -3   3  -2  112.39    5.40
   3  -3   2  122.29    5.00
   3  -3   2  120.89    4.70
   3  -3   2  122.19    5.60
  -4   3  -2   28.40    3.30
  -4   3  -2   26.90    3.30
  -4   3  -2   28.50    3.60
  -4   3  -2   23.00    2.70
  -4   3  -2   26.10    3.00
  -4   3  -2   25.80    3.60
  -4   3  -2   26.70    2.70
   4  -3   2   27.70    2.70
   4  -3   2   28.20    3.50
  -5   3  -2   35.50    4.90
  -5   3  -2   38.50    4.10
  -5   3  -2   33.30    4.00
  -5   3  -2   40.60    4.60
   5  -3   2   43.80    4.00
   5  -3   2   51.79    5.20
  -6   3  -2   -2.20    3.30
  -6   3  -2    3.80    4.10
   6  -3   2   -1.70    2.70
   6  -3   2   -4.90    3.60
  -7   3  -2    5.40    5.70
   7  -3   2    4.30    3.90
   7  -3   2  -12.30    4.80
   7   2  -2   -3.10    3.30
   7   2  -2    1.20    4.00
  -7  -2   2    0.20    4.10
  -7  -2   2   -6.90    4.60
   6   2  -2    8.10    3.30
   6   2  -2    5.10    2.00
   6   2  -2    6.40    3.00
   6   2  -2    5.90    2.70
  -6  -2   2    5.90    3.90
  -6  -2   2    5.90    4.30
   5   2  -2    6.30    2.40
   5   2  -2    5.30    2.20
   5   2  -2    5.80    1.70
   5   2  -2    8.10    2.20
  -5  -2   2    3.90    2.50
  -5  -2   2    1.00    2.20
   4   2  -2   49.10    3.30
   4   2  -2   52.79    4.50
   4   2  -2   50.39    3.10
   4   2  -2   48.50    3.20
   4   2  -2   50.99    4.40
  -4  -2   2   44.40    3.70
  -4  -2   2   53.09    3.50
  -4  -2   2   51.79    4.30
  -4  -2   2   48.20    3.50
   3   2  -2  138.19    5.10
   3   2  -2  136.59    4.90
   3   2  -2  144.09    5.80
   3   2  -2  139.59    5.60
  -3  -2   2  131.79    5.10
  -3  -2   2  136.29    5.30
  -3  -2   2  142.79    5.50
  -3  -2   2  141.49    5.10
   2   2  -2 1082.99   25.50
   2   2  -2 1045.50   24.90
   2   2  -2 1066.09   25.10
   2   2  -2 1075.59   25.30
  -2  -2   2 1087.69   25.20
  -2  -2   2 1059.69   25.30
  -2  -2   2 1101.19   25.00
  -2  -2   2 1007.80   25.00
   1   2  -2 3536.35   82.09
   1   2  -2 3817.22   84.99
   1   2  -2 3944.61   84.99
   1   2  -2 3714.53   83.99
  -1  -2   2 3840.12   86.29
  -1  -2   2 3729.53   83.09
  -1  -2   2 3375.86   81.79
  -1  -2   2 3923.51   86.59
  -1  -2   2 3656.93   82.69
  -1  -2   2 3842.42   85.29
  -1  -2   2 3528.05   82.99
  -1  -2   2 3509.65   81.99
   0   2  -2 1898.91   45.50
   0   2  -2 2047.50   45.60
   0   2  -2 2029.70   45.90
   0   2  -2 2015.90   45.60
   0   2  -2 1990.80   45.60
   0   2  -2 2037.20   45.60
   0   2  -2 2091.89   45.70
   0   2  -2 2062.19   45.70
   0   2  -2 2080.89   45.70
   0  -2   2 2157.48   46.30
   0  -2   2 1962.50   45.60
   0  -2   2 1973.30   45.70
   0  -2   2 1911.51   45.50
   0  -2   2 2073.89   45.40
   0  -2   2 2160.98   45.60
  -1   2  -2   27.40    1.30
  -1   2  -2   27.00    1.80
  -1   2  -2   26.30    1.60
  -1   2  -2   27.40    0.90
  -1   2  -2   29.90    1.60
  -1   2  -2   28.70    1.90
  -1   2  -2   28.50    1.00
  -1   2  -2   28.20    1.40
   1  -2   2   26.40    1.40
   1  -2   2   26.60    1.90
   1  -2   2   29.00    1.70
  -2   2  -2   68.89    2.10
  -2   2  -2   68.39    2.40
  -2   2  -2   65.49    3.00
  -2   2  -2   67.89    2.40
  -2   2  -2   74.19    2.90
  -2   2  -2   69.09    3.00
  -2   2  -2   67.29    3.00
  -2   2  -2   66.89    2.40
  -2   2  -2   64.49    3.20
  -2   2  -2   67.39    3.30
   2  -2   2   67.89    2.80
   2  -2   2   68.09    2.30
   2  -2   2   68.59    3.40
  -3   2  -2    1.80    1.10
  -3   2  -2    2.10    1.10
  -3   2  -2    2.60    1.00
  -3   2  -2    0.40    0.50
  -3   2  -2    1.10    1.30
  -3   2  -2    1.60    1.30
   3  -2   2   -0.20    0.80
   3  -2   2    2.20    1.50
   3  -2   2    1.50    0.50
   3  -2   2    1.20    0.50
   3  -2   2    0.90    0.50
  -4   2  -2   15.20    2.80
  -4   2  -2   10.70    2.10
  -4   2  -2   14.00    2.30
  -4   2  -2   12.60    1.90
  -4   2  -2   11.40    2.10
  -4   2  -2    9.50    1.90
   4  -2   2    9.90    2.80
   4  -2   2    9.00    2.40
   4  -2   2   11.70    1.40
   4  -2   2   11.10    1.00
   4  -2   2    9.20    1.80
   4  -2   2   12.20    1.40
  -5   2  -2    8.10    2.90
  -5   2  -2    6.10    2.70
  -5   2  -2   11.30    2.60
  -5   2  -2    7.00    2.50
   5  -2   2    7.50    2.30
   5  -2   2    8.70    2.80
   5  -2   2    6.20    2.60
   5  -2   2    7.70    1.30
  -6   2  -2   12.60    3.60
   6  -2   2    7.60    2.90
   6  -2   2    7.80    1.80
   6  -2   2    9.90    3.80
  -7   2  -2   -3.80    5.00
   7  -2   2    0.10    4.60
   7  -2   2    3.90    3.80
   7   1  -2    4.70    3.90
   7   1  -2   -3.90    3.00
  -7  -1   2    0.20    4.60
  -7  -1   2    8.20    4.40
   6   1  -2   -2.60    2.60
   6   1  -2   -4.20    2.20
   6   1  -2   -0.40    2.10
   6   1  -2    0.30    1.30
  -6  -1   2   -1.60    3.00
  -6  -1   2   -0.90    2.80
   5   1  -2    6.10    1.90
   5   1  -2    3.40    1.80
   5   1  -2    1.40    1.20
  -5  -1   2    6.00    2.30
  -5  -1   2   -0.20    2.20
   4   1  -2    6.90    1.70
   4   1  -2   11.60    3.00
   4   1  -2    7.00    1.50
   4   1  -2   10.10    2.70
   4   1  -2    7.00    1.40
  -4  -1   2    8.30    2.20
  -4  -1   2    9.40    2.00
  -4  -1   2    7.30    2.40
  -4  -1   2    7.40    2.00
   3   1  -2  364.16    9.90
   3   1  -2  367.36   10.30
   3   1  -2  372.46   10.30
   3   1  -2  390.56   11.20
   3   1  -2  369.46   10.10
   3   1  -2  382.36   10.80
  -3  -1   2  371.46   10.60
  -3  -1   2  372.96   10.90
  -3  -1   2  393.16   10.70
  -3  -1   2  410.06   10.50
   2   1  -2   34.40    2.20
   2   1  -2   33.00    1.70
   2   1  -2   35.00    2.00
   2   1  -2   31.40    1.80
   2   1  -2   33.30    2.20
  -2  -1   2   33.10    2.10
  -2  -1   2   31.30    1.90
  -2  -1   2   31.80    2.10
  -2  -1   2   32.70    1.80
   1   1  -2 8808.62  206.38
   1   1  -2 8648.54  205.68
   1   1  -2 9378.36  206.68
   1   1  -2 9758.72  208.98
   1   1  -2 8931.01  206.58
  -1  -1   2 9138.99  207.28
  -1  -1   2 9390.96  206.98
  -1  -1   2 9322.57  204.88
  -1  -1   2 9473.35  208.58
  -1  -1   2 9237.28  206.58
   0   1  -2 5573.04  127.39
   0   1  -2 5872.31  127.09
   0   1  -2 5643.34  125.69
   0   1  -2 5582.14  126.09
   0   1  -2 5622.94  125.59
   0   1  -2 5607.34  127.99
   0   1  -2 5883.71  128.79
   0   1  -2 5581.04  128.79
   0  -1   2 5750.92  127.09
   0  -1   2 5562.94  125.99
   0  -1   2 5662.83  126.89
   0  -1   2 5622.64  128.59
   0  -1   2 5892.61  129.59
   0  -1   2 5630.54  125.79
   0  -1   2 5882.71  129.19
  -1   1  -2  131.19    3.40
  -1   1  -2  134.39    3.30
  -1   1  -2  128.49    3.80
  -1   1  -2  129.29    3.20
  -1   1  -2  128.09    3.50
  -1   1  -2  126.39    3.40
  -1   1  -2  130.69    3.80
   1  -1   2  128.19    3.10
   1  -1   2  125.19    3.50
   1  -1   2  121.09    4.00
   1  -1   2  127.49    3.40
   1  -1   2  131.29    3.30
  -2   1  -2  319.77    9.30
  -2   1  -2  341.57    8.30
  -2   1  -2  340.77    8.50
  -2   1  -2  340.37    8.50
  -2   1  -2  341.27    8.60
  -2   1  -2  332.67    8.00
   2  -1   2  335.37    8.00
   2  -1   2  323.47    9.10
   2  -1   2  340.37    9.40
   2  -1   2  329.87    8.20
   2  -1   2  328.77    7.90
  -3   1  -2  216.88    6.50
  -3   1  -2  204.48    5.60
  -3   1  -2  211.78    6.10
  -3   1  -2  212.18    7.30
  -3   1  -2  202.68    6.50
  -3   1  -2  217.98    6.10
   3  -1   2  202.98    5.90
   3  -1   2  215.58    5.80
   3  -1   2  203.58    7.10
   3  -1   2  205.28    5.20
   3  -1   2  202.88    6.90
   3  -1   2  209.78    6.50
  -4   1  -2    4.90    2.00
  -4   1  -2    4.20    1.70
  -4   1  -2    5.60    1.90
  -4   1  -2    4.90    1.50
   4  -1   2    2.30    1.40
   4  -1   2    4.10    0.60
   4  -1   2    4.10    1.50
   4  -1   2    3.80    2.00
   4  -1   2    4.20    2.30
   4  -1   2    4.70    1.30
  -5   1  -2   61.59    4.50
  -5   1  -2   71.99    5.60
  -5   1  -2   62.29    4.40
   5  -1   2   65.69    3.40
   5  -1   2   65.39    4.80
   5  -1   2   63.59    4.00
   5  -1   2   67.99    4.40
   5  -1   2   62.39    2.10
  -6   1  -2   10.10    3.40
  -6   1  -2   10.60    3.90
   6  -1   2    8.30    3.20
   6  -1   2    6.60    2.60
   6  -1   2    6.80    2.10
   6  -1   2    6.00    3.30
  -7   1  -2    3.60    4.40
  -7   1  -2    6.50    5.20
   7  -1   2    2.50    3.60
   7  -1   2   -1.90    4.30
   7  -1   2    1.70    2.50
   7   0  -2    6.60    3.80
   7   0  -2    6.70    3.80
  -7   0   2   -4.20    4.10
  -7   0   2   14.60    5.20
   6   0  -2    1.20    2.50
   6   0  -2   -0.20    2.10
  -6   0   2    1.70    3.40
  -6   0   2    1.40    2.20
  -6   0   2   -0.60    2.90
   5   0  -2    3.40    0.80
   5   0  -2    0.70    1.50
   5   0  -2    3.90    1.20
   5   0  -2    2.70    1.80
   5   0  -2    6.10    1.40
   5   0  -2    6.00    3.10
  -5   0   2    4.20    2.20
  -5   0   2    2.50    2.30
   4   0  -2    6.50    1.30
   4   0  -2    6.30    1.50
   4   0  -2    5.90    0.90
   4   0  -2   11.00    2.60
   4   0  -2    4.70    1.40
   4   0  -2    5.90    2.40
  -4   0   2    8.00    1.90
  -4   0   2   10.40    2.50
  -4   0   2    5.00    1.60
  -4   0   2    3.30    1.70
   3   0  -2    1.90    1.40
   3   0  -2   -1.20    1.30
   3   0  -2    0.50    0.80
   3   0  -2   -0.40    0.50
   3   0  -2    0.60    0.80
  -3   0   2   -0.20    1.00
  -3   0   2   -1.60    1.10
  -3   0   2   -0.90    0.70
  -3   0   2    2.00    1.10
  -3   0   2    0.90    0.90
   2   0  -2    1.60    0.40
   2   0  -2    3.00    1.00
   2   0  -2    2.90    0.80
   2   0  -2    2.50    0.70
  -2   0   2    1.10    0.50
  -2   0   2    1.60    0.80
  -2   0   2    2.60    0.90
   1   0  -2   29.60    1.50
   1   0  -2   28.80    1.30
   1   0  -2   28.80    1.40
   1   0  -2   28.20    1.10
   1   0  -2   27.50    1.20
  -1   0   2   28.70    1.30
  -1   0   2   27.80    1.10
  -1   0   2   29.30    1.50
  -1   0   2   28.60    1.30
  -1   0   2   27.80    1.30
  -1   0   2   29.30    1.20
   0   0  -2  274.67    6.60
   0   0  -2  286.17    6.60
   0   0  -2  292.17    6.60
   0   0  -2  291.97    6.70
   0   0  -2  275.97    6.60
   0   0   2  287.47    6.60
   0   0   2  276.87    6.60
   0   0   2  280.67    6.60
   0   0   2  279.67    6.50
   0   0   2  281.17    6.60
  -1   0  -2   90.09    2.60
  -1   0  -2   86.29    2.50
  -1   0  -2   87.39    2.40
  -1   0  -2   86.39    2.60
   1   0   2   89.79    2.50
   1   0   2   86.09    2.60
   1   0   2   87.19    2.50
   1   0   2   83.39    2.70
   1   0   2   86.39    2.30
  -2   0  -2  873.41   20.30
  -2   0  -2  872.61   19.60
  -2   0  -2  872.81   19.90
  -2   0  -2  847.62   20.90
  -2   0  -2  876.11   19.40
  -2   0  -2  848.02   19.50
  -2   0  -2  827.82   20.60
   2   0   2  842.62   21.10
   2   0   2  724.03   20.50
   2   0   2  840.12   19.50
   2   0   2  853.21   19.30
   2   0   2  884.81   19.70
  -3   0  -2    5.00    1.10
  -3   0  -2    3.90    1.20
  -3   0  -2    5.70    1.60
  -3   0  -2    4.40    1.40
  -3   0  -2    4.00    0.80
   3   0   2    4.60    1.20
   3   0   2    2.20    1.00
   3   0   2    4.90    0.70
   3   0   2    2.90    1.10
   3   0   2    4.20    1.50
   3   0   2    3.70    1.20
   3   0   2    3.20    0.90
  -4   0  -2  204.78    7.10
  -4   0  -2  193.08    6.50
  -4   0  -2  194.58    7.50
  -4   0  -2  190.08    7.10
  -4   0  -2  201.38    7.80
   4   0   2  200.78    6.50
   4   0   2  191.78    6.50
   4   0   2  198.48    6.80
   4   0   2  199.88    7.90
   4   0   2  203.38    5.40
   4   0   2  204.18    6.60
   4   0   2  195.58    7.00
  -5   0  -2  115.39    5.50
  -5   0  -2  118.39    6.50
  -5   0  -2  105.39    5.80
   5   0   2  111.49    5.60
   5   0   2  111.89    5.80
   5   0   2  116.19    5.00
   5   0   2  108.09    3.50
   5   0   2  115.59    5.60
  -6   0  -2   28.30    4.80
  -6   0  -2   23.00    4.00
   6   0   2   28.40    3.60
   6   0   2   28.00    4.20
   6   0   2   31.80    4.40
   6   0   2   28.70    4.00
   6   0   2   25.70    1.80
  -7   0  -2    2.60    4.20
  -7   0  -2   -6.20    4.50
   7   0   2    1.20    3.00
   7   0   2    1.70    4.10
   7   0   2    1.30    3.70
   7  -1  -2   -5.30    3.50
   7  -1  -2    2.20    2.90
  -7   1   2   12.10    5.20
  -7   1   2    1.40    4.10
   6  -1  -2    1.20    3.90
   6  -1  -2    0.60    2.00
   6  -1  -2    6.10    2.70
  -6   1   2    3.90    3.30
  -6   1   2    1.40    2.90
  -6   1   2    0.30    2.30
   5  -1  -2    7.90    3.00
   5  -1  -2    4.50    1.60
   5  -1  -2    9.30    2.00
   5  -1  -2    3.60    1.80
  -5   1   2    2.90    2.50
  -5   1   2    5.00    2.20
  -5   1   2    3.70    1.60
   4  -1  -2   65.89    4.00
   4  -1  -2   60.59    3.00
   4  -1  -2   59.49    1.80
   4  -1  -2   60.89    3.50
   4  -1  -2   63.89    4.80
  -4   1   2   57.09    3.50
  -4   1   2   57.39    3.60
  -4   1   2   65.69    3.70
  -4   1   2   72.79    4.10
  -4   1   2   65.29    2.80
  -4   1   2   59.89    4.10
   3  -1  -2  939.81   22.10
   3  -1  -2 1011.20   24.70
   3  -1  -2  964.70   23.20
   3  -1  -2 1022.70   24.00
   3  -1  -2  961.30   23.80
  -3   1   2  988.00   24.00
  -3   1   2  999.70   24.50
  -3   1   2 1005.90   23.70
  -3   1   2  996.40   22.80
  -3   1   2 1031.20   23.90
  -3   1   2 1028.60   23.80
   2  -1  -2  515.75   12.50
   2  -1  -2  497.15   13.80
   2  -1  -2  488.35   13.10
   2  -1  -2  538.95   12.70
   2  -1  -2  509.15   11.60
  -2   1   2  497.75   13.00
  -2   1   2  546.75   12.60
  -2   1   2  513.45   12.80
  -2   1   2  467.15   13.30
  -2   1   2  527.75   11.90
  -2   1   2  551.14   12.80
   1  -1  -2 3175.78   72.09
   1  -1  -2 3154.88   71.99
   1  -1  -2 3122.09   71.89
   1  -1  -2 3090.79   70.69
   1  -1  -2 3079.19   70.79
   1  -1  -2 3247.28   71.59
  -1   1   2 3137.19   71.79
  -1   1   2 3168.58   72.69
  -1   1   2 3083.99   70.89
  -1   1   2 3188.08   72.29
  -1   1   2 3191.48   72.69
   0  -1  -2  668.43   15.30
   0  -1  -2  671.43   15.10
   0  -1  -2  661.33   15.20
   0  -1  -2  720.23   15.10
   0   1   2  663.63   15.20
   0   1   2  634.04   15.10
   0   1   2  658.73   15.20
   0   1   2  666.93   15.10
  -1  -1  -2  600.04   13.70
  -1  -1  -2  586.24   13.70
  -1  -1  -2  597.74   13.80
  -1  -1  -2  577.34   13.80
  -1  -1  -2  575.54   13.50
   1   1   2  570.84   13.70
   1   1   2  584.34   13.50
   1   1   2  582.84   13.70
   1   1   2  592.64   13.80
   1   1   2  585.44   13.70
  -2  -1  -2    0.50    0.50
  -2  -1  -2    0.60    0.70
  -2  -1  -2   -0.10    0.80
   2   1   2    1.00    0.80
   2   1   2    1.60    0.60
   2   1   2    0.40    0.60
   2   1   2    0.00    0.70
  -3  -1  -2   26.70    1.90
  -3  -1  -2   31.10    2.40
  -3  -1  -2   26.50    2.40
  -3  -1  -2   27.90    2.50
  -3  -1  -2   27.70    2.50
   3   1   2   28.70    2.70
   3   1   2   24.50    1.80
   3   1   2   26.00    2.30
   3   1   2   26.50    1.70
   3   1   2   30.00    2.20
  -4  -1  -2   -0.60    1.40
  -4  -1  -2    1.60    1.60
  -4  -1  -2   -0.70    2.00
  -4  -1  -2    0.10    1.50
  -4  -1  -2    1.30    1.90
   4   1   2    1.90    1.80
   4   1   2   -0.10    1.30
   4   1   2    1.00    1.30
   4   1   2    1.60    1.20
   4   1   2    2.10    2.30
   4   1   2    1.30    1.00
  -5  -1  -2  229.78    9.00
  -5  -1  -2  237.58    9.50
   5   1   2  236.58    6.80
   5   1   2  236.78    8.40
   5   1   2  234.28    8.20
   5   1   2  238.88    8.20
   5   1   2  244.28    8.40
   5   1   2  230.28    8.50
  -6  -1  -2   15.50    3.60
  -6  -1  -2    7.70    3.60
   6   1   2    9.70    1.90
   6   1   2    7.50    2.70
   6   1   2    9.90    3.10
   6   1   2   11.20    3.00
  -7  -1  -2    1.40    4.50
   7   1   2    1.20    3.50
   7   1   2    1.70    3.70
   7   1   2    0.40    3.40
   7  -2  -2   -7.10    3.50
   7  -2  -2   -3.60    2.40
  -7   2   2    7.00    4.20
  -7   2   2    9.00    5.00
   6  -2  -2    5.40    2.50
   6  -2  -2    4.70    1.80
   6  -2  -2    7.40    4.00
  -6   2   2    2.60    2.50
  -6   2   2    0.60    3.50
  -6   2   2    2.90    3.00
   5  -2  -2    4.60    2.50
   5  -2  -2    7.00    2.30
   5  -2  -2    5.10    2.10
   5  -2  -2    8.20    1.60
  -5   2   2    9.40    3.10
  -5   2   2    6.20    1.80
  -5   2   2   11.70    2.90
  -5   2   2    8.40    2.40
   4  -2  -2   39.20    3.00
   4  -2  -2   44.10    4.30
   4  -2  -2   39.90    2.80
   4  -2  -2   36.10    2.10
   4  -2  -2   35.20    3.10
  -4   2   2   37.80    3.50
  -4   2   2   35.20    2.90
  -4   2   2   34.50    2.40
  -4   2   2   42.50    3.40
  -4   2   2   41.40    3.50
  -4   2   2   35.90    3.40
   3  -2  -2   98.49    3.90
   3  -2  -2  100.79    3.30
   3  -2  -2  102.69    4.70
   3  -2  -2  102.49    4.10
   3  -2  -2   99.69    4.10
  -3   2   2  100.99    3.50
  -3   2   2  102.09    3.90
  -3   2   2   99.99    4.50
  -3   2   2  104.09    4.50
  -3   2   2  107.99    4.20
  -3   2   2  104.59    4.10
  -3   2   2   97.89    3.90
   2  -2  -2   17.00    1.40
   2  -2  -2   16.20    1.70
   2  -2  -2   18.70    1.40
   2  -2  -2   17.60    1.00
  -2   2   2   19.50    0.60
  -2   2   2   16.60    1.20
  -2   2   2   13.90    1.30
  -2   2   2   16.20    1.40
  -2   2   2   16.20    1.80
  -2   2   2   12.40    1.70
  -2   2   2   15.10    1.20
   1  -2  -2 2472.35   56.39
   1  -2  -2 2343.77   55.29
   1  -2  -2 2524.05   56.59
   1  -2  -2 2557.74   57.99
   1  -2  -2 2370.26   55.59
  -1   2   2 2567.84   57.19
  -1   2   2 2449.25   55.69
  -1   2   2 2528.65   56.29
  -1   2   2 2602.74   57.59
  -1   2   2 2553.84   56.89
   0  -2  -2 9260.47  200.18
   0  -2  -2 8455.85  199.68
   0  -2  -2 8531.35  196.98
   0  -2  -2 8977.10  196.98
   0  -2  -2 8654.63  198.88
   0   2   2 9619.34  199.78
   0   2   2 8627.54  200.68
   0   2   2 8568.34  199.08
   0   2   2 9999.00  202.28
   0   2   2 8760.52  201.08
  -1  -2  -2  414.76    9.80
  -1  -2  -2  402.36    9.80
  -1  -2  -2  398.16   10.00
  -1  -2  -2  398.66    9.80
  -1  -2  -2  396.46    9.70
   1   2   2  395.36    9.90
   1   2   2  388.36    9.80
   1   2   2  408.26    9.70
   1   2   2  397.46    9.80
   1   2   2  426.16   10.00
   1   2   2  406.76   10.10
  -2  -2  -2   -0.70    0.70
  -2  -2  -2    1.00    0.90
  -2  -2  -2    1.40    0.70
  -2  -2  -2    1.00    0.80
   2   2   2    0.50    0.80
   2   2   2    0.40    0.80
   2   2   2    0.00    0.80
   2   2   2    1.20    0.70
   2   2   2    1.20    0.80
   2   2   2    0.10    0.80
  -3  -2  -2    4.20    1.40
  -3  -2  -2    6.00    1.40
  -3  -2  -2    3.90    1.30
  -3  -2  -2    3.70    1.30
  -3  -2  -2    5.20    1.30
   3   2   2    4.20    1.60
   3   2   2    3.40    0.90
   3   2   2    0.70    1.40
   3   2   2    5.30    1.30
   3   2   2    3.50    1.30
  -4  -2  -2   35.80    3.10
  -4  -2  -2   41.10    3.70
  -4  -2  -2   37.50    3.50
  -4  -2  -2   39.60    3.10
   4   2   2   36.90    3.60
   4   2   2   37.10    2.70
   4   2   2   41.70    2.70
   4   2   2   37.50    4.00
   4   2   2   41.90    2.90
   4   2   2   44.30    3.10
  -5  -2  -2   99.09    6.00
  -5  -2  -2  105.09    5.80
   5   2   2  100.59    4.90
   5   2   2   99.89    5.20
   5   2   2   89.69    6.10
   5   2   2   97.29    4.50
   5   2   2   94.29    4.80
  -6  -2  -2   25.90    4.50
  -6  -2  -2   18.70    4.30
   6   2   2   21.70    3.80
   6   2   2   23.70    3.00
   6   2   2   22.30    3.70
   6   2   2   17.60    3.40
   6   2   2   18.80    3.50
  -7  -2  -2   -3.80    4.90
   7   2   2    2.70    3.50
   7   2   2    5.60    4.00
   7   2   2   -2.50    3.60
   7  -3  -2   14.30    4.40
  -7   3   2   18.30    5.50
  -7   3   2    7.20    4.50
   6  -3  -2   20.40    3.80
   6  -3  -2   22.60    3.70
   6  -3  -2   22.80    2.30
  -6   3   2   23.80    3.80
   5  -3  -2   11.40    2.70
   5  -3  -2   12.70    2.50
   5  -3  -2   16.10    1.80
   5  -3  -2   16.10    2.90
  -5   3   2    9.90    3.00
  -5   3   2   17.90    4.00
  -5   3   2   12.50    2.20
  -5   3   2   12.40    2.70
   4  -3  -2    1.20    1.40
   4  -3  -2    2.40    1.80
   4  -3  -2   -1.60    2.60
   4  -3  -2    0.80    1.30
   4  -3  -2    1.50    0.80
  -4   3   2   -1.40    1.90
  -4   3   2    2.10    1.90
  -4   3   2    3.90    2.30
  -4   3   2   -0.20    1.30
  -4   3   2    4.70    2.00
  -4   3   2    0.10    1.30
  -4   3   2    4.00    1.90
   3  -3  -2   11.00    1.80
   3  -3  -2    9.30    2.10
   3  -3  -2    9.80    1.60
   3  -3  -2   10.40    1.30
   3  -3  -2   10.50    1.10
  -3   3   2   10.40    2.10
  -3   3   2   10.10    1.50
  -3   3   2    7.40    1.60
  -3   3   2   10.40    1.50
  -3   3   2   10.80    1.80
  -3   3   2   11.70    1.60
   2  -3  -2   61.09    2.10
   2  -3  -2   61.39    3.00
   2  -3  -2   60.39    1.90
   2  -3  -2   57.59    3.10
   2  -3  -2   59.59    2.80
   2  -3  -2   59.79    2.60
  -2   3   2   63.39    2.90
  -2   3   2   60.59    2.70
  -2   3   2   56.79    3.20
  -2   3   2   64.99    2.20
  -2   3   2   62.89    3.30
  -2   3   2   62.69    2.50
  -2   3   2   61.59    1.80
   1  -3  -2   11.40    1.20
   1  -3  -2    9.90    1.50
   1  -3  -2   10.20    0.70
   1  -3  -2    9.00    1.00
  -1   3   2    9.20    1.20
  -1   3   2   10.10    1.00
  -1   3   2   11.10    0.80
  -1   3   2   11.90    1.00
  -1   3   2   10.30    0.80
  -1   3   2   11.80    0.80
   0  -3  -2 1706.53   38.80
   0  -3  -2 1807.42   39.10
   0  -3  -2 1767.02   39.00
   0  -3  -2 1731.33   39.10
   0   3   2 1667.43   39.10
   0   3   2 1772.62   38.90
   0   3   2 1744.03   39.40
   0   3   2 1716.03   38.80
  -1  -3  -2   73.59    2.50
  -1  -3  -2   70.79    2.70
  -1  -3  -2   70.29    2.50
  -1  -3  -2   67.99    2.20
  -1  -3  -2   70.39    2.70
   1   3   2   76.29    2.90
   1   3   2   73.89    2.80
   1   3   2   65.19    2.90
   1   3   2   71.49    2.30
  -2  -3  -2  344.07    9.80
  -2  -3  -2  372.46    9.60
  -2  -3  -2  359.16    9.30
  -2  -3  -2  351.16    8.80
  -2  -3  -2  370.36    9.50
  -2  -3  -2  350.26    9.50
   2   3   2  361.76    9.50
   2   3   2  368.46    9.80
   2   3   2  347.77    9.70
   2   3   2  353.56    9.60
   2   3   2  343.57    9.40
  -3  -3  -2  441.76   11.70
  -3  -3  -2  416.66   12.20
  -3  -3  -2  454.75   12.00
  -3  -3  -2  433.66   11.60
  -3  -3  -2  432.96   12.10
   3   3   2  450.75   12.00
   3   3   2  414.76   12.00
   3   3   2  449.66   12.20
   3   3   2  419.06   11.60
   3   3   2  434.96   12.10
  -4  -3  -2  118.89    5.40
  -4  -3  -2  115.59    5.50
  -4  -3  -2  107.39    5.30
  -4  -3  -2  113.89    5.00
  -4  -3  -2  122.29    5.70
   4   3   2  113.29    5.80
   4   3   2  117.89    5.60
   4   3   2  108.59    5.20
   4   3   2  124.09    5.30
  -5  -3  -2   22.80    3.50
  -5  -3  -2   26.30    3.60
   5   3   2   22.20    3.00
   5   3   2   28.20    3.30
   5   3   2   25.30    3.60
   5   3   2   26.00    3.10
  -6  -3  -2   22.50    4.30
  -6  -3  -2   18.40    4.00
   6   3   2   21.00    3.80
   6   3   2   29.30    4.10
   6   3   2   19.90    3.60
   6   3   2   15.50    3.10
   6   3   2   22.90    3.50
  -7  -3  -2   -0.70    4.80
  -7  -3  -2    8.60    4.90
   7   3   2   -1.10    3.90
   7   3   2   17.30    4.20
   7   3   2    4.10    4.00
   7   3   2    4.30    3.60
   7  -4  -2   16.00    4.90
  -7   4   2    9.50    4.60
  -7   4   2    4.80    5.60
   6  -4  -2   13.90    4.00
   6  -4  -2   19.50    3.90
  -6   4   2   17.90    3.70
  -6   4   2   18.30    5.10
   5  -4  -2    1.60    1.30
   5  -4  -2    0.80    2.80
   5  -4  -2   -2.10    2.10
   5  -4  -2    0.50    0.90
  -5   4   2    2.50    2.00
  -5   4   2    2.50    2.50
  -5   4   2    1.50    2.70
   4  -4  -2   21.20    1.00
   4  -4  -2   23.90    2.90
   4  -4  -2   17.60    3.60
   4  -4  -2   26.50    3.60
   4  -4  -2   23.60    1.70
  -4   4   2   23.10    2.50
  -4   4   2   23.20    2.70
  -4   4   2   27.40    2.90
  -4   4   2   22.50    3.60
   3  -4  -2   15.20    2.50
   3  -4  -2   15.20    2.00
   3  -4  -2   17.10    2.60
  -3   4   2   16.20    2.10
  -3   4   2   14.40    1.70
  -3   4   2   14.50    1.80
  -3   4   2   17.60    2.30
  -3   4   2   19.00    2.50
  -3   4   2   14.00    2.80
   2  -4  -2  658.83   16.60
   2  -4  -2  673.23   16.90
   2  -4  -2  654.83   17.50
   2  -4  -2  660.63   18.10
  -2   4   2  691.23   17.80
  -2   4   2  687.13   15.60
  -2   4   2  667.53   16.90
  -2   4   2  689.83   16.80
  -2   4   2  692.43   16.90
  -2   4   2  668.63   16.80
  -2   4   2  678.53   15.70
  -2   4   2  661.53   15.90
   1  -4  -2   34.40    2.10
   1  -4  -2   33.90    2.60
   1  -4  -2   36.90    2.30
  -1   4   2   35.60    2.00
  -1   4   2   37.40    1.50
  -1   4   2   37.10    2.80
  -1   4   2   38.10    1.50
  -1   4   2   39.10    1.70
  -1   4   2   43.80    2.30
  -1   4   2   37.50    1.70
   0  -4  -2  230.08    5.80
   0  -4  -2  231.78    5.90
   0  -4  -2  223.38    7.10
   0  -4  -2  232.78    6.80
   0  -4  -2  238.28    6.40
   0  -4  -2  237.78    5.60
   0   4   2  209.18    6.60
   0   4   2  231.78    5.90
   0   4   2  228.08    6.50
   0   4   2  237.78    6.10
   0   4   2  234.18    6.50
   0   4   2  240.18    6.00
  -1  -4  -2   30.60    1.60
  -1  -4  -2   29.60    1.80
  -1  -4  -2   27.60    1.20
   1   4   2   29.20    1.60
   1   4   2   28.70    1.30
   1   4   2   27.00    1.80
  -2  -4  -2  250.87    7.30
  -2  -4  -2  257.17    7.30
  -2  -4  -2  250.37    7.10
  -2  -4  -2  229.78    7.50
  -2  -4  -2  256.07    7.10
  -2  -4  -2  269.37    7.60
   2   4   2  265.77    7.80
   2   4   2  258.97    7.20
   2   4   2  248.98    7.60
   2   4   2  242.08    7.20
  -3  -4  -2   59.99    3.60
  -3  -4  -2   62.19    3.20
  -3  -4  -2   64.29    2.40
  -3  -4  -2   62.59    3.50
  -3  -4  -2   63.89    3.70
  -3  -4  -2   57.79    3.30
   3   4   2   59.79    3.20
   3   4   2   61.69    3.90
   3   4   2   63.19    3.80
   3   4   2   62.79    3.60
   3   4   2   58.59    3.40
  -4  -4  -2   93.29    5.30
  -4  -4  -2   96.69    5.10
  -4  -4  -2   96.19    4.80
  -4  -4  -2   92.49    5.00
  -4  -4  -2   88.19    5.00
   4   4   2   94.79    5.20
   4   4   2   93.59    4.40
   4   4   2   92.79    5.50
   4   4   2   85.39    5.40
   4   4   2   95.99    5.00
  -5  -4  -2   -2.30    2.30
  -5  -4  -2    0.80    2.50
   5   4   2   -1.00    1.60
   5   4   2    6.80    2.90
   5   4   2    3.10    2.40
   5   4   2   -1.30    1.80
  -6  -4  -2   11.20    4.00
  -6  -4  -2    1.30    3.10
   6   4   2    8.10    2.60
  -7  -4  -2   32.50    6.10
  -7  -4  -2   14.30    5.50
   7   4   2   24.30    4.80
   7   4   2   24.40    5.00
   7   4   2   31.20    5.10
   7  -5  -2    7.80    4.70
  -7   5   2    2.20    6.00
  -7   5   2   11.00    4.90
   6  -5  -2   13.90    4.60
   6  -5  -2    6.30    3.60
  -6   5   2    5.40    4.50
  -6   5   2    9.90    3.60
   5  -5  -2   -0.10    2.30
   5  -5  -2   -1.50    3.10
  -5   5   2    1.30    2.60
  -5   5   2   -1.40    2.00
  -5   5   2   10.40    3.30
   4  -5  -2   -3.10    3.00
   4  -5  -2    0.50    2.50
   4  -5  -2   -0.20    1.60
  -4   5   2   -0.50    1.40
  -4   5   2    2.50    2.00
  -4   5   2    2.70    2.20
  -4   5   2   -0.20    1.90
  -4   5   2    0.70    2.30
   3  -5  -2  108.69    4.90
   3  -5  -2  109.19    4.60
   3  -5  -2  102.89    5.20
   3  -5  -2  105.59    5.60
  -3   5   2  111.39    3.10
  -3   5   2  109.59    5.00
  -3   5   2  105.89    4.00
  -3   5   2  110.99    5.00
  -3   5   2  106.99    5.10
  -3   5   2  111.99    4.90
  -3   5   2  114.99    3.90
  -3   5   2  112.29    4.70
  -3   5   2  103.39    6.10
  -3   5   2  107.89    3.00
   2  -5  -2  285.37    8.70
   2  -5  -2  295.07    9.60
   2  -5  -2  279.47    8.60
  -2   5   2  286.07    8.30
  -2   5   2  306.97    8.90
  -2   5   2  287.67    8.00
  -2   5   2  294.67    7.20
  -2   5   2  286.57    7.40
  -2   5   2  296.37    9.80
  -2   5   2  293.17    8.60
  -2   5   2  295.57    7.90
  -2   5   2  293.37    8.70
   1  -5  -2  114.79    4.60
   1  -5  -2  111.59    5.00
   1  -5  -2  113.79    3.90
  -1   5   2  114.29    4.30
  -1   5   2  114.79    3.30
  -1   5   2  116.99    5.20
  -1   5   2  116.79    3.70
  -1   5   2  110.09    4.10
  -1   5   2  111.79    3.50
  -1   5   2  114.99    3.30
   0  -5  -2  132.59    5.30
   0  -5  -2  140.19    3.40
   0  -5  -2  136.99    3.40
   0  -5  -2  135.69    5.00
   0  -5  -2  136.89    4.50
   0   5   2  137.59    5.30
   0   5   2  138.19    4.00
   0   5   2  133.89    4.40
   0   5   2  134.29    4.70
   0   5   2  137.99    4.20
   0   5   2  134.99    4.10
   0   5   2  140.29    4.70
  -1  -5  -2  522.45   13.00
  -1  -5  -2  527.35   12.20
  -1  -5  -2  508.45   12.50
  -1  -5  -2  486.05   12.50
  -1  -5  -2  494.95   13.40
   1   5   2  509.75   12.80
   1   5   2  488.15   13.00
   1   5   2  493.45   12.50
   1   5   2  510.75   11.90
   1   5   2  510.55   12.90
  -2  -5  -2   95.09    4.20
  -2  -5  -2  107.69    3.90
  -2  -5  -2  100.79    4.00
  -2  -5  -2  106.19    3.70
  -2  -5  -2  105.79    4.20
  -2  -5  -2  109.49    4.40
   2   5   2   98.89    4.00
   2   5   2  108.69    4.00
   2   5   2  104.99    4.60
   2   5   2  101.19    4.20
  -3  -5  -2   11.00    1.80
  -3  -5  -2    9.50    2.10
  -3  -5  -2    8.80    1.70
  -3  -5  -2    8.00    2.10
  -3  -5  -2   10.40    2.10
  -3  -5  -2   10.30    1.70
   3   5   2   11.70    2.20
   3   5   2   10.30    1.80
   3   5   2   10.60    1.90
   3   5   2    6.90    2.00
   3   5   2    8.10    2.40
  -4  -5  -2    7.10    2.10
  -4  -5  -2   13.00    2.50
  -4  -5  -2    6.60    2.20
  -4  -5  -2    7.70    2.80
   4   5   2    8.60    2.00
   4   5   2    9.20    2.30
   4   5   2    4.30    2.80
  -5  -5  -2    5.90    2.80
  -5  -5  -2    4.70    2.70
   5   5   2    7.50    2.30
   5   5   2   10.30    3.10
  -6  -5  -2   -3.80    3.50
  -6  -5  -2   -4.00    3.70
   6   5   2   -0.90    3.40
   6   5   2    2.50    2.70
   6   5   2   -2.10    2.30
  -7  -5  -2   -3.90    4.70
  -7  -5  -2   12.90    5.40
   7   5   2    9.80    4.30
   7   5   2   -0.80    4.50
   7   5   2    1.40    4.00
   6  -6  -2    3.50    3.80
  -6   6   2   -3.80    4.30
  -6   6   2    5.20    3.40
   5  -6  -2    6.90    2.90
   5  -6  -2   -0.20    3.60
  -5   6   2    0.40    2.20
  -5   6   2   -0.90    2.90
   4  -6  -2    1.10    3.10
   4  -6  -2    1.60    1.90
  -4   6   2    0.50    2.00
  -4   6   2    1.30    2.20
  -4   6   2    1.60    2.10
  -4   6   2   -1.50    1.40
  -4   6   2    1.40    2.60
  -4   6   2   -0.40    2.70
   3  -6  -2  153.18    7.40
   3  -6  -2  167.38    6.50
   3  -6  -2  162.18    6.30
  -3   6   2  157.38    6.40
  -3   6   2  161.28    4.90
  -3   6   2  158.58    4.70
  -3   6   2  154.28    6.00
  -3   6   2  165.88    6.70
  -3   6   2  148.39    5.40
  -3   6   2  156.18    6.20
   2  -6  -2  526.85   14.50
   2  -6  -2  514.25   15.50
   2  -6  -2  538.55   14.50
  -2   6   2  531.25   13.60
  -2   6   2  507.95   15.50
  -2   6   2  531.55   12.70
  -2   6   2  543.45   14.40
  -2   6   2  530.85   14.60
  -2   6   2  535.65   12.70
  -2   6   2  536.45   13.70
  -2   6   2  523.55   14.20
  -2   6   2  535.65   13.60
   1  -6  -2   42.60    2.40
   1  -6  -2   43.20    3.70
   1  -6  -2   41.90    3.10
  -1   6   2   43.90    2.50
  -1   6   2   40.00    4.00
  -1   6   2   44.10    2.00
  -1   6   2   43.80    2.00
  -1   6   2   44.70    3.00
  -1   6   2   42.60    1.80
  -1   6   2   43.40    2.40
  -1   6   2   40.10    2.60
   0  -6  -2   50.79    2.50
   0  -6  -2   47.10    3.60
   0  -6  -2   53.59    3.40
   0  -6  -2   52.49    2.90
   0   6   2   51.19    2.60
   0   6   2   54.29    2.90
   0   6   2   59.89    3.90
   0   6   2   52.59    2.60
   0   6   2   55.19    3.10
  -1  -6  -2   41.40    2.40
  -1  -6  -2   37.70    3.00
  -1  -6  -2   35.60    1.80
  -1  -6  -2   35.00    3.00
  -1  -6  -2   39.80    2.90
  -1  -6  -2   37.60    2.20
   1   6   2   39.60    2.70
   1   6   2   36.00    2.20
   1   6   2   36.80    2.40
   1   6   2   37.40    1.60
   1   6   2   36.90    2.60
  -2  -6  -2   88.09    3.90
  -2  -6  -2   87.89    4.20
  -2  -6  -2   90.39    3.70
  -2  -6  -2   87.19    3.90
  -2  -6  -2   91.49    3.70
  -2  -6  -2   86.09    3.40
   2   6   2   89.49    4.20
   2   6   2   88.99    4.50
   2   6   2   92.39    3.70
   2   6   2   89.49    3.80
   2   6   2   85.59    4.20
  -3  -6  -2    2.10    1.50
  -3  -6  -2    3.60    1.50
  -3  -6  -2    4.80    1.90
  -3  -6  -2    4.30    2.20
  -3  -6  -2    5.80    2.10
  -3  -6  -2    3.80    1.40
   3   6   2    2.10    1.40
   3   6   2    2.30    1.90
   3   6   2    1.40    1.80
   3   6   2    4.10    1.50
   3   6   2    2.70    2.70
  -4  -6  -2    7.30    2.50
  -4  -6  -2   10.30    2.30
  -4  -6  -2   10.60    2.90
   4   6   2    7.60    2.40
   4   6   2   13.50    3.40
   4   6   2    6.90    2.10
  -5  -6  -2   24.10    3.90
   5   6   2   28.10    3.70
   5   6   2   24.80    4.20
  -6  -6  -2    6.10    4.00
  -6  -6  -2    7.20    4.20
   6   6   2    1.70    3.90
   6   6   2   -4.10    3.10
   6   6   2    2.30    2.60
  -7  -6  -2    6.90    5.20
  -7  -6  -2    0.00    5.60
   7   6   2    2.50    4.80
   7   6   2    5.10    4.40
   6  -7  -2    7.30    4.40
   6  -7  -2   -0.50    5.80
  -6   7   2   10.60    4.80
  -6   7   2    0.90    3.50
  -6   7   2   -3.20    4.90
   5  -7  -2   39.80    6.50
   5  -7  -2   36.90    5.20
  -5   7   2   44.00    4.00
  -5   7   2   40.80    5.30
  -5   7   2   33.10    4.90
   4  -7  -2    9.70    2.90
   4  -7  -2    8.10    4.00
  -4   7   2    6.50    2.70
  -4   7   2   13.10    2.70
  -4   7   2    7.60    1.90
  -4   7   2    7.60    2.80
   3  -7  -2   32.20    3.60
   3  -7  -2   33.10    4.80
   3  -7  -2   30.30    3.50
  -3   7   2   35.60    2.30
  -3   7   2   34.00    2.70
  -3   7   2   29.50    3.30
  -3   7   2   35.80    2.40
  -3   7   2   32.70    3.40
  -3   7   2   28.30    3.50
   2  -7  -2   -1.80    1.60
   2  -7  -2    0.70    2.60
  -2   7   2    2.30    1.60
  -2   7   2    2.20    0.90
  -2   7   2    1.60    1.40
  -2   7   2    2.40    1.50
  -2   7   2    1.00    0.80
   1  -7  -2    6.40    2.40
   1  -7  -2    1.10    1.50
   1  -7  -2   -0.10    1.10
  -1   7   2    0.00    1.30
  -1   7   2   -2.30    2.70
  -1   7   2    0.80    0.80
  -1   7   2    3.10    1.80
  -1   7   2    0.40    1.10
  -1   7   2    1.20    1.30
  -1   7   2    0.50    0.90
   0  -7  -2   14.00    2.70
   0  -7  -2   13.70    1.80
   0  -7  -2   15.20    2.20
   0  -7  -2    8.60    1.90
   0   7   2   14.30    2.20
   0   7   2   11.50    1.70
   0   7   2   13.10    1.80
   0   7   2   13.60    2.10
   0   7   2   10.20    2.70
  -1  -7  -2   18.20    2.50
  -1  -7  -2   16.20    1.20
  -1  -7  -2   16.90    2.00
  -1  -7  -2   19.80    2.90
  -1  -7  -2   18.20    2.20
  -1  -7  -2   21.30    2.80
   1   7   2   17.50    3.00
   1   7   2   16.30    2.20
   1   7   2   18.90    2.40
   1   7   2   19.00    2.20
   1   7   2   15.70    1.30
   1   7   2   16.00    1.80
  -2  -7  -2   48.40    3.80
  -2  -7  -2   50.19    3.70
  -2  -7  -2   47.60    3.10
  -2  -7  -2   49.90    2.80
  -2  -7  -2   47.40    3.90
  -2  -7  -2   50.29    3.10
  -2  -7  -2   49.80    3.00
   2   7   2   50.99    3.50
   2   7   2   47.90    2.90
   2   7   2   45.40    4.00
   2   7   2   49.40    3.00
   2   7   2   47.00    3.30
  -3  -7  -2    2.30    1.80
  -3  -7  -2   -0.70    1.80
  -3  -7  -2    2.40    1.60
  -3  -7  -2   -2.00    1.40
  -3  -7  -2    2.10    1.60
  -3  -7  -2    1.10    2.10
   3   7   2   -1.40    1.60
   3   7   2    1.40    2.20
   3   7   2    0.00    1.50
   3   7   2    1.70    2.20
  -4  -7  -2   -0.40    2.40
  -4  -7  -2    5.90    2.10
   4   7   2    2.60    2.70
   4   7   2   -0.30    3.20
   4   7   2   -0.10    2.00
  -5  -7  -2   -0.40    3.30
  -5  -7  -2   -1.10    3.00
   5   7   2    3.50    5.50
   5   7   2    0.90    2.50
  -6  -7  -2   -9.20    4.10
   6   7   2   -1.30    4.10
   6   7   2   -3.30    3.30
  -7  -7  -2    1.80    6.10
  -7  -7  -2   -3.70    5.90
   7   7   2    3.00    5.80
   7   7   2   -4.80    4.70
   6  -8  -2   12.90    7.50
   6  -8  -2   10.00    5.00
  -6   8   2    5.40    5.40
  -6   8   2    4.60    5.90
   5  -8  -2   -6.10    3.10
   5  -8  -2    0.70    5.50
  -5   8   2    7.90    3.90
  -5   8   2    3.10    2.50
  -5   8   2   -6.80    3.80
   4  -8  -2   36.60    4.60
   4  -8  -2   42.50    6.10
  -4   8   2   34.80    4.70
  -4   8   2   38.50    4.80
  -4   8   2   36.70    3.00
   3  -8  -2    2.10    2.20
   3  -8  -2   -1.30    2.40
   3  -8  -2    0.60    3.20
  -3   8   2    0.50    1.50
  -3   8   2    3.10    2.20
  -3   8   2    2.20    2.70
  -3   8   2    3.50    1.50
  -3   8   2   -0.20    2.00
  -3   8   2    2.70    2.20
  -3   8   2    5.50    2.10
   2  -8  -2   25.70    4.20
   2  -8  -2   12.10    2.60
  -2   8   2   18.20    1.80
  -2   8   2   21.90    2.80
  -2   8   2   17.70    2.50
  -2   8   2   17.00    2.70
  -2   8   2   15.60    1.50
  -2   8   2   18.50    2.30
   1  -8  -2   96.59    6.30
   1  -8  -2   93.99    4.30
   1  -8  -2   87.79    5.30
  -1   8   2   96.29    4.40
  -1   8   2   94.09    3.30
  -1   8   2   94.79    3.60
  -1   8   2   93.69    4.70
  -1   8   2   98.29    4.40
   0  -8  -2    0.50    1.90
   0  -8  -2   -1.50    1.80
   0  -8  -2    1.00    2.40
   0  -8  -2   -0.10    1.20
   0   8   2    1.20    1.40
   0   8   2    2.00    1.50
   0   8   2    0.70    3.10
   0   8   2    0.90    1.20
   0   8   2    0.00    1.20
  -1  -8  -2   56.99    3.40
  -1  -8  -2   61.99    3.80
  -1  -8  -2   62.09    4.70
  -1  -8  -2   52.69    4.40
   1   8   2   58.39    2.20
   1   8   2   54.89    3.90
   1   8   2   58.49    3.50
   1   8   2   69.09    5.50
   1   8   2   57.69    3.20
   1   8   2   57.59    3.70
  -2  -8  -2    5.10    2.10
  -2  -8  -2    8.90    1.70
  -2  -8  -2    6.50    2.40
  -2  -8  -2    4.10    2.00
  -2  -8  -2    5.60    1.60
  -2  -8  -2    6.70    1.80
   2   8   2    7.60    1.90
   2   8   2    7.50    2.20
   2   8   2    9.00    2.90
   2   8   2    9.70    2.30
   2   8   2   12.20    3.10
   2   8   2   10.40    1.90
  -3  -8  -2    4.70    2.50
  -3  -8  -2    6.10    1.90
  -3  -8  -2    0.80    1.90
  -3  -8  -2    2.20    2.20
  -3  -8  -2    3.00    2.20
  -3  -8  -2    4.80    2.30
  -3  -8  -2    3.90    1.90
   3   8   2    3.50    2.60
   3   8   2    6.30    2.70
   3   8   2    5.00    2.90
   3   8   2    3.30    2.00
   3   8   2    3.30    2.00
  -4  -8  -2    2.90    2.50
  -4  -8  -2    6.30    3.10
  -4  -8  -2    7.50    2.30
   4   8   2    3.50    2.40
   4   8   2   12.90    3.40
   4   8   2   11.70    3.50
   4   8   2    3.90    4.00
  -5  -8  -2   -2.20    3.10
   5   8   2    0.80    3.80
   5   8   2   -0.70    2.80
  -6  -8  -2   -0.60    4.50
  -6  -8  -2  -11.50    4.80
   6   8   2   -6.60    4.60
   6   8   2    0.70    3.90
   5  -9  -2   10.10    4.40
   5  -9  -2   11.90    6.20
  -5   9   2    0.90    4.40
  -5   9   2    2.30    4.70
   4  -9  -2   15.20    3.90
   4  -9  -2   10.20    5.40
  -4   9   2   13.80    3.80
  -4   9   2   10.90    3.50
  -4   9   2   13.50    2.30
   3  -9  -2   -2.60    2.80
  -3   9   2    0.00    1.40
  -3   9   2   -0.70    2.50
  -3   9   2    4.00    3.70
  -3   9   2   -0.10    2.20
  -3   9   2   -0.30    1.80
  -3   9   2   -2.00    2.30
   2  -9  -2    2.50    2.60
   2  -9  -2    2.20    3.50
  -2   9   2   -0.80    1.30
  -2   9   2    0.50    1.70
  -2   9   2    2.90    2.10
  -2   9   2   -1.40    1.80
  -2   9   2    1.50    1.50
  -2   9   2    0.90    2.50
   1  -9  -2    2.90    1.80
   1  -9  -2   -1.10    2.70
   1  -9  -2    2.90    2.50
  -1   9   2    2.70    1.80
  -1   9   2    1.00    1.80
  -1   9   2    4.00    1.10
  -1   9   2    1.40    1.10
  -1   9   2    3.90    2.30
  -1   9   2    4.20    1.40
  -1   9   2    2.70    1.70
   0  -9  -2   42.50    3.30
   0  -9  -2   40.20    4.60
   0  -9  -2   39.40    4.60
   0   9   2   45.60    3.70
   0   9   2   40.50    3.00
   0   9   2   40.40    3.10
   0   9   2   40.10    3.60
  -1  -9  -2    2.60    2.30
  -1  -9  -2   -0.40    2.70
  -1  -9  -2    1.90    2.30
  -1  -9  -2    2.80    1.70
   1   9   2    1.20    1.90
   1   9   2    0.90    2.60
   1   9   2    1.50    1.70
   1   9   2    0.30    1.40
  -2  -9  -2    2.50    1.30
  -2  -9  -2    0.70    1.80
  -2  -9  -2    2.90    1.30
  -2  -9  -2    4.50    2.60
  -2  -9  -2    5.00    2.50
  -2  -9  -2    3.20    2.60
   2   9   2   -1.50    2.20
   2   9   2   -1.30    3.70
   2   9   2   -0.40    2.10
   2   9   2    5.40    1.90
   2   9   2    1.60    1.70
  -3  -9  -2   13.70    3.30
  -3  -9  -2    8.50    3.20
  -3  -9  -2    9.10    3.30
  -3  -9  -2   14.10    2.80
  -3  -9  -2   14.00    2.50
  -3  -9  -2   13.30    2.80
   3   9   2   17.60    3.10
   3   9   2   15.80    3.00
   3   9   2   15.70    3.60
   3   9   2   18.90    3.40
   3   9   2   11.50    4.30
  -4  -9  -2    3.60    2.60
  -4  -9  -2    0.90    3.00
  -4  -9  -2    4.70    5.20
  -4  -9  -2    1.90    2.60
   4   9   2    0.30    3.50
   4   9   2   -3.00    2.70
  -5  -9  -2    2.50    4.20
  -5  -9  -2   -2.20    3.10
  -5  -9  -2    1.50    4.00
  -5  -9  -2   -1.50    3.60
   5   9   2    6.60    4.50
   5   9   2   -1.20    3.50
  -6  -9  -2    2.30    5.50
  -6  -9  -2   -2.50    4.30
  -6  -9  -2   -5.40    5.10
  -6  -9  -2    4.30    5.50
   6   9   2    9.20    5.60
   6   9   2   -0.30    4.80
   4 -10  -2   -7.00    5.90
  -4  10   2    3.20    3.70
  -4  10   2    6.80    3.80
  -4  10   2    0.70    3.60
   3 -10  -2    4.80    5.60
   3 -10  -2   -2.50    3.20
  -3  10   2    4.10    3.50
  -3  10   2    0.60    2.60
  -3  10   2    2.60    2.20
   2 -10  -2    0.50    4.40
  -2  10   2    4.90    2.10
  -2  10   2    7.30    2.00
  -2  10   2    6.90    2.50
  -2  10   2    3.40    2.60
   1 -10  -2    3.40    3.00
   1 -10  -2    7.10    4.10
   1 -10  -2    4.90    2.30
  -1  10   2    7.20    3.00
  -1  10   2    3.50    2.50
  -1  10   2    3.40    2.30
  -1  10   2    5.10    1.70
  -1  10   2    5.40    2.10
   0 -10  -2    2.90    2.20
   0 -10  -2   -0.40    3.30
   0 -10  -2    3.80    3.10
   0  10   2    6.70    2.80
   0  10   2    4.10    2.30
   0  10   2    0.20    1.80
   0  10   2    5.30    2.00
  -1 -10  -2    3.90    2.90
  -1 -10  -2    0.80    3.00
  -1 -10  -2    2.50    1.90
  -1 -10  -2   -3.00    3.10
   1  10   2    2.30    2.30
   1  10   2   -2.20    2.20
   1  10   2    0.90    1.80
  -2 -10  -2   -1.60    3.40
  -2 -10  -2    0.10    3.20
  -2 -10  -2    0.10    3.60
  -2 -10  -2    1.00    2.20
   2  10   2   -2.10    2.20
   2  10   2   -2.90    2.40
   2  10   2   -1.70    1.60
   2  10   2   -3.30    2.70
  -3 -10  -2    0.90    3.50
  -3 -10  -2   -1.30    2.10
  -3 -10  -2    1.10    2.60
  -3 -10  -2   -0.10    3.30
   3  10   2   -0.80    3.30
   3  10   2    3.70    2.90
   3  10   2    1.80    2.80
  -4 -10  -2   -0.10    3.10
  -4 -10  -2    6.60    4.20
  -4 -10  -2    0.60    3.30
   4  10   2    6.60    4.40
   4  10   2    4.80    3.50
  -5 -10  -2    2.70    4.10
  -5 -10  -2    8.60    5.20
  -5 -10  -2    8.60    4.80
   5  10   2    3.50    5.00
   5  10   2   -1.90    4.00
   3 -11  -2    8.20    4.10
   3 -11  -2    9.00    6.50
  -3  11   2    3.90    3.70
  -3  11   2   -2.00    3.50
  -3  11   2    6.20    3.00
   2 -11  -2   -3.40    3.70
   2 -11  -2    1.60    5.30
  -2  11   2    0.90    3.10
  -2  11   2   -1.20    3.10
   1 -11  -2   14.20    4.40
   1 -11  -2   20.90    3.60
   1 -11  -2   20.20    5.80
  -1  11   2   24.50    3.40
  -1  11   2   18.40    2.80
   0 -11  -2    1.00    3.70
   0 -11  -2   -0.10    4.50
   0 -11  -2    0.70    2.50
   0  11   2    5.90    2.60
   0  11   2    2.50    2.30
  -1 -11  -2   -0.70    4.80
  -1 -11  -2    7.80    2.70
  -1 -11  -2    0.00    3.50
   1  11   2    0.70    3.20
   1  11   2    7.70    3.10
   1  11   2    5.00    2.40
  -2 -11  -2    2.40    2.80
  -2 -11  -2    7.10    4.20
  -2 -11  -2    4.10    4.20
   2  11   2    3.30    3.00
   2  11   2    4.40    2.90
   2  11   2   -1.40    3.50
  -3 -11  -2    1.30    4.60
   3  11   2    3.50    3.60
   3  11   2    7.80    3.80
  -4 -11  -2   15.30    3.70
  -4 -11  -2   10.20    4.20
   4  11   2   16.30    5.50
   4  11   2   18.30    4.60
   2 -12  -2    1.30    6.50
   2 -12  -2   17.40    5.00
  -2  12   2    1.70    5.80
  -2  12   2    5.50    3.80
  -2  12   2    5.30    3.90
   1 -12  -2   -2.60    4.70
   1 -12  -2    6.40    5.70
  -1  12   2    7.70    3.70
   0 -12  -2   -4.20    3.30
   0 -12  -2    7.60    5.20
   0 -12  -2    3.70    4.60
   0  12   2    4.90    3.60
   0  12   2    4.80    3.00
   0  12   2    7.20    3.50
  -1 -12  -2    2.40    5.00
  -1 -12  -2    4.00    4.70
  -1 -12  -2   -5.10    3.10
   1  12   2   -5.20    2.80
   1  12   2    0.70    3.50
   1  12   2    5.60    3.90
  -2 -12  -2    6.00    5.40
  -2 -12  -2    4.50    5.20
   2  12   2    1.30    4.50
   2  12   2    8.20    3.80
   2  12   2    2.50    3.90
  -3 -12  -2    9.80    5.70
  -3 -12  -2   -1.80    3.80
   3  12   2    4.90    4.40
   3  12   2    1.70    4.80
   3  12   2    5.00    5.20
   0 -13  -2   12.90    7.10
   0 -13  -2    2.90    5.70
   0  13   2   -2.30    3.80
   0  13   2    3.20    4.60
  -1 -13  -2   -1.00    6.10
  -1 -13  -2   -0.20    6.20
  -1 -13  -2    1.50    4.30
   1  13   2   -2.90    4.50
   1  13   2   -3.30    4.50
   2  12  -3    3.80    4.40
   2  12  -3   11.10    4.70
  -2 -12   3    1.10    4.30
  -2 -12   3    2.50    6.10
   1  12  -3    8.00    4.60
   1  12  -3    7.40    4.40
  -1 -12   3    0.10    5.20
  -1 -12   3   -0.20    4.40
   0  12  -3   -6.90    3.70
   0  12  -3    4.30    4.10
   0 -12   3    6.00    4.70
   0 -12   3   -5.20    5.30
  -1  12  -3    2.10    3.80
   1 -12   3   -3.80    4.60
   1 -12   3   -2.70    5.00
   3  11  -3   -1.80    4.50
   3  11  -3    5.60    4.60
   3  11  -3   -1.20    3.90
  -3 -11   3   -2.00    4.10
  -3 -11   3    1.80    5.40
   2  11  -3    9.30    4.00
   2  11  -3    6.70    3.90
   2  11  -3    5.80    4.00
  -2 -11   3   11.40    5.10
  -2 -11   3   12.10    4.10
   1  11  -3   12.20    3.40
   1  11  -3   12.20    3.70
   1  11  -3   15.10    4.30
  -1 -11   3   22.40    5.00
  -1 -11   3   13.00    4.20
   0  11  -3   21.60    3.20
   0  11  -3   19.30    4.20
   0  11  -3   21.70    3.80
   0 -11   3   17.40    4.90
   0 -11   3   21.10    4.90
  -1  11  -3   -1.10    3.20
  -1  11  -3   13.10    3.90
  -1  11  -3    3.20    3.10
   1 -11   3    9.00    3.90
   1 -11   3    4.40    4.20
  -2  11  -3    6.30    4.20
  -2  11  -3   -0.90    3.20
  -2  11  -3    4.10    3.70
  -2  11  -3   -0.90    3.00
  -3  11  -3   -2.60    2.80
  -3  11  -3    8.80    5.30
  -3  11  -3    7.40    5.80
  -3  11  -3    3.10    3.80
   4  10  -3    4.40    5.10
   4  10  -3    2.80    4.50
   4  10  -3    1.10    3.70
  -4 -10   3   -6.50    4.00
  -4 -10   3   -0.80    4.70
   3  10  -3   14.70    4.20
   3  10  -3   10.40    3.80
   3  10  -3    8.60    3.50
  -3 -10   3   23.00    5.10
  -3 -10   3   13.10    3.80
   2  10  -3    0.80    2.70
   2  10  -3   -3.20    3.00
   2  10  -3   -1.30    2.90
  -2 -10   3    3.80    3.10
  -2 -10   3   -1.50    3.80
   1  10  -3    4.20    2.70
   1  10  -3    3.70    2.60
   1  10  -3    5.00    2.80
  -1 -10   3    7.90    3.70
  -1 -10   3    6.60    4.90
   0  10  -3   69.29    4.20
   0  10  -3   69.99    4.90
   0  10  -3   62.39    6.20
   0  10  -3   68.39    4.70
   0 -10   3   72.99    6.80
   0 -10   3   64.49    5.90
  -1  10  -3   12.20    3.30
  -1  10  -3   14.20    2.80
  -1  10  -3   15.80    2.40
  -1  10  -3   13.20    3.20
  -1  10  -3   12.20    2.00
   1 -10   3   14.70    4.10
   1 -10   3   20.10    4.60
  -2  10  -3    4.10    3.60
  -2  10  -3    7.20    2.60
  -2  10  -3    6.80    2.10
   2 -10   3    5.50    3.80
  -3  10  -3   -3.40    4.20
  -3  10  -3    2.40    2.20
  -3  10  -3    5.60    2.90
  -3  10  -3    4.90    2.90
  -4  10  -3   22.90    4.00
  -4  10  -3   19.60    4.70
  -4  10  -3   28.50    6.00
   5   9  -3   -4.60    3.90
   5   9  -3    4.40    5.00
   5   9  -3   -0.80    4.40
  -5  -9   3    0.50    3.90
  -5  -9   3   -0.20    4.30
  -5  -9   3   -8.30    3.60
   4   9  -3   -1.50    3.80
   4   9  -3    1.60    3.60
   4   9  -3    4.80    3.30
  -4  -9   3   -2.30    2.50
  -4  -9   3    3.90    3.70
  -4  -9   3    5.50    3.70
   3   9  -3   -0.50    2.60
   3   9  -3   -1.30    3.00
  -3  -9   3    2.00    3.00
  -3  -9   3    2.50    3.10
  -3  -9   3   -1.30    1.60
   2   9  -3   -3.40    3.70
   2   9  -3    2.00    2.50
   2   9  -3   -3.10    2.10
   2   9  -3    0.60    3.60
  -2  -9   3    6.20    3.10
  -2  -9   3    5.50    2.70
   1   9  -3   21.40    4.00
   1   9  -3   23.00    3.00
   1   9  -3   25.30    4.10
   1   9  -3   13.90    3.00
   1   9  -3   21.70    2.80
  -1  -9   3   23.70    3.60
  -1  -9   3   18.90    3.70
   0   9  -3    5.30    2.70
   0   9  -3   -0.30    2.80
   0   9  -3    2.60    1.70
   0   9  -3   -0.80    2.30
   0   9  -3    0.40    1.80
   0  -9   3    0.10    2.80
   0  -9   3   -2.40    2.20
  -1   9  -3    0.20    2.10
  -1   9  -3   -0.10    1.30
  -1   9  -3    1.00    1.90
  -1   9  -3   -0.20    1.80
  -1   9  -3    1.70    1.30
   1  -9   3   -3.20    2.40
   1  -9   3   -2.40    2.60
  -2   9  -3    4.90    2.20
  -2   9  -3    6.20    2.00
  -2   9  -3    4.50    2.00
  -2   9  -3    2.90    2.90
   2  -9   3    6.50    3.60
   2  -9   3    3.70    4.10
   2  -9   3    6.00    3.20
  -3   9  -3   10.80    4.00
  -3   9  -3    9.30    2.80
  -3   9  -3   11.60    2.60
  -3   9  -3    5.70    2.00
   3  -9   3   17.20    4.90
  -4   9  -3   34.80    4.70
  -4   9  -3   41.80    3.50
  -4   9  -3   44.90    6.40
  -4   9  -3   43.90    5.90
   4  -9   3   40.10    5.20
   4  -9   3   50.59    8.10
  -5   9  -3   -2.60    4.90
  -5   9  -3    6.70    6.40
  -5   9  -3    8.00    5.50
   5  -9   3    8.30    4.70
   6   8  -3   -1.00    5.40
   6   8  -3    3.90    4.90
   6   8  -3   -1.80    4.50
  -6  -8   3   -3.30    5.00
  -6  -8   3    4.10    5.00
  -6  -8   3    5.70    5.90
  -6  -8   3    3.10    5.10
   5   8  -3    0.80    4.30
   5   8  -3   -1.80    3.60
   5   8  -3   -1.60    3.90
  -5  -8   3   -1.50    3.30
  -5  -8   3   -1.00    3.80
  -5  -8   3   -3.60    3.40
   4   8  -3   10.60    3.60
  -4  -8   3    8.20    3.40
  -4  -8   3   10.10    3.40
  -4  -8   3   10.40    2.80
   3   8  -3   13.00    3.20
   3   8  -3    9.40    2.70
  -3  -8   3   17.60    3.10
  -3  -8   3   12.70    3.20
  -3  -8   3   12.60    2.10
  -3  -8   3   13.80    3.10
  -3  -8   3   11.50    2.00
   2   8  -3   87.99    5.30
   2   8  -3   80.99    4.80
   2   8  -3   83.59    5.80
   2   8  -3   69.99    4.40
  -2  -8   3   82.39    5.30
  -2  -8   3   76.69    2.80
  -2  -8   3   74.89    5.40
   1   8  -3   40.40    3.30
   1   8  -3   35.60    3.80
   1   8  -3   33.60    1.90
   1   8  -3   41.10    4.30
   1   8  -3   42.00    4.30
   1   8  -3   38.90    5.00
   1   8  -3   39.50    3.80
   1   8  -3   39.30    3.20
  -1  -8   3   37.20    4.30
  -1  -8   3   41.70    4.10
  -1  -8   3   42.00    3.80
   0   8  -3   26.20    3.40
   0   8  -3   31.30    3.90
   0   8  -3   35.60    2.60
   0   8  -3   31.30    4.60
   0   8  -3   36.00    3.60
   0   8  -3   30.90    2.80
   0  -8   3   28.60    4.10
   0  -8   3   29.90    3.50
  -1   8  -3    7.80    1.70
  -1   8  -3    7.10    2.50
  -1   8  -3    8.90    2.20
  -1   8  -3    7.00    1.40
  -1   8  -3    9.00    1.40
  -1   8  -3    8.90    1.70
   1  -8   3   10.30    2.70
   1  -8   3    7.90    2.60
   1  -8   3    7.50    3.20
  -2   8  -3    5.10    1.80
  -2   8  -3    8.90    1.90
  -2   8  -3    7.10    2.70
  -2   8  -3    5.40    1.80
   2  -8   3    8.50    2.80
   2  -8   3    4.50    3.30
   2  -8   3    7.90    2.80
  -3   8  -3    2.90    1.40
  -3   8  -3    6.70    3.10
  -3   8  -3    1.40    1.70
  -3   8  -3    0.60    1.20
  -3   8  -3    2.20    2.20
   3  -8   3   -1.20    4.00
   3  -8   3    0.40    2.30
  -4   8  -3    9.20    1.80
  -4   8  -3    4.60    2.50
  -4   8  -3   13.80    3.50
  -4   8  -3   10.00    4.10
   4  -8   3    7.50    3.70
   4  -8   3   17.30    5.00
  -5   8  -3   71.09    7.10
  -5   8  -3   65.09    9.10
   5  -8   3   54.39    6.70
   5  -8   3   58.59    7.90
   6   7  -3   -8.60    3.50
   6   7  -3   -1.40    4.70
   6   7  -3    4.60    4.40
  -6  -7   3    5.80    4.60
  -6  -7   3    6.30    4.50
  -6  -7   3   -3.70    4.10
  -6  -7   3   -5.40    5.00
   5   7  -3   -5.30    3.60
   5   7  -3   -2.90    3.30
   5   7  -3   -1.70    2.90
  -5  -7   3    7.50    4.20
  -5  -7   3   -1.00    3.20
  -5  -7   3   -1.00    3.30
   4   7  -3    5.80    4.20
   4   7  -3    0.30    2.70
   4   7  -3    1.60    2.30
  -4  -7   3    2.70    2.70
  -4  -7   3   -0.50    2.50
  -4  -7   3    2.40    2.00
  -4  -7   3    2.90    2.30
   3   7  -3   -4.50    3.60
   3   7  -3    6.30    3.90
   3   7  -3    3.00    2.00
  -3  -7   3   -0.80    1.80
  -3  -7   3   -1.60    2.60
  -3  -7   3   -2.40    1.90
  -3  -7   3    1.30    1.50
   2   7  -3   64.49    3.80
   2   7  -3   60.29    5.80
   2   7  -3   58.89    3.90
   2   7  -3   57.19    5.20
   2   7  -3   65.89    4.00
   2   7  -3   58.49    4.80
  -2  -7   3   67.29    4.60
  -2  -7   3   62.59    2.70
  -2  -7   3   63.39    3.10
  -2  -7   3   63.69    4.30
  -2  -7   3   63.49    4.40
  -2  -7   3   61.69    2.30
   1   7  -3  122.69    5.30
   1   7  -3  132.49    5.10
   1   7  -3  127.89    5.90
   1   7  -3  128.59    5.20
   1   7  -3  125.09    3.60
   1   7  -3  121.69    4.90
   1   7  -3  132.19    5.60
   1   7  -3  123.79    7.00
  -1  -7   3  133.29    5.80
  -1  -7   3  123.49    5.90
  -1  -7   3  136.09    5.30
   0   7  -3   89.49    2.80
   0   7  -3   91.29    4.60
   0   7  -3   88.09    3.80
   0   7  -3   74.29    5.40
   0   7  -3   84.99    3.50
   0   7  -3   84.79    4.50
   0   7  -3   89.99    3.70
   0   7  -3   76.09    4.80
   0   7  -3   89.39    4.10
   0  -7   3   84.29    5.00
   0  -7   3   86.59    5.00
   0  -7   3   83.39    4.50
  -1   7  -3    2.30    1.00
  -1   7  -3    3.40    0.90
  -1   7  -3    2.30    2.50
  -1   7  -3    0.90    1.50
  -1   7  -3    2.70    2.90
  -1   7  -3    4.00    1.90
  -1   7  -3    2.20    0.90
  -1   7  -3    1.70    1.10
   1  -7   3    4.20    1.80
   1  -7   3    1.90    2.30
   1  -7   3    0.40    1.80
  -2   7  -3   -1.40    1.80
  -2   7  -3   -1.10    1.10
  -2   7  -3    0.10    1.20
  -2   7  -3    1.20    1.30
  -2   7  -3    0.00    2.30
   2  -7   3   -1.50    1.80
   2  -7   3    0.20    1.80
   2  -7   3    4.20    2.80
  -3   7  -3   10.50    3.20
  -3   7  -3    7.00    1.40
  -3   7  -3   10.30    1.40
  -3   7  -3    9.60    2.00
  -3   7  -3    8.30    2.20
  -3   7  -3    7.80    1.50
   3  -7   3    8.30    2.40
   3  -7   3    4.10    3.30
  -4   7  -3   33.10    3.80
  -4   7  -3   30.20    3.80
  -4   7  -3   33.20    5.00
  -4   7  -3   35.90    4.80
  -4   7  -3   30.50    2.40
   4  -7   3   26.90    5.80
   4  -7   3   33.80    4.20
  -5   7  -3    3.70    3.00
  -5   7  -3   -4.80    4.30
   5  -7   3   -2.50    4.60
   5  -7   3   12.00    3.50
  -6   7  -3   23.30    7.10
   6  -7   3   24.90    7.40
   6  -7   3   36.70    5.60
   6   6  -3    5.40    3.90
   6   6  -3   -4.30    3.20
   6   6  -3   -4.70    4.50
  -6  -6   3   12.90    5.00
  -6  -6   3    4.10    3.50
  -6  -6   3    0.50    3.90
   5   6  -3   -0.20    3.10
   5   6  -3   -6.40    2.90
   5   6  -3    1.50    3.00
  -5  -6   3    5.40    3.10
  -5  -6   3   -2.20    3.20
  -5  -6   3    0.50    2.50
  -5  -6   3    3.00    3.00
  -5  -6   3    2.40    3.40
   4   6  -3   14.90    2.90
   4   6  -3   14.20    3.40
   4   6  -3   20.30    3.50
  -4  -6   3   15.40    2.80
  -4  -6   3   10.40    3.10
  -4  -6   3   15.70    3.00
  -4  -6   3   13.30    2.60
  -4  -6   3   15.60    2.30
   3   6  -3   13.30    3.10
   3   6  -3   11.20    3.10
  -3  -6   3   10.70    1.60
  -3  -6   3   13.40    2.90
   2   6  -3   38.20    3.60
   2   6  -3   31.40    4.10
   2   6  -3   32.50    2.70
   2   6  -3   41.50    4.00
   2   6  -3   38.80    4.30
   2   6  -3   34.60    3.00
  -2  -6   3   37.40    3.50
  -2  -6   3   38.30    3.10
  -2  -6   3   35.80    2.20
  -2  -6   3   34.70    1.60
  -2  -6   3   29.80    2.70
  -2  -6   3   37.40    3.30
   1   6  -3    9.10    2.00
   1   6  -3   14.40    3.10
   1   6  -3    9.90    1.60
   1   6  -3    9.50    1.90
   1   6  -3   10.30    2.00
   1   6  -3    9.30    1.50
  -1  -6   3    8.10    1.80
  -1  -6   3    7.80    1.90
  -1  -6   3    9.20    0.70
  -1  -6   3    8.20    0.80
  -1  -6   3    8.80    1.80
   0   6  -3  204.58    5.20
   0   6  -3  210.68    7.50
   0   6  -3  188.28    6.20
   0   6  -3  211.08    7.10
   0   6  -3  215.58    7.70
   0   6  -3  208.38    6.30
   0   6  -3  207.98    6.20
   0   6  -3  197.58    8.00
   0   6  -3  202.28    7.10
   0   6  -3  202.88    5.80
   0  -6   3  206.88    7.10
   0  -6   3  198.58    7.40
   0  -6   3  203.98    7.40
  -1   6  -3   16.40    1.70
  -1   6  -3   18.80    3.20
  -1   6  -3   15.20    2.10
  -1   6  -3   19.60    2.80
  -1   6  -3   15.70    1.10
  -1   6  -3   16.80    1.60
  -1   6  -3   17.70    2.10
  -1   6  -3   15.10    1.00
  -1   6  -3   17.60    3.40
  -1   6  -3   13.30    2.60
   1  -6   3   15.90    2.80
   1  -6   3   16.50    2.50
   1  -6   3   17.10    2.50
  -2   6  -3    9.50    1.60
  -2   6  -3    4.80    5.20
  -2   6  -3   10.70    3.50
  -2   6  -3    9.40    1.40
  -2   6  -3   11.00    2.60
  -2   6  -3    9.20    2.30
  -2   6  -3    8.70    1.90
   2  -6   3    9.90    1.80
   2  -6   3   10.40    2.20
   2  -6   3    8.60    2.60
  -3   6  -3  122.69    4.00
  -3   6  -3  125.19    4.00
  -3   6  -3  119.19    6.30
  -3   6  -3  125.99    4.30
   3  -6   3  130.99    7.40
   3  -6   3  133.79    5.60
  -4   6  -3   -1.30    1.10
  -4   6  -3    0.30    2.30
  -4   6  -3   -1.80    2.90
  -4   6  -3   -2.40    1.80
  -4   6  -3   -3.20    2.00
   4  -6   3    3.50    3.30
   4  -6   3    1.80    2.00
  -5   6  -3    0.70    2.90
  -5   6  -3   -0.90    3.90
   5  -6   3   -0.10    4.40
   5  -6   3   -2.50    2.80
  -6   6  -3   21.30    6.20
  -6   6  -3   12.40    4.60
   6  -6   3   16.70    5.90
   6  -6   3   16.70    4.30
   7   5  -3   -5.10    4.80
   7   5  -3    9.80    4.60
  -7  -5   3    7.50    5.30
  -7  -5   3   -5.80    5.40
   6   5  -3    0.90    3.30
   6   5  -3    5.50    3.60
   6   5  -3   -4.90    3.20
   6   5  -3   -1.40    3.20
  -6  -5   3   -3.40    4.20
  -6  -5   3    4.20    2.90
  -6  -5   3    1.90    3.80
   5   5  -3    2.00    2.50
   5   5  -3   -0.40    2.60
   5   5  -3   -0.10    2.20
   5   5  -3    1.00    2.40
  -5  -5   3    7.70    3.20
  -5  -5   3    2.90    2.80
  -5  -5   3    3.70    2.10
  -5  -5   3    5.60    3.20
   4   5  -3    8.40    2.50
   4   5  -3    6.40    2.00
   4   5  -3    3.60    2.20
  -4  -5   3    6.70    2.30
  -4  -5   3    5.70    1.80
  -4  -5   3    1.50    2.20
  -4  -5   3    6.80    2.00
   3   5  -3   13.10    2.90
   3   5  -3    8.20    2.20
   3   5  -3    5.20    2.00
   3   5  -3    4.00    3.20
   3   5  -3    5.40    1.50
  -3  -5   3    5.40    2.00
  -3  -5   3    5.90    1.60
  -3  -5   3    7.50    2.00
  -3  -5   3    2.80    1.60
  -3  -5   3    8.60    2.60
  -3  -5   3    5.50    2.00
  -3  -5   3    7.30    1.40
   2   5  -3   49.00    3.70
   2   5  -3   50.59    2.90
   2   5  -3   52.59    3.70
   2   5  -3   48.60    3.50
   2   5  -3   46.30    3.10
  -2  -5   3   49.20    3.20
  -2  -5   3   54.09    3.20
  -2  -5   3   51.99    3.20
  -2  -5   3   45.60    2.50
  -2  -5   3   48.60    1.80
  -2  -5   3   54.39    3.30
   1   5  -3    0.80    0.80
   1   5  -3   -0.50    1.20
   1   5  -3   -1.10    1.70
   1   5  -3    0.10    1.20
   1   5  -3   -0.90    0.90
   1   5  -3   -2.00    1.10
  -1  -5   3   -1.90    1.00
  -1  -5   3   -0.60    0.70
  -1  -5   3    0.30    1.00
  -1  -5   3    0.40    0.60
  -1  -5   3   -0.70    1.10
  -1  -5   3    0.20    1.10
   0   5  -3   40.30    2.80
   0   5  -3   42.60    2.80
   0   5  -3   41.10    2.20
   0   5  -3   41.80    3.20
   0   5  -3   42.70    2.00
   0   5  -3   41.70    2.10
   0   5  -3   48.20    3.80
   0   5  -3   44.50    2.00
   0   5  -3   41.60    1.50
   0   5  -3   44.20    3.20
   0  -5   3   39.20    2.90
   0  -5   3   43.90    2.80
   0  -5   3   40.90    2.50
   0  -5   3   43.40    3.10
  -1   5  -3  122.99    5.30
  -1   5  -3  119.89    3.10
  -1   5  -3  120.79    4.50
  -1   5  -3  117.99    3.20
  -1   5  -3  119.79    5.80
  -1   5  -3  115.69    3.80
  -1   5  -3  120.09    5.30
  -1   5  -3  118.29    4.80
  -1   5  -3  116.89    4.20
   1  -5   3  112.49    4.70
   1  -5   3  117.69    5.00
   1  -5   3  112.99    5.40
  -2   5  -3   26.70    2.90
  -2   5  -3   25.90    1.10
  -2   5  -3   34.50    4.10
  -2   5  -3   25.80    1.30
  -2   5  -3   30.80    2.70
  -2   5  -3   27.00    3.70
  -2   5  -3   27.00    1.90
  -2   5  -3   29.20    3.50
  -2   5  -3   26.20    2.70
  -2   5  -3   29.10    1.90
   2  -5   3   30.90    3.50
   2  -5   3   25.60    2.20
  -3   5  -3   10.60    2.40
  -3   5  -3   10.70    3.00
  -3   5  -3   14.90    2.00
  -3   5  -3   11.90    1.60
  -3   5  -3   13.00    1.40
  -3   5  -3   12.00    3.30
  -3   5  -3    9.50    2.20
  -3   5  -3   12.40    2.60
   3  -5   3   11.10    2.00
   3  -5   3   14.80    3.30
  -4   5  -3   66.89    3.90
  -4   5  -3   61.69    5.30
  -4   5  -3   68.49    4.00
  -4   5  -3   64.49    3.90
   4  -5   3   57.59    4.20
   4  -5   3   68.29    6.00
  -5   5  -3    8.70    2.90
  -5   5  -3    1.70    3.50
  -5   5  -3    3.10    3.40
   5  -5   3    5.80    3.80
   5  -5   3    5.40    3.00
  -6   5  -3    2.70    3.90
  -6   5  -3    7.90    5.30
   6  -5   3    2.20    3.60
   6  -5   3    0.60    5.00
   7   4  -3   -1.90    3.90
   7   4  -3   -1.60    3.40
   7   4  -3   -7.80    4.50
  -7  -4   3   -2.50    4.60
  -7  -4   3   -5.60    5.50
   6   4  -3    1.10    3.30
   6   4  -3    0.80    3.40
   6   4  -3    2.70    3.20
   6   4  -3    4.90    2.80
  -6  -4   3   -2.30    4.00
  -6  -4   3    3.90    3.50
   5   4  -3    4.00    2.40
   5   4  -3    8.80    1.80
   5   4  -3   -0.40    2.40
   5   4  -3    2.60    2.20
  -5  -4   3    5.10    1.90
  -5  -4   3    5.80    3.10
  -5  -4   3    4.90    2.60
  -5  -4   3    5.60    3.20
   4   4  -3    1.30    2.00
   4   4  -3   -0.40    1.50
  -4  -4   3    0.10    1.30
  -4  -4   3    0.60    1.80
  -4  -4   3    1.90    2.00
  -4  -4   3    0.10    1.90
   3   4  -3   75.29    5.00
   3   4  -3   76.59    3.90
   3   4  -3   73.49    3.70
   3   4  -3   74.49    4.00
   3   4  -3   80.59    4.60
  -3  -4   3   73.69    4.50
  -3  -4   3   73.59    4.00
  -3  -4   3   78.99    4.30
  -3  -4   3   77.89    3.30
  -3  -4   3   77.99    3.90
  -3  -4   3   72.99    3.50
   2   4  -3  417.66   11.30
   2   4  -3  423.36   11.60
   2   4  -3  445.96   12.00
   2   4  -3  414.76   11.50
  -2  -4   3  437.56   11.10
  -2  -4   3  419.56   11.70
  -2  -4   3  410.96   10.10
  -2  -4   3  445.06   11.40
  -2  -4   3  423.46   11.40
  -2  -4   3  409.56   11.80
  -2  -4   3  437.96   11.50
   1   4  -3  196.98    6.10
   1   4  -3  187.28    5.60
   1   4  -3  188.58    5.70
   1   4  -3  197.38    6.50
   1   4  -3  192.88    5.70
   1   4  -3  176.38    5.40
   1   4  -3  188.38    6.00
  -1  -4   3  188.08    5.30
  -1  -4   3  181.98    6.00
  -1  -4   3  191.08    5.60
  -1  -4   3  178.68    5.10
  -1  -4   3  187.18    6.00
  -1  -4   3  168.48    7.30
   0   4  -3   18.50    1.30
   0   4  -3   21.20    1.20
   0   4  -3   19.70    0.80
   0   4  -3   23.30    2.40
   0   4  -3   20.20    2.20
   0   4  -3   23.70    2.00
   0   4  -3   20.40    1.40
   0   4  -3   18.60    1.80
   0   4  -3   27.70    2.30
   0   4  -3   18.40    1.30
   0  -4   3   19.30    1.40
   0  -4   3   21.10    2.00
   0  -4   3   20.90    2.10
   0  -4   3   19.40    1.70
  -1   4  -3  489.75   11.00
  -1   4  -3  498.85   13.30
  -1   4  -3  487.35   12.10
  -1   4  -3  491.65   13.40
  -1   4  -3  471.75   11.50
  -1   4  -3  475.05   11.00
  -1   4  -3  487.45   13.00
  -1   4  -3  480.75   12.70
  -1   4  -3  478.95   12.30
   1  -4   3  467.25   12.80
   1  -4   3  474.35   12.00
   1  -4   3  496.65   12.90
   1  -4   3  474.65   13.40
  -2   4  -3    1.20    0.70
  -2   4  -3    1.10    0.50
  -2   4  -3    2.40    1.20
  -2   4  -3    1.20    1.40
  -2   4  -3    2.90    1.40
  -2   4  -3    1.70    0.70
  -2   4  -3   -0.50    1.30
  -2   4  -3    1.90    1.70
  -2   4  -3    0.10    1.80
   2  -4   3    0.80    0.90
   2  -4   3    0.30    1.50
  -3   4  -3    1.10    1.20
  -3   4  -3    1.60    0.70
  -3   4  -3    2.30    1.00
  -3   4  -3    2.10    1.80
  -3   4  -3    4.80    2.40
  -3   4  -3    1.50    1.70
  -3   4  -3    3.60    2.10
  -3   4  -3    1.70    2.00
  -3   4  -3    0.30    1.20
   3  -4   3   -0.90    1.70
   3  -4   3    1.80    1.20
  -4   4  -3    0.50    1.50
  -4   4  -3   -1.40    1.70
  -4   4  -3    1.90    2.20
  -4   4  -3   -0.70    2.80
  -4   4  -3    1.40    0.90
  -4   4  -3    1.30    1.90
   4  -4   3    2.20    1.60
   4  -4   3    0.00    2.30
  -5   4  -3   17.50    3.20
  -5   4  -3   15.20    3.90
  -5   4  -3   16.80    3.60
  -5   4  -3   18.60    3.30
  -5   4  -3   12.10    3.90
   5  -4   3   17.80    4.40
   5  -4   3   23.40    3.60
  -6   4  -3   11.70    5.10
  -6   4  -3    7.80    4.00
   6  -4   3    5.70    3.30
   6  -4   3    2.60    4.50
  -7   4  -3   -2.40    5.20
  -7   4  -3  -13.40    6.00
   7  -4   3   -6.00    5.50
   7  -4   3    4.30    4.50
   7   3  -3   -1.40    3.70
   7   3  -3    4.80    4.20
   7   3  -3    0.40    2.90
  -7  -3   3   -0.80    5.00
  -7  -3   3   -4.40    4.30
   6   3  -3   -0.30    2.20
   6   3  -3    4.50    2.80
   6   3  -3    0.60    3.00
  -6  -3   3   10.30    3.60
  -6  -3   3   -0.50    3.70
  -6  -3   3    6.20    2.20
   5   3  -3   11.90    2.30
   5   3  -3   14.10    2.80
   5   3  -3   14.40    4.00
   5   3  -3   14.50    2.60
   5   3  -3   12.00    1.60
  -5  -3   3    8.90    2.70
  -5  -3   3   14.20    6.10
  -5  -3   3   10.50    2.90
   4   3  -3    4.40    1.70
   4   3  -3    2.20    1.40
   4   3  -3    3.90    1.70
   4   3  -3    0.80    1.60
   4   3  -3    5.60    2.90
  -4  -3   3    3.80    2.00
  -4  -3   3    4.20    2.20
  -4  -3   3    3.60    1.30
  -4  -3   3    2.90    1.80
  -4  -3   3   -0.40    2.70
  -4  -3   3    0.70    2.60
   3   3  -3   35.80    3.70
   3   3  -3   40.10    2.90
   3   3  -3   41.80    3.60
   3   3  -3   42.60    2.70
  -3  -3   3   37.40    3.30
  -3  -3   3   42.80    3.00
  -3  -3   3   37.90    2.70
  -3  -3   3   42.50    2.80
  -3  -3   3   36.70    2.90
   2   3  -3 2656.63   58.79
   2   3  -3 2577.54   58.49
   2   3  -3 2496.85   58.69
   2   3  -3 2518.75   58.19
   2   3  -3 2670.03   58.99
  -2  -3   3 2673.63   58.59
  -2  -3   3 2529.35   57.49
  -2  -3   3 2677.53   58.39
  -2  -3   3 2406.96   58.59
  -2  -3   3 2587.84   58.69
  -2  -3   3 2611.54   58.29
  -2  -3   3 2554.54   58.89
   1   3  -3  852.81   19.80
   1   3  -3  784.82   19.80
   1   3  -3  842.82   19.50
   1   3  -3  800.12   19.10
   1   3  -3  808.62   19.80
   1   3  -3  831.52   19.80
  -1  -3   3  728.33   19.10
  -1  -3   3  804.82   19.60
  -1  -3   3  807.72   19.10
  -1  -3   3  841.92   19.20
  -1  -3   3  848.92   19.10
   0   3  -3   97.29    2.30
   0   3  -3   94.19    2.90
   0   3  -3   98.09    4.00
   0   3  -3   96.59    2.40
   0   3  -3   96.99    3.60
   0   3  -3   93.69    2.90
   0   3  -3   98.99    2.90
   0   3  -3   93.89    3.50
   0   3  -3   96.99    2.90
   0   3  -3   98.99    3.70
   0   3  -3  100.29    3.60
   0  -3   3   91.79    4.20
   0  -3   3   94.39    3.50
   0  -3   3   92.79    3.60
   0  -3   3   96.79    2.80
   0  -3   3   95.09    2.50
   0  -3   3   93.99    2.40
  -1   3  -3    3.20    0.70
  -1   3  -3    4.50    0.50
  -1   3  -3    3.70    0.50
  -1   3  -3    5.20    1.50
  -1   3  -3    4.70    1.10
  -1   3  -3    4.10    1.10
  -1   3  -3    3.70    0.80
  -1   3  -3    3.70    1.20
  -1   3  -3    4.10    0.60
   1  -3   3    2.90    0.90
   1  -3   3    2.10    1.10
  -2   3  -3  130.99    3.80
  -2   3  -3  129.49    3.60
  -2   3  -3  144.19    5.00
  -2   3  -3  129.29    4.40
  -2   3  -3  131.39    5.20
  -2   3  -3  134.59    5.30
  -2   3  -3  125.19    4.90
   2  -3   3  122.89    5.30
  -3   3  -3   13.90    1.30
  -3   3  -3   13.70    2.40
  -3   3  -3   14.50    2.10
  -3   3  -3   13.30    2.10
  -3   3  -3   14.40    2.60
  -3   3  -3   17.60    1.90
  -3   3  -3   12.80    2.10
  -3   3  -3   13.30    1.70
  -3   3  -3   13.60    1.60
   3  -3   3   16.00    2.00
   3  -3   3   13.10    2.60
  -4   3  -3    2.10    1.50
  -4   3  -3    2.10    1.50
  -4   3  -3   -2.80    1.70
  -4   3  -3    0.60    0.80
  -4   3  -3    3.70    2.20
  -4   3  -3    1.40    1.80
  -4   3  -3   -1.40    2.10
   4  -3   3    1.80    1.50
   4  -3   3   -1.00    2.10
  -5   3  -3   30.20    3.70
  -5   3  -3   32.70    4.50
  -5   3  -3   28.40    3.90
  -5   3  -3   28.00    3.70
  -5   3  -3   32.20    4.70
   5  -3   3   31.10    4.40
   5  -3   3   25.20    3.50
  -6   3  -3    7.30    3.70
  -6   3  -3   -0.20    4.10
   6  -3   3   -1.50    3.00
   6  -3   3   -6.50    3.80
  -7   3  -3   10.60    6.20
  -7   3  -3    3.90    5.40
   7  -3   3    5.70    5.50
   7  -3   3   -1.30    4.30
   7   2  -3    1.40    3.60
   7   2  -3    4.00    4.10
  -7  -2   3    0.10    4.30
  -7  -2   3    2.20    4.90
   6   2  -3   12.60    2.20
   6   2  -3    9.20    3.00
   6   2  -3   18.10    3.40
  -6  -2   3   15.30    4.30
  -6  -2   3   12.20    4.40
   5   2  -3   29.30    3.20
   5   2  -3   26.60    2.70
   5   2  -3   29.30    2.10
   5   2  -3   25.40    3.20
  -5  -2   3   32.30    3.80
  -5  -2   3   30.90    3.80
   4   2  -3   -3.10    2.40
   4   2  -3   -0.70    1.30
   4   2  -3    1.30    2.60
   4   2  -3   -1.30    1.10
   4   2  -3    1.00    1.20
   4   2  -3   -1.70    1.20
  -4  -2   3   -3.60    2.20
  -4  -2   3    2.50    2.00
  -4  -2   3   -1.60    1.40
  -4  -2   3   -1.50    1.50
   3   2  -3   -0.90    1.00
   3   2  -3   -0.20    0.90
   3   2  -3   -0.70    1.00
   3   2  -3    2.00    1.80
   3   2  -3    3.00    1.90
  -3  -2   3    0.90    1.20
  -3  -2   3   -0.10    0.70
  -3  -2   3    1.20    1.20
  -3  -2   3    1.60    1.30
  -3  -2   3    1.10    1.60
   2   2  -3   44.30    2.50
   2   2  -3   45.80    2.30
   2   2  -3   49.00    2.80
   2   2  -3   47.80    2.90
   2   2  -3   46.00    2.40
  -2  -2   3   43.90    2.60
  -2  -2   3   47.70    2.40
  -2  -2   3   42.90    2.40
  -2  -2   3   48.10    2.00
  -2  -2   3   42.10    2.60
   1   2  -3  185.08    5.50
   1   2  -3  177.28    5.00
   1   2  -3  183.38    5.40
   1   2  -3  186.58    5.20
   1   2  -3  191.78    6.10
   1   2  -3  183.68    5.30
  -1  -2   3  185.78    5.50
  -1  -2   3  184.88    5.10
  -1  -2   3  188.98    4.90
  -1  -2   3  188.88    5.30
  -1  -2   3  188.08    5.10
  -1  -2   3  187.28    5.20
   0   2  -3   56.29    1.40
   0   2  -3   57.59    1.70
   0   2  -3   58.29    2.40
   0   2  -3   57.79    1.90
   0   2  -3   55.59    2.40
   0   2  -3   57.69    1.70
   0   2  -3   58.99    1.90
   0   2  -3   59.09    2.40
   0  -2   3   56.89    1.80
   0  -2   3   55.19    1.90
   0  -2   3   57.69    1.70
   0  -2   3   53.69    2.40
   0  -2   3   56.29    2.40
   0  -2   3   51.09    2.60
   0  -2   3   52.39    2.30
  -1   2  -3   18.30    1.70
  -1   2  -3   23.20    1.20
  -1   2  -3   19.90    0.90
  -1   2  -3   21.00    1.00
   1  -2   3   22.90    1.90
   1  -2   3   21.40    1.60
   1  -2   3   19.80    1.10
   1  -2   3   22.10    1.40
  -2   2  -3  700.53   16.50
  -2   2  -3  716.83   16.40
  -2   2  -3  712.23   16.70
  -2   2  -3  720.73   17.60
  -2   2  -3  689.03   16.50
  -2   2  -3  729.03   17.60
  -2   2  -3  722.83   17.00
  -2   2  -3  725.63   17.60
  -2   2  -3  690.43   18.00
   2  -2   3  721.53   16.70
   2  -2   3  711.83   18.20
   2  -2   3  690.53   17.10
  -3   2  -3   79.29    3.00
  -3   2  -3   76.79    3.30
  -3   2  -3   71.09    4.10
  -3   2  -3   76.89    2.70
  -3   2  -3   76.09    4.00
  -3   2  -3   75.39    3.30
  -3   2  -3   75.29    3.70
   3  -2   3   75.39    2.70
   3  -2   3   75.29    2.20
   3  -2   3   75.69    2.30
   3  -2   3   75.39    4.20
   3  -2   3   80.59    3.50
  -4   2  -3   25.00    2.50
  -4   2  -3   24.90    3.00
  -4   2  -3   23.80    1.80
  -4   2  -3   23.20    2.90
  -4   2  -3   24.30    2.90
  -4   2  -3   21.00    2.70
  -4   2  -3   26.20    3.60
   4  -2   3   25.10    1.60
   4  -2   3   18.20    3.00
   4  -2   3   23.60    1.50
   4  -2   3   22.20    2.60
  -5   2  -3    0.00    2.30
  -5   2  -3    2.40    2.90
  -5   2  -3    1.90    2.20
   5  -2   3    0.70    1.80
   5  -2   3    1.10    1.20
   5  -2   3    0.60    1.00
   5  -2   3    1.80    2.70
   5  -2   3    2.10    0.90
  -6   2  -3   -4.00    3.10
  -6   2  -3   -1.60    4.40
   6  -2   3    2.50    3.60
   6  -2   3    1.20    1.50
  -7   2  -3    7.70    5.00
  -7   2  -3   12.00    5.90
   7  -2   3   -0.50    3.80
   7  -2   3    2.50    4.90
   7   1  -3    6.50    4.00
   7   1  -3    6.30    3.40
  -7  -1   3   14.20    5.50
  -7  -1   3    6.00    4.60
   6   1  -3    6.00    2.90
   6   1  -3    8.80    2.60
   6   1  -3    4.00    1.40
   6   1  -3   10.90    3.00
  -6  -1   3    3.30    2.00
  -6  -1   3   -1.50    3.30
   5   1  -3    0.40    1.80
   5   1  -3   -1.20    1.10
   5   1  -3    0.50    1.80
   5   1  -3   -0.20    1.30
  -5  -1   3   -0.40    1.90
  -5  -1   3   -0.20    2.20
   4   1  -3  170.98    7.10
   4   1  -3  164.78    7.50
   4   1  -3  161.38    5.20
   4   1  -3  175.58    6.20
   4   1  -3  162.68    6.10
  -4  -1   3  168.48    6.90
  -4  -1   3  184.28    7.20
  -4  -1   3  166.58    6.40
  -4  -1   3  172.48    6.60
   3   1  -3   18.10    1.60
   3   1  -3   19.10    1.90
   3   1  -3   16.30    1.70
   3   1  -3   20.30    2.70
   3   1  -3   25.70    2.90
   3   1  -3   18.40    2.00
  -3  -1   3   17.70    2.20
  -3  -1   3   23.90    2.50
  -3  -1   3   15.20    1.90
  -3  -1   3   19.00    2.10
   2   1  -3   47.60    2.80
   2   1  -3   49.00    2.60
   2   1  -3   41.50    2.20
   2   1  -3   46.80    2.30
   2   1  -3   39.50    2.10
   2   1  -3   45.30    2.20
  -2  -1   3   43.40    1.40
  -2  -1   3   43.30    2.30
  -2  -1   3   44.40    1.50
  -2  -1   3   43.60    2.50
  -2  -1   3   45.00    2.50
  -2  -1   3   46.60    2.30
   1   1  -3  976.80   22.60
   1   1  -3  957.30   22.00
   1   1  -3  992.70   22.30
   1   1  -3  966.20   22.20
   1   1  -3  879.91   22.60
   1   1  -3  949.21   21.70
  -1  -1   3  981.00   22.30
  -1  -1   3 1008.30   22.40
  -1  -1   3  968.40   22.70
  -1  -1   3  961.00   21.70
  -1  -1   3  979.80   22.00
  -1  -1   3  949.60   22.30
   0   1  -3    3.20    0.40
   0   1  -3    3.40    0.50
   0   1  -3    3.90    0.60
   0   1  -3    3.50    0.60
   0   1  -3    2.60    0.40
   0   1  -3    3.10    0.60
   0  -1   3    4.30    0.60
   0  -1   3    2.90    0.40
   0  -1   3    2.90    0.60
   0  -1   3    3.30    0.50
   0  -1   3    3.30    0.60
   0  -1   3    3.00    0.30
  -1   1  -3  514.35   12.50
  -1   1  -3  549.85   12.50
  -1   1  -3  524.15   12.40
  -1   1  -3  541.95   12.70
  -1   1  -3  534.15   12.00
  -1   1  -3  566.94   13.10
   1  -1   3  534.95   12.60
   1  -1   3  528.15   12.40
   1  -1   3  530.45   12.20
   1  -1   3  536.55   12.50
  -2   1  -3  124.29    3.80
  -2   1  -3  119.99    4.30
  -2   1  -3  116.29    4.50
  -2   1  -3  117.69    4.20
  -2   1  -3  120.29    3.80
  -2   1  -3  117.09    4.00
  -2   1  -3  124.19    3.50
  -2   1  -3  119.79    3.50
   2  -1   3  112.89    4.30
   2  -1   3  116.59    3.60
   2  -1   3  119.99    3.40
   2  -1   3  123.69    4.60
   2  -1   3  119.99    3.30
  -3   1  -3  182.78    5.80
  -3   1  -3  190.28    5.50
  -3   1  -3  180.68    5.20
  -3   1  -3  179.08    6.80
  -3   1  -3  181.98    5.90
  -3   1  -3  189.58    5.80
   3  -1   3  183.38    6.00
   3  -1   3  185.28    6.60
   3  -1   3  179.68    5.40
   3  -1   3  186.48    5.20
   3  -1   3  186.18    4.90
  -4   1  -3   81.99    5.20
  -4   1  -3   90.79    5.30
  -4   1  -3   88.99    3.80
  -4   1  -3   96.29    4.60
  -4   1  -3   90.89    4.50
  -4   1  -3   96.59    4.00
   4  -1   3   88.69    3.60
   4  -1   3   96.09    5.00
   4  -1   3   89.19    2.90
   4  -1   3   91.09    4.30
   4  -1   3   92.09    3.60
  -5   1  -3   11.80    2.70
  -5   1  -3   10.40    2.80
  -5   1  -3   13.00    3.40
   5  -1   3    8.30    2.80
   5  -1   3   12.10    1.40
   5  -1   3    7.20    2.40
   5  -1   3   10.90    2.10
   5  -1   3    9.30    1.80
  -6   1  -3   -0.70    4.20
  -6   1  -3    3.80    3.50
   6  -1   3    3.40    3.30
   6  -1   3    3.60    1.90
   6  -1   3    4.70    1.00
   6  -1   3   -3.50    2.60
   6  -1   3    3.70    2.70
  -7   1  -3   11.70    5.00
  -7   1  -3    8.20    5.50
   7  -1   3   -0.40    4.60
   7  -1   3    7.60    2.70
   7  -1   3    0.20    3.60
   7   0  -3   -2.30    3.80
   7   0  -3    1.40    3.20
  -7   0   3    7.80    4.80
  -7   0   3   -1.20    4.00
   6   0  -3    0.90    0.80
   6   0  -3    1.30    1.20
   6   0  -3   -1.70    2.00
   6   0  -3   -0.40    2.50
   6   0  -3   -1.10    1.60
  -6   0   3    4.70    2.90
   5   0  -3    1.80    1.70
   5   0  -3   -1.60    1.50
   5   0  -3   -5.10    3.30
  -5   0   3    0.20    2.00
  -5   0   3    1.30    1.20
  -5   0   3   -0.30    2.30
   4   0  -3   79.49    4.90
   4   0  -3   73.99    5.10
   4   0  -3   77.79    3.90
   4   0  -3   75.99    3.60
  -4   0   3   77.29    2.70
  -4   0   3   78.09    4.40
  -4   0   3   77.69    4.40
  -4   0   3   80.69    4.60
  -4   0   3   77.59    4.20
   3   0  -3  100.69    3.80
   3   0  -3  100.49    3.20
   3   0  -3  103.69    4.00
   3   0  -3   98.89    4.80
   3   0  -3  110.99    4.70
  -3   0   3  111.69    4.40
  -3   0   3  103.29    4.10
  -3   0   3  100.89    3.50
  -3   0   3   99.49    4.30
  -3   0   3  102.59    4.50
   2   0  -3   25.10    1.30
   2   0  -3   27.30    2.10
   2   0  -3   23.80    1.50
   2   0  -3   25.00    1.60
   2   0  -3   25.50    1.90
  -2   0   3   21.70    1.70
  -2   0   3   26.60    1.80
  -2   0   3   26.90    1.70
  -2   0   3   25.00    1.40
  -2   0   3   28.20    2.00
   1   0  -3 1654.53   35.40
   1   0  -3 1598.74   35.90
   1   0  -3 1522.75   35.50
   1   0  -3 1573.34   35.40
   1   0  -3 1641.44   36.20
   1   0  -3 1584.84   35.70
  -1   0   3 1533.95   35.40
  -1   0   3 1616.64   35.70
  -1   0   3 1568.24   35.80
  -1   0   3 1574.94   35.60
  -1   0   3 1600.64   36.20
  -1   0   3 1606.54   35.80
  -1   0   3 1609.14   35.80
   0   0  -3 1180.98   26.00
   0   0  -3 1168.78   25.90
   0   0  -3 1084.79   25.90
   0   0  -3 1149.19   25.90
   0   0  -3 1181.28   25.80
   0   0   3 1154.88   25.80
   0   0   3 1131.99   25.90
   0   0   3 1182.48   25.90
   0   0   3 1147.69   25.90
   0   0   3 1151.18   25.90
  -1   0  -3   10.00    0.80
  -1   0  -3   10.80    0.90
  -1   0  -3   12.30    0.90
  -1   0  -3   10.90    0.60
  -1   0  -3   11.10    1.00
   1   0   3   11.90    1.00
   1   0   3   11.50    0.60
   1   0   3   11.50    0.80
   1   0   3   11.80    0.90
   1   0   3   11.40    0.80
  -2   0  -3  155.98    4.50
  -2   0  -3  166.48    4.40
  -2   0  -3  161.58    5.40
  -2   0  -3  157.08    4.90
  -2   0  -3  163.58    5.10
  -2   0  -3  150.78    4.80
   2   0   3  160.08    4.50
   2   0   3  158.88    4.40
   2   0   3  152.68    4.40
   2   0   3  155.88    4.80
  -3   0  -3   64.09    3.50
  -3   0  -3   60.79    3.20
  -3   0  -3   65.29    2.80
  -3   0  -3   62.89    2.50
  -3   0  -3   67.29    3.70
  -3   0  -3   62.29    3.20
  -3   0  -3   61.09    2.70
   3   0   3   60.69    2.70
   3   0   3   59.49    2.30
   3   0   3   61.29    2.90
   3   0   3   65.29    3.30
   3   0   3   66.09    2.90
   3   0   3   64.99    3.80
   3   0   3   56.99    2.90
  -4   0  -3    3.00    2.30
  -4   0  -3   -1.50    1.50
  -4   0  -3    0.70    1.50
  -4   0  -3    0.90    1.00
  -4   0  -3   -1.20    1.60
  -4   0  -3   -0.50    1.90
   4   0   3   -0.50    2.00
   4   0   3    0.90    1.10
   4   0   3    0.80    1.10
   4   0   3   -0.20    0.90
   4   0   3   -0.10    1.40
   4   0   3    0.60    1.50
   4   0   3    0.20    1.30
  -5   0  -3    4.00    2.50
  -5   0  -3    6.60    2.50
  -5   0  -3    6.70    2.70
   5   0   3    7.50    2.50
   5   0   3    8.20    2.30
   5   0   3    6.40    1.20
   5   0   3    7.50    2.60
   5   0   3    5.30    1.90
  -6   0  -3   14.70    4.30
  -6   0  -3    6.50    3.40
   6   0   3    9.20    3.40
   6   0   3    8.30    3.60
   6   0   3    9.70    3.20
   6   0   3    5.70    2.30
  -7   0  -3    4.40    5.50
  -7   0  -3    1.50    4.30
   7   0   3    9.30    3.90
   7   0   3    0.00    4.30
   7   0   3    7.90    3.10
   7  -1  -3    2.60    3.80
   7  -1  -3   -2.60    2.90
  -7   1   3    1.00    4.70
  -7   1   3    0.90    4.40
   6  -1  -3    5.70    2.10
   6  -1  -3    8.40    2.90
   6  -1  -3    6.80    2.50
  -6   1   3   11.80    3.50
  -6   1   3    5.10    5.70
  -6   1   3    5.30    2.00
   5  -1  -3   11.30    2.30
   5  -1  -3   13.20    2.10
   5  -1  -3   14.70    3.40
   5  -1  -3    7.60    1.80
  -5   1   3    5.70    2.30
  -5   1   3    6.20    1.40
  -5   1   3    5.70    2.40
   4  -1  -3   94.79    5.00
   4  -1  -3   83.69    4.10
   4  -1  -3   84.69    5.40
   4  -1  -3   86.39    2.50
   4  -1  -3   84.99    3.60
   4  -1  -3   84.39    3.90
  -4   1   3   90.09    4.40
  -4   1   3   91.49    4.70
  -4   1   3   83.59    4.70
  -4   1   3   87.19    4.10
  -4   1   3   85.39    4.30
  -4   1   3   81.99    3.00
   3  -1  -3   46.20    2.60
   3  -1  -3   48.10    3.20
   3  -1  -3   48.10    1.60
   3  -1  -3   47.90    3.50
   3  -1  -3   49.99    2.40
  -3   1   3   47.20    2.70
  -3   1   3   51.19    2.90
  -3   1   3   53.19    2.90
  -3   1   3   46.60    1.80
  -3   1   3   42.60    3.00
  -3   1   3   45.00    2.70
   2  -1  -3    8.00    0.70
   2  -1  -3    9.30    1.50
   2  -1  -3   10.00    1.50
   2  -1  -3   10.00    1.30
   2  -1  -3    7.20    1.00
  -2   1   3    7.60    0.80
  -2   1   3    9.10    1.30
  -2   1   3    8.70    1.30
  -2   1   3    9.70    1.30
  -2   1   3    7.70    1.30
   1  -1  -3  403.46   10.00
   1  -1  -3  410.56    9.80
   1  -1  -3  407.16    9.60
   1  -1  -3  389.46    9.60
   1  -1  -3  393.86    9.40
  -1   1   3  413.96    9.70
  -1   1   3  402.46    9.80
  -1   1   3  401.66    9.80
  -1   1   3  406.36    9.60
  -1   1   3  387.76    9.90
  -1   1   3  397.46    9.40
   0  -1  -3  264.07    6.60
   0  -1  -3  262.67    6.70
   0  -1  -3  262.97    6.60
   0  -1  -3  267.87    6.20
   0  -1  -3  270.67    6.60
   0   1   3  259.97    6.60
   0   1   3  274.37    6.60
   0   1   3  273.77    6.60
   0   1   3  267.47    6.20
   0   1   3  272.07    6.60
  -1  -1  -3   61.69    2.30
  -1  -1  -3   60.89    2.20
  -1  -1  -3   60.49    2.00
  -1  -1  -3   61.49    2.30
  -1  -1  -3   60.09    2.20
   1   1   3   58.69    2.00
   1   1   3   58.99    2.20
   1   1   3   61.99    2.20
   1   1   3   61.19    2.30
   1   1   3   60.29    2.20
  -2  -1  -3  730.53   18.60
  -2  -1  -3  769.52   17.80
  -2  -1  -3  781.12   18.30
  -2  -1  -3  758.12   18.30
  -2  -1  -3  755.92   18.30
  -2  -1  -3  769.52   18.20
   2   1   3  751.22   18.20
   2   1   3  727.63   18.40
   2   1   3  762.42   18.00
   2   1   3  773.82   17.80
  -3  -1  -3    1.10    0.60
  -3  -1  -3    0.10    1.20
  -3  -1  -3    2.20    1.20
  -3  -1  -3    1.40    0.90
  -3  -1  -3    3.00    1.30
  -3  -1  -3    1.00    1.20
   3   1   3    1.40    0.80
   3   1   3    1.70    1.00
   3   1   3    2.20    1.50
   3   1   3    0.60    1.10
  -4  -1  -3    2.80    2.00
  -4  -1  -3    1.70    1.50
  -4  -1  -3    2.40    1.40
  -4  -1  -3    2.50    2.00
  -4  -1  -3    1.30    1.60
   4   1   3    0.50    1.40
   4   1   3   -1.40    1.60
   4   1   3   -0.10    1.20
   4   1   3    0.40    1.30
   4   1   3    0.80    1.90
   4   1   3    1.70    1.00
  -5  -1  -3  105.39    5.90
  -5  -1  -3  100.39    6.50
  -5  -1  -3  108.99    5.80
   5   1   3  106.19    5.20
   5   1   3  112.59    5.80
   5   1   3  111.69    5.50
   5   1   3  111.69    4.20
   5   1   3  108.79    5.20
   5   1   3  104.99    5.60
  -6  -1  -3    3.60    3.60
  -6  -1  -3    0.00    3.20
   6   1   3    2.60    2.80
   6   1   3   -0.20    2.50
   6   1   3    2.80    1.70
   6   1   3    1.10    3.00
  -7  -1  -3   -3.80    5.00
  -7  -1  -3   -7.20    4.00
   7   1   3   -1.70    3.20
   7   1   3   -5.80    3.80
   7   1   3    2.60    3.80
   7  -2  -3    2.60    2.70
   7  -2  -3    0.60    3.90
  -7   2   3   -6.20    4.00
  -7   2   3    2.70    4.70
   6  -2  -3    8.50    2.80
   6  -2  -3    9.00    2.10
   6  -2  -3    5.40    4.50
  -6   2   3    2.80    3.00
   5  -2  -3    5.20    3.00
   5  -2  -3    0.20    1.90
   5  -2  -3   -0.90    2.00
   5  -2  -3   -0.80    1.30
  -5   2   3    3.70    2.90
  -5   2   3   -0.60    1.40
  -5   2   3   -2.70    2.30
  -5   2   3   -1.00    1.90
   4  -2  -3   32.40    2.10
   4  -2  -3   36.70    4.20
   4  -2  -3   31.40    2.70
   4  -2  -3   31.10    3.00
   4  -2  -3   25.20    3.20
  -4   2   3   29.20    3.30
  -4   2   3   28.20    3.20
  -4   2   3   33.10    3.40
  -4   2   3   33.20    2.90
  -4   2   3   28.70    3.30
  -4   2   3   29.10    2.10
   3  -2  -3   24.70    1.00
   3  -2  -3   24.20    2.30
   3  -2  -3   23.60    1.60
   3  -2  -3   25.50    2.90
   3  -2  -3   27.70    2.20
  -3   2   3   28.10    2.40
  -3   2   3   27.40    2.30
  -3   2   3   26.60    2.40
  -3   2   3   25.00    1.60
  -3   2   3   27.90    2.70
  -3   2   3   22.90    2.10
   2  -2  -3    1.60    0.40
   2  -2  -3    0.40    0.70
   2  -2  -3    0.40    0.50
  -2   2   3    1.60    0.70
  -2   2   3    1.40    0.30
  -2   2   3   -0.40    1.00
  -2   2   3    0.60    0.50
  -2   2   3    0.90    0.80
  -2   2   3    0.50    0.70
  -2   2   3    1.50    0.80
   1  -2  -3 3077.59   70.39
   1  -2  -3 3108.29   70.69
   1  -2  -3 2932.61   68.99
   1  -2  -3 2993.00   69.19
   1  -2  -3 3031.10   74.19
   1  -2  -3 3174.88   70.99
  -1   2   3 3184.08   69.79
  -1   2   3 3312.07   71.19
  -1   2   3 3293.77   71.49
  -1   2   3 3033.90   69.49
  -1   2   3 3119.39   71.89
   0  -2  -3  436.86   10.80
   0  -2  -3  448.56   10.60
   0  -2  -3  434.86   10.50
   0  -2  -3  445.36   10.40
   0   2   3  455.35   10.50
   0   2   3  434.36   10.60
   0   2   3  430.56   10.50
   0   2   3  427.36   10.60
  -1  -2  -3  885.01   20.80
  -1  -2  -3  866.61   20.10
  -1  -2  -3  895.81   21.30
  -1  -2  -3  841.62   20.00
  -1  -2  -3  861.11   20.00
  -1  -2  -3  864.41   20.00
   1   2   3  858.41   20.60
   1   2   3  881.91   20.20
   1   2   3  843.42   20.00
   1   2   3  858.31   20.30
  -2  -2  -3   21.50    1.80
  -2  -2  -3   19.40    1.60
   2   2   3   16.90    1.40
   2   2   3   20.30    1.80
   2   2   3   17.20    1.70
   2   2   3   21.20    1.70
   2   2   3   19.60    1.70
  -3  -2  -3    0.20    1.00
  -3  -2  -3    1.30    1.00
  -3  -2  -3    2.30    1.40
  -3  -2  -3    2.80    1.40
  -3  -2  -3    1.40    1.20
   3   2   3    2.20    1.10
   3   2   3    1.00    1.10
   3   2   3    2.30    1.30
   3   2   3    3.80    1.40
   3   2   3    1.60    0.90
  -4  -2  -3  243.78    7.70
  -4  -2  -3  231.98    8.20
  -4  -2  -3  237.98    8.60
  -4  -2  -3  243.58    8.20
  -4  -2  -3  228.28    8.30
   4   2   3  224.58    7.50
   4   2   3  236.68    8.60
   4   2   3  239.68    8.10
   4   2   3  232.28    8.00
   4   2   3  242.68    7.30
  -5  -2  -3    0.50    2.70
  -5  -2  -3    3.00    2.20
   5   2   3    3.50    1.80
   5   2   3    2.00    2.10
   5   2   3    0.80    2.00
   5   2   3    4.40    1.90
   5   2   3   -1.60    2.90
  -6  -2  -3  121.09    8.10
  -6  -2  -3  103.29    7.10
   6   2   3  119.29    5.40
   6   2   3  118.49    6.50
   6   2   3  125.89    6.60
   6   2   3  117.49    6.40
   6   2   3  113.99    6.40
  -7  -2  -3    3.10    4.70
  -7  -2  -3    7.20    4.40
   7   2   3   -5.10    3.50
   7   2   3    3.40    3.70
   7   2   3   -1.70    3.80
   7  -3  -3    7.40    4.20
   7  -3  -3    8.90    4.40
  -7   3   3    7.90    4.50
  -7   3   3    9.30    5.50
   6  -3  -3   12.70    3.50
   6  -3  -3    9.50    2.00
   6  -3  -3    4.90    3.10
  -6   3   3   11.80    3.40
   5  -3  -3   -0.50    1.20
   5  -3  -3    2.80    2.40
   5  -3  -3   -1.80    2.00
   5  -3  -3   -0.20    2.40
  -5   3   3    1.10    2.30
  -5   3   3    1.70    1.90
  -5   3   3    0.80    2.10
  -5   3   3   -2.50    3.30
   4  -3  -3   12.00    3.30
   4  -3  -3   12.50    2.50
   4  -3  -3   14.70    2.20
   4  -3  -3   11.90    2.30
   4  -3  -3   12.30    1.50
  -4   3   3   14.00    1.90
  -4   3   3   12.80    2.40
  -4   3   3   11.50    2.60
  -4   3   3   11.00    2.50
  -4   3   3   12.40    2.40
  -4   3   3   14.70    2.30
  -4   3   3   12.80    3.00
   3  -3  -3  118.19    4.30
   3  -3  -3  122.29    4.80
   3  -3  -3  123.19    5.30
   3  -3  -3  122.89    3.70
   3  -3  -3  123.19    5.10
  -3   3   3  118.59    4.80
  -3   3   3  126.29    5.40
  -3   3   3  120.79    4.20
  -3   3   3  118.39    5.00
  -3   3   3  116.59    4.40
  -3   3   3  122.79    4.40
   2  -3  -3   14.40    1.50
   2  -3  -3   13.40    1.90
   2  -3  -3   17.50    1.40
   2  -3  -3   14.40    1.40
  -2   3   3   15.70    0.90
  -2   3   3   15.80    1.30
  -2   3   3   14.20    1.70
  -2   3   3   15.30    1.70
  -2   3   3   14.40    1.60
  -2   3   3   17.00    1.50
  -2   3   3   14.80    2.10
   1  -3  -3  334.57    8.80
   1  -3  -3  350.36    8.60
   1  -3  -3  342.37    8.40
   1  -3  -3  339.37    8.30
   1  -3  -3  342.27    8.90
  -1   3   3  337.67    8.10
  -1   3   3  333.67    8.90
  -1   3   3  342.37    8.50
  -1   3   3  349.27    8.40
  -1   3   3  343.87    8.50
  -1   3   3  348.37    9.00
  -1   3   3  347.27    8.50
   0  -3  -3  233.48    5.80
   0  -3  -3  224.88    6.00
   0  -3  -3  222.58    5.30
   0  -3  -3  225.18    5.30
   0   3   3  227.78    6.30
   0   3   3  227.28    5.90
   0   3   3  230.38    5.90
  -1  -3  -3    1.80    0.70
  -1  -3  -3    3.20    0.80
  -1  -3  -3    1.60    0.70
  -1  -3  -3    1.90    0.50
   1   3   3    1.60    1.20
   1   3   3    1.90    0.70
   1   3   3    2.60    1.00
   1   3   3    1.80    0.70
  -2  -3  -3   14.10    1.80
  -2  -3  -3   15.30    1.60
  -2  -3  -3   14.90    1.60
  -2  -3  -3   12.50    1.60
  -2  -3  -3   15.70    1.60
   2   3   3   11.60    1.30
   2   3   3   16.10    1.90
   2   3   3   13.00    1.50
   2   3   3   14.30    1.80
   2   3   3   14.50    1.60
   2   3   3   14.00    1.70
  -3  -3  -3    7.00    1.60
  -3  -3  -3    7.00    1.00
  -3  -3  -3    3.00    1.70
  -3  -3  -3    6.50    1.60
  -3  -3  -3    8.70    1.60
  -3  -3  -3    7.20    1.70
   3   3   3    5.80    1.20
   3   3   3    4.80    1.50
   3   3   3   10.10    2.10
   3   3   3    6.60    1.70
   3   3   3    3.70    1.70
  -4  -3  -3   38.80    3.60
  -4  -3  -3   48.30    3.90
  -4  -3  -3   40.50    3.50
  -4  -3  -3   36.30    3.40
  -4  -3  -3   39.80    3.50
   4   3   3   37.70    3.90
   4   3   3   46.70    3.50
   4   3   3   39.10    2.90
   4   3   3   36.30    3.40
   4   3   3   40.40    4.10
  -5  -3  -3  129.39    6.90
  -5  -3  -3  125.29    6.70
   5   3   3  134.29    6.40
   5   3   3  135.09    5.90
   5   3   3  130.39    5.90
   5   3   3  136.79    5.70
  -6  -3  -3    4.60    3.40
  -6  -3  -3    5.50    3.20
   6   3   3    5.80    3.40
   6   3   3    8.80    3.10
   6   3   3   11.00    2.90
   6   3   3    8.90    3.00
  -7  -3  -3    1.10    3.90
  -7  -3  -3   -4.00    4.70
   7   3   3   -4.80    3.70
   7   3   3   -0.70    3.60
   7   3   3    5.00    3.90
   7   3   3    4.80    3.90
   7  -4  -3   -3.90    4.40
  -7   4   3    4.30    4.40
  -7   4   3    2.20    5.40
   6  -4  -3   20.50    4.20
   6  -4  -3   19.00    2.20
   6  -4  -3   22.50    4.20
  -6   4   3   22.60    3.80
  -6   4   3   18.40    4.60
   5  -4  -3    0.80    1.70
   5  -4  -3    0.90    2.80
   5  -4  -3   -0.80    1.00
   5  -4  -3    5.40    2.40
  -5   4   3   -0.70    2.30
  -5   4   3   -1.20    2.00
  -5   4   3   -1.20    2.70
   4  -4  -3   37.70    2.40
   4  -4  -3   37.60    2.20
   4  -4  -3   36.10    3.30
   4  -4  -3   33.40    3.90
   4  -4  -3   36.80    4.60
  -4   4   3   47.10    5.00
  -4   4   3   36.10    3.00
  -4   4   3   40.40    3.70
  -4   4   3   40.20    3.50
  -4   4   3   35.90    3.30
   3  -4  -3  269.97    7.10
   3  -4  -3  270.17    8.50
   3  -4  -3  278.27    6.80
   3  -4  -3  271.27    9.10
   3  -4  -3  283.77    8.90
  -3   4   3  282.57    8.70
  -3   4   3  276.87    8.00
  -3   4   3  270.57    9.30
  -3   4   3  267.27    7.80
  -3   4   3  278.17    8.70
  -3   4   3  263.37    6.30
  -3   4   3  279.97    7.70
   2  -4  -3  619.94   14.20
   2  -4  -3  598.54   15.70
   2  -4  -3  638.24   14.40
   2  -4  -3  614.74   16.40
   2  -4  -3  628.34   15.50
  -2   4   3  615.84   15.50
  -2   4   3  628.94   15.90
  -2   4   3  647.64   14.80
  -2   4   3  626.54   15.00
  -2   4   3  640.74   15.80
  -2   4   3  626.44   14.50
  -2   4   3  569.84   15.30
  -2   4   3  626.24   16.60
   1  -4  -3 2773.32   62.09
   1  -4  -3 2764.02   63.89
   1  -4  -3 2792.32   62.39
   1  -4  -3 2781.02   63.19
   1  -4  -3 2776.72   62.09
   1  -4  -3 2765.42   63.19
  -1   4   3 2738.03   63.09
  -1   4   3 2831.52   63.89
  -1   4   3 2779.72   62.29
  -1   4   3 2886.81   62.89
  -1   4   3 2794.22   62.29
  -1   4   3 2963.10   64.19
  -1   4   3 2772.32   62.09
  -1   4   3 2872.01   63.19
   0  -4  -3  520.55   12.70
   0  -4  -3  526.25   12.40
   0  -4  -3  534.15   13.80
   0  -4  -3  539.95   13.20
   0  -4  -3  517.35   12.30
   0   4   3  515.85   13.20
   0   4   3  544.25   13.50
   0   4   3  544.15   12.90
   0   4   3  524.35   12.70
   0   4   3  523.95   13.10
   0   4   3  552.04   13.20
  -1  -4  -3   93.19    2.70
  -1  -4  -3   96.19    3.20
  -1  -4  -3   95.29    3.70
  -1  -4  -3   88.09    3.60
  -1  -4  -3   99.99    3.50
  -1  -4  -3   99.79    3.70
   1   4   3   93.09    3.90
   1   4   3  100.09    3.60
   1   4   3   90.99    3.50
   1   4   3   95.29    3.40
   1   4   3   98.69    3.50
  -2  -4  -3   17.40    1.70
  -2  -4  -3   16.00    1.80
  -2  -4  -3   15.20    1.90
  -2  -4  -3   16.00    1.90
   2   4   3   14.40    2.10
   2   4   3   17.00    2.10
   2   4   3   14.70    1.60
   2   4   3   16.80    1.70
   2   4   3   16.60    1.60
   2   4   3   16.40    1.90
  -3  -4  -3   93.19    4.20
  -3  -4  -3   85.79    3.20
  -3  -4  -3   83.79    4.20
  -3  -4  -3   86.59    4.10
  -3  -4  -3   86.79    4.50
  -3  -4  -3   93.09    4.10
   3   4   3   90.49    4.60
   3   4   3   89.99    4.30
   3   4   3   95.89    4.40
   3   4   3   83.59    3.90
   3   4   3   83.19    4.30
   3   4   3   89.89    4.60
  -4  -4  -3   51.39    4.10
  -4  -4  -3   63.79    4.20
  -4  -4  -3   59.79    4.10
  -4  -4  -3   60.59    4.10
  -4  -4  -3   54.59    4.50
   4   4   3   64.99    4.90
   4   4   3   62.99    4.30
   4   4   3   59.69    4.70
   4   4   3   59.79    3.70
   4   4   3   52.49    4.00
  -5  -4  -3    3.50    2.40
  -5  -4  -3    1.40    2.50
   5   4   3   -3.30    2.20
   5   4   3   -3.90    2.70
   5   4   3   -1.90    1.80
  -6  -4  -3    6.40    3.40
  -6  -4  -3    1.00    3.50
   6   4   3   -0.60    2.60
   6   4   3   -0.70    2.90
  -7  -4  -3    4.40    4.80
   7   4   3   -0.20    3.80
   7   4   3   -0.70    3.60
   7   4   3   -6.10    4.00
   7   4   3    1.90    5.70
   7  -5  -3    8.60    5.00
  -7   5   3    7.20    4.80
  -7   5   3   -0.80    5.50
   6  -5  -3    3.30    3.40
   6  -5  -3    6.20    4.50
  -6   5   3   -7.40    3.80
  -6   5   3   10.90    3.40
   5  -5  -3    8.20    2.80
   5  -5  -3    5.10    3.30
  -5   5   3    5.70    2.90
  -5   5   3    1.40    2.20
  -5   5   3    5.50    3.20
   4  -5  -3   13.50    3.10
   4  -5  -3   11.90    2.40
   4  -5  -3   16.20    3.70
  -4   5   3   10.00    2.40
  -4   5   3   13.60    2.80
  -4   5   3   11.80    2.40
  -4   5   3   14.60    2.30
  -4   5   3   15.80    2.90
  -4   5   3   14.90    2.70
   3  -5  -3   72.69    4.40
   3  -5  -3   74.29    3.70
   3  -5  -3   70.79    4.80
   3  -5  -3   74.79    4.10
  -3   5   3   71.89    4.00
  -3   5   3   81.59    5.50
  -3   5   3   72.49    3.20
  -3   5   3   68.09    3.20
  -3   5   3   72.79    4.30
  -3   5   3   66.59    4.10
  -3   5   3   78.59    4.10
  -3   5   3   69.39    3.70
  -3   5   3   73.29    2.30
   2  -5  -3  303.77    9.00
   2  -5  -3  310.27    9.10
   2  -5  -3  285.27   10.70
   2  -5  -3  315.87   10.00
  -2   5   3  304.87   10.10
  -2   5   3  314.37    8.10
  -2   5   3  296.67    8.50
  -2   5   3  301.97    9.00
  -2   5   3  306.07    9.00
  -2   5   3  285.97    8.20
  -2   5   3  315.57    7.80
   1  -5  -3  383.46   10.90
   1  -5  -3  394.36   11.60
  -1   5   3  392.86    9.50
  -1   5   3  395.16    9.70
  -1   5   3  395.36   10.50
  -1   5   3  389.56   10.50
  -1   5   3  402.06    9.70
  -1   5   3  390.06    9.70
  -1   5   3  391.56   11.50
  -1   5   3  399.96   10.70
   0  -5  -3   62.69    2.90
   0  -5  -3   58.39    3.40
   0  -5  -3   58.39    2.20
   0  -5  -3   58.29    3.20
   0  -5  -3   56.59    2.30
   0  -5  -3   59.69    2.00
   0   5   3   61.69    2.90
   0   5   3   58.49    2.50
   0   5   3   58.29    2.40
   0   5   3   60.59    2.70
   0   5   3   56.89    2.80
  -1  -5  -3  633.04   15.30
  -1  -5  -3  620.44   14.00
  -1  -5  -3  642.24   15.70
  -1  -5  -3  614.14   15.40
  -1  -5  -3  608.74   15.00
  -1  -5  -3  588.84   16.00
  -1  -5  -3  636.54   14.90
   1   5   3  589.24   15.60
   1   5   3  619.94   15.40
   1   5   3  665.23   15.70
   1   5   3  622.84   15.30
  -2  -5  -3   10.60    1.80
  -2  -5  -3    9.60    1.60
  -2  -5  -3    9.50    1.60
  -2  -5  -3   10.30    1.80
  -2  -5  -3   13.10    1.80
  -2  -5  -3    9.20    1.40
   2   5   3   12.10    1.50
   2   5   3    7.20    1.50
   2   5   3    9.10    1.60
   2   5   3    9.40    1.60
   2   5   3   12.10    2.10
  -3  -5  -3   38.80    3.10
  -3  -5  -3   35.60    3.20
  -3  -5  -3   39.60    3.40
  -3  -5  -3   34.60    2.80
  -3  -5  -3   34.60    2.80
  -3  -5  -3   31.00    2.70
   3   5   3   38.30    3.50
   3   5   3   38.80    3.10
   3   5   3   36.30    2.80
   3   5   3   39.10    3.20
   3   5   3   33.40    2.90
   3   5   3   38.20    3.70
  -4  -5  -3    6.10    2.30
  -4  -5  -3    6.60    2.40
  -4  -5  -3    4.70    2.10
   4   5   3    8.00    1.90
   4   5   3    9.10    2.50
   4   5   3    7.90    3.00
   4   5   3    2.10    3.00
  -5  -5  -3    2.00    2.60
  -5  -5  -3    3.00    2.60
   5   5   3    4.80    2.20
   5   5   3   -1.20    2.40
  -6  -5  -3   -2.60    3.50
  -6  -5  -3    5.90    3.40
   6   5   3    0.10    2.80
   6   5   3   -0.10    2.60
   6   5   3   -4.10    3.30
  -7  -5  -3    4.80    5.10
  -7  -5  -3    4.60    5.40
   7   5   3    4.20    4.70
   7   5   3    0.90    3.80
   6  -6  -3    4.60    3.80
   6  -6  -3    2.50    5.40
  -6   6   3    1.00    4.50
  -6   6   3   -8.30    4.20
  -6   6   3   -6.50    3.10
   5  -6  -3   -1.70    2.40
   5  -6  -3   -6.80    3.80
  -5   6   3    0.10    3.00
  -5   6   3    0.80    2.30
  -5   6   3   -1.90    3.10
   4  -6  -3    7.30    3.70
   4  -6  -3   10.60    2.60
   4  -6  -3    3.20    3.50
  -4   6   3    7.00    2.30
  -4   6   3    5.40    2.50
  -4   6   3    9.90    2.70
  -4   6   3    8.70    2.80
  -4   6   3    9.50    3.00
  -4   6   3    8.60    1.90
   3  -6  -3  152.78    6.10
   3  -6  -3  137.99    6.00
   3  -6  -3  158.18    7.30
   3  -6  -3  155.58    6.40
  -3   6   3  148.49    4.90
  -3   6   3  155.28    6.00
  -3   6   3  151.38    4.90
  -3   6   3  154.78    6.30
  -3   6   3  148.19    5.60
  -3   6   3  152.48    6.30
  -3   6   3  147.59    4.40
   2  -6  -3  596.34   17.00
   2  -6  -3  601.74   16.00
   2  -6  -3  600.34   15.90
  -2   6   3  579.54   15.70
  -2   6   3  571.94   17.00
  -2   6   3  589.64   14.70
  -2   6   3  593.64   14.90
  -2   6   3  621.94   14.20
  -2   6   3  593.34   15.90
  -2   6   3  600.14   14.90
   1  -6  -3   -0.30    1.20
   1  -6  -3   -1.30    1.50
  -1   6   3    0.50    0.90
  -1   6   3    0.60    0.60
  -1   6   3   -2.90    1.20
  -1   6   3   -1.10    1.30
  -1   6   3   -0.30    2.20
  -1   6   3    0.50    0.80
  -1   6   3    0.80    1.00
  -1   6   3    0.60    0.80
   0  -6  -3   39.30    1.40
   0  -6  -3   36.30    2.10
   0  -6  -3   40.20    3.30
   0  -6  -3   40.50    2.70
   0  -6  -3   37.10    2.90
   0   6   3   36.30    2.20
   0   6   3   37.50    2.60
   0   6   3   35.40    2.60
   0   6   3   42.90    3.50
   0   6   3   43.90    2.40
   0   6   3   37.50    2.30
  -1  -6  -3    5.60    1.40
  -1  -6  -3    9.70    2.00
  -1  -6  -3    7.00    1.20
  -1  -6  -3    6.10    1.00
  -1  -6  -3    4.40    1.60
  -1  -6  -3    5.60    1.20
   1   6   3    6.30    1.30
   1   6   3    4.10    1.20
   1   6   3    7.30    1.60
   1   6   3    6.00    1.40
  -2  -6  -3    3.50    0.90
  -2  -6  -3    2.60    1.40
  -2  -6  -3    0.70    1.70
  -2  -6  -3    3.10    1.30
  -2  -6  -3    2.30    1.60
  -2  -6  -3    2.60    1.40
   2   6   3    1.90    1.20
   2   6   3    4.30    1.50
   2   6   3    1.80    1.10
   2   6   3    6.30    2.00
   2   6   3    3.50    1.50
  -3  -6  -3    0.60    1.30
  -3  -6  -3    1.20    2.10
  -3  -6  -3    2.10    2.00
  -3  -6  -3    2.00    1.70
  -3  -6  -3   -0.80    1.60
  -3  -6  -3    1.80    1.30
   3   6   3    2.10    1.90
   3   6   3    0.80    1.80
   3   6   3    4.70    2.60
   3   6   3    0.00    1.30
   3   6   3    5.20    1.90
  -4  -6  -3    3.80    2.00
  -4  -6  -3    3.00    2.30
   4   6   3    6.10    2.30
   4   6   3    2.80    1.90
   4   6   3    0.50    2.90
  -5  -6  -3    2.70    2.60
  -5  -6  -3   -0.50    2.50
   5   6   3    2.40    2.80
   5   6   3    3.90    2.70
  -6  -6  -3   -5.20    3.90
   6   6   3    3.00    3.30
   6   6   3    4.80    2.90
   6   6   3   -4.30    3.80
  -7  -6  -3    3.40    5.50
  -7  -6  -3    5.30    5.50
   7   6   3    3.60    4.40
   7   6   3    4.30    5.20
   6  -7  -3    1.30    6.20
   6  -7  -3   10.10    4.40
  -6   7   3   11.30    5.10
  -6   7   3    5.80    3.90
  -6   7   3   -1.10    4.50
   5  -7  -3    9.70    5.20
   5  -7  -3   10.40    3.40
  -5   7   3   14.40    2.80
  -5   7   3   12.10    4.00
  -5   7   3    8.90    3.90
   4  -7  -3   -2.60    2.20
   4  -7  -3    7.80    3.80
  -4   7   3    0.80    1.60
  -4   7   3    3.90    2.50
  -4   7   3    0.60    2.40
  -4   7   3    1.00    2.90
  -4   7   3   -0.20    2.60
   3  -7  -3   18.40    2.80
   3  -7  -3   18.00    3.20
   3  -7  -3   22.30    4.30
  -3   7   3   17.40    3.00
  -3   7   3   16.00    2.50
  -3   7   3   18.80    2.10
  -3   7   3   18.60    2.50
  -3   7   3   16.30    2.20
  -3   7   3   15.60    1.90
   2  -7  -3  264.57    9.00
   2  -7  -3  266.97   10.10
  -2   7   3  262.07    7.10
  -2   7   3  262.27    7.70
  -2   7   3  265.17    8.20
  -2   7   3  264.17    8.60
  -2   7   3  266.27    7.80
   1  -7  -3  166.18    7.50
   1  -7  -3  170.18    5.50
   1  -7  -3  168.48    6.80
  -1   7   3  167.08    4.50
  -1   7   3  169.48    7.80
  -1   7   3  182.58    6.60
  -1   7   3  168.88    6.00
  -1   7   3  178.48    5.50
  -1   7   3  166.48    6.50
  -1   7   3  175.48    6.40
  -1   7   3  175.18    5.20
   0  -7  -3  138.09    4.60
   0  -7  -3  141.09    6.00
   0  -7  -3  146.29    6.50
   0  -7  -3  136.89    5.30
   0   7   3  138.89    4.80
   0   7   3  138.79    5.00
   0   7   3  140.59    5.50
   0   7   3  133.39    5.50
   0   7   3  141.19    4.70
   0   7   3  141.39    6.50
  -1  -7  -3   66.49    3.60
  -1  -7  -3   71.59    4.20
  -1  -7  -3   65.09    3.10
  -1  -7  -3   68.19    2.60
  -1  -7  -3   73.89    4.50
   1   7   3   65.19    3.30
   1   7   3   62.89    3.70
   1   7   3   72.39    3.60
   1   7   3   71.69    3.70
  -2  -7  -3    3.30    1.60
  -2  -7  -3    3.80    1.40
  -2  -7  -3    1.90    1.80
  -2  -7  -3    2.60    1.50
  -2  -7  -3    5.00    1.70
  -2  -7  -3    2.90    2.10
   2   7   3    1.00    2.30
   2   7   3    2.90    1.30
   2   7   3    1.70    1.30
   2   7   3    2.60    1.40
   2   7   3    0.80    1.70
  -3  -7  -3    1.40    1.70
  -3  -7  -3    1.90    2.30
  -3  -7  -3    0.00    1.40
  -3  -7  -3    3.80    2.00
  -3  -7  -3    3.40    2.10
   3   7   3    3.00    1.70
   3   7   3    1.10    2.00
   3   7   3    2.20    2.10
   3   7   3    0.10    1.80
  -4  -7  -3   -0.10    1.90
  -4  -7  -3   -3.50    2.30
   4   7   3   -0.60    2.60
   4   7   3    1.40    1.90
   4   7   3    3.10    3.20
  -5  -7  -3    5.80    2.90
   5   7   3    2.30    2.80
   5   7   3    1.40    3.70
  -6  -7  -3    4.60    4.50
  -6  -7  -3    4.50    4.90
   6   7   3    0.30    4.10
   6   7   3    2.40    3.50
  -7  -7  -3    3.10    6.60
  -7  -7  -3    1.60    5.80
   7   7   3   -5.90    5.50
   7   7   3   -0.70    4.90
   5  -8  -3    2.50    3.60
   5  -8  -3    4.70    5.60
  -5   8   3   -0.30    3.80
  -5   8   3    6.20    2.60
  -5   8   3   -1.10    3.70
   4  -8  -3    0.70    2.80
   4  -8  -3    5.00    4.50
  -4   8   3    3.60    2.90
  -4   8   3   -1.00    1.70
   3  -8  -3    1.40    2.40
   3  -8  -3    2.00    2.20
   3  -8  -3    3.20    3.40
  -3   8   3    3.20    1.70
  -3   8   3    1.10    1.90
  -3   8   3    4.40    2.50
  -3   8   3    2.50    1.40
  -3   8   3    4.90    2.00
  -3   8   3    1.70    2.20
   2  -8  -3   11.70    3.70
   2  -8  -3   12.80    2.50
  -2   8   3   14.10    1.80
  -2   8   3   12.30    2.60
  -2   8   3   11.30    2.30
  -2   8   3   13.00    1.70
  -2   8   3   13.90    2.30
  -2   8   3   14.60    2.30
   1  -8  -3    0.50    2.60
   1  -8  -3   -0.90    1.40
   1  -8  -3    2.60    2.00
  -1   8   3   -0.40    1.30
  -1   8   3   -0.60    1.10
  -1   8   3    1.50    1.60
  -1   8   3    0.50    1.40
  -1   8   3    0.50    1.50
   0  -8  -3  110.29    4.30
   0  -8  -3  116.79    5.30
   0  -8  -3  125.49    6.50
   0  -8  -3  119.89    6.00
   0   8   3  112.49    4.70
   0   8   3  108.99    5.10
   0   8   3  111.59    4.60
   0   8   3  105.09    4.30
  -1  -8  -3   10.70    2.20
  -1  -8  -3   14.70    2.90
  -1  -8  -3   10.30    2.40
  -1  -8  -3   11.00    1.80
  -1  -8  -3   10.70    1.10
   1   8   3   15.00    3.40
   1   8   3   13.30    2.50
   1   8   3   13.60    2.40
   1   8   3   13.00    2.00
   1   8   3   10.20    2.00
  -2  -8  -3   -0.30    1.40
  -2  -8  -3   -1.30    1.90
  -2  -8  -3    0.20    1.40
  -2  -8  -3    0.60    2.10
  -2  -8  -3   -0.70    2.10
  -2  -8  -3    1.10    1.50
   2   8   3    0.00    1.50
   2   8   3   -3.90    3.10
   2   8   3    0.80    1.50
   2   8   3   -0.50    1.80
   2   8   3   -3.00    3.10
   2   8   3    1.30    1.20
  -3  -8  -3   18.60    2.90
  -3  -8  -3   17.20    2.90
  -3  -8  -3   15.80    2.20
  -3  -8  -3   18.00    2.90
  -3  -8  -3   16.00    3.10
  -3  -8  -3   17.20    2.80
   3   8   3   11.40    3.00
   3   8   3   16.40    2.80
   3   8   3   12.70    2.70
   3   8   3   17.90    2.80
  -4  -8  -3    5.00    2.90
  -4  -8  -3    5.50    2.30
   4   8   3    6.60    3.30
   4   8   3    8.80    2.80
   4   8   3    4.00    3.70
  -5  -8  -3    1.90    3.20
  -5  -8  -3   -1.20    3.70
   5   8   3    0.60    3.70
   5   8   3   -0.20    2.90
  -6  -8  -3    0.40    5.00
   6   8   3   -0.10    4.80
   6   8   3    3.70    4.10
   5  -9  -3   14.40    7.10
   5  -9  -3    6.60    4.10
  -5   9   3   -3.10    4.40
  -5   9   3   12.40    4.80
   4  -9  -3    4.00    5.10
   4  -9  -3    3.30    3.30
  -4   9   3    7.60    2.30
  -4   9   3    2.40    3.40
  -4   9   3    2.90    3.00
   3  -9  -3    2.00    2.90
  -3   9   3    6.80    3.20
  -3   9   3    6.40    2.40
  -3   9   3   10.40    3.40
  -3   9   3    4.90    2.60
  -3   9   3    8.40    2.40
  -3   9   3    6.10    1.60
   2  -9  -3   77.59    6.60
   2  -9  -3   72.59    5.60
  -2   9   3   69.69    4.70
  -2   9   3   61.99    4.70
  -2   9   3   66.49    3.20
  -2   9   3   70.39    5.50
  -2   9   3   65.19    3.30
  -2   9   3   65.39    4.50
   1  -9  -3    2.70    3.30
   1  -9  -3    2.70    1.60
   1  -9  -3    1.40    2.50
  -1   9   3    4.60    2.10
  -1   9   3    2.40    1.30
  -1   9   3    5.20    1.80
  -1   9   3    5.20    2.20
  -1   9   3    2.80    1.80
   0  -9  -3    1.70    2.50
   0  -9  -3    2.30    2.90
   0  -9  -3    4.80    1.70
   0   9   3    5.10    1.70
   0   9   3    4.40    2.10
   0   9   3    5.40    2.00
   0   9   3    1.90    1.60
  -1  -9  -3    7.30    1.90
  -1  -9  -3    5.50    2.60
  -1  -9  -3    8.30    2.80
  -1  -9  -3    4.10    2.70
   1   9   3    7.10    2.10
   1   9   3    6.70    1.90
   1   9   3   11.30    2.20
   1   9   3    6.50    2.70
  -2  -9  -3    1.30    1.50
  -2  -9  -3   -0.90    2.70
  -2  -9  -3    3.10    2.70
  -2  -9  -3   -0.90    2.60
  -2  -9  -3    3.30    1.90
   2   9   3    0.70    2.00
   2   9   3    2.10    1.10
   2   9   3    0.60    1.80
   2   9   3   -2.60    2.20
  -3  -9  -3   16.10    3.10
  -3  -9  -3   13.80    3.30
  -3  -9  -3   19.50    3.10
  -3  -9  -3   13.50    3.40
  -3  -9  -3   15.40    2.90
   3   9   3   12.60    3.10
   3   9   3   19.00    3.00
   3   9   3   17.80    3.80
   3   9   3   16.80    4.40
   3   9   3   13.40    3.10
  -4  -9  -3   19.50    5.90
  -4  -9  -3   30.50    4.30
  -4  -9  -3   23.40    3.70
   4   9   3   22.60    4.10
  -5  -9  -3   -0.50    4.30
  -5  -9  -3    3.50    3.50
  -5  -9  -3    3.50    3.30
   5   9   3    2.90    3.60
   5   9   3    0.80    4.30
  -6  -9  -3    0.80    5.10
  -6  -9  -3   -2.80    5.70
   6   9   3    0.70    4.50
   6   9   3   -2.90    5.20
   4 -10  -3   -1.20    6.10
  -4  10   3    5.30    3.90
  -4  10   3   -0.10    3.40
  -4  10   3    4.40    4.10
   3 -10  -3   -0.50    5.00
   3 -10  -3    2.60    3.60
  -3  10   3    3.80    2.30
  -3  10   3    2.00    2.40
  -3  10   3    0.50    1.80
  -3  10   3   -1.40    2.90
  -3  10   3    2.00    3.00
   2 -10  -3    7.20    4.70
   2 -10  -3    3.90    3.50
  -2  10   3    4.90    1.40
  -2  10   3    3.80    2.40
  -2  10   3    4.90    2.50
  -2  10   3    3.00    1.70
   1 -10  -3   37.90    6.20
   1 -10  -3   44.20    5.60
  -1  10   3   38.40    3.20
  -1  10   3   31.50    3.90
  -1  10   3   29.60    3.60
  -1  10   3   33.30    4.20
   0 -10  -3   -0.40    2.90
   0 -10  -3    2.10    1.90
   0 -10  -3   -1.70    3.10
   0  10   3    2.70    2.10
   0  10   3   -1.60    2.00
   0  10   3    0.50    1.90
   0  10   3    5.10    2.70
  -1 -10  -3    0.10    3.00
  -1 -10  -3    0.10    1.90
  -1 -10  -3   -0.30    3.20
   1  10   3    3.30    2.30
   1  10   3    1.10    1.80
   1  10   3    0.90    2.20
  -2 -10  -3    0.40    1.10
  -2 -10  -3    3.50    3.50
  -2 -10  -3    1.80    2.10
   2  10   3    2.70    2.60
   2  10   3    3.40    2.30
   2  10   3    8.10    3.10
  -3 -10  -3    1.50    2.60
  -3 -10  -3    2.80    2.50
  -3 -10  -3    2.00    3.70
  -3 -10  -3    1.50    3.50
   3  10   3    0.70    3.10
   3  10   3   -0.50    3.30
   3  10   3   -1.50    2.80
  -4 -10  -3    4.40    4.70
  -4 -10  -3    4.10    3.60
   4  10   3    6.10    3.50
   4  10   3   14.80    4.80
  -5 -10  -3    9.00    4.10
  -5 -10  -3    8.00    5.20
  -5 -10  -3    9.50    6.80
  -5 -10  -3    4.40    4.80
   5  10   3    7.40    4.30
   5  10   3    5.90    5.10
   3 -11  -3  -11.10    6.00
   3 -11  -3   -1.20    4.00
  -3  11   3    8.00    3.60
  -3  11   3    0.90    3.50
  -3  11   3   -1.90    3.00
   2 -11  -3    0.70    5.40
   2 -11  -3    6.60    3.90
  -2  11   3    0.60    3.10
  -2  11   3    7.20    2.90
   1 -11  -3    0.80    4.70
   1 -11  -3    5.70    4.20
  -1  11   3   10.80    3.00
  -1  11   3    9.40    3.00
  -1  11   3    6.90    2.40
   0 -11  -3   14.50    5.00
   0 -11  -3   12.70    2.80
   0 -11  -3   10.30    4.00
   0  11   3   10.10    2.80
   0  11   3   13.60    3.40
   0  11   3    7.10    2.70
  -1 -11  -3    5.90    2.50
  -1 -11  -3    3.00    3.70
   1  11   3    4.80    3.30
   1  11   3    5.20    3.20
   1  11   3    3.80    2.50
  -2 -11  -3   13.50    3.20
  -2 -11  -3   17.80    4.90
  -2 -11  -3   13.40    4.40
   2  11   3   13.20    3.90
   2  11   3   13.70    3.30
   2  11   3   15.70    4.10
  -3 -11  -3    0.50    3.00
  -3 -11  -3   -1.30    4.50
  -3 -11  -3    9.80    4.70
  -3 -11  -3    1.00    2.60
   3  11   3    4.10    3.50
   3  11   3    6.00    7.80
   3  11   3    3.30    3.80
  -4 -11  -3   -1.50    5.20
  -4 -11  -3    8.70    3.60
  -4 -11  -3    1.90    3.60
   4  11   3    1.20    4.90
   4  11   3   -6.90    3.70
   2 -12  -3   -1.20    4.70
   2 -12  -3    3.00    6.40
  -2  12   3    2.90    3.80
  -2  12   3    2.00    3.80
   1 -12  -3    7.40    4.80
   1 -12  -3   15.80    6.30
  -1  12   3    7.60    3.70
   0 -12  -3   -2.80    3.10
   0 -12  -3    0.80    4.30
   0 -12  -3   16.90    5.90
   0  12   3    7.60    3.50
   0  12   3    3.60    3.60
   0  12   3    7.10    3.30
  -1 -12  -3    9.10    3.40
  -1 -12  -3    5.10    5.20
  -1 -12  -3    6.60    5.10
   1  12   3   12.40    3.50
   1  12   3    9.50    4.10
   1  12   3   13.80    4.10
  -2 -12  -3    0.50    3.30
  -2 -12  -3    6.50    5.30
  -2 -12  -3    3.00    5.40
   2  12   3    3.40    3.80
   2  12   3    9.20    3.80
   2  12   3    4.50    4.60
  -3 -12  -3    7.70    4.00
  -3 -12  -3    7.10    5.40
   3  12   3   10.00    4.60
   3  12   3    9.40    4.70
   3  12   3   -8.20    5.00
   0 -13  -3    7.10    7.10
   0 -13  -3    9.40    5.90
   0  13   3   17.20    5.00
   0  13   3    6.00    4.00
  -1 -13  -3   10.00    6.40
  -1 -13  -3   11.20    6.30
  -1 -13  -3    2.30    4.30
   1  13   3    2.20    5.00
   1  13   3   -3.80    4.20
   1  12  -4    6.70    4.40
   1  12  -4   13.10    4.80
  -1 -12   4   14.20    5.60
  -1 -12   4    9.80    5.80
   0  12  -4   -9.10    7.70
   0  12  -4    4.20    4.20
   0 -12   4    7.10    5.50
   0 -12   4    2.60    5.10
   3  11  -4   -1.80    4.30
   3  11  -4   -0.60    4.10
   3  11  -4    4.20    4.70
  -3 -11   4   -1.30    5.70
  -3 -11   4    6.20    4.20
   2  11  -4    0.90    3.80
   2  11  -4   12.00    3.90
   2  11  -4   -8.80    3.50
  -2 -11   4   -4.10    5.10
  -2 -11   4   -1.40    3.90
   1  11  -4   -4.10    3.50
   1  11  -4   -7.00    3.20
   1  11  -4    2.40    3.30
  -1 -11   4   -1.10    4.00
  -1 -11   4   -4.20    4.40
   0  11  -4   -1.50    3.10
   0  11  -4   -5.50    3.10
   0 -11   4    2.40    4.10
   0 -11   4   -0.40    4.50
  -1  11  -4    3.60    3.30
  -1  11  -4    1.80    3.10
  -1  11  -4    5.10    4.20
   1 -11   4   11.30    4.40
   1 -11   4   -3.40    4.40
  -2  11  -4   10.00    4.80
  -2  11  -4   14.30    3.60
  -2  11  -4    2.30    3.30
   4  10  -4   11.50    5.20
   4  10  -4    1.90    4.00
   4  10  -4    3.00    4.90
  -4 -10   4    6.60    4.60
  -4 -10   4   -0.70    5.60
   3  10  -4    0.80    3.80
   3  10  -4   -0.10    3.30
  -3 -10   4    0.70    3.60
  -3 -10   4    1.30    4.70
   2  10  -4   -1.10    3.20
   2  10  -4    5.20    3.30
   2  10  -4    3.20    2.80
  -2 -10   4    0.20    3.10
  -2 -10   4   -2.10    3.90
   1  10  -4   13.70    3.00
   1  10  -4    7.10    2.80
   1  10  -4   15.60    3.90
  -1 -10   4   17.50    4.40
  -1 -10   4   11.00    3.50
   0  10  -4    3.20    2.60
   0  10  -4    3.30    2.80
   0  10  -4    4.90    2.20
   0 -10   4   -0.80    3.10
   0 -10   4   -2.60    3.60
  -1  10  -4    3.40    1.50
  -1  10  -4    7.10    4.30
  -1  10  -4   -3.00    2.30
   1 -10   4   -3.10    3.30
   1 -10   4    1.00    3.90
  -2  10  -4    3.20    2.30
  -2  10  -4    3.10    2.60
  -2  10  -4    1.80    3.80
  -2  10  -4   -0.50    2.50
  -3  10  -4    5.70    3.00
  -3  10  -4   -0.10    4.60
  -3  10  -4    3.20    3.00
  -3  10  -4   -1.50    2.40
  -4  10  -4    0.80    5.80
   5   9  -4   -3.50    5.10
   5   9  -4   -4.00    4.70
   5   9  -4   -1.30    3.80
  -5  -9   4    6.30    5.50
  -5  -9   4    1.70    4.70
  -5  -9   4   -3.10    3.80
   4   9  -4    2.40    3.30
   4   9  -4   -0.40    4.00
   4   9  -4    7.80    3.90
  -4  -9   4    4.90    4.50
  -4  -9   4    3.10    2.70
  -4  -9   4    4.50    3.70
   3   9  -4   -0.20    2.60
   3   9  -4    1.20    3.30
   3   9  -4    3.20    3.40
  -3  -9   4    0.80    3.60
  -3  -9   4    4.00    1.70
  -3  -9   4   -2.40    3.10
   2   9  -4    5.30    3.00
   2   9  -4   -0.60    2.60
   2   9  -4   -0.80    2.30
  -2  -9   4    4.10    3.20
   1   9  -4    5.20    2.30
   1   9  -4   12.80    2.40
   1   9  -4    9.40    2.90
  -1  -9   4   11.40    3.30
  -1  -9   4   12.40    3.40
   0   9  -4   -0.50    1.70
   0   9  -4    2.00    2.90
   0   9  -4    2.10    2.00
   0   9  -4   -0.60    2.30
   0   9  -4   -1.90    3.40
   0  -9   4   -4.00    2.30
   0  -9   4   -3.90    2.80
  -1   9  -4    5.30    1.90
  -1   9  -4    3.60    1.30
  -1   9  -4    2.80    1.60
  -1   9  -4    3.50    2.30
  -1   9  -4    2.10    2.10
   1  -9   4    3.70    3.20
   1  -9   4   -1.10    3.50
  -2   9  -4    3.30    3.30
  -2   9  -4    3.80    1.90
  -2   9  -4    1.90    0.90
  -2   9  -4    0.20    1.90
  -2   9  -4    4.50    2.20
   2  -9   4   -0.40    4.50
   2  -9   4   -2.40    3.40
  -3   9  -4    7.10    2.80
  -3   9  -4    2.50    2.00
  -3   9  -4    2.60    3.90
  -3   9  -4    6.10    2.30
   3  -9   4   -2.00    4.60
  -4   9  -4   11.20    3.80
  -4   9  -4    0.40    2.30
  -4   9  -4   16.70    5.30
  -4   9  -4    7.50    2.90
   4  -9   4    9.20    5.70
   4  -9   4    4.30    3.70
   5   8  -4   -1.10    4.00
   5   8  -4    1.50    3.70
   5   8  -4    4.20    4.60
  -5  -8   4   11.20    3.90
  -5  -8   4    5.10    3.60
  -5  -8   4    5.60    3.90
   4   8  -4    8.50    3.70
   4   8  -4   14.00    5.20
   4   8  -4   10.40    4.00
  -4  -8   4    8.40    3.40
  -4  -8   4   12.80    2.70
  -4  -8   4   14.10    3.80
   3   8  -4    2.70    2.30
   3   8  -4   -0.10    2.60
   3   8  -4    3.90    3.20
  -3  -8   4    3.00    1.70
  -3  -8   4    3.90    2.90
  -3  -8   4    1.00    2.60
  -3  -8   4    4.80    3.00
   2   8  -4   20.00    2.90
   2   8  -4   19.90    3.50
   2   8  -4   20.80    2.90
  -2  -8   4   20.50    3.60
  -2  -8   4   19.10    3.30
  -2  -8   4   16.90    1.50
   1   8  -4   21.20    3.70
   1   8  -4   25.30    2.90
   1   8  -4   26.00    3.60
   1   8  -4   23.50    3.60
   1   8  -4   27.00    3.10
   1   8  -4   35.10    5.00
   1   8  -4   20.80    2.60
  -1  -8   4   28.30    3.30
  -1  -8   4   20.80    3.40
  -1  -8   4   15.50    3.00
   0   8  -4    0.10    1.40
   0   8  -4    4.60    2.90
   0   8  -4    0.40    1.90
   0   8  -4    1.00    0.70
   0   8  -4   -0.40    1.40
   0   8  -4   -0.10    1.90
   0   8  -4   -1.30    2.10
   0  -8   4   -2.40    2.40
   0  -8   4    1.70    2.00
   0  -8   4    0.30    2.30
  -1   8  -4    3.10    1.90
  -1   8  -4    1.70    1.50
  -1   8  -4   -0.90    1.00
  -1   8  -4    1.90    1.20
  -1   8  -4   -1.90    2.20
  -1   8  -4    1.00    1.50
   1  -8   4    2.40    2.30
   1  -8   4    0.70    2.50
   1  -8   4   -3.50    2.30
  -2   8  -4   18.50    2.30
  -2   8  -4   14.00    2.30
  -2   8  -4   15.30    1.50
  -2   8  -4   13.70    1.20
  -2   8  -4   15.00    2.10
  -2   8  -4   19.90    3.60
   2  -8   4   17.70    4.40
   2  -8   4   16.70    3.50
  -3   8  -4   27.10    4.50
  -3   8  -4   18.80    2.30
  -3   8  -4   16.70    2.00
  -3   8  -4   16.70    2.90
  -3   8  -4   24.40    3.00
   3  -8   4   21.90    3.50
   3  -8   4   28.30    5.60
  -4   8  -4    5.30    2.00
  -4   8  -4    5.50    2.30
  -4   8  -4    4.70    4.30
  -4   8  -4   14.70    3.50
   4  -8   4    6.60    3.60
   4  -8   4    2.30    5.00
  -5   8  -4   19.00    6.40
  -5   8  -4   15.80    3.60
   5  -8   4   13.80    4.30
   5  -8   4    5.60    6.50
   6   7  -4    1.00    4.50
   6   7  -4   -2.60    4.70
   6   7  -4    7.40    4.60
  -6  -7   4    6.90    4.80
  -6  -7   4    3.10    4.40
  -6  -7   4    2.40    5.60
   5   7  -4   -4.80    3.10
   5   7  -4   -0.60    3.60
   5   7  -4   -3.60    3.60
  -5  -7   4   -2.80    3.30
  -5  -7   4   -0.70    3.00
  -5  -7   4    3.80    3.80
  -5  -7   4    2.40    4.10
   4   7  -4    9.10    2.90
   4   7  -4    7.20    3.00
   4   7  -4    7.90    3.10
   4   7  -4   10.60    4.90
  -4  -7   4    3.30    2.30
  -4  -7   4    6.80    2.70
   3   7  -4   -2.50    2.10
   3   7  -4    0.20    1.80
   3   7  -4    0.30    4.10
   3   7  -4    1.00    2.30
  -3  -7   4    0.00    1.50
  -3  -7   4   -1.00    2.30
  -3  -7   4   -1.80    2.80
  -3  -7   4    0.80    0.90
  -3  -7   4   -1.90    1.90
   2   7  -4   18.30    4.00
   2   7  -4   17.60    2.40
   2   7  -4   19.80    3.50
   2   7  -4   18.40    2.60
   2   7  -4   16.40    3.00
   2   7  -4   12.80    4.70
  -2  -7   4   22.40    3.10
  -2  -7   4   19.70    3.20
  -2  -7   4   20.40    2.40
  -2  -7   4   23.10    1.90
  -2  -7   4   18.30    2.90
   1   7  -4  133.69    6.00
   1   7  -4  125.59    5.00
   1   7  -4  133.19    6.10
   1   7  -4  123.59    5.60
   1   7  -4  126.09    5.10
   1   7  -4  125.59    5.00
   1   7  -4  138.29    6.10
  -1  -7   4  130.59    6.20
  -1  -7   4  126.39    5.30
  -1  -7   4  125.99    5.90
   0   7  -4    0.40    1.10
   0   7  -4    0.10    1.40
   0   7  -4    2.80    2.30
   0   7  -4    0.90    1.50
   0   7  -4    0.60    0.50
   0   7  -4    6.90    3.00
   0   7  -4   -2.20    1.20
   0   7  -4    0.80    1.50
   0  -7   4    0.60    1.70
   0  -7   4   -2.60    2.00
   0  -7   4   -1.40    1.60
  -1   7  -4   15.80    1.90
  -1   7  -4   17.80    2.50
  -1   7  -4   13.90    1.40
  -1   7  -4   14.80    2.20
  -1   7  -4   15.50    1.80
   1  -7   4   16.50    3.40
   1  -7   4   18.00    2.80
   1  -7   4   12.30    2.60
  -2   7  -4   41.20    2.90
  -2   7  -4   42.10    1.60
  -2   7  -4   42.70    2.90
  -2   7  -4   41.40    4.40
  -2   7  -4   42.60    1.80
  -2   7  -4   39.00    2.60
  -2   7  -4   41.00    4.20
   2  -7   4   39.80    5.00
   2  -7   4   42.90    4.30
  -3   7  -4    5.10    1.50
  -3   7  -4    4.70    1.30
  -3   7  -4    5.60    1.60
  -3   7  -4    6.30    2.80
   3  -7   4    6.30    3.80
   3  -7   4    6.50    2.20
  -4   7  -4   42.60    2.90
  -4   7  -4   44.60    3.60
  -4   7  -4   49.30    6.10
   4  -7   4   40.90    4.60
   4  -7   4   51.69    6.90
  -5   7  -4   -7.60    4.40
   5  -7   4    5.20    3.50
   5  -7   4    0.30    5.30
  -6   7  -4   24.00    7.40
   6  -7   4   22.30    7.90
   6  -7   4   26.80    5.20
   6   6  -4   -7.40    3.80
   6   6  -4    6.80    4.10
   6   6  -4   -1.00    3.80
   6   6  -4    1.40    4.00
  -6  -6   4    2.60    3.70
  -6  -6   4    7.40    4.40
  -6  -6   4    0.10    3.60
  -6  -6   4    8.80    5.10
   5   6  -4   -2.00    3.10
   5   6  -4   -1.80    2.60
   5   6  -4   -0.30    3.20
  -5  -6   4   -1.40    2.70
  -5  -6   4   -3.50    4.80
  -5  -6   4   -0.40    3.20
   4   6  -4   16.90    3.30
   4   6  -4   11.10    3.20
   4   6  -4   19.10    4.30
   4   6  -4   12.20    2.60
  -4  -6   4   16.00    2.80
  -4  -6   4   16.10    2.80
  -4  -6   4   14.00    2.10
  -4  -6   4   16.50    3.40
  -4  -6   4   14.10    3.10
   3   6  -4    9.60    2.10
   3   6  -4    9.70    3.50
   3   6  -4    2.30    2.00
   3   6  -4    2.50    2.20
  -3  -6   4    3.90    1.70
  -3  -6   4    6.00    2.20
  -3  -6   4    7.10    2.90
  -3  -6   4    5.00    1.20
  -3  -6   4    4.80    1.90
   2   6  -4   10.50    3.20
   2   6  -4    8.60    1.70
   2   6  -4   13.70    2.90
   2   6  -4   12.20    2.20
   2   6  -4   12.10    3.00
   2   6  -4    8.30    2.20
  -2  -6   4   11.70    2.50
  -2  -6   4   11.70    2.00
  -2  -6   4    9.70    1.50
  -2  -6   4   15.00    2.30
  -2  -6   4   11.60    2.40
   1   6  -4    6.90    1.40
   1   6  -4    8.70    2.20
   1   6  -4    7.60    1.50
   1   6  -4    7.70    2.10
   1   6  -4    9.70    1.70
   1   6  -4    7.70    1.90
   1   6  -4    7.90    3.00
   1   6  -4    9.10    2.00
  -1  -6   4    7.60    0.90
  -1  -6   4    6.80    1.70
  -1  -6   4    7.50    2.00
  -1  -6   4    8.30    1.80
  -1  -6   4    5.40    1.70
  -1  -6   4    6.30    0.70
   0   6  -4   58.29    3.00
   0   6  -4   61.29    4.00
   0   6  -4   57.59    2.70
   0   6  -4   52.69    5.20
   0   6  -4   62.69    2.80
   0   6  -4   56.99    3.50
   0   6  -4   55.99    4.20
   0   6  -4   50.19    4.20
   0  -6   4   61.49    3.90
   0  -6   4   57.89    4.00
   0  -6   4   56.59    3.50
  -1   6  -4   52.59    3.80
  -1   6  -4   55.49    2.70
  -1   6  -4   65.69    5.50
  -1   6  -4   61.39    2.20
  -1   6  -4   55.49    4.60
  -1   6  -4   58.39    3.20
  -1   6  -4   58.79    2.20
  -1   6  -4   63.89    4.90
  -1   6  -4   57.29    3.30
  -1   6  -4   57.99    2.70
   1  -6   4   65.19    4.10
   1  -6   4   59.49    4.40
   1  -6   4   56.39    3.80
  -2   6  -4   21.50    3.00
  -2   6  -4   16.70    1.70
  -2   6  -4   13.90    1.20
  -2   6  -4   16.10    1.10
  -2   6  -4   17.60    1.90
   2  -6   4   19.60    2.30
   2  -6   4   15.10    3.40
   2  -6   4   17.20    2.80
  -3   6  -4   27.00    1.90
  -3   6  -4   24.80    2.20
  -3   6  -4   23.10    2.20
  -3   6  -4   27.50    3.80
  -3   6  -4   25.80    2.10
   3  -6   4   18.70    3.90
   3  -6   4   27.50    3.10
  -4   6  -4   19.90    2.60
  -4   6  -4   17.70    2.20
  -4   6  -4   18.40    2.80
  -4   6  -4   18.80    2.70
  -4   6  -4   22.10    4.20
   4  -6   4   15.20    4.50
   4  -6   4   21.20    3.20
  -5   6  -4    1.50    2.90
  -5   6  -4    0.20    4.60
   5  -6   4    4.30    4.40
   5  -6   4    0.10    3.00
  -6   6  -4   19.20    6.50
  -6   6  -4   14.70    4.80
   6  -6   4    5.50    4.10
   6  -6   4   15.00    6.20
   7   5  -4    6.90    5.00
   7   5  -4   13.90    5.50
   7   5  -4   15.60    4.90
  -7  -5   4   11.10    5.60
  -7  -5   4    6.30    6.30
   6   5  -4    2.00    3.50
   6   5  -4   -3.20    3.50
   6   5  -4    1.20    3.50
   6   5  -4   -1.40    3.20
  -6  -5   4   -5.00    3.90
  -6  -5   4    3.70    2.90
  -6  -5   4   -4.70    3.60
   5   5  -4    7.50    4.50
   5   5  -4    2.50    2.70
   5   5  -4    3.80    2.60
  -5  -5   4    1.90    3.20
  -5  -5   4    5.30    3.10
  -5  -5   4    1.20    2.90
  -5  -5   4    3.30    2.30
   4   5  -4    1.10    1.90
   4   5  -4    1.80    2.10
   4   5  -4    3.30    2.80
   4   5  -4   -1.60    2.00
  -4  -5   4    2.50    1.70
  -4  -5   4   -1.80    2.00
  -4  -5   4    1.70    1.80
  -4  -5   4    0.20    2.40
  -4  -5   4   -2.30    1.90
   3   5  -4  539.95   14.90
   3   5  -4  549.35   15.60
   3   5  -4  552.14   15.20
   3   5  -4  552.14   16.00
   3   5  -4  566.14   15.30
  -3  -5   4  546.05   15.00
  -3  -5   4  549.74   14.60
  -3  -5   4  534.85   15.20
  -3  -5   4  545.75   14.70
  -3  -5   4  532.35   13.30
  -3  -5   4  549.05   15.80
  -3  -5   4  564.54   15.60
   2   5  -4   62.19    4.10
   2   5  -4   63.69    4.30
   2   5  -4   62.49    3.60
   2   5  -4   58.79    3.80
   2   5  -4   62.79    3.30
   2   5  -4   61.59    4.40
  -2  -5   4   69.19    3.80
  -2  -5   4   68.59    3.00
  -2  -5   4   62.39    3.50
  -2  -5   4   61.49    3.60
  -2  -5   4   60.29    1.90
  -2  -5   4   66.09    3.70
   1   5  -4  135.59    5.40
   1   5  -4  129.69    5.40
   1   5  -4  130.49    6.00
   1   5  -4  135.49    4.50
   1   5  -4  128.39    4.60
   1   5  -4  140.69    5.00
   1   5  -4  132.89    5.40
  -1  -5   4  135.89    4.10
  -1  -5   4  116.99    4.20
  -1  -5   4  141.29    4.70
  -1  -5   4  132.39    5.30
  -1  -5   4  135.19    5.10
  -1  -5   4  135.29    5.30
   0   5  -4  465.35   11.70
   0   5  -4  466.25   11.50
   0   5  -4  471.55   13.10
   0   5  -4  451.75   12.10
   0   5  -4  451.35   12.70
   0   5  -4  455.75   12.80
   0   5  -4  472.05   13.70
   0   5  -4  479.65   12.90
   0  -5   4  476.75   11.70
   0  -5   4  479.95   13.10
   0  -5   4  464.15   12.90
   0  -5   4  469.25   13.20
  -1   5  -4    1.00    1.00
  -1   5  -4    1.00    1.00
  -1   5  -4   -1.50    1.90
  -1   5  -4    0.40    0.70
  -1   5  -4    1.40    1.70
  -1   5  -4    0.80    0.50
  -1   5  -4    3.10    1.80
  -1   5  -4    0.80    0.60
  -1   5  -4    0.80    2.20
   1  -5   4   -0.30    1.20
   1  -5   4    0.20    1.60
   1  -5   4   -0.70    1.10
  -2   5  -4   37.20    4.10
  -2   5  -4   37.90    1.50
  -2   5  -4   38.00    3.70
  -2   5  -4   35.50    3.50
  -2   5  -4   41.80    2.90
  -2   5  -4   38.30    2.20
  -2   5  -4   40.70    1.80
   2  -5   4   37.00    2.50
   2  -5   4   38.00    3.20
   2  -5   4   33.10    3.80
  -3   5  -4    7.60    1.60
  -3   5  -4   12.50    3.70
  -3   5  -4    7.40    1.30
  -3   5  -4    8.40    1.50
  -3   5  -4    7.10    2.20
  -3   5  -4    9.50    2.50
  -3   5  -4    5.80    1.10
   3  -5   4    6.90    2.80
   3  -5   4    7.80    1.70
  -4   5  -4   21.10    2.80
  -4   5  -4   23.80    2.00
  -4   5  -4   23.80    3.20
  -4   5  -4   28.30    4.30
  -4   5  -4   23.30    3.10
   4  -5   4   24.00    3.10
   4  -5   4   22.10    4.20
  -5   5  -4    2.50    3.90
  -5   5  -4    7.50    1.50
  -5   5  -4    3.80    3.70
  -5   5  -4    5.20    3.00
  -5   5  -4    8.30    2.90
   5  -5   4    8.40    2.90
  -6   5  -4    6.50    5.40
  -6   5  -4    0.70    4.20
   6  -5   4   -6.40    5.10
   6  -5   4   -6.40    3.40
   7   4  -4   -2.30    3.50
   7   4  -4    2.50    4.40
   7   4  -4   -3.60    4.50
  -7  -4   4   -1.80    5.80
  -7  -4   4    4.80    4.90
   6   4  -4   -4.30    3.30
   6   4  -4   -0.60    3.20
   6   4  -4    3.40    2.80
  -6  -4   4   -8.00    3.20
  -6  -4   4    2.40    4.00
  -6  -4   4   -1.40    2.30
   5   4  -4    5.90    2.30
   5   4  -4    4.00    3.90
   5   4  -4    5.40    2.80
   5   4  -4    6.40    2.50
   5   4  -4    5.70    2.30
  -5  -4   4    7.40    3.30
  -5  -4   4   -0.90    3.00
  -5  -4   4    4.40    1.90
  -5  -4   4   10.00    2.80
   4   4  -4    9.20    2.50
   4   4  -4    7.90    2.50
   4   4  -4   10.00    2.10
   4   4  -4    8.90    2.00
  -4  -4   4   10.10    2.50
  -4  -4   4   12.90    2.40
  -4  -4   4   14.20    2.00
  -4  -4   4    7.50    2.20
   3   4  -4   26.30    2.80
   3   4  -4   30.00    3.90
   3   4  -4   28.70    3.10
   3   4  -4   25.40    2.40
   3   4  -4   31.70    3.80
   3   4  -4   26.30    2.90
  -3  -4   4   22.80    2.40
  -3  -4   4   27.60    2.40
  -3  -4   4   22.00    2.50
  -3  -4   4   27.90    3.20
  -3  -4   4   28.20    3.70
  -3  -4   4   23.30    3.00
  -3  -4   4   23.70    2.80
   2   4  -4  156.78    6.10
   2   4  -4  154.68    5.90
   2   4  -4  144.79    5.10
   2   4  -4  145.99    5.70
   2   4  -4  165.38    5.90
   2   4  -4  149.99    5.40
  -2  -4   4  153.78    5.30
  -2  -4   4  147.49    5.20
  -2  -4   4  157.08    5.10
  -2  -4   4  145.89    4.00
  -2  -4   4  162.18    5.60
  -2  -4   4  155.28    5.70
   1   4  -4  209.38    6.10
   1   4  -4  193.48    6.80
   1   4  -4  197.28    6.60
   1   4  -4  198.78    6.30
   1   4  -4  188.78    6.40
   1   4  -4  186.88    5.60
   1   4  -4  190.88    5.90
  -1  -4   4  200.68    5.70
  -1  -4   4  188.18    6.40
  -1  -4   4  190.88    5.30
  -1  -4   4  191.18    6.20
  -1  -4   4  195.28    5.70
   0   4  -4  104.99    4.20
   0   4  -4   95.09    4.60
   0   4  -4   95.19    3.10
   0   4  -4   96.59    3.10
   0   4  -4   94.89    3.20
   0   4  -4   96.99    4.20
   0   4  -4   97.49    4.00
   0   4  -4   98.29    3.20
   0  -4   4   97.49    4.30
   0  -4   4   92.19    4.00
   0  -4   4   98.59    4.10
   0  -4   4   97.79    3.10
  -1   4  -4  673.53   17.70
  -1   4  -4  672.53   15.40
  -1   4  -4  686.23   17.10
  -1   4  -4  668.63   17.30
  -1   4  -4  672.93   15.40
  -1   4  -4  642.64   16.40
  -1   4  -4  640.04   15.30
   1  -4   4  669.53   16.00
   1  -4   4  669.03   17.10
   1  -4   4  671.53   17.80
  -2   4  -4   -0.30    0.70
  -2   4  -4    1.30    0.60
  -2   4  -4   -0.50    2.00
  -2   4  -4    0.50    1.40
  -2   4  -4    1.10    1.60
  -2   4  -4    0.80    1.10
  -2   4  -4    1.40    0.70
  -2   4  -4    0.20    0.50
   2  -4   4   -0.90    1.40
   2  -4   4    0.20    0.90
  -3   4  -4   17.80    3.00
  -3   4  -4   15.50    2.70
  -3   4  -4   19.40    2.70
  -3   4  -4   15.80    2.90
  -3   4  -4   13.90    1.90
  -3   4  -4   16.80    1.50
  -3   4  -4   12.90    1.80
  -3   4  -4   17.00    3.10
   3  -4   4   16.20    3.20
   3  -4   4   15.40    2.10
  -4   4  -4   21.40    2.60
  -4   4  -4   19.70    2.70
  -4   4  -4   28.10    4.10
  -4   4  -4   19.10    1.90
  -4   4  -4   19.80    3.30
  -4   4  -4   24.40    3.10
   4  -4   4   19.70    2.80
   4  -4   4   27.20    4.50
  -5   4  -4    0.70    1.30
  -5   4  -4   -0.90    2.40
  -5   4  -4    0.10    3.60
  -5   4  -4    1.30    3.80
  -5   4  -4   -3.50    2.60
   5  -4   4   -3.10    2.40
   5  -4   4    0.50    3.40
  -6   4  -4   -0.30    4.60
   6  -4   4    5.10    3.50
   6  -4   4    0.50    4.80
  -7   4  -4    6.90    5.80
  -7   4  -4    3.40    7.10
   7  -4   4    5.70    6.50
   7  -4   4   -0.30    4.70
   7   3  -4    1.20    3.80
   7   3  -4    1.30    4.30
  -7  -3   4    5.00    4.70
  -7  -3   4    0.60    5.10
   6   3  -4    6.70    3.00
   6   3  -4    3.30    3.20
   6   3  -4    9.80    2.60
  -6  -3   4    6.80    4.10
  -6  -3   4    0.90    3.60
  -6  -3   4   11.30    3.10
   5   3  -4    2.10    2.00
   5   3  -4   -1.90    2.10
   5   3  -4    5.20    2.30
   5   3  -4    2.70    1.80
  -5  -3   4    2.00    1.60
  -5  -3   4   -1.80    2.40
  -5  -3   4   -1.60    2.30
  -5  -3   4    2.40    3.90
   4   3  -4    7.60    2.00
   4   3  -4    5.40    1.50
   4   3  -4    6.60    2.00
   4   3  -4    6.80    1.90
  -4  -3   4   10.20    2.60
  -4  -3   4    3.30    2.10
  -4  -3   4    3.70    2.10
   3   3  -4   54.89    3.20
   3   3  -4   49.00    4.00
   3   3  -4   49.70    3.20
   3   3  -4   45.20    2.90
   3   3  -4   51.69    4.20
  -3  -3   4   52.09    3.90
  -3  -3   4   50.89    3.10
  -3  -3   4   52.69    3.40
  -3  -3   4   46.00    3.40
   2   3  -4 1132.99   26.80
   2   3  -4 1117.69   26.70
   2   3  -4 1110.59   26.50
   2   3  -4 1144.39   27.10
   2   3  -4 1077.69   26.10
  -2  -3   4 1123.19   26.20
  -2  -3   4 1077.09   24.90
  -2  -3   4 1121.39   27.10
  -2  -3   4 1126.29   26.60
  -2  -3   4 1094.89   26.10
  -2  -3   4 1099.09   26.70
  -2  -3   4 1102.19   25.30
   1   3  -4  328.27    9.20
   1   3  -4  318.47    8.80
   1   3  -4  331.27    9.40
   1   3  -4  351.26    9.00
  -1  -3   4  343.37    8.90
  -1  -3   4  336.17    9.00
  -1  -3   4  335.57    8.80
  -1  -3   4  318.27    8.40
  -1  -3   4  323.77    9.20
  -1  -3   4  346.87    8.60
   0   3  -4   -0.80    0.80
   0   3  -4    1.60    0.90
   0   3  -4   -0.50    0.70
   0   3  -4    1.20    0.50
   0   3  -4    0.30    0.40
   0   3  -4   -0.20    0.40
   0   3  -4    0.80    0.50
   0   3  -4    0.70    1.20
   0  -3   4    1.30    0.40
   0  -3   4    0.10    0.70
   0  -3   4    1.60    1.10
   0  -3   4   -0.60    0.70
   0  -3   4    0.60    0.50
   0  -3   4    0.40    0.40
  -1   3  -4   46.20    1.80
  -1   3  -4   45.80    1.50
  -1   3  -4   47.80    2.10
  -1   3  -4   46.50    2.00
  -1   3  -4   45.20    1.70
  -1   3  -4   46.60    2.20
  -1   3  -4   48.60    2.70
  -1   3  -4   52.69    2.90
  -1   3  -4   43.70    3.00
   1  -3   4   46.10    3.00
   1  -3   4   49.90    2.60
   1  -3   4   44.70    2.00
   1  -3   4   44.80    2.60
  -2   3  -4   26.50    1.40
  -2   3  -4   25.60    1.60
  -2   3  -4   24.40    1.60
  -2   3  -4   26.10    2.50
  -2   3  -4   28.20    2.00
  -2   3  -4   25.00    1.30
  -2   3  -4   29.30    2.50
  -2   3  -4   22.00    2.70
   2  -3   4   24.90    1.80
   2  -3   4   25.20    2.00
   2  -3   4   25.80    2.80
  -3   3  -4   32.70    3.10
  -3   3  -4   29.10    3.30
  -3   3  -4   28.50    1.80
  -3   3  -4   39.00    3.50
  -3   3  -4   32.80    2.30
  -3   3  -4   30.40    3.10
  -3   3  -4   31.40    2.60
  -3   3  -4   25.50    3.00
   3  -3   4   34.20    2.40
   3  -3   4   32.00    3.50
   3  -3   4   27.50    2.40
  -4   3  -4  120.39    4.50
  -4   3  -4  104.89    6.20
  -4   3  -4  115.19    4.90
  -4   3  -4  109.49    5.80
  -4   3  -4  106.79    4.90
  -4   3  -4  109.59    3.90
   4  -3   4  111.69    5.10
   4  -3   4  107.99    6.50
  -5   3  -4    3.30    3.20
  -5   3  -4    2.20    3.10
  -5   3  -4    4.50    2.60
  -5   3  -4    8.00    2.60
   5  -3   4    5.40    2.40
   5  -3   4    6.80    3.40
  -6   3  -4   -3.70    3.20
  -6   3  -4   -0.30    4.40
   6  -3   4   -2.70    4.80
   6  -3   4   -4.30    2.90
  -7   3  -4   -0.10    5.30
  -7   3  -4   -0.90    6.10
   7  -3   4   -0.50    6.00
   7  -3   4    2.30    4.20
   7   2  -4    5.00    3.70
   7   2  -4   -6.10    3.90
  -7  -2   4   -2.20    4.20
  -7  -2   4    0.60    5.30
   6   2  -4    0.00    1.80
   6   2  -4    3.00    2.70
   6   2  -4    1.10    2.80
  -6  -2   4    2.10    1.50
  -6  -2   4    0.90    3.10
  -6  -2   4    1.90    3.60
   5   2  -4   33.70    2.90
   5   2  -4   24.40    3.50
   5   2  -4   34.40    3.60
  -5  -2   4   33.10    3.90
  -5  -2   4   37.40    2.50
  -5  -2   4   42.80    4.80
   4   2  -4   23.60    4.10
   4   2  -4   23.40    2.30
   4   2  -4   23.50    2.60
   4   2  -4   20.40    2.60
  -4  -2   4   24.60    1.80
  -4  -2   4   20.70    3.10
  -4  -2   4   22.40    3.10
  -4  -2   4   17.80    2.60
  -4  -2   4   26.20    4.30
   3   2  -4    3.80    1.10
   3   2  -4    3.50    1.30
   3   2  -4    3.30    1.10
   3   2  -4    4.50    1.30
   3   2  -4    2.90    2.00
   3   2  -4    4.30    2.00
  -3  -2   4    1.90    1.20
  -3  -2   4    2.70    0.80
  -3  -2   4    3.90    1.30
  -3  -2   4    1.00    1.90
  -3  -2   4    3.20    1.60
   2   2  -4   35.00    2.60
   2   2  -4   34.90    2.20
   2   2  -4   33.40    2.10
   2   2  -4   35.20    2.60
   2   2  -4   35.80    2.30
  -2  -2   4   33.40    2.40
  -2  -2   4   33.90    1.30
  -2  -2   4   35.70    2.30
  -2  -2   4   38.20    2.20
  -2  -2   4   36.90    2.70
  -2  -2   4   31.90    2.30
  -2  -2   4   36.50    1.70
   1   2  -4 2065.29   46.80
   1   2  -4 2127.99   47.20
   1   2  -4 1994.40   46.30
   1   2  -4 2110.39   46.70
   1   2  -4 2072.39   46.40
   1   2  -4 2036.20   46.60
  -1  -2   4 2016.00   46.80
  -1  -2   4 2019.70   46.40
  -1  -2   4 2102.89   46.00
  -1  -2   4 2088.89   46.70
  -1  -2   4 2075.19   46.40
  -1  -2   4 2039.90   46.30
  -1  -2   4 2093.59   46.30
   0   2  -4  567.74   13.70
   0   2  -4  576.24   14.20
   0   2  -4  590.44   14.30
   0   2  -4  594.84   14.40
   0   2  -4  574.34   13.20
   0   2  -4  595.64   13.80
   0   2  -4  588.54   13.30
   0   2  -4  574.94   13.10
   0  -2   4  592.54   14.50
   0  -2   4  574.94   13.30
   0  -2   4  605.74   14.50
   0  -2   4  610.04   15.10
   0  -2   4  581.54   13.70
   0  -2   4  574.04   13.60
  -1   2  -4   63.59    2.30
  -1   2  -4   62.89    2.10
  -1   2  -4   62.59    2.20
  -1   2  -4   62.59    2.80
  -1   2  -4   61.19    2.10
  -1   2  -4   61.09    2.30
  -1   2  -4   60.99    2.80
   1  -2   4   60.59    1.80
   1  -2   4   61.39    2.80
   1  -2   4   58.29    2.90
   1  -2   4   61.59    1.90
   1  -2   4   61.19    2.10
   1  -2   4   60.59    3.10
  -2   2  -4    1.10    0.50
  -2   2  -4    0.70    0.70
  -2   2  -4    2.50    1.10
  -2   2  -4    0.00    1.00
  -2   2  -4    2.40    1.10
  -2   2  -4    2.10    0.70
  -2   2  -4    0.90    1.20
  -2   2  -4    2.10    0.70
   2  -2   4    2.20    0.50
   2  -2   4    1.70    0.40
   2  -2   4    2.00    1.40
   2  -2   4    1.60    0.80
  -3   2  -4    5.80    1.90
  -3   2  -4    1.90    1.10
  -3   2  -4    1.40    1.40
  -3   2  -4    0.10    0.70
  -3   2  -4    4.00    1.60
  -3   2  -4   -1.10    1.50
  -3   2  -4    1.00    0.80
  -3   2  -4    1.00    1.20
   3  -2   4    1.30    0.50
   3  -2   4    1.40    0.60
   3  -2   4    1.40    1.00
   3  -2   4   -0.60    1.50
  -4   2  -4    3.60    2.90
  -4   2  -4   10.80    1.80
  -4   2  -4   11.70    2.30
  -4   2  -4    7.30    2.60
  -4   2  -4    9.20    1.40
  -4   2  -4   12.70    2.20
  -4   2  -4    6.80    2.10
   4  -2   4    7.90    1.00
   4  -2   4    8.60    2.70
   4  -2   4    4.80    1.70
  -5   2  -4    8.00    2.50
  -5   2  -4    7.50    3.40
  -5   2  -4    1.30    2.20
  -5   2  -4    2.40    2.30
   5  -2   4    4.40    1.20
   5  -2   4    4.00    1.20
   5  -2   4    4.90    3.20
   5  -2   4    3.10    1.30
   5  -2   4    4.50    2.10
  -6   2  -4    7.10    3.70
  -6   2  -4    9.50    4.90
   6  -2   4    7.10    1.60
   6  -2   4   10.90    3.70
   6  -2   4    9.60    4.30
  -7   2  -4   12.20    5.30
  -7   2  -4   -5.40    5.90
   7  -2   4    9.20    5.60
   7  -2   4    0.10    4.00
   7   1  -4   -4.30    3.70
   7   1  -4    2.60    3.30
  -7  -1   4    7.80    4.50
  -7  -1   4    9.80    5.40
   6   1  -4    0.60    1.40
   6   1  -4    3.10    1.80
   6   1  -4   -1.80    2.50
   6   1  -4    0.80    2.40
  -6  -1   4   -1.30    3.20
  -6  -1   4    2.70    3.60
   5   1  -4   -0.10    2.00
   5   1  -4    2.90    1.90
   5   1  -4    4.30    1.30
  -5  -1   4    1.50    2.10
  -5  -1   4    0.50    0.90
  -5  -1   4    5.20    2.70
  -5  -1   4    2.00    0.90
   4   1  -4    4.80    3.10
   4   1  -4    5.00    1.60
   4   1  -4    1.90    1.30
   4   1  -4    0.80    2.50
   4   1  -4    3.60    1.10
  -4  -1   4    3.40    1.70
  -4  -1   4    3.90    0.70
  -4  -1   4    2.00    2.50
  -4  -1   4    5.50    2.30
  -4  -1   4    4.40    1.80
   3   1  -4   22.90    1.90
   3   1  -4   19.70    2.00
   3   1  -4   28.10    3.00
   3   1  -4   24.00    3.00
   3   1  -4   21.80    1.70
  -3  -1   4   22.10    2.20
  -3  -1   4   22.00    2.50
  -3  -1   4   20.80    0.90
  -3  -1   4   26.70    2.70
  -3  -1   4   23.70    2.50
  -3  -1   4   21.10    1.10
   2   1  -4   31.30    2.00
   2   1  -4   33.60    2.50
   2   1  -4   33.50    2.60
  -2  -1   4   34.00    2.30
  -2  -1   4   33.10    2.10
  -2  -1   4   30.60    2.20
  -2  -1   4   31.60    2.10
  -2  -1   4   32.60    1.20
   1   1  -4   36.20    1.80
   1   1  -4   26.30    2.60
   1   1  -4   35.80    1.50
   1   1  -4   35.40    2.10
   1   1  -4   35.50    1.30
  -1  -1   4   38.00    1.70
  -1  -1   4   37.00    1.80
  -1  -1   4   38.10    1.90
  -1  -1   4   35.60    1.40
  -1  -1   4   39.10    2.00
   0   1  -4  895.81   20.70
   0   1  -4  899.51   20.60
   0   1  -4  861.21   20.30
   0   1  -4  907.61   20.50
   0   1  -4  894.71   20.00
   0  -1   4  891.41   20.40
   0  -1   4  894.21   19.90
   0  -1   4  877.61   20.00
   0  -1   4  899.61   20.70
   0  -1   4  883.51   20.40
  -1   1  -4    7.10    0.80
  -1   1  -4    8.60    1.20
  -1   1  -4    7.40    0.90
  -1   1  -4    6.20    0.80
   1  -1   4    6.70    0.90
   1  -1   4    5.90    0.70
   1  -1   4    5.90    0.70
   1  -1   4    6.30    1.20
   1  -1   4    6.90    0.90
  -2   1  -4  205.68    5.90
  -2   1  -4  205.38    6.40
  -2   1  -4  212.28    6.90
  -2   1  -4  207.48    6.30
  -2   1  -4  211.38    5.30
   2  -1   4  205.48    6.00
   2  -1   4  211.08    5.60
   2  -1   4  213.28    5.40
   2  -1   4  199.78    6.00
  -3   1  -4  440.76   12.00
  -3   1  -4  411.46   11.40
  -3   1  -4  414.16   11.40
  -3   1  -4  426.66   10.80
  -3   1  -4  427.36   11.30
  -3   1  -4  428.06   12.60
   3  -1   4  428.76   11.40
   3  -1   4  425.86   10.80
   3  -1   4  436.46   10.50
   3  -1   4  419.66   12.30
  -4   1  -4   54.39    3.00
  -4   1  -4   45.00    2.70
  -4   1  -4   47.00    3.20
  -4   1  -4   42.50    4.00
  -4   1  -4   42.70    3.60
  -4   1  -4   44.20    3.40
  -4   1  -4   42.90    3.80
   4  -1   4   50.79    2.20
   4  -1   4   43.40    2.70
   4  -1   4   46.00    3.20
   4  -1   4   45.10    3.90
   4  -1   4   49.40    2.60
  -5   1  -4    4.10    3.10
  -5   1  -4    1.60    1.90
  -5   1  -4    4.80    2.30
  -5   1  -4    1.00    2.30
   5  -1   4    3.60    1.10
   5  -1   4    3.30    1.70
   5  -1   4    7.50    2.30
   5  -1   4    6.10    1.90
   5  -1   4    2.50    2.60
  -6   1  -4   -1.90    3.80
   6  -1   4    2.60    1.90
   6  -1   4   -3.00    2.70
   6  -1   4    3.50    3.60
   6  -1   4   -0.30    4.30
  -7   1  -4   10.60    5.90
  -7   1  -4   10.40    5.30
   7  -1   4    9.20    2.70
   7  -1   4   12.00    4.40
   7   0  -4   -2.60    3.90
   7   0  -4    3.40    3.30
  -7   0   4    0.20    4.40
  -7   0   4   -2.10    5.00
   6   0  -4    9.60    2.70
   6   0  -4   12.10    3.10
  -6   0   4    5.70    3.70
   5   0  -4    1.30    1.80
   5   0  -4   -1.90    1.60
   5   0  -4   -1.30    0.80
   5   0  -4   -0.30    1.90
  -5   0   4   -0.20    0.70
  -5   0   4   -1.10    1.90
  -5   0   4   -1.80    2.30
   4   0  -4    2.80    0.90
   4   0  -4    5.10    2.70
   4   0  -4    1.30    2.60
   4   0  -4    3.60    1.50
   4   0  -4    4.40    1.30
  -4   0   4    3.70    1.30
  -4   0   4    0.40    1.50
  -4   0   4    2.20    2.60
  -4   0   4    0.00    2.00
  -4   0   4    5.30    1.70
   3   0  -4  169.48    5.50
   3   0  -4  176.28    6.30
   3   0  -4  169.28    5.50
   3   0  -4  171.88    6.60
  -3   0   4  171.18    5.90
  -3   0   4  177.88    6.10
  -3   0   4  157.28    6.10
  -3   0   4  168.58    5.10
  -3   0   4  174.58    5.90
   2   0  -4  364.96    9.60
   2   0  -4  366.46    9.90
   2   0  -4  340.87    8.90
   2   0  -4  336.87    9.10
   2   0  -4  343.87    8.60
  -2   0   4  360.36    9.10
  -2   0   4  342.87    9.40
  -2   0   4  359.46    9.20
  -2   0   4  351.56    9.30
  -2   0   4  325.87    9.60
   1   0  -4  196.08    5.50
   1   0  -4  199.48    4.90
   1   0  -4  199.78    5.80
   1   0  -4  193.28    4.70
  -1   0   4  193.58    5.20
  -1   0   4  193.78    4.90
  -1   0   4  195.58    5.30
  -1   0   4  199.28    5.30
  -1   0   4  195.48    5.40
   0   0  -4   18.40    1.70
   0   0  -4   18.10    1.00
   0   0  -4   22.40    1.20
   0   0  -4   19.80    1.10
   0   0  -4   18.80    1.10
   0   0   4   18.50    0.70
   0   0   4   18.60    1.10
   0   0   4   18.20    1.10
   0   0   4   20.00    1.10
   0   0   4   18.70    1.00
   0   0   4   18.10    1.10
  -1   0  -4  174.68    4.80
  -1   0  -4  173.88    4.90
  -1   0  -4  177.88    4.30
  -1   0  -4  170.88    5.00
  -1   0  -4  165.68    4.80
  -1   0  -4  174.38    4.80
   1   0   4  179.28    4.80
   1   0   4  176.08    4.60
   1   0   4  175.38    4.30
   1   0   4  167.88    4.90
   1   0   4  170.88    4.90
  -2   0  -4   14.90    1.60
  -2   0  -4   12.70    1.00
  -2   0  -4   15.80    1.50
  -2   0  -4   13.00    1.40
  -2   0  -4   12.50    1.60
   2   0   4   15.60    1.00
   2   0   4   14.20    1.20
   2   0   4   15.40    1.20
   2   0   4   14.60    1.50
  -3   0  -4    4.50    1.60
  -3   0  -4    4.30    1.40
  -3   0  -4    4.10    1.50
  -3   0  -4    4.30    1.30
  -3   0  -4    6.10    1.20
  -3   0  -4    4.40    1.10
  -3   0  -4    6.50    1.10
   3   0   4    4.10    1.10
   3   0   4    5.30    1.10
   3   0   4    5.70    1.10
   3   0   4    5.50    1.20
   3   0   4    6.10    1.00
  -4   0  -4  292.17   10.20
  -4   0  -4  297.47    9.30
  -4   0  -4  288.07    8.00
  -4   0  -4  293.47    9.70
  -4   0  -4  295.37    9.50
  -4   0  -4  296.97    8.50
   4   0   4  294.17    7.80
   4   0   4  290.07    8.50
   4   0   4  290.67    9.00
   4   0   4  298.27    8.50
   4   0   4  292.27    9.70
   4   0   4  276.57    8.60
  -5   0  -4  123.09    5.80
  -5   0  -4  129.19    6.50
  -5   0  -4  140.39    7.50
   5   0   4  134.09    4.40
   5   0   4  126.49    6.00
   5   0   4  132.69    5.70
   5   0   4  131.79    5.50
   5   0   4  118.39    6.50
  -6   0  -4   -2.00    2.90
  -6   0  -4    5.90    4.70
   6   0   4    0.40    1.50
   6   0   4   -0.10    3.30
   6   0   4   -0.30    3.20
   6   0   4   -0.50    2.70
   6   0   4    3.60    2.40
  -7   0  -4    6.30    4.60
  -7   0  -4   -1.90    5.60
   7   0   4   -2.60    3.60
   7   0   4   -5.60    4.30
   7   0   4    3.40    3.00
   7  -1  -4    3.20    3.20
   7  -1  -4    5.80    4.10
  -7   1   4    4.90    4.20
  -7   1   4    1.10    4.70
   6  -1  -4    2.20    2.90
   6  -1  -4   -2.80    2.10
   6  -1  -4    1.20    2.70
  -6   1   4    0.80    1.60
  -6   1   4   -3.20    2.90
  -6   1   4    3.00    3.50
   5  -1  -4    1.60    1.90
   5  -1  -4    3.60    3.60
   5  -1  -4    1.80    1.60
   5  -1  -4    1.80    2.10
   5  -1  -4    1.20    0.60
  -5   1   4    0.00    2.50
  -5   1   4   -2.80    2.00
  -5   1   4    1.40    1.00
  -5   1   4    0.60    2.10
   4  -1  -4    0.60    2.40
   4  -1  -4    2.90    1.40
   4  -1  -4   -0.30    1.10
   4  -1  -4    5.80    2.90
   4  -1  -4    1.60    0.70
  -4   1   4    3.40    1.80
  -4   1   4    3.20    1.60
  -4   1   4    2.90    0.70
  -4   1   4    5.30    2.40
  -4   1   4    2.60    1.60
  -4   1   4    1.90    1.90
   3  -1  -4   82.79    3.40
   3  -1  -4   88.29    2.70
   3  -1  -4   91.49    4.60
   3  -1  -4   95.29    4.30
   3  -1  -4   84.99    3.70
  -3   1   4   83.79    3.80
  -3   1   4   85.69    3.90
  -3   1   4   85.29    3.70
  -3   1   4   86.59    4.00
  -3   1   4   88.39    4.20
   2  -1  -4  163.88    5.00
   2  -1  -4  169.28    5.60
   2  -1  -4  170.28    5.40
   2  -1  -4  159.68    4.80
   2  -1  -4  162.28    4.40
  -2   1   4  159.68    5.40
  -2   1   4  167.48    4.60
  -2   1   4  163.58    5.10
  -2   1   4  169.58    5.20
   1  -1  -4   23.40    1.60
   1  -1  -4   22.30    1.20
   1  -1  -4   23.80    1.50
   1  -1  -4   23.90    1.20
  -1   1   4   23.90    1.20
  -1   1   4   23.10    1.80
  -1   1   4   25.10    1.30
  -1   1   4   22.70    1.40
   0  -1  -4   98.89    2.70
   0  -1  -4   91.29    3.00
   0  -1  -4   93.49    3.00
   0  -1  -4   99.29    3.10
   0   1   4   94.29    3.00
   0   1   4   97.49    2.70
   0   1   4  100.49    3.00
   0   1   4   99.79    3.00
  -1  -1  -4 1092.69   24.60
  -1  -1  -4 1068.59   24.80
  -1  -1  -4 1020.60   24.90
  -1  -1  -4 1109.19   24.70
  -1  -1  -4 1074.79   24.60
  -1  -1  -4 1070.29   24.30
   1   1   4 1001.70   25.10
   1   1   4 1108.99   24.60
   1   1   4 1117.59   24.60
   1   1   4 1088.79   24.90
   1   1   4 1058.09   24.30
  -2  -1  -4   13.60    1.20
  -2  -1  -4   13.80    1.70
  -2  -1  -4   16.10    1.60
  -2  -1  -4   14.00    1.50
  -2  -1  -4   10.60    1.30
  -2  -1  -4   13.80    1.50
   2   1   4   14.20    1.40
   2   1   4   13.30    1.50
   2   1   4   15.90    1.60
   2   1   4    9.60    1.80
  -3  -1  -4    5.30    1.20
  -3  -1  -4    6.40    1.60
  -3  -1  -4    6.50    1.30
  -3  -1  -4    6.10    1.60
  -3  -1  -4    3.80    1.40
  -3  -1  -4    7.50    1.70
   3   1   4    7.10    1.40
   3   1   4    5.70    1.40
   3   1   4    4.50    1.00
   3   1   4    7.70    1.20
  -4  -1  -4   11.50    2.50
  -4  -1  -4    8.00    2.30
  -4  -1  -4    8.80    1.20
  -4  -1  -4    8.40    2.30
  -4  -1  -4    7.20    1.80
  -4  -1  -4    7.20    2.00
   4   1   4    7.60    2.50
   4   1   4    8.80    1.70
   4   1   4    9.50    1.50
   4   1   4    6.10    1.70
   4   1   4   11.20    2.20
   4   1   4    6.60    1.90
  -5  -1  -4  108.29    6.80
  -5  -1  -4  118.09    6.40
  -5  -1  -4  113.79    5.70
   5   1   4  120.59    6.00
   5   1   4  117.19    6.10
   5   1   4  120.19    5.60
   5   1   4  118.19    5.30
   5   1   4  121.59    4.50
   5   1   4  119.29    5.70
  -6  -1  -4    2.10    3.80
  -6  -1  -4   -3.10    2.80
   6   1   4   -3.20    1.80
   6   1   4   -5.10    2.70
   6   1   4   -0.10    3.00
   6   1   4   -2.40    2.40
  -7  -1  -4   -0.90    4.90
  -7  -1  -4   -1.40    4.10
   7   1   4    1.00    4.40
   7   1   4    3.30    3.70
   7   1   4   -7.10    3.20
   7  -2  -4    3.10    3.90
   7  -2  -4   -5.30    2.80
  -7   2   4    4.20    4.80
  -7   2   4    3.30    4.30
   6  -2  -4    2.00    2.00
   6  -2  -4    4.50    3.20
   6  -2  -4   -3.30    4.40
  -6   2   4    0.80    2.90
  -6   2   4   -0.70    3.50
   5  -2  -4    3.00    2.10
   5  -2  -4   -2.40    3.20
   5  -2  -4    1.20    2.30
   5  -2  -4    0.60    1.40
  -5   2   4    2.00    2.40
  -5   2   4   -2.40    2.80
  -5   2   4    0.50    1.20
  -5   2   4    2.60    2.30
   4  -2  -4    6.60    1.40
   4  -2  -4    3.60    2.70
   4  -2  -4    9.10    2.00
   4  -2  -4    6.80    2.00
   4  -2  -4    6.90    0.80
   4  -2  -4    7.50    2.50
  -4   2   4    8.90    2.30
  -4   2   4   13.80    2.60
  -4   2   4    7.00    1.10
  -4   2   4    9.70    2.50
  -4   2   4    7.40    1.80
  -4   2   4    8.20    2.50
   3  -2  -4   21.40    2.80
   3  -2  -4   19.70    2.50
   3  -2  -4   21.30    2.10
   3  -2  -4   22.60    1.70
   3  -2  -4   20.70    1.20
  -3   2   4   21.60    2.20
  -3   2   4   22.10    2.60
  -3   2   4   20.40    2.30
  -3   2   4   21.20    2.30
  -3   2   4   21.50    2.10
   2  -2  -4  504.95   12.60
   2  -2  -4  507.15   13.00
   2  -2  -4  514.25   12.30
   2  -2  -4  538.65   13.60
   2  -2  -4  513.45   12.10
  -2   2   4  534.25   12.90
  -2   2   4  526.75   13.10
  -2   2   4  524.75   13.40
  -2   2   4  522.25   12.20
  -2   2   4  512.25   13.00
  -2   2   4  536.05   13.40
   1  -2  -4  723.73   17.00
   1  -2  -4  696.13   16.80
   1  -2  -4  735.13   17.10
   1  -2  -4  737.63   17.40
  -1   2   4  699.73   17.00
  -1   2   4  728.83   17.00
  -1   2   4  717.33   17.20
  -1   2   4  720.93   16.60
   0  -2  -4   84.19    3.10
   0  -2  -4   82.39    2.80
   0  -2  -4   82.09    2.10
   0  -2  -4   85.19    2.80
   0  -2  -4   84.19    2.90
   0   2   4   85.09    2.80
   0   2   4   76.09    3.10
   0   2   4   87.19    2.90
   0   2   4   82.09    2.80
  -1  -2  -4    3.70    0.90
  -1  -2  -4    3.40    0.90
  -1  -2  -4    3.50    0.90
  -1  -2  -4    3.80    1.00
  -1  -2  -4    5.00    0.80
   1   2   4    3.40    1.00
   1   2   4    4.30    1.00
   1   2   4    2.90    0.70
   1   2   4    3.30    0.80
   1   2   4    3.60    0.90
  -2  -2  -4 1840.22   41.60
  -2  -2  -4 1760.92   42.00
  -2  -2  -4 1897.51   41.80
  -2  -2  -4 1753.22   42.00
  -2  -2  -4 1808.32   42.00
   2   2   4 1802.22   41.90
   2   2   4 1789.42   42.00
   2   2   4 1833.32   41.40
   2   2   4 1872.91   41.60
   2   2   4 1886.01   41.70
  -3  -2  -4   65.69    3.60
  -3  -2  -4   60.49    3.00
  -3  -2  -4   66.79    3.50
  -3  -2  -4   58.59    3.40
  -3  -2  -4   59.49    3.60
   3   2   4   58.49    2.90
   3   2   4   56.09    3.30
   3   2   4   60.69    3.30
   3   2   4   63.09    3.00
   3   2   4   67.79    3.80
  -4  -2  -4  143.09    6.30
  -4  -2  -4  134.19    6.10
  -4  -2  -4  140.99    6.10
  -4  -2  -4  137.79    6.40
  -4  -2  -4  148.49    5.50
   4   2   4  142.69    5.10
   4   2   4  143.89    6.60
   4   2   4  133.39    5.80
   4   2   4  143.29    5.90
   4   2   4  133.29    5.20
  -5  -2  -4  219.18    9.00
  -5  -2  -4  241.68    9.70
   5   2   4  210.48    8.20
   5   2   4  242.48    9.80
   5   2   4  231.18    8.00
   5   2   4  216.38    8.30
   5   2   4  224.68    7.30
  -6  -2  -4    9.30    4.00
  -6  -2  -4    3.60    3.10
   6   2   4    5.40    2.40
   6   2   4    5.50    3.10
   6   2   4    5.00    3.10
   6   2   4    6.20    3.10
   6   2   4   10.30    3.10
  -7  -2  -4   -1.60    5.00
  -7  -2  -4    0.80    4.10
   7   2   4    6.70    3.90
   7   2   4   -6.40    4.20
   7   2   4    6.60    4.00
   7  -3  -4    3.60    2.70
   7  -3  -4   -0.30    4.10
  -7   3   4   -3.30    4.50
  -7   3   4    7.60    5.50
   6  -3  -4    0.40    1.80
   6  -3  -4    0.10    2.90
   6  -3  -4   11.70    3.60
  -6   3   4   -2.70    3.60
  -6   3   4    5.50    3.10
   5  -3  -4   11.10    3.30
   5  -3  -4   14.60    2.00
   5  -3  -4   10.70    2.80
   5  -3  -4   13.90    2.90
  -5   3   4   10.10    3.70
  -5   3   4   12.90    3.20
  -5   3   4    7.40    2.50
  -5   3   4   11.20    2.20
   4  -3  -4  133.99    5.70
   4  -3  -4  135.69    6.90
   4  -3  -4  133.99    4.50
   4  -3  -4  139.89    6.10
   4  -3  -4  134.89    5.70
  -4   3   4  130.49    5.40
  -4   3   4  127.69    6.00
  -4   3   4  123.89    5.70
  -4   3   4  138.69    6.60
  -4   3   4  134.79    8.60
  -4   3   4  132.49    4.50
   3  -3  -4   64.39    2.60
   3  -3  -4   65.49    3.40
   3  -3  -4   64.79    3.50
   3  -3  -4   67.99    4.10
  -3   3   4   63.49    4.10
  -3   3   4   62.59    2.10
  -3   3   4   65.29    3.60
  -3   3   4   67.99    3.30
  -3   3   4   66.29    3.60
  -3   3   4   61.29    3.20
   2  -3  -4  138.79    4.80
   2  -3  -4  145.59    5.10
   2  -3  -4  143.79    4.30
   2  -3  -4  141.39    4.60
   2  -3  -4  138.39    4.30
   2  -3  -4  140.59    4.30
  -2   3   4  142.79    4.60
  -2   3   4  148.29    3.90
  -2   3   4  147.69    4.40
  -2   3   4  139.09    4.90
  -2   3   4  145.29    5.10
  -2   3   4  150.28    5.40
  -2   3   4  146.89    4.90
   1  -3  -4  171.58    5.10
   1  -3  -4  170.38    5.30
   1  -3  -4  167.88    4.90
   1  -3  -4  175.78    4.90
   1  -3  -4  165.38    4.90
  -1   3   4  154.78    5.00
  -1   3   4  168.38    4.80
  -1   3   4  168.88    5.10
  -1   3   4  167.78    4.10
  -1   3   4  173.18    4.80
  -1   3   4  169.88    5.20
   0  -3  -4  132.89    4.20
   0  -3  -4  142.79    4.00
   0  -3  -4  120.69    4.50
   0  -3  -4  135.29    3.60
   0   3   4  130.79    4.30
   0   3   4  137.19    4.30
   0   3   4  135.99    4.20
   0   3   4  128.59    4.30
  -1  -3  -4   30.40    1.80
  -1  -3  -4   31.50    1.90
  -1  -3  -4   32.80    1.60
  -1  -3  -4   29.40    2.00
   1   3   4   32.10    1.90
   1   3   4   32.70    2.00
   1   3   4   33.70    1.80
   1   3   4   29.60    1.80
   1   3   4   31.80    1.90
  -2  -3  -4   16.50    1.70
  -2  -3  -4   15.00    1.60
  -2  -3  -4   12.60    1.70
  -2  -3  -4   13.10    1.70
   2   3   4   13.20    1.40
   2   3   4   13.40    1.60
   2   3   4   12.40    1.60
   2   3   4   12.10    1.70
   2   3   4   13.40    1.80
  -3  -3  -4  311.47    9.70
  -3  -3  -4  308.57    9.20
  -3  -3  -4  323.37    9.50
  -3  -3  -4  324.97    9.20
  -3  -3  -4  322.97   10.00
   3   3   4  337.27    9.80
   3   3   4  324.17    9.20
   3   3   4  327.87    9.40
   3   3   4  341.47    9.80
   3   3   4  308.57    9.70
  -4  -3  -4   69.19    4.50
  -4  -3  -4   74.99    4.60
  -4  -3  -4   75.49    4.50
  -4  -3  -4   73.99    4.20
  -4  -3  -4   65.79    4.70
   4   3   4   75.49    4.10
   4   3   4   72.99    3.90
   4   3   4   71.79    4.40
   4   3   4   71.19    4.90
   4   3   4   74.49    4.50
  -5  -3  -4    9.00    2.80
  -5  -3  -4   10.70    3.30
   5   3   4    9.00    2.50
   5   3   4   12.20    2.90
   5   3   4    9.30    2.20
  -6  -3  -4   24.10    4.90
   6   3   4   24.00    4.10
   6   3   4   15.20    3.20
   6   3   4   19.10    3.40
   6   3   4   15.30    3.40
  -7  -3  -4    9.90    4.30
  -7  -3  -4    8.80    5.20
   7   3   4    2.60    4.00
   7   3   4   -0.50    4.20
   7   3   4    1.90    4.40
   7   3   4    9.20    4.00
   7  -4  -4    0.40    4.40
  -7   4   4   -2.50    5.30
  -7   4   4   -5.60    4.50
   6  -4  -4    0.20    3.10
   6  -4  -4   -0.60    3.90
   6  -4  -4   -0.10    1.70
  -6   4   4    4.50    3.20
  -6   4   4   -5.40    3.60
   5  -4  -4   15.80    2.70
   5  -4  -4   18.00    3.30
   5  -4  -4   15.60    3.50
   5  -4  -4   14.60    1.80
  -5   4   4   17.10    2.60
  -5   4   4   11.30    2.70
  -5   4   4   16.10    3.40
   4  -4  -4   32.60    3.20
   4  -4  -4   33.30    3.00
   4  -4  -4   31.80    2.00
   4  -4  -4   36.10    4.40
   4  -4  -4   29.50    3.90
  -4   4   4   26.00    3.60
  -4   4   4   34.30    4.60
  -4   4   4   34.80    3.00
  -4   4   4   29.40    3.60
  -4   4   4   29.70    2.90
   3  -4  -4  317.87    8.60
   3  -4  -4  314.47   10.10
   3  -4  -4  316.37    9.90
   3  -4  -4  312.07    8.60
   3  -4  -4  323.97    8.10
   3  -4  -4  318.47    9.50
  -3   4   4  310.77    9.50
  -3   4   4  317.67    9.60
  -3   4   4  303.57   10.30
  -3   4   4  306.07    8.80
  -3   4   4  305.67    9.60
  -3   4   4  311.67    7.50
  -3   4   4  328.97    8.80
   2  -4  -4  632.64   14.90
   2  -4  -4  625.24   16.50
   2  -4  -4  617.34   15.40
   2  -4  -4  587.44   15.70
   2  -4  -4  586.14   16.20
  -2   4   4  637.44   16.00
  -2   4   4  619.24   15.40
  -2   4   4  645.34   14.60
  -2   4   4  631.04   14.90
  -2   4   4  608.74   16.50
  -2   4   4  631.04   15.10
  -2   4   4  624.84   15.80
  -2   4   4  606.84   14.80
   1  -4  -4  422.16   11.10
   1  -4  -4  412.46   10.90
   1  -4  -4  429.36   10.80
   1  -4  -4  410.56   10.20
   1  -4  -4  408.86   10.20
  -1   4   4  415.76   10.90
  -1   4   4  410.66    9.60
  -1   4   4  411.66   10.70
  -1   4   4  427.26   10.30
  -1   4   4  409.36   10.90
  -1   4   4  424.76   10.10
   0  -4  -4  266.27    6.30
   0  -4  -4  271.07    7.00
   0  -4  -4  283.07    7.60
   0  -4  -4  268.17    6.20
   0   4   4  246.18    7.60
   0   4   4  272.47    7.50
   0   4   4  280.37    7.30
   0   4   4  265.17    7.60
   0   4   4  277.87    7.70
  -1  -4  -4   11.00    1.30
  -1  -4  -4    9.20    1.30
  -1  -4  -4   11.50    1.50
  -1  -4  -4   10.40    1.50
  -1  -4  -4   10.40    1.00
   1   4   4   10.90    1.30
   1   4   4    7.50    1.20
   1   4   4   10.30    1.30
   1   4   4   11.70    1.50
   1   4   4   11.10    1.60
  -2  -4  -4   38.70    2.70
  -2  -4  -4   41.90    2.50
  -2  -4  -4   40.30    2.30
  -2  -4  -4   43.90    2.50
  -2  -4  -4   44.90    2.70
   2   4   4   39.80    2.90
   2   4   4   39.90    2.40
   2   4   4   40.70    2.40
   2   4   4   41.40    2.70
  -3  -4  -4  103.29    4.70
  -3  -4  -4  107.19    4.50
  -3  -4  -4  112.29    4.70
  -3  -4  -4   95.79    4.80
  -3  -4  -4  104.89    3.70
  -3  -4  -4  104.99    4.60
   3   4   4  103.29    4.80
   3   4   4  106.49    4.90
   3   4   4  105.69    4.70
   3   4   4  101.49    4.30
   3   4   4  106.29    4.90
   3   4   4  103.19    4.80
  -4  -4  -4   82.49    2.40
  -4  -4  -4   78.79    4.80
  -4  -4  -4   73.09    4.60
  -4  -4  -4   79.89    5.00
  -4  -4  -4   81.09    4.70
   4   4   4   84.89    5.80
   4   4   4   91.89    4.90
   4   4   4   76.89    5.10
   4   4   4   85.29    4.90
   4   4   4   87.99    4.40
  -5  -4  -4    9.10    2.70
  -5  -4  -4    8.70    2.80
   5   4   4    8.40    3.00
   5   4   4    7.30    2.90
   5   4   4    9.00    2.40
  -6  -4  -4    3.10    3.60
  -6  -4  -4   -3.00    3.50
   6   4   4  -10.20    5.70
   6   4   4   -0.70    2.70
   6   4   4   -1.10    2.90
  -7  -4  -4    6.10    4.90
  -7  -4  -4   -6.10    4.90
   7   4   4   -3.80    3.70
   7   4   4    5.20    4.40
   7   4   4   -4.30    3.60
   7   4   4    9.70    4.40
   7  -5  -4   -4.30    4.60
  -7   5   4    5.10    4.90
  -7   5   4    4.30    5.80
   6  -5  -4   -5.20    4.60
   6  -5  -4   -0.70    3.20
  -6   5   4    7.10    3.40
  -6   5   4   -0.10    3.90
  -6   5   4   -7.60    3.70
   5  -5  -4    1.40    3.60
   5  -5  -4    1.90    2.50
  -5   5   4    1.90    3.20
  -5   5   4    3.00    2.20
  -5   5   4    0.30    2.80
   4  -5  -4   81.19    6.10
   4  -5  -4   96.49    6.00
   4  -5  -4   95.09    5.10
  -4   5   4   83.69    5.10
  -4   5   4   84.69    4.70
  -4   5   4   80.09    4.20
  -4   5   4   75.49    4.80
  -4   5   4   82.09    4.90
   3  -5  -4  318.17   10.70
   3  -5  -4  302.67    7.30
   3  -5  -4  307.57    7.40
   3  -5  -4  307.67    9.80
   3  -5  -4  326.47    9.80
   3  -5  -4  310.07    9.10
  -3   5   4  304.37    9.90
  -3   5   4  305.07   10.90
  -3   5   4  312.47    7.60
  -3   5   4  298.97    8.80
  -3   5   4  306.77    8.70
  -3   5   4  310.17    8.60
  -3   5   4  322.47    9.90
  -3   5   4  305.47    9.40
   2  -5  -4   46.10    1.70
   2  -5  -4   47.00    1.90
   2  -5  -4   47.70    2.90
   2  -5  -4   47.30    3.00
   2  -5  -4   48.60    3.60
  -2   5   4   48.10    2.30
  -2   5   4   47.20    2.60
  -2   5   4   47.50    3.00
  -2   5   4   50.09    4.10
  -2   5   4   49.80    2.30
  -2   5   4   45.70    2.20
  -2   5   4   46.50    2.40
  -2   5   4   42.70    3.10
   1  -5  -4   16.40    2.10
   1  -5  -4    9.70    2.00
   1  -5  -4   12.40    1.20
   1  -5  -4   15.50    1.90
   1  -5  -4   11.30    1.10
   1  -5  -4   10.60    1.10
  -1   5   4   11.60    1.00
  -1   5   4   13.20    2.00
  -1   5   4   12.40    1.80
  -1   5   4   13.30    1.30
  -1   5   4   12.20    1.30
  -1   5   4   12.80    1.70
  -1   5   4   12.30    1.00
   0  -5  -4  111.99    3.40
   0  -5  -4  111.09    4.20
   0  -5  -4  121.09    4.90
   0  -5  -4  103.39    3.00
   0   5   4  101.79    4.10
   0   5   4  111.59    3.90
   0   5   4  104.79    4.00
   0   5   4  108.49    4.40
   0   5   4  104.69    3.70
   0   5   4  110.49    4.20
  -1  -5  -4   73.69    2.00
  -1  -5  -4   76.79    3.50
  -1  -5  -4   68.19    3.60
  -1  -5  -4   73.09    2.70
  -1  -5  -4   71.89    3.30
  -1  -5  -4   75.09    2.90
  -1  -5  -4   74.59    3.30
   1   5   4   71.79    3.20
   1   5   4   75.99    3.90
   1   5   4   74.39    3.30
   1   5   4   71.09    3.40
   1   5   4   73.99    3.30
  -2  -5  -4    2.30    1.50
  -2  -5  -4    3.30    1.30
  -2  -5  -4    1.00    1.30
  -2  -5  -4    1.30    0.90
  -2  -5  -4    0.70    1.20
  -2  -5  -4    0.90    1.20
   2   5   4    3.30    1.60
   2   5   4    0.40    1.20
   2   5   4    1.60    1.10
   2   5   4    0.40    1.00
   2   5   4    0.10    1.50
  -3  -5  -4   78.09    4.10
  -3  -5  -4   85.59    4.20
  -3  -5  -4   79.09    4.50
  -3  -5  -4   90.99    4.60
  -3  -5  -4   87.89    4.50
  -3  -5  -4   85.19    4.10
   3   5   4   84.19    4.80
   3   5   4   87.19    4.40
   3   5   4   88.29    5.00
   3   5   4   84.49    4.20
   3   5   4   83.89    4.20
  -4  -5  -4  178.48    7.70
  -4  -5  -4  195.18    7.40
  -4  -5  -4  193.18    5.30
   4   5   4  188.58    7.80
   4   5   4  189.88    7.10
   4   5   4  182.68    7.70
   4   5   4  186.38    7.80
  -5  -5  -4    6.40    2.90
  -5  -5  -4    9.70    3.10
   5   5   4    9.10    3.20
   5   5   4    9.00    2.40
  -6  -5  -4   14.00    4.30
  -6  -5  -4   11.80    4.10
   6   5   4   18.80    3.70
   6   5   4   21.00    3.60
   6   5   4   19.80    4.20
  -7  -5  -4   15.80    4.80
  -7  -5  -4   -3.60    5.00
   7   5   4    6.00    4.10
   7   5   4    8.20    4.80
   6  -6  -4   17.50    5.90
   6  -6  -4    7.60    4.40
  -6   6   4   10.50    4.80
  -6   6   4    7.00    3.80
  -6   6   4    5.00    4.40
   5  -6  -4    4.00    4.30
   5  -6  -4    0.40    2.90
  -5   6   4    5.70    3.20
  -5   6   4    5.10    3.20
  -5   6   4   12.50    2.70
   4  -6  -4    0.70    3.60
   4  -6  -4    6.80    2.40
   4  -6  -4    2.20    3.40
  -4   6   4    5.60    2.50
  -4   6   4    4.10    2.60
  -4   6   4    5.80    2.30
  -4   6   4    8.90    2.70
  -4   6   4    5.20    1.80
   3  -6  -4   81.69    4.30
   3  -6  -4   82.39    4.80
   3  -6  -4   74.49    5.40
   3  -6  -4   83.69    4.60
  -3   6   4   76.69    4.00
  -3   6   4   76.49    2.80
  -3   6   4   81.09    4.70
  -3   6   4   76.79    3.90
  -3   6   4   81.29    3.60
  -3   6   4   83.69    3.60
   2  -6  -4  151.38    7.00
   2  -6  -4  151.98    5.90
   2  -6  -4  152.98    5.30
   2  -6  -4  145.59    5.80
  -2   6   4  145.99    5.00
  -2   6   4  152.28    4.80
  -2   6   4  149.69    6.00
  -2   6   4  149.09    5.80
  -2   6   4  144.29    7.20
  -2   6   4  152.78    4.70
  -2   6   4  140.19    5.40
   1  -6  -4   79.99    4.10
   1  -6  -4   88.59    4.90
  -1   6   4   83.09    2.90
  -1   6   4   81.79    3.20
  -1   6   4   90.19    4.00
  -1   6   4   84.89    4.10
  -1   6   4   86.09    3.90
  -1   6   4   81.49    3.10
  -1   6   4   80.89    2.40
  -1   6   4   79.19    4.70
  -1   6   4   77.19    3.80
   0  -6  -4  114.89    5.30
   0  -6  -4  114.19    4.60
   0  -6  -4  111.69    4.90
   0  -6  -4  111.79    3.50
   0  -6  -4  112.39    4.10
   0  -6  -4  113.79    3.40
   0   6   4  110.09    4.30
   0   6   4  113.19    4.60
   0   6   4  111.29    4.60
   0   6   4  119.49    4.20
   0   6   4  113.29    4.00
   0   6   4  115.19    5.00
  -1  -6  -4    3.20    1.40
  -1  -6  -4    2.40    1.50
  -1  -6  -4    3.50    1.00
  -1  -6  -4    2.90    1.20
   1   6   4    3.20    1.40
   1   6   4    4.60    1.30
   1   6   4    4.00    1.80
   1   6   4    2.30    1.10
   1   6   4    3.60    1.20
  -2  -6  -4    2.60    1.50
  -2  -6  -4   -1.00    1.40
  -2  -6  -4   -1.60    1.30
  -2  -6  -4    1.40    1.30
  -2  -6  -4    0.00    1.60
  -2  -6  -4   -0.10    0.80
   2   6   4    0.20    1.10
   2   6   4    1.70    1.50
   2   6   4   -3.10    1.90
   2   6   4    1.00    1.70
   2   6   4   -1.10    1.20
  -3  -6  -4   -1.10    1.40
  -3  -6  -4   -1.00    2.10
  -3  -6  -4    1.10    1.70
  -3  -6  -4    1.30    1.70
  -3  -6  -4    1.70    1.40
   3   6   4    2.70    2.50
   3   6   4   -1.50    1.40
   3   6   4    0.00    1.60
   3   6   4    0.80    1.40
   3   6   4   -0.40    3.90
   3   6   4    0.00    1.70
  -4  -6  -4   36.80    4.20
  -4  -6  -4   27.40    3.40
   4   6   4   30.60    4.50
   4   6   4   34.20    4.10
   4   6   4   35.80    3.60
   4   6   4   37.60    4.30
  -5  -6  -4    3.40    2.80
   5   6   4   -0.30    2.20
   5   6   4    4.20    3.10
  -6  -6  -4    2.30    3.70
  -6  -6  -4    0.70    3.80
   6   6   4    4.10    3.30
   6   6   4   -2.00    4.00
  -7  -6  -4   -3.20    5.60
   7   6   4    0.80    4.30
   7   6   4   -3.80    5.20
   6  -7  -4    3.20    6.30
   6  -7  -4    6.10    4.60
  -6   7   4    1.70    4.70
  -6   7   4   -4.30    4.70
  -6   7   4   -8.10    3.60
   5  -7  -4   21.30    4.10
   5  -7  -4   17.50    5.50
  -5   7   4   11.90    3.00
  -5   7   4   13.20    3.80
  -5   7   4    7.80    3.90
   4  -7  -4   -4.80    3.60
   4  -7  -4    1.40    2.40
  -4   7   4    5.30    2.90
  -4   7   4    3.30    2.40
  -4   7   4    3.60    2.90
  -4   7   4   -1.10    1.60
  -4   7   4   -2.80    4.20
   3  -7  -4    5.80    2.00
   3  -7  -4    0.10    2.80
   3  -7  -4    5.90    2.10
  -3   7   4    8.20    1.80
  -3   7   4    5.50    1.80
  -3   7   4    6.40    1.50
  -3   7   4    2.30    1.80
  -3   7   4    1.30    2.30
  -3   7   4    6.20    1.50
   2  -7  -4   16.50    2.50
   2  -7  -4   13.30    3.00
  -2   7   4   11.40    1.70
  -2   7   4   12.30    2.10
  -2   7   4   16.00    1.90
  -2   7   4   13.00    1.70
  -2   7   4   10.40    2.20
   1  -7  -4    3.50    2.20
   1  -7  -4    2.90    1.70
  -1   7   4    3.50    1.50
  -1   7   4    4.20    1.40
  -1   7   4    0.50    1.30
  -1   7   4    0.90    1.90
  -1   7   4    6.60    3.00
  -1   7   4    4.20    1.10
  -1   7   4    4.80    2.00
  -1   7   4    6.10    1.20
   0  -7  -4    3.10    1.80
   0  -7  -4   -0.30    0.70
   0  -7  -4   -0.80    1.50
   0  -7  -4   -0.80    1.80
   0  -7  -4    0.80    0.60
   0   7   4   -1.80    1.70
   0   7   4    0.90    1.40
   0   7   4    1.50    1.30
   0   7   4   -0.90    1.10
   0   7   4    5.00    2.80
   0   7   4   -0.70    1.00
   0   7   4    2.90    1.90
  -1  -7  -4   37.90    2.60
  -1  -7  -4   39.30    3.20
  -1  -7  -4   38.90    3.60
  -1  -7  -4   38.40    2.20
  -1  -7  -4   39.90    2.30
   1   7   4   35.80    3.90
   1   7   4   43.70    3.20
   1   7   4   39.90    2.70
   1   7   4   42.20    2.90
   1   7   4   31.50    2.80
  -2  -7  -4   14.00    2.00
  -2  -7  -4   11.10    2.20
  -2  -7  -4    9.90    1.60
  -2  -7  -4   10.40    1.40
  -2  -7  -4    8.10    2.30
  -2  -7  -4    8.00    1.90
   2   7   4   11.10    2.10
   2   7   4    8.30    1.90
   2   7   4   13.40    2.70
   2   7   4   11.10    2.10
  -3  -7  -4   18.80    3.00
  -3  -7  -4   13.20    1.90
  -3  -7  -4   15.80    2.80
  -3  -7  -4    9.30    2.50
  -3  -7  -4   15.80    2.50
   3   7   4   12.10    2.40
   3   7   4   12.50    2.50
   3   7   4   19.10    3.10
   3   7   4   10.70    2.40
  -4  -7  -4    1.70    2.10
  -4  -7  -4    1.80    1.80
  -4  -7  -4   -2.10    2.30
   4   7   4    2.60    2.60
   4   7   4   -4.50    3.00
   4   7   4    0.90    2.00
   4   7   4   -3.90    2.40
  -5  -7  -4   -1.20    3.30
  -5  -7  -4    2.90    2.80
   5   7   4   -1.10    2.60
  -6  -7  -4    7.70    4.40
   6   7   4   11.00    4.00
   6   7   4    7.90    4.50
   5  -8  -4   10.10    5.70
   5  -8  -4    1.50    3.70
  -5   8   4    2.70    2.80
  -5   8   4   -0.90    3.70
  -5   8   4   -6.20    3.80
   4  -8  -4    7.80    3.20
   4  -8  -4   18.50    5.90
  -4   8   4    6.40    2.10
  -4   8   4   15.30    3.70
  -4   8   4    9.60    2.90
   3  -8  -4   11.50    3.00
   3  -8  -4   11.50    4.20
   3  -8  -4   12.30    2.90
  -3   8   4   13.30    1.80
  -3   8   4   15.80    2.30
  -3   8   4   11.10    2.20
  -3   8   4   11.50    2.10
  -3   8   4   19.10    2.80
  -3   8   4   15.40    2.90
   2  -8  -4   15.10    3.80
   2  -8  -4    8.20    2.60
  -2   8   4   15.50    2.60
  -2   8   4   19.40    2.30
  -2   8   4   13.70    2.20
  -2   8   4   16.80    2.80
  -2   8   4   12.50    2.50
  -2   8   4   14.00    1.80
   1  -8  -4   35.40    4.00
   1  -8  -4   37.50    4.50
  -1   8   4   31.80    3.10
  -1   8   4   38.60    3.40
  -1   8   4   39.80    2.80
  -1   8   4   34.20    2.50
  -1   8   4   34.50    2.40
  -1   8   4   46.00    4.20
   0  -8  -4   17.70    2.80
   0  -8  -4   14.70    3.10
   0  -8  -4   14.50    1.80
   0  -8  -4   15.40    2.70
   0   8   4   13.70    3.00
   0   8   4   18.90    2.50
   0   8   4   19.00    2.50
   0   8   4   16.60    2.40
   0   8   4   17.50    2.20
  -1  -8  -4   -3.20    2.10
  -1  -8  -4    0.50    0.90
  -1  -8  -4    1.40    2.00
  -1  -8  -4    1.60    1.20
  -1  -8  -4   -0.40    1.90
   1   8   4    0.00    1.50
   1   8   4    1.00    2.10
   1   8   4   -0.10    1.40
   1   8   4   -2.50    1.50
  -2  -8  -4    2.30    1.70
  -2  -8  -4    4.80    1.90
  -2  -8  -4    0.40    2.20
  -2  -8  -4   -0.40    1.30
  -2  -8  -4    3.30    2.10
   2   8   4    4.60    2.00
   2   8   4    2.20    1.70
   2   8   4   -1.80    1.60
  -3  -8  -4    0.50    1.80
  -3  -8  -4    1.60    2.30
  -3  -8  -4    0.00    2.30
  -3  -8  -4   -1.10    1.40
  -3  -8  -4    3.40    2.60
   3   8   4   -0.40    2.40
   3   8   4    1.10    2.00
   3   8   4    1.00    2.00
   3   8   4    0.40    2.10
  -4  -8  -4    3.00    2.20
  -4  -8  -4    5.50    2.90
  -4  -8  -4    3.90    2.40
   4   8   4    7.10    2.70
   4   8   4    2.50    3.50
   4   8   4    4.40    3.20
   4   8   4    2.00    3.20
  -5  -8  -4   13.80    3.70
   5   8   4    6.80    3.50
   5   8   4   18.70    4.70
  -6  -8  -4   -6.20    5.10
   6   8   4   -1.60    4.80
   6   8   4   -3.40    4.00
   5  -9  -4   12.80    6.80
   5  -9  -4    7.80    4.70
  -5   9   4    6.00    4.20
  -5   9   4    4.60    5.00
   4  -9  -4   -5.20    3.20
   4  -9  -4    1.50    5.60
  -4   9   4    1.10    2.90
  -4   9   4    1.50    3.90
  -4   9   4   -5.20    3.30
   3  -9  -4   -3.20    2.70
   3  -9  -4    6.20    4.50
  -3   9   4    4.20    2.60
  -3   9   4    4.20    1.90
  -3   9   4    0.40    1.60
  -3   9   4   -0.60    2.60
  -3   9   4    2.60    2.40
   2  -9  -4    9.10    4.00
   2  -9  -4    6.60    2.90
  -2   9   4    9.60    2.50
  -2   9   4    5.40    1.30
  -2   9   4    8.90    2.40
  -2   9   4    5.90    1.60
  -2   9   4    9.70    2.10
  -2   9   4   12.30    3.20
  -2   9   4    3.90    2.50
   1  -9  -4    3.20    3.30
   1  -9  -4   -0.20    2.30
  -1   9   4    2.60    2.10
  -1   9   4    1.30    1.90
  -1   9   4    1.50    1.40
  -1   9   4   -0.30    1.70
   0  -9  -4    9.60    1.90
   0  -9  -4   14.50    3.70
   0  -9  -4    4.10    2.70
   0   9   4    9.60    2.50
   0   9   4   10.60    2.00
   0   9   4   11.60    2.60
   0   9   4   12.20    2.20
  -1  -9  -4    0.00    2.30
  -1  -9  -4   -0.70    2.80
  -1  -9  -4    2.20    1.40
   1   9   4    0.60    2.90
   1   9   4    2.60    2.10
   1   9   4    2.80    1.80
   1   9   4    2.30    2.00
  -2  -9  -4    3.00    1.80
  -2  -9  -4   -0.90    1.50
  -2  -9  -4    2.40    1.90
  -2  -9  -4    3.00    2.60
  -2  -9  -4    3.10    2.90
   2   9   4   -2.10    2.40
   2   9   4    2.10    2.20
   2   9   4    0.90    1.90
  -3  -9  -4    7.00    2.70
  -3  -9  -4    4.40    2.20
  -3  -9  -4   11.20    3.20
  -3  -9  -4    8.90    3.00
   3   9   4    3.70    2.50
   3   9   4    5.00    2.70
   3   9   4    7.10    3.20
  -4  -9  -4   22.60    4.20
  -4  -9  -4   29.00    4.00
  -4  -9  -4   29.80    3.90
  -4  -9  -4   23.50    3.70
   4   9   4   29.40    4.40
   4   9   4   31.20    4.70
   4   9   4   26.20    7.90
  -5  -9  -4    8.20    4.70
  -5  -9  -4    4.80    3.60
  -5  -9  -4    2.50    3.60
   5   9   4    2.20    4.50
   5   9   4    6.90    3.60
  -6  -9  -4   17.80    6.40
   6   9   4   -4.30    4.50
   6   9   4    5.80    5.90
   4 -10  -4    4.80    6.40
  -4  10   4    0.00    3.50
  -4  10   4   10.30    4.30
   3 -10  -4   -3.50    3.90
   3 -10  -4   -0.30    5.50
  -3  10   4    2.40    2.00
  -3  10   4   -3.40    2.30
  -3  10   4   -0.30    3.00
  -3  10   4    2.10    3.30
   2 -10  -4   13.20    5.30
   2 -10  -4    6.20    3.50
  -2  10   4    4.40    2.50
  -2  10   4    4.30    1.80
   1 -10  -4   -4.40    4.20
   1 -10  -4    0.70    2.90
  -1  10   4    2.60    2.40
  -1  10   4    2.00    2.40
  -1  10   4    2.80    1.90
  -1  10   4   -3.30    2.10
   0 -10  -4    7.80    2.10
   0 -10  -4    8.20    3.30
   0 -10  -4    4.10    3.80
   0  10   4    4.50    2.40
   0  10   4    6.20    2.10
   0  10   4    0.80    3.30
   0  10   4    2.00    2.10
  -1 -10  -4   14.30    4.20
  -1 -10  -4    7.50    2.10
  -1 -10  -4    5.80    3.40
   1  10   4   10.50    2.80
   1  10   4    7.60    2.30
   1  10   4    7.10    2.60
  -2 -10  -4    1.30    1.90
  -2 -10  -4    0.20    1.70
  -2 -10  -4   -1.90    1.90
  -2 -10  -4    4.40    3.60
   2  10   4   -1.50    2.10
   2  10   4    1.40    2.90
  -3 -10  -4   35.30    5.40
  -3 -10  -4   35.50    4.70
  -3 -10  -4   33.80    4.40
  -3 -10  -4   36.50    4.40
   3  10   4   36.50    5.10
   3  10   4   39.80    5.30
   3  10   4   31.60    4.50
  -4 -10  -4   14.00    4.20
  -4 -10  -4   14.30    3.40
  -4 -10  -4   26.90    5.40
  -4 -10  -4   17.30    4.00
   4  10   4   20.20    4.90
   4  10   4   12.90    4.60
   4  10   4   19.50    4.40
  -5 -10  -4    3.90    5.10
  -5 -10  -4    2.30    3.80
  -5 -10  -4    4.10    5.40
   5  10   4   11.30    5.90
   5  10   4   12.80    4.50
   3 -11  -4    0.90    6.50
   3 -11  -4    3.60    4.50
  -3  11   4   -4.20    3.60
  -3  11   4    6.60    3.90
   2 -11  -4    9.40    4.50
   2 -11  -4   19.70    5.90
  -2  11   4   19.40    3.00
  -2  11   4   27.30    4.10
  -2  11   4   11.40    3.60
   1 -11  -4   -0.30    3.70
   1 -11  -4   -2.90    4.60
  -1  11   4    4.70    2.40
  -1  11   4    1.70    2.90
  -1  11   4    0.50    2.70
   0 -11  -4    5.10    2.50
   0 -11  -4    1.20    3.90
   0 -11  -4    2.80    4.70
   0  11   4   -2.60    2.60
   0  11   4   -0.70    2.80
   0  11   4   -0.20    2.50
  -1 -11  -4   -2.20    2.10
  -1 -11  -4    0.70    7.40
  -1 -11  -4   -2.80    3.80
   1  11   4    1.60    3.00
   1  11   4   -1.80    2.30
   1  11   4    3.00    3.00
  -2 -11  -4   -1.70    2.40
  -2 -11  -4    7.50    4.40
  -2 -11  -4    0.90    3.60
   2  11   4    2.00    3.70
   2  11   4    0.30    3.00
   2  11   4    2.70    3.20
  -3 -11  -4    1.40    2.50
  -3 -11  -4    5.50    4.60
  -3 -11  -4   -2.60    4.30
  -3 -11  -4   -4.20    2.80
   3  11   4   -0.20    3.80
   3  11   4    2.30    3.50
   3  11   4   -1.40    4.10
  -4 -11  -4    6.00    3.60
  -4 -11  -4    2.70    5.20
  -4 -11  -4    7.90    4.10
   4  11   4    3.00    4.40
   4  11   4  -12.00    4.90
   4  11   4    4.10    5.10
   2 -12  -4    5.60    4.80
   2 -12  -4    4.10    7.20
  -2  12   4   -2.70    3.90
  -2  12   4    1.30    4.00
   1 -12  -4    0.40    4.80
   1 -12  -4   13.00    6.30
  -1  12   4   15.30    3.60
  -1  12   4    5.60    3.90
  -1  12   4   12.00    6.00
   0 -12  -4    6.00    3.00
   0 -12  -4    5.20    5.40
   0 -12  -4    0.80    4.50
   0  12   4    4.70    3.60
   0  12   4   -1.80    3.30
  -1 -12  -4    7.00    4.90
  -1 -12  -4    4.40    3.10
  -1 -12  -4   -3.30    5.10
   1  12   4   -0.50    3.20
   1  12   4   -2.80    3.70
   1  12   4   -1.60    3.70
  -2 -12  -4    5.00    5.20
  -2 -12  -4    2.30    5.40
  -2 -12  -4    0.70    3.20
   2  12   4    0.80    3.80
   2  12   4   -1.90    3.90
   2  12   4    0.60    5.00
  -3 -12  -4    7.30    5.80
  -3 -12  -4   14.80    5.70
   3  12   4    2.80    4.80
   3  12   4   -5.00    4.30
   3  12   4   -2.60    5.10
   0 -13  -4    3.70    6.10
   0 -13  -4   -9.40    6.70
   0  13   4    1.00    3.90
   0  13   4    8.40    4.50
  -1 -13  -4    1.10    6.20
  -1 -13  -4   17.60    6.90
   1  13   4    1.50    4.20
   1  13   4   14.30    5.50
   1  13   4    0.50    4.40
   2  11  -5    4.30    4.00
   2  11  -5   17.10    4.40
   2  11  -5   -1.80    4.00
  -2 -11   5   -4.60    5.10
  -2 -11   5    8.30    4.80
   1  11  -5    4.50    3.40
   1  11  -5    2.90    3.80
   1  11  -5    7.70    3.60
  -1 -11   5    7.20    4.40
  -1 -11   5    9.60    5.10
   0  11  -5   -0.90    3.40
   0  11  -5    1.10    3.20
   0 -11   5   -7.80    4.50
   0 -11   5   12.10    4.50
  -1  11  -5    4.10    3.50
  -1  11  -5   -6.70    4.70
  -1  11  -5   14.00    4.80
   1 -11   5    5.00    4.60
  -2  11  -5   -5.40    6.10
  -2  11  -5    1.70    3.20
   4  10  -5   -6.90    4.30
   4  10  -5    2.80    5.20
   4  10  -5    8.20    4.80
  -4 -10   5    2.90    5.80
  -4 -10   5   -3.50    4.60
   3  10  -5    3.30    4.10
   3  10  -5    7.50    3.70
   3  10  -5   -1.10    3.80
  -3 -10   5    0.10    5.00
  -3 -10   5    0.00    3.80
   2  10  -5   -2.10    3.60
   2  10  -5    3.20    3.50
   2  10  -5   -2.90    2.90
  -2 -10   5    3.70    4.20
  -2 -10   5   -2.90    3.90
   1  10  -5    8.60    2.80
   1  10  -5    4.20    2.70
   1  10  -5    0.20    3.00
  -1 -10   5    4.10    3.80
  -1 -10   5    2.00    4.00
   0  10  -5   -1.50    2.40
   0  10  -5    3.10    3.10
   0  10  -5    1.70    2.20
   0 -10   5   -2.70    3.50
   0 -10   5   -5.00    3.50
  -1  10  -5    6.30    2.60
  -1  10  -5    6.30    2.80
   1 -10   5   11.10    4.10
  -2  10  -5    1.50    4.50
  -2  10  -5    4.40    2.60
  -2  10  -5    8.30    3.20
   2 -10   5    5.20    5.50
  -3  10  -5    7.70    5.40
  -3  10  -5    4.20    2.80
   3 -10   5   -3.70    6.30
   4   9  -5    2.00    4.50
   4   9  -5    2.70    4.10
   4   9  -5   -8.00    3.50
  -4  -9   5    3.70    3.70
  -4  -9   5   -8.80    5.20
  -4  -9   5    6.50    2.80
   3   9  -5    7.40    3.90
   3   9  -5    8.30    3.70
   3   9  -5   10.60    3.30
  -3  -9   5    8.00    1.80
  -3  -9   5   10.90    4.20
  -3  -9   5    9.20    3.60
   2   9  -5    2.50    3.20
   2   9  -5    5.50    2.50
   2   9  -5   11.50    3.10
  -2  -9   5    5.60    3.60
  -2  -9   5    7.90    3.40
   1   9  -5    2.80    2.10
   1   9  -5   -2.10    2.20
   1   9  -5    0.70    2.40
  -1  -9   5    3.10    3.20
   0   9  -5    2.10    2.40
   0   9  -5   -1.00    1.60
   0   9  -5   -2.70    1.80
   0  -9   5   -3.60    4.40
   0  -9   5    0.00    3.10
  -1   9  -5   13.50    2.80
  -1   9  -5   13.70    1.90
  -1   9  -5   15.40    2.40
  -1   9  -5   10.70    2.10
   1  -9   5   11.30    3.50
   1  -9   5   15.60    4.40
  -2   9  -5    0.10    1.90
  -2   9  -5    4.60    1.80
  -2   9  -5    4.10    2.20
  -2   9  -5   -1.00    3.40
   2  -9   5    0.70    4.40
   2  -9   5    3.20    3.70
  -3   9  -5   -1.10    4.10
  -3   9  -5    8.20    2.80
  -3   9  -5    2.20    2.20
  -3   9  -5    0.90    2.20
   3  -9   5    6.90    5.20
  -4   9  -5   23.30    6.00
  -4   9  -5   26.50    4.50
   4  -9   5   36.00    7.30
   5   8  -5  -11.00    4.40
   5   8  -5   -7.70    3.90
   5   8  -5   -5.10    3.70
  -5  -8   5   -4.20    4.20
  -5  -8   5   -6.60    4.40
  -5  -8   5   -1.40    3.60
   4   8  -5   -1.20    3.30
   4   8  -5    1.10    3.90
   4   8  -5   -1.10    2.90
  -4  -8   5    0.60    3.70
  -4  -8   5   -5.60    3.10
  -4  -8   5    6.60    2.80
   3   8  -5    6.10    2.80
   3   8  -5    9.40    3.00
   3   8  -5    3.50    2.50
  -3  -8   5    3.80    2.90
  -3  -8   5    2.00    3.20
  -3  -8   5    4.70    1.90
   2   8  -5   -0.10    2.90
   2   8  -5   -5.00    2.20
   2   8  -5   -2.10    2.20
   2   8  -5    4.00    2.00
  -2  -8   5   -5.30    2.20
  -2  -8   5   -0.80    2.60
   1   8  -5    7.50    2.10
   1   8  -5    9.30    2.50
   1   8  -5    4.10    2.30
   1   8  -5    8.30    2.00
  -1  -8   5    4.40    2.80
  -1  -8   5    5.40    2.60
  -1  -8   5   -0.60    2.50
   0   8  -5   10.40    2.40
   0   8  -5   11.00    2.00
   0   8  -5   18.20    2.80
   0   8  -5   10.10    1.80
   0   8  -5   18.30    2.70
   0  -8   5   14.10    3.30
   0  -8   5    9.30    2.60
   0  -8   5   11.90    3.00
  -1   8  -5   23.80    2.70
  -1   8  -5   25.00    2.50
  -1   8  -5   20.10    3.20
  -1   8  -5   19.60    2.80
   1  -8   5   23.30    4.50
   1  -8   5   18.60    3.50
   1  -8   5   20.10    3.60
  -2   8  -5    2.40    1.60
  -2   8  -5   -1.10    1.40
  -2   8  -5    0.70    1.60
  -2   8  -5    2.20    1.70
  -2   8  -5    0.40    1.00
  -2   8  -5    3.10    2.90
   2  -8   5   -5.20    3.60
   2  -8   5    4.60    3.00
  -3   8  -5    3.20    1.50
  -3   8  -5    0.00    1.70
  -3   8  -5   -1.30    2.10
  -3   8  -5   10.10    3.90
  -3   8  -5    3.10    1.80
   3  -8   5    0.60    4.10
  -4   8  -5   18.70    3.90
  -4   8  -5   20.60    2.60
  -4   8  -5   16.20    5.20
  -4   8  -5   20.30    2.80
   4  -8   5   15.80    4.50
   4  -8   5   14.40    6.10
  -5   8  -5   26.30    7.10
   5  -8   5   15.50    7.70
   5  -8   5   29.90    5.00
   6   7  -5    2.70    4.60
   6   7  -5   -0.30    4.70
   6   7  -5    4.20    5.00
   6   7  -5   -2.90    4.60
  -6  -7   5   -7.80    4.50
  -6  -7   5    6.60    4.70
   5   7  -5   -4.00    3.90
   5   7  -5    2.40    3.60
   5   7  -5    5.40    3.50
  -5  -7   5    0.60    3.40
  -5  -7   5   -2.40    3.60
  -5  -7   5   -3.30    3.50
   4   7  -5   16.50    5.90
   4   7  -5   16.00    3.30
   4   7  -5   16.50    4.10
  -4  -7   5   17.80    4.00
  -4  -7   5   16.70    3.10
  -4  -7   5   23.20    3.70
   3   7  -5    8.70    2.70
   3   7  -5    4.10    2.20
   3   7  -5    3.10    2.60
  -3  -7   5    4.10    1.90
  -3  -7   5    4.90    3.20
  -3  -7   5    1.50    2.50
  -3  -7   5    3.60    2.50
   2   7  -5    6.10    2.50
   2   7  -5    5.30    1.80
   2   7  -5    6.20    2.20
  -2  -7   5    6.40    1.30
  -2  -7   5    3.10    2.10
  -2  -7   5    4.40    2.30
  -2  -7   5    5.10    1.90
  -2  -7   5    6.70    2.90
   1   7  -5   97.39    4.20
   1   7  -5  101.69    4.30
   1   7  -5   86.29    6.00
   1   7  -5   89.69    5.20
   1   7  -5  103.89    5.30
   1   7  -5   97.69    4.50
  -1  -7   5   97.29    5.20
  -1  -7   5   98.19    5.30
  -1  -7   5   97.19    4.70
  -1  -7   5   96.99    5.40
   0   7  -5    5.50    1.80
   0   7  -5    3.00    2.80
   0   7  -5    1.90    1.70
   0   7  -5    3.90    1.90
   0   7  -5    5.30    1.40
   0   7  -5    2.00    1.20
   0  -7   5    2.20    2.30
   0  -7   5    4.70    2.10
   0  -7   5    2.10    2.10
  -1   7  -5   14.00    1.70
  -1   7  -5   13.50    2.20
  -1   7  -5   16.20    2.00
  -1   7  -5   14.40    2.20
  -1   7  -5   17.00    2.50
   1  -7   5   16.70    3.50
   1  -7   5   17.50    3.10
   1  -7   5   17.70    3.00
  -2   7  -5   46.70    4.40
  -2   7  -5   48.90    2.00
  -2   7  -5   50.19    3.20
  -2   7  -5   42.70    2.90
  -2   7  -5   43.80    2.50
  -2   7  -5   41.40    2.30
   2  -7   5   45.20    5.90
   2  -7   5   47.80    4.70
  -3   7  -5   88.59    3.90
  -3   7  -5   90.49    3.60
  -3   7  -5   91.29    3.60
  -3   7  -5   93.79    4.20
  -3   7  -5   98.79    6.70
   3  -7   5  105.29    8.20
   3  -7   5   98.09    5.20
  -4   7  -5   30.50    3.00
  -4   7  -5   29.60    5.20
  -4   7  -5   23.40    3.10
  -4   7  -5   27.80    3.30
   4  -7   5   20.10    5.30
   4  -7   5   31.80    4.20
  -5   7  -5   24.80    3.20
  -5   7  -5   31.00    6.20
   5  -7   5   22.40    4.40
   5  -7   5   36.20    7.40
   6   6  -5   -4.30    4.10
   6   6  -5   -2.40    4.20
   6   6  -5   13.50    4.60
   6   6  -5   -2.90    4.20
  -6  -6   5    1.60    4.20
  -6  -6   5    4.60    4.20
  -6  -6   5    1.20    5.20
   5   6  -5   -0.60    3.00
   5   6  -5    4.50    3.20
   5   6  -5    8.00    4.40
  -5  -6   5   -1.80    3.00
  -5  -6   5    0.00    3.80
  -5  -6   5    1.30    3.10
  -5  -6   5    4.90    2.80
   4   6  -5    0.20    2.40
   4   6  -5    4.80    4.40
   4   6  -5    5.90    2.60
   4   6  -5    2.30    2.70
  -4  -6   5    4.10    2.40
  -4  -6   5    2.90    2.40
  -4  -6   5    6.40    1.80
  -4  -6   5    8.40    2.40
   3   6  -5   -0.10    2.10
   3   6  -5    3.80    3.80
   3   6  -5    8.20    2.70
   3   6  -5    3.70    1.80
  -3  -6   5    4.70    2.30
  -3  -6   5    7.00    3.20
  -3  -6   5    6.40    2.10
  -3  -6   5    7.00    1.80
  -3  -6   5    4.10    0.90
   2   6  -5   22.70    3.00
   2   6  -5   25.70    2.60
   2   6  -5   24.80    3.70
   2   6  -5   24.20    3.30
   2   6  -5   29.40    4.60
   2   6  -5   24.20    3.50
  -2  -6   5   23.50    3.30
  -2  -6   5   21.50    2.00
  -2  -6   5   27.20    3.10
  -2  -6   5   19.60    2.80
  -2  -6   5   23.40    3.30
   1   6  -5   23.70    2.40
   1   6  -5   25.90    2.20
   1   6  -5   25.40    3.20
   1   6  -5   23.80    2.40
   1   6  -5   22.20    2.90
   1   6  -5   30.80    3.80
   1   6  -5   32.00    3.70
   1   6  -5   15.60    3.80
  -1  -6   5   29.60    2.70
  -1  -6   5   27.20    1.30
  -1  -6   5   23.30    3.00
  -1  -6   5   25.60    3.00
  -1  -6   5   24.40    1.30
  -1  -6   5   25.00    3.00
   0   6  -5   34.90    2.90
   0   6  -5   33.00    2.40
   0   6  -5   37.70    2.60
   0   6  -5   34.60    2.20
   0   6  -5   31.90    4.10
   0   6  -5   32.00    2.20
   0  -6   5   35.10    3.60
   0  -6   5   32.20    3.10
   0  -6   5   44.40    3.60
  -1   6  -5    4.20    1.20
  -1   6  -5    4.40    1.40
  -1   6  -5    4.80    1.60
  -1   6  -5    5.20    1.00
  -1   6  -5    5.50    1.20
  -1   6  -5    6.70    1.00
   1  -6   5    4.30    1.80
   1  -6   5    9.90    3.00
  -2   6  -5   17.00    1.40
  -2   6  -5   15.90    2.00
  -2   6  -5   21.20    2.70
  -2   6  -5   14.40    1.90
   2  -6   5   17.10    2.90
   2  -6   5   17.80    2.30
   2  -6   5   23.60    4.20
  -3   6  -5   42.50    2.70
  -3   6  -5   43.60    2.80
  -3   6  -5   47.20    2.90
  -3   6  -5   45.60    2.50
  -3   6  -5   45.30    2.90
  -3   6  -5   44.70    4.90
  -3   6  -5   51.79    5.30
   3  -6   5   55.89    6.10
   3  -6   5   48.50    3.60
  -4   6  -5   35.60    3.70
  -4   6  -5   37.60    3.60
  -4   6  -5   47.60    5.90
  -4   6  -5   34.20    3.50
  -4   6  -5   36.70    2.90
   4  -6   5   42.80   10.90
   4  -6   5   42.30    4.10
  -5   6  -5    8.20    4.80
  -5   6  -5    8.40    3.50
  -5   6  -5    5.70    2.00
   5  -6   5   16.00    6.20
   5  -6   5    2.30    3.10
  -6   6  -5   11.70    6.50
   6  -6   5    2.20    6.30
   6  -6   5   -2.00    4.00
   6   5  -5   -1.60    3.60
   6   5  -5   -0.80    3.50
   6   5  -5   -2.60    3.80
  -6  -5   5   -6.20    3.90
  -6  -5   5   -5.90    3.60
  -6  -5   5    1.20    4.60
   5   5  -5    4.50    2.70
   5   5  -5   -0.40    2.70
   5   5  -5    3.60    3.00
  -5  -5   5    6.80    5.60
  -5  -5   5    6.00    2.20
  -5  -5   5    5.80    3.20
   4   5  -5   24.40    4.00
   4   5  -5   23.40    3.30
   4   5  -5   26.10    3.50
   4   5  -5   19.30    3.40
  -4  -5   5   23.80    2.60
  -4  -5   5   21.80    3.80
  -4  -5   5   25.60    3.80
  -4  -5   5   31.10    3.20
  -4  -5   5   25.70    3.40
   3   5  -5   50.69    4.00
   3   5  -5   52.79    3.80
   3   5  -5   48.10    4.90
   3   5  -5   51.69    3.50
  -3  -5   5   49.20    4.80
  -3  -5   5   49.60    3.40
  -3  -5   5   53.79    3.50
  -3  -5   5   53.49    4.20
  -3  -5   5   50.69    2.40
  -3  -5   5   51.59    4.00
   2   5  -5  484.55   14.00
   2   5  -5  497.55   14.40
   2   5  -5  501.45   14.40
   2   5  -5  494.25   13.50
   2   5  -5  488.95   13.10
   2   5  -5  502.95   14.10
  -2  -5   5  494.05   13.30
  -2  -5   5  512.95   13.40
  -2  -5   5  481.95   14.00
  -2  -5   5  499.45   13.50
  -2  -5   5  491.75   12.70
   1   5  -5   -1.10    1.50
   1   5  -5    4.10    1.60
   1   5  -5   -0.90    2.20
   1   5  -5    0.10    1.70
   1   5  -5    2.00    0.90
   1   5  -5    0.10    1.30
   1   5  -5    1.90    1.10
  -1  -5   5    1.50    1.30
  -1  -5   5    2.60    1.50
  -1  -5   5    1.70    1.40
  -1  -5   5    3.10    1.30
  -1  -5   5    2.20    0.80
  -1  -5   5    2.90    1.10
   0   5  -5    2.30    1.10
   0   5  -5    2.50    1.10
   0   5  -5    1.30    1.80
   0   5  -5   -1.20    2.30
   0   5  -5    3.60    1.00
   0   5  -5    2.40    1.70
   0  -5   5    4.30    1.70
   0  -5   5    2.40    1.40
   0  -5   5    1.90    0.90
   0  -5   5    3.60    1.40
  -1   5  -5    4.70    1.10
  -1   5  -5    4.80    1.30
  -1   5  -5    8.50    1.50
  -1   5  -5    6.00    2.20
  -1   5  -5    3.40    2.80
  -1   5  -5    4.60    0.90
  -1   5  -5    7.20    1.00
  -1   5  -5    5.00    1.10
  -1   5  -5   12.20    2.30
   1  -5   5    7.00    2.20
   1  -5   5    6.00    1.80
  -2   5  -5   67.59    2.40
  -2   5  -5   64.09    2.50
  -2   5  -5   63.79    4.80
  -2   5  -5   68.29    3.60
  -2   5  -5   62.69    5.10
  -2   5  -5   61.79    3.10
   2  -5   5   65.89    3.30
   2  -5   5   63.59    4.20
   2  -5   5   65.79    5.10
  -3   5  -5  179.38    6.80
  -3   5  -5  180.28    8.00
  -3   5  -5  179.58    5.70
  -3   5  -5  165.58    6.60
  -3   5  -5  180.88    5.50
  -3   5  -5  172.58    5.20
   3  -5   5  172.58    8.40
   3  -5   5  183.48    6.50
  -4   5  -5   28.30    3.00
  -4   5  -5   34.10    4.70
  -4   5  -5   26.60    2.40
  -4   5  -5   28.70    3.20
  -4   5  -5   31.40    3.60
   4  -5   5   31.10    5.30
   4  -5   5   28.30    3.60
  -5   5  -5    0.90    4.10
  -5   5  -5    1.70    2.90
  -5   5  -5    1.90    1.70
   5  -5   5   -3.90    2.60
   5  -5   5    2.50    4.60
  -6   5  -5    5.20    5.90
  -6   5  -5    3.10    4.50
   6  -5   5   14.40    6.30
   6  -5   5   10.70    4.20
   7   4  -5    9.90    5.10
   7   4  -5   -2.60    4.80
   7   4  -5    9.00    4.50
  -7  -4   5   -4.50    6.30
  -7  -4   5    0.50    5.20
   6   4  -5    2.60    3.20
   6   4  -5    2.60    3.70
   6   4  -5    6.20    2.90
  -6  -4   5    0.60    4.50
  -6  -4   5    1.40    3.80
   5   4  -5    1.70    2.60
   5   4  -5    1.00    2.60
   5   4  -5   -1.10    2.30
   5   4  -5    4.70    3.20
   5   4  -5    0.30    2.30
  -5  -4   5    2.40    1.70
  -5  -4   5    4.00    3.50
  -5  -4   5    8.30    3.50
  -5  -4   5   -1.90    2.40
   4   4  -5    5.30    2.60
   4   4  -5    0.60    1.90
   4   4  -5    2.40    1.90
   4   4  -5    0.90    1.90
  -4  -4   5   -0.30    2.00
  -4  -4   5    0.70    2.10
  -4  -4   5    1.40    2.30
  -4  -4   5    2.50    1.40
  -4  -4   5   -1.10    1.90
   3   4  -5  154.98    6.30
   3   4  -5  155.38    7.10
   3   4  -5  165.28    6.40
   3   4  -5  165.68    6.10
   3   4  -5  167.98    6.60
  -3  -4   5  176.68    7.10
  -3  -4   5  163.18    5.20
  -3  -4   5  163.18    6.60
  -3  -4   5  171.58    5.70
  -3  -4   5  172.98    6.50
  -3  -4   5  169.88    6.10
  -3  -4   5  177.58    7.20
   2   4  -5  284.57    8.30
   2   4  -5  294.57    9.40
   2   4  -5  308.17    9.30
   2   4  -5  286.87    9.00
   2   4  -5  286.87    9.20
   2   4  -5  285.87    8.60
  -2  -4   5  301.27    8.20
  -2  -4   5  277.67    6.80
  -2  -4   5  277.17    6.80
  -2  -4   5  287.77    7.60
  -2  -4   5  287.77    8.40
  -2  -4   5  274.77    8.90
  -2  -4   5  296.47    8.80
  -2  -4   5  278.47    8.30
   1   4  -5    0.90    1.10
   1   4  -5   -1.00    1.40
   1   4  -5    0.60    1.20
   1   4  -5    0.70    1.30
   1   4  -5   -0.20    1.20
   1   4  -5    1.70    2.00
   1   4  -5    0.40    0.80
   1   4  -5   -0.20    0.70
  -1  -4   5   -1.30    1.00
  -1  -4   5    0.10    0.90
  -1  -4   5    0.90    1.00
  -1  -4   5    1.30    0.70
  -1  -4   5    0.10    1.20
  -1  -4   5    1.50    1.10
   0   4  -5    2.20    1.00
   0   4  -5    2.10    0.60
   0   4  -5    1.90    1.00
   0   4  -5    2.60    1.40
   0   4  -5    0.30    1.80
   0   4  -5    3.00    0.80
   0   4  -5    3.00    1.50
   0  -4   5    2.60    0.50
   0  -4   5    1.90    0.70
   0  -4   5    1.70    1.00
   0  -4   5    2.50    0.60
   0  -4   5    2.90    1.50
   0  -4   5    2.20    1.10
  -1   4  -5   55.59    2.50
  -1   4  -5   49.40    3.30
  -1   4  -5   54.29    1.80
  -1   4  -5   57.49    4.00
  -1   4  -5   50.19    2.70
  -1   4  -5   54.39    2.30
  -1   4  -5   51.29    2.00
  -1   4  -5   55.29    3.80
   1  -4   5   51.49    3.70
   1  -4   5   49.20    3.10
  -2   4  -5    8.30    1.00
  -2   4  -5    7.80    1.50
  -2   4  -5    8.40    1.10
  -2   4  -5    8.30    1.00
  -2   4  -5    8.50    2.30
  -2   4  -5    7.90    1.40
  -2   4  -5    9.20    1.80
  -2   4  -5   11.30    2.90
  -2   4  -5   10.00    2.20
  -2   4  -5    8.70    1.30
   2  -4   5    7.40    2.20
   2  -4   5    7.80    1.40
   2  -4   5    9.80    2.00
  -3   4  -5   49.10    4.30
  -3   4  -5   48.90    2.80
  -3   4  -5   49.30    2.30
  -3   4  -5   47.90    2.60
  -3   4  -5   42.90    3.90
  -3   4  -5   46.60    4.80
  -3   4  -5   44.00    2.50
   3  -4   5   46.70    4.80
   3  -4   5   45.20    3.10
  -4   4  -5   47.90    3.20
  -4   4  -5   44.20    5.00
  -4   4  -5   49.99    3.80
  -4   4  -5   53.29    5.70
  -4   4  -5   48.00    2.80
  -4   4  -5   49.60    3.60
   4  -4   5   49.10    3.90
   4  -4   5   42.80    5.40
  -5   4  -5   -1.20    2.50
  -5   4  -5    4.00    2.80
  -5   4  -5   -0.10    1.50
  -5   4  -5   -0.80    3.50
   5  -4   5    3.80    2.70
   5  -4   5    2.30    4.10
  -6   4  -5   20.40    4.60
  -6   4  -5   17.80    5.50
   6  -4   5   12.50    6.30
   6  -4   5   20.80    4.40
  -7   4  -5   13.90    7.40
  -7   4  -5   -0.80    6.20
   7  -4   5    0.90    5.00
   7  -4   5    7.50    6.80
   7   3  -5    6.20    4.30
   7   3  -5    5.80    4.80
  -7  -3   5  -11.10    5.70
  -7  -3   5    0.90    5.00
   6   3  -5   -0.80    3.10
   6   3  -5   -6.00    2.70
   6   3  -5   -0.20    2.40
  -6  -3   5   -0.40    4.00
  -6  -3   5   -4.20    3.60
   5   3  -5    6.80    2.40
   5   3  -5    3.10    2.10
   5   3  -5    1.50    2.60
   5   3  -5    3.50    2.40
  -5  -3   5    5.40    4.20
  -5  -3   5    5.30    3.10
  -5  -3   5    4.50    2.70
  -5  -3   5    4.50    1.30
   4   3  -5   18.00    2.70
   4   3  -5   24.40    3.00
   4   3  -5   16.80    2.30
   4   3  -5   22.40    2.70
  -4  -3   5   23.00    3.10
  -4  -3   5   21.80    3.30
   3   3  -5   14.50    2.10
   3   3  -5   12.80    1.90
   3   3  -5   13.70    2.20
   3   3  -5   21.00    3.30
  -3  -3   5   18.40    2.60
  -3  -3   5   12.90    1.90
  -3  -3   5   13.80    2.40
  -3  -3   5   11.40    2.60
  -3  -3   5   12.70    2.30
  -3  -3   5   14.00    1.70
   2   3  -5   29.40    3.20
   2   3  -5   36.40    2.40
   2   3  -5   30.90    2.20
   2   3  -5   31.80    2.40
   2   3  -5   36.20    3.10
  -2  -3   5   33.20    2.60
  -2  -3   5   30.10    1.70
  -2  -3   5   31.90    2.40
  -2  -3   5   33.60    2.20
  -2  -3   5   32.30    1.50
   1   3  -5   10.70    1.90
   1   3  -5    7.40    1.10
   1   3  -5   15.20    1.80
   1   3  -5   11.00    1.50
   1   3  -5   11.40    1.80
   1   3  -5   10.60    1.50
  -1  -3   5   14.30    1.90
  -1  -3   5   10.90    1.30
  -1  -3   5   12.20    1.70
  -1  -3   5    9.30    1.40
  -1  -3   5    8.80    1.20
   0   3  -5  316.67    7.60
   0   3  -5  313.77    9.00
   0   3  -5  322.17    9.10
   0   3  -5  334.57    8.30
   0   3  -5  320.17    7.70
   0  -3   5  315.07    8.00
   0  -3   5  320.87    7.70
   0  -3   5  317.97    9.20
   0  -3   5  316.77    7.90
   0  -3   5  318.07    9.10
  -1   3  -5   22.10    1.70
  -1   3  -5   22.50    1.50
  -1   3  -5   20.90    2.30
  -1   3  -5   18.60    2.50
  -1   3  -5   20.90    1.30
  -1   3  -5   22.70    1.50
  -1   3  -5   28.00    2.30
  -1   3  -5   22.60    1.50
   1  -3   5   21.90    2.10
   1  -3   5   23.80    1.40
   1  -3   5   22.70    2.50
   1  -3   5   24.10    2.20
  -2   3  -5   56.09    3.70
  -2   3  -5   55.49    3.00
  -2   3  -5   56.19    2.60
  -2   3  -5   53.79    2.50
  -2   3  -5   59.59    3.40
  -2   3  -5   58.09    1.80
  -2   3  -5   59.09    3.90
   2  -3   5   56.49    3.90
   2  -3   5   60.79    3.10
   2  -3   5   57.89    2.70
  -3   3  -5   11.70    1.60
  -3   3  -5   10.50    2.50
  -3   3  -5   15.90    1.90
  -3   3  -5   14.10    1.50
  -3   3  -5   10.70    2.30
  -3   3  -5   15.30    1.90
  -3   3  -5   11.10    2.70
  -3   3  -5   12.90    2.40
  -3   3  -5   10.10    2.70
   3  -3   5   13.60    1.90
   3  -3   5   13.10    2.00
   3  -3   5   10.60    2.50
  -4   3  -5   32.50    3.30
  -4   3  -5   38.30    4.50
  -4   3  -5   29.60    2.60
  -4   3  -5   26.60    2.90
  -4   3  -5   29.00    4.30
  -4   3  -5   26.60    2.20
   4  -3   5   31.80    3.10
   4  -3   5   26.00    4.30
   4  -3   5   28.40    2.80
  -5   3  -5    3.60    3.60
  -5   3  -5    3.10    2.50
  -5   3  -5    4.90    3.60
  -5   3  -5    1.20    2.50
  -5   3  -5    0.20    1.50
   5  -3   5    5.20    2.30
   5  -3   5    2.30    3.80
  -6   3  -5   12.40    5.10
  -6   3  -5   10.50    4.00
   6  -3   5    5.60    4.60
   6  -3   5   10.00    3.60
  -7   3  -5   -0.70    6.90
  -7   3  -5    8.90    6.10
   7  -3   5    5.70    4.70
   7  -3   5    6.10    6.50
   7   2  -5    5.90    4.50
   7   2  -5    3.90    3.70
  -7  -2   5   12.70    5.00
  -7  -2   5   10.00    5.80
   6   2  -5    0.60    2.90
   6   2  -5    1.10    1.80
   6   2  -5   -0.90    2.80
  -6  -2   5    4.80    4.00
  -6  -2   5    0.00    3.30
   5   2  -5   26.80    3.40
   5   2  -5   25.10    3.20
   5   2  -5   23.50    2.80
  -5  -2   5   21.40    3.90
  -5  -2   5   30.70    3.90
   4   2  -5    5.10    1.50
   4   2  -5    6.10    1.80
   4   2  -5    4.90    1.70
  -4  -2   5    5.60    0.80
  -4  -2   5    3.90    2.20
  -4  -2   5    3.00    1.80
   3   2  -5    4.40    1.20
   3   2  -5    4.10    2.20
   3   2  -5    7.10    1.40
   3   2  -5    3.10    2.20
   3   2  -5    3.20    1.20
  -3  -2   5    5.10    1.40
  -3  -2   5    4.70    0.80
  -3  -2   5    4.30    1.80
  -3  -2   5    3.90    1.70
  -3  -2   5    5.60    2.10
   2   2  -5    0.00    0.80
   2   2  -5    0.30    0.80
   2   2  -5    1.50    1.40
   2   2  -5    2.90    1.50
   2   2  -5    0.50    0.70
   2   2  -5   -1.50    0.80
  -2  -2   5   -2.30    1.00
  -2  -2   5    0.70    1.30
  -2  -2   5    0.20    0.90
  -2  -2   5    0.50    0.60
  -2  -2   5    1.60    1.00
  -2  -2   5    1.60    1.10
  -2  -2   5    1.30    0.70
   1   2  -5  204.08    6.60
   1   2  -5  191.78    5.80
   1   2  -5  213.18    5.90
   1   2  -5  203.18    5.80
   1   2  -5  203.68    6.10
   1   2  -5  217.78    6.20
  -1  -2   5  209.58    6.50
  -1  -2   5  199.58    6.00
  -1  -2   5  204.68    5.80
  -1  -2   5  206.18    5.60
  -1  -2   5  198.18    4.90
  -1  -2   5  196.38    6.20
   0   2  -5  399.36   10.30
   0   2  -5  382.76    9.00
   0   2  -5  389.76    9.70
   0   2  -5  389.16   10.30
   0  -2   5  394.36    9.70
   0  -2   5  388.26    9.10
   0  -2   5  379.86   10.30
   0  -2   5  385.96    9.20
   0  -2   5  375.06    9.60
   0  -2   5  416.96   10.50
  -1   2  -5  198.28    6.00
  -1   2  -5  176.58    5.50
  -1   2  -5  193.68    6.00
  -1   2  -5  190.08    5.10
  -1   2  -5  189.08    5.40
   1  -2   5  185.18    5.00
   1  -2   5  186.68    6.00
   1  -2   5  184.18    4.80
   1  -2   5  189.68    4.90
   1  -2   5  182.58    6.30
   1  -2   5  192.18    5.80
  -2   2  -5   -2.00    0.90
  -2   2  -5    1.80    1.30
  -2   2  -5    1.70    0.90
  -2   2  -5    0.40    1.40
  -2   2  -5    0.40    0.60
  -2   2  -5    0.60    0.40
   2  -2   5    0.00    1.30
   2  -2   5    0.20    0.60
   2  -2   5   -0.10    0.70
   2  -2   5    0.50    0.90
   2  -2   5   -0.20    0.40
  -3   2  -5  130.89    5.30
  -3   2  -5  118.79    5.80
  -3   2  -5  128.09    4.60
  -3   2  -5  127.99    4.20
  -3   2  -5  122.49    5.40
  -3   2  -5  120.49    4.60
  -3   2  -5  124.99    5.40
  -3   2  -5  124.99    3.90
   3  -2   5  121.79    3.40
   3  -2   5  122.99    5.90
   3  -2   5  125.79    4.30
   3  -2   5  116.29    4.60
   3  -2   5  119.49    3.60
  -4   2  -5    6.00    2.10
  -4   2  -5    8.40    1.70
  -4   2  -5   13.90    2.50
  -4   2  -5   10.80    2.80
  -4   2  -5   12.30    2.70
  -4   2  -5    6.60    2.60
  -4   2  -5    9.80    1.60
   4  -2   5    2.80    2.50
   4  -2   5    8.20    1.00
   4  -2   5    8.00    1.50
   4  -2   5    7.20    2.00
  -5   2  -5    8.00    2.70
  -5   2  -5    4.00    2.50
  -5   2  -5    9.90    3.10
  -5   2  -5   11.40    3.50
   5  -2   5    9.20    3.60
   5  -2   5    7.10    1.30
   5  -2   5    7.70    1.20
   5  -2   5    5.70    2.30
   5  -2   5    5.80    1.70
  -6   2  -5   27.00    4.70
  -6   2  -5   26.90    5.80
   6  -2   5   21.60    5.10
   6  -2   5   35.10    4.90
   6  -2   5   22.50    2.10
  -7   2  -5   -3.90    5.30
  -7   2  -5    4.00    6.30
   7  -2   5   -2.30    4.30
   7  -2   5   -4.70    5.60
   7   1  -5    0.60    4.10
   7   1  -5   -0.20    3.70
  -7  -1   5    0.50    4.80
  -7  -1   5   -0.60    5.00
   6   1  -5    8.20    1.70
   6   1  -5    8.80    3.00
   6   1  -5    8.10    3.20
   6   1  -5   16.50    2.90
  -6  -1   5   10.10    3.50
  -6  -1   5    7.10    3.70
   5   1  -5    7.30    2.20
   5   1  -5   13.10    1.70
   5   1  -5   12.60    2.60
  -5  -1   5    9.90    3.10
  -5  -1   5   11.30    2.90
   4   1  -5   18.30    2.30
   4   1  -5   16.00    1.80
   4   1  -5   25.60    4.10
   4   1  -5   16.50    2.30
  -4  -1   5   13.40    2.60
  -4  -1   5   13.50    2.30
   3   1  -5    3.50    1.10
   3   1  -5    0.30    1.00
   3   1  -5    1.00    1.90
   3   1  -5   -0.70    1.90
   3   1  -5    2.00    0.90
  -3  -1   5    0.60    0.70
  -3  -1   5    0.30    1.20
  -3  -1   5    4.50    1.50
  -3  -1   5   -1.50    1.40
   2   1  -5  399.46   10.70
   2   1  -5  398.36   10.40
   2   1  -5  424.96   11.20
   2   1  -5  428.06   11.60
   2   1  -5  383.56   10.40
  -2  -1   5  400.76   10.70
  -2  -1   5  410.86   11.00
  -2  -1   5  403.36   11.40
  -2  -1   5  420.46   10.70
  -2  -1   5  397.56   10.80
   1   1  -5  174.58    4.80
   1   1  -5  178.88    5.40
   1   1  -5  176.28    5.20
   1   1  -5  173.48    4.30
   1   1  -5  177.08    5.80
  -1  -1   5  176.28    5.30
  -1  -1   5  170.78    5.30
  -1  -1   5  180.08    5.40
  -1  -1   5  173.98    4.60
  -1  -1   5  179.98    5.00
  -1  -1   5  172.88    5.10
   0   1  -5  189.68    5.90
   0   1  -5  204.78    5.20
   0  -1   5  201.58    5.90
   0  -1   5  210.98    5.90
   0  -1   5  204.58    5.00
   0  -1   5  203.68    5.20
   0  -1   5  213.08    5.60
  -1   1  -5    1.80    0.60
  -1   1  -5    0.10    0.70
  -1   1  -5    1.50    0.60
  -1   1  -5    1.00    0.60
   1  -1   5    2.10    0.70
   1  -1   5    0.90    0.70
   1  -1   5    1.40    0.60
   1  -1   5    1.30    0.50
   1  -1   5   -0.30    0.70
   1  -1   5    1.10    0.50
  -2   1  -5   43.30    2.50
  -2   1  -5   38.10    2.20
  -2   1  -5   38.50    2.10
  -2   1  -5   41.30    2.10
  -2   1  -5   45.70    2.70
  -2   1  -5   40.80    1.50
   2  -1   5   41.00    2.10
   2  -1   5   41.10    1.80
   2  -1   5   42.50    2.00
  -3   1  -5    7.80    1.60
  -3   1  -5   11.90    2.00
  -3   1  -5   12.70    2.40
  -3   1  -5    9.70    2.10
  -3   1  -5   10.70    2.10
  -3   1  -5   12.10    1.50
  -3   1  -5   11.00    2.00
  -3   1  -5   10.40    1.30
   3  -1   5   11.40    1.70
   3  -1   5   11.50    1.60
   3  -1   5    8.60    2.10
   3  -1   5    9.80    1.30
   3  -1   5   13.30    1.30
  -4   1  -5   14.30    1.90
  -4   1  -5   11.20    1.70
  -4   1  -5   10.80    2.20
  -4   1  -5   12.60    2.40
  -4   1  -5   17.60    2.70
  -4   1  -5    7.00    2.60
  -4   1  -5    6.60    2.50
   4  -1   5   13.20    2.20
   4  -1   5   11.50    1.80
   4  -1   5   10.90    1.60
   4  -1   5   13.40    1.60
   4  -1   5   11.90    2.80
  -5   1  -5    5.20    2.20
  -5   1  -5    4.50    2.30
  -5   1  -5    0.00    2.30
  -5   1  -5    7.80    3.40
   5  -1   5    3.20    1.70
   5  -1   5    1.10    2.10
   5  -1   5    2.60    1.30
   5  -1   5    2.70    2.80
   5  -1   5   -0.10    1.60
  -6   1  -5    4.30    3.40
  -6   1  -5   -5.60    4.30
   6  -1   5   -3.10    3.80
   6  -1   5   -4.90    1.80
  -7   1  -5    9.30    5.40
  -7   1  -5   16.30    6.50
   7  -1   5   13.60    4.60
   7  -1   5   13.40    3.00
   7  -1   5   11.30    5.60
   7   0  -5    7.20    3.60
   7   0  -5    6.80    4.30
  -7   0   5   -9.90    5.10
  -7   0   5    8.50    4.60
   6   0  -5    5.30    1.50
   6   0  -5    3.80    3.00
   6   0  -5    8.40    2.70
   6   0  -5    8.50    3.00
  -6   0   5    0.60    3.50
  -6   0   5    1.80    3.20
   5   0  -5    6.50    2.30
   5   0  -5    8.80    2.20
   5   0  -5    9.70    1.30
  -5   0   5    7.80    2.50
  -5   0   5    5.70    2.80
   4   0  -5   36.50    4.60
   4   0  -5   28.30    2.50
   4   0  -5   30.50    1.80
   4   0  -5   28.10    2.60
  -4   0   5   27.20    3.00
  -4   0   5   26.80    2.30
  -4   0   5   29.80    3.40
   3   0  -5   65.79    4.00
   3   0  -5   65.49    4.40
   3   0  -5   67.29    3.10
   3   0  -5   66.89    2.60
   3   0  -5   65.29    3.20
  -3   0   5   66.49    3.40
  -3   0   5   67.89    2.90
  -3   0   5   68.29    3.60
  -3   0   5   66.29    3.80
  -3   0   5   66.89    3.80
   2   0  -5  100.79    4.10
   2   0  -5   87.39    3.50
   2   0  -5  100.29    3.30
   2   0  -5  102.19    4.30
   2   0  -5   95.89    3.60
  -2   0   5   96.59    3.60
  -2   0   5   99.39    3.90
  -2   0   5   94.99    3.70
  -2   0   5   97.39    3.70
  -2   0   5   95.79    4.10
  -2   0   5  102.79    3.70
   1   0  -5   11.20    1.10
   1   0  -5   11.70    1.60
   1   0  -5   10.70    0.80
   1   0  -5   13.00    1.10
   1   0  -5   12.00    1.30
  -1   0   5   11.10    1.30
  -1   0   5   12.00    0.80
  -1   0   5   10.50    1.10
  -1   0   5   11.40    1.00
  -1   0   5   11.50    1.20
   0   0  -5  182.18    5.10
   0   0  -5  185.68    4.80
   0   0  -5  166.18    5.10
   0   0  -5  184.18    5.00
   0   0   5  185.98    5.00
   0   0   5  184.38    5.10
   0   0   5  179.18    5.20
   0   0   5  181.68    4.30
   0   0   5  176.88    5.10
   0   0   5  176.28    4.80
  -1   0  -5  963.00   22.00
  -1   0  -5  968.70   21.90
  -1   0  -5  881.01   22.30
  -1   0  -5  942.51   21.70
  -1   0  -5  926.91   21.90
   1   0   5  968.30   21.60
   1   0   5  904.71   21.90
   1   0   5  981.90   21.80
   1   0   5  911.91   21.00
   1   0   5  939.71   22.30
  -2   0  -5   71.49    3.20
  -2   0  -5   66.69    2.30
  -2   0  -5   66.99    3.00
  -2   0  -5   64.79    2.90
  -2   0  -5   64.99    2.80
  -2   0  -5   65.19    2.90
   2   0   5   67.39    2.60
   2   0   5   64.19    2.80
   2   0   5   64.79    2.90
   2   0   5   63.29    2.20
  -3   0  -5   19.40    2.20
  -3   0  -5   19.20    2.80
  -3   0  -5   19.80    1.90
  -3   0  -5   19.90    2.50
  -3   0  -5   16.90    2.20
  -3   0  -5   16.30    1.70
   3   0   5   18.40    1.80
   3   0   5   17.50    1.60
   3   0   5   17.60    1.60
   3   0   5   18.00    2.00
   3   0   5   16.10    1.80
  -4   0  -5  243.98    7.30
  -4   0  -5  232.28    8.30
  -4   0  -5  227.78    7.50
  -4   0  -5  237.08    8.40
  -4   0  -5  233.18    8.10
  -4   0  -5  226.78    9.00
   4   0   5  244.88    7.30
   4   0   5  244.38    7.30
   4   0   5  245.18    6.80
   4   0   5  240.48    7.90
   4   0   5  243.28    7.60
   4   0   5  240.78    8.70
  -5   0  -5   71.89    4.60
  -5   0  -5   69.49    5.20
  -5   0  -5   64.69    3.60
  -5   0  -5   77.39    6.10
   5   0   5   67.69    3.30
   5   0   5   71.39    5.40
   5   0   5   73.19    4.70
   5   0   5   72.09    4.20
   5   0   5   65.99    4.20
  -6   0  -5    0.00    4.80
  -6   0  -5    4.50    3.50
   6   0   5    0.10    3.20
   6   0   5    2.30    3.70
   6   0   5   -1.90    2.30
   6   0   5    7.70    3.70
  -7   0  -5    3.70    4.90
  -7   0  -5    6.40    6.00
   7   0   5   -2.40    2.90
   7   0   5   -0.70    3.60
   7  -1  -5    4.60    3.40
   7  -1  -5   -3.90    3.90
  -7   1   5    2.40    4.40
  -7   1   5   -0.30    4.80
   6  -1  -5   -2.50    3.10
   6  -1  -5    3.20    2.40
   6  -1  -5   -4.90    2.90
  -6   1   5    0.40    3.60
  -6   1   5    4.70    3.30
   5  -1  -5    9.80    2.50
   5  -1  -5    7.30    1.30
   5  -1  -5    2.70    1.80
   5  -1  -5    7.00    2.40
  -5   1   5   11.20    2.80
  -5   1   5    8.10    2.50
  -5   1   5    4.60    2.60
   4  -1  -5   38.30    2.70
   4  -1  -5   41.90    4.60
   4  -1  -5   36.30    4.70
   4  -1  -5   37.50    3.00
  -4   1   5   40.20    3.60
  -4   1   5   35.40    3.20
  -4   1   5   34.50    3.10
   3  -1  -5    3.00    1.90
   3  -1  -5    1.40    1.00
   3  -1  -5    1.20    1.00
  -3   1   5    0.30    1.30
  -3   1   5    2.40    1.50
  -3   1   5    2.40    1.30
  -3   1   5    0.70    1.70
   2  -1  -5  115.89    4.30
   2  -1  -5  103.99    3.70
   2  -1  -5  107.09    3.70
   2  -1  -5  115.69    4.50
  -2   1   5  107.49    4.00
  -2   1   5  103.69    4.30
  -2   1   5  108.69    4.00
  -2   1   5  116.59    4.10
  -2   1   5  110.89    3.60
  -2   1   5  103.19    4.10
   1  -1  -5   18.60    1.10
   1  -1  -5   15.90    1.50
   1  -1  -5   18.50    1.30
   1  -1  -5   18.40    1.50
  -1   1   5   17.50    1.30
  -1   1   5   18.50    1.20
  -1   1   5   17.20    1.10
  -1   1   5   18.20    1.10
  -1   1   5   20.20    1.50
   0  -1  -5  163.18    4.80
   0  -1  -5  168.98    4.80
   0  -1  -5  168.48    4.40
   0  -1  -5  173.18    4.80
   0   1   5  169.68    4.80
   0   1   5  165.48    4.90
   0   1   5  166.68    4.50
   0   1   5  166.98    4.30
  -1  -1  -5  486.05   12.20
  -1  -1  -5  495.95   12.00
  -1  -1  -5  483.85   12.20
   1   1   5  478.65   11.60
   1   1   5  507.45   12.10
   1   1   5  491.55   12.20
  -2  -1  -5   20.20    1.60
  -2  -1  -5   18.20    1.80
  -2  -1  -5   18.40    1.70
  -2  -1  -5   19.30    1.40
  -2  -1  -5   18.90    1.80
  -2  -1  -5   21.20    1.90
   2   1   5   19.50    1.90
   2   1   5   16.40    1.70
   2   1   5   21.20    1.60
   2   1   5   20.60    1.60
  -3  -1  -5  118.49    5.30
  -3  -1  -5  123.29    4.20
  -3  -1  -5  114.49    4.90
  -3  -1  -5  123.89    4.90
  -3  -1  -5  118.39    4.80
  -3  -1  -5  112.39    4.50
   3   1   5  120.59    4.20
   3   1   5  123.29    4.50
   3   1   5  121.19    4.10
   3   1   5  119.09    4.70
  -4  -1  -5  154.28    5.50
  -4  -1  -5  150.18    6.40
  -4  -1  -5  144.29    6.60
  -4  -1  -5  149.59    6.40
  -4  -1  -5  151.78    4.90
   4   1   5  145.79    6.00
   4   1   5  163.38    5.20
   4   1   5  155.78    5.40
   4   1   5  157.68    5.80
  -5  -1  -5  139.29    6.10
  -5  -1  -5  137.79    7.70
  -5  -1  -5  129.79    3.90
  -5  -1  -5  128.09    6.80
   5   1   5  119.09    6.60
   5   1   5  137.79    6.10
   5   1   5  128.19    5.50
   5   1   5  132.59    6.20
   5   1   5  129.49    6.10
   5   1   5  135.19    5.00
  -6  -1  -5    1.60    3.10
   6   1   5   -5.90    3.00
   6   1   5    2.20    2.20
   6   1   5   -0.90    3.30
   6   1   5    5.70    2.70
  -7  -1  -5    2.10    4.70
  -7  -1  -5    5.90    5.60
   7   1   5    8.90    3.90
   7   1   5   11.40    4.40
   7   1   5   -1.60    4.80
   7  -2  -5    5.50    4.20
  -7   2   5   -0.70    4.30
  -7   2   5   13.40    5.40
   6  -2  -5    1.80    3.30
   6  -2  -5    0.00    2.20
   6  -2  -5    8.20    3.20
  -6   2   5    0.30    3.60
   5  -2  -5   58.39    4.30
   5  -2  -5   43.60    3.20
   5  -2  -5   50.49    4.40
   5  -2  -5   45.40    5.80
  -5   2   5   46.10    4.20
  -5   2   5   46.90    4.70
  -5   2   5   41.50    4.80
   4  -2  -5    0.90    0.80
   4  -2  -5   -2.60    2.50
   4  -2  -5    1.80    1.20
   4  -2  -5    5.20    3.00
   4  -2  -5    0.40    1.50
  -4   2   5    1.20    2.20
  -4   2   5    1.70    1.70
  -4   2   5   -0.10    1.50
   3  -2  -5    0.40    0.90
   3  -2  -5    1.00    0.90
   3  -2  -5    0.90    1.70
   3  -2  -5    3.60    1.70
   3  -2  -5    0.80    0.70
  -3   2   5    0.60    1.20
  -3   2   5    0.60    1.50
  -3   2   5    0.30    0.80
  -3   2   5    1.60    1.50
  -3   2   5   -1.10    1.00
  -3   2   5    1.10    1.20
  -3   2   5    2.40    1.40
   2  -2  -5  266.87    7.30
   2  -2  -5  271.47    7.10
   2  -2  -5  273.57    7.80
   2  -2  -5  274.97    8.10
   2  -2  -5  262.97    6.50
   2  -2  -5  253.67    7.40
  -2   2   5  275.67    7.50
  -2   2   5  261.27    7.90
  -2   2   5  268.17    6.90
  -2   2   5  271.67    7.80
  -2   2   5  263.87    7.60
  -2   2   5  276.37    7.50
   1  -2  -5  554.14   15.40
   1  -2  -5  624.74   15.10
   1  -2  -5  659.83   15.30
   1  -2  -5  657.13   15.50
   1  -2  -5  664.83   15.60
  -1   2   5  624.34   14.50
  -1   2   5  616.14   15.30
  -1   2   5  655.93   15.00
  -1   2   5  650.13   15.10
  -1   2   5  627.24   16.00
  -1   2   5  655.73   15.20
  -1   2   5  605.74   15.20
   0  -2  -5   23.10    1.60
   0  -2  -5   22.20    1.80
   0  -2  -5   24.70    1.60
   0  -2  -5   21.50    1.70
   0  -2  -5   22.80    0.90
   0   2   5   21.40    1.50
   0   2   5   25.50    1.50
   0   2   5   22.90    1.40
   0   2   5   22.70    1.50
  -1  -2  -5   36.20    2.10
  -1  -2  -5   39.60    2.00
  -1  -2  -5   38.00    2.10
  -1  -2  -5   37.30    2.00
   1   2   5   36.30    1.80
   1   2   5   35.10    2.00
   1   2   5   38.80    2.00
   1   2   5   39.60    2.00
   1   2   5   37.80    2.00
  -2  -2  -5    5.80    1.30
  -2  -2  -5    6.80    1.40
  -2  -2  -5    4.90    1.30
  -2  -2  -5    5.80    1.00
  -2  -2  -5    4.30    1.20
  -2  -2  -5    3.80    1.10
   2   2   5    4.10    1.10
   2   2   5    4.10    1.10
   2   2   5    3.50    1.10
   2   2   5    5.90    1.30
   2   2   5    3.20    0.90
  -3  -2  -5    2.60    1.50
  -3  -2  -5    4.70    1.70
  -3  -2  -5    0.60    1.30
  -3  -2  -5    1.70    1.50
  -3  -2  -5    2.40    1.10
   3   2   5    4.30    1.30
   3   2   5    3.80    1.60
   3   2   5    3.00    1.60
   3   2   5    3.10    1.00
   3   2   5    2.80    1.50
  -4  -2  -5   13.70    2.10
  -4  -2  -5    8.10    2.40
  -4  -2  -5   10.30    1.40
  -4  -2  -5    9.20    2.40
  -4  -2  -5    7.80    2.30
  -4  -2  -5    6.90    2.30
   4   2   5   12.10    2.60
   4   2   5    4.90    1.90
   4   2   5    7.80    1.80
   4   2   5    8.70    1.60
  -5  -2  -5   18.60    3.90
  -5  -2  -5    7.10    2.80
   5   2   5   11.80    2.80
   5   2   5   14.10    3.00
   5   2   5   15.00    2.40
   5   2   5   15.20    2.60
  -6  -2  -5    8.40    3.60
  -6  -2  -5   15.40    4.60
   6   2   5   19.00    3.70
   6   2   5    5.10    2.70
   6   2   5    4.40    3.10
   6   2   5    8.00    2.70
  -7  -2  -5    1.20    4.50
  -7  -2  -5    4.10    5.60
   7   2   5    6.40    5.00
   7   2   5    6.10    4.40
   7   2   5    6.30    4.00
   7  -3  -5   -2.90    2.80
   7  -3  -5   -0.30    4.30
  -7   3   5   14.00    5.60
  -7   3   5   -3.60    4.30
   6  -3  -5    2.40    2.00
   6  -3  -5    2.40    3.90
   6  -3  -5    7.10    3.30
  -6   3   5    4.30    3.60
  -6   3   5    0.20    5.50
   5  -3  -5   -3.10    3.30
   5  -3  -5    0.00    2.20
   5  -3  -5   -0.70    1.40
   5  -3  -5    2.60    2.60
  -5   3   5   -0.80    2.10
  -5   3   5    2.00    3.50
  -5   3   5    5.20    2.90
   4  -3  -5  272.87   10.40
   4  -3  -5  289.37    9.30
   4  -3  -5  286.27    8.00
   4  -3  -5  286.67    9.60
   4  -3  -5  282.17    9.30
  -4   3   5  279.07    9.80
  -4   3   5  286.17    9.80
  -4   3   5  277.17    9.00
   3  -3  -5    3.90    0.90
   3  -3  -5    3.20    1.00
   3  -3  -5    3.60    1.30
   3  -3  -5    6.90    1.90
   3  -3  -5    7.50    2.40
  -3   3   5    3.30    0.80
  -3   3   5    5.50    1.70
  -3   3   5    4.70    1.60
  -3   3   5    3.90    2.10
  -3   3   5    6.00    1.60
  -3   3   5    5.40    1.30
  -3   3   5    2.20    1.40
   2  -3  -5    4.20    1.40
   2  -3  -5    4.80    0.80
   2  -3  -5    4.50    0.90
   2  -3  -5    7.30    1.60
   2  -3  -5    5.20    1.00
   2  -3  -5    4.10    1.10
  -2   3   5    5.30    1.10
  -2   3   5    4.20    1.30
  -2   3   5    5.40    0.80
  -2   3   5    4.60    1.10
  -2   3   5    4.20    1.10
  -2   3   5    5.70    1.40
   1  -3  -5  743.23   18.00
   1  -3  -5  753.92   18.40
   1  -3  -5  805.42   18.70
   1  -3  -5  783.22   18.20
   1  -3  -5  758.72   18.30
  -1   3   5  775.52   18.10
  -1   3   5  753.52   18.20
  -1   3   5  740.53   18.20
  -1   3   5  757.92   18.50
  -1   3   5  776.92   18.30
  -1   3   5  753.22   17.00
   0  -3  -5  293.37    8.70
   0  -3  -5  327.17    8.10
   0  -3  -5  317.57    8.90
   0  -3  -5  322.27    8.60
   0  -3  -5  338.07    8.70
   0   3   5  325.07    8.50
   0   3   5  305.07    8.80
   0   3   5  341.17    8.50
   0   3   5  332.47    8.60
   0   3   5  339.17    8.60
  -1  -3  -5   17.50    1.80
  -1  -3  -5   21.20    1.70
  -1  -3  -5   21.10    1.60
  -1  -3  -5   21.40    1.70
  -1  -3  -5   19.80    1.70
   1   3   5   20.20    1.50
   1   3   5   18.40    1.60
   1   3   5   21.80    1.80
   1   3   5   21.90    1.80
   1   3   5   19.40    1.60
  -2  -3  -5    3.20    1.10
  -2  -3  -5    2.60    1.10
  -2  -3  -5    5.40    1.40
  -2  -3  -5    3.40    1.20
  -2  -3  -5    3.90    1.20
   2   3   5    4.80    1.30
   2   3   5    3.50    1.30
   2   3   5    3.80    1.20
   2   3   5    3.00    1.10
   2   3   5    2.90    1.00
  -3  -3  -5  175.98    6.30
  -3  -3  -5  167.98    6.60
  -3  -3  -5  183.08    6.30
  -3  -3  -5  178.58    5.90
  -3  -3  -5  172.28    6.50
   3   3   5  174.08    6.50
   3   3   5  171.78    5.80
   3   3   5  177.18    6.10
   3   3   5  176.38    6.30
   3   3   5  172.98    6.40
  -4  -3  -5   15.20    2.70
  -4  -3  -5   23.80    2.80
  -4  -3  -5   20.80    3.30
   4   3   5   19.90    2.40
   4   3   5   21.40    2.90
   4   3   5   23.50    2.90
   4   3   5   21.10    3.10
  -5  -3  -5    4.10    2.90
  -5  -3  -5    8.50    2.80
   5   3   5   14.30    2.70
   5   3   5    9.20    2.70
   5   3   5    6.90    2.40
  -6  -3  -5    0.70    3.60
  -6  -3  -5    1.90    4.00
   6   3   5    6.00    3.40
   6   3   5   -1.90    3.00
   6   3   5    4.50    2.80
  -7  -3  -5    3.20    5.20
  -7  -3  -5    0.80    4.50
   7   3   5   -3.40    3.70
   7   3   5   -3.10    4.40
   7   3   5   -2.40    3.60
   7   3   5   -4.20    4.10
   7  -4  -5    5.90    4.70
  -7   4   5    5.70    6.00
  -7   4   5   -1.00    5.30
  -7   4   5   -2.00    4.70
   6  -4  -5    7.10    4.50
   6  -4  -5   -0.30    3.30
   6  -4  -5    3.90    2.00
  -6   4   5   -1.00    3.70
  -6   4   5    1.80    3.90
   5  -4  -5   15.10    3.10
   5  -4  -5   13.00    3.30
   5  -4  -5    8.50    1.80
   5  -4  -5    8.10    3.30
  -5   4   5   14.60    3.60
  -5   4   5    8.40    2.60
  -5   4   5    8.50    3.20
   4  -4  -5   36.00    2.30
   4  -4  -5   34.80    3.60
   4  -4  -5   35.20    4.70
   4  -4  -5   40.90    4.40
   4  -4  -5   33.40    3.30
  -4   4   5   33.30    3.70
  -4   4   5   34.80    3.60
  -4   4   5   37.40    5.30
  -4   4   5   33.60    3.20
   3  -4  -5   20.30    2.70
   3  -4  -5   21.20    3.10
   3  -4  -5   15.70    2.70
   3  -4  -5   17.00    1.70
   3  -4  -5   15.20    2.20
   3  -4  -5   19.10    1.90
  -3   4   5   17.30    2.60
  -3   4   5   15.50    2.30
  -3   4   5   19.00    2.40
  -3   4   5   16.80    1.30
  -3   4   5   15.60    2.10
  -3   4   5   21.70    3.50
  -3   4   5   20.30    2.70
   2  -4  -5   36.40    2.30
   2  -4  -5   36.40    2.50
   2  -4  -5   36.60    2.00
   2  -4  -5   36.30    2.70
   2  -4  -5   36.10    2.40
  -2   4   5   37.00    2.20
  -2   4   5   35.00    2.30
  -2   4   5   38.50    1.90
  -2   4   5   37.60    2.20
  -2   4   5   37.10    2.70
  -2   4   5   39.70    2.60
  -2   4   5   37.90    3.50
   1  -4  -5   11.60    1.50
   1  -4  -5   14.30    1.90
   1  -4  -5   10.80    1.40
   1  -4  -5   10.50    1.40
   1  -4  -5    8.70    1.30
  -1   4   5   12.90    1.60
  -1   4   5   12.40    1.20
  -1   4   5   10.30    1.50
  -1   4   5   10.60    1.30
  -1   4   5   10.40    1.40
  -1   4   5   11.30    1.40
   0  -4  -5  168.98    4.50
   0  -4  -5  174.38    5.40
   0  -4  -5  172.68    5.60
   0   4   5  176.38    5.50
   0   4   5  177.68    5.30
   0   4   5  172.68    5.60
   0   4   5  183.88    5.50
   0   4   5  172.48    5.30
   0   4   5  177.68    5.60
  -1  -4  -5  194.98    5.80
  -1  -4  -5  192.88    6.20
  -1  -4  -5  203.58    6.10
  -1  -4  -5  189.28    5.30
   1   4   5  191.28    6.00
   1   4   5  200.18    6.40
   1   4   5  197.58    6.00
   1   4   5  192.68    6.10
   1   4   5  192.08    6.00
  -2  -4  -5    3.70    1.30
  -2  -4  -5    2.00    1.20
  -2  -4  -5    3.10    1.20
  -2  -4  -5    0.30    1.20
   2   4   5    2.90    1.20
   2   4   5    0.50    1.30
   2   4   5    1.30    1.00
   2   4   5    1.20    1.00
   2   4   5    4.20    1.50
  -3  -4  -5  163.58    6.60
  -3  -4  -5  180.18    6.50
  -3  -4  -5  175.58    6.20
  -3  -4  -5  169.88    6.30
  -3  -4  -5  175.88    6.20
   3   4   5  181.38    6.50
   3   4   5  176.08    6.60
   3   4   5  167.78    6.50
   3   4   5  159.98    6.40
   3   4   5  173.48    6.10
  -4  -4  -5   89.09    3.20
  -4  -4  -5   94.59    5.00
  -4  -4  -5   90.19    5.30
  -4  -4  -5   89.99    5.20
   4   4   5   88.29    5.20
   4   4   5   92.99    5.60
   4   4   5   90.29    5.00
   4   4   5   89.29    4.50
  -5  -4  -5    0.70    2.80
  -5  -4  -5    0.60    2.40
   5   4   5    2.60    2.60
   5   4   5   -0.10    1.80
  -6  -4  -5   -2.30    3.70
  -6  -4  -5    2.80    3.40
   6   4   5   -0.60    3.50
   6   4   5   -1.10    3.20
   6   4   5   -2.00    2.70
  -7  -4  -5  -10.90    4.80
  -7  -4  -5   -3.10    4.60
   7   4   5    0.30    4.60
   7   4   5    1.10    3.90
   7   4   5    1.50    4.60
   6  -5  -5   13.60    5.20
   6  -5  -5    3.20    3.60
  -6   5   5   -1.10    4.10
  -6   5   5   11.50    4.50
   5  -5  -5    1.00    2.90
   5  -5  -5   -2.90    3.60
   5  -5  -5    0.50    2.80
   5  -5  -5   -1.10    1.30
  -5   5   5    2.80    2.90
  -5   5   5    1.90    3.40
  -5   5   5   -1.90    2.30
   4  -5  -5    4.60    2.80
   4  -5  -5   -3.40    3.50
   4  -5  -5    2.80    1.70
   4  -5  -5    7.40    2.20
   4  -5  -5    6.60    1.30
  -4   5   5    5.10    1.80
  -4   5   5    9.50    2.70
  -4   5   5    6.60    2.30
   3  -5  -5  491.75   13.00
   3  -5  -5  495.85   12.40
   3  -5  -5  504.15   14.10
   3  -5  -5  503.35   14.90
   3  -5  -5  495.75   12.00
   3  -5  -5  503.05   13.90
  -3   5   5  471.65   12.70
  -3   5   5  494.45   13.00
  -3   5   5  479.35   13.50
  -3   5   5  480.25   15.00
  -3   5   5  498.45   11.80
  -3   5   5  501.95   12.90
  -3   5   5  504.75   14.20
   2  -5  -5    1.30    1.20
   2  -5  -5    1.90    0.90
   2  -5  -5    1.00    1.50
   2  -5  -5    4.40    1.30
   2  -5  -5   -0.70    1.60
  -2   5   5   -0.20    1.60
  -2   5   5    2.00    1.10
  -2   5   5    3.60    1.10
  -2   5   5    3.20    0.90
  -2   5   5    4.10    1.10
  -2   5   5    3.10    1.00
  -2   5   5    4.30    1.50
  -2   5   5    1.90    2.30
   1  -5  -5   69.39    2.90
   1  -5  -5   70.69    2.80
   1  -5  -5   70.59    2.70
   1  -5  -5   70.49    3.70
   1  -5  -5   71.69    3.50
  -1   5   5   73.09    3.60
  -1   5   5   71.69    3.20
  -1   5   5   68.69    1.90
  -1   5   5   70.69    2.90
  -1   5   5   73.59    3.50
  -1   5   5   69.19    2.90
   0  -5  -5    7.00    0.50
   0  -5  -5    4.90    1.40
   0  -5  -5    6.20    1.20
   0   5   5    4.80    1.40
   0   5   5    5.40    1.30
   0   5   5    5.20    1.30
   0   5   5    3.90    1.10
   0   5   5    5.40    1.30
   0   5   5    6.90    1.50
  -1  -5  -5   11.00    1.70
  -1  -5  -5   13.10    1.60
  -1  -5  -5   10.80    1.70
  -1  -5  -5    9.60    0.90
   1   5   5   14.10    1.80
   1   5   5   10.30    1.70
   1   5   5   12.70    2.00
   1   5   5   11.90    1.70
   1   5   5   14.20    2.00
  -2  -5  -5    0.90    1.30
  -2  -5  -5    1.20    1.30
  -2  -5  -5    2.20    1.50
  -2  -5  -5    3.00    1.40
  -2  -5  -5    3.30    1.20
   2   5   5    4.80    1.50
   2   5   5    1.60    1.20
   2   5   5    0.60    1.60
   2   5   5   -1.40    1.10
   2   5   5    1.20    1.30
  -3  -5  -5  176.68    6.40
  -3  -5  -5  187.48    6.70
  -3  -5  -5  172.08    7.10
  -3  -5  -5  193.18    6.90
  -3  -5  -5  186.28    6.40
  -3  -5  -5  173.08    6.00
   3   5   5  176.38    6.50
   3   5   5  179.78    6.90
   3   5   5  171.98    7.00
   3   5   5  186.18    7.10
  -4  -5  -5   62.19    4.70
  -4  -5  -5   58.29    4.40
  -4  -5  -5   58.19    3.00
   4   5   5   65.19    4.90
   4   5   5   55.29    4.60
   4   5   5   55.29    4.00
   4   5   5   52.49    5.00
  -5  -5  -5    0.90    2.60
  -5  -5  -5    3.50    2.70
   5   5   5   -0.40    2.00
   5   5   5   -0.10    2.90
  -6  -5  -5   -1.50    3.40
  -6  -5  -5   -1.20    3.90
   6   5   5    5.90    4.10
   6   5   5   -0.60    2.90
  -7  -5  -5   10.40    5.50
  -7  -5  -5    0.80    4.50
   7   5   5    0.50    4.60
   7   5   5   -5.40    3.80
   7   5   5   -2.20    5.00
   6  -6  -5    8.90    4.30
   6  -6  -5  -10.10    6.30
  -6   6   5    2.10    4.60
  -6   6   5    6.80    4.60
   5  -6  -5   10.60    3.30
   5  -6  -5   12.30    4.70
  -5   6   5    6.90    3.20
  -5   6   5    6.30    2.70
  -5   6   5   17.00    4.10
   4  -6  -5    4.80    2.20
   4  -6  -5    7.10    3.50
   4  -6  -5   12.10    4.20
  -4   6   5   -0.50    2.40
  -4   6   5    3.60    2.10
  -4   6   5    4.20    2.50
  -4   6   5    5.20    1.90
   3  -6  -5   70.39    5.60
   3  -6  -5   83.89    4.10
   3  -6  -5   74.69    4.50
   3  -6  -5   81.39    4.90
  -3   6   5   71.39    3.60
  -3   6   5   81.69    4.80
  -3   6   5   78.59    3.70
  -3   6   5   76.09    4.00
  -3   6   5   73.79    3.80
  -3   6   5   72.09    3.70
   2  -6  -5  715.33   20.10
   2  -6  -5  781.62   19.70
   2  -6  -5  770.72   17.40
   2  -6  -5  775.52   19.90
   2  -6  -5  781.62   17.50
   2  -6  -5  805.62   21.30
  -2   6   5  779.92   18.50
  -2   6   5  732.43   21.10
  -2   6   5  813.52   18.70
  -2   6   5  726.73   19.70
  -2   6   5  775.62   18.70
  -2   6   5  775.72   19.90
  -2   6   5  779.02   18.00
  -2   6   5  763.82   18.70
   1  -6  -5   79.59    4.90
   1  -6  -5   79.39    4.10
   1  -6  -5   79.19    2.80
   1  -6  -5   81.79    4.40
  -1   6   5   78.49    3.20
  -1   6   5   86.19    3.40
  -1   6   5   86.89    3.90
  -1   6   5   81.69    3.90
  -1   6   5   80.49    4.20
   0  -6  -5   30.30    3.20
   0  -6  -5   29.80    2.80
   0  -6  -5   24.20    1.30
   0  -6  -5   24.20    1.70
   0  -6  -5   25.60    2.10
   0   6   5   23.90    2.00
   0   6   5   27.30    2.40
   0   6   5   28.80    2.70
   0   6   5   28.30    2.30
   0   6   5   24.10    2.20
   0   6   5   26.80    2.80
  -1  -6  -5   17.90    2.20
  -1  -6  -5   22.00    3.00
  -1  -6  -5   16.70    1.90
  -1  -6  -5   20.10    2.40
   1   6   5   16.90    2.00
   1   6   5   21.60    2.80
   1   6   5   16.40    2.20
   1   6   5   19.70    2.50
   1   6   5   16.50    2.00
  -2  -6  -5    9.80    2.20
  -2  -6  -5   12.70    2.30
  -2  -6  -5    9.70    2.00
  -2  -6  -5   13.60    2.10
  -2  -6  -5   12.00    2.00
  -2  -6  -5   14.60    1.60
   2   6   5   12.00    2.10
   2   6   5   10.20    1.80
   2   6   5   13.10    2.40
   2   6   5   11.80    2.70
   2   6   5   15.50    2.30
  -3  -6  -5   -0.20    1.90
  -3  -6  -5    1.80    1.90
  -3  -6  -5    0.90    1.60
  -3  -6  -5   -2.90    1.40
  -3  -6  -5   -0.90    2.10
   3   6   5    0.00    1.40
   3   6   5    1.40    1.90
   3   6   5    0.50    1.60
  -4  -6  -5   13.80    2.80
  -4  -6  -5   13.90    3.10
  -4  -6  -5   12.10    2.10
   4   6   5    8.70    3.30
   4   6   5   12.60    2.90
   4   6   5    7.10    2.20
   4   6   5    6.90    2.60
  -5  -6  -5    5.70    3.20
  -5  -6  -5    8.70    3.20
   5   6   5    6.20    3.40
   5   6   5   -0.80    2.50
  -6  -6  -5    6.50    3.80
  -6  -6  -5    9.60    4.00
   6   6   5   -1.40    4.00
   6   6   5    3.90    3.10
  -7  -6  -5   -3.70    4.70
  -7  -6  -5    5.10    5.80
   7   6   5   -5.30    4.40
   7   6   5    0.00    5.30
   6  -7  -5   -4.20    6.70
   6  -7  -5    4.60    4.60
  -6   7   5   -1.20    4.00
  -6   7   5    4.80    5.30
  -6   7   5   -9.40    4.80
  -5   7   5    3.60    3.60
  -5   7   5    2.10    3.80
  -5   7   5    4.50    2.90
   4  -7  -5    4.60    3.40
   4  -7  -5    4.50    4.00
   4  -7  -5    9.80    4.30
  -4   7   5    8.70    2.90
  -4   7   5    3.10    3.00
  -4   7   5    6.60    2.50
  -4   7   5    3.60    1.90
   3  -7  -5   89.29    5.30
   3  -7  -5   98.49    5.10
   3  -7  -5  105.29    6.80
   3  -7  -5  101.09    5.40
  -3   7   5  101.39    3.80
  -3   7   5   94.29    4.30
  -3   7   5   96.59    4.50
  -3   7   5   96.29    5.40
  -3   7   5   98.59    4.30
  -3   7   5   99.89    4.40
   2  -7  -5   74.89    4.50
   2  -7  -5   84.69    5.80
  -2   7   5   72.49    3.50
  -2   7   5   71.19    4.30
  -2   7   5   78.99    3.90
  -2   7   5   69.79    3.00
  -2   7   5   74.39    3.30
   1  -7  -5   86.09    4.70
   1  -7  -5   81.39    5.30
  -1   7   5   77.69    4.20
  -1   7   5   83.69    4.10
  -1   7   5   79.19    3.50
  -1   7   5   85.29    4.50
  -1   7   5   87.79    3.60
   0  -7  -5    8.30    1.50
   0  -7  -5   10.70    1.30
   0  -7  -5   11.50    1.40
   0  -7  -5    6.70    2.20
   0  -7  -5   11.60    2.30
   0  -7  -5   12.90    2.60
   0   7   5    7.90    2.30
   0   7   5   10.80    1.90
   0   7   5    9.70    1.80
   0   7   5    7.40    2.10
   0   7   5    9.40    1.70
   0   7   5   10.10    1.90
  -1  -7  -5   28.00    2.70
  -1  -7  -5   27.80    2.00
  -1  -7  -5   29.00    3.40
  -1  -7  -5   34.50    3.10
  -1  -7  -5   26.70    2.20
   1   7   5   24.10    2.60
   1   7   5   30.50    2.90
   1   7   5   27.60    3.70
   1   7   5   29.90    2.50
   1   7   5   29.70    3.10
  -2  -7  -5   89.69    3.80
  -2  -7  -5   85.69    4.90
  -2  -7  -5   86.79    2.90
  -2  -7  -5   89.49    4.20
  -2  -7  -5   85.29    4.50
  -2  -7  -5   89.29    4.80
   2   7   5   81.49    4.90
   2   7   5   89.19    4.40
   2   7   5   91.79    4.70
   2   7   5   86.29    4.70
  -3  -7  -5    1.40    2.00
  -3  -7  -5   -4.00    2.20
  -3  -7  -5   -1.20    2.00
  -3  -7  -5    0.00    1.40
   3   7   5    0.70    2.10
   3   7   5   -1.00    1.60
   3   7   5    2.30    2.00
  -4  -7  -5    0.00    2.50
  -4  -7  -5   -2.10    1.90
  -4  -7  -5    1.90    1.90
   4   7   5    0.90    2.10
   4   7   5    0.80    2.80
   4   7   5    4.50    2.70
  -5  -7  -5    7.80    4.20
  -5  -7  -5    8.70    3.20
   5   7   5    4.60    2.90
   5   7   5    4.20    3.50
  -6  -7  -5   -5.60    3.80
  -6  -7  -5    0.60    4.40
   6   7   5   -2.00    4.20
   6   7   5   -7.70    3.30
   5  -8  -5    6.70    4.00
   5  -8  -5   -1.50    6.10
  -5   8   5    7.00    4.20
  -5   8   5   -2.30    3.70
  -5   8   5    1.80    2.90
   4  -8  -5    5.10    3.30
   4  -8  -5    3.30    5.60
  -4   8   5    6.30    2.80
  -4   8   5    9.90    1.80
  -4   8   5   14.40    3.90
  -4   8   5    7.70    2.30
   3  -8  -5   30.10    5.20
   3  -8  -5   30.10    4.00
  -3   8   5   35.20    3.50
  -3   8   5   29.70    3.20
  -3   8   5   31.90    4.20
  -3   8   5   30.90    3.50
  -3   8   5   35.50    2.90
  -3   8   5   35.10    3.10
   2  -8  -5   39.20    5.20
   2  -8  -5   37.00    4.10
  -2   8   5   36.80    3.00
  -2   8   5   35.90    2.70
  -2   8   5   43.70    3.90
  -2   8   5   35.90    2.70
  -2   8   5   36.30    2.20
  -2   8   5   44.00    3.80
  -2   8   5   43.20    3.70
   1  -8  -5   29.90    3.80
   1  -8  -5   29.30    4.40
  -1   8   5   30.90    3.50
  -1   8   5   27.70    3.00
  -1   8   5   25.60    2.40
  -1   8   5   24.60    3.00
  -1   8   5   29.40    2.70
   0  -8  -5    2.30    2.10
   0  -8  -5    8.80    2.80
   0  -8  -5    6.30    0.90
   0   8   5    5.50    1.70
   0   8   5    9.70    2.10
   0   8   5    8.30    2.80
   0   8   5    6.20    2.00
   0   8   5    4.20    1.50
  -1  -8  -5    0.90    1.10
  -1  -8  -5   -0.10    1.50
  -1  -8  -5   -0.40    1.90
  -1  -8  -5   -1.00    2.30
  -1  -8  -5    1.20    2.40
   1   8   5    1.20    1.60
   1   8   5   -0.60    2.10
   1   8   5    0.20    1.50
   1   8   5    0.10    1.40
  -2  -8  -5   28.50    3.70
  -2  -8  -5   24.40    2.60
  -2  -8  -5   22.30    2.60
  -2  -8  -5   26.10    3.10
   2   8   5   19.70    2.90
   2   8   5   22.30    3.10
   2   8   5   25.70    3.40
  -3  -8  -5  146.79    6.90
  -3  -8  -5  135.59    5.10
  -3  -8  -5  131.09    6.60
  -3  -8  -5  146.09    5.90
  -3  -8  -5  134.09    6.40
   3   8   5  150.98    6.80
   3   8   5  137.09    6.60
   3   8   5  144.79    7.10
  -4  -8  -5   43.90    4.10
  -4  -8  -5   52.59    5.50
  -4  -8  -5   46.70    4.30
   4   8   5   50.19    5.70
   4   8   5   49.10    5.50
   4   8   5   47.80    5.00
  -5  -8  -5    3.30    3.60
  -5  -8  -5   -2.30    3.00
   5   8   5    3.20    3.10
   5   8   5   -2.90    4.00
  -6  -8  -5    1.50    5.10
   6   8   5    2.40    5.30
   6   8   5    2.00    4.10
   5  -9  -5    4.20    7.00
   5  -9  -5   -0.60    4.20
  -5   9   5    4.20    4.70
  -5   9   5    2.20    4.30
  -5   9   5   10.20    4.30
   4  -9  -5   14.50    5.50
  -4   9   5   -3.50    3.40
  -4   9   5   -3.20    2.80
  -4   9   5   -1.60    2.20
   3  -9  -5   52.09    7.10
   3  -9  -5   45.20    5.20
  -3   9   5   32.70    5.40
  -3   9   5   37.00    3.20
  -3   9   5   37.90    3.40
   2  -9  -5    1.40    2.50
   2  -9  -5    2.00    3.90
  -2   9   5    1.90    1.70
  -2   9   5    4.00    2.10
  -2   9   5   -1.80    2.10
  -2   9   5    1.70    2.90
  -2   9   5    1.90    2.40
  -2   9   5    6.90    2.50
   1  -9  -5   47.40    5.00
   1  -9  -5   64.09    6.10
  -1   9   5   56.49    4.50
  -1   9   5   50.49    3.90
  -1   9   5   44.70    3.60
  -1   9   5   49.20    3.30
   0  -9  -5    6.70    3.30
   0  -9  -5    8.10    2.90
   0  -9  -5    6.60    1.50
   0   9   5    6.40    2.20
   0   9   5    8.90    2.40
   0   9   5    4.70    2.50
   0   9   5    4.80    2.00
  -1  -9  -5   18.40    3.70
  -1  -9  -5   16.20    1.90
  -1  -9  -5   20.50    3.40
  -1  -9  -5   15.80    2.20
  -1  -9  -5   18.50    1.90
   1   9   5   18.40    3.00
   1   9   5   16.70    2.60
   1   9   5   16.00    4.10
  -2  -9  -5   10.50    3.20
  -2  -9  -5   14.60    3.40
  -2  -9  -5   12.50    2.20
  -2  -9  -5   15.70    2.60
  -2  -9  -5    8.60    1.90
   2   9   5   10.20    2.50
   2   9   5   13.20    3.00
   2   9   5   11.90    2.70
  -3  -9  -5    4.60    2.80
  -3  -9  -5   10.70    2.40
  -3  -9  -5    7.40    3.20
  -3  -9  -5    5.40    3.10
   3   9   5    6.60    3.10
   3   9   5    8.60    3.10
   3   9   5    2.40    2.70
  -4  -9  -5    4.10    2.90
  -4  -9  -5    0.70    2.60
  -4  -9  -5   -0.30    2.30
  -4  -9  -5    0.20    3.20
   4   9   5   -0.40    3.60
   4   9   5   10.10    4.00
   4   9   5   -2.30    3.10
  -5  -9  -5    0.90    3.40
   5   9   5    2.70    4.30
   5   9   5    6.60    3.50
  -6  -9  -5    7.40    5.80
  -6  -9  -5    5.70    6.10
   6   9   5    6.40    5.80
   6   9   5    3.00    5.00
   4 -10  -5   -3.00    6.80
  -4  10   5    6.00    4.10
  -4  10   5    7.50    4.00
   3 -10  -5   11.60    6.10
  -3  10   5    3.60    2.50
  -3  10   5   10.20    3.70
  -3  10   5    1.80    3.10
   2 -10  -5    7.20    5.20
   2 -10  -5    5.30    3.30
  -2  10   5   11.10    3.30
  -2  10   5   14.60    3.80
  -2  10   5   11.40    2.30
   1 -10  -5    6.00    3.30
  -1  10   5    2.20    2.40
  -1  10   5    1.00    2.00
  -1  10   5   -0.70    2.50
   0 -10  -5   63.49    6.30
   0 -10  -5   48.00    3.40
   0 -10  -5   54.39    6.60
   0  10   5   57.59    4.30
   0  10   5   55.99    4.80
   0  10   5   55.39    4.40
  -1 -10  -5    6.20    3.80
  -1 -10  -5    1.70    3.10
  -1 -10  -5   11.60    2.10
   1  10   5    6.10    2.70
   1  10   5    9.60    2.90
   1  10   5    3.20    2.40
  -2 -10  -5    5.70    2.30
  -2 -10  -5    6.50    2.20
  -2 -10  -5    6.10    3.80
  -2 -10  -5    3.50    3.70
   2  10   5    8.90    2.80
   2  10   5    7.40    3.30
   2  10   5    3.10    3.50
  -3 -10  -5   -6.50    3.40
  -3 -10  -5    0.50    3.40
  -3 -10  -5   -2.20    2.20
  -3 -10  -5   -0.20    2.80
   3  10   5   -4.50    3.00
   3  10   5   -1.50    3.10
   3  10   5    6.60    3.70
  -4 -10  -5   17.30    3.70
  -4 -10  -5   13.70    4.10
  -4 -10  -5   18.10    4.30
   4  10   5   12.90    4.20
   4  10   5   11.50    4.50
   4  10   5   15.50    5.10
  -5 -10  -5    1.90    3.90
  -5 -10  -5   -3.30    5.00
   5  10   5   -3.90    4.00
   5  10   5    7.80    5.30
   3 -11  -5   -7.40    4.20
   3 -11  -5    0.80    6.40
  -3  11   5    6.90    3.90
  -3  11   5    0.10    3.80
   2 -11  -5   -5.60    5.80
   2 -11  -5   11.70    4.10
  -2  11   5    2.40    3.50
  -2  11   5    5.30    2.60
  -2  11   5   -0.30    3.20
   1 -11  -5    1.30    3.60
   1 -11  -5   -4.80    4.40
  -1  11   5    4.50    2.70
  -1  11   5    1.70    3.20
   0 -11  -5   -2.00    4.30
   0 -11  -5    1.10    3.80
   0 -11  -5    3.00    2.20
   0  11   5    5.20    3.00
   0  11   5   -2.90    2.60
   0  11   5    1.40    2.70
  -1 -11  -5   15.80    5.20
  -1 -11  -5    8.60    2.50
  -1 -11  -5    7.30    4.20
   1  11   5    7.60    3.00
   1  11   5    9.80    3.40
   1  11   5   10.80    3.30
  -2 -11  -5    5.10    4.20
  -2 -11  -5    7.30    4.40
  -2 -11  -5    9.70    2.70
   2  11   5    5.20    3.10
   2  11   5    9.40    3.20
   2  11   5    3.20    3.60
  -3 -11  -5    0.40    2.90
  -3 -11  -5   -0.70    4.50
  -3 -11  -5    6.60    4.50
  -3 -11  -5   -0.60    2.80
   3  11   5    3.30    4.20
   3  11   5    4.10    3.80
  -4 -11  -5    0.00    3.80
  -4 -11  -5    6.70    4.50
  -4 -11  -5    1.40    4.80
  -4 -11  -5    1.90    5.20
   4  11   5   -1.10    5.30
   4  11   5   -4.20    3.80
   4  11   5   -6.70    5.00
   2 -12  -5    2.10    5.10
   2 -12  -5   15.20    6.90
  -2  12   5   -0.90    3.80
  -2  12   5    6.00    4.20
   1 -12  -5   12.40    5.90
   1 -12  -5   12.70    4.90
  -1  12   5   15.10    4.00
  -1  12   5   13.00    3.70
  -1  12   5    9.70    3.70
   0 -12  -5    3.30    4.80
   0 -12  -5    1.70    5.20
   0  12   5    5.70    3.90
   0  12   5    4.50    3.40
   0  12   5    5.00    3.50
  -1 -12  -5   -2.30    5.10
  -1 -12  -5    6.50    4.90
  -1 -12  -5    1.50    2.80
   1  12   5    2.10    3.40
   1  12   5   -4.30    3.90
   1  12   5    7.10    4.10
  -2 -12  -5    4.90    5.50
  -2 -12  -5    2.40    5.00
  -2 -12  -5   -1.00    3.00
   2  12   5    7.40    5.60
   2  12   5    7.00    4.10
   2  12   5   -1.50    3.90
  -3 -12  -5   10.70    4.10
  -3 -12  -5    5.40    5.70
  -3 -12  -5   11.20    5.90
   3  12   5   -8.70    5.20
   3  12   5    6.80    5.10
   3  12   5    1.70    4.40
   0 -13  -5   -1.10    6.60
   0 -13  -5    9.90    6.60
   0  13   5    7.60    4.70
   0  13   5    6.30    4.20
  -1 -13  -5    1.10    6.00
  -1 -13  -5   -1.10    6.40
   1  13   5   -2.10    4.30
   1  13   5   -0.60    4.60
   2  11  -6    6.50    4.60
   2  11  -6    1.70    4.30
   2  11  -6    9.00    4.30
  -2 -11   6    0.70    5.50
  -2 -11   6    1.60    4.90
   1  11  -6   -1.90    3.80
   1  11  -6    0.90    3.70
  -1 -11   6    3.20    5.20
  -1 -11   6   -8.80    4.50
   0  11  -6    5.40    3.90
   0 -11   6   10.60    5.30
   0 -11   6   10.80    5.30
  -1  11  -6   -4.60    3.40
   1 -11   6    6.00    5.20
   3  10  -6   -2.70    4.00
   3  10  -6   -8.60    3.90
   3  10  -6    3.10    4.10
  -3 -10   6    7.70    5.00
   2  10  -6   -1.70    3.20
   2  10  -6   -2.40    3.30
   2  10  -6    4.00    3.70
  -2 -10   6    9.00    4.00
  -2 -10   6   -0.50    4.40
   1  10  -6    3.40    2.80
   1  10  -6    3.10    2.70
   1  10  -6    4.30    3.00
  -1 -10   6    1.60    3.80
  -1 -10   6   -4.40    3.80
   0  10  -6    0.40    2.30
   0  10  -6    5.50    2.60
   0  10  -6    5.00    3.10
   0 -10   6    0.80    3.90
   0 -10   6   -4.60    3.90
  -1  10  -6   -2.00    2.80
  -1  10  -6    1.60    2.40
   1 -10   6    0.80    4.00
  -2  10  -6    6.80    5.10
  -2  10  -6   -0.80    2.70
   2 -10   6    9.60    5.70
  -3  10  -6   -9.10    5.60
  -3  10  -6   -0.90    2.90
   3 -10   6   -4.20    6.60
   4   9  -6    2.20    4.60
   4   9  -6   -5.00    3.90
   4   9  -6   -6.30    3.90
  -4  -9   6    2.70    3.10
  -4  -9   6   -0.80    4.10
   3   9  -6    3.20    3.80
   3   9  -6    0.80    3.60
   3   9  -6    7.60    3.40
  -3  -9   6   -3.80    4.20
  -3  -9   6    1.40    3.80
   2   9  -6    5.80    3.20
   2   9  -6    7.80    2.70
   2   9  -6    3.30    2.80
  -2  -9   6    4.90    3.30
  -2  -9   6   17.20    4.50
   1   9  -6   -2.40    2.20
   1   9  -6    1.70    2.70
   1   9  -6   -1.10    2.20
  -1  -9   6    0.20    3.10
   0   9  -6    4.30    1.80
   0   9  -6   -3.30    2.30
   0   9  -6    1.30    1.90
   0  -9   6    0.40    3.40
   0  -9   6    2.90    3.70
   0  -9   6   -3.70    3.00
  -1   9  -6   10.20    1.70
  -1   9  -6   12.10    3.70
  -1   9  -6    8.50    2.10
   1  -9   6   11.00    4.70
   1  -9   6   11.60    3.70
  -2   9  -6   14.30    2.30
  -2   9  -6   20.40    2.60
  -2   9  -6   23.90    5.00
  -2   9  -6   16.10    2.80
   2  -9   6   14.60    4.80
   2  -9   6   16.60    5.70
  -3   9  -6   -2.40    2.30
  -3   9  -6    0.70    4.80
  -3   9  -6    1.40    2.70
   3  -9   6    7.30    6.00
  -4   9  -6    8.30    6.00
  -4   9  -6    8.80    4.10
   4  -9   6    7.10    7.30
   5   8  -6    1.80    4.90
   5   8  -6   -5.40    4.30
   5   8  -6    1.40    4.30
  -5  -8   6    3.30    4.40
  -5  -8   6   -2.20    6.30
  -5  -8   6   11.80    4.20
   4   8  -6   -8.20    3.30
   4   8  -6    4.30    3.50
   4   8  -6    2.30    3.50
  -4  -8   6    4.20    3.70
  -4  -8   6   -0.10    2.80
  -4  -8   6    4.20    4.00
   3   8  -6   -5.00    2.60
   3   8  -6    1.30    2.60
   3   8  -6    2.90    3.10
  -3  -8   6   -5.70    3.10
  -3  -8   6   -0.40    1.90
  -3  -8   6   -2.60    3.10
   2   8  -6    2.70    2.10
   2   8  -6    3.90    2.40
   2   8  -6    3.90    3.00
   2   8  -6    2.70    2.30
  -2  -8   6   -0.70    3.00
  -2  -8   6    1.50    3.10
   1   8  -6    2.50    1.80
   1   8  -6    2.80    1.90
   1   8  -6    5.80    2.40
   1   8  -6   -0.10    2.40
  -1  -8   6    5.60    2.80
  -1  -8   6    4.90    2.70
  -1  -8   6    1.60    2.80
   0   8  -6   -0.70    1.50
   0   8  -6    6.80    2.80
   0   8  -6    0.10    2.20
   0   8  -6   -0.60    1.40
   0   8  -6   -1.30    1.80
   0  -8   6    0.30    2.60
   0  -8   6   -0.10    2.40
   0  -8   6    2.90    2.90
  -1   8  -6   21.80    2.40
  -1   8  -6   20.50    3.40
  -1   8  -6   25.30    3.30
  -1   8  -6   20.40    3.00
  -1   8  -6   17.70    2.00
   1  -8   6   21.50    3.90
   1  -8   6   20.60    4.50
  -2   8  -6   10.70    2.20
  -2   8  -6   11.30    1.80
  -2   8  -6    9.20    1.70
  -2   8  -6   11.40    1.60
   2  -8   6   10.50    5.30
   2  -8   6   12.10    4.90
  -3   8  -6   -1.40    1.60
  -3   8  -6   -0.20    2.30
  -3   8  -6    2.00    2.10
  -3   8  -6   -0.80    3.80
   3  -8   6    0.70    4.80
  -4   8  -6    4.80    2.50
  -4   8  -6   10.80    5.30
  -4   8  -6    3.80    3.40
   4  -8   6    4.70    3.90
   4  -8   6    7.70    6.10
  -5   8  -6   29.10    7.30
   5  -8   6    5.60    4.50
   5  -8   6    4.90    7.60
   5   7  -6   12.00    4.60
   5   7  -6   17.10    4.30
   5   7  -6    8.90    4.10
  -5  -7   6   11.10    4.30
  -5  -7   6   15.00    3.90
  -5  -7   6   15.80    3.90
   4   7  -6    2.40    2.90
   4   7  -6    5.40    3.50
   4   7  -6    7.50    3.00
  -4  -7   6    7.80    2.90
  -4  -7   6   12.70    3.60
  -4  -7   6    7.90    3.20
   3   7  -6    7.60    2.40
   3   7  -6    8.70    2.80
   3   7  -6   12.10    3.00
  -3  -7   6    4.50    2.80
  -3  -7   6    8.60    2.00
  -3  -7   6   16.40    4.00
   2   7  -6    7.10    2.20
   2   7  -6   12.20    2.20
   2   7  -6   10.80    2.60
   2   7  -6   11.90    2.40
  -2  -7   6    9.70    2.70
  -2  -7   6    5.60    3.30
  -2  -7   6   15.30    3.30
  -2  -7   6   13.80    2.80
  -2  -7   6    8.70    1.50
   1   7  -6   29.80    3.40
   1   7  -6   25.20    2.60
   1   7  -6   23.10    3.60
   1   7  -6   28.00    2.90
   1   7  -6   30.20    2.80
  -1  -7   6   26.20    3.70
  -1  -7   6   27.80    3.50
  -1  -7   6   29.10    3.60
  -1  -7   6   28.10    3.00
   0   7  -6   16.40    2.10
   0   7  -6   16.50    2.10
   0   7  -6   19.10    2.30
   0   7  -6   23.50    2.90
   0   7  -6   16.60    2.70
   0  -7   6   19.80    3.50
   0  -7   6   21.30    3.30
   0  -7   6   19.10    3.20
  -1   7  -6    1.50    0.90
  -1   7  -6    1.20    1.60
  -1   7  -6   -1.90    1.40
  -1   7  -6   -2.70    2.00
  -1   7  -6    1.90    1.10
  -1   7  -6    0.70    0.70
  -1   7  -6   -0.80    1.20
   1  -7   6   -3.00    2.90
   1  -7   6    2.30    2.30
  -2   7  -6    1.70    1.60
  -2   7  -6    0.60    2.00
  -2   7  -6   -0.30    1.40
  -2   7  -6    4.30    1.50
  -2   7  -6    1.90    2.50
  -2   7  -6    3.60    1.30
   2  -7   6    5.80    4.00
   2  -7   6    1.10    2.70
  -3   7  -6    7.80    2.10
  -3   7  -6    7.30    3.50
  -3   7  -6    3.40    3.70
  -3   7  -6    7.00    1.60
  -3   7  -6    4.60    1.80
   3  -7   6    9.60    2.40
   3  -7   6   23.40    9.50
  -4   7  -6   21.10    5.10
  -4   7  -6   15.60    2.90
  -4   7  -6   12.00    2.40
  -4   7  -6   14.90    2.10
   4  -7   6   12.30    3.20
   4  -7   6   14.90    5.60
  -5   7  -6   -5.20    5.50
   5  -7   6   -4.60    3.50
   5  -7   6   -4.20    6.30
   6   6  -6    8.90    4.60
   6   6  -6    4.30    4.20
   6   6  -6    5.30    4.50
  -6  -6   6   13.50    6.30
  -6  -6   6   -0.50    4.40
   5   6  -6   -0.40    3.40
   5   6  -6   -0.60    3.20
   5   6  -6    8.30    3.20
   5   6  -6    3.60    3.60
  -5  -6   6    7.70    3.50
  -5  -6   6    9.60    2.90
  -5  -6   6    3.00    3.70
   4   6  -6   56.59    7.90
   4   6  -6   75.99    5.30
   4   6  -6   58.89    5.10
   4   6  -6   59.29    5.10
  -4  -6   6   66.59    4.80
  -4  -6   6   74.89    5.00
  -4  -6   6   64.69    5.80
   3   6  -6   75.79    5.00
   3   6  -6   68.89    4.60
   3   6  -6   68.69    4.40
  -3  -6   6   72.09    4.10
  -3  -6   6   51.79    5.90
  -3  -6   6   70.79    5.10
  -3  -6   6   66.09    4.60
   2   6  -6   19.20    3.10
   2   6  -6   18.90    2.40
   2   6  -6   16.30    2.30
  -2  -6   6   17.80    2.70
  -2  -6   6   22.20    2.80
  -2  -6   6   18.40    3.00
  -2  -6   6   15.80    2.10
  -2  -6   6   19.60    3.20
   1   6  -6   21.00    2.90
   1   6  -6   24.20    2.20
   1   6  -6   29.00    3.40
   1   6  -6   23.40    2.10
   1   6  -6   29.10    2.50
   1   6  -6   30.90    4.10
   1   6  -6   37.70    4.40
  -1  -6   6   21.30    1.80
  -1  -6   6   20.10    1.60
  -1  -6   6   21.30    2.90
  -1  -6   6   23.00    3.30
  -1  -6   6   24.90    2.80
  -1  -6   6   23.20    3.10
   0   6  -6   59.29    3.40
   0   6  -6   48.40    2.80
   0   6  -6   55.29    2.80
   0   6  -6   56.89    2.70
   0   6  -6   57.29    3.60
   0  -6   6   57.19    4.10
   0  -6   6   59.69    4.60
   0  -6   6   61.39    4.20
  -1   6  -6   12.10    1.50
  -1   6  -6   14.40    1.80
  -1   6  -6   11.80    1.40
  -1   6  -6   14.70    1.30
  -1   6  -6   10.70    1.90
  -1   6  -6   13.50    1.40
  -1   6  -6   13.70    2.20
   1  -6   6   14.10    3.10
   1  -6   6   14.80    2.70
  -2   6  -6   11.10    2.10
  -2   6  -6    9.50    1.10
  -2   6  -6    8.90    1.80
  -2   6  -6    7.60    2.20
  -2   6  -6   15.90    2.00
  -2   6  -6   10.30    2.00
   2  -6   6   14.50    3.10
   2  -6   6    9.10    1.80
   2  -6   6   15.70    3.80
  -3   6  -6    4.50    1.70
  -3   6  -6    0.50    2.80
  -3   6  -6    0.20    1.20
  -3   6  -6   -0.50    1.40
  -3   6  -6    3.60    1.50
  -3   6  -6    0.70    2.80
  -3   6  -6    4.90    3.10
   3  -6   6   -2.00    3.10
   3  -6   6    0.30    1.70
  -4   6  -6   18.50    2.30
  -4   6  -6   18.00    4.70
  -4   6  -6   20.40    2.50
  -4   6  -6   21.20    2.90
   4  -6   6   27.20    5.70
   4  -6   6   18.80    3.30
  -5   6  -6    0.80    3.50
  -5   6  -6    4.90    5.20
  -5   6  -6   -0.30    2.10
   5  -6   6    6.60    5.70
   5  -6   6    0.40    3.10
  -6   6  -6    4.80    6.70
   6  -6   6   -1.60    4.30
   6  -6   6    3.60    7.10
   6   5  -6    2.90    3.80
   6   5  -6    8.90    3.90
   6   5  -6   -2.80    4.20
  -6  -5   6    0.70    4.10
  -6  -5   6   -1.90    4.10
  -6  -5   6   17.50    5.80
   5   5  -6    5.70    3.00
   5   5  -6    3.70    2.80
   5   5  -6   -1.00    3.10
  -5  -5   6    0.60    2.90
  -5  -5   6   -1.40    2.10
  -5  -5   6   -2.10    3.70
  -5  -5   6    3.10    3.10
   4   5  -6    3.80    2.50
   4   5  -6    4.20    4.00
   4   5  -6    4.70    2.50
   4   5  -6    6.50    2.60
  -4  -5   6    1.50    2.30
  -4  -5   6    4.70    2.70
  -4  -5   6    9.50    2.10
  -4  -5   6    6.80    2.00
   3   5  -6   12.30    2.50
   3   5  -6   14.70    2.40
   3   5  -6   13.40    3.60
   3   5  -6   12.10    2.40
  -3  -5   6   16.70    3.70
  -3  -5   6   12.20    2.10
  -3  -5   6   13.40    2.80
  -3  -5   6   12.80    1.40
  -3  -5   6   12.80    1.40
  -3  -5   6   13.10    2.20
  -3  -5   6   15.10    3.00
   2   5  -6    2.60    1.30
   2   5  -6    1.00    3.00
   2   5  -6   -1.00    1.40
   2   5  -6    3.30    2.70
   2   5  -6    1.70    1.40
   2   5  -6   -1.10    2.70
  -2  -5   6    0.70    1.10
  -2  -5   6   -0.40    1.80
  -2  -5   6   -2.90    1.80
  -2  -5   6    0.20    1.60
  -2  -5   6    0.40    2.10
   1   5  -6   10.10    3.00
   1   5  -6    6.30    1.20
   1   5  -6    6.10    1.40
   1   5  -6    3.60    2.20
   1   5  -6    6.20    1.10
   1   5  -6   10.00    2.10
   1   5  -6    5.40    1.60
   1   5  -6    6.90    2.00
  -1  -5   6    6.90    1.90
  -1  -5   6    7.20    1.10
  -1  -5   6    4.00    1.70
  -1  -5   6    6.90    1.50
  -1  -5   6    4.80    1.50
  -1  -5   6    6.80    1.50
   0   5  -6   13.70    1.80
   0   5  -6   12.50    1.60
   0   5  -6   14.60    1.80
   0   5  -6   14.10    2.50
   0   5  -6   10.00    2.60
   0   5  -6   12.50    2.00
   0   5  -6   12.70    1.50
   0   5  -6   17.60    3.30
   0  -5   6   10.90    1.50
   0  -5   6   10.40    2.30
   0  -5   6    9.00    1.90
  -1   5  -6    0.90    0.80
  -1   5  -6   -2.10    2.10
  -1   5  -6    3.40    2.40
  -1   5  -6   -0.70    0.60
  -1   5  -6    4.30    3.10
  -1   5  -6   -0.70    1.00
  -1   5  -6   -0.30    1.10
  -1   5  -6    0.90    1.10
  -1   5  -6    1.20    0.80
   1  -5   6    2.20    2.00
   1  -5   6    0.30    1.60
  -2   5  -6  122.29    4.60
  -2   5  -6  119.29    3.30
  -2   5  -6  128.09    4.80
  -2   5  -6  124.99    4.80
  -2   5  -6  121.69    4.10
  -2   5  -6  120.09    3.30
   2  -5   6  117.59    4.60
   2  -5   6  124.19    6.10
   2  -5   6  118.39    6.80
  -3   5  -6   94.09    5.20
  -3   5  -6   88.79    3.70
  -3   5  -6   85.39    3.00
  -3   5  -6   94.49    6.10
  -3   5  -6   90.49    3.90
  -3   5  -6   93.29    3.90
  -3   5  -6   84.99    3.00
   3  -5   6   84.69    6.70
   3  -5   6   88.99    4.40
  -4   5  -6   24.50    2.60
  -4   5  -6   26.70    3.70
  -4   5  -6   31.10    5.10
  -4   5  -6   25.30    3.30
  -4   5  -6   24.30    2.70
   4  -5   6   25.20    5.10
   4  -5   6   24.60    3.40
  -5   5  -6   -3.20    3.00
  -5   5  -6    1.50    1.90
  -5   5  -6    0.00    4.20
   5  -5   6   -0.60    4.90
   5  -5   6    1.50    2.90
  -6   5  -6    3.50    6.10
  -6   5  -6    6.30    4.90
   6  -5   6    6.70    4.00
   6  -5   6    3.60    7.00
   6   4  -6    6.90    3.20
   6   4  -6   10.00    4.40
   6   4  -6    7.80    3.70
  -6  -4   6   11.50    4.50
  -6  -4   6    5.90    5.10
  -6  -4   6    2.80    3.80
   5   4  -6    4.40    2.70
   5   4  -6   -2.10    2.40
   5   4  -6    4.30    2.40
  -5  -4   6   12.70    5.70
  -5  -4   6    1.10    3.30
  -5  -4   6   -7.30    4.00
   4   4  -6    7.20    2.40
   4   4  -6    6.70    2.00
   4   4  -6    6.40    2.40
   4   4  -6    5.60    2.30
   4   4  -6    7.00    3.30
  -4  -4   6    2.50    1.50
  -4  -4   6    8.50    2.30
  -4  -4   6    4.10    2.70
  -4  -4   6    0.30    2.00
  -4  -4   6    8.10    2.60
   3   4  -6  237.28    8.00
   3   4  -6  238.08    7.80
   3   4  -6  234.68    8.00
  -3  -4   6  231.28    8.10
  -3  -4   6  221.38    8.20
  -3  -4   6  244.38    8.80
  -3  -4   6  234.58    7.70
  -3  -4   6  219.78    7.80
  -3  -4   6  229.48    7.00
  -3  -4   6  222.98    6.50
   2   4  -6    7.60    2.70
   2   4  -6    9.20    2.80
   2   4  -6   10.60    2.00
   2   4  -6    6.10    1.50
   2   4  -6    7.10    1.40
  -2  -4   6    7.10    1.40
  -2  -4   6    8.40    1.60
  -2  -4   6    7.60    1.40
  -2  -4   6    8.30    2.30
  -2  -4   6    6.60    1.70
  -2  -4   6    6.70    2.00
   1   4  -6    7.40    1.50
   1   4  -6    7.70    1.80
   1   4  -6    8.50    1.50
   1   4  -6    8.50    2.10
   1   4  -6    7.10    2.10
   1   4  -6    8.40    1.00
   1   4  -6    6.60    1.20
   1   4  -6    8.40    1.80
  -1  -4   6    9.70    1.50
  -1  -4   6    6.60    1.60
  -1  -4   6    7.20    1.10
  -1  -4   6    8.20    2.60
  -1  -4   6    6.10    1.50
  -1  -4   6    8.50    1.60
   0   4  -6   32.40    2.40
   0   4  -6   28.90    2.10
   0   4  -6   35.80    3.10
   0   4  -6   30.00    1.60
   0   4  -6   29.50    3.50
   0   4  -6   32.70    1.50
   0   4  -6   33.90    1.90
   0   4  -6   37.60    3.10
   0  -4   6   34.50    2.70
   0  -4   6   31.90    1.50
   0  -4   6   29.90    1.70
   0  -4   6   32.60    1.60
   0  -4   6   30.90    2.90
  -1   4  -6    0.90    0.90
  -1   4  -6    0.90    0.70
  -1   4  -6    1.50    1.60
  -1   4  -6    1.30    2.30
  -1   4  -6    2.00    1.00
  -1   4  -6    2.70    1.90
  -1   4  -6    0.10    0.70
  -1   4  -6    1.80    0.90
   1  -4   6    2.30    1.30
   1  -4   6    0.90    1.80
  -2   4  -6  135.19    4.70
  -2   4  -6  131.09    6.70
  -2   4  -6  131.29    6.30
  -2   4  -6  126.19    5.80
  -2   4  -6  138.59    4.80
  -2   4  -6  131.29    4.40
  -2   4  -6  131.09    4.70
  -2   4  -6  136.79    4.90
   2  -4   6  142.59    6.10
   2  -4   6  140.59    4.70
   2  -4   6  133.29    6.60
  -3   4  -6  221.38    8.90
  -3   4  -6  225.58    6.80
  -3   4  -6  220.38    6.70
  -3   4  -6  222.88    9.10
  -3   4  -6  215.98    5.70
  -3   4  -6  219.98    7.80
  -3   4  -6  216.08    6.60
   3  -4   6  208.48    9.40
   3  -4   6  219.78    7.20
  -4   4  -6    0.00    3.00
  -4   4  -6    2.90    1.50
  -4   4  -6    5.70    1.60
  -4   4  -6    3.80    1.90
  -4   4  -6    3.10    2.40
   4  -4   6    4.60    2.10
   4  -4   6    2.20    3.10
  -5   4  -6   22.30    3.00
  -5   4  -6   31.40    6.10
  -5   4  -6   22.50    3.80
   5  -4   6   23.20    3.90
   5  -4   6   22.50    5.80
  -6   4  -6   10.10    4.60
  -6   4  -6    1.40    5.40
   6  -4   6   -1.20    3.90
   6  -4   6   -1.70    5.20
   7   3  -6   -0.60    4.30
   7   3  -6    5.30    5.10
  -7  -3   6    1.10    6.50
  -7  -3   6   -5.20    4.80
   6   3  -6    1.80    2.50
   6   3  -6    0.80    3.50
   6   3  -6   -0.30    3.20
  -6  -3   6    4.90    4.50
  -6  -3   6   -8.70    3.30
   5   3  -6    5.50    2.40
   5   3  -6    4.60    2.10
   5   3  -6    2.10    2.40
  -5  -3   6    0.30    4.30
  -5  -3   6    1.10    3.20
  -5  -3   6    5.60    3.10
   4   3  -6   40.80    3.20
   4   3  -6   36.40    3.10
   4   3  -6   31.20    3.40
  -4  -3   6   32.00    3.50
  -4  -3   6   38.70    3.90
  -4  -3   6   38.30    4.80
  -4  -3   6   34.60    2.00
   3   3  -6  427.66   12.10
   3   3  -6  412.36   11.80
   3   3  -6  409.26   12.00
   3   3  -6  419.86   11.10
  -3  -3   6  430.16   12.40
  -3  -3   6  398.56   11.90
  -3  -3   6  416.26   12.60
  -3  -3   6  424.96   13.10
  -3  -3   6  429.96   12.00
  -3  -3   6  456.75   11.40
   2   3  -6  351.96   10.80
   2   3  -6  351.76   10.30
   2   3  -6  336.27    9.80
   2   3  -6  330.77    9.70
   2   3  -6  353.56    9.60
  -2  -3   6  330.57    8.30
  -2  -3   6  336.77    9.10
  -2  -3   6  353.36   10.10
  -2  -3   6  330.47    8.80
  -2  -3   6  336.57   10.10
  -2  -3   6  354.86    9.50
  -2  -3   6  344.17    9.50
   1   3  -6    3.90    1.10
   1   3  -6    4.40    1.30
   1   3  -6    4.20    0.60
   1   3  -6    3.80    1.00
   1   3  -6    4.80    1.50
   1   3  -6    2.40    1.70
   1   3  -6    4.70    1.60
   1   3  -6    3.60    1.10
  -1  -3   6    2.50    1.40
  -1  -3   6    2.90    1.30
  -1  -3   6    3.40    1.30
  -1  -3   6    2.90    0.90
  -1  -3   6    4.60    1.20
   0   3  -6   40.50    1.30
   0   3  -6   41.20    1.30
   0   3  -6   37.10    2.70
   0   3  -6   42.90    2.40
   0   3  -6   37.10    2.20
   0   3  -6   42.90    2.10
   0   3  -6   39.20    2.80
   0  -3   6   46.70    2.80
   0  -3   6   40.00    2.10
   0  -3   6   47.50    3.00
   0  -3   6   36.50    2.80
   0  -3   6   39.80    1.60
   0  -3   6   35.90    2.70
  -1   3  -6    3.70    0.80
  -1   3  -6    2.80    0.90
  -1   3  -6    3.50    0.80
  -1   3  -6    1.70    1.50
  -1   3  -6    1.60    1.40
  -1   3  -6    4.60    1.10
   1  -3   6    2.80    0.70
   1  -3   6    3.00    1.60
   1  -3   6    2.60    0.60
   1  -3   6    1.00    1.30
   1  -3   6    3.00    0.60
   1  -3   6    2.70    1.50
  -2   3  -6    6.70    1.20
  -2   3  -6    6.20    2.30
  -2   3  -6    5.50    1.20
  -2   3  -6    6.10    1.70
  -2   3  -6    4.20    1.10
  -2   3  -6    6.00    1.50
  -2   3  -6    4.00    1.80
   2  -3   6    6.40    2.00
   2  -3   6    5.40    1.10
   2  -3   6    4.70    1.50
  -3   3  -6    5.10    2.20
  -3   3  -6    3.20    2.00
  -3   3  -6    4.50    0.90
  -3   3  -6    3.50    1.30
  -3   3  -6    5.70    1.70
  -3   3  -6    9.30    2.70
  -3   3  -6    4.30    1.30
   3  -3   6    6.30    2.40
   3  -3   6    6.10    1.80
   3  -3   6    2.40    1.40
  -4   3  -6   14.40    3.40
  -4   3  -6    7.50    2.40
  -4   3  -6    7.20    1.60
  -4   3  -6    6.10    2.10
  -4   3  -6    8.50    1.70
  -4   3  -6    1.80    2.70
   4  -3   6    9.10    3.40
   4  -3   6    7.10    2.20
   4  -3   6    6.30    2.10
  -5   3  -6   16.40    3.40
  -5   3  -6   15.50    2.30
  -5   3  -6   30.10    5.30
  -5   3  -6   16.90    4.30
  -5   3  -6   23.20    3.00
   5  -3   6   19.50    3.30
   5  -3   6   14.90    4.40
   5  -3   6   14.10    2.80
  -6   3  -6   11.10    4.20
  -6   3  -6   11.90    5.50
   6  -3   6    3.30    3.50
   6  -3   6    5.70    5.10
  -7   3  -6  -12.40    5.70
  -7   3  -6   -3.90    7.30
   7  -3   6    4.40    6.90
   7  -3   6    0.50    4.70
   7   2  -6   -0.50    4.80
   7   2  -6   -1.70    4.00
  -7  -2   6   -3.10    4.50
  -7  -2   6    2.90    6.00
   6   2  -6    1.00    2.00
   6   2  -6   -4.20    2.90
   6   2  -6    2.00    3.30
  -6  -2   6   -1.10    3.40
  -6  -2   6    2.30    4.30
   5   2  -6    1.70    1.70
   5   2  -6    2.00    2.40
   5   2  -6    3.50    2.10
  -5  -2   6   -3.60    3.00
  -5  -2   6    2.10    2.60
   4   2  -6   20.20    2.60
   4   2  -6   18.20    2.30
   4   2  -6   20.10    2.80
  -4  -2   6   15.30    2.90
  -4  -2   6   22.10    3.10
   3   2  -6   58.59    3.40
   3   2  -6   67.89    4.70
   3   2  -6   62.19    3.00
   3   2  -6   59.69    3.20
   3   2  -6   59.29    4.50
  -3  -2   6   57.19    3.80
  -3  -2   6   61.39    4.30
  -3  -2   6   56.09    4.30
  -3  -2   6   59.89    3.70
  -3  -2   6   58.99    3.50
   2   2  -6   54.59    2.90
   2   2  -6   57.19    3.60
   2   2  -6   52.69    2.90
   2   2  -6   53.99    2.20
   2   2  -6   50.79    3.80
  -2  -2   6   51.09    2.80
  -2  -2   6   47.40    2.40
  -2  -2   6   54.99    3.00
  -2  -2   6   54.99    3.40
  -2  -2   6   55.69    3.00
   1   2  -6    3.90    1.00
   1   2  -6    3.50    1.20
   1   2  -6    2.80    0.90
   1   2  -6    4.10    1.70
   1   2  -6    2.60    0.90
  -1  -2   6    2.90    0.90
  -1  -2   6    4.80    1.50
  -1  -2   6    3.30    1.30
  -1  -2   6    3.80    0.90
  -1  -2   6    3.90    0.60
  -1  -2   6    2.20    0.90
   0   2  -6    0.10    0.40
   0   2  -6    2.00    1.20
   0   2  -6   -0.30    0.90
   0   2  -6    0.80    0.70
   0   2  -6    0.40    0.60
   0   2  -6    0.30    0.80
   0  -2   6    2.70    1.10
   0  -2   6    0.20    0.80
   0  -2   6   -0.20    0.80
   0  -2   6    0.10    0.40
   0  -2   6   -0.40    0.50
   0  -2   6   -0.90    0.60
  -1   2  -6    2.70    0.90
  -1   2  -6    2.50    0.80
  -1   2  -6    1.70    0.70
  -1   2  -6    1.60    0.70
  -1   2  -6    0.50    1.20
  -1   2  -6    0.80    1.10
   1  -2   6    2.60    1.10
   1  -2   6    2.20    0.70
   1  -2   6    3.50    0.90
   1  -2   6   -0.30    1.00
   1  -2   6    1.70    0.50
  -2   2  -6   90.29    3.50
  -2   2  -6   92.59    4.30
  -2   2  -6   88.59    3.30
  -2   2  -6   86.79    3.40
  -2   2  -6   90.69    3.70
   2  -2   6   83.79    3.70
   2  -2   6   84.79    4.50
   2  -2   6   88.89    2.70
   2  -2   6   93.49    3.70
   2  -2   6   86.79    3.30
  -3   2  -6  218.68    8.40
  -3   2  -6  222.38    5.90
  -3   2  -6  223.28    7.00
  -3   2  -6  226.78    7.90
  -3   2  -6  213.78    7.90
  -3   2  -6  237.78    7.60
  -3   2  -6  222.58    6.70
  -3   2  -6  223.08    7.00
   3  -2   6  223.08    7.00
   3  -2   6  223.18    8.60
   3  -2   6  225.88    6.80
   3  -2   6  224.28    5.70
  -4   2  -6    8.60    2.30
  -4   2  -6   12.70    1.80
  -4   2  -6    9.40    1.80
  -4   2  -6    9.30    3.00
  -4   2  -6    8.10    2.80
  -4   2  -6   11.80    2.50
   4  -2   6    9.50    2.20
   4  -2   6    8.80    1.20
   4  -2   6   11.00    3.20
   4  -2   6   11.70    1.90
  -5   2  -6   45.30    4.00
  -5   2  -6   43.10    3.40
  -5   2  -6   37.70    5.20
  -5   2  -6   41.50    4.70
  -5   2  -6   51.49    6.10
   5  -2   6   48.60    4.10
   5  -2   6   43.20    2.40
   5  -2   6   46.00    6.00
   5  -2   6   43.80    2.00
   5  -2   6   38.00    3.40
  -6   2  -6    3.50    3.90
  -6   2  -6    0.20    4.80
   6  -2   6   -0.80    4.50
   6  -2   6    6.40    3.20
  -7   2  -6   -7.90    6.50
  -7   2  -6  -10.30    5.40
   7  -2   6   10.40    6.20
   7  -2   6   11.00    4.90
   7   1  -6   10.60    4.70
   7   1  -6   -8.60    3.60
  -7  -1   6    1.30    6.00
  -7  -1   6    2.00    4.60
   6   1  -6    6.50    1.80
   6   1  -6    2.10    3.20
   6   1  -6    8.20    3.10
  -6  -1   6    6.30    4.30
  -6  -1   6    2.00    3.40
   5   1  -6   -0.20    2.00
   5   1  -6    0.00    2.10
   5   1  -6    0.80    1.20
  -5  -1   6   -1.80    2.20
  -5  -1   6   -0.90    2.70
   4   1  -6   11.90    2.20
   4   1  -6   14.00    1.90
   4   1  -6   11.70    2.00
  -4  -1   6   17.30    3.20
  -4  -1   6   12.90    2.50
   3   1  -6   31.20    2.50
   3   1  -6   33.20    3.90
   3   1  -6   32.50    2.20
   3   1  -6   33.00    3.90
   3   1  -6   34.60    2.20
  -3  -1   6   33.50    3.50
  -3  -1   6   32.80    2.40
  -3  -1   6   37.60    3.20
  -3  -1   6   31.10    1.80
  -3  -1   6   28.60    2.60
  -3  -1   6   34.30    3.20
   2   1  -6  101.89    4.80
   2   1  -6  103.89    4.60
   2   1  -6  110.69    4.10
   2   1  -6   99.99    3.80
   2   1  -6  104.19    3.40
  -2  -1   6  105.69    4.10
  -2  -1   6  102.29    4.00
  -2  -1   6  108.59    4.50
  -2  -1   6  106.79    4.40
  -2  -1   6  107.59    4.80
  -2  -1   6   98.59    3.60
  -2  -1   6  100.99    4.10
   1   1  -6  201.88    6.70
   1   1  -6  198.58    5.60
   1   1  -6  192.18    5.80
   1   1  -6  205.78    6.10
   1   1  -6  194.08    5.90
   1   1  -6  199.88    4.70
  -1  -1   6  191.88    5.90
  -1  -1   6  206.98    6.30
  -1  -1   6  201.48    5.30
  -1  -1   6  208.28    5.60
  -1  -1   6  205.98    6.10
  -1  -1   6  200.48    6.00
   0   1  -6    5.20    0.70
   0   1  -6    5.10    0.90
   0   1  -6    4.90    0.80
   0   1  -6    5.10    1.00
   0   1  -6    6.30    1.20
   0  -1   6    4.30    0.60
   0  -1   6    4.60    0.70
   0  -1   6    4.80    1.10
   0  -1   6    4.10    1.10
   0  -1   6    2.50    0.80
  -1   1  -6    0.90    0.90
  -1   1  -6    0.50    0.60
  -1   1  -6    0.40    0.70
  -1   1  -6   -0.20    0.60
  -1   1  -6    1.20    0.80
   1  -1   6    0.30    0.80
   1  -1   6    0.20    0.40
   1  -1   6    0.20    0.80
   1  -1   6    0.90    0.80
   1  -1   6    1.40    0.60
  -2   1  -6    2.00    0.40
  -2   1  -6    2.50    0.90
  -2   1  -6    3.10    1.40
  -2   1  -6    0.60    1.00
  -2   1  -6    2.30    1.10
  -2   1  -6    2.90    1.00
   2  -1   6    3.00    0.80
   2  -1   6    2.00    0.90
   2  -1   6    2.60    1.00
   2  -1   6    1.90    1.00
  -3   1  -6  217.38    7.10
  -3   1  -6  217.28    6.70
  -3   1  -6  229.48    7.70
  -3   1  -6  227.78    7.50
  -3   1  -6  214.58    5.90
  -3   1  -6  223.68    7.40
  -3   1  -6  216.48    8.30
  -3   1  -6  227.58    7.00
   3  -1   6  226.68    8.20
   3  -1   6  214.18    6.60
   3  -1   6  199.58    6.80
   3  -1   6  222.58    6.80
   3  -1   6  223.58    6.50
  -4   1  -6  574.34   17.30
  -4   1  -6  596.74   17.10
  -4   1  -6  590.24   14.40
  -4   1  -6  560.54   14.90
  -4   1  -6  561.84   15.40
  -4   1  -6  550.84   15.30
  -4   1  -6  562.54   15.70
   4  -1   6  575.24   14.00
   4  -1   6  566.74   16.90
   4  -1   6  567.94   15.40
   4  -1   6  581.74   14.30
   4  -1   6  555.94   14.50
  -5   1  -6    2.70    2.60
  -5   1  -6    1.10    2.50
  -5   1  -6    0.30    2.80
  -5   1  -6    1.50    2.20
   5  -1   6    0.30    1.60
   5  -1   6   -4.10    1.90
   5  -1   6   -0.60    1.70
   5  -1   6    0.90    1.60
   5  -1   6   -2.50    2.80
  -6   1  -6    8.30    4.10
  -6   1  -6   13.40    5.50
   6  -1   6    5.10    3.30
   6  -1   6   11.60    2.40
   6  -1   6   17.20    4.80
  -7   1  -6   -8.10    5.10
  -7   1  -6   -4.40    5.80
   7  -1   6    0.00    5.60
   7  -1   6   -0.50    4.10
   7   0  -6    0.70    4.40
   7   0  -6    0.90    3.60
  -7   0   6    8.70    5.50
  -7   0   6    0.30    4.70
   6   0  -6   11.40    1.80
   6   0  -6   10.90    3.20
   6   0  -6    6.70    3.00
   6   0  -6   11.70    3.50
  -6   0   6   13.00    3.80
  -6   0   6   12.20    4.50
   5   0  -6    4.30    2.00
   5   0  -6    2.60    2.20
   5   0  -6    3.50    1.30
  -5   0   6    1.90    2.70
  -5   0   6    2.00    2.30
   4   0  -6   26.00    2.60
   4   0  -6   20.20    2.70
   4   0  -6   22.60    1.90
  -4   0   6   20.70    2.80
  -4   0   6   21.60    2.40
  -4   0   6   24.30    3.50
   3   0  -6  104.29    4.00
   3   0  -6   97.99    5.40
   3   0  -6   99.79    3.60
   3   0  -6  105.89    4.30
   3   0  -6  109.99    5.30
  -3   0   6  111.69    4.70
  -3   0   6  101.79    5.00
  -3   0   6  100.99    4.50
  -3   0   6  101.39    3.80
  -3   0   6  112.49    5.00
  -3   0   6  100.59    4.30
   2   0  -6  351.66    9.20
   2   0  -6  358.46   10.10
   2   0  -6  348.37   10.40
   2   0  -6  332.07    9.20
   2   0  -6  355.26    9.60
  -2   0   6  353.26    9.90
  -2   0   6  361.06    9.60
  -2   0   6  362.86    9.60
  -2   0   6  369.26    9.70
  -2   0   6  352.66    9.40
  -2   0   6  353.56    9.80
  -2   0   6  353.56   10.40
   1   0  -6  346.17    9.40
   1   0  -6  371.36   10.20
   1   0  -6  357.56    8.60
   1   0  -6  356.66    9.40
   1   0  -6  373.36    9.70
  -1   0   6  366.16    9.60
  -1   0   6  358.86    8.60
  -1   0   6  365.66    9.50
  -1   0   6  375.96    9.60
  -1   0   6  375.86    9.60
   0   0  -6   20.80    1.50
   0   0  -6   25.10    1.70
   0   0  -6   27.40    1.60
   0   0  -6   22.20    1.40
   0   0  -6   22.10    1.50
   0   0   6   23.80    1.70
   0   0   6   23.00    1.50
   0   0   6   23.90    0.90
   0   0   6   25.20    1.60
   0   0   6   26.60    1.70
  -1   0  -6  424.96   10.90
  -1   0  -6  436.76   10.90
  -1   0  -6  434.56   10.80
  -1   0  -6  424.56   10.80
   1   0   6  422.46   10.80
   1   0   6  413.96    9.80
   1   0   6  424.16   10.50
   1   0   6  404.86   11.00
   1   0   6  410.26   10.80
   1   0   6  440.66   10.80
  -2   0  -6   19.40    2.10
  -2   0  -6   19.80    1.90
  -2   0  -6   17.00    1.10
  -2   0  -6   18.50    1.70
  -2   0  -6   17.80    1.70
  -2   0  -6   19.70    1.90
   2   0   6   15.10    1.80
   2   0   6   16.50    1.10
   2   0   6   17.10    1.50
   2   0   6   12.40    1.80
   2   0   6   21.60    1.70
  -3   0  -6   13.40    1.70
  -3   0  -6   15.60    2.60
  -3   0  -6   10.50    2.00
  -3   0  -6   14.10    1.80
  -3   0  -6   14.80    2.30
  -3   0  -6   15.80    2.40
  -3   0  -6   10.80    1.80
   3   0   6   13.40    1.80
   3   0   6   13.80    1.70
   3   0   6   13.90    1.70
   3   0   6   14.70    1.70
   3   0   6   15.20    2.00
  -4   0  -6   11.30    2.30
  -4   0  -6   20.30    3.50
  -4   0  -6   17.40    2.90
  -4   0  -6   15.20    3.00
  -4   0  -6   13.00    2.30
  -4   0  -6   11.60    2.00
  -4   0  -6   15.70    2.00
   4   0   6   11.50    1.90
   4   0   6   15.20    2.40
   4   0   6   12.80    2.10
   4   0   6   13.70    1.90
   4   0   6   12.00    1.70
   4   0   6   12.30    2.70
  -5   0  -6   -0.40    2.40
  -5   0  -6    2.20    3.20
  -5   0  -6   -1.70    2.20
  -5   0  -6    1.70    2.20
   5   0   6    1.10    2.00
   5   0   6    0.40    2.90
   5   0   6    0.10    1.60
   5   0   6    1.50    2.10
   5   0   6    1.90    2.10
  -6   0  -6    3.70    4.60
  -6   0  -6    0.40    3.40
   6   0   6   -0.90    3.70
   6   0   6    7.00    2.50
  -7   0  -6   -0.60    6.40
  -7   0  -6   -0.70    4.90
   7   0   6    5.10    3.40
   7   0   6    0.50    4.20
   7   0   6    8.40    5.60
   7  -1  -6    1.80    4.30
   7  -1  -6    3.80    3.50
  -7   1   6    6.90    4.60
  -7   1   6   -5.80    5.10
   6  -1  -6    6.20    2.70
   6  -1  -6    0.90    3.40
  -6   1   6   -0.10    3.90
  -6   1   6    1.40    3.30
   5  -1  -6    9.90    1.50
   5  -1  -6   10.40    2.20
   5  -1  -6   14.20    2.70
  -5   1   6    4.00    2.90
  -5   1   6    4.40    2.50
  -5   1   6    9.10    2.60
   4  -1  -6   -0.30    0.80
   4  -1  -6    3.90    1.60
   4  -1  -6    2.50    3.10
   4  -1  -6    0.60    1.20
  -4   1   6    0.00    1.70
  -4   1   6   -0.80    1.70
  -4   1   6   -0.50    1.90
   3  -1  -6   57.49    3.00
   3  -1  -6   56.29    2.50
   3  -1  -6   56.29    4.30
   3  -1  -6   60.29    4.10
   3  -1  -6   61.89    3.10
  -3   1   6   52.59    3.70
  -3   1   6   56.09    3.30
  -3   1   6   59.29    3.30
  -3   1   6   57.59    3.00
  -3   1   6   57.69    3.70
  -3   1   6   50.89    3.10
  -3   1   6   61.99    3.60
   2  -1  -6  166.28    5.70
   2  -1  -6  167.38    5.20
   2  -1  -6  155.68    4.80
   2  -1  -6  163.78    4.90
   2  -1  -6  160.18    5.90
  -2   1   6  155.28    5.80
  -2   1   6  158.98    5.30
  -2   1   6  161.28    5.00
  -2   1   6  158.38    5.30
  -2   1   6  159.08    5.40
  -2   1   6  161.68    5.00
   1  -1  -6  208.38    6.00
   1  -1  -6  210.58    6.00
   1  -1  -6  212.88    6.60
   1  -1  -6  216.08    6.20
   1  -1  -6  217.28    6.10
   1  -1  -6  203.98    5.50
  -1   1   6  208.58    5.70
  -1   1   6  214.18    5.90
  -1   1   6  207.48    6.00
  -1   1   6  193.68    6.10
  -1   1   6  208.98    5.50
  -1   1   6  210.08    6.10
   0  -1  -6  140.29    4.40
   0  -1  -6  140.39    4.40
   0  -1  -6  137.49    4.00
   0  -1  -6  132.29    4.30
   0   1   6  136.29    4.00
   0   1   6  144.29    4.30
   0   1   6  138.39    4.30
   0   1   6  134.99    4.20
   0   1   6  137.69    4.40
   0   1   6  137.89    3.80
  -1  -1  -6   97.99    3.40
  -1  -1  -6   93.49    3.30
  -1  -1  -6   90.49    3.50
  -1  -1  -6  100.09    3.60
  -1  -1  -6   92.39    3.50
   1   1   6   98.49    3.40
   1   1   6   93.29    3.50
   1   1   6   92.89    3.00
   1   1   6   96.69    3.40
   1   1   6   93.39    3.60
  -2  -1  -6  959.40   22.80
  -2  -1  -6  960.40   22.70
  -2  -1  -6  932.41   22.90
  -2  -1  -6  914.11   22.80
  -2  -1  -6  956.90   22.60
  -2  -1  -6  941.41   21.90
   2   1   6  969.80   22.40
   2   1   6  930.11   22.80
   2   1   6  987.50   22.50
   2   1   6  923.51   23.00
  -3  -1  -6    2.80    1.10
  -3  -1  -6    1.10    1.10
  -3  -1  -6    3.60    1.70
  -3  -1  -6    1.00    1.20
  -3  -1  -6    2.00    1.50
  -3  -1  -6    3.50    1.60
   3   1   6    1.20    1.30
   3   1   6    2.40    1.10
   3   1   6    1.20    0.90
   3   1   6   -1.10    1.20
  -4  -1  -6   24.40    2.80
  -4  -1  -6   24.00    2.60
  -4  -1  -6   25.80    3.60
  -4  -1  -6   21.20    3.00
  -4  -1  -6   21.60    2.70
  -4  -1  -6   24.20    3.10
   4   1   6   22.00    2.20
   4   1   6   23.80    2.90
   4   1   6   23.70    3.00
   4   1   6   27.80    2.50
  -5  -1  -6   16.90    3.00
  -5  -1  -6   18.30    3.90
  -5  -1  -6   17.40    2.30
  -5  -1  -6   13.40    3.20
   5   1   6   19.70    2.50
   5   1   6   12.20    3.40
   5   1   6   13.80    2.80
   5   1   6   19.00    2.40
   5   1   6   21.30    3.20
   5   1   6   22.40    3.30
  -6  -1  -6    0.50    3.60
  -6  -1  -6    3.80    4.70
   6   1   6    7.10    3.10
   6   1   6    4.20    3.60
   6   1   6   -1.60    4.80
  -7  -1  -6   17.10    5.30
  -7  -1  -6   25.60    6.90
   7   1   6    6.20    5.90
   7   1   6   24.80    5.00
   7   1   6    9.30    4.50
   7  -2  -6   -1.10    4.30
   7  -2  -6   -2.90    3.40
  -7   2   6    1.80    5.60
  -7   2   6   -0.60    4.50
   6  -2  -6   -0.30    2.40
   6  -2  -6    1.80    3.10
   6  -2  -6   -1.00    3.80
  -6   2   6    0.30    3.90
  -6   2   6    2.50    3.20
   5  -2  -6    7.20    1.90
   5  -2  -6    1.60    2.40
   5  -2  -6    5.50    2.80
   5  -2  -6    4.50    1.10
  -5   2   6    5.40    2.80
  -5   2   6    8.50    3.40
  -5   2   6    4.00    2.40
   4  -2  -6   14.40    3.40
   4  -2  -6   14.60    2.40
   4  -2  -6   13.80    1.90
  -4   2   6    7.90    2.30
  -4   2   6   15.10    2.60
  -4   2   6   14.80    2.50
  -4   2   6   12.80    2.80
   3  -2  -6    1.20    2.00
   3  -2  -6   -0.50    0.80
   3  -2  -6   -4.70    1.90
   3  -2  -6   -0.40    1.10
   3  -2  -6    0.40    0.90
  -3   2   6    0.00    1.20
  -3   2   6    1.40    1.80
  -3   2   6    3.90    1.90
  -3   2   6   -0.20    1.40
  -3   2   6   -2.30    1.10
  -3   2   6    0.40    0.90
  -3   2   6    0.40    1.20
   2  -2  -6   11.10    1.50
   2  -2  -6   10.60    1.90
   2  -2  -6    9.10    1.30
   2  -2  -6   16.50    2.30
   2  -2  -6    8.80    0.90
   2  -2  -6    9.50    1.30
  -2   2   6   10.10    1.30
  -2   2   6   10.60    1.80
  -2   2   6   11.80    1.60
  -2   2   6   11.60    1.70
  -2   2   6   10.70    1.60
  -2   2   6   12.10    1.70
   1  -2  -6  112.39    3.90
   1  -2  -6  117.29    4.10
   1  -2  -6  116.89    4.20
   1  -2  -6  115.39    3.90
   1  -2  -6  119.99    4.20
  -1   2   6  111.09    4.00
  -1   2   6  122.69    3.80
  -1   2   6  117.79    3.80
  -1   2   6  115.19    3.90
  -1   2   6  113.99    3.30
  -1   2   6  115.79    4.10
   0  -2  -6   -1.20    0.60
   0  -2  -6    0.70    0.80
   0  -2  -6    0.10    0.80
   0  -2  -6    0.40    0.60
   0  -2  -6   -0.30    0.40
   0   2   6    0.00    0.70
   0   2   6    0.60    0.70
   0   2   6    0.30    0.60
   0   2   6    0.40    0.70
   0   2   6    0.90    0.60
  -1  -2  -6   14.40    1.60
  -1  -2  -6   13.80    1.50
  -1  -2  -6   14.60    1.60
  -1  -2  -6   16.10    1.30
  -1  -2  -6   14.30    1.60
   1   2   6   13.90    1.40
   1   2   6   15.70    1.60
   1   2   6   16.50    1.50
   1   2   6   16.90    1.60
  -2  -2  -6  260.07    8.10
  -2  -2  -6  277.27    7.90
  -2  -2  -6  266.97    7.70
  -2  -2  -6  266.17    8.10
  -2  -2  -6  265.77    8.20
  -2  -2  -6  271.67    7.30
   2   2   6  270.57    7.60
   2   2   6  257.07    8.00
   2   2   6  265.57    7.30
   2   2   6  273.07    7.70
  -3  -2  -6   82.79    4.50
  -3  -2  -6   87.09    4.20
  -3  -2  -6   86.99    3.60
  -3  -2  -6   80.79    4.10
  -3  -2  -6   79.59    4.30
  -3  -2  -6   84.29    4.10
   3   2   6   80.29    4.10
   3   2   6   83.49    3.90
   3   2   6   82.29    4.40
   3   2   6   83.19    3.70
   3   2   6   81.89    3.50
  -4  -2  -6   12.80    2.80
  -4  -2  -6   13.20    2.10
  -4  -2  -6   11.80    2.60
   4   2   6   14.30    2.70
   4   2   6   14.90    2.70
   4   2   6    9.40    1.70
   4   2   6   13.60    2.10
  -5  -2  -6   -3.20    2.60
  -5  -2  -6   -1.50    1.20
  -5  -2  -6    1.70    2.90
   5   2   6   -1.10    2.30
   5   2   6   -0.10    1.70
   5   2   6    2.50    2.10
  -6  -2  -6    7.80    7.80
   6   2   6   -3.50    3.60
   6   2   6    1.70    3.10
   6   2   6   -0.70    3.30
   6   2   6    1.50    2.70
   6   2   6   -2.40    2.90
  -7  -2  -6    7.60    6.20
  -7  -2  -6    4.90    5.10
   7   2   6    3.50    4.90
   7   2   6    6.60    4.50
   7   2   6    3.70    4.10
   7  -3  -6    4.40    4.50
   7  -3  -6    5.40    3.30
  -7   3   6    7.40    5.70
  -7   3   6   12.30    4.70
  -7   3   6    2.60    5.30
   6  -3  -6    3.80    2.30
   6  -3  -6    2.90    3.40
   6  -3  -6   -2.30    4.00
  -6   3   6    1.70    3.30
  -6   3   6    3.20    4.00
  -6   3   6   -4.20    3.70
   5  -3  -6   33.80    4.10
   5  -3  -6   38.40    3.10
   5  -3  -6   39.30    5.00
   5  -3  -6   26.20    4.00
  -5   3   6   32.10    4.30
  -5   3   6   33.40    5.00
  -5   3   6   37.80    4.20
  -5   3   6   35.40    4.80
   4  -3  -6  167.48    7.50
   4  -3  -6  175.18    5.10
   4  -3  -6  169.78    5.80
   4  -3  -6  175.98    6.80
  -4   3   6  176.28    6.60
  -4   3   6  169.98    7.60
  -4   3   6  175.78    7.40
  -4   3   6  181.48    7.30
   3  -3  -6   97.29    5.20
   3  -3  -6   98.19    4.30
   3  -3  -6   88.39    4.10
   3  -3  -6   99.49    3.80
  -3   3   6   94.49    4.60
  -3   3   6   90.89    4.40
  -3   3   6  103.29    4.30
  -3   3   6  102.59    4.60
  -3   3   6   87.39    4.40
  -3   3   6   92.69    3.50
  -3   3   6   96.09    5.20
   2  -3  -6   13.10    1.90
   2  -3  -6   11.30    1.90
   2  -3  -6   11.00    1.50
   2  -3  -6   10.70    1.50
   2  -3  -6   11.80    1.50
   2  -3  -6   10.40    1.20
  -2   3   6   12.40    1.90
  -2   3   6    9.00    1.40
  -2   3   6   11.60    1.60
  -2   3   6   10.70    1.30
  -2   3   6   15.60    2.00
  -2   3   6    8.30    1.50
   1  -3  -6   45.70    2.40
   1  -3  -6   45.30    2.30
   1  -3  -6   48.10    2.50
   1  -3  -6   43.90    2.40
   1  -3  -6   45.00    2.70
  -1   3   6   43.40    2.30
  -1   3   6   46.70    2.40
  -1   3   6   47.10    1.40
  -1   3   6   48.50    2.40
  -1   3   6   48.60    2.30
  -1   3   6   44.80    2.50
   0  -3  -6   95.49    3.40
   0  -3  -6   89.89    3.80
   0  -3  -6   96.99    3.50
   0   3   6   91.79    3.40
   0   3   6   94.69    3.60
   0   3   6   93.29    3.40
   0   3   6   94.09    3.40
   0   3   6   91.89    3.50
  -1  -3  -6  468.45   12.80
  -1  -3  -6  470.85   11.40
  -1  -3  -6  498.85   12.20
  -1  -3  -6  488.95   12.30
  -1  -3  -6  453.65   12.40
   1   3   6  463.45   12.20
   1   3   6  476.85   12.40
   1   3   6  493.15   12.20
   1   3   6  475.45   12.30
   1   3   6  474.55   12.10
  -2  -3  -6  185.78    6.70
  -2  -3  -6  198.48    6.30
  -2  -3  -6  199.78    6.00
  -2  -3  -6  198.48    6.30
  -2  -3  -6  185.78    6.30
   2   3   6  196.98    6.20
   2   3   6  199.68    6.30
   2   3   6  187.48    6.50
   2   3   6  188.18    6.40
   2   3   6  189.58    5.90
  -3  -3  -6   31.30    2.60
  -3  -3  -6   23.70    2.80
  -3  -3  -6   31.40    3.00
  -3  -3  -6   24.40    2.90
  -3  -3  -6   26.50    2.80
   3   3   6   27.20    2.30
   3   3   6   26.80    2.60
   3   3   6   25.20    2.60
   3   3   6   25.90    2.70
   3   3   6   27.50    3.00
  -4  -3  -6   28.40    3.10
  -4  -3  -6   21.90    3.20
  -4  -3  -6   21.90    3.20
   4   3   6   27.00    3.20
   4   3   6   23.90    3.30
   4   3   6   29.00    2.70
   4   3   6   24.30    3.30
  -5  -3  -6    1.00    2.70
  -5  -3  -6    2.60    3.10
   5   3   6   -1.70    2.40
   5   3   6    2.50    2.60
   5   3   6   -0.60    1.90
  -6  -3  -6   -3.70    7.50
  -6  -3  -6   -1.90    3.30
   6   3   6   -1.50    3.10
   6   3   6   -0.70    2.50
   6   3   6   -0.70    3.30
  -7  -3  -6   -8.60    4.80
  -7  -3  -6    3.30    5.70
   7   3   6    5.00    4.40
   7   3   6   11.20    5.10
   7   3   6    3.20    4.00
   7   3   6    2.70    4.40
   6  -4  -6    0.90    2.30
   6  -4  -6    0.00    3.30
   6  -4  -6   -1.00    4.60
  -6   4   6    4.40    3.30
  -6   4   6    0.20    4.10
  -6   4   6    1.60    4.30
   5  -4  -6   11.10    2.00
   5  -4  -6   10.00    3.90
   5  -4  -6    4.50    3.70
   5  -4  -6   13.90    3.30
  -5   4   6   13.10    3.40
  -5   4   6   14.80    3.20
  -5   4   6   18.60    4.20
   4  -4  -6   35.10    3.60
   4  -4  -6   40.40    4.50
   4  -4  -6   38.60    2.70
   4  -4  -6   29.20    5.10
   4  -4  -6   37.10    4.40
  -4   4   6   37.00    4.90
  -4   4   6   35.20    3.70
  -4   4   6   37.00    3.30
  -4   4   6   35.20    3.90
   3  -4  -6  134.39    6.20
   3  -4  -6  128.19    5.40
   3  -4  -6  133.59    4.50
   3  -4  -6  139.69    5.50
  -3   4   6  136.19    5.20
  -3   4   6  131.09    4.10
  -3   4   6  126.89    5.60
  -3   4   6  133.09    5.70
  -3   4   6  125.79    5.40
  -3   4   6  137.89    6.60
  -3   4   6  136.09    5.10
   2  -4  -6   27.30    2.30
   2  -4  -6   27.00    2.60
   2  -4  -6   25.10    2.10
   2  -4  -6   27.50    2.20
   2  -4  -6   25.60    1.90
   2  -4  -6   25.70    2.40
  -2   4   6   23.80    2.10
  -2   4   6   25.30    2.20
  -2   4   6   26.80    2.10
  -2   4   6   26.10    2.40
  -2   4   6   27.40    2.60
  -2   4   6   23.90    1.80
   1  -4  -6   22.30    2.10
   1  -4  -6   23.90    2.40
   1  -4  -6   20.60    1.80
   1  -4  -6   22.50    1.90
   1  -4  -6   24.00    2.00
  -1   4   6   21.10    1.70
  -1   4   6   22.30    1.80
  -1   4   6   22.30    2.00
  -1   4   6   23.40    2.10
  -1   4   6   27.10    1.90
   0  -4  -6  368.16   10.00
   0  -4  -6  360.56    9.00
   0  -4  -6  343.47    9.70
   0  -4  -6  355.96    9.40
   0   4   6  344.07    9.80
   0   4   6  359.36    9.90
   0   4   6  380.96    9.90
   0   4   6  372.36    9.80
   0   4   6  375.56    9.80
   0   4   6  360.36    9.60
  -1  -4  -6  261.97    7.30
  -1  -4  -6  249.68    8.40
  -1  -4  -6  275.67    7.90
  -1  -4  -6  280.17    7.60
  -1  -4  -6  265.27    8.00
   1   4   6  279.07    7.80
   1   4   6  259.07    7.80
   1   4   6  271.87    7.90
   1   4   6  267.67    7.90
   1   4   6  275.07    8.10
  -2  -4  -6   50.29    2.90
  -2  -4  -6   44.40    3.10
  -2  -4  -6   44.20    2.90
  -2  -4  -6   41.00    2.90
  -2  -4  -6   43.00    2.70
   2   4   6   44.90    3.10
   2   4   6   41.40    2.70
   2   4   6   40.60    2.90
   2   4   6   44.50    2.90
  -3  -4  -6   37.40    3.10
  -3  -4  -6   30.10    2.90
  -3  -4  -6   35.90    3.10
  -3  -4  -6   34.00    3.30
  -3  -4  -6   37.10    3.30
   3   4   6   29.60    3.10
   3   4   6   30.20    3.30
   3   4   6   31.50    3.20
   3   4   6   29.30    2.60
   3   4   6   28.30    3.10
  -4  -4  -6   19.80    3.10
  -4  -4  -6   26.30    3.60
  -4  -4  -6   19.10    3.10
   4   4   6   20.40    3.10
   4   4   6   17.60    2.60
   4   4   6   17.10    2.40
  -5  -4  -6   26.90    3.90
  -5  -4  -6   31.60    4.60
   5   4   6   27.00    4.00
   5   4   6   26.30    3.40
  -6  -4  -6    3.00    3.70
  -6  -4  -6   -2.40    4.70
   6   4   6    7.60    3.80
   6   4   6    1.20    2.70
   6   4   6    7.20    3.60
  -7  -4  -6    7.30    5.60
  -7  -4  -6    2.60    4.80
   7   4   6    9.90    4.90
   7   4   6    2.30    4.20
   7   4   6    9.00    4.80
   7   4   6    3.00    4.10
   6  -5  -6   -3.70    5.40
   6  -5  -6    0.10    3.80
  -6   5   6   -7.60    3.20
  -6   5   6   -5.90    4.10
  -6   5   6    3.70    4.30
   5  -5  -6    6.00    4.00
   5  -5  -6   15.40    2.10
  -5   5   6   14.90    3.80
  -5   5   6   14.90    3.80
  -5   5   6   17.40    3.10
   4  -5  -6   22.70    4.00
   4  -5  -6   25.80    2.30
   4  -5  -6   28.00    3.70
   4  -5  -6   20.90    4.50
   4  -5  -6   30.40    3.70
  -4   5   6   24.10    3.60
  -4   5   6   23.40    3.10
  -4   5   6   29.20    4.00
   3  -5  -6    0.70    1.10
   3  -5  -6    1.70    2.00
   3  -5  -6    1.00    1.20
   3  -5  -6   -0.80    1.50
   3  -5  -6   -0.20    2.40
   3  -5  -6    2.30    2.60
  -3   5   6    1.00    3.20
  -3   5   6   -0.10    1.20
  -3   5   6   -0.20    1.50
  -3   5   6    2.50    1.40
  -3   5   6    2.30    1.80
  -3   5   6    2.10    1.70
  -3   5   6    2.30    1.50
   2  -5  -6   -1.70    1.00
   2  -5  -6    0.30    1.10
   2  -5  -6   -0.80    1.40
   2  -5  -6    0.00    0.90
  -2   5   6    0.70    1.50
  -2   5   6   -2.60    1.50
  -2   5   6    0.20    1.20
  -2   5   6   -1.60    0.90
  -2   5   6    0.70    0.70
  -2   5   6    1.70    2.70
  -2   5   6    0.10    1.00
  -2   5   6   -0.70    1.00
   1  -5  -6   58.09    3.20
   1  -5  -6   64.29    3.70
   1  -5  -6   57.19    2.60
   1  -5  -6   61.99    2.90
   1  -5  -6   59.49    2.80
  -1   5   6   63.99    3.00
  -1   5   6   56.49    2.80
  -1   5   6   56.19    3.20
  -1   5   6   60.39    3.00
  -1   5   6   60.09    3.40
   0  -5  -6    0.10    0.90
   0  -5  -6    0.10    1.00
   0  -5  -6    1.40    1.30
   0  -5  -6    0.60    0.60
   0   5   6    1.20    1.00
   0   5   6   -0.80    1.20
   0   5   6    1.20    1.30
   0   5   6    0.50    0.90
   0   5   6   -0.30    1.00
   0   5   6    1.50    1.10
  -1  -5  -6   21.10    1.40
  -1  -5  -6   21.10    2.20
  -1  -5  -6   25.30    2.10
  -1  -5  -6   21.20    2.30
   1   5   6   18.90    2.10
   1   5   6   20.50    2.10
   1   5   6   20.20    2.00
   1   5   6   20.50    2.60
   1   5   6   22.80    2.40
  -2  -5  -6   16.60    2.40
  -2  -5  -6   12.90    2.00
  -2  -5  -6   16.70    2.40
  -2  -5  -6   17.00    2.50
   2   5   6   10.50    2.00
   2   5   6   16.50    2.50
   2   5   6   11.30    1.80
   2   5   6   12.80    2.00
   2   5   6   17.20    2.50
  -3  -5  -6   47.10    4.00
  -3  -5  -6   52.09    4.00
  -3  -5  -6   55.69    3.70
  -3  -5  -6   53.19    3.60
  -3  -5  -6   48.40    3.80
   3   5   6   47.40    3.60
   3   5   6   51.69    4.50
   3   5   6   51.79    4.10
   3   5   6   53.09    3.50
   3   5   6   47.50    3.80
  -4  -5  -6    1.90    2.20
  -4  -5  -6   -0.90    2.20
  -4  -5  -6    2.80    1.90
   4   5   6    3.70    2.60
   4   5   6    2.10    2.40
   4   5   6    5.70    2.10
  -5  -5  -6   12.50    3.60
  -5  -5  -6    2.10    2.90
   5   5   6   15.70    3.70
   5   5   6    6.70    2.50
  -6  -5  -6    2.70    3.70
  -6  -5  -6   10.90    4.40
   6   5   6    7.20    4.30
   6   5   6    4.60    3.20
  -7  -5  -6   -1.00    4.70
  -7  -5  -6   -1.40    5.20
   7   5   6    7.10    4.10
   7   5   6    9.70    5.30
   7   5   6    2.60    5.00
   6  -6  -6   -5.40    6.50
   6  -6  -6   14.90    4.40
  -6   6   6    8.70    4.50
  -6   6   6   12.90    5.10
  -6   6   6   11.00    4.20
   5  -6  -6   -3.50    2.70
   5  -6  -6    0.00    4.50
  -5   6   6   -1.50    2.60
  -5   6   6    2.40    3.50
  -5   6   6    0.90    3.20
   4  -6  -6    9.30    3.60
   4  -6  -6   10.50    1.70
   4  -6  -6   11.60    4.30
   4  -6  -6    7.10    2.50
  -4   6   6   12.00    2.80
  -4   6   6    7.60    3.00
  -4   6   6   10.50    2.40
  -4   6   6    6.90    2.60
  -4   6   6    9.70    1.00
   3  -6  -6    7.30    2.70
   3  -6  -6    6.10    1.90
   3  -6  -6    8.70    1.80
   3  -6  -6   10.30    3.10
   3  -6  -6    8.90    1.60
  -3   6   6   10.20    1.70
  -3   6   6    4.10    2.10
  -3   6   6    8.70    2.00
  -3   6   6    8.30    2.20
  -3   6   6    5.00    1.20
  -3   6   6    7.70    1.70
   2  -6  -6   56.29    4.80
   2  -6  -6   53.99    2.70
   2  -6  -6   53.59    3.60
   2  -6  -6   51.59    3.50
  -2   6   6   53.19    2.10
  -2   6   6   58.79    3.10
  -2   6   6   54.09    3.00
  -2   6   6   54.19    3.00
  -2   6   6   62.69    4.80
  -2   6   6   57.99    3.00
  -2   6   6   58.39    3.60
   1  -6  -6   -0.40    1.10
   1  -6  -6    0.00    1.70
   1  -6  -6    1.30    1.40
   1  -6  -6    0.60    2.00
   1  -6  -6   -0.90    1.00
   1  -6  -6    1.00    0.80
  -1   6   6    0.50    0.90
  -1   6   6    0.10    1.20
  -1   6   6    0.90    1.60
  -1   6   6    1.10    1.40
  -1   6   6   -0.70    1.10
   0  -6  -6    6.60    1.80
   0  -6  -6   14.00    1.80
   0   6   6   10.70    2.00
   0   6   6   10.20    1.80
   0   6   6   17.60    2.00
  -1  -6  -6    8.50    1.90
  -1  -6  -6    6.50    2.00
  -1  -6  -6    9.60    2.00
  -1  -6  -6   11.60    1.70
  -1  -6  -6    8.70    1.10
   1   6   6    8.80    2.00
   1   6   6   14.30    2.40
   1   6   6    9.00    1.90
   1   6   6    7.30    1.60
   1   6   6    9.20    1.70
  -2  -6  -6    0.30    2.10
  -2  -6  -6    0.10    1.60
  -2  -6  -6   -3.60    1.50
  -2  -6  -6    1.40    1.60
  -2  -6  -6    0.40    1.60
  -2  -6  -6    0.30    1.00
   2   6   6   -2.80    2.10
   2   6   6   -1.70    1.50
   2   6   6   -0.20    2.20
   2   6   6    0.20    1.30
   2   6   6    1.40    1.30
  -3  -6  -6  224.28    7.40
  -3  -6  -6  215.58    7.80
  -3  -6  -6  224.18    8.60
  -3  -6  -6  217.08    7.50
   3   6   6  218.98    7.90
   3   6   6  223.48    8.40
   3   6   6  222.98    8.20
  -4  -6  -6    4.00    2.20
  -4  -6  -6    5.40    1.80
  -4  -6  -6    4.30    2.50
   4   6   6    5.10    2.20
   4   6   6    4.10    2.50
   4   6   6    4.90    2.60
  -5  -6  -6   13.10    3.30
   5   6   6   10.70    3.10
  -6  -6  -6    3.50    4.00
  -6  -6  -6    1.50    4.40
   6   6   6    6.70    4.40
   6   6   6   -0.10    3.30
  -7  -6  -6    4.80    5.20
  -7  -6  -6   -2.50    5.80
   7   6   6   -1.70    5.60
   7   6   6    3.30    4.50
   6  -7  -6    4.80    7.10
   6  -7  -6   -3.10    4.60
  -6   7   6    5.10    5.10
  -6   7   6   -3.40    5.00
   5  -7  -6    4.00    3.60
   5  -7  -6    6.40    5.60
  -5   7   6    2.30    3.00
  -5   7   6   -0.40    3.70
  -5   7   6    4.70    4.00
   4  -7  -6    1.40    3.80
   4  -7  -6    2.20    4.40
   4  -7  -6    9.40    4.40
  -4   7   6    1.00    2.90
  -4   7   6    0.90    0.90
  -4   7   6    4.40    2.60
  -4   7   6   -1.10    2.00
  -4   7   6   -0.20    3.10
   3  -7  -6   19.50    3.20
   3  -7  -6   16.40    2.70
   3  -7  -6   20.70    3.50
   3  -7  -6   17.10    4.10
  -3   7   6   22.90    3.50
  -3   7   6   19.20    2.50
  -3   7   6   17.40    2.00
  -3   7   6   17.40    2.40
  -3   7   6   22.10    2.60
   2  -7  -6    0.80    1.70
   2  -7  -6    5.00    2.90
   2  -7  -6    2.80    1.60
  -2   7   6    3.50    1.90
  -2   7   6    2.20    1.30
  -2   7   6    1.70    1.00
  -2   7   6    4.70    1.70
  -2   7   6    3.20    1.70
   1  -7  -6    5.00    2.40
   1  -7  -6    2.10    1.00
   1  -7  -6    1.40    1.60
  -1   7   6    1.00    1.80
  -1   7   6    2.60    1.60
  -1   7   6    4.00    1.70
  -1   7   6    2.50    1.20
  -1   7   6    1.10    1.50
   0  -7  -6   53.59    3.10
   0  -7  -6   53.39    3.90
   0  -7  -6   54.19    4.10
   0  -7  -6   53.89    4.40
   0   7   6   46.20    3.40
   0   7   6   54.19    3.40
   0   7   6   57.49    4.50
   0   7   6   53.19    3.10
   0   7   6   52.29    3.40
   0   7   6   49.70    4.00
  -1  -7  -6    0.60    1.60
  -1  -7  -6   -0.90    1.30
  -1  -7  -6    0.40    2.00
  -1  -7  -6    1.70    2.00
   1   7   6    0.30    2.00
   1   7   6    1.70    1.50
   1   7   6    0.50    1.50
   1   7   6    0.40    1.30
   1   7   6    3.20    2.40
  -2  -7  -6   70.09    2.50
  -2  -7  -6   77.89    4.60
  -2  -7  -6   61.29    4.50
  -2  -7  -6   71.19    3.30
  -2  -7  -6   72.19    4.00
   2   7   6   74.09    4.20
   2   7   6   72.29    4.50
   2   7   6   60.79    4.10
  -3  -7  -6   64.89    3.50
  -3  -7  -6   67.89    4.80
  -3  -7  -6   67.69    4.50
  -3  -7  -6   62.29    4.90
   3   7   6   68.39    5.00
   3   7   6   72.29    4.80
   3   7   6   67.99    4.60
  -4  -7  -6   22.50    3.90
  -4  -7  -6   30.00    3.50
  -4  -7  -6   25.20    3.60
   4   7   6   27.40    3.80
   4   7   6   29.60    4.20
   4   7   6   23.90    3.80
  -5  -7  -6    5.10    3.70
  -5  -7  -6   -2.30    2.90
   5   7   6    0.80    3.00
   5   7   6    4.70    3.70
  -6  -7  -6    9.70    4.40
  -6  -7  -6    3.90    4.80
   6   7   6    1.90    4.90
   6   7   6   -0.90    3.80
   5  -8  -6   -8.70    6.00
   5  -8  -6    3.20    4.00
  -5   8   6    1.10    3.10
  -5   8   6   -3.20    4.20
  -5   8   6   -5.90    3.80
   4  -8  -6   35.20    4.90
   4  -8  -6   31.20    6.00
  -4   8   6   26.10    3.30
  -4   8   6   28.40    4.40
  -4   8   6   28.20    3.80
   3  -8  -6   10.90    2.70
   3  -8  -6    8.80    4.30
  -3   8   6    9.50    2.70
  -3   8   6    6.20    2.10
  -3   8   6    5.20    2.00
  -3   8   6   11.10    2.20
  -3   8   6    5.10    2.00
   2  -8  -6    7.60    3.20
   2  -8  -6    3.80    2.30
  -2   8   6    2.90    2.10
  -2   8   6    4.20    1.60
  -2   8   6    3.90    1.30
  -2   8   6    1.40    2.00
  -2   8   6    3.20    2.20
  -2   8   6    1.30    2.00
   1  -8  -6   17.30    3.00
   1  -8  -6   24.20    4.00
  -1   8   6   22.40    2.50
  -1   8   6   23.00    3.20
  -1   8   6   25.50    3.10
  -1   8   6   23.30    3.20
  -1   8   6   19.30    2.80
   0  -8  -6   34.30    4.00
   0  -8  -6   37.40    2.70
   0  -8  -6   36.80    2.20
   0  -8  -6   41.20    4.90
   0   8   6   34.10    3.20
   0   8   6   31.10    3.00
   0   8   6   34.90    3.40
   0   8   6   37.30    3.50
  -1  -8  -6    3.70    1.70
  -1  -8  -6    1.30    1.20
  -1  -8  -6    1.60    1.40
  -1  -8  -6    2.90    2.40
   1   8   6    3.80    1.90
   1   8   6    2.60    1.70
   1   8   6    3.20    1.60
  -2  -8  -6   21.50    3.60
  -2  -8  -6   19.60    2.70
  -2  -8  -6   27.60    3.60
  -2  -8  -6   21.20    2.40
   2   8   6   21.30    3.00
   2   8   6   18.30    2.70
   2   8   6   17.50    3.00
  -3  -8  -6   69.79    3.90
  -3  -8  -6   77.09    5.40
  -3  -8  -6   72.99    5.40
   3   8   6   79.09    5.30
   3   8   6   76.59    5.60
   3   8   6   73.99    5.20
  -4  -8  -6   36.30    4.40
  -4  -8  -6   35.70    4.10
  -4  -8  -6   36.80    5.00
   4   8   6   43.80    5.40
   4   8   6   43.80    6.00
  -5  -8  -6   -4.70    3.50
  -5  -8  -6   -2.70    3.10
   5   8   6    3.50    3.40
   5   8   6    5.50    4.20
  -6  -8  -6    0.70    5.30
  -6  -8  -6    9.40    5.30
   6   8   6    1.40    5.40
   6   8   6   -3.10    4.10
   5  -9  -6    9.20    7.50
   5  -9  -6    8.50    5.10
  -5   9   6   14.30    3.70
  -5   9   6   15.70    5.30
   4  -9  -6    9.20    3.60
   4  -9  -6    4.60    5.90
  -4   9   6    8.30    3.60
  -4   9   6    6.70    3.00
  -4   9   6   14.50    3.00
   3  -9  -6   16.50    3.50
   3  -9  -6    7.50    5.20
  -3   9   6   17.00    2.30
  -3   9   6   15.20    2.50
  -3   9   6   10.00    3.40
   2  -9  -6    4.80    2.80
   2  -9  -6   -5.70    3.90
  -2   9   6    4.80    2.50
  -2   9   6   -3.40    2.80
  -2   9   6    0.60    2.50
  -2   9   6    0.80    1.80
   1  -9  -6   20.80    3.50
   1  -9  -6   27.00    4.70
  -1   9   6   30.00    3.00
  -1   9   6   23.30    3.60
  -1   9   6   24.30    3.20
   0  -9  -6    3.90    2.60
   0  -9  -6    1.80    3.10
   0   9   6    6.00    2.10
   0   9   6    4.60    2.10
   0   9   6    1.10    1.90
  -1  -9  -6    7.50    1.50
  -1  -9  -6    5.40    2.80
  -1  -9  -6   10.50    2.10
  -1  -9  -6    9.60    3.40
   1   9   6    5.90    2.30
   1   9   6   10.00    2.50
   1   9   6    8.00    2.30
  -2  -9  -6   38.70    4.70
  -2  -9  -6   42.60    3.10
  -2  -9  -6   37.20    4.10
  -2  -9  -6   39.00    3.70
   2   9   6   32.10    4.50
   2   9   6   31.90    4.00
   2   9   6   36.40    4.30
  -3  -9  -6   11.80    2.50
  -3  -9  -6   19.00    3.90
  -3  -9  -6   12.30    3.40
   3   9   6    8.30    3.00
   3   9   6   13.80    3.80
  -4  -9  -6   11.60    2.60
  -4  -9  -6   10.20    2.90
  -4  -9  -6    6.00    3.30
  -4  -9  -6    9.80    3.90
   4   9   6    1.40    4.00
   4   9   6    5.30    3.50
  -5  -9  -6   10.00    4.60
  -5  -9  -6    8.60    3.70
   5   9   6   -1.30    4.70
   5   9   6   12.50    4.20
   4 -10  -6    6.00    4.10
   4 -10  -6   32.60    7.20
  -4  10   6    1.30    3.00
  -4  10   6   -1.80    4.30
   3 -10  -6   17.20    6.50
  -3  10   6   15.00    3.80
  -3  10   6   12.00    3.70
  -3  10   6   16.10    3.10
   2 -10  -6    6.60    5.30
   2 -10  -6   10.70    3.90
  -2  10   6    5.70    3.30
  -2  10   6   16.80    2.80
  -2  10   6   22.20    3.70
   1 -10  -6   -4.70    4.10
   1 -10  -6    3.70    3.40
  -1  10   6    3.50    2.80
  -1  10   6    2.60    2.60
  -1  10   6    3.40    2.20
   0 -10  -6    2.40    3.50
   0 -10  -6    6.60    4.20
   0  10   6    7.00    2.60
   0  10   6    3.10    2.40
  -1 -10  -6   -3.20    3.60
  -1 -10  -6    1.60    1.20
  -1 -10  -6    3.30    1.80
  -1 -10  -6   -5.60    3.70
   1  10   6    0.30    2.70
   1  10   6    5.70    2.50
  -2 -10  -6    7.10    3.60
  -2 -10  -6    1.10    1.90
  -2 -10  -6    4.10    3.70
   2  10   6    2.00    2.80
   2  10   6    3.40    2.60
   2  10   6    5.60    3.30
  -3 -10  -6    1.70    2.30
  -3 -10  -6   -2.20    3.70
   3  10   6    6.40    3.40
   3  10   6   -2.70    3.20
  -4 -10  -6    4.60    3.10
  -4 -10  -6    4.50    4.00
   4  10   6   -4.00    4.30
   4  10   6   -6.30    3.50
   4  10   6   -3.10    4.30
  -5 -10  -6    2.20    3.80
  -5 -10  -6    9.90    5.70
   5  10   6    5.60    5.50
   5  10   6    2.20    4.40
   3 -11  -6   -8.20    6.60
   3 -11  -6    2.90    4.50
  -3  11   6   -0.90    3.90
  -3  11   6   -1.90    4.20
   2 -11  -6    8.20    5.80
   2 -11  -6   15.10    4.50
  -2  11   6   13.00    4.20
  -2  11   6   15.10    3.70
  -2  11   6   18.60    3.30
   1 -11  -6    1.50    5.00
   1 -11  -6   15.10    4.50
  -1  11   6    0.90    2.80
  -1  11   6    2.30    2.90
  -1  11   6    2.40    3.10
   0 -11  -6   -7.90    4.50
   0 -11  -6    0.90    4.00
   0  11   6    1.80    3.00
   0  11   6   -0.10    3.10
  -1 -11  -6    1.60    3.80
  -1 -11  -6    3.60    4.30
  -1 -11  -6    5.20    2.20
   1  11   6    1.00    3.20
   1  11   6   -3.80    2.70
   1  11   6    6.00    3.40
  -2 -11  -6    1.30    2.20
  -2 -11  -6    5.30    2.40
  -2 -11  -6   14.70    4.50
   2  11   6   -0.40    3.30
   2  11   6   11.40    4.00
  -3 -11  -6    0.00    2.80
  -3 -11  -6    6.40    3.50
  -3 -11  -6   -4.60    4.60
  -3 -11  -6   -0.50    4.40
   3  11   6    3.10    4.50
   3  11   6    3.90    3.80
   3  11   6   -1.00    4.10
  -4 -11  -6   -7.60    5.20
  -4 -11  -6    7.60    5.20
  -4 -11  -6   -0.20    3.90
   4  11   6    1.10    4.50
   4  11   6    5.50    5.50
   4  11   6    5.80    5.30
   2 -12  -6    6.00    6.60
   2 -12  -6   -3.50    5.00
  -2  12   6    2.70    3.80
  -2  12   6   -4.00    3.90
   1 -12  -6    3.70    4.80
   1 -12  -6    5.50    6.40
  -1  12   6    3.50    3.80
  -1  12   6    1.30    3.70
  -1  12   6   12.00    4.10
   0 -12  -6   -1.10    5.80
   0 -12  -6   -2.20    5.00
   0  12   6    4.70    3.60
   0  12   6   -1.10    3.80
   0  12   6    1.00    3.60
  -1 -12  -6   -7.30    4.40
  -1 -12  -6   -1.70    5.50
   1  12   6    3.20    4.00
   1  12   6    0.80    3.70
   1  12   6    7.80    4.20
  -2 -12  -6    4.20    5.90
  -2 -12  -6    2.20    4.90
   2  12   6    1.00    4.00
   2  12   6   -6.00    4.40
   2  12   6    2.10    4.00
  -3 -12  -6   -6.80    5.60
  -3 -12  -6    3.40    4.00
  -3 -12  -6    3.10    5.70
   3  12   6   -2.60    5.30
   3  12   6    3.80    4.80
   3  12   6    1.70    5.00
   0 -13  -6   -1.10    7.00
   0 -13  -6   13.90    6.30
   0  13   6    0.60    4.50
   0  13   6    1.20    5.80
   0  13   6    1.80    4.80
  -1 -13  -6   -6.30    6.60
  -1 -13  -6   13.00    6.40
   1  13   6   -1.90    4.90
   1  13   6    0.80    5.40
   1  13   6   -7.00    4.30
   3  10  -7   -5.80    4.30
   3  10  -7   -5.90    4.00
   3  10  -7   -4.30    4.60
  -3 -10   7   -8.70    5.20
  -3 -10   7   -0.80    4.70
   2  10  -7    8.50    3.70
   2  10  -7   -1.70    3.50
  -2 -10   7    6.20    4.70
  -2 -10   7   -3.90    4.50
   1  10  -7    0.50    3.20
   1  10  -7    2.70    3.00
   1  10  -7    3.40    3.00
  -1 -10   7    1.50    4.20
  -1 -10   7   -1.50    4.50
   0  10  -7    4.10    2.70
   0  10  -7   -6.60    2.80
   0 -10   7    0.00    4.40
  -1  10  -7    9.20    3.10
   1 -10   7   10.60    4.90
   1 -10   7    5.10    5.80
  -2  10  -7    1.20    3.00
  -2  10  -7    6.90    5.50
   2 -10   7    3.40    6.30
   4   9  -7    3.20    4.50
   4   9  -7   -0.30    4.30
   4   9  -7   -1.40    4.80
  -4  -9   7    7.90    5.20
  -4  -9   7    3.30    4.90
   3   9  -7   -7.20    3.50
   3   9  -7   -4.90    3.50
  -3  -9   7    3.90    4.00
  -3  -9   7    0.80    5.00
   2   9  -7   16.40    3.50
   2   9  -7   11.20    3.10
   2   9  -7   21.50    4.00
  -2  -9   7   18.50    4.50
  -2  -9   7   24.30    4.90
   1   9  -7    0.40    2.70
   1   9  -7   -3.30    2.20
   1   9  -7   -0.50    2.20
  -1  -9   7   -2.00    3.40
  -1  -9   7   -1.70    3.20
   0   9  -7    5.30    2.10
   0   9  -7   -3.50    2.50
   0   9  -7    0.20    1.90
   0  -9   7    2.00    3.30
   0  -9   7   -5.00    4.00
  -1   9  -7    5.60    2.40
  -1   9  -7    5.00    1.90
  -1   9  -7    5.70    1.90
   1  -9   7    5.20    4.20
   1  -9   7    7.00    4.90
  -2   9  -7    5.40    2.50
  -2   9  -7    3.50    4.50
   2  -9   7   -5.90    4.00
   2  -9   7    3.00    5.10
  -3   9  -7    0.50    3.10
  -3   9  -7    1.70    5.30
   3  -9   7   -6.00    5.80
   4   8  -7    4.20    4.20
   4   8  -7    6.60    3.80
   4   8  -7    7.10    4.00
  -4  -8   7    7.80    4.20
  -4  -8   7   -2.10    3.80
  -4  -8   7   -0.30    3.00
   3   8  -7    1.30    3.20
   3   8  -7   -5.90    2.60
  -3  -8   7   -5.00    3.40
  -3  -8   7    6.90    3.60
  -3  -8   7   -1.40    1.90
   2   8  -7    2.60    2.30
   2   8  -7    7.60    2.70
   2   8  -7    9.90    3.20
  -2  -8   7    4.00    3.10
  -2  -8   7    2.50    3.20
   1   8  -7   19.30    2.60
   1   8  -7   16.10    2.60
   1   8  -7   31.00    4.00
  -1  -8   7   17.50    3.70
  -1  -8   7   16.20    3.60
  -1  -8   7   22.20    4.00
   0   8  -7    3.70    1.60
   0   8  -7   -6.30    2.40
   0   8  -7    0.30    2.20
   0   8  -7    4.40    1.60
   0   8  -7   -1.40    3.90
   0  -8   7    0.70    3.10
   0  -8   7    0.20    3.30
  -1   8  -7   -0.60    1.40
  -1   8  -7    7.40    2.20
  -1   8  -7    2.60    1.40
   1  -8   7   -2.10    3.00
   1  -8   7    0.70    3.80
  -2   8  -7   26.20    2.50
  -2   8  -7   27.60    2.50
  -2   8  -7   27.30    2.10
  -2   8  -7   25.40    3.50
   2  -8   7   25.70    6.10
   2  -8   7   30.50    5.00
  -3   8  -7    2.90    4.60
  -3   8  -7    2.50    2.40
  -3   8  -7    5.60    2.30
   3  -8   7   -3.10    5.50
  -4   8  -7    0.50    5.40
  -4   8  -7    1.90    2.80
  -4   8  -7    5.90    3.70
   4  -8   7   -6.20    6.40
   4  -8   7    7.50    4.10
   5   7  -7   -3.20    4.20
   5   7  -7   -2.50    4.20
   5   7  -7    0.00    3.80
   5   7  -7    3.50    3.80
  -5  -7   7   -0.30    4.30
  -5  -7   7   -1.40    3.60
   4   7  -7    5.30    3.30
   4   7  -7    4.20    3.60
  -4  -7   7    7.60    3.20
  -4  -7   7    2.80    2.80
  -4  -7   7    7.40    3.80
   3   7  -7    2.90    2.60
   3   7  -7    1.00    2.30
   3   7  -7    4.60    2.90
  -3  -7   7    3.10    3.10
  -3  -7   7    2.00    2.00
  -3  -7   7   -4.80    2.50
   2   7  -7    5.40    2.20
   2   7  -7    6.30    2.60
   2   7  -7    4.10    2.30
   2   7  -7    6.70    2.00
  -2  -7   7    3.70    2.60
  -2  -7   7    2.00    2.60
  -2  -7   7    4.00    1.50
  -2  -7   7    2.70    3.20
   1   7  -7    1.20    1.60
   1   7  -7    4.00    1.70
   1   7  -7    5.10    2.30
   1   7  -7    2.10    1.70
  -1  -7   7    1.50    2.60
  -1  -7   7    4.20    2.30
  -1  -7   7    3.60    2.60
  -1  -7   7    3.30    2.50
   0   7  -7    4.90    2.00
   0   7  -7    5.50    1.90
   0   7  -7    1.80    2.60
   0   7  -7    5.10    1.60
   0   7  -7    8.20    1.40
   0  -7   7    4.10    3.10
   0  -7   7    3.20    2.40
  -1   7  -7   22.20    2.80
  -1   7  -7   20.40    2.10
  -1   7  -7   25.30    3.40
  -1   7  -7   19.30    1.90
  -1   7  -7   25.10    2.70
   1  -7   7   33.50    4.50
   1  -7   7   17.20    4.20
  -2   7  -7    4.90    1.90
  -2   7  -7    6.70    1.90
  -2   7  -7    0.60    1.40
  -2   7  -7    2.60    1.30
  -2   7  -7    3.70    2.10
  -2   7  -7    2.80    2.80
   2  -7   7   12.00    3.40
   2  -7   7    2.10    4.00
  -3   7  -7   15.90    4.50
  -3   7  -7    8.30    2.00
  -3   7  -7    8.10    2.30
   3  -7   7   11.40    2.70
   3  -7   7   14.60    5.50
  -4   7  -7    1.40    4.70
  -4   7  -7    0.80    2.30
   4  -7   7    2.80    3.10
   4  -7   7    3.10    6.40
  -5   7  -7    5.70    5.80
   5  -7   7   -0.20    3.80
   5  -7   7   -1.20    7.50
   5   6  -7   -0.20    3.40
   5   6  -7    0.00    3.30
   5   6  -7    5.40    3.60
  -5  -6   7    4.40    3.80
  -5  -6   7    5.80    3.50
   4   6  -7   23.40    3.70
   4   6  -7   26.10    4.90
   4   6  -7   37.30    4.70
  -4  -6   7   19.70    3.30
  -4  -6   7   24.30    2.30
  -4  -6   7   25.40    3.20
  -4  -6   7   28.30    4.50
   3   6  -7   42.00    4.10
   3   6  -7   36.20    4.20
   3   6  -7   29.00    3.40
  -3  -6   7   50.39    6.10
  -3  -6   7   30.60    4.40
  -3  -6   7   28.90    3.90
  -3  -6   7   37.30    3.30
   2   6  -7   13.50    2.30
   2   6  -7   13.60    2.20
   2   6  -7   10.00    2.50
   2   6  -7   13.40    2.00
  -2  -6   7   12.20    2.20
  -2  -6   7   16.40    3.10
  -2  -6   7   14.00    1.80
  -2  -6   7   11.70    2.60
  -2  -6   7   11.60    2.50
  -2  -6   7   18.30    3.10
   1   6  -7   -1.10    1.40
   1   6  -7    3.50    1.50
   1   6  -7    5.20    1.40
   1   6  -7   -1.90    3.10
   1   6  -7    7.40    2.80
  -1  -6   7    0.90    1.80
  -1  -6   7    2.50    1.80
  -1  -6   7    1.50    2.20
  -1  -6   7    1.40    1.20
  -1  -6   7    1.40    2.00
   0   6  -7    9.40    1.60
   0   6  -7   11.20    1.80
   0   6  -7    9.30    1.90
   0   6  -7   12.40    2.40
   0  -6   7   13.70    2.90
   0  -6   7   10.50    2.40
  -1   6  -7   56.79    2.00
  -1   6  -7   56.49    1.90
  -1   6  -7   53.99    2.70
  -1   6  -7   57.99    3.40
  -1   6  -7   56.89    1.90
  -1   6  -7   59.49    3.50
  -1   6  -7   63.29    3.40
   1  -6   7   59.29    4.60
   1  -6   7   52.99    5.20
  -2   6  -7   25.10    2.10
  -2   6  -7   26.60    2.60
  -2   6  -7   26.30    3.00
  -2   6  -7   27.20    3.50
  -2   6  -7   25.70    2.60
   2  -6   7   31.90    4.40
   2  -6   7   28.30    4.70
  -3   6  -7   32.80    3.00
  -3   6  -7   32.50    3.20
  -3   6  -7   28.40    3.70
  -3   6  -7   40.30    5.50
  -3   6  -7   25.10    2.70
   3  -6   7   30.70    3.30
   3  -6   7   23.30    5.00
  -4   6  -7   16.60    2.50
  -4   6  -7   20.70    3.00
  -4   6  -7   19.50    5.30
  -4   6  -7   16.80    1.90
   4  -6   7   17.30    5.40
   4  -6   7   16.90    3.20
  -5   6  -7    7.50    5.10
  -5   6  -7   -4.80    3.60
  -5   6  -7    1.40    2.60
   5  -6   7    0.50    3.30
   5  -6   7   -0.50    6.50
   6   5  -7    3.80    4.80
   6   5  -7   -1.80    3.80
   6   5  -7    1.60    4.00
  -6  -5   7   -2.40    5.90
  -6  -5   7   -5.40    4.50
  -6  -5   7   -1.60    4.30
   5   5  -7    4.50    3.00
   5   5  -7    0.40    2.90
  -5  -5   7   -2.20    2.40
  -5  -5   7   -5.50    3.00
  -5  -5   7   -3.10    3.30
   4   5  -7    0.50    2.30
   4   5  -7   -4.70    2.20
   4   5  -7    5.20    2.50
   4   5  -7   -0.60    2.00
  -4  -5   7    2.50    3.20
  -4  -5   7    3.00    1.50
  -4  -5   7    0.80    2.90
  -4  -5   7   -2.70    1.70
  -4  -5   7    2.50    2.40
   3   5  -7   42.70    3.80
   3   5  -7   41.70    3.90
   3   5  -7   41.90    3.70
  -3  -5   7   45.00    3.60
  -3  -5   7   41.20    4.00
  -3  -5   7   46.80    3.50
  -3  -5   7   51.49    5.80
   2   5  -7   -0.20    1.30
   2   5  -7    0.90    1.50
   2   5  -7    0.50    1.50
  -2  -5   7    2.40    2.60
  -2  -5   7    4.00    2.00
  -2  -5   7    0.00    1.80
  -2  -5   7    2.70    1.40
  -2  -5   7   -2.00    1.50
  -2  -5   7   -0.50    1.70
   1   5  -7    3.80    1.40
   1   5  -7    1.20    2.20
   1   5  -7    0.50    1.40
   1   5  -7    2.70    0.90
   1   5  -7    3.00    2.20
   1   5  -7    0.70    1.00
  -1  -5   7    3.60    1.70
  -1  -5   7    2.70    1.00
  -1  -5   7    1.80    1.90
  -1  -5   7    1.60    1.40
  -1  -5   7   -0.10    1.50
   0   5  -7   39.60    4.10
   0   5  -7   42.30    2.10
   0   5  -7   38.50    2.90
   0   5  -7   38.40    2.40
   0   5  -7   34.40    2.80
   0   5  -7   40.70    2.00
   0  -5   7   45.00    4.00
   0  -5   7   37.20    3.40
  -1   5  -7   15.80    2.10
  -1   5  -7   18.90    2.10
  -1   5  -7   17.30    1.30
  -1   5  -7   16.00    1.60
  -1   5  -7   15.10    2.10
   1  -5   7   15.50    2.70
   1  -5   7   14.50    3.00
  -2   5  -7    8.90    1.40
  -2   5  -7   10.90    1.80
  -2   5  -7   11.60    1.90
  -2   5  -7   10.10    1.70
   2  -5   7    6.10    2.60
   2  -5   7   10.20    1.70
   2  -5   7    8.30    3.30
  -3   5  -7   27.60    3.40
  -3   5  -7   23.50    2.90
  -3   5  -7   20.80    2.50
  -3   5  -7   19.50    2.50
  -3   5  -7   28.70    4.40
   3  -5   7   19.10    4.40
   3  -5   7   21.60    2.80
  -4   5  -7    3.70    1.80
  -4   5  -7    3.90    2.20
  -4   5  -7   -0.20    3.50
  -4   5  -7    3.50    2.80
  -4   5  -7    4.40    1.30
  -4   5  -7    3.50    1.30
   4  -5   7    6.00    2.40
  -5   5  -7   -4.10    4.20
  -5   5  -7    5.50    3.40
  -5   5  -7    6.30    2.50
   5  -5   7    2.90    5.40
   5  -5   7    1.90    2.90
  -6   5  -7    2.40    5.40
  -6   5  -7   -3.90    6.40
   6  -5   7    1.00    3.90
   6  -5   7   12.60    7.20
   6   4  -7    6.40    3.70
   6   4  -7    2.10    4.50
   6   4  -7    4.20    3.50
  -6  -4   7    0.20    3.90
  -6  -4   7    7.30    4.40
  -6  -4   7    2.00    5.50
   5   4  -7   11.60    3.10
   5   4  -7   12.60    3.00
   5   4  -7    8.80    3.00
  -5  -4   7    7.40    3.20
  -5  -4   7    2.50    3.90
  -5  -4   7    8.90    3.70
   4   4  -7    1.20    2.10
   4   4  -7    6.10    2.10
   4   4  -7    2.30    2.10
  -4  -4   7    4.90    2.40
  -4  -4   7    7.70    2.50
  -4  -4   7    8.80    2.80
  -4  -4   7    4.20    1.80
   3   4  -7    7.00    2.00
   3   4  -7    4.80    1.90
   3   4  -7    6.90    1.60
  -3  -4   7    9.00    1.50
  -3  -4   7   10.10    2.10
  -3  -4   7    7.10    3.40
  -3  -4   7    8.20    2.20
  -3  -4   7    7.70    2.50
   2   4  -7   14.90    2.00
   2   4  -7   10.40    3.10
   2   4  -7    9.40    1.90
   2   4  -7   13.80    2.00
  -2  -4   7   12.40    1.80
  -2  -4   7    8.40    2.10
  -2  -4   7   12.70    2.70
  -2  -4   7   13.30    2.20
   1   4  -7    6.50    0.80
   1   4  -7    7.70    1.90
   1   4  -7    7.50    2.20
   1   4  -7    6.50    1.20
   1   4  -7    5.20    2.00
   1   4  -7    3.70    1.30
   1   4  -7    5.50    2.60
   1   4  -7    5.40    1.40
  -1  -4   7    6.30    1.20
  -1  -4   7    8.40    1.90
  -1  -4   7    7.10    1.70
  -1  -4   7    7.40    1.50
  -1  -4   7    3.90    1.70
   0   4  -7    7.80    2.20
   0   4  -7   11.90    1.80
   0   4  -7    9.10    1.40
   0   4  -7    8.50    1.00
   0   4  -7    6.10    2.10
   0   4  -7    5.40    1.30
   0  -4   7   12.90    2.20
   0  -4   7   11.60    1.40
   0  -4   7   13.70    2.50
   0  -4   7    8.30    1.10
  -1   4  -7    4.20    1.90
  -1   4  -7    4.40    1.40
  -1   4  -7    4.00    0.90
  -1   4  -7    2.50    2.00
  -1   4  -7    5.70    3.00
  -1   4  -7    4.90    1.00
  -1   4  -7    3.40    1.20
   1  -4   7    6.50    2.40
   1  -4   7    3.20    1.70
  -2   4  -7  186.28    6.00
  -2   4  -7  182.68    5.60
  -2   4  -7  187.38    6.20
  -2   4  -7  187.28    5.80
   2  -4   7  186.08    5.80
   2  -4   7  191.78    7.40
   2  -4   7  184.78    7.40
   2  -4   7  184.48    8.20
  -3   4  -7    6.10    2.40
  -3   4  -7    8.50    2.00
  -3   4  -7    6.90    1.60
  -3   4  -7    4.10    2.60
  -3   4  -7    5.80    1.60
   3  -4   7    6.90    1.70
   3  -4   7   12.20    3.70
   3  -4   7    8.30    2.60
  -4   4  -7    1.30    2.60
  -4   4  -7    0.30    2.00
  -4   4  -7    0.20    1.30
  -4   4  -7    1.40    1.60
  -4   4  -7    2.30    3.30
   4  -4   7    2.30    2.10
   4  -4   7   -1.60    3.50
  -5   4  -7    5.70    3.20
  -5   4  -7    6.30    2.30
  -5   4  -7    6.60    4.60
   5  -4   7    2.80    4.80
   5  -4   7    7.90    3.30
  -6   4  -7   -4.70    6.10
  -6   4  -7   -5.60    4.40
   6  -4   7    1.00    4.00
   6  -4   7   -3.80    6.10
   6   3  -7    5.60    3.60
   6   3  -7    9.40    4.00
   6   3  -7    4.80    2.80
  -6  -3   7    9.90    3.80
  -6  -3   7    4.00    5.20
  -6  -3   7   -3.00    3.90
   5   3  -7    3.20    2.10
   5   3  -7   -2.10    2.50
   5   3  -7    1.30    2.50
  -5  -3   7    5.80    5.50
  -5  -3   7    2.00    2.70
  -5  -3   7    0.50    3.50
   4   3  -7   23.00    3.30
   4   3  -7   25.50    3.00
   4   3  -7   24.00    3.00
  -4  -3   7   28.20    3.60
  -4  -3   7   25.00    3.70
  -4  -3   7   19.60    3.70
  -4  -3   7   24.40    2.90
   3   3  -7   19.70    2.10
   3   3  -7   22.90    2.60
   3   3  -7   21.70    2.80
  -3  -3   7   24.30    3.90
  -3  -3   7   19.20    2.00
  -3  -3   7   20.30    3.00
  -3  -3   7   16.30    2.70
  -3  -3   7   25.40    2.70
   2   3  -7   21.30    2.20
   2   3  -7   32.30    4.30
   2   3  -7   18.40    2.20
   2   3  -7   27.10    2.40
   2   3  -7   22.20    1.50
   2   3  -7   28.70    3.60
  -2  -3   7   21.10    1.30
  -2  -3   7   23.90    2.70
  -2  -3   7   28.00    2.70
  -2  -3   7   26.30    3.40
  -2  -3   7   23.20    2.20
   1   3  -7    0.70    1.20
   1   3  -7   -2.80    1.90
   1   3  -7    0.00    1.50
   1   3  -7   -0.40    1.00
   1   3  -7    0.90    1.00
   1   3  -7   -1.70    1.50
  -1  -3   7    1.80    1.50
  -1  -3   7    1.80    0.90
  -1  -3   7    0.40    1.20
  -1  -3   7    0.10    1.20
   0   3  -7    2.20    1.50
   0   3  -7    0.90    0.80
   0   3  -7    2.60    1.50
   0   3  -7    0.30    0.40
   0   3  -7    0.30    0.80
   0   3  -7    0.90    1.10
   0  -3   7    2.80    0.90
   0  -3   7   -0.50    1.10
   0  -3   7    0.80    1.30
   0  -3   7    0.30    1.50
   0  -3   7    0.20    0.60
   0  -3   7    0.70    1.00
  -1   3  -7   15.10    1.40
  -1   3  -7   12.70    2.20
  -1   3  -7   15.80    1.70
  -1   3  -7   17.00    2.40
  -1   3  -7   18.90    1.80
  -1   3  -7   16.00    1.50
   1  -3   7   16.80    1.40
   1  -3   7   21.70    3.00
   1  -3   7   16.10    2.30
   1  -3   7   15.30    1.20
   1  -3   7   17.20    2.40
  -2   3  -7   10.50    2.50
  -2   3  -7   11.10    2.70
  -2   3  -7   11.40    1.70
  -2   3  -7   11.60    1.60
  -2   3  -7   12.80    1.80
  -2   3  -7    9.40    1.70
  -2   3  -7    8.10    3.10
   2  -3   7    9.00    1.90
   2  -3   7    7.80    2.40
   2  -3   7   10.10    1.40
  -3   3  -7  496.35   13.70
  -3   3  -7  481.85   13.10
  -3   3  -7  491.35   13.10
  -3   3  -7  498.15   13.10
  -3   3  -7  488.55   14.90
  -3   3  -7  502.45   15.50
   3  -3   7  514.75   13.70
   3  -3   7  492.75   13.20
   3  -3   7  507.25   15.80
  -4   3  -7   -3.00    1.80
  -4   3  -7   -4.40    2.40
  -4   3  -7   -0.90    3.80
  -4   3  -7   -3.20    2.40
  -4   3  -7   -1.50    1.40
  -4   3  -7   -0.30    1.30
   4  -3   7    0.70    2.30
   4  -3   7    0.30    3.10
   4  -3   7    1.50    1.80
  -5   3  -7   -0.20    4.30
  -5   3  -7    2.50    3.00
  -5   3  -7   -0.30    2.00
   5  -3   7    3.70    2.60
  -6   3  -7   17.80    5.00
  -6   3  -7   24.00    6.20
   6  -3   7   18.20    6.00
   6  -3   7   11.80    4.10
   7   2  -7    4.30    4.30
  -7  -2   7   -7.30    4.70
   6   2  -7    2.30    3.60
   6   2  -7    4.20    2.30
   6   2  -7   -3.30    3.30
  -6  -2   7    1.30    3.50
  -6  -2   7    1.00    4.60
   5   2  -7    2.40    2.40
   5   2  -7   -0.40    1.70
   4   2  -7    6.30    1.70
   4   2  -7   -0.10    1.70
   4   2  -7    3.60    1.70
  -4  -2   7    1.60    2.60
  -4  -2   7    4.70    1.90
  -4  -2   7    3.70    2.20
  -4  -2   7    1.90    2.20
   3   2  -7    1.80    1.30
   3   2  -7    0.00    1.30
   3   2  -7    0.50    1.10
  -3  -2   7   -3.70    2.00
  -3  -2   7    0.50    1.40
  -3  -2   7    5.70    2.60
  -3  -2   7   -0.10    1.80
  -3  -2   7    1.70    0.80
  -3  -2   7    0.30    1.60
  -3  -2   7    3.20    1.20
   2   2  -7    1.30    1.10
   2   2  -7   -0.70    1.90
   2   2  -7    1.10    0.70
   2   2  -7    1.70    0.90
   2   2  -7    3.00    2.20
   2   2  -7    1.20    1.10
  -2  -2   7    0.60    1.10
  -2  -2   7   -0.90    1.40
  -2  -2   7    1.20    1.80
  -2  -2   7   -0.10    1.10
  -2  -2   7    1.60    0.80
   1   2  -7    1.60    0.90
   1   2  -7    2.30    1.30
   1   2  -7    3.20    1.10
   1   2  -7    1.40    1.70
   1   2  -7    1.10    1.30
   1   2  -7    2.00    1.00
  -1  -2   7    2.70    1.10
  -1  -2   7    1.80    0.60
  -1  -2   7    3.40    1.00
  -1  -2   7    0.00    1.30
  -1  -2   7    1.10    1.10
  -1  -2   7    1.00    1.40
   0   2  -7  114.49    4.10
   0   2  -7  127.09    4.40
   0   2  -7  125.59    4.80
   0   2  -7  116.29    4.30
   0   2  -7  124.29    4.70
   0   2  -7  121.89    3.50
   0  -2   7  120.59    4.10
   0  -2   7  123.79    3.70
   0  -2   7  122.79    4.70
   0  -2   7  121.19    3.30
   0  -2   7  128.49    5.00
   0  -2   7  116.19    4.10
  -1   2  -7   75.49    3.80
  -1   2  -7   70.09    2.90
  -1   2  -7   72.89    3.80
  -1   2  -7   69.09    3.10
  -1   2  -7   70.89    3.10
  -1   2  -7   71.29    2.70
   1  -2   7   71.19    2.70
   1  -2   7   70.79    2.90
   1  -2   7   67.69    2.20
   1  -2   7   63.79    3.50
   1  -2   7   72.39    3.50
  -2   2  -7  167.58    5.40
  -2   2  -7  159.58    5.20
  -2   2  -7  159.68    6.20
  -2   2  -7  165.78    5.50
  -2   2  -7  171.58    5.50
   2  -2   7  168.38    5.80
   2  -2   7  164.08    4.60
   2  -2   7  158.98    5.10
   2  -2   7  160.38    5.00
   2  -2   7  157.28    6.70
  -3   2  -7   19.60    2.40
  -3   2  -7   20.90    3.70
  -3   2  -7   19.20    3.30
  -3   2  -7   20.60    2.20
  -3   2  -7   20.10    2.80
  -3   2  -7   18.00    3.10
  -3   2  -7   20.10    2.70
  -3   2  -7   18.20    1.20
   3  -2   7   23.60    2.70
   3  -2   7   18.60    3.20
   3  -2   7   19.30    2.20
   3  -2   7   21.20    2.70
   3  -2   7   19.30    1.40
  -4   2  -7   -2.80    3.00
  -4   2  -7    4.70    2.80
  -4   2  -7    0.50    1.30
  -4   2  -7    1.20    2.00
  -4   2  -7    1.10    1.40
  -4   2  -7    0.10    2.40
   4  -2   7    1.90    1.40
   4  -2   7    3.10    2.80
   4  -2   7    1.80    0.90
   4  -2   7    1.40    1.60
   4  -2   7   -2.10    1.90
  -5   2  -7   -3.30    3.90
  -5   2  -7    7.90    2.30
  -5   2  -7   10.50    2.30
  -5   2  -7   10.90    4.40
  -5   2  -7    4.50    3.10
   5  -2   7    4.80    2.40
   5  -2   7   13.20    4.30
   5  -2   7    6.30    2.60
   5  -2   7    4.90    1.10
  -6   2  -7    0.10    4.20
  -6   2  -7    6.50    4.70
   6  -2   7    5.80    5.20
   6  -2   7   -3.10    3.20
  -7   2  -7    0.00    7.40
  -7   2  -7  -14.50    5.90
   7  -2   7    5.10    7.00
   7  -2   7   10.00    5.10
   7   1  -7   17.50    4.40
   7   1  -7   -4.50    4.80
  -7  -1   7    3.20    4.70
  -7  -1   7    5.30    6.00
   6   1  -7   -4.90    2.80
   6   1  -7   -0.40    1.90
   6   1  -7    7.40    3.60
  -6  -1   7    6.40    3.50
  -6  -1   7   -8.10    4.20
   5   1  -7   12.50    2.80
   5   1  -7   12.60    2.00
   5   1  -7   18.30    3.00
  -5  -1   7   20.50    4.20
  -5  -1   7    9.00    2.90
   4   1  -7  110.39    5.20
   4   1  -7  110.59    4.80
   4   1  -7  109.29    4.30
  -4  -1   7  109.79    5.50
  -4  -1   7  104.89    6.20
  -4  -1   7  114.29    5.20
   3   1  -7    1.80    2.80
   3   1  -7    3.20    1.40
   3   1  -7    5.70    1.30
   3   1  -7    4.80    2.70
   3   1  -7    2.60    1.20
  -3  -1   7    4.40    1.70
  -3  -1   7    0.00    2.30
  -3  -1   7    3.50    2.20
  -3  -1   7    5.50    2.10
  -3  -1   7    3.30    1.30
  -3  -1   7    7.80    1.70
   2   1  -7    1.10    0.90
   2   1  -7   -0.80    1.80
   2   1  -7    0.40    0.90
   2   1  -7    1.20    0.60
   2   1  -7    1.80    1.80
   2   1  -7   -0.10    0.70
  -2  -1   7    1.30    1.40
  -2  -1   7    1.20    1.70
  -2  -1   7    0.90    0.90
  -2  -1   7   -1.40    0.90
  -2  -1   7    0.30    1.30
  -2  -1   7    0.60    1.00
   1   1  -7    2.40    1.50
   1   1  -7    2.30    0.90
   1   1  -7    2.70    1.30
   1   1  -7    1.10    0.90
   1   1  -7    2.90    0.90
  -1  -1   7    2.30    0.90
  -1  -1   7    3.10    1.30
  -1  -1   7    1.00    1.20
  -1  -1   7    2.50    0.90
   0   1  -7  698.53   17.00
   0   1  -7  725.73   16.50
   0   1  -7  691.53   17.20
   0   1  -7  709.43   17.30
   0   1  -7  716.33   17.10
   0  -1   7  691.93   16.10
   0  -1   7  702.63   17.40
   0  -1   7  696.83   17.00
   0  -1   7  710.83   16.90
   0  -1   7  702.73   17.40
   0  -1   7  668.43   17.30
  -1   1  -7  123.89    4.50
  -1   1  -7  131.69    4.60
  -1   1  -7  139.39    4.90
  -1   1  -7  123.89    4.30
  -1   1  -7  134.19    4.50
   1  -1   7  132.59    4.70
   1  -1   7  128.79    4.80
   1  -1   7  126.99    3.50
   1  -1   7  126.69    4.40
   1  -1   7  133.89    4.50
   1  -1   7  128.09    4.10
  -2   1  -7    5.50    1.80
  -2   1  -7    4.20    1.30
  -2   1  -7    5.50    1.30
  -2   1  -7    3.80    1.20
  -2   1  -7    5.70    1.30
   2  -1   7    3.80    1.10
   2  -1   7    3.70    1.20
   2  -1   7    5.20    1.40
   2  -1   7    3.70    1.20
  -3   1  -7  197.88    6.80
  -3   1  -7  192.38    6.50
  -3   1  -7  191.58    5.20
  -3   1  -7  186.88    6.50
  -3   1  -7  189.28    6.30
  -3   1  -7  194.98    7.90
  -3   1  -7  183.98    7.00
   3  -1   7  185.38    6.20
   3  -1   7  193.48    7.80
   3  -1   7  182.68    6.10
   3  -1   7  195.18    6.10
   3  -1   7  191.18    5.60
  -4   1  -7  168.08    6.90
  -4   1  -7  160.78    8.20
  -4   1  -7  175.88    6.40
  -4   1  -7  169.88    5.50
  -4   1  -7  170.78    7.10
  -4   1  -7  179.28    7.70
   4  -1   7  174.28    5.90
   4  -1   7  177.48    6.10
   4  -1   7  175.88    5.40
   4  -1   7  180.38    6.70
   4  -1   7  169.48    7.90
  -5   1  -7   12.90    2.60
  -5   1  -7   19.90    3.70
  -5   1  -7   16.00    2.60
  -5   1  -7   22.10    3.70
  -5   1  -7   17.60    4.60
   5  -1   7   17.30    3.20
   5  -1   7   22.30    4.20
   5  -1   7   15.20    2.40
   5  -1   7   12.40    2.10
   5  -1   7   14.00    2.40
  -6   1  -7    9.50    4.20
  -6   1  -7    6.60    5.50
   6  -1   7    3.40    2.40
   6  -1   7    6.20    3.50
   6  -1   7    8.50    4.80
  -7   1  -7   -1.60    5.70
  -7   1  -7   -1.10    6.90
   7  -1   7   -3.40    4.50
   7  -1   7    2.80    6.20
   7   0  -7   -1.20    4.70
   7   0  -7    1.10    3.90
  -7   0   7   -0.70    4.50
  -7   0   7   -0.10    5.40
  -7   0   7   -1.30    5.10
   6   0  -7    3.30    3.30
   6   0  -7    5.20    1.80
   6   0  -7    7.90    3.00
  -6   0   7    8.20    3.60
  -6   0   7    5.40    4.20
   5   0  -7   18.80    2.30
   5   0  -7   16.00    3.00
   5   0  -7   15.10    2.70
  -5   0   7   17.10    3.50
  -5   0   7   20.00    3.30
  -5   0   7   18.10    3.80
  -5   0   7   14.60    2.00
   4   0  -7   31.70    3.00
   4   0  -7   33.50    2.40
   4   0  -7   25.30    2.80
  -4   0   7   33.00    3.30
  -4   0   7   27.00    3.70
  -4   0   7   27.50    2.80
  -4   0   7   26.40    3.20
   3   0  -7    8.70    3.00
   3   0  -7    7.00    1.40
   3   0  -7    9.40    1.40
   3   0  -7    7.50    2.70
   3   0  -7    7.60    1.60
  -3   0   7    8.00    2.20
  -3   0   7    9.10    2.60
  -3   0   7    7.10    2.20
  -3   0   7    7.40    1.70
  -3   0   7    8.00    1.60
  -3   0   7    5.50    1.70
   2   0  -7   26.50    3.00
   2   0  -7   23.60    1.00
   2   0  -7   26.90    2.80
   2   0  -7   25.80    1.90
   2   0  -7   21.80    1.60
  -2   0   7   23.50    2.00
  -2   0   7   25.10    2.40
  -2   0   7   26.60    2.50
  -2   0   7   22.20    2.10
  -2   0   7   25.30    2.30
  -2   0   7   24.90    2.00
   1   0  -7  370.26   10.10
   1   0  -7  390.66   10.20
   1   0  -7  391.46   10.50
   1   0  -7  398.76   11.10
   1   0  -7  365.06   10.40
  -1   0   7  394.16    9.90
  -1   0   7  389.26   10.20
  -1   0   7  399.16   10.00
  -1   0   7  374.66   10.30
  -1   0   7  389.26   10.30
  -1   0   7  406.76   10.40
   0   0  -7   92.99    3.60
   0   0  -7   90.59    3.40
   0   0  -7   86.99    3.50
   0   0  -7   87.89    3.40
   0   0   7   84.99    3.30
   0   0   7   90.39    3.50
   0   0   7   89.49    2.30
   0   0   7   87.69    3.40
   0   0   7   93.49    3.40
   0   0   7   84.99    3.10
  -1   0  -7  173.98    5.50
  -1   0  -7  164.48    5.30
  -1   0  -7  171.68    5.10
  -1   0  -7  163.88    5.40
  -1   0  -7  168.88    5.30
   1   0   7  173.58    5.10
   1   0   7  170.38    4.40
   1   0   7  159.68    5.30
   1   0   7  166.88    5.50
   1   0   7  169.78    5.30
   1   0   7  169.28    5.40
  -2   0  -7  126.39    4.70
  -2   0  -7  125.89    4.70
  -2   0  -7  125.99    4.60
  -2   0  -7  134.69    4.80
  -2   0  -7  131.09    5.00
   2   0   7  134.09    4.50
   2   0   7  134.49    5.20
   2   0   7  132.69    3.70
   2   0   7  126.69    4.70
   2   0   7  135.89    4.30
  -3   0  -7   14.20    2.30
  -3   0  -7   14.40    2.00
  -3   0  -7   14.80    2.70
  -3   0  -7   17.60    2.40
  -3   0  -7   16.00    2.20
  -3   0  -7   13.20    1.60
  -3   0  -7   16.00    2.70
   3   0   7   16.60    1.90
   3   0   7   16.70    2.00
   3   0   7   14.50    2.10
   3   0   7   15.80    2.00
  -4   0  -7   39.90    3.30
  -4   0  -7   34.70    4.10
  -4   0  -7   38.10    3.70
  -4   0  -7   39.50    2.70
  -4   0  -7   37.60    3.80
   4   0   7   35.20    2.90
   4   0   7   36.10    3.20
   4   0   7   36.00    3.20
   4   0   7   36.50    4.20
   4   0   7   37.50    2.60
   4   0   7   40.60    2.90
  -5   0  -7   31.10    4.30
  -5   0  -7   22.30    3.30
  -5   0  -7   21.90    3.00
  -5   0  -7   23.30    4.80
   5   0   7   19.80    4.10
   5   0   7   23.50    2.70
   5   0   7   26.90    3.20
   5   0   7   17.80    2.70
   5   0   7   20.00    3.20
  -6   0  -7   -2.90    3.60
  -6   0  -7    3.20    4.70
   6   0   7   -4.40    4.00
   6   0   7    5.80    3.30
   6   0   7    3.40    2.80
  -7   0  -7    1.80    6.50
  -7   0  -7   -2.10    5.40
   7   0   7    0.30    4.30
   7   0   7   -4.30    3.40
   7   0   7   -4.80    5.90
   7  -1  -7    4.40    3.80
   7  -1  -7    2.00    4.80
  -7   1   7    3.30    5.40
  -7   1   7    7.30    6.10
  -7   1   7    3.20    4.60
   6  -1  -7    4.10    3.70
   6  -1  -7    3.40    2.80
   6  -1  -7    5.50    5.80
  -6   1   7   -4.40    3.50
  -6   1   7   -2.90    4.00
  -6   1   7   -5.40    3.10
   5  -1  -7   68.19    3.30
   5  -1  -7   72.19    4.80
   5  -1  -7   73.29    4.50
  -5   1   7   71.19    5.50
  -5   1   7   67.99    5.10
  -5   1   7   67.49    6.10
  -5   1   7   54.89    4.60
   4  -1  -7   -0.20    1.50
   4  -1  -7    1.10    1.10
   4  -1  -7    1.50    1.40
  -4   1   7    0.70    1.80
  -4   1   7    0.10    1.60
  -4   1   7    3.50    2.10
  -4   1   7    0.60    2.10
   3  -1  -7   25.50    3.50
   3  -1  -7   18.10    1.80
   3  -1  -7   19.70    2.10
   3  -1  -7   17.10    3.00
   3  -1  -7   21.00    2.10
  -3   1   7   18.80    2.50
  -3   1   7   23.20    2.50
  -3   1   7   25.10    2.90
  -3   1   7   23.00    2.90
  -3   1   7   25.10    3.10
  -3   1   7   21.20    2.40
   2  -1  -7  173.98    5.80
   2  -1  -7  190.48    6.80
   2  -1  -7  194.08    6.50
   2  -1  -7  178.18    5.40
   2  -1  -7  177.08    5.60
  -2   1   7  192.08    5.80
  -2   1   7  192.58    6.30
  -2   1   7  185.58    5.60
  -2   1   7  178.98    6.10
  -2   1   7  175.28    6.50
  -2   1   7  187.88    5.90
  -2   1   7  186.18    5.50
   1  -1  -7   17.20    1.70
   1  -1  -7   15.70    2.10
   1  -1  -7   16.30    1.80
   1  -1  -7   15.40    1.60
   1  -1  -7   17.80    1.90
  -1   1   7   15.40    1.60
  -1   1   7   15.40    1.50
  -1   1   7   19.80    1.60
  -1   1   7   17.50    1.30
  -1   1   7   21.90    1.90
  -1   1   7   13.30    1.50
   0  -1  -7  106.39    3.70
   0  -1  -7  103.89    3.80
   0  -1  -7  110.99    4.00
   0  -1  -7  104.39    3.90
   0  -1  -7  106.39    3.50
   0   1   7  110.59    4.00
   0   1   7  110.69    3.80
   0   1   7  104.49    3.70
   0   1   7  109.49    3.10
   0   1   7  102.49    3.90
   0   1   7  109.09    3.80
  -1  -1  -7   75.09    3.30
  -1  -1  -7   75.99    3.20
  -1  -1  -7   75.29    3.10
  -1  -1  -7   73.49    3.00
  -1  -1  -7   73.49    3.20
   1   1   7   72.49    3.20
   1   1   7   78.09    3.20
   1   1   7   73.19    3.20
   1   1   7   77.89    3.10
   1   1   7   72.59    2.60
  -2  -1  -7    1.10    1.00
  -2  -1  -7   -0.20    1.10
  -2  -1  -7    0.40    1.10
  -2  -1  -7    0.00    0.90
  -2  -1  -7    0.70    1.20
  -2  -1  -7    0.10    0.70
   2   1   7   -0.30    1.00
   2   1   7   -0.60    1.00
   2   1   7    0.60    0.80
   2   1   7    0.70    1.20
   2   1   7    0.50    1.00
  -3  -1  -7   18.80    2.00
  -3  -1  -7   22.20    2.50
  -3  -1  -7   25.00    2.80
  -3  -1  -7   18.50    2.90
  -3  -1  -7   22.20    2.40
  -3  -1  -7   26.10    2.80
  -3  -1  -7   22.20    2.80
   3   1   7   22.80    2.40
   3   1   7   24.70    2.30
   3   1   7   20.00    2.50
   3   1   7   19.20    1.70
  -4  -1  -7    2.60    1.90
  -4  -1  -7    3.80    2.30
  -4  -1  -7   -2.30    1.60
  -4  -1  -7   -2.60    1.50
   4   1   7    1.60    1.20
   4   1   7   -0.90    1.50
   4   1   7   -2.90    1.80
   4   1   7    0.20    1.80
  -5  -1  -7   -1.00    2.60
  -5  -1  -7    2.50    2.40
  -5  -1  -7    1.10    3.40
  -5  -1  -7   -0.50    2.10
   5   1   7    1.50    2.00
   5   1   7   -0.70    2.70
   5   1   7    2.40    2.60
   5   1   7    1.20    2.20
   5   1   7    0.40    1.60
   5   1   7    0.20    2.20
  -6  -1  -7   -1.70    4.60
   6   1   7    2.00    3.10
   6   1   7    1.20    3.80
   6   1   7    1.70    3.00
  -7  -1  -7   -3.10    6.10
  -7  -1  -7    6.20    4.90
   7   1   7    3.00    4.30
   7   1   7   -2.10    5.30
   7  -2  -7    0.60    3.80
   7  -2  -7   12.40    5.10
  -7   2   7    5.30    5.50
  -7   2   7   12.20    6.30
  -7   2   7    5.60    4.70
   6  -2  -7    8.60    3.60
   6  -2  -7   10.40    4.40
   6  -2  -7    6.10    3.10
  -6   2   7   12.50    4.30
  -6   2   7    7.80    3.60
  -6   2   7    2.20    4.30
   5  -2  -7   14.00    2.50
   5  -2  -7   16.10    3.10
  -5   2   7   11.60    3.90
  -5   2   7    9.40    3.20
  -5   2   7   16.80    3.40
  -5   2   7   16.90    3.50
   4  -2  -7   42.10    4.90
   4  -2  -7   46.10    3.10
   4  -2  -7   45.50    2.50
   4  -2  -7   48.80    3.50
  -4   2   7   46.30    4.50
  -4   2   7   43.10    3.70
  -4   2   7   46.90    4.00
  -4   2   7   46.60    4.40
   3  -2  -7   29.40    4.00
   3  -2  -7   30.70    3.90
   3  -2  -7   30.60    2.40
   3  -2  -7   29.60    2.40
   3  -2  -7   28.30    2.00
  -3   2   7   32.40    2.80
  -3   2   7   27.00    2.80
  -3   2   7   31.20    3.40
  -3   2   7   29.90    3.30
  -3   2   7   29.50    2.40
  -3   2   7   26.90    2.80
  -3   2   7   33.70    3.10
   2  -2  -7  154.28    5.10
   2  -2  -7  160.18    5.70
   2  -2  -7  152.68    6.00
   2  -2  -7  150.88    4.90
   2  -2  -7  154.08    5.00
   2  -2  -7  143.69    4.00
  -2   2   7  153.68    5.10
  -2   2   7  155.38    4.90
  -2   2   7  143.59    5.70
  -2   2   7  156.68    5.40
  -2   2   7  153.58    5.40
  -2   2   7  156.18    5.40
   1  -2  -7   79.69    3.50
   1  -2  -7   84.29    3.70
   1  -2  -7   84.99    3.60
   1  -2  -7   74.99    3.30
  -1   2   7   74.09    3.30
  -1   2   7   82.39    3.30
  -1   2   7   86.59    3.20
  -1   2   7   80.79    2.70
  -1   2   7   77.99    3.30
  -1   2   7   77.19    3.30
   0  -2  -7   31.00    2.10
   0  -2  -7   33.10    2.20
   0  -2  -7   28.80    2.00
   0  -2  -7   29.50    1.40
   0  -2  -7   28.50    2.00
   0   2   7   29.00    2.00
   0   2   7   29.30    2.00
   0   2   7   30.80    1.50
   0   2   7   30.80    1.70
   0   2   7   32.00    2.10
   0   2   7   32.10    2.00
  -1  -2  -7    2.20    1.00
  -1  -2  -7    1.00    1.00
  -1  -2  -7    0.10    0.80
  -1  -2  -7    1.60    1.00
  -1  -2  -7    1.20    0.70
   1   2   7    0.40    0.80
   1   2   7    0.90    0.80
   1   2   7    0.70    1.00
   1   2   7    1.80    1.00
   1   2   7    1.20    0.90
  -2  -2  -7  144.59    5.20
  -2  -2  -7  147.79    4.70
  -2  -2  -7  151.98    5.40
  -2  -2  -7  149.99    5.10
  -2  -2  -7  145.79    5.50
  -2  -2  -7  135.99    5.30
   2   2   7  145.79    5.40
   2   2   7  152.78    5.10
   2   2   7  147.09    5.10
   2   2   7  140.39    4.60
   2   2   7  142.39    5.40
  -3  -2  -7    3.70    1.30
  -3  -2  -7    2.10    1.50
  -3  -2  -7   -0.30    1.40
  -3  -2  -7    1.80    1.90
  -3  -2  -7    0.30    1.20
  -3  -2  -7    3.40    1.70
   3   2   7    3.00    1.70
   3   2   7    1.90    1.70
   3   2   7    1.80    1.40
   3   2   7   -0.40    1.00
   3   2   7    2.00    1.50
  -4  -2  -7   41.20    4.30
  -4  -2  -7   31.80    3.30
  -4  -2  -7   38.80    3.90
   4   2   7   37.30    3.70
   4   2   7   39.40    3.80
   4   2   7   36.30    3.30
   4   2   7   41.70    2.80
  -5  -2  -7   -0.50    3.10
  -5  -2  -7   -0.80    1.80
  -5  -2  -7   -1.00    2.60
  -5  -2  -7    3.90    3.20
   5   2   7   -2.70    2.10
   5   2   7    2.40    2.50
   5   2   7    1.80    1.80
  -6  -2  -7    3.60    3.70
  -6  -2  -7    1.40    4.60
   6   2   7   -4.70    2.80
   6   2   7   -4.40    3.50
   6   2   7    6.60    3.40
   6   2   7    2.80    2.60
  -7  -2  -7    7.60    5.30
  -7  -2  -7    8.30    6.40
   7   2   7   -5.50    4.30
   7   2   7    4.00    5.60
   7   2   7    2.20    4.40
   6  -3  -7   -8.90    4.30
   6  -3  -7   -1.90    3.50
   6  -3  -7   -1.10    2.50
  -6   3   7    3.40    3.40
  -6   3   7    6.00    4.10
  -6   3   7   -4.50    4.10
   5  -3  -7   -5.50    2.10
   5  -3  -7   -1.40    1.80
   5  -3  -7   -3.20    3.20
  -5   3   7    2.20    2.40
  -5   3   7   -1.90    2.70
  -5   3   7    3.20    2.90
  -5   3   7    5.80    4.40
   4  -3  -7   41.00    3.10
   4  -3  -7   38.70    2.70
   4  -3  -7   54.39    5.30
   4  -3  -7   38.20    3.60
  -4   3   7   37.20    4.50
  -4   3   7   42.50    4.20
  -4   3   7   44.70    4.10
  -4   3   7   42.30    3.70
   3  -3  -7   17.80    2.90
   3  -3  -7   15.50    2.10
   3  -3  -7   13.60    1.80
   3  -3  -7   11.10    1.70
   3  -3  -7   12.90    2.90
  -3   3   7   14.20    2.40
  -3   3   7   13.50    2.40
  -3   3   7   15.10    2.40
  -3   3   7   12.40    2.30
  -3   3   7   13.30    1.60
  -3   3   7   14.20    3.10
  -3   3   7    9.00    1.80
   2  -3  -7   -0.90    1.60
   2  -3  -7    0.10    0.90
   2  -3  -7    3.40    1.60
   2  -3  -7    1.80    1.10
   2  -3  -7    0.70    1.00
   2  -3  -7    1.00    0.70
  -2   3   7    1.40    0.80
  -2   3   7   -0.10    1.00
  -2   3   7    0.60    1.10
  -2   3   7    5.20    1.50
  -2   3   7    0.90    0.90
  -2   3   7    5.10    1.60
  -2   3   7    0.70    1.30
   1  -3  -7  140.59    5.20
   1  -3  -7  143.29    5.00
   1  -3  -7  149.49    5.00
   1  -3  -7  139.39    5.00
   1  -3  -7  139.09    4.80
  -1   3   7  143.79    4.90
  -1   3   7  147.39    4.90
  -1   3   7  142.69    5.00
  -1   3   7  144.39    4.70
  -1   3   7  140.79    3.60
  -1   3   7  144.09    4.70
   0  -3  -7   34.60    2.40
   0  -3  -7   35.50    1.20
   0  -3  -7   36.20    2.50
   0  -3  -7   34.60    2.20
   0   3   7   35.90    2.20
   0   3   7   34.80    2.20
   0   3   7   35.00    2.10
   0   3   7   35.70    2.20
   0   3   7   34.50    2.20
  -1  -3  -7  129.59    4.60
  -1  -3  -7  127.69    4.80
  -1  -3  -7  131.59    4.60
  -1  -3  -7  122.99    5.00
  -1  -3  -7  127.89    3.80
   1   3   7  121.79    4.40
   1   3   7  124.79    4.70
   1   3   7  128.59    4.60
   1   3   7  130.99    4.50
   1   3   7  124.29    4.60
  -2  -3  -7   12.70    2.10
  -2  -3  -7    8.70    1.70
  -2  -3  -7    8.60    1.70
  -2  -3  -7    9.40    1.50
  -2  -3  -7    8.30    1.70
  -2  -3  -7    8.70    1.80
   2   3   7    9.50    1.80
   2   3   7    9.60    1.40
   2   3   7   10.60    1.80
   2   3   7   10.20    1.90
   2   3   7   13.20    1.90
  -3  -3  -7   -0.30    1.40
  -3  -3  -7    0.30    1.90
  -3  -3  -7    1.10    2.00
  -3  -3  -7   -0.70    1.40
  -3  -3  -7    2.80    1.40
  -3  -3  -7   -3.10    1.40
   3   3   7   -1.00    1.50
   3   3   7    1.80    1.40
   3   3   7    1.60    1.20
   3   3   7    0.00    1.60
   3   3   7    1.40    1.90
  -4  -3  -7    3.70    2.30
  -4  -3  -7    1.30    2.20
  -4  -3  -7    3.60    2.20
   4   3   7   -0.80    2.20
   4   3   7    2.50    2.00
   4   3   7    0.90    1.50
  -5  -3  -7    2.00    1.50
  -5  -3  -7    4.30    2.80
  -5  -3  -7   -1.80    3.20
   5   3   7   -1.50    2.70
   5   3   7   -2.10    1.80
  -6  -3  -7    2.30    3.90
  -6  -3  -7    3.60    4.60
   6   3   7   10.00    3.10
   6   3   7   17.10    4.20
  -7  -3  -7    7.80    6.70
  -7  -3  -7    7.80    5.10
   7   3   7    7.90    4.40
   7   3   7    8.10    4.20
   7   3   7    6.60    5.40
   7   3   7    3.60    4.90
   6  -4  -7    4.20    3.80
   6  -4  -7    2.20    5.20
   6  -4  -7    3.50    2.60
  -6   4   7    4.80    4.40
  -6   4   7   -5.00    3.30
  -6   4   7   -2.40    4.00
   5  -4  -7    6.70    2.90
   5  -4  -7    2.80    3.70
   5  -4  -7    3.40    1.90
  -5   4   7    6.20    3.10
  -5   4   7    0.60    2.60
  -5   4   7    6.50    3.50
   4  -4  -7   39.80    5.30
   4  -4  -7   38.70    3.70
   4  -4  -7   36.00    2.90
  -4   4   7   31.80    2.50
  -4   4   7   38.30    3.40
  -4   4   7   38.90    4.10
  -4   4   7   34.00    3.90
  -4   4   7   33.40    4.90
   3  -4  -7   24.30    2.40
   3  -4  -7   26.90    3.70
   3  -4  -7   29.60    2.80
   3  -4  -7   32.70    4.20
   3  -4  -7   28.20    2.40
   3  -4  -7   26.80    2.90
  -3   4   7   29.90    3.10
  -3   4   7   28.00    2.00
  -3   4   7   27.60    2.70
  -3   4   7   34.60    4.40
  -3   4   7   26.00    3.20
  -3   4   7   23.90    3.00
  -3   4   7   30.70    3.60
   2  -4  -7   31.80    2.60
   2  -4  -7   26.60    2.40
   2  -4  -7   28.90    2.20
   2  -4  -7   36.80    3.10
   2  -4  -7   31.20    2.90
   2  -4  -7   29.30    2.30
  -2   4   7   33.40    2.90
  -2   4   7   31.10    2.50
  -2   4   7   28.40    2.60
  -2   4   7   28.40    2.30
  -2   4   7   26.60    2.70
  -2   4   7   31.70    2.00
   1  -4  -7    5.30    1.50
   1  -4  -7    7.20    1.70
   1  -4  -7   10.30    1.70
   1  -4  -7    9.20    1.50
  -1   4   7    7.40    1.50
  -1   4   7    9.40    1.60
  -1   4   7   10.00    1.50
  -1   4   7    7.90    1.40
  -1   4   7    8.50    1.50
   0  -4  -7    1.70    1.10
   0  -4  -7    1.90    1.20
   0  -4  -7    1.60    0.90
   0  -4  -7    1.10    1.20
   0  -4  -7    3.60    1.40
   0   4   7    1.20    1.10
   0   4   7    3.90    1.10
   0   4   7    2.90    1.20
   0   4   7    1.00    0.90
   0   4   7    0.60    0.90
   0   4   7    3.00    1.30
  -1  -4  -7    5.90    1.60
  -1  -4  -7   10.60    1.80
  -1  -4  -7    7.40    1.60
  -1  -4  -7    8.90    1.60
  -1  -4  -7    8.70    1.00
   1   4   7    8.80    1.80
   1   4   7    7.60    1.40
   1   4   7    8.20    1.40
   1   4   7    6.70    1.70
   1   4   7    8.70    1.70
  -2  -4  -7   17.80    2.60
  -2  -4  -7   17.00    2.50
  -2  -4  -7   21.10    2.50
  -2  -4  -7   20.30    2.50
  -2  -4  -7   19.40    2.30
  -2  -4  -7   16.50    2.10
   2   4   7   19.20    2.40
   2   4   7   16.20    2.20
   2   4   7   19.60    2.10
   2   4   7   16.70    2.30
   2   4   7   17.20    2.30
  -3  -4  -7   -2.80    1.90
  -3  -4  -7    0.60    1.70
  -3  -4  -7   -0.80    1.80
  -3  -4  -7    3.30    1.80
  -3  -4  -7    0.80    1.60
   3   4   7    1.90    1.80
   3   4   7    4.90    2.00
   3   4   7    5.40    2.30
   3   4   7    2.40    1.30
   3   4   7    1.30    1.60
  -4  -4  -7   93.29    5.60
  -4  -4  -7   90.29    5.80
  -4  -4  -7   93.99    5.30
   4   4   7   99.09    4.80
   4   4   7  104.29    5.80
   4   4   7  104.79    6.00
  -5  -4  -7   23.60    4.20
  -5  -4  -7   18.20    2.00
  -5  -4  -7   11.50    3.40
   5   4   7   13.00    3.60
   5   4   7   20.20    2.90
  -6  -4  -7   14.10    5.60
  -6  -4  -7   12.20    4.30
   6   4   7   12.50    3.30
   6   4   7   17.50    4.60
  -7  -4  -7    5.50    6.10
  -7  -4  -7   -6.60    5.10
   7   4   7   -1.40    4.30
   7   4   7    7.30    4.10
   7   4   7    7.80    5.10
   6  -5  -7   -0.60    3.80
   6  -5  -7   -9.40    5.90
  -6   5   7   -9.20    3.40
  -6   5   7   11.60    4.80
  -6   5   7   -3.10    4.70
   5  -5  -7    7.90    2.10
   5  -5  -7    9.10    4.60
   5  -5  -7   -0.20    3.10
  -5   5   7    7.60    3.70
  -5   5   7   15.60    3.10
  -5   5   7    6.10    3.50
   4  -5  -7   37.60    5.00
   4  -5  -7   30.00    3.70
   4  -5  -7   31.50    4.00
   4  -5  -7   33.20    2.70
  -4   5   7   34.90    4.40
  -4   5   7   29.00    3.40
  -4   5   7   28.30    4.00
  -4   5   7   28.20    2.30
   3  -5  -7   17.80    2.20
   3  -5  -7   19.50    2.80
   3  -5  -7   15.20    2.10
   3  -5  -7   20.00    2.80
   3  -5  -7    9.30    3.00
  -3   5   7   18.40    2.60
  -3   5   7   17.30    1.80
  -3   5   7   19.20    2.90
  -3   5   7   13.80    2.20
   2  -5  -7   21.80    2.90
   2  -5  -7   27.70    2.20
   2  -5  -7   27.30    2.50
   2  -5  -7   24.70    2.80
  -2   5   7   25.40    1.20
  -2   5   7   26.40    2.20
  -2   5   7   31.80    2.60
  -2   5   7   22.20    2.80
  -2   5   7   26.20    3.20
  -2   5   7   29.20    2.40
  -2   5   7   25.80    2.40
   1  -5  -7    5.70    1.30
   1  -5  -7    4.60    2.00
   1  -5  -7    6.80    1.50
   1  -5  -7    5.40    1.50
  -1   5   7    3.80    1.20
  -1   5   7    6.70    1.90
  -1   5   7    6.60    1.40
  -1   5   7    7.20    1.50
  -1   5   7    5.50    1.60
   0  -5  -7   75.19    3.80
   0  -5  -7   80.49    4.10
   0  -5  -7   85.19    3.60
   0  -5  -7   81.99    2.90
   0   5   7   81.89    3.90
   0   5   7   79.49    3.90
   0   5   7   82.99    3.70
   0   5   7   83.99    3.80
   0   5   7   81.29    3.70
   0   5   7   81.89    3.90
  -1  -5  -7    1.30    1.30
  -1  -5  -7    1.80    1.00
  -1  -5  -7    1.90    1.30
  -1  -5  -7    1.20    1.40
   1   5   7    0.70    1.60
   1   5   7    2.30    1.40
   1   5   7    2.40    1.60
   1   5   7    1.10    1.10
   1   5   7    1.40    1.10
  -2  -5  -7    1.90    1.70
  -2  -5  -7    0.40    1.50
  -2  -5  -7    2.50    1.90
  -2  -5  -7    0.20    1.80
  -2  -5  -7    2.30    1.30
   2   5   7    0.60    1.40
   2   5   7    4.00    2.00
   2   5   7    1.00    1.30
   2   5   7    1.50    1.30
   2   5   7    0.90    1.80
  -3  -5  -7    6.10    2.60
  -3  -5  -7    4.50    1.80
  -3  -5  -7    8.80    2.50
  -3  -5  -7    3.60    2.20
   3   5   7    0.30    1.70
   3   5   7    2.10    1.60
   3   5   7    3.70    2.10
  -4  -5  -7    4.00    1.70
  -4  -5  -7    5.10    2.50
  -4  -5  -7    6.70    2.60
   4   5   7    6.90    2.90
   4   5   7    4.00    1.90
   4   5   7   -0.70    2.50
  -5  -5  -7   -2.90    2.90
  -5  -5  -7    0.40    3.30
  -5  -5  -7   -1.10    1.40
   5   5   7    5.30    2.50
  -6  -5  -7    1.20    4.30
   6   5   7   -2.90    3.00
   6   5   7    0.70    4.00
  -7  -5  -7    6.90    5.00
  -7  -5  -7   -1.80    5.60
   7   5   7    2.50    4.30
   7   5   7   -1.70    5.30
   6  -6  -7    3.90    4.40
   6  -6  -7    7.20    6.90
  -6   6   7   -3.90    3.80
  -6   6   7    1.10    5.00
  -6   6   7   -1.20    4.80
   5  -6  -7    2.30    4.90
   5  -6  -7    3.00    3.40
  -5   6   7   -5.10    3.30
  -5   6   7    4.10    3.00
  -5   6   7   10.20    4.10
   4  -6  -7   16.90    4.40
   4  -6  -7   26.30    3.90
   4  -6  -7   18.20    2.40
   4  -6  -7   19.80    2.90
  -4   6   7   21.60    2.90
  -4   6   7   15.20    2.00
  -4   6   7   16.00    3.20
  -4   6   7   16.40    3.90
  -4   6   7   19.60    2.90
   3  -6  -7   -1.40    1.80
   3  -6  -7    3.40    1.60
   3  -6  -7   -1.30    2.80
   3  -6  -7    0.50    1.30
   3  -6  -7    3.20    3.00
  -3   6   7   -0.30    1.70
  -3   6   7    2.10    1.50
  -3   6   7   -0.70    1.90
  -3   6   7    0.70    1.30
  -3   6   7    1.80    1.30
   2  -6  -7    8.40    1.70
   2  -6  -7    5.50    2.80
   2  -6  -7    9.00    1.90
   2  -6  -7   10.40    2.20
   2  -6  -7    6.20    1.90
  -2   6   7   11.30    1.90
  -2   6   7    4.90    1.50
  -2   6   7    7.20    2.00
  -2   6   7   12.20    1.80
  -2   6   7    9.50    2.00
   1  -6  -7    9.60    1.40
   1  -6  -7    5.70    1.60
   1  -6  -7    8.10    1.60
   1  -6  -7    4.60    1.60
   1  -6  -7    6.60    2.50
  -1   6   7    5.20    1.70
  -1   6   7    8.00    2.20
  -1   6   7    6.40    1.80
  -1   6   7   10.00    1.90
  -1   6   7    6.80    1.50
   0  -6  -7   18.50    2.30
   0  -6  -7   18.50    1.00
   0  -6  -7   21.80    3.00
   0  -6  -7   19.50    2.20
   0   6   7   22.60    2.60
   0   6   7   21.10    2.40
   0   6   7   20.80    2.80
   0   6   7   18.80    2.50
   0   6   7   14.40    2.10
   0   6   7   18.70    2.20
  -1  -6  -7   97.59    4.10
  -1  -6  -7   90.49    4.50
  -1  -6  -7   91.59    4.50
  -1  -6  -7   89.39    2.80
  -1  -6  -7   88.59    2.80
  -1  -6  -7   88.89    2.90
   1   6   7   91.79    4.40
   1   6   7   91.79    4.40
   1   6   7   92.09    4.40
   1   6   7   88.19    4.30
  -2  -6  -7  479.05   12.90
  -2  -6  -7  481.85   13.80
  -2  -6  -7  473.25   13.30
  -2  -6  -7  437.16   12.50
   2   6   7  458.45   13.20
   2   6   7  469.65   13.40
   2   6   7  483.05   13.70
  -3  -6  -7    4.50    2.50
  -3  -6  -7    4.10    1.90
  -3  -6  -7    3.90    1.90
   3   6   7   -1.30    1.70
   3   6   7    1.90    1.90
   3   6   7    0.60    2.30
  -4  -6  -7   23.50    3.90
  -4  -6  -7   33.90    3.50
  -4  -6  -7   39.90    4.30
   4   6   7   34.80    3.70
   4   6   7   40.20    4.90
   4   6   7   30.30    4.10
  -5  -6  -7    2.60    1.70
  -5  -6  -7    3.60    3.20
  -5  -6  -7    4.80    3.40
   5   6   7    5.40    3.70
   5   6   7    6.40    2.80
  -6  -6  -7    2.40    4.40
   6   6   7   -4.90    4.30
   6   6   7   -1.90    3.40
   5  -7  -7    3.10    3.80
   5  -7  -7   -0.50    5.80
  -5   7   7    1.50    3.10
  -5   7   7    5.30    3.80
  -5   7   7    3.40    4.10
   4  -7  -7    8.20    4.60
   4  -7  -7    1.50    2.90
  -4   7   7    5.30    2.80
  -4   7   7    8.00    2.50
  -4   7   7    4.60    3.30
   3  -7  -7   62.99    5.20
   3  -7  -7   58.59    6.30
   3  -7  -7   56.09    4.20
  -3   7   7   59.89    3.40
  -3   7   7   57.89    3.80
  -3   7   7   57.49    3.90
  -3   7   7   57.69    2.90
  -3   7   7   64.39    4.80
   2  -7  -7   25.50    3.40
   2  -7  -7   27.90    2.50
   2  -7  -7   21.40    2.90
   2  -7  -7   27.40    4.40
  -2   7   7   25.80    3.10
  -2   7   7   22.40    2.90
  -2   7   7   24.50    3.40
  -2   7   7   24.00    2.60
   1  -7  -7    3.00    2.10
   1  -7  -7    2.50    2.30
   1  -7  -7    3.50    1.50
  -1   7   7    1.90    1.50
  -1   7   7    4.30    1.80
  -1   7   7    4.40    1.40
  -1   7   7    0.60    1.60
  -1   7   7    3.90    1.90
   0  -7  -7    6.50    1.50
   0  -7  -7    9.10    2.70
   0  -7  -7    9.60    1.90
   0   7   7    4.70    1.80
   0   7   7    5.70    2.00
   0   7   7    6.80    1.50
   0   7   7    1.10    2.20
   0   7   7    5.60    1.60
  -1  -7  -7   47.20    3.20
  -1  -7  -7   44.10    4.20
  -1  -7  -7   42.50    3.50
  -1  -7  -7   43.70    2.00
   1   7   7   49.40    3.50
   1   7   7   46.90    3.50
   1   7   7   45.90    3.40
   1   7   7   42.10    4.40
  -2  -7  -7   68.49    2.70
  -2  -7  -7   76.79    4.80
  -2  -7  -7   70.39    4.90
  -2  -7  -7   70.49    4.30
   2   7   7   66.59    4.60
   2   7   7   71.89    4.40
   2   7   7   64.59    4.20
  -3  -7  -7  252.07    9.20
  -3  -7  -7  261.07    8.10
  -3  -7  -7  268.27   10.00
   3   7   7  265.17    9.90
   3   7   7  276.17    9.60
   3   7   7  272.97    9.70
  -4  -7  -7   -0.60    2.30
  -4  -7  -7   -0.70    2.90
  -4  -7  -7    5.90    2.40
   4   7   7    6.20    2.70
   4   7   7    2.10    2.90
   4   7   7   -0.90    2.90
  -5  -7  -7    1.10    3.40
  -5  -7  -7    5.50    3.50
   5   7   7   -3.90    3.60
   5   7   7    1.50    3.10
  -6  -7  -7    9.10    5.00
   6   7   7    0.00    3.90
   6   7   7    7.10    5.10
   5  -8  -7   -0.20    6.30
   5  -8  -7   -6.10    4.10
  -5   8   7   -1.90    4.00
  -5   8   7    1.10    4.20
  -5   8   7   -7.20    4.30
   4  -8  -7   -1.70    4.70
   4  -8  -7    4.70    3.30
  -4   8   7   -0.80    2.50
  -4   8   7    0.80    2.70
  -4   8   7   -0.90    3.30
   3  -8  -7  112.49    6.20
   3  -8  -7   99.89    9.70
  -3   8   7  117.39    4.50
  -3   8   7  109.59    5.00
  -3   8   7  108.19    5.20
  -3   8   7  108.19    4.90
   2  -8  -7   90.59    5.60
   2  -8  -7   80.29    6.80
  -2   8   7   85.29    5.30
  -2   8   7   78.09    4.20
  -2   8   7   88.99    4.90
   1  -8  -7    4.50    1.30
   1  -8  -7    1.70    3.10
   1  -8  -7    3.60    2.40
  -1   8   7    0.60    1.90
  -1   8   7    3.00    1.70
  -1   8   7   10.30    2.60
  -1   8   7    1.90    1.80
   0  -8  -7    6.10    1.70
   0  -8  -7    7.40    2.40
   0  -8  -7    6.90    3.10
   0  -8  -7    4.50    1.80
   0   8   7    6.00    2.20
   0   8   7   10.10    2.20
   0   8   7    5.30    1.90
  -1  -8  -7    5.80    1.90
  -1  -8  -7    3.60    2.70
  -1  -8  -7    6.80    2.10
  -1  -8  -7    5.30    1.10
   1   8   7    5.60    2.30
   1   8   7    6.00    2.20
   1   8   7    5.40    2.10
  -2  -8  -7   -1.40    2.30
  -2  -8  -7    0.90    1.30
  -2  -8  -7    0.30    2.70
  -2  -8  -7   -1.00    2.20
   2   8   7    2.40    2.40
   2   8   7   -3.80    1.90
   2   8   7    1.20    1.90
  -3  -8  -7   -1.80    2.80
  -3  -8  -7   -1.40    1.90
  -3  -8  -7   -0.20    2.70
   3   8   7   -0.90    2.20
   3   8   7    0.60    2.70
   3   8   7    1.50    2.40
  -4  -8  -7   -0.10    2.30
  -4  -8  -7   -2.10    2.90
  -4  -8  -7    5.20    2.80
   4   8   7    6.20    4.10
   4   8   7    4.80    3.30
   4   8   7    4.50    3.70
  -5  -8  -7   -2.30    3.40
  -5  -8  -7   -9.90    3.60
   5   8   7    5.70    3.60
   5   8   7   -8.40    4.30
  -6  -8  -7    4.20    4.80
   6   8   7   -3.70    5.10
   6   8   7   -5.90    4.30
   4  -9  -7   10.10    6.20
   4  -9  -7    8.60    3.60
  -4   9   7    5.80    4.10
  -4   9   7   11.90    3.40
  -4   9   7    6.50    3.10
   3  -9  -7   -2.40    4.30
   3  -9  -7    2.70    2.90
  -3   9   7   -1.60    2.30
  -3   9   7   -4.20    2.80
   2  -9  -7   34.80    6.60
   2  -9  -7   31.30    4.20
  -2   9   7   22.40    4.10
  -2   9   7   26.90    3.20
  -2   9   7   25.20    4.90
   1  -9  -7    8.20    3.90
   1  -9  -7    7.40    3.10
  -1   9   7    7.90    2.30
  -1   9   7    7.00    2.50
  -1   9   7   13.80    2.90
   0  -9  -7   22.50    4.40
   0  -9  -7   27.10    4.00
   0  -9  -7   22.30    2.70
   0  -9  -7   27.00    2.10
   0   9   7   20.20    3.20
   0   9   7   27.60    3.70
   0   9   7   30.00    3.50
  -1  -9  -7   65.29    5.90
  -1  -9  -7   67.89    3.90
  -1  -9  -7   65.39    5.70
  -1  -9  -7   65.49    4.30
   1   9   7   67.59    4.50
   1   9   7   70.09    5.00
   1   9   7   69.49    4.70
  -2  -9  -7   24.50    4.30
  -2  -9  -7   20.20    2.70
  -2  -9  -7   28.00    3.50
  -2  -9  -7   27.90    3.50
   2   9   7   22.50    3.40
   2   9   7   26.90    4.00
   2   9   7   26.10    3.80
  -3  -9  -7   11.00    2.40
  -3  -9  -7    7.10    3.30
  -3  -9  -7    9.40    3.60
   3   9   7    6.00    2.80
   3   9   7    4.00    2.90
   3   9   7    3.40    3.30
  -4  -9  -7    5.10    3.60
  -4  -9  -7    7.30    2.50
   4   9   7    1.40    3.20
   4   9   7    3.30    3.70
   4   9   7    4.80    4.20
  -5  -9  -7    2.10    4.70
  -5  -9  -7    4.90    3.90
   5   9   7    2.00    4.20
   5   9   7    2.90    5.10
   4 -10  -7    0.60    7.10
   4 -10  -7   10.00    4.60
  -4  10   7   20.90    5.10
  -4  10   7    6.20    3.50
   3 -10  -7    2.70    6.20
   3 -10  -7   -0.10    4.20
  -3  10   7    0.80    3.30
  -3  10   7   -0.70    3.60
  -3  10   7    0.70    2.80
   2 -10  -7   -4.70    4.20
   2 -10  -7    1.50    3.60
  -2  10   7   -4.40    2.90
  -2  10   7   -5.90    2.90
  -2  10   7    4.80    2.60
   1 -10  -7    8.00    3.90
   1 -10  -7    6.10    4.60
  -1  10   7    6.70    3.10
  -1  10   7    7.10    2.50
   0 -10  -7   12.50    3.60
   0  10   7    3.80    2.80
   0  10   7   10.60    2.80
   0  10   7    7.90    2.70
  -1 -10  -7   -2.40    3.50
  -1 -10  -7    4.70    2.10
  -1 -10  -7    0.70    1.60
  -1 -10  -7    8.00    5.90
   1  10   7   -0.70    2.70
   1  10   7    4.80    2.70
   1  10   7   -4.00    2.70
  -2 -10  -7    6.10    3.80
  -2 -10  -7   10.40    4.10
  -2 -10  -7    8.20    2.10
  -2 -10  -7    6.70    2.90
   2  10   7    6.20    3.00
   2  10   7    6.40    3.40
   2  10   7    1.40    2.70
  -3 -10  -7    4.00    4.00
  -3 -10  -7    6.40    2.50
  -3 -10  -7    2.80    3.40
   3  10   7    5.20    3.50
   3  10   7    6.00    3.70
   3  10   7    1.80    4.10
  -4 -10  -7    0.40    3.10
  -4 -10  -7   -0.40    4.20
  -4 -10  -7   11.10    4.70
   4  10   7    0.30    3.80
   4  10   7   -4.80    4.30
   4  10   7    3.70    4.80
  -5 -10  -7   13.60    4.30
  -5 -10  -7   11.60    5.40
   5  10   7    8.90    5.20
   5  10   7   -0.70    6.10
   3 -11  -7    4.10    7.10
   3 -11  -7    6.50    4.40
  -3  11   7    3.20    3.70
  -3  11   7    0.60    4.50
  -3  11   7   12.00    4.50
   2 -11  -7   -2.00    6.10
   2 -11  -7   -2.50    4.10
  -2  11   7    5.90    3.80
  -2  11   7    1.90    3.60
  -2  11   7   -2.60    3.00
   1 -11  -7    9.60    4.60
   1 -11  -7    3.20    5.30
  -1  11   7   14.00    3.50
  -1  11   7   13.40    3.60
  -1  11   7    9.80    3.80
   0 -11  -7   -2.30    4.10
   0 -11  -7    4.40    4.60
   0  11   7    5.80    3.20
   0  11   7   -3.90    3.30
   0  11   7   -3.60    2.70
  -1 -11  -7    0.40    4.40
  -1 -11  -7   -3.10    4.20
   1  11   7    0.60    3.50
   1  11   7    2.50    3.00
   1  11   7   -2.80    3.00
  -2 -11  -7   -3.60    4.60
  -2 -11  -7   -0.30    2.20
  -2 -11  -7    1.60    2.70
  -2 -11  -7   -4.60    4.00
   2  11   7    1.10    6.70
   2  11   7    2.70    3.50
   2  11   7   -4.30    3.10
  -3 -11  -7    6.30    5.20
  -3 -11  -7    4.40    2.90
  -3 -11  -7    3.80    4.80
  -3 -11  -7    8.40    4.10
   3  11   7   -3.90    3.90
   3  11   7   -1.70    4.70
   3  11   7    2.90    4.10
  -4 -11  -7    3.60    3.70
  -4 -11  -7    6.10    5.30
  -4 -11  -7    1.50    5.40
  -4 -11  -7    4.30    5.60
   4  11   7    5.10    5.90
   4  11   7    3.70    5.40
   4  11   7   -3.40    4.30
   2 -12  -7   -3.90    7.30
   2 -12  -7   -1.70    5.10
  -2  12   7    2.70    4.40
  -2  12   7   -1.40    4.20
   1 -12  -7  -10.00    6.20
   1 -12  -7   -2.10    4.90
  -1  12   7    2.00    4.10
  -1  12   7   -6.40    3.70
  -1  12   7    2.00    3.90
   0 -12  -7    2.70    5.00
   0 -12  -7   10.40    6.10
   0  12   7    0.30    3.70
   0  12   7    9.40    3.70
   0  12   7   -2.40    3.90
  -1 -12  -7   -1.70    5.20
  -1 -12  -7   -1.20    5.90
   1  12   7    2.40    3.70
   1  12   7    1.40    3.70
  -2 -12  -7   10.70    5.20
  -2 -12  -7    8.90    6.10
   2  12   7    0.20    4.00
   2  12   7    8.20    4.60
   2  12   7    4.60    5.00
  -3 -12  -7    5.40    6.10
  -3 -12  -7   -0.20    5.80
   3  12   7   -8.70    5.50
   3  12   7    2.00    5.40
   3  12   7    5.80    4.80
   2  10  -8    3.30    4.00
   2  10  -8   -1.90    4.00
  -2 -10   8    8.00    5.20
   1  10  -8   -3.40    3.50
   1  10  -8    7.20    3.30
  -1 -10   8    2.80    4.90
   0  10  -8   18.50    4.00
   0 -10   8    3.60    4.70
  -1  10  -8    5.30    3.30
   1 -10   8   10.00    6.40
   1 -10   8   17.90    5.70
   3   9  -8   -4.10    3.60
   3   9  -8   -0.10    6.50
   3   9  -8    8.50    4.20
  -3  -9   8    5.00    4.40
  -3  -9   8    7.40    4.70
   2   9  -8   -5.30    4.60
   2   9  -8   -4.60    3.00
   2   9  -8    5.80    3.30
  -2  -9   8    0.00    4.10
   1   9  -8    3.90    2.50
   1   9  -8    7.00    3.20
   1   9  -8    8.50    2.80
  -1  -9   8    9.80    4.40
   0   9  -8    0.00    2.60
   0   9  -8    5.40    2.30
   0  -9   8   -0.20    3.90
  -1   9  -8   10.30    2.30
  -1   9  -8    2.60    2.70
   1  -9   8    9.20    5.50
   1  -9   8   10.70    4.60
  -2   9  -8   -3.50    2.60
   2  -9   8   -0.70    5.50
   2  -9   8   -3.10    4.70
  -3   9  -8   -0.70    3.00
  -3   9  -8   -6.30    6.10
   3  -9   8   13.70    7.60
   4   8  -8    2.20    4.40
   4   8  -8   -4.40    3.80
   4   8  -8    9.60    4.60
  -4  -8   8   -0.80    3.30
  -4  -8   8   11.50    4.90
   3   8  -8    0.30    3.10
   3   8  -8    4.40    3.20
   3   8  -8   -3.70    3.10
  -3  -8   8    6.60    4.10
  -3  -8   8   -3.00    3.50
  -3  -8   8    1.30    2.20
   2   8  -8    5.60    2.90
   2   8  -8    8.60    2.90
   2   8  -8    5.70    2.50
  -2  -8   8   -0.20    3.40
   1   8  -8   -0.10    1.80
   1   8  -8    3.10    2.40
   1   8  -8    0.80    2.10
  -1  -8   8   -4.50    3.10
  -1  -8   8   -0.10    3.20
   0   8  -8    8.70    2.80
   0   8  -8    6.80    1.70
   0   8  -8    9.50    2.20
   0  -8   8    8.50    4.10
   0  -8   8    9.30    3.60
  -1   8  -8   15.30    2.20
  -1   8  -8   13.60    2.70
   1  -8   8    9.30    5.10
   1  -8   8   15.80    4.50
  -2   8  -8   -0.20    4.10
  -2   8  -8    3.10    1.90
   2  -8   8    4.10    4.00
   2  -8   8   -6.80    5.20
  -3   8  -8   -5.70    4.80
  -3   8  -8    4.00    3.20
   3  -8   8   -2.90    6.50
  -4   8  -8   -0.60    6.00
  -4   8  -8    2.40    3.40
   4  -8   8   10.00    7.00
   5   7  -8    0.90    4.40
   5   7  -8    4.10    4.20
  -5  -7   8    2.70    4.10
  -5  -7   8    8.00    5.00
   4   7  -8   13.90    4.00
   4   7  -8   16.50    4.10
   4   7  -8   21.10    3.50
   4   7  -8   16.30    4.20
  -4  -7   8   15.60    4.80
  -4  -7   8   16.60    3.60
   3   7  -8    1.70    3.00
   3   7  -8    0.10    2.70
  -3  -7   8    0.20    3.30
  -3  -7   8    3.30    2.30
   2   7  -8    3.10    2.50
   2   7  -8   -2.90    2.10
   2   7  -8    2.90    2.10
  -2  -7   8   -5.10    5.30
  -2  -7   8    0.60    1.60
  -2  -7   8    0.90    2.80
   1   7  -8    2.30    2.50
   1   7  -8   -1.40    1.70
   1   7  -8    2.20    1.70
   1   7  -8    3.10    1.90
  -1  -7   8    2.90    2.90
  -1  -7   8   -0.20    2.70
  -1  -7   8    2.80    2.40
   0   7  -8    6.00    2.00
   0   7  -8    8.20    1.50
   0   7  -8    5.20    2.20
   0   7  -8    7.50    1.80
   0  -7   8    4.00    3.30
   0  -7   8    5.40    3.10
  -1   7  -8    0.60    2.60
  -1   7  -8   -1.40    2.10
  -1   7  -8    2.40    1.50
  -1   7  -8   -0.20    1.70
   1  -7   8    2.70    5.80
   1  -7   8   -0.80    3.70
  -2   7  -8    6.30    1.60
  -2   7  -8    1.30    1.60
  -2   7  -8    7.20    2.30
   2  -7   8    2.90    3.50
   2  -7   8    9.90    5.40
  -3   7  -8   -3.20    4.00
  -3   7  -8    2.20    2.20
  -3   7  -8    0.60    2.00
   3  -7   8    1.90    5.40
  -4   7  -8    0.60    5.00
  -4   7  -8    0.60    2.60
   4  -7   8    5.00    3.20
   4  -7   8    5.90    6.90
   5   6  -8   -2.00    3.50
   5   6  -8    0.50    3.80
   5   6  -8    5.90    3.70
  -5  -6   8    3.70    3.90
  -5  -6   8    0.20    4.40
   4   6  -8   10.50    2.80
   4   6  -8    8.10    3.00
   4   6  -8    6.90    3.40
  -4  -6   8    3.70    2.90
  -4  -6   8    4.50    3.70
   3   6  -8    1.80    2.20
   3   6  -8    0.20    2.30
  -3  -6   8    4.80    4.40
  -3  -6   8    4.40    2.10
  -3  -6   8    1.30    2.80
   2   6  -8    0.40    1.80
   2   6  -8    1.80    2.00
   2   6  -8   -1.30    1.90
  -2  -6   8    5.70    3.00
  -2  -6   8   -0.40    2.10
  -2  -6   8   -0.10    1.40
  -2  -6   8    2.80    2.60
  -2  -6   8    0.10    2.80
   1   6  -8    7.90    2.10
   1   6  -8    9.90    1.90
   1   6  -8    8.20    1.30
   1   6  -8    9.20    1.70
  -1  -6   8    5.50    1.40
  -1  -6   8    8.80    1.60
  -1  -6   8   11.10    2.90
  -1  -6   8   12.60    2.20
  -1  -6   8    8.00    2.70
   0   6  -8   17.00    2.10
   0   6  -8   18.80    2.70
   0   6  -8   17.10    2.30
   0   6  -8   19.70    3.00
   0  -6   8   23.10    3.50
   0  -6   8   22.50    3.80
  -1   6  -8   -0.10    1.20
  -1   6  -8    1.80    1.60
  -1   6  -8   -0.20    1.60
  -1   6  -8    3.70    2.20
   1  -6   8    1.90    2.20
   1  -6   8    1.90    3.20
  -2   6  -8   21.00    2.40
  -2   6  -8   20.30    2.40
  -2   6  -8   25.40    2.80
  -2   6  -8   21.90    2.70
   2  -6   8   21.80    4.60
   2  -6   8   21.40    4.20
  -3   6  -8    0.00    2.40
  -3   6  -8    0.90    1.80
  -3   6  -8    5.00    1.90
  -3   6  -8    1.60    4.80
  -3   6  -8   -1.80    3.60
   3  -6   8    3.80    4.60
   3  -6   8    0.00    2.00
  -4   6  -8    0.60    2.60
  -4   6  -8    3.40    2.40
  -4   6  -8   -3.30    4.60
   4  -6   8    1.00    2.60
   4  -6   8   -2.00    5.20
  -5   6  -8    5.50    5.80
  -5   6  -8    2.60    3.20
   5  -6   8   -3.10    3.50
   5  -6   8   13.40    6.90
   6   5  -8    6.20    4.10
   6   5  -8    2.90    4.30
   6   5  -8    7.40    5.70
  -6  -5   8    5.80    5.60
  -6  -5   8    3.70    4.60
   5   5  -8    8.50    3.40
   5   5  -8    1.40    3.20
   5   5  -8    0.00    3.20
  -5  -5   8    6.70    4.00
  -5  -5   8    2.30    3.50
   4   5  -8    2.20    2.60
   4   5  -8    0.70    2.50
   4   5  -8    6.20    2.30
  -4  -5   8    0.60    2.90
  -4  -5   8    4.00    2.70
   3   5  -8    7.90    1.80
   3   5  -8    9.00    2.50
   3   5  -8    9.70    2.30
  -3  -5   8    9.80    2.20
  -3  -5   8    3.40    2.60
   2   5  -8    3.40    1.70
   2   5  -8   -0.50    1.70
   2   5  -8    2.20    1.70
   2   5  -8    4.40    1.30
  -2  -5   8    0.90    1.40
  -2  -5   8    7.80    3.20
  -2  -5   8    4.50    1.90
  -2  -5   8    0.90    2.30
  -2  -5   8    3.90    2.40
   1   5  -8    4.30    1.60
   1   5  -8    3.60    0.80
   1   5  -8    2.10    1.60
   1   5  -8    1.30    2.60
  -1  -5   8    4.80    1.30
  -1  -5   8    5.10    2.30
  -1  -5   8    4.20    1.60
  -1  -5   8    1.80    2.00
  -1  -5   8    5.50    2.40
   0   5  -8   -0.40    1.10
   0   5  -8    1.40    1.40
   0   5  -8   -0.60    0.80
   0   5  -8   -3.00    1.80
   0  -5   8    2.00    2.30
   0  -5   8   -0.40    1.60
  -1   5  -8   28.00    1.50
  -1   5  -8   27.40    2.60
  -1   5  -8   39.80    3.00
  -1   5  -8   29.30    2.20
   1  -5   8   28.10    3.80
   1  -5   8   30.80    4.30
  -2   5  -8    6.50    1.70
  -2   5  -8    5.30    1.70
  -2   5  -8    5.80    1.50
  -2   5  -8   10.20    2.00
   2  -5   8    8.70    3.60
   2  -5   8    8.10    1.60
   2  -5   8    6.80    2.90
  -3   5  -8   31.50    3.00
  -3   5  -8   28.10    3.40
  -3   5  -8   26.80    3.10
  -3   5  -8   28.20    4.80
  -3   5  -8   22.70    2.80
   3  -5   8   26.20    2.90
   3  -5   8   26.50    4.90
  -4   5  -8   28.70    5.30
  -4   5  -8   24.60    3.30
  -4   5  -8   26.70    3.40
   4  -5   8   29.00    3.50
   4  -5   8   31.30    6.30
  -5   5  -8   30.30    3.60
  -5   5  -8   32.70    6.40
  -5   5  -8   26.30    4.50
   5  -5   8   24.90    7.10
   5  -5   8   27.20    4.50
  -6   5  -8    3.70    7.30
   6  -5   8   10.60    8.00
   6  -5   8    0.90    4.10
   6   4  -8   -3.90    4.70
   6   4  -8   -2.90    3.50
   6   4  -8   -1.50    3.80
  -6  -4   8    0.40    4.60
  -6  -4   8   16.30    6.30
  -6  -4   8   -5.20    4.50
  -6  -4   8   -3.00    4.10
   5   4  -8   10.50    3.40
   5   4  -8    7.90    3.20
   5   4  -8    1.80    2.80
  -5  -4   8    7.00    3.70
  -5  -4   8   10.80    3.60
   4   4  -8   11.70    2.40
   4   4  -8   11.00    2.60
   4   4  -8    9.40    2.80
  -4  -4   8   12.60    2.90
  -4  -4   8   18.00    3.60
  -4  -4   8   12.40    3.10
  -4  -4   8   12.10    1.90
   3   4  -8    7.80    1.60
   3   4  -8   11.30    2.40
   3   4  -8    2.80    1.90
  -3  -4   8    8.60    1.50
  -3  -4   8   11.00    3.30
  -3  -4   8   12.00    2.80
  -3  -4   8    7.30    2.00
  -3  -4   8    7.30    1.10
   2   4  -8    3.70    1.70
   2   4  -8    3.30    1.90
   2   4  -8    2.70    1.70
   2   4  -8    4.80    1.00
  -2  -4   8    6.40    2.70
  -2  -4   8    6.00    2.00
  -2  -4   8    4.10    2.00
  -2  -4   8    4.30    1.50
  -2  -4   8    5.40    1.90
   1   4  -8    3.80    2.50
   1   4  -8    1.30    1.20
   1   4  -8    2.10    1.30
   1   4  -8   -0.50    1.90
  -1  -4   8    2.50    1.30
  -1  -4   8    0.60    1.50
  -1  -4   8    3.50    1.20
  -1  -4   8    3.10    1.80
  -1  -4   8    1.50    1.70
   0   4  -8   19.50    2.60
   0   4  -8   17.30    2.90
   0   4  -8   19.10    2.20
   0   4  -8   16.60    1.90
   0  -4   8   18.80    1.70
   0  -4   8   16.40    1.20
   0  -4   8   21.50    2.70
   0  -4   8   22.00    3.20
   0  -4   8   15.80    2.00
  -1   4  -8   22.20    2.20
  -1   4  -8   16.80    1.90
  -1   4  -8   17.50    1.50
  -1   4  -8   16.20    2.10
  -1   4  -8   14.10    2.90
   1  -4   8   27.70    5.80
   1  -4   8   24.80    3.60
   1  -4   8   19.70    2.90
  -2   4  -8   17.50    2.30
  -2   4  -8   21.90    2.10
  -2   4  -8   26.30    2.60
  -2   4  -8   20.80    2.40
   2  -4   8   18.90    3.40
   2  -4   8   26.00    3.70
   2  -4   8   21.90    4.00
   2  -4   8   20.60    2.00
  -3   4  -8   22.60    2.60
  -3   4  -8   27.90    2.80
  -3   4  -8   25.10    3.30
  -3   4  -8   27.10    4.20
  -3   4  -8   23.10    3.10
   3  -4   8   33.30    5.10
   3  -4   8   23.50    2.60
   3  -4   8   23.80    3.80
  -4   4  -8    2.30    1.80
  -4   4  -8   10.70    4.00
  -4   4  -8    1.40    2.30
   4  -4   8   -1.50    2.10
   4  -4   8    1.70    3.50
  -5   4  -8    5.50    2.50
  -5   4  -8    3.00    4.80
  -5   4  -8   -0.90    3.40
   5  -4   8   -5.60    4.70
   5  -4   8    6.20    3.20
  -6   4  -8    0.60    6.60
  -6   4  -8    9.10    5.30
   6  -4   8    2.90    6.40
   6  -4   8    9.50    4.40
   6   3  -8   -3.90    3.50
   6   3  -8   -5.80    2.90
   6   3  -8    1.10    3.90
  -6  -3   8    1.60    5.40
  -6  -3   8    1.90    4.50
  -6  -3   8    4.50    4.00
  -6  -3   8    4.80    4.10
   5   3  -8   -4.60    2.70
   5   3  -8   -1.10    2.60
   5   3  -8    3.10    2.40
  -5  -3   8   -2.60    3.40
  -5  -3   8    5.20    4.10
  -5  -3   8    0.30    2.40
  -5  -3   8   -1.80    2.90
   4   3  -8    3.30    1.90
   4   3  -8   10.20    2.50
   4   3  -8    6.80    1.90
  -4  -3   8    5.00    1.90
  -4  -3   8    2.40    2.30
  -4  -3   8    4.70    2.40
   3   3  -8    4.10    1.40
   3   3  -8    0.80    1.50
   3   3  -8    2.30    1.50
  -3  -3   8    3.40    1.20
  -3  -3   8    1.10    1.80
  -3  -3   8    1.20    1.00
  -3  -3   8    2.10    2.50
  -3  -3   8    2.40    2.00
   2   3  -8    1.90    1.40
   2   3  -8    0.70    1.20
   2   3  -8    0.80    1.40
   2   3  -8    1.70    0.70
  -2  -3   8    2.80    0.70
  -2  -3   8    2.30    1.70
  -2  -3   8    1.10    1.50
  -2  -3   8    2.60    2.40
  -2  -3   8    1.40    1.40
  -2  -3   8    0.70    1.70
   1   3  -8  127.59    5.60
   1   3  -8  137.29    5.30
   1   3  -8  133.79    5.50
   1   3  -8  128.79    5.10
   1   3  -8  130.79    4.90
   1   3  -8  119.79    6.10
  -1  -3   8  135.29    5.40
  -1  -3   8  132.59    4.40
  -1  -3   8  142.19    5.40
  -1  -3   8  130.29    4.60
  -1  -3   8  129.59    5.50
   0   3  -8   -2.30    1.60
   0   3  -8    0.70    1.70
   0   3  -8    0.10    0.60
   0   3  -8    0.00    1.00
   0   3  -8   -0.90    0.90
   0   3  -8    0.20    1.40
   0  -3   8    0.40    0.60
   0  -3   8    0.60    1.30
   0  -3   8    1.00    1.70
   0  -3   8    1.30    1.30
   0  -3   8   -0.40    1.00
   0  -3   8    2.00    2.10
  -1   3  -8   36.30    3.60
  -1   3  -8   43.00    2.50
  -1   3  -8   44.00    2.80
  -1   3  -8   43.00    2.70
  -1   3  -8   38.20    3.50
  -1   3  -8   42.10    2.10
   1  -3   8   38.20    3.20
   1  -3   8   39.90    3.80
   1  -3   8   39.50    2.30
   1  -3   8   40.00    2.20
   1  -3   8   44.60    3.60
  -2   3  -8  841.32   20.60
  -2   3  -8  865.91   20.50
  -2   3  -8  841.32   21.00
  -2   3  -8  875.31   23.20
  -2   3  -8  858.61   20.70
   2  -3   8  841.92   19.20
   2  -3   8  835.02   20.10
   2  -3   8  822.42   19.10
   2  -3   8  851.21   23.10
   2  -3   8  861.71   21.70
  -3   3  -8   15.00    3.40
  -3   3  -8   12.90    2.50
  -3   3  -8   15.90    2.20
  -3   3  -8   16.00    2.30
  -3   3  -8   17.10    2.70
   3  -3   8   14.10    2.70
   3  -3   8   14.90    3.70
   3  -3   8   18.10    2.30
  -4   3  -8   46.20    4.10
  -4   3  -8   41.70    2.00
  -4   3  -8   63.99    6.30
  -4   3  -8   48.50    3.60
   4  -3   8   46.50    3.90
   4  -3   8   63.99    6.50
   4  -3   8   46.00    4.70
  -5   3  -8    6.60    2.50
  -5   3  -8    9.90    4.60
  -5   3  -8    1.40    3.30
   5  -3   8    5.40    3.00
   5  -3   8    0.50    4.50
  -6   3  -8    0.00    4.80
  -6   3  -8   11.40    6.20
   6  -3   8    5.60    3.90
   6  -3   8   -7.90    5.50
   6   2  -8    3.90    3.50
   6   2  -8    0.80    2.40
   6   2  -8    5.80    3.90
  -6  -2   8    7.40    4.10
  -6  -2   8    6.90    5.20
  -6  -2   8    4.60    4.50
  -6  -2   8    2.60    4.00
   5   2  -8    1.20    1.90
   5   2  -8    0.20    2.40
   5   2  -8   -0.80    2.60
  -5  -2   8    1.50    2.90
  -5  -2   8   -0.70    3.70
  -5  -2   8    0.70    2.50
  -5  -2   8    0.80    3.00
   4   2  -8   21.20    3.00
   4   2  -8   24.00    2.80
   4   2  -8   27.90    3.00
  -4  -2   8   38.70    4.50
  -4  -2   8   23.70    3.30
  -4  -2   8   28.90    3.80
  -4  -2   8   22.60    3.00
   3   2  -8   56.29    2.90
   3   2  -8   53.39    3.60
   3   2  -8   54.69    3.30
  -3  -2   8   55.49    3.70
  -3  -2   8   54.29    3.00
  -3  -2   8   55.79    4.40
  -3  -2   8   56.39    4.00
   2   2  -8   50.29    3.10
   2   2  -8   48.70    3.00
   2   2  -8   52.79    2.00
   2   2  -8   49.60    2.60
   2   2  -8   50.39    4.20
  -2  -2   8   56.99    4.10
  -2  -2   8   48.40    3.40
  -2  -2   8   51.89    3.10
  -2  -2   8   53.69    3.40
   1   2  -8    1.40    1.00
   1   2  -8    0.70    1.20
   1   2  -8   -0.70    0.90
   1   2  -8   -1.20    1.50
   1   2  -8   -0.90    1.90
  -1  -2   8    3.30    1.20
  -1  -2   8    0.40    1.50
  -1  -2   8   -1.50    1.80
  -1  -2   8    1.40    0.70
  -1  -2   8    1.30    1.00
  -1  -2   8    1.90    1.20
   0   2  -8   28.00    1.70
   0   2  -8   38.60    2.60
   0   2  -8   31.10    2.10
   0   2  -8   29.40    2.80
   0   2  -8   36.90    2.90
   0   2  -8   32.70    2.30
   0  -2   8   35.00    3.00
   0  -2   8   33.50    1.40
   0  -2   8   31.30    2.50
   0  -2   8   30.20    2.40
   0  -2   8   29.60    1.80
   0  -2   8   32.90    2.20
  -1   2  -8   13.40    1.80
  -1   2  -8   13.40    1.70
  -1   2  -8   12.80    1.60
  -1   2  -8   20.00    2.80
  -1   2  -8   15.80    2.50
  -1   2  -8   14.50    1.90
   1  -2   8   14.80    2.40
   1  -2   8   14.30    1.80
   1  -2   8   13.40    2.00
   1  -2   8   12.30    0.80
   1  -2   8   14.90    2.30
  -2   2  -8    0.80    1.70
  -2   2  -8    1.70    1.10
  -2   2  -8    0.80    1.10
  -2   2  -8    2.40    1.40
  -2   2  -8    3.30    1.50
   2  -2   8    0.60    1.60
   2  -2   8    1.90    1.00
   2  -2   8    0.80    2.10
   2  -2   8    0.50    1.10
   2  -2   8    1.20    1.00
  -3   2  -8  619.84   17.40
  -3   2  -8  595.04   15.90
  -3   2  -8  608.44   15.80
  -3   2  -8  617.24   16.00
  -3   2  -8  592.54   15.70
  -3   2  -8  606.24   18.00
   3  -2   8  587.14   14.20
   3  -2   8  593.54   14.80
   3  -2   8  597.14   15.40
   3  -2   8  600.54   15.80
   3  -2   8  601.44   18.00
  -4   2  -8   14.20    1.60
  -4   2  -8   16.10    4.00
  -4   2  -8    9.90    2.40
  -4   2  -8   11.50    2.10
  -4   2  -8   12.80    3.90
   4  -2   8   13.10    1.70
   4  -2   8   14.10    2.40
   4  -2   8   15.70    4.30
   4  -2   8   12.20    1.50
   4  -2   8   14.60    2.70
  -5   2  -8    3.50    3.20
  -5   2  -8    4.80    2.40
  -5   2  -8    7.60    4.10
   5  -2   8    6.30    2.70
   5  -2   8    3.30    3.20
  -6   2  -8   -0.10    5.00
   6  -2   8   -0.10    3.70
   6  -2   8    4.80    5.70
   6   1  -8   12.50    3.50
   6   1  -8    4.20    2.30
   6   1  -8    7.50    3.70
  -6  -1   8   12.90    5.20
  -6  -1   8   -2.40    3.50
   5   1  -8    3.30    2.60
   5   1  -8    5.80    1.90
   5   1  -8    1.10    2.40
  -5  -1   8    6.00    4.00
  -5  -1   8   10.80    3.20
  -5  -1   8    6.30    2.80
  -5  -1   8   -2.70    3.00
   4   1  -8   22.20    2.90
   4   1  -8   27.60    3.20
   4   1  -8   24.10    2.50
  -4  -1   8   32.20    3.60
  -4  -1   8   34.60    4.70
  -4  -1   8   29.00    3.70
  -4  -1   8   26.80    3.10
  -4  -1   8   22.70    2.00
   3   1  -8  347.37    9.30
   3   1  -8  341.67    9.80
   3   1  -8  349.77   10.40
  -3  -1   8  348.67   10.60
  -3  -1   8  353.86    9.80
  -3  -1   8  350.36   10.60
  -3  -1   8  348.37   10.50
   2   1  -8    4.70    1.40
   2   1  -8    0.90    2.10
   2   1  -8    6.20    2.50
   2   1  -8    4.10    1.30
   2   1  -8    5.60    0.90
   2   1  -8    3.00    0.90
  -2  -1   8    3.90    1.30
  -2  -1   8    5.30    2.00
  -2  -1   8    4.10    1.00
  -2  -1   8    4.30    1.70
  -2  -1   8    3.40    2.00
  -2  -1   8    2.60    1.40
   1   1  -8   12.60    1.80
   1   1  -8   17.90    2.30
   1   1  -8   21.40    2.90
   1   1  -8    9.80    1.50
   1   1  -8   13.00    1.70
  -1  -1   8   18.60    2.40
  -1  -1   8   15.80    1.70
  -1  -1   8   16.60    2.20
  -1  -1   8   10.10    1.50
  -1  -1   8   13.70    1.90
   0   1  -8  117.89    4.50
   0   1  -8  116.19    4.30
   0   1  -8  122.59    3.90
   0   1  -8  121.09    4.50
   0   1  -8  114.89    4.50
   0   1  -8  122.89    4.70
   0  -1   8  119.69    3.50
   0  -1   8  122.39    4.40
   0  -1   8  119.99    4.80
   0  -1   8  120.59    4.60
   0  -1   8  113.49    4.30
  -1   1  -8   29.10    2.10
  -1   1  -8   28.60    2.20
  -1   1  -8   33.40    2.40
  -1   1  -8   29.10    2.00
  -1   1  -8   31.30    2.70
   1  -1   8   33.30    2.60
   1  -1   8   29.80    2.60
   1  -1   8   28.90    2.10
   1  -1   8   27.30    2.20
   1  -1   8   27.30    1.30
   1  -1   8   30.00    2.30
  -2   1  -8   41.80    3.30
  -2   1  -8   45.50    2.70
  -2   1  -8   42.90    2.70
  -2   1  -8   36.70    2.60
  -2   1  -8   46.20    3.00
   2  -1   8   42.00    2.40
   2  -1   8   36.50    2.70
   2  -1   8   37.90    2.30
   2  -1   8   43.40    2.90
  -3   1  -8    5.60    2.40
  -3   1  -8    5.30    2.60
  -3   1  -8    7.10    0.90
  -3   1  -8    4.30    1.70
  -3   1  -8    2.80    2.00
  -3   1  -8    5.70    2.00
  -3   1  -8    6.20    1.70
   3  -1   8    5.50    1.70
   3  -1   8    6.30    1.60
   3  -1   8    4.70    1.40
   3  -1   8    9.70    2.00
  -4   1  -8   12.50    2.60
  -4   1  -8   12.20    2.30
  -4   1  -8   14.30    3.60
  -4   1  -8    9.90    1.70
  -4   1  -8    6.00    3.20
   4  -1   8   12.10    2.40
   4  -1   8   15.90    3.80
   4  -1   8   10.60    1.80
   4  -1   8   13.10    2.30
   4  -1   8   12.40    2.30
  -5   1  -8   -0.80    2.70
  -5   1  -8    0.80    2.10
  -5   1  -8    1.00    2.10
  -5   1  -8   -2.40    4.30
  -5   1  -8    3.90    3.70
   5  -1   8    0.60    2.00
   5  -1   8    2.50    2.40
   5  -1   8    1.40    2.00
   5  -1   8    3.50    3.70
   5  -1   8   -4.70    2.40
  -6   1  -8    7.80    5.80
   6  -1   8   14.60    2.70
   6  -1   8    4.60    3.70
   6  -1   8   11.00    5.60
  -7   1  -8    2.90    6.10
  -7   1  -8    8.70    7.60
   7  -1   8    8.20    7.10
   7  -1   8    6.30    4.90
   6   0  -8    0.50    2.10
   6   0  -8    4.20    3.20
  -6   0   8   -0.50    3.40
  -6   0   8   10.90    4.90
  -6   0   8    0.10    4.00
   5   0  -8    2.70    2.50
   5   0  -8   -0.80    1.60
   5   0  -8    0.90    2.30
  -5   0   8    1.50    3.00
  -5   0   8   -1.50    2.60
   4   0  -8   15.50    2.00
   4   0  -8   12.60    2.20
   4   0  -8   13.10    2.30
  -4   0   8   10.70    2.50
  -4   0   8   13.40    2.50
  -4   0   8   10.50    2.40
  -4   0   8   15.50    3.50
   3   0  -8    2.10    1.40
   3   0  -8    0.50    1.00
   3   0  -8    1.20    1.20
  -3   0   8    6.00    1.60
  -3   0   8    0.60    2.10
  -3   0   8    1.80    1.30
  -3   0   8    0.70    1.80
  -3   0   8    0.00    1.40
   2   0  -8   53.99    3.00
   2   0  -8   50.79    1.90
   2   0  -8   56.69    2.60
   2   0  -8   60.79    3.90
   2   0  -8   53.09    2.80
   2   0  -8   51.29    4.10
  -2   0   8   46.30    3.20
  -2   0   8   48.80    2.70
  -2   0   8   57.09    3.20
  -2   0   8   51.19    2.90
  -2   0   8   51.39    3.00
  -2   0   8   59.09    3.70
   1   0  -8   27.50    2.50
   1   0  -8   26.40    2.90
   1   0  -8   29.00    2.20
   1   0  -8   28.00    2.10
   1   0  -8   26.80    2.00
  -1   0   8   28.60    2.10
  -1   0   8   28.40    1.80
  -1   0   8   29.30    2.10
  -1   0   8   25.20    2.00
  -1   0   8   28.30    2.50
  -1   0   8   29.00    2.50
   0   0  -8    0.40    1.00
   0   0  -8    2.40    1.00
   0   0  -8    1.30    0.90
   0   0  -8    2.20    0.90
   0   0  -8   -0.60    1.10
   0   0   8    1.60    1.10
   0   0   8    2.20    0.90
   0   0   8    2.80    0.90
   0   0   8    1.90    0.30
   0   0   8    3.20    1.10
   0   0   8    2.50    1.00
  -1   0  -8  801.32   20.00
  -1   0  -8  838.32   19.70
  -1   0  -8  826.42   20.10
  -1   0  -8  788.72   20.10
  -1   0  -8  862.11   20.20
   1   0   8  805.32   20.30
   1   0   8  851.11   19.70
   1   0   8  821.92   20.10
   1   0   8  838.82   20.00
   1   0   8  796.92   18.70
   1   0   8  808.92   20.00
  -2   0  -8   -0.60    1.10
  -2   0  -8    0.90    1.20
  -2   0  -8   -0.50    1.20
  -2   0  -8    0.50    1.40
  -2   0  -8    1.80    1.60
   2   0   8   -0.90    1.10
   2   0   8    1.20    1.10
   2   0   8    0.00    1.30
   2   0   8    0.10    0.60
   2   0   8    0.80    1.20
  -3   0  -8    7.60    2.20
  -3   0  -8    6.50    1.70
  -3   0  -8    8.50    2.30
  -3   0  -8    4.20    2.00
  -3   0  -8    6.00    1.10
  -3   0  -8    4.90    1.80
  -3   0  -8    5.30    2.20
   3   0   8    7.20    1.40
   3   0   8    5.70    1.40
   3   0   8    9.40    1.70
   3   0   8    8.80    1.80
   3   0   8    6.30    1.80
  -4   0  -8   42.00    2.90
  -4   0  -8   43.70    4.40
  -4   0  -8   43.50    3.50
  -4   0  -8   46.30    5.10
  -4   0  -8   39.40    3.90
   4   0   8   39.60    3.50
   4   0   8   32.00    3.10
   4   0   8   33.30    2.60
   4   0   8   36.10    3.20
   4   0   8   45.30    3.40
  -5   0  -8   23.00    4.80
  -5   0  -8   20.10    3.90
  -5   0  -8   21.30    3.40
  -5   0  -8   20.70    3.00
  -5   0  -8   23.30    4.00
   5   0   8   24.30    4.50
   5   0   8   28.20    3.80
   5   0   8   23.00    2.90
   5   0   8   24.90    3.20
   5   0   8   20.80    3.20
  -6   0  -8   -6.70    5.10
  -6   0  -8    3.80    4.00
   6   0   8   -0.70    3.40
   6   0   8    1.60    4.40
   6   0   8    1.70    2.90
  -7   0  -8    0.80    6.00
  -7   0  -8    4.00    7.20
   7   0   8    4.10    6.40
   7   0   8   -1.90    4.60
   6  -1  -8    2.90    3.60
   6  -1  -8    7.40    3.20
  -6   1   8    1.30    4.40
  -6   1   8    1.90    3.50
  -6   1   8    7.80    4.20
   5  -1  -8   30.00    3.90
   5  -1  -8   30.40    3.90
   5  -1  -8   28.30    2.80
  -5   1   8   24.80    4.80
  -5   1   8   27.50    4.10
   4  -1  -8    1.80    1.30
   4  -1  -8    3.00    1.70
   4  -1  -8    0.30    1.60
  -4   1   8   -0.50    2.50
  -4   1   8    2.70    2.00
  -4   1   8    0.20    1.80
  -4   1   8    3.90    2.50
   3  -1  -8    2.40    1.10
   3  -1  -8    0.50    2.80
   3  -1  -8   -0.10    1.20
   3  -1  -8    1.40    2.80
   3  -1  -8   -0.90    1.00
  -3   1   8    0.60    1.30
  -3   1   8    0.60    1.40
  -3   1   8   -0.10    1.40
  -3   1   8    0.80    1.80
  -3   1   8   -2.00    2.00
  -3   1   8    0.70    1.80
   2  -1  -8    0.50    0.50
   2  -1  -8    1.50    0.90
   2  -1  -8    0.80    1.00
   2  -1  -8    2.50    1.10
   2  -1  -8    4.10    2.00
   2  -1  -8   -2.10    1.80
  -2   1   8   -1.00    1.00
  -2   1   8    3.70    1.70
  -2   1   8   -0.30    1.30
  -2   1   8    2.00    1.20
  -2   1   8    0.20    0.90
  -2   1   8   -1.10    1.00
   1  -1  -8   51.99    2.70
   1  -1  -8   47.00    2.60
   1  -1  -8   50.19    3.40
   1  -1  -8   49.10    3.10
   1  -1  -8   52.19    2.80
  -1   1   8   50.09    2.10
  -1   1   8   49.80    2.60
  -1   1   8   51.29    2.50
  -1   1   8   50.79    2.70
  -1   1   8   50.39    2.90
  -1   1   8   48.80    2.70
   0  -1  -8    0.90    0.90
   0  -1  -8   -0.80    1.00
   0  -1  -8    0.00    1.00
   0  -1  -8    1.10    0.90
   0   1   8    0.90    0.80
   0   1   8   -0.10    0.50
   0   1   8   -0.10    1.00
   0   1   8   -0.60    0.70
   0   1   8   -0.40    0.80
   0   1   8   -1.20    1.00
  -1  -1  -8    0.40    1.20
  -1  -1  -8    0.30    0.90
  -1  -1  -8    1.00    1.00
  -1  -1  -8   -1.00    0.90
  -1  -1  -8    1.10    1.00
   1   1   8   -0.40    0.90
   1   1   8   -1.10    0.90
   1   1   8    1.50    1.20
   1   1   8    1.30    1.00
  -2  -1  -8   27.20    2.40
  -2  -1  -8   29.80    2.70
  -2  -1  -8   29.60    2.50
  -2  -1  -8   30.00    2.50
  -2  -1  -8   30.90    2.50
   2   1   8   28.90    2.30
   2   1   8   27.20    2.70
   2   1   8   31.00    2.40
   2   1   8   30.10    1.80
   2   1   8   30.60    2.60
  -3  -1  -8   17.70    2.80
  -3  -1  -8    9.40    2.70
  -3  -1  -8    9.60    2.30
  -3  -1  -8   10.00    1.90
  -3  -1  -8   13.70    1.70
  -3  -1  -8    9.20    2.00
  -3  -1  -8    8.70    2.10
   3   1   8   10.80    2.40
   3   1   8   13.70    1.60
   3   1   8   13.00    2.00
   3   1   8   11.00    2.10
   3   1   8   15.30    2.20
  -4  -1  -8   39.50    3.50
  -4  -1  -8   46.20    4.80
  -4  -1  -8   36.80    3.10
  -4  -1  -8   34.10    3.90
   4   1   8   38.10    2.70
   4   1   8   35.20    3.50
   4   1   8   45.00    3.30
   4   1   8   30.60    3.80
  -5  -1  -8   23.40    3.80
  -5  -1  -8   22.50    4.70
  -5  -1  -8   20.30    3.20
  -5  -1  -8   21.50    3.40
   5   1   8   25.80    3.10
   5   1   8   34.60    4.30
   5   1   8   22.10    3.40
   5   1   8   21.20    4.00
   5   1   8   19.60    3.40
  -6  -1  -8   11.10    4.20
  -6  -1  -8    1.60    5.10
   6   1   8   -0.30    7.50
   6   1   8    6.20    3.30
   6   1   8    5.90    3.50
  -7  -1  -8   -1.30    5.60
  -7  -1  -8    6.20    7.00
   7   1   8    0.50    4.60
   7   1   8    5.90    6.10
   7   1   8    2.80    5.00
   6  -2  -8    1.20    2.90
   6  -2  -8   -3.40    3.60
   6  -2  -8   -1.50    4.40
  -6   2   8    8.60    4.70
  -6   2   8    0.40    3.70
  -6   2   8   -5.50    3.90
   5  -2  -8   26.40    3.80
   5  -2  -8   21.30    3.10
   5  -2  -8   19.20    2.30
  -5   2   8   21.30    4.10
  -5   2   8   18.40    4.00
  -5   2   8   15.90    5.00
   4  -2  -8   64.79    3.90
   4  -2  -8   64.29    3.30
   4  -2  -8   70.49    4.20
  -4   2   8   66.39    4.30
  -4   2   8   57.09    5.20
  -4   2   8   59.59    5.00
  -4   2   8   59.69    4.50
   3  -2  -8   -0.40    2.60
   3  -2  -8    1.10    1.20
   3  -2  -8   -0.60    1.30
   3  -2  -8   -1.20    1.00
   3  -2  -8   -0.30    2.70
  -3   2   8    0.60    1.20
  -3   2   8   -0.10    1.80
  -3   2   8    0.30    1.40
  -3   2   8    1.50    1.80
  -3   2   8    1.50    1.60
   2  -2  -8   83.99    3.60
   2  -2  -8   88.89    4.50
   2  -2  -8   81.89    3.40
   2  -2  -8   83.49    3.70
   2  -2  -8   83.39    4.70
  -2   2   8   83.99    3.20
  -2   2   8   80.79    3.60
  -2   2   8   84.39    3.90
  -2   2   8   83.39    3.90
  -2   2   8   87.29    3.60
  -2   2   8   82.59    4.10
   1  -2  -8  166.68    5.60
   1  -2  -8  173.58    5.90
   1  -2  -8  174.58    6.10
   1  -2  -8  161.48    5.50
   1  -2  -8  172.18    5.80
  -1   2   8  171.38    5.60
  -1   2   8  164.88    4.80
  -1   2   8  174.68    5.40
  -1   2   8  163.78    5.50
  -1   2   8  160.98    5.60
   0  -2  -8    0.70    1.00
   0  -2  -8    0.90    0.70
   0  -2  -8    1.70    1.10
   0  -2  -8    1.30    1.00
   0  -2  -8    0.30    1.20
   0   2   8    1.00    0.90
   0   2   8    0.30    0.70
   0   2   8    1.10    1.10
   0   2   8    1.70    1.00
   0   2   8    1.20    0.80
   0   2   8    0.20    1.00
  -1  -2  -8   27.80    2.40
  -1  -2  -8   26.50    2.20
  -1  -2  -8   26.60    2.20
  -1  -2  -8   20.30    2.00
   1   2   8   25.40    1.80
   1   2   8   28.70    2.20
   1   2   8   29.40    2.30
   1   2   8   28.30    2.20
   1   2   8   25.50    2.20
  -2  -2  -8   42.30    3.00
  -2  -2  -8   37.10    2.90
  -2  -2  -8   43.50    2.90
  -2  -2  -8   39.50    2.70
  -2  -2  -8   41.00    3.00
   2   2   8   35.70    2.90
   2   2   8   35.70    2.10
   2   2   8   40.70    2.70
   2   2   8   36.70    2.60
   2   2   8   35.90    2.80
  -3  -2  -8   41.90    3.70
  -3  -2  -8   49.20    3.70
  -3  -2  -8   46.40    3.70
  -3  -2  -8   55.39    3.70
  -3  -2  -8   47.50    4.00
  -3  -2  -8   53.69    3.00
  -3  -2  -8   49.90    3.60
   3   2   8   53.29    2.90
   3   2   8   55.39    4.00
   3   2   8   50.29    3.70
   3   2   8   57.89    3.50
   3   2   8   55.19    3.50
  -4  -2  -8   13.20    2.60
  -4  -2  -8   18.40    3.50
  -4  -2  -8   15.20    2.40
  -4  -2  -8   11.90    2.90
   4   2   8   12.50    2.70
   4   2   8   10.40    2.70
   4   2   8   10.60    2.20
   4   2   8   11.90    2.00
  -5  -2  -8    1.40    2.70
  -5  -2  -8   -2.50    2.80
  -5  -2  -8    1.20    2.40
  -5  -2  -8   -3.90    3.50
   5   2   8   -0.70    1.80
   5   2   8    0.90    2.70
  -6  -2  -8    5.00    4.10
  -6  -2  -8   17.90    5.70
   6   2   8    4.00    4.40
   6   2   8    5.70    3.60
   6   2   8    8.40    3.90
   6   2   8    8.50    3.00
  -7  -2  -8    3.30    6.90
  -7  -2  -8   -2.90    5.10
   7   2   8    8.10    5.90
   7   2   8   13.20    4.80
   7   2   8    6.60    4.80
   6  -3  -8    8.80    5.00
   6  -3  -8   -7.30    3.60
  -6   3   8   -7.30    4.50
  -6   3   8    2.30    3.60
  -6   3   8   -3.30    4.20
   5  -3  -8   -0.40    2.10
   5  -3  -8   -2.70    2.50
  -5   3   8    2.60    3.20
  -5   3   8    7.20    3.30
   4  -3  -8   26.30    4.80
   4  -3  -8   27.90    3.00
   4  -3  -8   24.50    3.10
   4  -3  -8   31.10    2.80
  -4   3   8   34.70    3.60
  -4   3   8   31.30    4.00
  -4   3   8   33.10    4.20
  -4   3   8   27.20    4.40
   3  -3  -8   -0.10    2.60
   3  -3  -8    0.70    1.30
   3  -3  -8    0.50    1.30
   3  -3  -8    2.30    1.40
   3  -3  -8    7.70    3.10
  -3   3   8    1.60    2.00
  -3   3   8    1.10    1.90
  -3   3   8    1.70    1.50
  -3   3   8    3.00    1.80
  -3   3   8    0.80    1.30
   2  -3  -8   19.40    2.20
   2  -3  -8   24.30    1.70
   2  -3  -8   26.10    2.30
   2  -3  -8   22.50    2.20
   2  -3  -8   26.90    3.00
   2  -3  -8   23.90    3.00
  -2   3   8   19.60    2.40
  -2   3   8   26.70    2.10
  -2   3   8   22.70    2.50
  -2   3   8   22.90    2.40
  -2   3   8   24.90    2.30
  -2   3   8   25.70    1.90
   1  -3  -8    4.50    1.30
   1  -3  -8    5.20    1.60
   1  -3  -8    7.50    1.80
   1  -3  -8    4.30    1.30
   1  -3  -8    4.70    1.50
  -1   3   8    5.50    1.40
  -1   3   8    4.00    1.30
  -1   3   8    6.10    0.80
  -1   3   8    4.20    1.40
  -1   3   8    4.10    1.20
  -1   3   8    5.30    1.30
   0  -3  -8   15.00    2.00
   0  -3  -8   15.00    2.00
   0  -3  -8   17.60    2.00
   0  -3  -8   13.80    1.00
   0  -3  -8   14.80    1.90
   0  -3  -8   15.30    2.00
   0   3   8   13.80    1.80
   0   3   8   14.60    1.90
   0   3   8   16.00    1.90
   0   3   8   12.10    1.60
   0   3   8   15.30    2.00
   0   3   8   16.10    1.70
  -1  -3  -8    8.90    1.80
  -1  -3  -8   11.30    1.90
  -1  -3  -8    8.60    1.90
  -1  -3  -8    8.60    1.20
  -1  -3  -8    8.50    1.60
   1   3   8    8.00    1.60
   1   3   8    6.70    1.50
   1   3   8    8.80    1.70
   1   3   8    9.60    1.60
   1   3   8    9.20    1.50
  -2  -3  -8  105.89    5.00
  -2  -3  -8  108.49    5.10
  -2  -3  -8  121.99    4.90
  -2  -3  -8  124.19    5.00
  -2  -3  -8  119.69    5.10
  -2  -3  -8  112.99    4.40
   2   3   8  114.19    4.30
   2   3   8  117.29    5.00
   2   3   8  119.19    5.10
   2   3   8  120.19    4.80
  -3  -3  -8    6.50    2.10
  -3  -3  -8    2.00    1.80
  -3  -3  -8    4.70    1.70
  -3  -3  -8    4.80    2.00
   3   3   8    4.60    2.20
   3   3   8    1.80    1.70
   3   3   8    2.90    1.90
   3   3   8    5.30    1.90
   3   3   8    4.60    1.50
  -4  -3  -8   13.70    3.20
  -4  -3  -8   18.20    2.80
  -4  -3  -8   10.40    2.70
   4   3   8   12.00    2.10
   4   3   8   15.00    3.00
  -5  -3  -8   12.20    2.60
  -5  -3  -8    8.80    3.40
  -5  -3  -8   15.50    3.90
   5   3   8   11.40    3.50
   5   3   8   14.40    2.60
  -6  -3  -8    4.00    4.20
  -6  -3  -8    1.60    5.20
   6   3   8   -3.20    3.60
   6   3   8    9.60    4.20
   6   3   8    1.70    2.80
  -7  -3  -8    5.30    7.10
  -7  -3  -8    7.70    5.40
   7   3   8   -0.50    5.80
   7   3   8   13.60    5.30
   7   3   8   13.70    4.90
   7   3   8   12.60    4.60
   6  -4  -8    0.70    3.80
   6  -4  -8   -7.70    5.80
   6  -4  -8    5.10    3.00
  -6   4   8    3.20    4.50
  -6   4   8    0.30    3.50
  -6   4   8    3.10    4.70
   5  -4  -8    7.10    3.00
   5  -4  -8    1.80    3.90
   5  -4  -8    0.60    2.10
  -5   4   8   -1.30    3.20
  -5   4   8    1.50    3.10
  -5   4   8   -2.30    3.30
   4  -4  -8   -1.10    1.90
   4  -4  -8    1.40    1.60
   4  -4  -8    0.20    3.60
   4  -4  -8    2.20    1.70
  -4   4   8   -0.20    2.40
  -4   4   8   -0.40    1.80
  -4   4   8    1.10    2.00
  -4   4   8    3.70    2.40
   3  -4  -8    5.30    1.60
   3  -4  -8    1.60    1.40
   3  -4  -8    2.70    1.00
   3  -4  -8    3.00    1.80
   3  -4  -8    2.60    2.80
   3  -4  -8    5.90    3.10
  -3   4   8   -0.50    2.30
  -3   4   8    0.90    1.50
  -3   4   8    1.30    1.30
  -3   4   8    6.20    3.30
  -3   4   8    1.50    1.90
  -3   4   8    3.20    2.00
   2  -4  -8   14.30    2.00
   2  -4  -8   18.60    2.70
   2  -4  -8   18.50    2.70
   2  -4  -8   15.10    2.10
   2  -4  -8   11.90    1.60
  -2   4   8   15.40    2.30
  -2   4   8   14.50    2.10
  -2   4   8   15.70    2.20
  -2   4   8   15.10    1.20
  -2   4   8   15.30    2.30
  -2   4   8   15.20    2.00
   1  -4  -8   14.20    2.10
   1  -4  -8   13.20    1.90
   1  -4  -8   11.30    1.80
   1  -4  -8   11.10    1.90
   1  -4  -8   13.50    2.40
  -1   4   8   13.40    1.90
  -1   4   8   11.20    1.90
  -1   4   8   12.70    1.80
  -1   4   8   12.30    1.90
   0  -4  -8   18.20    2.00
   0  -4  -8   18.40    2.40
   0  -4  -8   17.90    2.50
   0  -4  -8   17.10    2.20
   0  -4  -8   16.80    2.10
   0   4   8   21.30    2.10
   0   4   8   16.80    2.00
   0   4   8   15.90    2.10
   0   4   8   16.70    2.00
   0   4   8   16.80    2.00
   0   4   8   14.00    1.90
  -1  -4  -8  144.69    4.20
  -1  -4  -8  159.28    5.70
  -1  -4  -8  147.19    5.70
  -1  -4  -8  143.89    6.10
  -1  -4  -8  160.08    5.50
   1   4   8  157.08    5.50
   1   4   8  148.79    5.60
   1   4   8  146.79    5.40
   1   4   8  144.19    5.40
   1   4   8  147.79    5.40
  -2  -4  -8    1.10    1.50
  -2  -4  -8    2.10    1.50
  -2  -4  -8   -0.20    1.60
  -2  -4  -8    0.80    1.60
  -2  -4  -8    0.20    1.40
   2   4   8   -1.50    1.00
   2   4   8    0.50    1.60
   2   4   8    0.40    1.50
   2   4   8   -1.70    1.70
   2   4   8    0.80    1.30
  -3  -4  -8    7.30    2.10
  -3  -4  -8    6.60    2.30
  -3  -4  -8    6.10    1.90
   3   4   8    5.90    1.60
   3   4   8    4.00    1.90
   3   4   8    4.10    2.00
  -4  -4  -8   47.70    4.90
  -4  -4  -8   31.80    4.40
  -4  -4  -8   34.80    4.40
   4   4   8   40.80    3.40
   4   4   8   37.50    4.40
   4   4   8   51.59    4.90
  -5  -4  -8    1.80    3.20
  -5  -4  -8    0.80    3.50
   5   4   8    0.20    2.10
   5   4   8    2.40    3.30
  -6  -4  -8    9.50    5.30
  -6  -4  -8    1.60    3.70
   6   4   8    9.70    3.50
   6   4   8    4.90    4.20
  -7  -4  -8    2.60    5.20
  -7  -4  -8   10.20    7.50
   7   4   8   -7.40    5.50
   7   4   8   -4.80    4.60
   7   4   8   12.80    5.60
   7   4   8    1.90    4.20
   6  -5  -8   -0.30    6.40
   6  -5  -8    1.40    4.20
  -6   5   8    2.30    4.60
  -6   5   8   10.10    5.10
  -6   5   8    6.60    4.00
   5  -5  -8    6.60    2.30
   5  -5  -8    9.50    4.80
   5  -5  -8    8.10    3.20
  -5   5   8    6.50    4.00
  -5   5   8    3.90    3.50
   4  -5  -8   10.80    4.10
   4  -5  -8   13.40    3.20
   4  -5  -8    6.60    3.60
   4  -5  -8   11.60    2.10
  -4   5   8    9.30    3.10
  -4   5   8   11.10    2.00
  -4   5   8    9.80    2.50
  -4   5   8   11.80    2.90
   3  -5  -8    6.30    2.80
   3  -5  -8    1.10    1.50
   3  -5  -8   -0.30    1.80
   3  -5  -8   -3.80    2.90
   3  -5  -8    0.20    1.30
  -3   5   8    2.10    1.30
  -3   5   8    0.50    1.60
  -3   5   8    1.10    1.80
  -3   5   8    0.70    1.90
   2  -5  -8   -2.20    1.30
   2  -5  -8    3.80    2.10
   2  -5  -8    1.00    1.30
   2  -5  -8    1.20    2.00
   2  -5  -8    1.10    1.50
  -2   5   8   -0.20    1.60
  -2   5   8   -1.00    1.90
  -2   5   8   -0.10    1.20
  -2   5   8    0.40    1.30
  -2   5   8   -1.50    1.80
   1  -5  -8   48.90    3.50
   1  -5  -8   52.59    3.30
   1  -5  -8   53.09    3.10
   1  -5  -8   49.10    4.00
   1  -5  -8   50.79    3.10
  -1   5   8   49.10    3.40
  -1   5   8   54.79    3.10
  -1   5   8   54.49    3.40
  -1   5   8   51.29    3.30
  -1   5   8   52.89    3.00
   0  -5  -8  160.28    6.50
   0  -5  -8  156.68    4.90
   0  -5  -8  152.18    6.10
   0  -5  -8  150.08    5.70
   0  -5  -8  157.78    5.60
   0   5   8  151.38    5.70
   0   5   8  147.29    5.70
   0   5   8  153.38    5.70
   0   5   8  147.49    5.70
   0   5   8  159.78    5.60
   0   5   8  147.59    5.50
  -1  -5  -8   18.20    2.90
  -1  -5  -8   14.10    2.20
  -1  -5  -8   13.60    1.10
  -1  -5  -8   18.40    2.50
  -1  -5  -8   18.80    2.70
   1   5   8   16.30    2.20
   1   5   8   13.70    2.00
   1   5   8   14.70    2.20
   1   5   8   17.80    2.40
   1   5   8   17.50    2.40
  -2  -5  -8  200.38    7.70
  -2  -5  -8  207.18    6.90
  -2  -5  -8  203.48    7.10
   2   5   8  197.78    7.40
   2   5   8  208.58    8.90
   2   5   8  211.38    7.20
   2   5   8  221.38    7.80
   2   5   8  226.28    8.70
  -3  -5  -8   33.10    3.30
  -3  -5  -8   24.70    3.40
  -3  -5  -8   29.10    3.60
   3   5   8   28.50    3.50
   3   5   8   25.60    3.50
   3   5   8   23.20    2.90
  -4  -5  -8   -2.80    2.50
  -4  -5  -8   -2.30    2.40
   4   5   8   -2.20    2.40
   4   5   8   -0.90    2.60
   4   5   8    1.70    2.00
  -5  -5  -8    0.40    3.30
  -5  -5  -8    5.80    3.70
   5   5   8    7.10    2.80
   5   5   8    4.30    4.00
  -6  -5  -8   -2.30    4.00
  -6  -5  -8    2.20    5.20
   6   5   8    2.40    3.40
   6   5   8    3.80    4.50
  -7  -5  -8    4.90    6.70
  -7  -5  -8    1.40    5.80
   7   5   8   -1.20    5.60
   7   5   8    8.60    4.50
   6  -6  -8   -2.20    4.70
   6  -6  -8  -10.10    7.30
  -6   6   8    4.10    5.40
  -6   6   8    3.70    5.10
  -6   6   8    1.60    4.30
   5  -6  -8   -3.50    2.10
   5  -6  -8   -3.20    5.10
   5  -6  -8    0.00    3.30
  -5   6   8    2.70    3.70
  -5   6   8    7.40    4.00
  -5   6   8    3.90    3.80
   4  -6  -8    2.50    4.10
   4  -6  -8    1.20    2.60
   4  -6  -8   -1.80    1.70
  -4   6   8    4.00    3.00
  -4   6   8   -3.10    2.20
  -4   6   8    1.90    2.60
   3  -6  -8   25.10    4.10
   3  -6  -8   18.30    3.00
   3  -6  -8   15.90    2.20
   3  -6  -8   17.50    2.40
   3  -6  -8   23.00    3.20
   3  -6  -8   19.70    4.10
  -3   6   8   14.50    2.70
  -3   6   8   18.50    2.60
  -3   6   8   18.80    3.30
  -3   6   8   17.70    2.10
  -3   6   8   19.60    1.90
   2  -6  -8    0.90    2.10
   2  -6  -8    0.10    1.40
   2  -6  -8    1.90    1.70
   2  -6  -8    6.10    2.10
  -2   6   8    3.10    1.70
  -2   6   8    1.40    1.50
  -2   6   8    2.20    1.80
   1  -6  -8   15.40    1.90
   1  -6  -8   14.50    2.20
   1  -6  -8   15.20    2.40
   1  -6  -8   17.00    2.30
  -1   6   8   10.90    2.10
  -1   6   8   14.30    2.20
  -1   6   8   14.00    2.50
  -1   6   8   15.30    2.20
  -1   6   8   17.40    2.30
   0  -6  -8   27.10    1.80
   0  -6  -8   28.40    2.80
   0  -6  -8   30.20    2.90
   0   6   8   25.50    2.70
   0   6   8   22.60    2.60
   0   6   8   21.50    3.00
   0   6   8   29.50    2.90
   0   6   8   25.10    3.10
   0   6   8   25.40    3.10
  -1  -6  -8   36.30    3.30
  -1  -6  -8   42.60    2.10
  -1  -6  -8   48.80    3.40
  -1  -6  -8   45.60    2.30
  -1  -6  -8   39.50    1.50
  -1  -6  -8   40.40    1.50
   1   6   8   44.40    5.20
   1   6   8   41.10    3.20
   1   6   8   39.50    3.30
   1   6   8   40.50    3.20
  -2  -6  -8   14.20    2.10
  -2  -6  -8    8.30    2.30
  -2  -6  -8   14.50    2.60
   2   6   8   14.40    2.30
   2   6   8   11.30    2.60
   2   6   8   13.10    2.30
  -3  -6  -8   37.70    4.40
  -3  -6  -8   41.60    3.70
   3   6   8   43.90    4.20
   3   6   8   43.50    3.80
   3   6   8   35.20    4.10
  -4  -6  -8    3.60    2.20
  -4  -6  -8   -4.00    2.60
  -4  -6  -8    2.00    2.60
   4   6   8    4.40    2.90
   4   6   8    4.30    2.90
   4   6   8    3.30    2.20
  -5  -6  -8    9.10    3.90
  -5  -6  -8   14.50    2.60
  -5  -6  -8   19.90    4.40
   5   6   8   10.00    3.90
   5   6   8   15.00    3.60
  -6  -6  -8   -5.30    4.90
  -6  -6  -8    2.00    4.50
   6   6   8    6.90    4.80
   6   6   8    1.60    3.50
   5  -7  -8   16.40    6.10
   5  -7  -8   12.60    4.30
  -5   7   8    9.50    3.70
  -5   7   8    8.60    4.40
  -5   7   8    3.80    4.10
   4  -7  -8    7.50    4.80
   4  -7  -8    6.20    3.20
  -4   7   8    6.30    3.50
  -4   7   8   11.10    2.80
  -4   7   8    6.80    3.00
   3  -7  -8   -1.00    2.30
   3  -7  -8   -0.60    3.50
   3  -7  -8    3.60    4.00
   3  -7  -8    1.70    1.70
   3  -7  -8    5.30    2.10
  -3   7   8    2.90    1.00
  -3   7   8    4.80    2.10
  -3   7   8   -0.30    2.60
  -3   7   8    3.10    1.80
  -3   7   8    2.70    2.20
   2  -7  -8   24.00    2.70
   2  -7  -8   18.10    4.10
   2  -7  -8   22.80    2.50
   2  -7  -8   24.30    2.80
   2  -7  -8   23.70    3.00
  -2   7   8   19.70    2.60
  -2   7   8   21.60    2.80
  -2   7   8   18.60    3.00
   1  -7  -8   10.90    1.60
   1  -7  -8   11.10    3.10
   1  -7  -8   12.40    2.50
   1  -7  -8   13.70    2.20
   1  -7  -8   12.90    2.20
  -1   7   8    9.00    2.10
  -1   7   8   10.50    2.60
  -1   7   8   12.50    2.10
  -1   7   8   10.50    2.30
   0  -7  -8   29.00    3.20
   0  -7  -8   26.80    2.90
   0   7   8   26.20    3.20
   0   7   8   22.20    2.80
   0   7   8   31.50    3.20
  -1  -7  -8   20.90    2.80
  -1  -7  -8   24.00    3.20
   1   7   8   17.10    2.50
   1   7   8   19.80    3.00
   1   7   8   23.60    3.00
  -2  -7  -8   70.09    5.00
  -2  -7  -8   66.99    3.00
  -2  -7  -8   56.39    4.70
  -2  -7  -8   71.69    4.60
   2   7   8   64.39    4.40
   2   7   8   58.49    4.60
   2   7   8   65.59    4.30
  -3  -7  -8   59.89    4.90
  -3  -7  -8   60.69    3.90
  -3  -7  -8   58.59    5.40
   3   7   8   53.29    5.10
   3   7   8   64.19    5.00
   3   7   8   58.59    4.60
  -4  -7  -8   -3.50    2.50
  -4  -7  -8    2.70    3.30
  -4  -7  -8    3.20    2.60
   4   7   8    3.80    2.70
   4   7   8    2.90    3.30
  -5  -7  -8   -4.70    3.30
  -5  -7  -8   -0.10    2.50
  -5  -7  -8   -0.80    3.90
   5   7   8    1.40    4.30
   5   7   8   -0.30    3.00
  -6  -7  -8   -3.70    5.00
  -6  -7  -8    7.00    5.90
   6   7   8   -1.00    4.20
   6   7   8    1.60    5.40
   5  -8  -8   -7.50    6.70
   5  -8  -8    3.00    4.60
  -5   8   8    2.30    3.60
  -5   8   8    9.30    4.50
  -5   8   8    4.30    4.70
   4  -8  -8    2.10    5.10
  -4   8   8   11.50    3.80
  -4   8   8    9.50    3.30
  -4   8   8   10.70    3.10
   3  -8  -8    9.80    4.70
   3  -8  -8    7.20    2.70
  -3   8   8   12.10    2.70
  -3   8   8    4.90    3.20
   2  -8  -8    0.70    2.60
   2  -8  -8    7.10    3.90
   2  -8  -8    4.50    1.50
  -2   8   8    6.60    2.60
  -2   8   8    1.90    2.10
  -2   8   8    1.70    2.40
  -2   8   8    3.40    2.00
   1  -8  -8   31.80    4.50
   1  -8  -8   34.70    3.20
   1  -8  -8   25.90    4.40
  -1   8   8   29.70    3.80
  -1   8   8   38.00    3.90
  -1   8   8   32.60    3.30
   0  -8  -8    0.40    2.30
   0  -8  -8    4.40    3.10
   0  -8  -8    3.70    1.90
   0  -8  -8    0.90    1.90
   0   8   8    1.60    2.00
   0   8   8   -1.20    1.80
   0   8   8    1.40    1.70
  -1  -8  -8    0.10    2.20
  -1  -8  -8   -1.70    2.70
  -1  -8  -8    1.30    2.10
   1   8   8    1.40    2.00
   1   8   8   -2.10    1.70
   1   8   8    2.00    2.10
  -2  -8  -8   34.70    4.40
  -2  -8  -8   33.90    2.50
  -2  -8  -8   34.20    4.50
  -2  -8  -8   42.20    4.20
   2   8   8   40.40    4.40
   2   8   8   40.90    4.20
   2   8   8   33.60    3.90
  -3  -8  -8    6.60    3.30
  -3  -8  -8    7.70    2.10
  -3  -8  -8    7.60    3.30
   3   8   8    7.50    2.90
   3   8   8    4.00    2.60
   3   8   8    7.20    3.20
  -4  -8  -8    7.20    3.30
  -4  -8  -8    5.00    2.60
   4   8   8    4.80    3.20
   4   8   8    7.70    3.90
   4   8   8    1.00    3.50
  -5  -8  -8   -5.10    3.50
  -5  -8  -8    5.70    4.30
   5   8   8   -3.30    4.20
   5   8   8    0.20    3.50
  -6  -8  -8   11.10    5.30
   6   8   8  -10.00    4.40
   6   8   8  -10.00    5.60
   4  -9  -8    8.60    6.70
   4  -9  -8   -0.70    3.40
  -4   9   8    7.50    3.40
  -4   9   8    3.60    4.30
   3  -9  -8   13.40    3.70
   3  -9  -8   15.60    5.50
  -3   9   8   14.70    4.00
  -3   9   8   15.50    3.20
   2  -9  -8   -1.60    4.30
   2  -9  -8    5.20    3.10
  -2   9   8    2.50    2.70
  -2   9   8    3.30    2.60
  -2   9   8    2.20    2.20
   1  -9  -8   -6.90    2.80
   1  -9  -8    2.70    4.00
  -1   9   8    2.40    2.30
  -1   9   8    2.00    2.20
  -1   9   8    2.70    2.80
   0  -9  -8   -6.20    3.00
   0  -9  -8    3.20    2.10
   0  -9  -8    3.00    2.10
   0  -9  -8    0.40    2.60
   0   9   8   -2.50    2.10
   0   9   8   -4.00    2.00
   0   9   8   -1.50    2.30
  -1  -9  -8    3.00    3.40
  -1  -9  -8    0.00    2.40
  -1  -9  -8   -0.40    2.40
   1   9   8   -0.90    2.10
   1   9   8    4.10    2.30
   1   9   8    2.80    2.50
  -2  -9  -8   26.00    4.50
  -2  -9  -8   18.20    3.40
  -2  -9  -8   20.70    2.40
  -2  -9  -8   17.70    3.50
   2   9   8   16.40    3.40
   2   9   8   20.40    3.90
   2   9   8   18.80    3.60
  -3  -9  -8   21.30    4.40
  -3  -9  -8   13.80    2.60
  -3  -9  -8   15.10    4.10
   3   9   8   21.30    4.70
   3   9   8   20.00    3.90
  -4  -9  -8   -0.10    4.10
  -4  -9  -8    0.00    2.70
  -4  -9  -8    7.80    3.90
   4   9   8   -0.10    3.50
   4   9   8    4.40    4.10
   4   9   8   -0.50    4.00
  -5  -9  -8    2.20    4.90
   5   9   8    4.30    5.50
   5   9   8   11.30    5.80
   5   9   8   -4.40    3.90
   4 -10  -8    1.30    7.40
  -4  10   8    0.50    4.90
   3 -10  -8    9.00    4.50
   3 -10  -8   11.00    6.10
  -3  10   8   12.00    4.00
  -3  10   8   16.70    3.50
  -3  10   8    9.30    4.10
   2 -10  -8   -3.50    4.90
   2 -10  -8   10.10    4.00
  -2  10   8    8.80    3.70
  -2  10   8    4.10    3.60
  -2  10   8   12.10    2.90
   1 -10  -8    7.00    4.00
   1 -10  -8   -3.60    4.50
  -1  10   8   -1.60    2.50
  -1  10   8    3.70    3.00
  -1  10   8   -2.60    2.70
   0 -10  -8    2.70    4.20
   0  10   8    1.60    2.80
   0  10   8    4.00    2.80
   0  10   8    0.90    2.60
  -1 -10  -8    1.10    2.50
  -1 -10  -8    1.50    4.10
  -1 -10  -8    1.00    3.80
   1  10   8   -1.10    2.80
   1  10   8    1.20    3.00
  -2 -10  -8    1.50    4.00
  -2 -10  -8   -1.30    3.10
  -2 -10  -8    0.10    1.80
   2  10   8    8.10    3.70
   2  10   8   -1.30    3.00
   2  10   8    5.80    3.40
  -3 -10  -8    1.10    2.30
  -3 -10  -8    9.30    4.00
  -3 -10  -8    5.20    4.40
   3  10   8    4.10    3.80
   3  10   8    8.90    3.90
   3  10   8   -1.70    4.10
  -4 -10  -8    6.80    4.70
  -4 -10  -8    1.10    4.60
  -4 -10  -8    3.40    3.20
   4  10   8    0.60    4.20
   4  10   8    0.90    4.90
   4  10   8    5.50    4.90
  -5 -10  -8    2.50    5.60
  -5 -10  -8   -1.80    4.10
   5  10   8    1.80    6.00
   5  10   8    9.90    6.20
   5  10   8   -4.40    4.60
   3 -11  -8   -3.60    8.00
   3 -11  -8   12.10    5.10
  -3  11   8    1.60    4.90
  -3  11   8   -0.10    3.80
  -3  11   8    1.60    4.50
   2 -11  -8   -4.70    6.50
   2 -11  -8   -2.30    4.20
  -2  11   8    4.20    4.00
  -2  11   8    3.80    4.10
  -2  11   8    6.90    3.50
   1 -11  -8    5.00    4.80
   1 -11  -8   -0.90    5.00
  -1  11   8    6.50    3.40
  -1  11   8    5.40    3.60
  -1  11   8    1.20    3.30
   0 -11  -8   -5.10    4.80
   0 -11  -8    0.50    4.40
   0  11   8    3.10    3.00
   0  11   8   -4.60    3.00
   0  11   8    5.70    3.60
  -1 -11  -8    6.00    4.80
  -1 -11  -8   -1.80    4.20
   1  11   8   -2.00    3.50
   1  11   8    0.00    3.70
   1  11   8    1.70    3.20
  -2 -11  -8    8.10    5.30
  -2 -11  -8    2.60    4.50
   2  11   8    7.20    4.10
   2  11   8    1.00    3.60
   2  11   8   -3.30    3.60
  -3 -11  -8   15.60    6.80
  -3 -11  -8   -5.10    4.70
  -3 -11  -8   18.10    4.70
   3  11   8    2.70    4.70
   3  11   8   -4.80    4.10
   3  11   8   -1.90    4.00
  -4 -11  -8    3.80    5.40
  -4 -11  -8    6.80    5.90
   4  11   8   -3.10    5.50
   4  11   8    5.20    4.90
   4  11   8   -3.70    5.40
   1 -12  -8   -3.80    6.50
   1 -12  -8    5.30    5.40
  -1  12   8    4.80    4.60
  -1  12   8   -0.80    4.20
  -1  12   8   -4.90    3.90
   0 -12  -8    0.10    5.50
   0 -12  -8   -4.20    6.30
   0  12   8    4.60    3.90
   0  12   8   -3.90    3.90
  -1 -12  -8   -2.90    5.10
  -1 -12  -8    2.20    6.10
   1  12   8    5.20    4.50
   1  12   8    4.10    4.70
  -2 -12  -8    5.70    6.20
  -2 -12  -8   -4.30    5.60
   2  12   8    7.40    4.40
   2  12   8    4.30    5.20
   2  12   8    4.50    4.50
   3  12   8    5.10    5.80
   3  12   8    7.70    4.90
   2   9  -9   -0.20    3.60
   2   9  -9    7.60    3.50
  -2  -9   9    1.30    4.30
   1   9  -9   -1.60    2.70
   1   9  -9    2.20    3.00
  -1  -9   9    3.70    4.20
   0   9  -9    3.50    2.80
   0   9  -9    2.90    2.60
   0  -9   9   -2.10    5.80
   0  -9   9   -6.20    4.30
  -1   9  -9    9.00    3.40
   1  -9   9   11.50    5.10
   1  -9   9   19.40    6.30
  -2   9  -9    8.30    3.40
   2  -9   9   15.10    6.90
   3   8  -9   -2.80    3.50
   3   8  -9    2.30    3.50
  -3  -8   9   -2.80    4.10
   2   8  -9    0.10    2.80
   2   8  -9    2.90    2.90
  -2  -8   9    2.90    4.00
   1   8  -9    2.20    2.40
   1   8  -9   -3.20    2.50
   1   8  -9   -0.70    2.10
  -1  -8   9    4.20    4.10
  -1  -8   9   -1.90    3.50
   0   8  -9    0.50    2.30
   0   8  -9    4.50    2.20
   0  -8   9    2.60    3.60
   0  -8   9   -1.70    4.30
  -1   8  -9    4.20    2.10
  -1   8  -9    7.20    2.70
   1  -8   9   -5.00    5.10
   1  -8   9    7.50    4.20
  -2   8  -9    0.30    2.40
  -2   8  -9   -4.10    2.60
   2  -8   9   -1.30    4.30
   2  -8   9   -9.70    5.40
  -3   8  -9   -0.60    3.00
  -3   8  -9    0.80    5.60
   3  -8   9   -3.40    7.00
   4   7  -9    1.80    4.00
   4   7  -9   10.10    3.70
  -4  -7   9   -5.40    3.40
  -4  -7   9   -4.90    4.50
   3   7  -9   12.50    3.80
   3   7  -9    9.70    3.20
  -3  -7   9   10.30    4.00
  -3  -7   9   12.20    2.80
   2   7  -9    8.90    2.60
   2   7  -9    6.90    2.60
  -2  -7   9    6.20    3.70
  -2  -7   9    9.70    3.10
  -2  -7   9    7.20    1.90
   1   7  -9    5.10    2.30
   1   7  -9    4.20    2.20
  -1  -7   9    7.00    3.40
  -1  -7   9    4.60    3.10
   0   7  -9    3.90    1.90
   0   7  -9    6.60    2.40
   0  -7   9    3.00    3.00
   0  -7   9    6.70    3.90
  -1   7  -9   -1.40    1.70
   1  -7   9   -5.10    4.10
   1  -7   9   -1.00    3.30
  -2   7  -9    9.60    2.90
  -2   7  -9   17.10    2.40
   2  -7   9    8.30    4.70
   2  -7   9   15.00    4.30
  -3   7  -9   15.30    5.40
  -3   7  -9   14.10    3.20
  -3   7  -9    9.00    2.60
   3  -7   9   14.90    6.20
  -4   7  -9    1.30    6.00
  -4   7  -9    3.80    3.10
   4  -7   9    1.40    7.70
   4  -7   9    5.50    3.50
   5   6  -9   -0.30    4.00
   5   6  -9    3.10    4.10
  -5  -6   9    6.20    4.60
  -5  -6   9   11.80    4.20
   4   6  -9    0.00    3.10
   4   6  -9    1.30    3.10
   4   6  -9    9.30    3.70
  -4  -6   9    1.00    3.80
  -4  -6   9    3.40    3.10
   3   6  -9   -1.50    2.60
   3   6  -9    1.30    1.80
  -3  -6   9    1.80    2.30
  -3  -6   9    3.30    3.60
   2   6  -9    3.60    2.00
   2   6  -9    1.30    1.10
   2   6  -9   -0.10    2.40
   2   6  -9    1.30    1.10
  -2  -6   9    1.60    3.10
  -2  -6   9   -1.00    2.50
  -2  -6   9    2.40    1.80
   1   6  -9    2.50    1.70
   1   6  -9    4.10    2.00
  -1  -6   9    2.00    2.00
  -1  -6   9   -0.50    2.40
  -1  -6   9    0.00    1.70
  -1  -6   9    0.00    2.70
  -1  -6   9   -0.50    1.20
   0   6  -9   -1.00    1.50
   0   6  -9    1.80    1.80
   0  -6   9    1.30    3.00
   0  -6   9   -1.20    2.30
  -1   6  -9    2.10    1.50
  -1   6  -9    2.90    1.90
   1  -6   9    6.20    3.00
   1  -6   9    3.90    3.60
  -2   6  -9   -0.90    1.90
  -2   6  -9   -2.20    2.40
  -2   6  -9   -0.80    1.60
   2  -6   9   -0.70    3.20
   2  -6   9    4.60    4.20
  -3   6  -9   10.00    4.60
  -3   6  -9    1.30    2.20
  -3   6  -9    0.60    2.00
   3  -6   9   -4.60    5.10
   3  -6   9    1.10    2.10
  -4   6  -9    2.50    2.70
  -4   6  -9    4.90    3.20
  -4   6  -9    7.90    5.20
   4  -6   9    9.40    3.00
   4  -6   9   10.80    6.60
  -5   6  -9    9.10    6.70
   5  -6   9    8.20    8.50
   5  -6   9    8.50    4.10
   5   5  -9   -5.50    3.30
   5   5  -9    2.20    3.60
   5   5  -9    1.40    3.40
  -5  -5   9   -1.60    3.70
  -5  -5   9   10.80    4.50
   4   5  -9   -2.40    2.70
   4   5  -9    0.40    2.80
   4   5  -9   -3.70    2.20
  -4  -5   9    1.20    3.90
  -4  -5   9    0.40    3.30
   3   5  -9    1.40    2.20
   3   5  -9   -0.40    1.60
   3   5  -9    0.00    2.20
  -3  -5   9    0.30    2.10
  -3  -5   9    4.50    4.20
   2   5  -9    4.50    2.00
   2   5  -9    5.90    2.10
  -2  -5   9   -1.30    2.60
  -2  -5   9    4.00    2.30
  -2  -5   9   -1.50    2.30
  -2  -5   9    1.70    1.80
  -2  -5   9   -0.90    3.50
   1   5  -9   -1.50    2.80
   1   5  -9    3.60    1.70
   1   5  -9    0.10    1.50
  -1  -5   9    3.60    2.40
  -1  -5   9    3.50    2.40
  -1  -5   9    0.70    1.70
  -1  -5   9    2.00    1.40
  -1  -5   9   -1.70    2.10
   0   5  -9    3.10    1.40
   0   5  -9   -0.90    1.40
   0  -5   9    0.00    1.00
   0  -5   9    1.90    1.90
   0  -5   9   -1.80    2.50
  -1   5  -9  147.09    5.30
  -1   5  -9  138.89    5.90
  -1   5  -9  148.69    3.90
  -1   5  -9  159.08    6.10
   1  -5   9  151.88    7.30
   1  -5   9  161.38    8.10
  -2   5  -9   17.90    2.40
  -2   5  -9   17.70    2.90
  -2   5  -9   16.40    2.50
  -2   5  -9   16.60    2.10
   2  -5   9    7.10    3.60
   2  -5   9   15.80    4.00
  -3   5  -9    9.10    2.30
  -3   5  -9   11.70    2.30
  -3   5  -9    8.30    2.90
   3  -5   9   11.40    2.20
  -4   5  -9   14.60    2.90
  -4   5  -9    6.30    3.00
  -4   5  -9    8.00    4.90
   4  -5   9   13.60    5.60
   4  -5   9   10.90    2.80
  -5   5  -9  -10.00    3.90
  -5   5  -9   -0.40    3.00
  -5   5  -9   -6.30    5.30
   5  -5   9   -0.70    6.80
   6   4  -9   -9.90    4.40
  -6  -4   9    2.90    4.70
   5   4  -9    7.00    3.30
   5   4  -9   -2.10    3.00
   5   4  -9   -1.60    3.30
  -5  -4   9   -0.10    3.70
  -5  -4   9   -0.10    2.60
  -5  -4   9    9.40    3.60
   4   4  -9    4.50    2.00
   4   4  -9    4.80    2.60
   4   4  -9    1.80    2.50
  -4  -4   9    6.30    3.40
  -4  -4   9    1.00    1.60
  -4  -4   9    3.60    4.00
   3   4  -9    6.40    2.20
   3   4  -9    0.70    1.90
  -3  -4   9    2.10    1.20
  -3  -4   9    5.50    2.20
  -3  -4   9    3.30    2.60
  -3  -4   9    3.40    0.90
  -3  -4   9    3.50    1.20
   2   4  -9    1.20    1.60
   2   4  -9    2.00    1.60
   2   4  -9   -1.10    2.10
  -2  -4   9    4.90    3.10
  -2  -4   9    3.30    1.90
  -2  -4   9    1.00    1.50
  -2  -4   9   -0.30    2.10
  -2  -4   9    4.40    2.20
   1   4  -9    5.30    1.70
   1   4  -9    4.80    2.40
   1   4  -9    5.60    1.70
  -1  -4   9    4.70    2.30
  -1  -4   9    6.50    1.60
  -1  -4   9    5.60    2.40
  -1  -4   9    2.90    1.50
  -1  -4   9    4.10    2.10
   0   4  -9    8.00    1.70
   0   4  -9    6.50    2.30
   0   4  -9    7.60    2.60
   0   4  -9    9.30    1.70
   0  -4   9    6.40    2.60
   0  -4   9   10.30    2.10
   0  -4   9   10.20    2.20
   0  -4   9   11.70    1.60
  -1   4  -9   13.90    1.90
  -1   4  -9   13.50    2.20
  -1   4  -9    9.70    1.90
  -1   4  -9   13.60    1.50
   1  -4   9   15.00    2.80
   1  -4   9   13.40    1.20
   1  -4   9   13.30    3.10
  -2   4  -9  146.89    5.30
  -2   4  -9  150.18    5.90
  -2   4  -9  153.18    5.50
  -2   4  -9  155.08    5.80
   2  -4   9  151.78    8.20
   2  -4   9  152.18    4.90
   2  -4   9  160.48    7.50
  -3   4  -9   36.30    3.70
  -3   4  -9   34.10    3.30
  -3   4  -9   26.00    3.20
   3  -4   9   46.10    6.20
   3  -4   9   32.60    2.90
  -4   4  -9    3.10    2.60
  -4   4  -9    1.20    2.10
  -4   4  -9    4.10    4.30
   4  -4   9    4.50    4.60
   4  -4   9    2.40    2.20
  -5   4  -9    1.30    2.80
  -5   4  -9   -9.90    5.30
  -5   4  -9   -1.10    3.70
   5  -4   9    1.10    6.30
   5  -4   9    3.30    3.60
  -6   4  -9    0.10    5.90
  -6   4  -9  -12.10    6.50
   6  -4   9   10.60    4.90
   6  -4   9    0.50    7.90
   6   3  -9    1.70    3.30
   6   3  -9    3.80    4.20
   6   3  -9   11.10    4.00
  -6  -3   9    6.60    4.50
  -6  -3   9  -10.50    5.80
  -6  -3   9   -3.70    4.80
  -6  -3   9   -5.40    4.00
   5   3  -9   -4.00    2.70
   5   3  -9    1.00    2.80
   5   3  -9    3.00    2.70
  -5  -3   9    5.60    3.20
  -5  -3   9    3.10    2.70
  -5  -3   9   -3.00    3.30
   4   3  -9   11.50    2.20
   4   3  -9   15.70    2.70
  -4  -3   9   14.70    3.40
  -4  -3   9   11.30    2.20
  -4  -3   9   13.70    3.00
   3   3  -9    6.50    2.50
   3   3  -9    3.60    1.90
   3   3  -9    3.20    1.90
  -3  -3   9    2.60    1.40
  -3  -3   9    5.50    1.30
  -3  -3   9    6.50    2.30
  -3  -3   9    2.10    1.90
   2   3  -9    1.60    1.40
   2   3  -9    3.90    1.70
   2   3  -9    2.90    1.70
  -2  -3   9   -0.60    1.90
  -2  -3   9    4.30    2.00
  -2  -3   9    3.40    2.70
  -2  -3   9    3.40    1.60
  -2  -3   9    1.30    1.70
  -2  -3   9    2.00    0.80
   1   3  -9   20.70    2.70
   1   3  -9   23.50    2.40
   1   3  -9   25.20    2.40
  -1  -3   9   26.40    3.00
  -1  -3   9   23.90    3.10
  -1  -3   9   27.20    2.30
  -1  -3   9   25.30    3.40
  -1  -3   9   23.80    1.20
  -1  -3   9   26.30    2.40
   0   3  -9   25.90    2.90
   0   3  -9   18.20    2.80
   0   3  -9   14.20    2.10
   0   3  -9   17.00    1.30
   0   3  -9   19.30    3.00
   0   3  -9   19.00    2.00
   0  -3   9   19.20    2.70
   0  -3   9   16.40    1.90
   0  -3   9   17.10    2.80
   0  -3   9   17.50    2.30
   0  -3   9   17.00    1.00
  -1   3  -9    2.20    1.30
  -1   3  -9    1.50    1.10
  -1   3  -9   -4.10    2.30
  -1   3  -9    0.10    1.70
   1  -3   9    2.80    1.70
   1  -3   9   -3.20    1.20
   1  -3   9   -1.00    1.10
   1  -3   9    0.20    2.10
  -2   3  -9   12.20    2.10
  -2   3  -9   15.70    2.00
  -2   3  -9    8.00    1.70
  -2   3  -9   10.10    2.20
   2  -3   9    9.40    1.40
   2  -3   9   12.10    1.30
   2  -3   9   11.20    3.40
  -3   3  -9   46.10    4.10
  -3   3  -9   45.80    3.50
  -3   3  -9   45.30    3.40
   3  -3   9   51.79    3.30
   3  -3   9   51.49    5.90
  -4   3  -9    8.90    2.40
  -4   3  -9    8.30    2.60
  -4   3  -9   19.60    7.20
   4  -3   9    7.30    5.50
   4  -3   9   12.10    2.50
  -5   3  -9   22.40    5.90
  -5   3  -9   19.70    3.40
  -5   3  -9   17.70    4.20
   5  -3   9   19.10    3.90
   5  -3   9   23.20    6.60
  -6   3  -9    7.90    5.30
  -6   3  -9    5.90    6.90
   6  -3   9    0.20    4.00
   6  -3   9   19.40    7.80
   6   2  -9   -3.20    3.70
   6   2  -9   13.30    4.10
   6   2  -9    0.60    2.90
  -6  -2   9   -1.80    3.60
  -6  -2   9    7.30    4.70
  -6  -2   9   -0.60    5.40
  -6  -2   9    4.60    4.20
   5   2  -9    2.90    2.60
   5   2  -9    0.70    2.20
   5   2  -9   -0.20    2.70
  -5  -2   9    4.80    3.10
  -5  -2   9    1.40    4.30
  -5  -2   9    2.10    2.70
  -5  -2   9   -6.00    3.10
   4   2  -9   32.60    3.20
   4   2  -9   34.00    3.60
   4   2  -9   37.00    3.30
  -4  -2   9   31.90    3.30
  -4  -2   9   33.50    4.60
  -4  -2   9   34.60    4.00
   3   2  -9   -1.90    1.40
   3   2  -9   -0.80    1.50
   3   2  -9    0.60    1.20
  -3  -2   9   -3.00    1.70
  -3  -2   9    3.20    2.00
  -3  -2   9   -1.70    2.60
  -3  -2   9    0.40    1.30
   2   2  -9    0.40    1.40
   2   2  -9    2.30    1.40
  -2  -2   9   -1.30    1.60
  -2  -2   9    5.40    2.60
  -2  -2   9    2.70    1.00
  -2  -2   9    1.30    1.50
  -2  -2   9    2.60    2.00
   1   2  -9   21.40    2.30
   1   2  -9   24.00    3.20
   1   2  -9   19.60    2.60
   1   2  -9   20.50    2.20
  -1  -2   9   25.00    3.50
  -1  -2   9   22.30    2.60
  -1  -2   9   24.50    3.20
  -1  -2   9   25.20    2.20
  -1  -2   9   22.50    2.20
   0   2  -9  123.29    3.90
   0   2  -9  131.59    5.50
   0   2  -9  118.59    4.60
   0   2  -9  117.79    5.20
   0   2  -9  121.09    5.00
   0   2  -9  119.99    4.90
   0  -2   9  120.79    3.40
   0  -2   9  118.89    5.40
   0  -2   9  121.39    4.60
   0  -2   9  121.29    4.20
   0  -2   9  128.39    4.80
   0  -2   9  121.49    5.10
  -1   2  -9   45.60    4.00
  -1   2  -9   43.00    2.70
  -1   2  -9   41.10    3.70
  -1   2  -9   51.59    3.20
  -1   2  -9   48.70    2.50
  -1   2  -9   43.20    3.00
   1  -2   9   44.00    2.70
   1  -2   9   47.50    2.80
   1  -2   9   47.90    3.70
   1  -2   9   45.50    3.40
  -2   2  -9   17.50    2.40
  -2   2  -9   15.10    2.20
  -2   2  -9   17.60    2.40
  -2   2  -9   13.30    1.90
   2  -2   9   15.30    2.00
   2  -2   9   12.80    2.50
   2  -2   9   13.40    3.10
   2  -2   9   16.20    2.10
   2  -2   9   12.90    2.50
  -3   2  -9  103.39    4.90
  -3   2  -9   99.99    4.80
  -3   2  -9  111.99    5.30
   3  -2   9  120.09    7.40
   3  -2   9  104.89    6.50
   3  -2   9  112.29    4.30
   3  -2   9  109.89    4.40
   3  -2   9  100.39    3.70
  -4   2  -9    8.20    4.10
  -4   2  -9   -1.40    1.80
  -4   2  -9    2.40    2.30
   4  -2   9    1.30    1.20
   4  -2   9    2.00    1.40
   4  -2   9    1.10    1.90
   4  -2   9   -4.70    3.50
  -5   2  -9   -0.60    3.30
  -5   2  -9    3.10    2.60
  -5   2  -9    6.40    4.50
   5  -2   9    0.60    4.60
   5  -2   9   -6.10    2.70
  -6   2  -9    1.40    5.80
  -6   2  -9   -9.20    4.70
   6  -2   9    7.90    6.20
   6  -2   9   -1.90    4.00
   6   1  -9   -8.70    4.00
   6   1  -9    4.30    2.70
   6   1  -9    2.50    3.50
  -6  -1   9    5.30    3.90
  -6  -1   9    4.20    4.20
  -6  -1   9   -1.60    5.40
  -6  -1   9   -2.20    4.60
   5   1  -9    1.00    1.90
   5   1  -9   -0.80    2.50
   5   1  -9   -0.70    2.60
  -5  -1   9    5.00    2.90
  -5  -1   9    4.10    3.30
  -5  -1   9   -5.60    4.00
  -5  -1   9   -4.30    2.70
   4   1  -9   29.40    3.00
   4   1  -9   36.80    3.60
   4   1  -9   29.40    3.10
  -4  -1   9   31.10    3.90
  -4  -1   9   33.80    4.20
  -4  -1   9   27.90    2.60
   3   1  -9   12.00    1.90
   3   1  -9   13.80    1.70
   3   1  -9   11.50    2.10
  -3  -1   9   13.20    2.40
  -3  -1   9   13.10    1.90
  -3  -1   9   13.20    3.00
  -3  -1   9   14.00    2.40
   2   1  -9   -0.50    0.70
   2   1  -9    1.80    1.30
   2   1  -9    0.50    0.90
   2   1  -9    2.00    1.20
  -2  -1   9    4.40    2.30
  -2  -1   9    0.30    2.40
  -2  -1   9   -1.30    1.30
  -2  -1   9   -2.00    1.70
  -2  -1   9    0.20    1.00
  -2  -1   9   -0.20    1.30
   1   1  -9    4.50    1.20
   1   1  -9    6.20    2.10
   1   1  -9    3.60    1.30
   1   1  -9    3.90    2.30
   1   1  -9    5.10    1.40
  -1  -1   9    4.00    1.10
  -1  -1   9    3.40    1.50
  -1  -1   9    4.30    1.40
  -1  -1   9    4.10    1.90
  -1  -1   9    4.20    1.90
  -1  -1   9    4.10    1.40
   0   1  -9   60.29    3.10
   0   1  -9   66.89    3.60
   0   1  -9   60.99    3.60
   0   1  -9   61.69    3.20
   0   1  -9   57.99    2.80
   0   1  -9   62.69    3.60
   0  -1   9   62.99    3.40
   0  -1   9   61.09    2.30
   0  -1   9   56.89    3.50
   0  -1   9   61.69    2.80
   0  -1   9   67.89    3.40
   0  -1   9   59.29    3.10
  -1   1  -9   26.80    2.20
  -1   1  -9   27.10    2.60
  -1   1  -9   29.70    3.00
  -1   1  -9   28.70    2.20
  -1   1  -9   28.60    2.40
   1  -1   9   24.20    1.10
   1  -1   9   23.80    2.80
   1  -1   9   22.30    2.60
   1  -1   9   27.10    2.40
   1  -1   9   29.20    2.40
   1  -1   9   26.70    2.40
  -2   1  -9   87.89    4.70
  -2   1  -9   83.19    4.30
  -2   1  -9   90.29    4.20
  -2   1  -9   85.99    4.00
  -2   1  -9   84.29    4.00
   2  -1   9   87.39    3.60
   2  -1   9   86.19    3.30
   2  -1   9   93.59    4.10
   2  -1   9   92.49    4.40
  -3   1  -9   33.40    3.60
  -3   1  -9   27.30    3.10
  -3   1  -9   26.60    4.10
  -3   1  -9   22.60    2.70
   3  -1   9   29.90    2.70
   3  -1   9   31.10    3.00
   3  -1   9   33.60    2.50
   3  -1   9   21.10    2.60
  -4   1  -9    1.20    3.30
  -4   1  -9    0.70    3.80
  -4   1  -9   -1.30    2.20
  -4   1  -9   -1.40    1.80
  -4   1  -9    0.40    1.20
   4  -1   9    1.20    1.90
   4  -1   9    2.50    3.30
   4  -1   9    0.30    1.60
   4  -1   9   -2.30    1.80
  -5   1  -9    1.40    4.50
  -5   1  -9    1.00    2.40
  -5   1  -9   -0.20    4.70
  -5   1  -9   -2.00    3.10
   5  -1   9    2.00    2.60
   5  -1   9    3.00    2.10
   5  -1   9    6.30    4.80
  -6   1  -9    6.30    4.80
  -6   1  -9   -3.10    5.70
   6  -1   9   -2.90    3.60
   6  -1   9    2.60    3.90
   6  -1   9    6.70    5.50
   6   0  -9   18.30    3.90
  -6   0   9   13.70    5.70
  -6   0   9   17.70    4.80
  -6   0   9   17.70    5.20
  -6   0   9   14.30    4.20
   5   0  -9   -0.80    2.50
   5   0  -9    0.30    2.40
   5   0  -9   -1.00    1.80
  -5   0   9   -1.10    3.10
  -5   0   9   -2.50    3.90
  -5   0   9    2.00    2.90
  -5   0   9    0.40    2.60
   4   0  -9    2.00    1.80
   4   0  -9    2.30    1.90
   4   0  -9    4.10    1.70
  -4   0   9    3.00    2.30
  -4   0   9    7.90    2.40
  -4   0   9    2.40    2.10
  -4   0   9    5.70    3.00
  -4   0   9    1.90    2.30
   3   0  -9    9.50    1.80
   3   0  -9   11.60    1.60
   3   0  -9   15.00    2.30
  -3   0   9    5.60    2.70
  -3   0   9   14.00    2.30
  -3   0   9   11.50    2.00
  -3   0   9    8.00    3.10
  -3   0   9   10.70    2.20
   2   0  -9   20.50    2.20
   2   0  -9   16.20    1.40
   2   0  -9   17.10    2.10
   2   0  -9   15.40    3.30
  -2   0   9   20.40    2.40
  -2   0   9   19.80    2.50
  -2   0   9   17.80    2.90
  -2   0   9   18.30    2.40
  -2   0   9   15.90    1.90
  -2   0   9   17.30    2.60
   1   0  -9   10.70    2.40
   1   0  -9    9.00    1.70
   1   0  -9   10.00    1.60
   1   0  -9    7.90    1.60
   1   0  -9    7.10    2.00
   1   0  -9    7.50    1.40
  -1   0   9   10.90    2.10
  -1   0   9   11.70    1.70
  -1   0   9    8.80    2.00
  -1   0   9    9.70    1.40
  -1   0   9   10.40    1.70
  -1   0   9    9.10    1.60
   0   0  -9   52.59    2.90
   0   0  -9   54.39    2.80
   0   0  -9   54.99    3.10
   0   0  -9   51.19    3.20
   0   0  -9   56.49    3.00
   0   0   9   56.59    3.10
   0   0   9   56.59    2.70
   0   0   9   55.09    3.10
   0   0   9   51.09    3.20
   0   0   9   57.79    3.00
  -1   0  -9   12.80    2.00
  -1   0  -9    9.70    1.80
  -1   0  -9   11.10    1.80
  -1   0  -9   13.00    1.70
  -1   0  -9    9.40    1.70
   1   0   9   13.40    2.10
   1   0   9    8.40    1.70
   1   0   9    9.90    1.80
   1   0   9   10.80    1.10
   1   0   9   10.60    1.60
   1   0   9   10.30    1.60
  -2   0  -9   85.99    4.40
  -2   0  -9   85.19    4.20
  -2   0  -9   82.09    4.10
  -2   0  -9   86.69    4.10
  -2   0  -9   84.59    4.00
   2   0   9   85.69    4.10
   2   0   9   85.69    2.60
   2   0   9   87.39    3.40
   2   0   9   87.79    4.10
   2   0   9   86.89    3.70
   2   0   9   88.29    4.40
  -3   0  -9    8.90    2.10
  -3   0  -9   11.80    2.30
  -3   0  -9   12.10    2.50
  -3   0  -9    6.20    2.80
  -3   0  -9   11.20    3.10
   3   0   9    7.30    1.80
   3   0   9    9.30    2.20
   3   0   9   13.40    2.10
   3   0   9    9.70    1.10
   3   0   9    8.70    1.90
  -4   0  -9   21.90    3.10
  -4   0  -9   24.60    3.50
  -4   0  -9   23.70    2.60
  -4   0  -9   22.30    4.20
   4   0   9   25.30    2.80
   4   0   9   25.20    3.10
   4   0   9   23.30    3.10
  -5   0  -9   12.70    3.10
  -5   0  -9    6.90    3.60
  -5   0  -9    5.70    4.10
  -5   0  -9   15.90    2.90
   5   0   9    2.10    3.80
   5   0   9    6.30    2.80
   5   0   9    5.70    3.10
   5   0   9    9.20    2.90
  -6   0  -9    9.50    4.70
  -6   0  -9   12.00    6.40
   6   0   9   -0.80    5.40
   6   0   9    7.50    3.40
   6   0   9   11.60    3.80
   6  -1  -9    1.80    3.30
   6  -1  -9   -6.40    3.60
  -6   1   9    1.80    5.20
  -6   1   9    0.70    4.30
  -6   1   9    1.20    3.80
   5  -1  -9   60.59    4.90
   5  -1  -9   72.19    5.30
   5  -1  -9   69.49    4.00
  -5   1   9   57.29    5.50
  -5   1   9   68.19    5.50
  -5   1   9   75.99    5.70
  -5   1   9   84.69    7.00
   4  -1  -9   54.99    3.90
   4  -1  -9   53.79    3.30
   4  -1  -9   54.29    3.80
  -4   1   9   57.49    5.20
  -4   1   9   51.59    4.20
  -4   1   9   44.80    4.20
  -4   1   9   52.89    4.80
  -4   1   9   46.00    4.10
   3  -1  -9   10.70    2.10
   3  -1  -9   11.80    1.80
   3  -1  -9   12.60    1.90
  -3   1   9    9.10    1.90
  -3   1   9    8.20    2.40
  -3   1   9   10.30    2.20
  -3   1   9    8.60    2.00
   2  -1  -9   78.19    3.70
   2  -1  -9   77.79    2.50
   2  -1  -9   77.19    3.80
   2  -1  -9   76.39    3.10
   2  -1  -9   80.59    4.70
   2  -1  -9   82.09    5.20
  -2   1   9   77.19    4.10
  -2   1   9   77.39    3.90
  -2   1   9   78.09    4.20
  -2   1   9   78.79    4.40
  -2   1   9   70.49    3.60
  -2   1   9   86.29    3.60
  -2   1   9   77.69    3.20
   1  -1  -9   16.50    1.90
   1  -1  -9   21.30    2.40
   1  -1  -9   20.40    2.60
   1  -1  -9   16.80    2.60
   1  -1  -9   17.10    2.20
  -1   1   9   17.60    1.70
  -1   1   9   14.40    1.40
  -1   1   9   20.20    2.40
  -1   1   9   20.20    2.40
  -1   1   9   14.50    2.00
  -1   1   9   18.40    1.90
   0  -1  -9   12.60    2.00
   0  -1  -9   19.60    1.90
   0  -1  -9   19.00    2.10
   0  -1  -9   17.20    1.90
   0  -1  -9   16.20    2.00
   0   1   9   16.70    1.20
   0   1   9   15.50    2.00
   0   1   9   18.10    1.80
   0   1   9   14.50    1.70
   0   1   9   15.40    2.00
   0   1   9   19.30    2.10
  -1  -1  -9    1.60    1.20
  -1  -1  -9   -0.30    1.20
  -1  -1  -9    1.10    1.20
  -1  -1  -9    3.40    1.40
  -1  -1  -9    2.40    1.30
   1   1   9    0.90    1.20
   1   1   9    1.60    1.20
   1   1   9    2.20    1.30
   1   1   9    1.30    1.20
   1   1   9    1.80    0.90
  -2  -1  -9    3.00    1.70
  -2  -1  -9    0.10    1.50
  -2  -1  -9    2.20    1.40
  -2  -1  -9    0.70    1.30
  -2  -1  -9    3.00    1.80
   2   1   9    1.00    1.60
   2   1   9    2.90    1.50
   2   1   9    4.60    1.60
   2   1   9    2.70    1.10
   2   1   9    4.90    1.60
  -3  -1  -9   33.70    3.40
  -3  -1  -9   34.10    3.20
  -3  -1  -9   51.89    3.80
  -3  -1  -9   40.30    4.20
  -3  -1  -9   40.30    3.80
  -3  -1  -9   41.20    2.50
   3   1   9   41.30    3.20
   3   1   9   37.10    3.40
   3   1   9   47.90    4.00
   3   1   9   41.60    3.20
   3   1   9   39.50    2.40
  -4  -1  -9   -2.00    1.70
  -4  -1  -9    0.60    2.20
  -4  -1  -9    2.50    2.80
  -4  -1  -9    1.00    1.90
   4   1   9    0.00    2.20
   4   1   9   -2.30    2.20
   4   1   9   -0.50    1.60
   4   1   9    0.80    1.30
  -5  -1  -9   -0.40    3.20
  -5  -1  -9    2.00    4.00
  -5  -1  -9    6.70    2.90
  -5  -1  -9    7.80    2.80
  -5  -1  -9    5.60    3.40
   5   1   9    0.70    3.80
   5   1   9    5.00    2.00
   5   1   9    0.30    2.50
   5   1   9    6.50    3.00
  -6  -1  -9   -1.20    5.70
  -6  -1  -9    1.70    4.50
   6   1   9   -9.00    4.50
   6   1   9    2.40    3.70
   6   1   9   -3.00    3.40
  -7  -1  -9  -14.70    5.70
  -7  -1  -9    0.90    8.00
   7   1   9   -0.20    5.10
   7   1   9    9.20    4.90
   7   1   9    4.70    6.70
   6  -2  -9    9.10    4.40
   6  -2  -9    0.90    5.20
   6  -2  -9    6.10    3.40
  -6   2   9   12.90    4.90
  -6   2   9   11.90    4.00
  -6   2   9    8.40    4.70
   5  -2  -9   34.20    4.80
   5  -2  -9   44.70    3.60
   5  -2  -9   36.50    4.20
  -5   2   9   39.30    5.00
  -5   2   9   38.70    4.90
  -5   2   9   42.70    6.30
   4  -2  -9   18.50    2.70
   4  -2  -9   20.70    2.90
   4  -2  -9   19.30    2.60
  -4   2   9   20.00    4.00
  -4   2   9   19.80    3.70
  -4   2   9   19.00    2.90
  -4   2   9   22.60    3.40
  -4   2   9   24.70    3.10
   3  -2  -9    5.20    1.60
   3  -2  -9    0.50    1.50
   3  -2  -9    3.50    1.40
  -3   2   9    2.50    1.60
  -3   2   9    2.40    1.50
  -3   2   9    2.50    1.90
  -3   2   9    2.50    1.70
  -3   2   9    4.70    2.00
   2  -2  -9   22.30    2.30
   2  -2  -9   23.80    2.30
   2  -2  -9   22.90    3.10
   2  -2  -9   29.80    3.60
  -2   2   9   24.70    2.50
  -2   2   9   24.50    2.60
  -2   2   9   23.80    2.30
  -2   2   9   25.20    2.60
  -2   2   9   22.30    2.00
   1  -2  -9   14.80    1.90
   1  -2  -9   17.40    2.00
   1  -2  -9    8.40    1.90
   1  -2  -9   12.10    2.40
   1  -2  -9   18.90    2.50
  -1   2   9   15.00    2.10
  -1   2   9   10.70    1.90
  -1   2   9   13.90    1.90
  -1   2   9   15.10    2.30
  -1   2   9   13.70    1.90
   0  -2  -9    8.20    1.80
   0  -2  -9    6.50    1.50
   0  -2  -9    7.50    1.20
   0  -2  -9    6.50    1.60
   0  -2  -9    6.90    1.60
   0   2   9   10.00    1.80
   0   2   9    9.80    1.80
   0   2   9    9.70    1.90
   0   2   9    4.80    1.30
   0   2   9    6.90    1.20
  -1  -2  -9   49.80    2.60
  -1  -2  -9   47.40    3.10
  -1  -2  -9   47.50    3.10
  -1  -2  -9   51.49    3.20
  -1  -2  -9   47.20    3.10
   1   2   9   51.89    3.00
   1   2   9   50.69    3.10
   1   2   9   49.10    3.10
   1   2   9   47.50    3.00
   1   2   9   46.70    2.50
  -2  -2  -9    0.00    1.40
  -2  -2  -9    5.60    2.00
  -2  -2  -9    2.00    1.50
  -2  -2  -9    3.40    1.70
  -2  -2  -9    3.40    1.70
   2   2   9    0.40    1.50
   2   2   9   -0.20    1.50
   2   2   9    1.20    1.40
   2   2   9    0.20    1.50
   2   2   9    1.40    0.90
  -3  -2  -9   14.90    2.50
  -3  -2  -9   15.50    2.10
  -3  -2  -9   15.40    3.00
  -3  -2  -9   15.30    2.80
  -3  -2  -9   14.80    2.70
   3   2   9   11.00    2.50
   3   2   9   14.20    2.60
   3   2   9   15.50    1.90
   3   2   9   19.70    2.70
   3   2   9   15.60    2.80
  -4  -2  -9   29.10    3.70
  -4  -2  -9   38.30    3.50
  -4  -2  -9   31.30    4.60
  -4  -2  -9   31.70    4.20
   4   2   9   34.00    2.80
   4   2   9   33.90    4.20
  -5  -2  -9   12.30    3.20
  -5  -2  -9    3.10    3.10
  -5  -2  -9    0.20    3.20
  -5  -2  -9   -3.30    3.80
   5   2   9   -0.10    1.90
   5   2   9    6.50    3.20
  -6  -2  -9    2.10    5.40
  -6  -2  -9    3.70    4.20
   6   2   9    7.00    3.70
   6   2   9    8.60    4.90
   6   2   9    1.00    2.90
  -7  -2  -9   17.00    7.40
  -7  -2  -9    2.30    5.60
   7   2   9   -3.30    5.00
   7   2   9    2.80    5.20
   7   2   9    3.20    6.40
   6  -3  -9   -5.00    4.00
   6  -3  -9   -2.60    3.10
   6  -3  -9    7.30    5.60
  -6   3   9    2.20    4.70
  -6   3   9   -1.80    4.40
  -6   3   9   -5.10    3.60
   5  -3  -9    6.70    2.30
   5  -3  -9    8.10    2.60
   5  -3  -9    7.70    3.30
  -5   3   9   -0.70    2.80
  -5   3   9    3.70    3.20
  -5   3   9    0.20    6.20
   4  -3  -9   17.00    2.90
   4  -3  -9   23.10    3.00
   4  -3  -9   19.40    2.50
  -4   3   9   22.40    3.70
  -4   3   9   14.80    2.80
  -4   3   9   20.00    3.70
  -4   3   9   15.20    3.00
  -4   3   9   16.20    4.40
   3  -3  -9    4.30    3.60
   3  -3  -9    3.80    1.70
   3  -3  -9    4.90    1.60
   3  -3  -9    4.80    1.70
   3  -3  -9    1.60    3.30
  -3   3   9    2.90    1.40
  -3   3   9    3.00    2.10
  -3   3   9    9.10    2.00
  -3   3   9    3.50    2.00
  -3   3   9    0.70    2.20
  -3   3   9    5.10    1.90
   2  -3  -9   13.20    3.00
   2  -3  -9   12.80    2.00
   2  -3  -9    7.50    2.50
   2  -3  -9   12.10    1.50
   2  -3  -9   12.90    2.10
  -2   3   9   14.80    2.10
  -2   3   9    9.10    1.90
  -2   3   9   12.80    1.90
  -2   3   9   13.70    2.20
  -2   3   9   13.60    2.20
   1  -3  -9   18.60    2.50
   1  -3  -9   17.60    2.40
   1  -3  -9   15.70    2.10
   1  -3  -9   14.80    2.10
   1  -3  -9   19.90    2.60
  -1   3   9   14.80    2.00
  -1   3   9   13.80    2.00
  -1   3   9   16.20    2.10
  -1   3   9   15.10    2.10
  -1   3   9   15.60    2.00
  -1   3   9   14.90    1.20
   0  -3  -9    0.40    1.50
   0  -3  -9    3.20    1.50
   0  -3  -9    0.70    0.70
   0  -3  -9    0.90    1.50
   0  -3  -9   -0.20    1.20
   0  -3  -9   -1.80    1.50
   0   3   9    1.10    1.30
   0   3   9    0.30    1.10
   0   3   9    1.50    1.20
   0   3   9   -0.60    1.20
   0   3   9    1.80    1.50
   0   3   9    0.30    0.90
  -1  -3  -9   59.29    3.50
  -1  -3  -9   64.99    3.60
  -1  -3  -9   60.99    2.60
  -1  -3  -9   52.69    3.40
  -1  -3  -9   59.49    3.50
   1   3   9   58.79    3.50
   1   3   9   65.49    3.50
   1   3   9   60.49    3.40
   1   3   9   55.59    3.00
   1   3   9   60.89    3.30
  -2  -3  -9   -1.20    1.50
  -2  -3  -9   -2.20    1.70
  -2  -3  -9    0.40    1.50
  -2  -3  -9    2.40    1.40
  -2  -3  -9   -1.10    1.70
   2   3   9    2.90    1.70
   2   3   9   -0.80    1.40
   2   3   9   -0.80    1.00
   2   3   9    0.10    1.60
   2   3   9   -2.90    1.50
  -3  -3  -9   92.49    4.40
  -3  -3  -9   88.29    5.20
  -3  -3  -9   95.19    4.90
  -3  -3  -9   88.39    5.20
  -3  -3  -9   98.69    5.50
   3   3   9   84.89    5.00
   3   3   9   95.49    4.20
   3   3   9   94.59    5.30
  -4  -3  -9   -1.70    2.40
  -4  -3  -9    1.70    2.30
  -4  -3  -9   -1.00    2.30
   4   3   9    1.20    1.70
   4   3   9    0.70    2.40
  -5  -3  -9    4.40    4.20
   5   3   9    1.20    2.10
   5   3   9    1.30    3.20
  -6  -3  -9    0.50    4.10
  -6  -3  -9    5.60    5.70
   6   3   9    1.90    3.50
   6   3   9    7.40    4.70
   6   3   9    7.00    3.10
   6   3   9   11.60    4.50
  -7  -3  -9    2.40    5.90
  -7  -3  -9   -2.80    7.40
   7   3   9    6.90    6.30
   7   3   9    7.80    5.20
   7   3   9   -1.50    5.30
   7   3   9    6.00    4.60
   6  -4  -9    0.70    6.20
   6  -4  -9    6.70    4.30
   6  -4  -9  -13.50    5.70
  -6   4   9   -6.20    4.90
  -6   4   9    1.80    4.80
  -6   4   9    0.60    3.90
   5  -4  -9    4.30    4.50
   5  -4  -9    1.80    2.40
  -5   4   9    0.60    2.90
   4  -4  -9    9.40    2.20
   4  -4  -9    5.70    2.40
   4  -4  -9   11.20    2.40
  -4   4   9    6.90    3.00
  -4   4   9    6.90    2.40
  -4   4   9   15.70    3.40
  -4   4   9    6.30    2.50
   3  -4  -9   24.40    4.20
   3  -4  -9   35.20    4.50
   3  -4  -9   34.30    3.30
   3  -4  -9   29.70    1.90
   3  -4  -9   32.80    3.00
   3  -4  -9   36.10    3.20
  -3   4   9   33.90    4.00
  -3   4   9   33.00    2.50
  -3   4   9   34.10    3.00
  -3   4   9   31.00    3.60
  -3   4   9   34.90    3.20
  -3   4   9   35.60    4.00
   2  -4  -9   57.39    3.40
   2  -4  -9   60.49    3.70
   2  -4  -9   58.39    3.10
   2  -4  -9   49.20    4.60
   2  -4  -9   58.59    4.20
  -2   4   9   60.49    2.10
  -2   4   9   62.69    3.90
  -2   4   9   60.59    3.60
  -2   4   9   62.89    3.30
  -2   4   9   62.19    3.90
   1  -4  -9    0.60    1.50
   1  -4  -9   -0.90    1.30
   1  -4  -9    1.10    2.00
   1  -4  -9    0.60    1.70
   1  -4  -9   -2.30    1.70
  -1   4   9   -0.80    1.10
  -1   4   9   -3.00    1.40
  -1   4   9   -0.10    1.10
  -1   4   9   -0.40    1.30
  -1   4   9   -1.20    1.60
   0  -4  -9    9.60    2.00
   0  -4  -9    9.40    2.10
   0  -4  -9   10.20    1.90
   0  -4  -9   12.40    2.10
   0  -4  -9   10.80    2.10
   0   4   9   10.00    1.90
   0   4   9   12.50    2.20
   0   4   9   13.30    2.10
   0   4   9    8.40    1.60
   0   4   9   12.80    2.00
   0   4   9    9.30    1.80
  -1  -4  -9   35.90    3.30
  -1  -4  -9   37.50    3.10
  -1  -4  -9   37.50    3.20
  -1  -4  -9   39.10    3.30
  -1  -4  -9   33.70    1.80
   1   4   9   37.90    3.10
   1   4   9   35.50    3.00
   1   4   9   30.80    3.00
   1   4   9   34.40    2.70
   1   4   9   35.50    2.80
  -2  -4  -9    0.50    1.60
  -2  -4  -9   -0.80    1.90
  -2  -4  -9    1.60    1.70
  -2  -4  -9   -1.10    1.30
  -2  -4  -9   -0.20    1.50
   2   4   9   -0.10    1.20
   2   4   9   -1.90    1.50
   2   4   9    0.90    1.60
  -3  -4  -9    8.90    2.60
  -3  -4  -9   13.20    2.60
  -3  -4  -9    7.40    2.40
  -3  -4  -9   11.80    2.60
   3   4   9    8.60    1.90
   3   4   9    9.00    2.60
   3   4   9    6.90    2.20
  -4  -4  -9   -2.60    2.40
  -4  -4  -9    6.10    2.70
   4   4   9    0.30    2.60
   4   4   9    0.40    1.80
   4   4   9    1.70    2.70
  -5  -4  -9    0.40    3.80
  -5  -4  -9   -1.90    3.20
   5   4   9    1.20    2.20
  -6  -4  -9    5.50    5.20
  -6  -4  -9    1.10    4.30
   6   4   9   -0.70    3.80
   6   4   9    6.80    4.50
   6  -5  -9   -8.90    4.50
   6  -5  -9   12.30    7.00
  -6   5   9    2.30    4.30
  -6   5   9  -11.50    5.10
  -6   5   9   -3.90    4.80
   5  -5  -9    2.00    2.60
   5  -5  -9   -3.00    6.00
   5  -5  -9    3.60    3.50
  -5   5   9   -0.30    3.70
  -5   5   9    2.70    3.10
   4  -5  -9    7.00    2.20
   4  -5  -9    7.90    2.90
   4  -5  -9   13.80    5.00
  -4   5   9    8.80    2.60
  -4   5   9   11.60    3.20
   3  -5  -9   43.80    3.80
   3  -5  -9   45.10    3.40
   3  -5  -9   45.10    5.50
   3  -5  -9   42.50    3.90
   3  -5  -9   37.50    2.90
   3  -5  -9   44.10    4.80
  -3   5   9   37.30    2.90
  -3   5   9   40.00    3.60
  -3   5   9   39.40    4.20
  -3   5   9   41.60    4.10
  -3   5   9   42.30    3.20
   2  -5  -9    6.60    2.00
   2  -5  -9    6.10    2.60
   2  -5  -9    2.50    2.40
   2  -5  -9    0.10    1.50
   2  -5  -9    1.30    1.40
  -2   5   9    2.20    1.80
  -2   5   9    1.70    1.50
  -2   5   9    2.30    1.50
  -2   5   9    0.80    2.30
   1  -5  -9   21.80    2.60
   1  -5  -9   26.70    3.10
   1  -5  -9   33.40    3.00
   1  -5  -9   33.00    3.40
  -1   5   9   28.10    3.10
  -1   5   9   29.70    2.90
  -1   5   9   24.80    2.70
  -1   5   9   32.80    2.90
   0  -5  -9    1.20    1.30
   0  -5  -9    1.80    1.70
   0  -5  -9    0.50    1.70
   0  -5  -9    2.90    3.80
   0  -5  -9    0.60    1.40
   0   5   9   -2.60    1.80
   0   5   9    0.70    1.30
   0   5   9   -0.80    1.70
   0   5   9    0.50    1.40
   0   5   9   -1.00    1.70
   0   5   9   -0.40    1.30
  -1  -5  -9  514.95   13.60
  -1  -5  -9  472.45   14.00
  -1  -5  -9  488.05   14.80
  -1  -5  -9  496.25   11.50
   1   5   9  506.05   13.80
   1   5   9  493.05   14.00
   1   5   9  491.35   13.60
  -2  -5  -9  250.27    8.30
  -2  -5  -9  261.37    9.30
  -2  -5  -9  265.27    7.60
   2   5   9  265.67    9.10
   2   5   9  259.27    8.90
   2   5   9  259.77    8.40
  -3  -5  -9    3.10    2.40
  -3  -5  -9    1.80    2.10
   3   5   9   -1.90    1.60
   3   5   9   -0.10    2.20
   3   5   9   -1.60    1.90
  -4  -5  -9    2.50    2.80
  -4  -5  -9    2.90    2.70
   4   5   9    0.40    2.00
   4   5   9    0.70    2.90
   4   5   9    0.20    2.90
  -5  -5  -9    5.30    3.90
  -5  -5  -9    2.20    4.10
  -5  -5  -9    3.00    2.40
   5   5   9    2.20    2.80
   5   5   9    0.10    3.80
  -6  -5  -9   -8.70    5.50
   6   5   9   -4.40    4.80
   6   5   9   -2.90    3.30
   5  -6  -9    3.80    2.70
   5  -6  -9    3.30    3.90
   5  -6  -9   13.30    6.00
  -5   6   9   -1.00    3.40
  -5   6   9    6.20    4.30
  -5   6   9    2.00    5.40
   4  -6  -9    3.40    3.30
   4  -6  -9   -1.80    2.10
  -4   6   9    0.70    2.50
  -4   6   9    1.60    3.10
  -4   6   9    3.20    3.50
   3  -6  -9    3.90    1.80
   3  -6  -9   -4.40    3.70
   3  -6  -9    8.60    2.00
  -3   6   9    3.60    2.20
  -3   6   9    3.10    1.80
  -3   6   9    3.40    2.60
   2  -6  -9    1.90    2.50
   2  -6  -9    0.30    1.70
   2  -6  -9   -0.10    1.70
   2  -6  -9    0.70    2.40
  -2   6   9    1.60    1.50
  -2   6   9    1.40    1.80
  -2   6   9    0.20    1.80
   1  -6  -9    0.20    1.60
   1  -6  -9   -0.40    1.50
   1  -6  -9   -0.30    2.00
  -1   6   9   -0.90    1.50
  -1   6   9    0.10    1.40
  -1   6   9   -0.30    1.90
  -1   6   9    2.50    2.50
   0  -6  -9   28.50    3.30
   0  -6  -9   34.50    3.10
   0  -6  -9   32.40    2.40
   0   6   9   30.00    3.60
   0   6   9   28.70    3.20
   0   6   9   35.20    3.10
   0   6   9   34.10    3.20
  -1  -6  -9   29.60    3.20
  -1  -6  -9   29.90    3.40
  -1  -6  -9   35.40    2.50
   1   6   9   25.90    3.20
   1   6   9   34.80    3.20
   1   6   9   33.40    3.20
  -2  -6  -9   50.29    4.40
  -2  -6  -9   57.59    3.40
   2   6   9   47.40    3.90
   2   6   9   50.59    4.20
   2   6   9   47.80    3.70
  -3  -6  -9   18.40    3.40
  -3  -6  -9   16.50    2.80
   3   6   9   19.40    3.40
   3   6   9   19.00    3.20
   3   6   9   18.30    3.00
  -4  -6  -9   -0.40    3.20
  -4  -6  -9   -1.70    3.00
   4   6   9    3.30    2.30
   4   6   9   -5.40    2.70
   4   6   9    3.50    3.20
  -5  -6  -9   -2.90    3.90
  -5  -6  -9    1.00    2.80
  -5  -6  -9   -4.10    3.90
   5   6   9    0.30    3.90
  -6  -6  -9    3.20    5.40
  -6  -6  -9   11.40    4.90
   6   6   9    3.30    3.90
   6   6   9   -8.70    4.80
   5  -7  -9   -5.00    4.40
   5  -7  -9    0.20    6.20
  -5   7   9    4.30    4.60
  -5   7   9    1.90    4.90
  -5   7   9   -4.10    3.50
   4  -7  -9   27.30    6.30
   4  -7  -9   18.20    2.70
  -4   7   9   17.90    4.20
  -4   7   9   25.60    4.20
  -4   7   9   24.90    3.80
   3  -7  -9    1.60    2.10
   3  -7  -9   -0.30    2.00
  -3   7   9    3.30    2.70
  -3   7   9   -4.90    2.00
  -3   7   9    3.40    2.30
   2  -7  -9   -4.50    3.40
   2  -7  -9    3.10    2.40
   2  -7  -9    0.00    1.70
   2  -7  -9    0.90    2.10
   2  -7  -9   -2.20    2.70
  -2   7   9    0.70    1.80
  -2   7   9    4.90    2.40
  -2   7   9   -1.30    2.20
   1  -7  -9   41.30    4.20
   1  -7  -9   40.20    3.90
   1  -7  -9   44.20    2.90
   1  -7  -9   40.40    3.60
  -1   7   9   46.00    4.00
  -1   7   9   45.70    4.00
  -1   7   9   46.60    3.70
   0  -7  -9   -0.40    2.10
   0  -7  -9    1.50    2.00
   0   7   9    0.90    1.70
   0   7   9    1.20    1.90
   0   7   9    2.00    2.00
  -1  -7  -9    1.60    0.90
  -1  -7  -9    2.90    2.20
  -1  -7  -9   -0.50    0.90
  -1  -7  -9    1.50    2.20
   1   7   9    0.20    2.00
   1   7   9    0.60    1.60
   1   7   9    0.20    1.80
  -2  -7  -9    8.90    2.90
   2   7   9    8.80    2.40
   2   7   9    8.20    2.40
   2   7   9   13.40    3.00
  -3  -7  -9    4.10    2.70
  -3  -7  -9    0.60    2.80
  -3  -7  -9    7.30    2.30
   3   7   9    4.80    2.60
   3   7   9    4.20    2.90
   3   7   9    1.50    2.70
  -4  -7  -9    6.40    3.10
  -4  -7  -9   10.10    3.20
  -4  -7  -9    5.20    4.50
   4   7   9    4.90    3.70
   4   7   9    4.70    2.90
   4   7   9    7.10    3.50
  -5  -7  -9   14.20    3.30
  -5  -7  -9   -1.60    3.90
  -5  -7  -9    7.70    4.60
   5   7   9    0.90    4.30
   5   7   9    6.10    3.40
  -6  -7  -9    3.40    5.50
  -6  -7  -9   -2.70    4.80
   6   7   9   -2.50    4.10
   6   7   9   11.60    5.70
   5  -8  -9   25.30    7.80
  -5   8   9   -4.20    5.70
  -5   8   9   12.90    4.50
  -5   8   9    5.50    5.30
   4  -8  -9  -10.30    5.60
  -4   8   9    1.10    3.50
  -4   8   9   -0.10    3.90
   3  -8  -9    7.00    2.80
   3  -8  -9   10.70    5.30
  -3   8   9   16.00    4.00
  -3   8   9   11.00    2.80
   2  -8  -9   -0.50    2.10
   2  -8  -9   -1.80    2.60
   2  -8  -9    1.50    3.40
  -2   8   9   -0.20    2.10
  -2   8   9    7.80    5.30
   1  -8  -9    3.00    2.20
   1  -8  -9    2.20    3.60
   1  -8  -9    3.60    2.20
   1  -8  -9    3.50    2.70
  -1   8   9    2.10    2.30
  -1   8   9    3.80    2.40
  -1   8   9    1.50    2.10
   0  -8  -9   65.89    4.40
   0  -8  -9   65.79    4.50
   0  -8  -9   62.99    5.70
   0   8   9   60.59    4.80
   0   8   9   59.79    4.30
   0   8   9   59.19    4.70
  -1  -8  -9    1.30    2.50
  -1  -8  -9   -2.50    2.30
  -1  -8  -9    1.60    3.10
   1   8   9    5.70    2.40
   1   8   9   -0.20    2.20
   1   8   9    2.20    2.40
  -2  -8  -9   98.29    6.60
  -2  -8  -9   91.49    6.20
  -2  -8  -9   87.29    4.40
   2   8   9  102.29    6.00
   2   8   9  100.99    6.30
   2   8   9  103.59    5.90
  -3  -8  -9   11.50    3.40
  -3  -8  -9    8.40    3.90
  -3  -8  -9   10.90    2.30
   3   8   9    4.10    3.00
   3   8   9   16.90    4.50
  -4  -8  -9    7.00    3.50
  -4  -8  -9    3.30    2.90
  -4  -8  -9    0.50    3.70
   4   8   9   -2.30    3.70
   4   8   9   -2.00    3.60
   4   8   9    3.80    3.20
  -5  -8  -9    6.00    4.60
  -5  -8  -9    3.40    4.00
   5   8   9   -2.00    3.70
   5   8   9    7.60    5.30
   5   8   9   10.00    5.20
  -4   9   9    0.40    4.60
  -4   9   9    6.30    3.60
   3  -9  -9    8.30    5.80
   3  -9  -9    1.60    3.40
  -3   9   9    5.20    3.00
  -3   9   9    8.40    3.70
   2  -9  -9    9.40    4.80
   2  -9  -9    5.30    3.30
  -2   9   9    4.10    2.80
  -2   9   9    2.30    2.90
  -2   9   9   12.30    2.90
   1  -9  -9    5.90    3.20
   1  -9  -9    0.70    4.30
   1  -9  -9    1.60    2.20
  -1   9   9    6.00    2.50
  -1   9   9    3.10    2.80
  -1   9   9   -0.20    2.70
   0  -9  -9    4.40    2.80
   0  -9  -9   -4.10    3.10
   0  -9  -9    4.80    3.90
   0  -9  -9    4.40    2.60
   0   9   9    4.10    2.80
   0   9   9    7.00    2.50
  -1  -9  -9   -3.70    2.70
  -1  -9  -9    4.50    3.00
  -1  -9  -9   -1.70    3.40
   1   9   9    2.40    2.70
   1   9   9   -1.30    2.20
   1   9   9    0.70    3.20
  -2  -9  -9   10.60    3.30
  -2  -9  -9    0.70    3.70
   2   9   9   11.30    3.50
   2   9   9    9.70    5.10
   2   9   9    5.50    3.30
  -3  -9  -9   12.20    2.50
  -3  -9  -9    8.60    4.00
  -3  -9  -9   11.40    4.00
   3   9   9    3.10    3.00
   3   9   9   12.80    4.00
  -4  -9  -9    0.90    4.50
  -4  -9  -9    0.60    3.90
   4   9   9   -1.70    4.30
   4   9   9   -4.20    3.40
  -5  -9  -9    3.00    5.10
   5   9   9   10.00    4.70
   5   9   9   -1.10    5.50
   5   9   9    1.30    5.70
   3 -10  -9    3.30    4.60
   3 -10  -9    4.00    6.30
  -3  10   9    0.50    3.90
  -3  10   9    7.20    4.20
  -3  10   9   12.50    4.70
   2 -10  -9    4.60    4.00
   2 -10  -9    4.20    5.20
  -2  10   9   -2.20    3.30
  -2  10   9    4.30    3.50
  -2  10   9    6.60    3.10
   1 -10  -9    0.00    5.00
  -1  10   9    6.00    3.10
  -1  10   9    2.50    3.50
  -1  10   9   -2.20    2.80
   0 -10  -9    7.00    4.20
   0 -10  -9   -2.70    4.10
   0 -10  -9    5.50    2.50
   0  10   9    5.50    3.20
   0  10   9   -0.40    2.80
   0  10   9    2.70    3.10
  -1 -10  -9    0.40    3.70
  -1 -10  -9    2.20    4.40
  -1 -10  -9    8.50    3.20
   1  10   9    2.00    2.90
   1  10   9   -0.90    3.10
   1  10   9    4.60    3.20
  -2 -10  -9   24.50    6.00
  -2 -10  -9   30.50    4.60
   2  10   9   22.50    4.40
   2  10   9   26.00    4.40
   2  10   9   28.10    4.90
  -3 -10  -9    5.30    4.70
  -3 -10  -9   -0.80    2.30
  -3 -10  -9    3.00    4.10
   3  10   9   -4.40    4.10
   3  10   9   -5.80    3.60
   3  10   9    4.40    3.80
  -4 -10  -9    1.00    5.10
  -4 -10  -9   -8.10    4.80
  -4 -10  -9    2.10    3.30
   4  10   9    0.80    5.00
   4  10   9   -2.20    5.10
   4  10   9   -0.70    4.30
   2 -11  -9   -3.50    4.70
   2 -11  -9   18.80    6.90
  -2  11   9    3.50    5.90
  -2  11   9    5.90    4.20
  -2  11   9    0.20    4.00
   1 -11  -9    0.60    6.00
   1 -11  -9   -0.70    4.80
  -1  11   9    0.80    3.60
  -1  11   9   -3.20    3.40
  -1  11   9   -2.60    3.50
   0 -11  -9    7.70    4.70
   0 -11  -9   -1.40    5.10
   0  11   9    0.40    4.10
   0  11   9    6.30    3.40
   0  11   9    0.10    3.30
  -1 -11  -9   46.20    6.90
  -1 -11  -9   41.30    6.40
   1  11   9   37.80    5.40
   1  11   9   33.00    5.30
   1  11   9   29.50    4.80
  -2 -11  -9   13.70    5.10
  -2 -11  -9    3.70    5.50
  -2 -11  -9    8.00    4.00
   2  11   9    7.90    4.20
   2  11   9   12.20    4.50
   2  11   9   12.70    4.80
  -3 -11  -9   -8.10    7.60
  -3 -11  -9    3.30    5.60
   3  11   9   -2.40    4.00
   3  11   9   -7.40    5.00
   3  11   9   -2.80    4.40
   1 -12  -9    6.20    6.00
   1 -12  -9   -3.70    6.90
  -1  12   9    3.90    4.90
  -1  12   9    6.90    5.00
  -1  12   9    9.60    4.70
   0 -12  -9    4.10    6.60
   0 -12  -9   -7.10    5.60
   0  12   9    5.00    4.20
   0  12   9    6.80    4.80
   0  12   9    7.50    4.20
  -1 -12  -9   14.30    6.60
  -1 -12  -9   13.00    6.20
   1  12   9    9.50    4.40
   1  12   9    7.20    5.40
   1  12   9    4.00    4.10
  -2 -12  -9    2.30    6.80
  -2 -12  -9    7.60    6.20
   2  12   9    6.30    5.50
   2  12   9   -5.40    4.30
   2  12   9   -2.30    4.60
   1   9 -10   11.10    3.80
   1   9 -10    8.10    3.60
  -1  -9  10    1.90    5.00
  -1  -9  10   -4.00    6.30
   0   9 -10   12.80    3.30
   0   9 -10    4.50    3.30
   0  -9  10    1.50    6.20
   0  -9  10    5.20    5.20
  -1   9 -10    3.00    3.40
   1  -9  10    8.90    5.80
   1  -9  10  -10.80    6.40
   3   8 -10    2.00    4.00
   3   8 -10    3.60    3.90
  -3  -8  10   -2.60    4.60
   2   8 -10    3.00    3.50
   2   8 -10    1.90    3.20
  -2  -8  10    4.40    4.60
   1   8 -10    0.70    2.80
   1   8 -10    1.80    2.80
  -1  -8  10    3.40    4.60
  -1  -8  10    4.00    4.30
   0   8 -10    2.10    2.50
   0   8 -10    1.70    2.80
   0  -8  10   -0.50    4.10
   0  -8  10    7.40    5.30
  -1   8 -10    2.60    2.50
  -1   8 -10   -1.00    2.90
   1  -8  10   -5.30    5.50
   1  -8  10    8.90    4.80
  -2   8 -10   -1.00    3.00
   2  -8  10    0.40    6.60
   2  -8  10    1.90    5.20
  -3   8 -10   -0.40    3.40
  -3   8 -10    3.80    6.00
   3  -8  10  -10.40    7.60
   4   7 -10    1.10    4.00
   4   7 -10    5.20    4.20
  -4  -7  10    0.80    3.80
  -4  -7  10   -2.30    5.10
   3   7 -10    1.80    3.30
   3   7 -10   -2.20    3.30
  -3  -7  10    3.60    4.30
  -3  -7  10   -0.50    2.70
   2   7 -10   -2.90    2.70
   2   7 -10    2.60    5.20
  -2  -7  10   -2.10    3.20
  -2  -7  10   -1.00    3.80
  -2  -7  10    2.10    2.20
   1   7 -10   -2.40    2.30
   1   7 -10   -0.10    2.60
  -1  -7  10    0.10    3.80
  -1  -7  10    7.30    3.60
   0   7 -10   30.10    3.80
   0   7 -10   24.40    3.20
   0  -7  10   28.90    5.50
   0  -7  10   27.90    5.00
  -1   7 -10    7.30    2.30
  -1   7 -10    1.10    2.40
   1  -7  10    6.40    3.70
  -2   7 -10    1.70    2.50
  -2   7 -10    1.60    2.20
   2  -7  10    0.60    5.30
   2  -7  10    5.60    4.40
  -3   7 -10    0.20    3.00
  -3   7 -10    0.20    5.20
   3  -7  10    5.60    6.80
  -4   7 -10   18.80    7.20
  -4   7 -10   17.50    4.10
   4  -7  10    0.80    9.10
   4   6 -10    6.20    3.60
   4   6 -10   -2.50    3.60
  -4  -6  10   -1.50    3.50
  -4  -6  10   -3.80    4.30
   3   6 -10    0.40    3.00
   3   6 -10    3.70    3.10
  -3  -6  10   -1.30    3.70
  -3  -6  10    6.70    2.80
   2   6 -10    4.80    2.50
   2   6 -10    3.20    2.40
  -2  -6  10   -2.00    2.90
  -2  -6  10    7.40    3.00
  -2  -6  10   -1.20    2.00
   1   6 -10    1.40    2.00
   1   6 -10   -0.10    2.00
  -1  -6  10    1.10    1.50
  -1  -6  10   -2.70    3.20
  -1  -6  10    2.40    2.80
   0   6 -10    2.00    2.20
   0   6 -10    1.50    1.80
   0  -6  10    1.60    2.70
   0  -6  10    1.80    3.60
  -1   6 -10   54.59    3.70
   1  -6  10   55.79    7.00
   1  -6  10   58.89    5.80
  -2   6 -10    2.30    2.00
  -2   6 -10    4.00    2.80
   2  -6  10    0.70    3.80
   2  -6  10   -2.00    4.80
  -3   6 -10   20.20    5.60
  -3   6 -10   12.80    4.40
  -3   6 -10   14.80    2.90
   3  -6  10   16.40    6.30
  -4   6 -10   -0.60    3.60
  -4   6 -10    4.10    5.80
   4  -6  10    7.10    3.20
   4  -6  10   13.10    6.80
   5   5 -10    9.90    4.10
   5   5 -10   -5.60    3.70
  -5  -5  10    7.20    4.30
  -5  -5  10   -5.30    4.40
   4   5 -10    1.90    3.20
   4   5 -10    0.50    3.00
  -4  -5  10    8.70    4.10
  -4  -5  10   11.50    3.50
   3   5 -10   -2.20    2.50
   3   5 -10    4.60    2.60
  -3  -5  10    2.00    2.50
  -3  -5  10    1.30    3.30
   2   5 -10    9.00    2.50
  -2  -5  10    0.40    3.10
  -2  -5  10    4.80    2.70
  -2  -5  10    4.50    2.10
  -2  -5  10   12.80    3.20
  -2  -5  10    6.90    4.20
   1   5 -10   -3.00    1.60
   1   5 -10   -1.00    1.80
  -1  -5  10    1.20    1.80
  -1  -5  10    2.20    2.80
  -1  -5  10    3.20    2.80
  -1  -5  10    1.30    2.20
  -1  -5  10    0.80    1.60
   0   5 -10    4.50    2.00
   0   5 -10    3.20    1.70
   0  -5  10    7.20    2.50
   0  -5  10    1.80    3.00
   0  -5  10    5.70    1.50
  -1   5 -10    7.20    2.10
  -1   5 -10    3.50    1.80
   1  -5  10    8.70    3.20
   1  -5  10    5.70    3.50
  -2   5 -10    6.60    1.90
  -2   5 -10    4.30    1.90
  -2   5 -10    7.40    2.20
   2  -5  10    2.60    4.00
  -3   5 -10    5.40    2.40
  -3   5 -10    4.80    2.40
   3  -5  10    9.30    4.90
   3  -5  10    8.10    2.20
  -4   5 -10   -4.40    2.60
  -4   5 -10   -0.50    4.90
  -4   5 -10    1.60    3.30
   4  -5  10    8.50    6.10
   4  -5  10    1.10    2.60
  -5   5 -10    0.70    5.00
  -5   5 -10    4.70    3.70
  -5   5 -10  -11.20    6.20
   5  -5  10   11.20    8.50
   5   4 -10   -4.10    3.50
   5   4 -10    5.40    3.50
  -5  -4  10    0.80    4.50
  -5  -4  10   -2.40    3.70
   4   4 -10    5.40    2.10
   4   4 -10    0.90    2.90
   4   4 -10    5.60    2.80
  -4  -4  10    2.40    3.40
  -4  -4  10   10.20    3.30
   3   4 -10    2.00    2.20
   3   4 -10    5.50    2.40
   3   4 -10    5.30    1.10
  -3  -4  10    2.80    2.90
  -3  -4  10    2.60    1.70
  -3  -4  10    3.30    2.40
   2   4 -10    7.20    2.30
   2   4 -10    7.30    2.70
   2   4 -10   10.50    2.50
  -2  -4  10    8.40    2.60
  -2  -4  10    8.80    2.10
  -2  -4  10   11.40    2.60
  -2  -4  10    7.70    3.70
  -2  -4  10    7.10    2.60
   1   4 -10   37.60    4.90
   1   4 -10   35.20    3.10
   1   4 -10   37.70    3.30
  -1  -4  10   39.20    4.10
  -1  -4  10   44.20    4.40
  -1  -4  10   38.30    2.90
  -1  -4  10   44.50    4.40
  -1  -4  10   46.00    3.10
   0   4 -10    7.10    1.70
   0   4 -10    4.70    1.70
   0  -4  10    8.50    2.10
   0  -4  10    5.80    1.50
   0  -4  10    3.50    2.70
   0  -4  10    5.60    2.40
  -1   4 -10   77.89    2.90
  -1   4 -10   78.59    4.20
  -1   4 -10   75.89    3.80
   1  -4  10   77.99    5.30
   1  -4  10   73.39    6.00
   1  -4  10   73.69    2.90
  -2   4 -10  218.98    6.80
  -2   4 -10  211.98    7.30
  -2   4 -10  218.98    7.80
   2  -4  10  219.58   10.20
  -3   4 -10   22.70    3.40
  -3   4 -10   21.10    3.10
  -3   4 -10   22.20    2.90
   3  -4  10   20.20    2.80
  -4   4 -10    7.20    2.80
  -4   4 -10   -0.40    3.10
  -4   4 -10    0.90    4.50
   4  -4  10   11.40    5.40
   4  -4  10    4.60    2.50
  -5   4 -10   -0.30    3.10
  -5   4 -10   -9.80    4.10
  -5   4 -10    1.40    6.10
   5  -4  10    9.30    3.50
   5  -4  10    6.80    6.90
   5   3 -10   -6.10    2.90
   5   3 -10   -1.50    3.00
   5   3 -10    2.30    2.90
  -5  -3  10    7.20    2.80
  -5  -3  10   -1.90    3.90
  -5  -3  10    2.20    3.60
   4   3 -10   -0.80    1.80
   4   3 -10   -1.10    2.60
   4   3 -10   -1.00    2.20
  -4  -3  10   -1.00    1.90
  -4  -3  10    4.90    2.80
   3   3 -10    5.50    2.20
   3   3 -10    0.00    1.10
   3   3 -10   -0.40    1.90
  -3  -3  10    2.60    1.40
  -3  -3  10    1.60    2.70
  -3  -3  10    1.80    2.20
   2   3 -10    2.20    1.70
   2   3 -10    2.40    1.70
   2   3 -10   -2.00    1.90
  -2  -3  10    1.60    3.50
  -2  -3  10    4.50    2.40
  -2  -3  10   -1.40    1.80
  -2  -3  10   -3.60    1.90
  -2  -3  10    0.40    0.90
  -2  -3  10    1.30    1.60
   1   3 -10   11.80    2.30
   1   3 -10   11.00    2.60
   1   3 -10    8.40    1.90
  -1  -3  10   10.50    2.40
  -1  -3  10   12.00    1.80
  -1  -3  10    7.30    2.80
  -1  -3  10    9.70    1.10
  -1  -3  10    8.00    1.80
  -1  -3  10   11.20    2.60
   0   3 -10    6.70    1.80
   0   3 -10    8.20    1.70
   0   3 -10    9.50    2.70
   0   3 -10    7.40    1.10
   0  -3  10    7.20    2.20
   0  -3  10    8.80    2.30
   0  -3  10   12.20    2.70
   0  -3  10    8.30    1.70
  -1   3 -10    0.30    1.50
  -1   3 -10    2.90    1.30
  -1   3 -10    1.60    1.40
   1  -3  10    4.80    2.70
   1  -3  10    2.00    1.40
   1  -3  10    1.10    1.60
   1  -3  10    2.70    1.90
  -2   3 -10   10.80    2.30
  -2   3 -10    9.80    2.00
  -2   3 -10   12.80    2.10
   2  -3  10   10.20    1.70
   2  -3  10   12.10    1.60
   2  -3  10    9.40    3.70
   2  -3  10   10.10    1.80
  -3   3 -10   19.40    2.80
  -3   3 -10   18.90    2.80
  -3   3 -10   18.50    3.10
   3  -3  10   21.70    2.70
   3  -3  10   17.40    4.30
  -4   3 -10    0.20    3.90
  -4   3 -10   -0.50    2.10
  -4   3 -10    1.70    2.80
   4  -3  10    2.70    4.40
   4  -3  10    2.00    2.30
  -5   3 -10    5.70    5.30
  -5   3 -10   -1.10    4.00
  -5   3 -10    1.60    3.10
   5  -3  10   -1.30    3.30
   5  -3  10    5.30    6.00
  -6   3 -10   22.80    8.10
  -6   3 -10    5.90    5.90
   6  -3  10   23.50    8.70
   6   2 -10    8.10    4.20
   6   2 -10    6.30    4.30
   6   2 -10    0.90    5.80
  -6  -2  10    1.70    4.50
  -6  -2  10   13.30    5.30
   5   2 -10    9.10    2.90
   5   2 -10    2.80    3.10
   5   2 -10    0.50    2.50
  -5  -2  10   -4.60    3.50
  -5  -2  10   -5.90    2.90
  -5  -2  10    0.10    3.40
   4   2 -10    7.40    2.50
   4   2 -10    4.70    2.00
   4   2 -10   11.30    2.70
  -4  -2  10    8.90    3.20
  -4  -2  10    5.90    2.10
  -4  -2  10    9.70    3.10
   3   2 -10    9.10    2.10
   3   2 -10    8.00    2.20
  -3  -2  10    8.20    1.70
  -3  -2  10    7.80    2.60
  -3  -2  10    3.70    2.20
   2   2 -10   14.00    2.30
   2   2 -10   13.50    2.00
   2   2 -10   12.60    2.30
  -2  -2  10   13.40    1.80
  -2  -2  10   13.30    2.10
  -2  -2  10    9.20    2.30
  -2  -2  10   16.30    2.70
   1   2 -10   61.89    3.50
   1   2 -10   64.29    3.70
   1   2 -10   62.29    4.10
  -1  -2  10   68.99    4.60
  -1  -2  10   68.99    3.60
  -1  -2  10   64.59    3.30
  -1  -2  10   64.69    4.10
   0   2 -10    7.70    2.30
   0   2 -10    9.30    1.90
   0   2 -10   11.40    2.50
   0   2 -10   10.00    1.90
   0  -2  10   11.10    1.60
   0  -2  10   11.00    1.20
   0  -2  10   12.00    1.90
   0  -2  10    7.90    2.10
   0  -2  10    9.10    2.20
  -1   2 -10    1.80    1.40
  -1   2 -10   -1.70    1.20
  -1   2 -10    1.10    2.40
  -1   2 -10    1.80    1.30
  -1   2 -10    1.90    2.20
  -1   2 -10    2.40    2.70
   1  -2  10   -0.70    1.70
   1  -2  10    4.10    1.80
   1  -2  10    2.00    1.40
  -2   2 -10   65.79    3.70
  -2   2 -10   66.69    3.90
  -2   2 -10   60.79    3.60
   2  -2  10   54.39    3.70
   2  -2  10   62.69    3.30
   2  -2  10   65.29    3.50
   2  -2  10   66.29    5.40
  -3   2 -10    1.90    1.70
  -3   2 -10    6.40    2.50
  -3   2 -10    4.40    2.00
   3  -2  10    3.80    1.60
   3  -2  10    6.80    1.80
   3  -2  10    5.00    3.40
  -4   2 -10   -1.90    2.40
  -4   2 -10    3.10    7.40
  -4   2 -10    4.00    2.30
   4  -2  10    3.30    1.70
   4  -2  10   -2.50    1.60
   4  -2  10    0.80    2.00
  -5   2 -10    3.50    3.10
  -5   2 -10    4.60    4.00
  -5   2 -10    4.10    5.30
   5  -2  10    7.20    5.40
   5  -2  10    7.40    3.30
  -6   2 -10  -13.40    6.60
  -6   2 -10   -6.40    5.40
  -6   2 -10    2.60    4.20
   6  -2  10   -2.20    4.30
   6  -2  10    0.00    6.60
   6   1 -10    3.60    3.80
   6   1 -10    2.70    4.80
  -6  -1  10    2.90    5.90
  -6  -1  10    2.40    5.20
  -6  -1  10    2.90    4.00
  -6  -1  10    0.80    4.30
   5   1 -10    4.20    2.90
   5   1 -10    5.60    2.50
   5   1 -10   -4.00    2.60
  -5  -1  10    0.10    2.90
  -5  -1  10    5.60    3.50
   4   1 -10    2.60    2.60
   4   1 -10   -0.90    1.80
   4   1 -10    0.70    1.90
  -4  -1  10   -1.50    2.50
  -4  -1  10    0.60    2.10
   3   1 -10   15.70    2.40
   3   1 -10   12.70    1.70
   3   1 -10   11.90    2.30
  -3  -1  10   11.10    2.50
  -3  -1  10    8.90    2.60
  -3  -1  10   13.40    2.10
   2   1 -10    0.90    1.50
   2   1 -10   -0.90    1.30
   2   1 -10    0.90    1.20
  -2  -1  10   -1.50    2.00
  -2  -1  10    1.40    1.20
  -2  -1  10    0.70    1.50
  -2  -1  10    5.40    1.80
   1   1 -10   42.80    3.00
   1   1 -10   45.50    3.10
   1   1 -10   44.70    3.20
  -1  -1  10   48.20    3.90
  -1  -1  10   43.40    3.20
  -1  -1  10   38.50    3.00
  -1  -1  10   56.89    3.00
  -1  -1  10   45.80    2.50
   0   1 -10   35.40    3.70
   0   1 -10   27.50    3.30
   0   1 -10   32.90    2.60
   0   1 -10   35.40    2.80
   0   1 -10   35.30    3.40
   0   1 -10   36.30    2.50
   0  -1  10   36.60    3.10
   0  -1  10   31.70    2.30
   0  -1  10   25.40    2.80
   0  -1  10   31.50    2.70
   0  -1  10   29.40    1.80
  -1   1 -10  190.98    6.60
  -1   1 -10  185.38    6.80
  -1   1 -10  211.78    6.30
  -1   1 -10  198.38    6.90
  -1   1 -10  191.58    7.20
   1  -1  10  194.58    6.60
   1  -1  10  190.58    6.60
   1  -1  10  196.78    7.20
   1  -1  10  198.28    6.40
  -2   1 -10  282.97    9.00
  -2   1 -10  290.87   10.30
  -2   1 -10  286.97    8.60
  -2   1 -10  283.77    9.10
   2  -1  10  282.97    9.20
   2  -1  10  291.97    8.80
   2  -1  10  290.67    8.30
  -3   1 -10    1.20    1.90
  -3   1 -10    4.10    2.40
  -3   1 -10    1.40    1.70
   3  -1  10    1.70    1.70
   3  -1  10    1.80    1.90
   3  -1  10    2.60    1.50
  -4   1 -10    1.50    2.50
  -4   1 -10    6.40    2.40
  -4   1 -10    2.60    3.60
   4  -1  10    1.40    3.80
   4  -1  10    3.60    2.20
   4  -1  10    1.70    1.90
   4  -1  10    1.90    2.00
  -5   1 -10   -0.10    2.80
  -5   1 -10   -9.90    4.20
  -5   1 -10   -8.70    3.20
   5  -1  10   -3.20    2.70
   5  -1  10   -1.10    2.40
   5  -1  10    3.80    4.60
  -6   1 -10    0.00    6.30
  -6   1 -10    5.30    5.40
   6  -1  10    7.60    4.10
   6  -1  10   -5.20    5.90
   6   0 -10    5.70    3.90
   6   0 -10   13.30    4.50
  -6   0  10   13.90    5.10
  -6   0  10   10.40    4.50
  -6   0  10   13.80    6.30
  -6   0  10   -2.40    4.30
   5   0 -10    9.50    2.50
   5   0 -10   11.20    3.00
   5   0 -10   13.40    3.20
  -5   0  10    4.00    3.20
  -5   0  10    1.50    4.70
  -5   0  10    0.40    3.00
  -5   0  10   10.30    3.80
   4   0 -10    8.40    2.10
   4   0 -10   13.00    2.80
   4   0 -10   12.80    2.40
  -4   0  10   13.50    2.90
  -4   0  10   12.30    3.10
  -4   0  10   15.50    2.80
  -4   0  10   10.30    4.20
   3   0 -10    8.60    1.60
   3   0 -10    8.10    2.00
   3   0 -10    5.60    1.80
  -3   0  10    7.20    2.30
  -3   0  10    6.70    2.00
  -3   0  10    8.90    2.20
   2   0 -10    3.70    1.70
   2   0 -10    5.20    1.10
   2   0 -10    1.70    1.40
  -2   0  10    7.50    2.20
  -2   0  10    4.50    1.80
  -2   0  10    2.10    1.60
  -2   0  10    4.10    1.50
  -2   0  10    7.80    4.30
   1   0 -10    4.70    1.50
   1   0 -10    6.20    1.60
   1   0 -10    4.90    2.40
   1   0 -10    3.50    1.40
   1   0 -10    5.60    1.70
  -1   0  10    3.20    1.50
  -1   0  10    3.00    1.40
  -1   0  10    5.10    1.40
  -1   0  10    6.90    2.10
  -1   0  10    5.80    1.70
  -1   0  10    5.80    2.20
   0   0 -10   57.89    3.80
   0   0 -10   62.39    3.60
   0   0 -10   60.29    3.20
   0   0 -10   57.29    3.40
   0   0 -10   52.79    3.20
   0   0  10   61.99    3.50
   0   0  10   57.49    3.00
   0   0  10   54.39    3.60
   0   0  10   61.19    3.50
   0   0  10   53.19    3.00
   0   0  10   64.09    3.40
  -1   0 -10   12.30    2.20
  -1   0 -10    7.40    1.70
  -1   0 -10   12.70    1.90
  -1   0 -10   11.10    2.30
  -1   0 -10    9.30    1.90
   1   0  10   13.40    2.60
   1   0  10   14.80    2.10
   1   0  10   11.30    1.20
   1   0  10   10.90    1.90
   1   0  10   12.50    2.10
   1   0  10   12.20    2.10
   1   0  10   11.10    1.20
  -2   0 -10   34.80    3.20
  -2   0 -10   40.00    3.10
  -2   0 -10   39.20    3.20
  -2   0 -10   36.50    3.60
   2   0  10   34.00    2.90
   2   0  10   36.50    2.40
   2   0  10   39.50    3.50
   2   0  10   35.80    3.20
   2   0  10   36.00    1.50
  -3   0 -10    2.70    1.80
  -3   0 -10    9.30    3.30
  -3   0 -10    0.90    1.90
   3   0  10    6.20    2.10
   3   0  10    5.10    2.00
   3   0  10    8.20    1.90
   3   0  10    6.90    1.00
  -4   0 -10    1.30    2.30
  -4   0 -10   -6.80    3.30
  -4   0 -10    1.10    2.20
  -4   0 -10    0.50    1.60
   4   0  10    2.50    2.30
   4   0  10   -0.60    2.30
   4   0  10   -0.80    2.10
  -5   0 -10    2.10    3.00
  -5   0 -10    6.90    4.80
  -5   0 -10    0.80    3.40
   5   0  10    4.70    4.60
   5   0  10    5.70    3.00
   5   0  10    0.40    2.90
  -6   0 -10   -4.00    4.80
  -6   0 -10    3.50    6.50
   6   0  10   -2.80    5.40
   6   0  10   -1.80    3.50
   6   0  10    5.50    4.00
   6  -1 -10    2.10    3.70
   6  -1 -10    4.20    4.20
  -6   1  10    7.20    4.30
  -6   1  10    0.30    5.10
  -6   1  10   10.10    5.80
  -6   1  10   -3.40    4.20
   5  -1 -10    0.70    2.80
   5  -1 -10    4.80    2.40
   5  -1 -10    1.60    2.70
  -5   1  10    8.10    3.50
  -5   1  10   -1.70    4.30
  -5   1  10    1.10    2.90
  -5   1  10    4.00    3.40
   4  -1 -10   33.10    3.20
   4  -1 -10   37.40    3.70
   4  -1 -10   38.30    3.60
  -4   1  10   33.60    4.20
  -4   1  10   32.00    4.10
  -4   1  10   37.90    4.60
  -4   1  10   29.60    4.00
   3  -1 -10   19.70    2.30
   3  -1 -10   16.80    2.50
   3  -1 -10   18.40    2.40
  -3   1  10   23.40    2.90
  -3   1  10   21.30    2.80
  -3   1  10   15.60    3.20
  -3   1  10   13.40    2.70
   2  -1 -10    2.60    1.50
   2  -1 -10    3.10    1.60
   2  -1 -10    2.20    0.90
  -2   1  10   -0.80    1.40
  -2   1  10    0.10    1.30
  -2   1  10    0.50    1.30
  -2   1  10    0.60    2.00
  -2   1  10   -1.10    2.00
   1  -1 -10    1.00    1.70
   1  -1 -10   -1.60    1.20
   1  -1 -10   -1.50    1.20
   1  -1 -10    2.20    2.20
  -1   1  10    0.20    1.10
  -1   1  10   -2.70    1.80
  -1   1  10    2.30    1.80
  -1   1  10   -0.80    1.20
  -1   1  10    0.40    0.80
  -1   1  10    0.60    1.20
   0  -1 -10   57.29    3.30
   0  -1 -10   42.10    3.60
   0  -1 -10   56.09    3.40
   0  -1 -10   50.89    3.20
   0  -1 -10   57.19    3.10
   0   1  10   55.49    3.40
   0   1  10   53.59    3.30
   0   1  10   52.19    3.40
   0   1  10   53.49    3.00
   0   1  10   52.49    2.00
   0   1  10   51.29    2.90
  -1  -1 -10  113.19    4.60
  -1  -1 -10  104.29    4.90
  -1  -1 -10  111.29    4.60
  -1  -1 -10  105.69    4.80
  -1  -1 -10  104.69    4.70
   1   1  10  106.09    4.70
   1   1  10  100.19    4.50
   1   1  10  111.19    4.50
  -2  -1 -10  141.39    5.90
  -2  -1 -10  145.29    5.80
  -2  -1 -10  135.39    5.80
  -2  -1 -10  140.19    5.50
   2   1  10  144.59    5.40
   2   1  10  145.59    5.90
   2   1  10  142.89    6.00
  -3  -1 -10   60.09    4.70
  -3  -1 -10   60.89    4.20
  -3  -1 -10   58.09    4.40
  -3  -1 -10   56.19    5.20
   3   1  10   67.19    5.00
   3   1  10   61.29    4.00
   3   1  10   59.09    2.90
   3   1  10   63.79    4.30
  -4  -1 -10    8.80    2.60
  -4  -1 -10   11.70    2.20
  -4  -1 -10   15.60    3.90
  -4  -1 -10   12.40    3.10
   4   1  10    9.50    2.80
   4   1  10   17.10    2.80
   4   1  10   19.90    2.50
   4   1  10   11.40    3.00
  -5  -1 -10    2.70    2.90
  -5  -1 -10    5.30    5.00
  -5  -1 -10    5.00    5.50
   5   1  10   14.90    3.60
   5   1  10   10.00    2.30
   5   1  10    1.70    2.90
   5   1  10    3.00    4.50
  -6  -1 -10   12.10    6.70
  -6  -1 -10   15.20    5.30
   6   1  10   25.60    4.70
   6   1  10   18.00    5.80
   6   1  10   14.20    4.60
   6  -2 -10   -2.10    4.20
   6  -2 -10   -0.80    3.40
  -6   2  10    6.10    4.40
  -6   2  10   -8.30    4.30
  -6   2  10    4.10    5.70
  -6   2  10    1.80    4.70
   5  -2 -10    3.60    2.30
   5  -2 -10    1.90    2.80
   5  -2 -10    2.80    3.00
  -5   2  10    4.10    4.10
  -5   2  10    0.40    3.30
  -5   2  10    3.90    3.60
  -5   2  10    3.40    3.10
   4  -2 -10   -0.30    2.10
   4  -2 -10    0.90    1.90
   4  -2 -10   -2.10    2.00
  -4   2  10    4.80    2.50
  -4   2  10    1.60    4.10
  -4   2  10    0.10    3.10
  -4   2  10    1.20    2.60
  -4   2  10   -0.20    2.20
   3  -2 -10   -1.00    1.50
   3  -2 -10   -0.80    1.50
   3  -2 -10    1.40    1.70
  -3   2  10    1.10    2.40
  -3   2  10    0.60    1.80
  -3   2  10    0.20    2.10
  -3   2  10    4.80    2.00
  -3   2  10    1.80    1.50
   2  -2 -10    1.40    1.40
   2  -2 -10   -0.50    1.30
   2  -2 -10    1.20    2.70
  -2   2  10    2.10    1.90
  -2   2  10    0.50    1.40
  -2   2  10   -0.10    1.40
  -2   2  10   -2.20    1.10
  -2   2  10   -1.70    1.40
   1  -2 -10   11.80    2.00
   1  -2 -10   13.00    2.80
   1  -2 -10   14.70    2.50
   1  -2 -10    9.80    2.30
   1  -2 -10    9.60    1.90
  -1   2  10   11.90    1.60
  -1   2  10    9.50    1.80
  -1   2  10   13.40    2.00
  -1   2  10   12.10    1.90
  -1   2  10   13.10    1.70
   0  -2 -10  124.09    5.20
   0  -2 -10  116.29    4.20
   0  -2 -10  126.49    5.10
   0  -2 -10  126.29    5.10
   0  -2 -10  117.79    5.20
   0  -2 -10  124.49    5.70
   0   2  10  120.69    5.00
   0   2  10  117.49    5.30
   0   2  10  121.49    5.10
   0   2  10  120.09    4.80
   0   2  10  131.99    4.40
   0   2  10  120.59    4.50
   0   2  10  124.69    4.90
  -1  -2 -10  212.48    7.10
  -1  -2 -10  203.38    7.20
  -1  -2 -10  211.08    6.50
  -1  -2 -10  213.08    7.60
  -1  -2 -10  209.78    7.30
   1   2  10  207.98    6.80
   1   2  10  226.68    7.20
   1   2  10  192.88    6.90
   1   2  10  215.58    6.40
   1   2  10  210.78    7.30
  -2  -2 -10   16.00    2.40
  -2  -2 -10   13.20    2.40
  -2  -2 -10   12.50    2.30
  -2  -2 -10   10.30    2.30
   2   2  10   11.50    2.50
   2   2  10    9.60    1.60
   2   2  10   11.80    2.30
   2   2  10   15.30    2.30
  -3  -2 -10   17.70    2.90
  -3  -2 -10   26.10    4.00
  -3  -2 -10   21.80    3.20
  -3  -2 -10   21.00    3.00
   3   2  10   18.70    3.20
   3   2  10   23.90    2.40
   3   2  10   26.20    3.40
  -4  -2 -10    7.30    3.00
  -4  -2 -10    9.40    2.80
  -4  -2 -10   10.30    2.50
  -4  -2 -10   17.10    3.80
   4   2  10    6.30    1.80
   4   2  10    1.50    2.60
  -5  -2 -10    2.40    3.60
   5   2  10    8.90    2.40
   5   2  10    4.90    3.40
   5   2  10    7.10    3.10
  -6  -2 -10    0.30    5.70
  -6  -2 -10   -4.70    4.40
   6   2  10    0.80    4.90
   6   2  10    7.20    3.30
   6   2  10   -0.60    3.80
   6   2  10    2.80    4.20
   6  -3 -10   -1.00    6.30
   6  -3 -10   -1.40    4.40
   6  -3 -10    4.90    3.60
  -6   3  10   -0.10    4.10
  -6   3  10    0.80    5.80
  -6   3  10   -8.10    4.80
  -6   3  10   -5.90    8.20
   5  -3 -10    5.20    2.70
   5  -3 -10   11.00    3.10
   5  -3 -10    3.70    3.30
  -5   3  10   -6.00    4.10
  -5   3  10    7.80    3.20
  -5   3  10    4.30    3.80
  -5   3  10    2.80    3.10
   4  -3 -10    2.30    2.10
   4  -3 -10    2.50    2.40
   4  -3 -10    3.70    2.30
  -4   3  10    0.20    2.70
  -4   3  10    5.20    3.10
  -4   3  10    3.50    2.20
  -4   3  10    8.30    3.30
  -4   3  10    5.60    2.40
   3  -3 -10    1.50    1.80
   3  -3 -10    0.00    1.60
   3  -3 -10    0.10    1.70
  -3   3  10    2.10    2.40
  -3   3  10    5.80    2.10
  -3   3  10    1.90    1.40
  -3   3  10    3.50    2.20
  -3   3  10    3.60    2.20
   2  -3 -10    4.30    1.60
   2  -3 -10    6.60    2.90
   2  -3 -10    3.60    1.60
  -2   3  10    7.20    1.70
  -2   3  10    5.00    1.80
  -2   3  10    4.40    2.00
  -2   3  10    5.40    1.70
   1  -3 -10   25.10    3.40
   1  -3 -10   30.10    2.90
   1  -3 -10   32.20    2.90
   1  -3 -10   31.80    3.80
   1  -3 -10   25.20    3.30
  -1   3  10   31.40    1.80
  -1   3  10   30.20    2.90
  -1   3  10   36.20    2.90
  -1   3  10   33.80    2.90
  -1   3  10   30.00    2.60
   0  -3 -10  197.48    7.00
   0  -3 -10  191.58    7.10
   0  -3 -10  204.88    7.10
   0  -3 -10  194.18    6.90
   0  -3 -10  199.78    7.20
   0   3  10  190.88    6.60
   0   3  10  194.78    6.80
   0   3  10  202.18    6.10
   0   3  10  193.68    6.70
   0   3  10  197.08    6.50
   0   3  10  196.68    7.00
  -1  -3 -10  187.98    6.70
  -1  -3 -10  182.28    7.10
  -1  -3 -10  181.18    6.80
  -1  -3 -10  190.28    7.30
  -1  -3 -10  173.58    5.80
   1   3  10  172.88    6.30
   1   3  10  175.78    6.50
   1   3  10  190.58    6.90
   1   3  10  191.08    6.10
  -2  -3 -10   14.20    2.60
  -2  -3 -10    9.30    2.30
  -2  -3 -10   15.90    2.20
   2   3  10   11.00    1.80
   2   3  10   10.30    2.40
   2   3  10   11.30    2.30
  -3  -3 -10    5.60    2.50
  -3  -3 -10    7.80    2.30
  -3  -3 -10    1.80    2.40
  -3  -3 -10    5.30    2.10
   3   3  10   11.10    1.90
   3   3  10    8.80    2.80
   3   3  10    5.30    2.50
  -4  -3 -10   20.10    3.20
  -4  -3 -10   14.10    3.40
  -4  -3 -10   18.50    3.70
  -4  -3 -10   14.30    3.60
   4   3  10   23.20    4.00
   4   3  10   23.00    4.30
   4   3  10   19.20    2.60
  -5  -3 -10    3.60    3.60
  -5  -3 -10    7.20    4.30
   5   3  10   -1.70    3.50
   5   3  10   -1.10    2.30
  -6  -3 -10   11.20    6.00
  -6  -3 -10   -3.40    4.40
   6   3  10    1.70    3.20
   6   3  10   -4.30    4.50
   6   3  10    0.40    3.80
   6  -4 -10    8.10    5.00
   6  -4 -10   11.80    6.80
   6  -4 -10    6.30    3.80
  -6   4  10    5.50    6.00
  -6   4  10    5.90    5.20
  -6   4  10    6.20    4.50
   5  -4 -10   -2.70    3.40
   5  -4 -10    3.20    3.00
  -5   4  10    1.50    3.60
  -5   4  10    0.90    3.00
  -5   4  10    2.60    3.30
  -5   4  10    8.00    4.40
   4  -4 -10   -0.50    2.30
   4  -4 -10    0.50    2.20
   4  -4 -10   -3.70    2.40
  -4   4  10   -1.00    3.10
  -4   4  10   -0.90    2.50
  -4   4  10   -2.80    3.10
  -4   4  10    0.20    2.00
   3  -4 -10   20.90    3.00
   3  -4 -10   16.80    2.70
   3  -4 -10   16.50    2.50
   3  -4 -10   14.50    1.40
  -3   4  10   12.90    3.00
  -3   4  10   15.40    2.30
  -3   4  10   14.30    2.70
  -3   4  10   17.10    2.70
   2  -4 -10   10.50    3.00
   2  -4 -10   14.30    2.30
   2  -4 -10   12.30    3.40
   2  -4 -10    8.70    2.30
   2  -4 -10   11.00    1.70
  -2   4  10   12.80    2.10
  -2   4  10   14.40    2.30
  -2   4  10   10.60    2.60
  -2   4  10   11.70    2.40
  -2   4  10   11.10    1.20
   1  -4 -10   -0.70    1.40
   1  -4 -10   -2.70    2.00
   1  -4 -10    1.10    1.70
   1  -4 -10    0.00    2.20
  -1   4  10    1.10    1.50
  -1   4  10   -2.30    1.50
  -1   4  10    0.30    1.50
  -1   4  10    0.40    1.70
   0  -4 -10   56.39    4.00
   0  -4 -10   51.39    3.90
   0  -4 -10   63.69    3.80
   0  -4 -10   51.79    3.50
   0   4  10   52.49    3.60
   0   4  10   51.69    3.60
   0   4  10   51.59    3.40
   0   4  10   58.89    3.60
   0   4  10   59.29    3.40
  -1  -4 -10  144.59    6.10
  -1  -4 -10  136.59    6.40
  -1  -4 -10  140.79    4.30
   1   4  10  147.09    5.80
   1   4  10  134.89    5.90
   1   4  10  138.19    5.50
  -2  -4 -10   24.10    3.20
  -2  -4 -10   23.40    3.10
  -2  -4 -10   18.90    2.50
  -2  -4 -10   17.10    2.80
   2   4  10   19.50    2.30
   2   4  10   21.50    3.00
   2   4  10   23.50    3.30
  -3  -4 -10    7.70    2.60
  -3  -4 -10    7.10    2.60
  -3  -4 -10    8.20    2.60
  -3  -4 -10    2.80    2.30
   3   4  10    7.90    2.40
   3   4  10    1.20    2.40
   3   4  10    5.50    1.90
  -4  -4 -10    9.90    3.50
  -4  -4 -10   11.50    3.30
   4   4  10    4.90    3.20
   4   4  10   11.60    3.40
   4   4  10   12.20    2.50
  -5  -4 -10    2.90    4.00
  -5  -4 -10   -0.80    3.50
   5   4  10   -1.60    3.70
   5   4  10    2.90    2.50
  -6  -4 -10    9.50    6.20
  -6  -4 -10    1.80    4.60
   6   4  10    3.50    4.70
   5  -5 -10    4.90    5.60
   5  -5 -10    5.00    3.00
   5  -5 -10    3.90    3.80
  -5   5  10    2.50    3.60
  -5   5  10    1.20    3.90
  -5   5  10    8.10    3.20
  -5   5  10    1.20    4.50
   4  -5 -10    2.50    3.00
   4  -5 -10    9.20    2.50
  -4   5  10    5.40    3.40
  -4   5  10    0.70    3.40
  -4   5  10    5.00    2.10
   3  -5 -10   -2.00    4.00
   3  -5 -10   -1.40    1.80
   3  -5 -10    0.50    4.60
   3  -5 -10    4.00    2.30
  -3   5  10    0.40    1.00
  -3   5  10    0.10    2.00
  -3   5  10    3.20    2.60
  -3   5  10    1.50    2.20
   2  -5 -10   52.19    5.10
   2  -5 -10   53.09    4.10
   2  -5 -10   58.19    3.90
   2  -5 -10   50.59    3.50
   2  -5 -10   55.39    4.90
  -2   5  10   60.09    4.30
  -2   5  10   49.00    3.70
  -2   5  10   50.29    4.40
  -2   5  10   56.19    3.90
   1  -5 -10    0.30    1.50
   1  -5 -10    0.20    2.10
   1  -5 -10    1.10    1.80
   1  -5 -10   -0.70    2.20
  -1   5  10   -1.30    1.60
  -1   5  10    0.00    1.80
  -1   5  10   -2.00    1.50
  -1   5  10   -3.00    2.00
   0  -5 -10   -2.80    1.50
   0  -5 -10    3.60    2.20
   0  -5 -10   -1.70    1.60
   0  -5 -10    1.60    2.00
   0   5  10   -1.10    1.60
   0   5  10   -1.40    1.80
   0   5  10    4.00    1.70
   0   5  10    0.10    1.60
  -1  -5 -10   27.10    1.40
  -1  -5 -10   32.90    3.60
  -1  -5 -10   30.30    3.80
   1   5  10   28.50    3.30
   1   5  10   27.80    3.00
   1   5  10   28.20    3.10
  -2  -5 -10   37.20    3.80
  -2  -5 -10   35.20    3.50
  -2  -5 -10   38.20    2.80
  -2  -5 -10   35.60    3.80
   2   5  10   33.70    3.60
   2   5  10   36.80    3.20
   2   5  10   32.90    3.80
  -3  -5 -10   21.80    3.60
  -3  -5 -10   21.10    3.20
  -3  -5 -10   18.50    3.10
   3   5  10   17.70    3.40
   3   5  10   20.80    2.90
   3   5  10   20.70    3.40
  -4  -5 -10    4.60    3.70
  -4  -5 -10   -5.60    2.70
   4   5  10   -2.20    2.90
   4   5  10    4.20    2.40
   4   5  10    1.40    3.20
  -5  -5 -10   11.10    5.10
  -5  -5 -10   12.60    4.10
   5   5  10   14.20    4.60
   5   5  10   11.10    3.20
  -6  -5 -10    5.40    4.80
  -6  -5 -10   14.60    6.40
   6   5  10    1.00    3.70
   6   5  10    9.00    5.40
   5  -6 -10    3.60    6.10
   5  -6 -10    4.50    4.20
   5  -6 -10   -1.60    3.00
  -5   6  10    1.30    3.70
  -5   6  10    0.60    4.70
  -5   6  10    6.20    4.60
   4  -6 -10   -1.20    4.70
   4  -6 -10    5.90    3.40
   4  -6 -10    0.10    2.40
  -4   6  10   -0.60    3.40
  -4   6  10   -0.10    2.80
   3  -6 -10    7.30    4.10
   3  -6 -10    0.00    2.10
   3  -6 -10    1.40    1.80
   3  -6 -10   -0.20    4.20
  -3   6  10    3.60    2.30
  -3   6  10    3.50    2.30
   2  -6 -10   18.60    3.40
   2  -6 -10   13.50    2.30
   2  -6 -10   13.30    3.50
   2  -6 -10   11.90    2.40
  -2   6  10   12.50    2.50
  -2   6  10   19.20    3.20
  -2   6  10   11.80    2.50
   1  -6 -10   18.00    3.20
   1  -6 -10   32.90    4.20
   1  -6 -10   23.30    3.00
   1  -6 -10   26.70    3.20
  -1   6  10   27.90    3.30
  -1   6  10   27.00    3.40
  -1   6  10   25.50    3.10
   0  -6 -10   11.10    2.00
   0  -6 -10    4.60    2.60
   0  -6 -10   12.60    2.60
   0  -6 -10    8.40    2.60
   0   6  10    6.60    2.70
   0   6  10   13.40    2.50
   0   6  10    7.60    2.30
   0   6  10    8.70    2.20
  -1  -6 -10   -0.20    1.90
  -1  -6 -10   -0.70    1.50
  -1  -6 -10    0.30    1.60
   1   6  10    1.10    2.00
   1   6  10    1.10    1.60
   1   6  10    0.40    1.70
  -2  -6 -10   20.10    3.40
  -2  -6 -10   21.10    3.10
   2   6  10   18.70    3.10
   2   6  10   15.80    2.60
   2   6  10   20.20    3.00
  -3  -6 -10   -0.70    2.70
  -3  -6 -10   -0.50    2.20
   3   6  10   -2.10    2.50
   3   6  10    2.30    2.10
   3   6  10    2.40    2.80
  -4  -6 -10    8.80    3.50
  -4  -6 -10    7.20    3.30
   4   6  10    8.40    3.70
   4   6  10    8.90    3.50
   4   6  10   11.80    2.90
  -5  -6 -10    7.00    4.50
  -5  -6 -10    0.20    4.50
  -5  -6 -10    3.90    3.30
   5   6  10    2.80    3.70
   5   6  10    4.90    4.40
  -6  -6 -10    3.60    5.40
  -6  -6 -10   12.60    6.60
   6   6  10    3.80    5.40
   6   6  10    2.80    4.00
   5  -7 -10    7.80    4.90
   5  -7 -10    6.70    7.00
  -5   7  10   12.80    5.60
  -5   7  10    2.50    4.40
  -5   7  10    9.50    4.30
   4  -7 -10    4.30    2.60
   4  -7 -10   -1.10    5.10
  -4   7  10   -0.70    3.80
  -4   7  10   -0.90    3.10
   3  -7 -10    1.70    2.30
   3  -7 -10    3.10    4.80
   3  -7 -10    0.40    2.20
  -3   7  10    0.10    2.40
  -3   7  10    4.60    3.20
   2  -7 -10   -0.30    2.90
   2  -7 -10    3.00    2.20
   2  -7 -10   -3.60    3.10
   2  -7 -10    2.70    2.30
  -2   7  10   -1.90    2.40
  -2   7  10   -0.70    2.00
   1  -7 -10   14.60    3.00
   1  -7 -10   18.90    2.80
   1  -7 -10   14.40    2.90
   1  -7 -10   20.50    3.50
  -1   7  10   12.50    2.90
  -1   7  10   15.60    3.00
  -1   7  10   12.90    2.80
   0  -7 -10    5.20    2.70
   0  -7 -10    9.30    1.60
   0  -7 -10    3.60    2.20
   0   7  10    8.20    2.50
   0   7  10   12.00    2.60
   0   7  10    4.50    2.10
  -1  -7 -10    0.10    1.40
  -1  -7 -10    3.60    2.40
  -1  -7 -10    0.60    1.30
   1   7  10   -1.20    1.90
   1   7  10    0.90    2.20
   1   7  10    1.40    2.00
  -2  -7 -10   -2.40    2.70
  -2  -7 -10    0.50    2.00
  -2  -7 -10    2.10    1.40
   2   7  10    3.90    2.60
   2   7  10    2.50    2.20
   2   7  10    3.10    2.30
  -3  -7 -10    7.60    3.20
  -3  -7 -10    3.40    2.50
   3   7  10    4.60    2.60
   3   7  10    4.30    4.80
   3   7  10    2.60    3.30
  -4  -7 -10   -2.50    3.30
  -4  -7 -10    2.20    3.50
  -4  -7 -10   -0.90    3.10
   4   7  10   -5.40    3.60
   4   7  10   -4.80    3.00
   4   7  10   -0.60    4.00
  -5  -7 -10    3.00    4.30
  -5  -7 -10   -3.70    4.50
   5   7  10    7.20    3.70
   5   7  10    4.50    4.70
   5   7  10    4.30    4.90
  -6  -7 -10    7.90    6.10
  -6  -7 -10   -4.10    5.30
   6   7  10   -3.90    6.00
   6   7  10   -1.50    4.50
   4  -8 -10   -0.40    6.30
  -4   8  10    6.20    3.70
  -4   8  10   12.10    4.70
   3  -8 -10    2.70    2.90
   3  -8 -10   -0.40    5.20
   3  -8 -10    4.90    2.80
  -3   8  10    1.60    3.30
  -3   8  10    6.20    3.00
   2  -8 -10   -3.10    4.10
   2  -8 -10    5.20    2.60
   2  -8 -10   -0.70    2.90
  -2   8  10    0.10    2.50
  -2   8  10    1.90    2.80
  -2   8  10   -2.90    2.20
   1  -8 -10    1.30    2.40
   1  -8 -10    1.40    3.00
   1  -8 -10    2.60    2.80
  -1   8  10    1.10    2.40
  -1   8  10    1.60    2.60
   0  -8 -10   -0.60    2.90
   0  -8 -10    1.60    2.50
   0   8  10    1.00    2.30
   0   8  10   -0.10    2.20
   0   8  10    1.20    2.40
  -1  -8 -10    6.80    3.00
   1   8  10    6.50    2.80
   1   8  10    8.10    2.70
   1   8  10    8.60    2.70
  -2  -8 -10    0.80    1.20
  -2  -8 -10    7.00    3.30
  -2  -8 -10    3.70    3.50
  -2  -8 -10    1.80    1.20
  -2  -8 -10    3.00    1.60
  -2  -8 -10    2.40    1.20
   2   8  10    5.80    4.60
   2   8  10    3.10    3.00
   2   8  10   -1.10    2.50
  -3  -8 -10   -0.70    3.50
  -3  -8 -10    0.40    4.00
  -3  -8 -10   -0.70    2.10
   3   8  10   -1.70    3.00
   3   8  10    5.30    3.60
  -4  -8 -10    0.10    3.70
  -4  -8 -10   -2.50    4.00
  -4  -8 -10    2.20    3.10
   4   8  10    1.20    3.40
   4   8  10    3.10    3.90
   4   8  10    0.90    4.20
  -5  -8 -10   -1.90    5.30
  -5  -8 -10    6.30    4.40
   5   8  10    7.70    5.40
   5   8  10    5.60    4.20
   5   8  10    7.60    5.30
   4  -9 -10    3.60    7.00
  -4   9  10   -0.40    4.10
  -4   9  10   -3.90    4.80
   3  -9 -10   12.20    6.50
   3  -9 -10    4.80    3.60
  -3   9  10    2.80    4.20
  -3   9  10    1.80    3.40
   2  -9 -10    1.00    5.10
   2  -9 -10    0.40    3.40
  -2   9  10    0.30    2.90
  -2   9  10    1.70    3.30
  -2   9  10    7.90    3.50
   1  -9 -10  -11.40    4.20
   1  -9 -10    1.50    3.40
   1  -9 -10    4.00    2.70
  -1   9  10    0.00    2.60
  -1   9  10    0.10    2.90
  -1   9  10   -2.70    2.80
   0  -9 -10    6.30    4.30
   0  -9 -10    7.10    3.40
   0  -9 -10   12.90    3.20
   0   9  10    5.30    2.60
   0   9  10    5.90    3.10
   0   9  10    6.10    2.90
  -1  -9 -10    7.40    4.10
  -1  -9 -10    3.00    3.10
   1   9  10    3.10    3.20
   1   9  10   -1.30    2.40
   1   9  10    0.40    2.60
  -2  -9 -10   -0.70    3.40
  -2  -9 -10    4.70    4.00
   2   9  10    1.10    3.00
   2   9  10   -1.50    3.50
   2   9  10    1.00    2.90
  -3  -9 -10   -1.60    2.10
  -3  -9 -10    3.80    4.30
  -3  -9 -10   -1.70    3.90
   3   9  10    1.90    3.30
   3   9  10   -5.20    3.40
   3   9  10    1.30    3.90
  -4  -9 -10   -1.30    4.50
  -4  -9 -10   -0.10    4.50
   4   9  10    4.20    4.80
   4   9  10    2.50    4.00
   4   9  10   12.10    5.10
  -5  -9 -10    7.00    5.80
   5   9  10   -8.00    6.10
   5   9  10    2.00    5.90
   3 -10 -10    6.60    5.20
   3 -10 -10   -2.70    7.00
  -3  10  10    6.70    4.70
  -3  10  10   -5.00    4.10
  -3  10  10   -0.50    3.90
   2 -10 -10    5.30    6.00
  -2  10  10    3.50    4.10
  -2  10  10   -1.90    3.90
  -2  10  10    1.60    5.90
   1 -10 -10    1.80    5.10
   1 -10 -10   -0.30    4.80
  -1  10  10    6.00    3.50
  -1  10  10    1.80    3.30
  -1  10  10    5.00    3.80
   0 -10 -10   -1.40    4.90
   0 -10 -10    8.30    4.30
   0 -10 -10    0.90    3.00
   0  10  10    2.60    3.10
   0  10  10   -0.70    2.90
   0  10  10    2.30    3.60
  -1 -10 -10   26.60    5.00
  -1 -10 -10   22.90    5.40
  -1 -10 -10   19.90    4.10
   1  10  10   19.50    4.30
   1  10  10   10.90    3.60
  -2 -10 -10   -0.70    4.50
  -2 -10 -10   -0.70    4.00
   2  10  10    4.90    3.40
   2  10  10   -0.30    3.60
   2  10  10   -0.30    3.80
  -3 -10 -10   -0.30    4.50
   3  10  10    7.70    4.20
   3  10  10    6.90    4.90
   3  10  10   -5.70    3.70
  -4 -10 -10    5.10    5.80
  -4 -10 -10    7.90    5.40
   4  10  10    2.00    4.60
   4  10  10    8.40    5.50
   4  10  10   -1.50    5.50
   2 -11 -10   -0.70    5.00
   2 -11 -10   -2.90    7.20
  -2  11  10   -4.20    4.20
  -2  11  10   -4.80    4.30
  -2  11  10    0.70    4.20
   1 -11 -10    6.10    5.40
   1 -11 -10    2.60    5.90
  -1  11  10    1.40    3.80
  -1  11  10   -6.10    3.60
  -1  11  10    0.20    4.30
   0 -11 -10    8.70    5.70
   0 -11 -10   17.90    5.70
   0  11  10   11.00    4.00
   0  11  10    4.20    4.10
   0  11  10   12.10    4.10
  -1 -11 -10    9.90    5.70
  -1 -11 -10    0.00    4.80
   1  11  10    5.40    4.30
   1  11  10    7.10    4.00
   1  11  10    3.30    4.20
  -2 -11 -10   13.70    5.60
  -2 -11 -10    9.50    4.90
  -2 -11 -10   14.80    6.50
   2  11  10    6.40    4.30
   2  11  10   15.00    4.70
   2  11  10    6.90    5.00
  -3 -11 -10   -5.50    6.10
  -3 -11 -10   -2.20    5.30
   3  11  10   -1.60    5.40
   3  11  10   -2.50    4.90
   3  11  10    2.10    4.50
   0 -12 -10   -1.00    6.70
   0 -12 -10   -2.90    6.10
   0  12  10   -4.30    4.50
   0  12  10   -0.80    4.90
   0  12  10   18.30    5.50
  -1 -12 -10    0.30    5.90
  -1 -12 -10   11.80    6.60
   1  12  10   -6.90    4.40
   1  12  10    8.50    5.70
   1  12  10   -1.80    4.60
   2   8 -11    2.40    3.70
   2   8 -11    6.90    3.80
  -2  -8  11    1.30    4.60
   1   8 -11   -1.40    3.30
   1   8 -11   -4.80    3.10
  -1  -8  11   -7.20    4.40
  -1  -8  11    7.60    5.50
   0   8 -11    8.10    3.50
   0   8 -11   11.40    3.30
   0  -8  11    6.80    6.20
   0  -8  11   24.80    5.30
  -1   8 -11    6.10    3.10
  -1   8 -11   -3.60    3.10
   1  -8  11    9.60    6.60
   1  -8  11   -3.10    5.00
  -2   8 -11    2.00    3.50
   2  -8  11    7.80    7.10
   3   7 -11    2.00    3.90
   3   7 -11    0.80    3.40
  -3  -7  11    1.30    4.90
   2   7 -11    4.50    3.20
   2   7 -11    1.90    3.10
  -2  -7  11    4.60    4.20
   1   7 -11   -4.00    2.80
   1   7 -11   -1.20    2.50
  -1  -7  11   -6.70    4.40
  -1  -7  11    0.60    3.60
   0   7 -11    7.60    2.80
   0   7 -11    5.60    3.00
   0  -7  11   12.30    4.10
   0  -7  11    8.90    5.20
  -1   7 -11    0.10    2.50
  -1   7 -11   -0.10    2.80
   1  -7  11    3.50    4.20
   1  -7  11    0.60    5.10
  -2   7 -11    5.00    2.80
  -2   7 -11    1.70    2.90
   2  -7  11    2.70    6.00
  -3   7 -11    5.60    3.50
  -3   7 -11    2.30    5.80
   3  -7  11   19.60    7.60
   4   6 -11    3.80    4.00
   4   6 -11    8.30    3.80
  -4  -6  11   -4.80    5.00
  -4  -6  11    3.70    3.90
   3   6 -11    4.00    3.50
   3   6 -11   10.00    3.50
  -3  -6  11    9.50    4.50
  -3  -6  11    3.90    3.10
   2   6 -11   -1.50    2.70
   2   6 -11   -5.30    2.40
  -2  -6  11   -6.40    3.30
  -2  -6  11   -7.20    3.60
  -2  -6  11   -1.80    2.40
   1   6 -11    0.40    2.40
   1   6 -11   -2.50    2.20
  -1  -6  11   -1.80    3.00
  -1  -6  11    2.70    3.80
  -1  -6  11   -0.20    1.80
   0   6 -11   35.10    3.80
   0   6 -11   42.10    4.30
   0  -6  11   40.10    5.90
   0  -6  11   31.90    4.90
  -1   6 -11   57.09    4.80
  -1   6 -11   55.89    4.30
   1  -6  11   62.19    6.60
   1  -6  11   62.79    8.90
  -2   6 -11   19.60    3.40
  -2   6 -11   15.80    2.90
   2  -6  11   20.90    6.10
  -3   6 -11    3.50    3.10
  -3   6 -11    0.50    5.40
  -3   6 -11    1.40    2.80
   3  -6  11   11.30    6.80
  -4   6 -11    1.10    3.60
  -4   6 -11    4.80    6.80
   4  -6  11    1.60    7.70
   4   5 -11   -2.30    3.30
   4   5 -11    2.70    3.40
  -4  -5  11    3.90    4.40
  -4  -5  11   -0.40    3.60
   3   5 -11    4.60    2.90
   3   5 -11    6.60    3.10
  -3  -5  11    5.90    3.10
  -3  -5  11    3.90    3.90
   2   5 -11    9.90    2.70
   2   5 -11    2.70    2.70
  -2  -5  11    8.70    2.50
  -2  -5  11    7.40    3.30
  -2  -5  11    2.40    3.00
   1   5 -11    2.20    2.10
   1   5 -11    0.00    2.00
  -1  -5  11    4.50    3.20
  -1  -5  11   -0.50    1.80
   0   5 -11    3.70    2.30
   0   5 -11    3.50    1.90
   0  -5  11   -4.30    5.30
   0  -5  11   -0.30    3.50
   0  -5  11   -1.10    1.50
  -1   5 -11   30.50    3.30
   1  -5  11   29.80    5.30
   1  -5  11   41.00    5.70
  -2   5 -11   20.80    2.90
   2  -5  11   25.40    5.80
  -3   5 -11   -2.30    2.70
  -3   5 -11    2.40    2.60
   3  -5  11    4.40    5.60
   3  -5  11    1.70    2.10
  -4   5 -11   -4.70    6.00
  -4   5 -11   13.10    3.50
  -4   5 -11   10.80    4.00
   4  -5  11    7.60    3.10
   4  -5  11    9.60    6.70
   5   4 -11    3.60    4.00
   5   4 -11    6.90    3.70
  -5  -4  11    2.80    4.20
  -5  -4  11    5.70    4.90
   4   4 -11   -3.20    2.90
   4   4 -11    0.00    2.90
  -4  -4  11   -5.00    3.30
  -4  -4  11    0.80    4.00
   3   4 -11   -1.00    2.30
   3   4 -11    8.60    2.80
  -3  -4  11   10.00    3.40
  -3  -4  11    4.60    2.70
   2   4 -11   20.80    3.00
   2   4 -11   14.80    5.80
  -2  -4  11   27.00    3.20
  -2  -4  11   29.50    4.20
  -2  -4  11   26.50    3.60
   1   4 -11    3.30    3.30
   1   4 -11    2.80    1.90
   1   4 -11   -1.70    1.80
  -1  -4  11    1.60    1.80
  -1  -4  11   -2.60    3.10
  -1  -4  11   -0.80    2.70
  -1  -4  11   -0.20    1.70
  -1  -4  11    1.20    2.50
   0   4 -11    4.80    2.30
   0   4 -11    3.30    2.00
   0  -4  11    4.80    2.40
   0  -4  11    5.60    1.80
   0  -4  11    5.00    2.80
   0  -4  11    6.30    3.30
  -1   4 -11   11.00    2.40
  -1   4 -11   10.00    2.10
  -1   4 -11   13.90    1.60
   1  -4  11   14.20    3.40
   1  -4  11   13.60    3.90
   1  -4  11   10.60    1.80
   1  -4  11   11.90    1.80
  -2   4 -11   11.30    2.30
  -2   4 -11    9.40    2.30
  -2   4 -11   10.30    2.30
   2  -4  11    3.70    3.90
  -3   4 -11   -1.50    2.30
  -3   4 -11   -2.00    2.20
   3  -4  11   -3.80    4.80
   3  -4  11    0.40    1.80
  -4   4 -11   -3.40    2.80
  -4   4 -11    6.50    3.60
  -4   4 -11   -5.00    5.50
   4  -4  11   -1.20    5.50
   4  -4  11    1.00    2.50
  -5   4 -11   -1.60    7.00
   5  -4  11    5.80    3.80
   5  -4  11   16.10    8.30
   5   3 -11   -0.20    3.30
   5   3 -11    5.00    3.50
  -5  -3  11   -3.20    3.80
  -5  -3  11    1.00    4.60
   4   3 -11    6.90    2.80
   4   3 -11    3.10    2.80
  -4  -3  11    6.10    3.30
  -4  -3  11    2.40    3.60
  -4  -3  11    1.00    2.10
   3   3 -11    4.00    2.30
   3   3 -11    4.40    2.30
  -3  -3  11    2.10    2.20
  -3  -3  11   -0.10    1.50
  -3  -3  11    3.40    3.00
  -3  -3  11   -1.20    2.40
   2   3 -11   -1.20    2.30
   2   3 -11   -3.30    1.80
   2   3 -11    2.10    1.90
  -2  -3  11    1.20    1.00
  -2  -3  11    1.50    1.90
  -2  -3  11    1.60    2.40
  -2  -3  11    4.00    2.60
  -2  -3  11    3.40    2.40
   1   3 -11   20.40    3.50
   1   3 -11   23.10    3.10
   1   3 -11   27.10    3.00
  -1  -3  11   22.00    2.70
  -1  -3  11   25.60    3.40
  -1  -3  11   29.60    3.00
  -1  -3  11   23.00    3.30
  -1  -3  11   26.00    4.00
   0   3 -11   20.00    2.60
   0   3 -11   23.90    2.70
   0  -3  11   24.60    2.80
   0  -3  11   20.60    3.20
   0  -3  11   26.90    3.40
   0  -3  11   20.90    3.50
  -1   3 -11    7.40    2.20
  -1   3 -11    4.70    1.60
  -1   3 -11    5.40    1.90
   1  -3  11    8.50    2.20
   1  -3  11    6.40    1.90
   1  -3  11    7.10    2.60
   1  -3  11    7.40    3.30
  -2   3 -11   17.20    2.60
  -2   3 -11   18.50    2.60
  -2   3 -11   14.60    2.70
   2  -3  11   19.50    2.20
   2  -3  11   16.90    4.10
   2  -3  11   17.80    2.10
   2  -3  11   15.50    1.50
  -3   3 -11    2.40    2.10
  -3   3 -11   -0.50    2.10
  -3   3 -11    3.50    3.30
   3  -3  11   -0.40    1.50
   3  -3  11    1.60    4.80
  -4   3 -11    1.90    2.70
  -4   3 -11    5.90    3.30
  -4   3 -11   10.00    5.00
   4  -3  11    2.00    2.60
   4  -3  11   -1.00    4.80
  -5   3 -11    7.00    3.60
  -5   3 -11    5.40    6.60
   5  -3  11   -4.20    6.60
   5  -3  11   10.60    3.90
   5   2 -11    0.00    3.00
   5   2 -11   -4.60    3.00
  -5  -2  11    5.10    4.20
  -5  -2  11    4.10    3.50
  -5  -2  11    2.90    3.20
   4   2 -11    0.50    2.40
   4   2 -11    3.60    2.00
   4   2 -11    3.40    2.80
  -4  -2  11   -0.40    2.90
  -4  -2  11    5.60    2.30
  -4  -2  11   -4.90    3.00
   3   2 -11    0.30    2.00
   3   2 -11   -0.10    3.00
  -3  -2  11    1.00    1.60
  -3  -2  11    4.10    2.50
  -3  -2  11   -0.90    2.70
   2   2 -11    6.00    1.90
   2   2 -11    5.30    1.90
   2   2 -11    4.60    2.00
  -2  -2  11    5.50    2.70
  -2  -2  11    2.40    1.90
  -2  -2  11    4.90    1.30
  -2  -2  11    1.70    2.20
   1   2 -11    2.90    2.20
   1   2 -11    1.30    1.50
   1   2 -11    1.50    1.70
  -1  -2  11    1.50    1.60
  -1  -2  11   -1.10    2.90
  -1  -2  11    0.70    1.70
  -1  -2  11    1.80    1.30
  -1  -2  11    2.20    1.90
   0   2 -11    0.10    1.50
   0   2 -11   -0.70    1.40
   0   2 -11    0.40    2.30
   0   2 -11    0.10    1.40
   0  -2  11    0.30    0.70
   0  -2  11    2.50    2.00
   0  -2  11    1.80    2.40
   0  -2  11   -1.10    1.40
   0  -2  11    2.00    0.70
   0  -2  11    1.20    1.50
  -1   2 -11    8.70    1.80
  -1   2 -11    8.80    1.80
  -1   2 -11    7.20    2.10
   1  -2  11    9.00    2.80
   1  -2  11    8.60    2.30
   1  -2  11    9.10    2.10
  -2   2 -11    3.70    1.90
  -2   2 -11    4.60    1.90
  -2   2 -11    4.50    2.10
   2  -2  11    4.60    1.10
   2  -2  11    3.80    2.90
   2  -2  11    9.60    2.10
   2  -2  11    6.90    2.00
  -3   2 -11    8.00    2.40
  -3   2 -11   10.40    2.30
   3  -2  11   13.70    4.40
   3  -2  11    7.00    1.80
   3  -2  11   12.50    2.00
   3  -2  11    6.60    2.20
  -4   2 -11   17.80    5.60
  -4   2 -11    5.40    2.70
  -4   2 -11    8.50    3.30
   4  -2  11    1.20    4.90
   4  -2  11    6.70    2.50
   4  -2  11    8.60    2.00
  -5   2 -11   12.10    3.80
  -5   2 -11   -4.50    7.10
  -5   2 -11    5.10    6.00
   5  -2  11    0.60    6.00
   5  -2  11   -6.10    3.10
  -6   2 -11    8.80    7.60
  -6   2 -11    1.00    7.20
   5   1 -11   -4.10    2.90
   5   1 -11   -0.60    2.80
   5   1 -11    2.20    3.20
  -5  -1  11   -0.20    3.30
  -5  -1  11   -0.90    3.40
  -5  -1  11   -4.50    3.80
   4   1 -11    1.10    2.00
   4   1 -11   -0.70    2.30
   4   1 -11   -1.70    2.40
  -4  -1  11   -1.00    2.50
  -4  -1  11    3.30    3.00
  -4  -1  11   -0.70    2.20
   3   1 -11    4.10    2.10
   3   1 -11    7.30    2.30
  -3  -1  11    6.40    2.00
  -3  -1  11    7.00    2.50
  -3  -1  11    4.30    2.40
   2   1 -11    3.00    2.00
   2   1 -11    3.40    1.70
  -2  -1  11    5.90    2.00
  -2  -1  11    5.90    1.50
  -2  -1  11    4.30    2.10
  -2  -1  11    8.70    2.70
   1   1 -11   -0.70    1.50
   1   1 -11    1.90    1.50
   1   1 -11    5.50    1.90
  -1  -1  11    1.30    1.60
  -1  -1  11    0.00    3.00
  -1  -1  11    3.10    1.30
  -1  -1  11    0.00    1.70
  -1  -1  11    4.50    1.80
   0   1 -11   23.00    3.20
   0   1 -11   20.00    2.70
   0   1 -11   23.10    3.10
   0   1 -11   21.00    2.50
   0   1 -11   24.10    2.70
   0  -1  11   26.90    3.50
   0  -1  11   27.00    2.50
   0  -1  11   23.10    2.90
   0  -1  11   23.60    1.90
   0  -1  11   19.60    2.70
  -1   1 -11   54.29    4.40
  -1   1 -11   56.19    3.60
  -1   1 -11   56.39    3.60
  -1   1 -11   62.19    3.40
   1  -1  11   58.39    3.80
   1  -1  11   51.59    3.60
   1  -1  11   57.99    4.20
   1  -1  11   55.59    3.70
  -2   1 -11   -1.60    1.90
  -2   1 -11    1.10    1.70
  -2   1 -11    1.70    1.70
   2  -1  11   -1.50    1.70
   2  -1  11    3.30    2.00
  -3   1 -11   -1.00    2.00
  -3   1 -11   -1.00    1.90
   3  -1  11   -3.80    1.90
   3  -1  11    0.00    1.60
   3  -1  11   -1.60    2.00
  -4   1 -11    3.50    2.50
  -4   1 -11    0.40    2.60
  -4   1 -11    3.80    4.30
   4  -1  11   -1.90    4.00
   4  -1  11    1.40    2.40
   4  -1  11   -0.80    2.30
  -5   1 -11   12.50    4.70
  -5   1 -11   14.20    3.80
  -5   1 -11   22.70    6.60
   5  -1  11   18.20    3.90
   5  -1  11   15.10    5.90
   5  -1  11   21.10    3.30
  -6   1 -11    3.00    7.40
  -6   1 -11   16.90    6.30
   6  -1  11   14.50    7.50
   6  -1  11   17.10    4.70
   5   0 -11    2.00    3.10
   5   0 -11   -1.70    2.60
   5   0 -11   -1.90    3.00
  -5   0  11    1.10    3.40
  -5   0  11    5.50    3.50
  -5   0  11    5.80    6.90
   4   0 -11    8.50    2.10
   4   0 -11   12.10    2.90
   4   0 -11    2.00    2.10
  -4   0  11    4.40    2.70
  -4   0  11    3.40    2.50
  -4   0  11    5.30    2.90
   3   0 -11    1.00    2.00
   3   0 -11    0.20    1.70
   3   0 -11    3.80    1.40
  -3   0  11   -0.60    2.10
  -3   0  11    0.00    1.70
  -3   0  11    2.40    2.20
   2   0 -11    0.80    1.40
   2   0 -11   -1.20    1.20
   2   0 -11   -0.70    1.70
  -2   0  11    0.30    1.40
  -2   0  11    0.30    1.70
  -2   0  11   -2.20    1.60
  -2   0  11   -3.10    2.30
   1   0 -11    0.70    1.60
   1   0 -11    1.50    1.50
   1   0 -11    1.00    1.60
  -1   0  11    0.40    1.40
  -1   0  11   -1.90    1.20
  -1   0  11    0.20    1.70
  -1   0  11   -1.60    1.50
   0   0 -11   10.90    2.10
   0   0 -11   13.70    2.30
   0   0 -11    9.80    2.40
   0   0 -11   10.80    2.10
   0   0  11   10.50    2.10
   0   0  11    6.70    2.30
   0   0  11   15.40    2.40
   0   0  11   13.40    2.00
   0   0  11   12.00    1.60
  -1   0 -11   14.80    2.40
  -1   0 -11   21.00    3.00
  -1   0 -11   16.40    2.40
  -1   0 -11   15.20    2.40
   1   0  11   14.90    1.10
   1   0  11   18.60    2.50
   1   0  11   15.80    1.10
   1   0  11   15.10    1.30
   1   0  11   15.40    2.40
   1   0  11   22.40    2.70
  -2   0 -11    6.30    2.40
  -2   0 -11    1.40    1.70
  -2   0 -11    0.80    1.60
  -2   0 -11    4.70    2.20
   2   0  11    0.30    2.00
   2   0  11   -1.30    1.90
   2   0  11   -1.10    1.20
   2   0  11    2.40    1.90
  -3   0 -11   -2.80    1.80
  -3   0 -11   -0.70    2.00
   3   0  11    0.30    2.20
   3   0  11    3.00    1.70
   3   0  11    0.00    2.20
  -4   0 -11   14.90    3.30
  -4   0 -11   11.00    3.40
  -4   0 -11   17.20    5.20
   4   0  11   15.50    3.20
   4   0  11   18.20    2.90
   4   0  11    7.70    2.90
  -5   0 -11    1.40    3.80
  -5   0 -11   -4.30    5.10
  -5   0 -11   -4.00    3.00
   5   0  11    1.00    5.10
   5   0  11   -7.20    2.90
   5   0  11    8.90    3.50
  -6   0 -11    6.30    5.50
  -6   0 -11    3.00    6.80
   6   0  11   -0.70    4.20
   6   0  11    0.70    6.40
   6   0  11    0.80    4.20
   5  -1 -11    4.30    2.70
   5  -1 -11    5.20    3.00
   5  -1 -11    5.50    3.20
  -5   1  11    2.80    3.40
  -5   1  11    0.70    3.60
  -5   1  11    4.90    4.20
   4  -1 -11    9.70    2.40
   4  -1 -11    8.50    2.50
   4  -1 -11    4.20    2.60
  -4   1  11    4.10    2.50
  -4   1  11    6.20    2.70
  -4   1  11    6.10    2.90
   3  -1 -11   -0.60    1.70
   3  -1 -11   -0.60    1.90
   3  -1 -11    1.60    1.60
  -3   1  11    0.60    2.00
  -3   1  11   -1.00    1.90
  -3   1  11    2.30    2.20
   2  -1 -11   25.30    2.90
   2  -1 -11   20.40    2.80
   2  -1 -11   19.50    1.90
  -2   1  11   22.60    2.60
  -2   1  11   17.70    2.70
  -2   1  11   23.30    3.20
  -2   1  11   20.40    2.70
   1  -1 -11   64.19    3.80
   1  -1 -11   61.39    4.10
   1  -1 -11   59.89    3.80
  -1   1  11   57.99    3.40
  -1   1  11   57.19    3.80
  -1   1  11   56.59    3.20
  -1   1  11   57.79    2.20
   0  -1 -11   53.29    3.70
   0  -1 -11   61.69    3.80
   0  -1 -11   59.89    3.70
   0  -1 -11   61.69    3.60
   0   1  11   63.59    3.80
   0   1  11   56.79    2.10
   0   1  11   55.99    3.30
   0   1  11   59.29    4.40
   0   1  11   59.19    3.40
   0   1  11   60.99    3.00
  -1  -1 -11  152.28    6.20
  -1  -1 -11  139.59    5.70
  -1  -1 -11  145.19    5.60
  -1  -1 -11  139.79    5.90
   1   1  11  143.69    6.00
   1   1  11  146.19    4.70
   1   1  11  153.48    5.90
   1   1  11  136.89    5.60
  -2  -1 -11    4.10    2.20
  -2  -1 -11    9.20    2.10
  -2  -1 -11    3.80    2.20
  -2  -1 -11    6.60    2.00
   2   1  11    9.10    2.20
   2   1  11    7.20    2.10
   2   1  11    9.40    2.50
  -3  -1 -11   14.40    3.10
  -3  -1 -11   12.10    2.60
  -3  -1 -11   11.80    3.60
   3   1  11   13.30    2.90
   3   1  11   12.70    3.00
   3   1  11   14.00    1.70
   3   1  11   16.60    2.90
  -4  -1 -11   -1.80    3.80
  -4  -1 -11    2.50    2.80
  -4  -1 -11   -1.00    2.50
   4   1  11   -3.70    2.70
   4   1  11    3.60    2.30
   4   1  11    2.10    1.50
  -5  -1 -11   -2.90    4.80
  -5  -1 -11   -8.20    3.20
  -5  -1 -11    1.70    3.70
   5   1  11    1.70    3.70
   5   1  11    1.80    3.10
   5   1  11    0.50    4.40
  -6  -1 -11   12.40    7.40
  -6  -1 -11    1.40    5.10
   6   1  11   20.50    8.80
   6   1  11    4.10    5.90
   6   1  11   13.60    4.50
   5  -2 -11    3.40    2.80
   5  -2 -11    6.00    3.40
   5  -2 -11    6.80    3.10
  -5   2  11    0.50    3.30
  -5   2  11    9.50    4.10
  -5   2  11    8.50    3.60
   4  -2 -11    6.80    2.50
   4  -2 -11    3.90    2.30
   4  -2 -11    2.60    2.80
  -4   2  11    0.80    2.50
  -4   2  11    0.30    2.40
  -4   2  11    0.70    2.70
   3  -2 -11    0.70    1.90
   3  -2 -11   -0.90    1.90
  -3   2  11    2.00    2.20
  -3   2  11   -4.20    2.00
  -3   2  11   -2.60    1.70
   2  -2 -11   -1.20    1.60
   2  -2 -11    0.90    1.80
  -2   2  11   -2.10    1.50
  -2   2  11   -1.60    1.20
  -2   2  11   -1.20    1.60
  -2   2  11   -1.60    1.60
   1  -2 -11    0.30    1.60
   1  -2 -11   -1.20    2.60
   1  -2 -11    2.20    2.40
   1  -2 -11    0.90    1.40
  -1   2  11    1.80    1.20
  -1   2  11   -1.20    1.60
  -1   2  11    3.70    1.60
  -1   2  11    1.60    1.20
   0  -2 -11  186.58    7.10
   0  -2 -11  193.88    7.10
   0  -2 -11  208.18    7.20
   0  -2 -11  190.28    7.90
   0  -2 -11  201.38    6.20
   0   2  11  198.98    6.40
   0   2  11  192.58    7.10
   0   2  11  212.98    6.90
  -1  -2 -11   26.20    3.30
  -1  -2 -11   23.50    2.90
  -1  -2 -11   20.00    2.60
  -1  -2 -11   23.40    2.90
   1   2  11   20.30    2.60
   1   2  11   22.10    2.20
   1   2  11   23.40    2.90
  -2  -2 -11   22.70    3.10
  -2  -2 -11   20.40    3.00
  -2  -2 -11   23.40    3.20
   2   2  11   18.80    3.00
   2   2  11   24.30    3.40
   2   2  11   20.50    2.10
  -3  -2 -11   19.40    3.90
  -3  -2 -11   17.00    3.30
  -3  -2 -11   19.90    3.30
  -3  -2 -11   21.20    3.30
   3   2  11   20.00    3.30
   3   2  11   22.50    2.40
   3   2  11   17.90    3.30
  -4  -2 -11   -0.60    3.70
  -4  -2 -11    5.60    2.80
  -4  -2 -11   -0.40    2.80
   4   2  11    3.50    1.70
   4   2  11    2.00    2.90
  -5  -2 -11    1.20    4.70
  -5  -2 -11   -0.60    3.70
   5   2  11   -0.10    2.20
   5   2  11    3.90    3.10
   5   2  11   -1.80    3.70
  -6  -2 -11    7.90    5.60
  -6  -2 -11    4.90    6.90
   6   2  11   11.70    5.90
   6   2  11    3.80    3.40
   6   2  11    2.60    4.80
   5  -3 -11   32.20    5.20
   5  -3 -11   29.50    4.30
   5  -3 -11   28.40    4.70
  -5   3  11   31.20    6.00
  -5   3  11   20.60    4.00
  -5   3  11   38.80    5.50
  -5   3  11   42.90    5.70
   4  -3 -11    9.60    2.90
   4  -3 -11    6.50    2.60
   4  -3 -11   10.50    4.10
  -4   3  11    8.20    2.50
  -4   3  11   10.60    3.10
  -4   3  11    6.60    3.20
   3  -3 -11    7.20    2.20
   3  -3 -11    6.10    2.20
  -3   3  11    5.20    2.80
  -3   3  11    8.90    1.90
  -3   3  11    7.10    2.50
  -3   3  11   -0.90    2.30
   2  -3 -11    7.80    2.10
   2  -3 -11   11.30    2.20
  -2   3  11   10.90    1.60
  -2   3  11    7.40    2.00
  -2   3  11    5.30    2.20
  -2   3  11    7.60    2.30
   1  -3 -11    2.00    1.60
   1  -3 -11   -0.90    2.60
   1  -3 -11   -0.20    1.80
  -1   3  11    0.90    1.60
  -1   3  11    3.70    1.70
  -1   3  11    0.00    1.60
   0  -3 -11   60.59    4.00
   0  -3 -11   57.59    4.10
   0  -3 -11   67.79    4.70
   0  -3 -11   59.99    4.30
   0   3  11   62.69    3.50
   0   3  11   57.79    3.70
   0   3  11   61.09    3.30
   0   3  11   58.69    4.00
  -1  -3 -11   45.40    3.90
  -1  -3 -11   52.19    3.80
  -1  -3 -11   47.00    2.90
   1   3  11   44.10    3.10
   1   3  11   52.39    3.70
   1   3  11   49.50    3.80
  -2  -3 -11    9.30    2.10
  -2  -3 -11    9.00    2.40
  -2  -3 -11   11.50    2.60
   2   3  11    9.80    1.80
   2   3  11   12.70    2.90
   2   3  11   11.80    2.70
  -3  -3 -11    4.90    2.50
  -3  -3 -11    9.50    2.80
  -3  -3 -11   -0.90    2.30
  -3  -3 -11    1.10    2.70
   3   3  11    0.90    2.50
   3   3  11   -2.30    2.30
   3   3  11    1.70    1.60
  -4  -3 -11   11.50    3.50
  -4  -3 -11    5.00    3.40
  -4  -3 -11   10.20    3.80
   4   3  11    4.50    3.20
   4   3  11   12.90    3.90
   4   3  11    7.90    2.10
  -5  -3 -11   -6.00    4.70
  -5  -3 -11    4.00    3.80
   5   3  11   -0.90    3.90
   5   3  11   -1.50    2.50
  -6  -3 -11    8.00    5.20
  -6  -3 -11    2.30    6.60
   6   3  11    6.30    4.40
   6   3  11    1.40    3.40
   6   3  11    3.30    4.90
   5  -4 -11   16.80    4.40
   5  -4 -11   13.90    3.50
  -5   4  11   21.30    3.90
  -5   4  11    1.50    5.20
  -5   4  11   12.00    3.80
  -5   4  11   15.30    4.90
   4  -4 -11   14.80    3.40
   4  -4 -11   17.20    3.10
   4  -4 -11   14.50    3.20
  -4   4  11   14.40    3.80
  -4   4  11   14.50    3.20
  -4   4  11   15.20    2.50
   3  -4 -11   11.40    2.70
   3  -4 -11    8.00    2.40
  -3   4  11   14.40    1.90
  -3   4  11   12.70    2.90
  -3   4  11   15.50    3.20
   2  -4 -11    2.30    1.40
   2  -4 -11   -0.90    1.70
   2  -4 -11    2.70    3.40
   2  -4 -11    2.10    2.00
  -2   4  11    6.20    2.00
  -2   4  11    4.30    2.40
  -2   4  11   -0.20    0.80
  -2   4  11    1.60    2.10
   1  -4 -11    2.40    1.80
   1  -4 -11    0.70    2.00
   1  -4 -11    4.50    2.60
  -1   4  11    2.60    1.90
  -1   4  11    0.10    2.00
  -1   4  11   -0.90    1.60
   0  -4 -11  169.08    7.20
   0  -4 -11  165.38    6.70
   0  -4 -11  167.38    6.70
   0   4  11  169.88    6.60
   0   4  11  167.98    6.30
   0   4  11  166.58    6.00
   0   4  11  172.28    6.80
  -1  -4 -11  174.48    5.20
  -1  -4 -11  175.08    7.50
  -1  -4 -11  169.78    7.10
   1   4  11  174.58    6.90
   1   4  11  175.28    6.40
   1   4  11  173.78    7.00
  -2  -4 -11    1.60    1.70
  -2  -4 -11    1.50    2.10
  -2  -4 -11    0.70    2.10
   2   4  11    2.00    1.60
   2   4  11    3.50    2.20
   2   4  11    2.30    2.10
  -3  -4 -11    2.60    2.60
  -3  -4 -11    1.00    2.60
  -3  -4 -11    1.00    2.20
  -3  -4 -11    3.40    2.70
   3   4  11   -1.50    2.30
   3   4  11    3.10    1.90
   3   4  11    3.10    2.70
  -4  -4 -11    0.60    3.50
  -4  -4 -11    3.90    3.20
   4   4  11   -0.70    2.00
   4   4  11    1.10    3.20
  -5  -4 -11   -2.30    3.80
   5   4  11    2.50    2.70
   5   4  11    8.10    4.30
  -6  -4 -11   -9.10    6.40
  -6  -4 -11    6.40    5.00
   6   4  11   -9.20    4.90
   5  -5 -11    1.40    3.40
   5  -5 -11    3.20    4.20
   5  -5 -11  -10.10    5.80
  -5   5  11    1.10    3.80
  -5   5  11    8.40    4.50
   4  -5 -11    2.50    3.20
   4  -5 -11    6.70    2.70
  -4   5  11    0.90    3.10
  -4   5  11   -0.90    3.60
  -4   5  11    5.10    2.00
   3  -5 -11    2.90    2.60
   3  -5 -11    5.50    2.40
  -3   5  11    0.70    2.40
  -3   5  11    1.60    2.70
   2  -5 -11    3.40    2.40
   2  -5 -11    2.40    2.10
   2  -5 -11   -3.80    3.50
  -2   5  11    1.30    2.00
  -2   5  11   -2.30    2.20
   1  -5 -11   -1.80    2.00
   1  -5 -11    7.30    2.70
   1  -5 -11    3.70    2.00
  -1   5  11    4.30    2.10
  -1   5  11    4.10    2.00
  -1   5  11    3.60    2.50
   0  -5 -11    1.00    1.90
   0  -5 -11    1.30    2.20
   0  -5 -11    2.10    2.20
   0   5  11   -2.60    1.60
   0   5  11    0.20    2.10
   0   5  11    3.70    1.80
   0   5  11    3.40    2.00
  -1  -5 -11   -1.60    2.10
  -1  -5 -11   -2.70    2.30
  -1  -5 -11    0.50    0.70
   1   5  11   -0.70    1.70
   1   5  11    1.20    2.20
   1   5  11    1.90    1.70
   1   5  11    0.50    2.00
  -2  -5 -11   38.00    3.90
  -2  -5 -11   40.90    4.30
  -2  -5 -11   52.09    4.90
  -2  -5 -11   36.40    2.90
   2   5  11   40.90    4.00
   2   5  11   39.10    4.30
   2   5  11   34.90    3.40
  -3  -5 -11   -1.60    2.60
  -3  -5 -11    2.10    2.80
  -3  -5 -11    4.60    2.70
   3   5  11   -0.90    2.60
   3   5  11    6.50    3.00
   3   5  11    2.20    2.00
  -4  -5 -11   14.70    4.00
  -4  -5 -11   12.70    3.90
   4   5  11   21.00    4.30
   4   5  11   14.10    2.90
   4   5  11   15.40    4.20
  -5  -5 -11   -9.20    3.60
  -5  -5 -11   10.80    5.30
   5   5  11   -5.40    4.20
   5   5  11   -0.30    3.00
  -6  -5 -11    0.40    6.80
  -6  -5 -11   -7.90    5.00
   6   5  11    2.60    5.60
   5  -6 -11   -5.60    3.60
   5  -6 -11   10.40    6.90
   5  -6 -11    2.60    4.80
  -5   6  11    2.70    4.10
  -5   6  11   11.70    5.30
   4  -6 -11   14.40    3.30
  -4   6  11   10.50    4.40
  -4   6  11   14.00    3.70
   3  -6 -11    7.10    2.70
   3  -6 -11    5.90    2.10
  -3   6  11   10.80    3.50
  -3   6  11   10.20    3.40
   2  -6 -11    2.80    3.60
   2  -6 -11    0.80    2.10
   2  -6 -11    1.40    2.00
   2  -6 -11    4.60    2.80
  -2   6  11    2.50    2.40
  -2   6  11    4.80    2.30
   1  -6 -11   23.10    3.70
   1  -6 -11   23.80    3.30
   1  -6 -11   24.80    3.40
  -1   6  11   26.40    3.60
  -1   6  11   25.40    3.50
  -1   6  11   18.00    2.90
   0  -6 -11    5.30    2.70
   0  -6 -11    2.00    2.10
   0  -6 -11   -0.90    2.00
   0   6  11   -2.80    1.80
   0   6  11    0.80    1.90
   0   6  11    1.10    2.00
  -1  -6 -11    3.20    2.70
  -1  -6 -11    6.40    2.40
  -1  -6 -11    5.40    2.30
   1   6  11    4.70    2.20
   1   6  11    7.50    2.60
   1   6  11    8.70    2.30
  -2  -6 -11    1.20    2.10
  -2  -6 -11    5.70    2.80
   2   6  11   -0.90    1.90
   2   6  11    2.80    2.60
   2   6  11   -2.70    2.30
  -3  -6 -11    4.90    3.10
  -3  -6 -11   11.40    3.00
  -3  -6 -11   11.80    3.00
   3   6  11    9.80    2.70
   3   6  11    8.60    5.20
   3   6  11   13.40    5.60
  -4  -6 -11   -3.50    3.30
  -4  -6 -11    3.90    3.70
   4   6  11    3.70    3.80
   4   6  11    2.00    3.80
   4   6  11    7.20    2.90
  -5  -6 -11    1.40    3.70
  -5  -6 -11    7.20    4.40
  -5  -6 -11    0.80    5.10
   5   6  11    0.00    3.30
   5   6  11   -2.60    4.80
  -6  -6 -11    2.90    7.20
  -6  -6 -11   -2.50    5.20
   6   6  11    4.80    4.30
   6   6  11   -9.20    5.90
   4  -7 -11    6.30    5.90
   4  -7 -11   -0.30    3.10
  -4   7  11   -0.70    4.20
  -4   7  11   -0.20    3.60
   3  -7 -11   13.20    3.00
   3  -7 -11   14.50    2.80
  -3   7  11   15.30    3.90
  -3   7  11   12.80    3.20
   2  -7 -11    1.00    2.50
   2  -7 -11   -2.40    2.40
  -2   7  11    3.40    3.00
  -2   7  11    5.00    2.60
   1  -7 -11    0.40    2.40
   1  -7 -11   -4.50    3.40
   1  -7 -11    2.80    2.40
   1  -7 -11    2.10    2.50
  -1   7  11    2.50    2.40
  -1   7  11    5.50    2.50
  -1   7  11    2.80    2.30
   0  -7 -11    2.80    2.50
   0   7  11    5.50    2.70
   0   7  11   12.30    2.70
   0   7  11    8.50    2.60
  -1  -7 -11   42.60    3.40
  -1  -7 -11   47.40    5.10
   1   7  11   47.90    4.70
   1   7  11   40.80    4.20
   1   7  11   46.30    4.20
  -2  -7 -11    2.20    1.30
  -2  -7 -11    2.40    2.40
  -2  -7 -11    5.70    3.20
   2   7  11    0.50    2.80
   2   7  11    5.90    2.90
   2   7  11    2.50    2.30
  -3  -7 -11    0.50    2.80
  -3  -7 -11    5.90    4.10
   3   7  11    4.40    3.00
   3   7  11    1.20    2.50
   3   7  11   -1.80    3.20
  -4  -7 -11   -0.20    3.60
  -4  -7 -11   -3.20    3.60
  -4  -7 -11   -2.70    3.80
   4   7  11   -5.00    3.00
   4   7  11    3.00    3.90
   4   7  11    8.40    4.30
  -5  -7 -11    1.30    5.10
  -5  -7 -11    6.00    5.30
   5   7  11    7.40    5.20
   5   7  11   -0.30    3.70
   5   7  11    1.90    5.30
   4  -8 -11    3.40    6.80
  -4   8  11   -2.90    4.60
  -4   8  11   -4.00    3.80
   3  -8 -11    1.90    3.10
   3  -8 -11   -0.90    3.00
   3  -8 -11    3.10    5.60
  -3   8  11   -0.30    3.60
  -3   8  11    3.30    3.10
   2  -8 -11   -3.30    2.80
   2  -8 -11    5.90    3.30
   2  -8 -11    3.40    4.80
  -2   8  11   -1.60    2.90
  -2   8  11   -2.20    2.80
  -2   8  11   -4.90    2.90
   1  -8 -11    2.60    2.70
   1  -8 -11    0.10    3.10
  -1   8  11    3.40    2.60
  -1   8  11    2.70    2.60
  -1   8  11   -1.90    2.70
   0  -8 -11    1.80    3.00
   0   8  11   -1.40    2.30
   0   8  11   -3.30    2.40
   0   8  11   -0.30    2.50
  -1  -8 -11   13.30    3.60
   1   8  11   18.30    3.70
   1   8  11   19.00    3.80
   1   8  11   12.70    3.00
  -2  -8 -11   -2.30    3.30
  -2  -8 -11   -4.30    2.00
   2   8  11    1.50    2.80
   2   8  11   -0.20    2.90
   2   8  11   -0.70    3.20
  -3  -8 -11    3.80    4.20
  -3  -8 -11    6.80    2.70
  -3  -8 -11    2.60    3.80
   3   8  11   -0.50    3.90
   3   8  11    5.10    3.50
   3   8  11    1.00    3.10
  -4  -8 -11    8.20    4.80
  -4  -8 -11    6.80    4.50
  -4  -8 -11   13.40    3.90
   4   8  11    9.10    5.20
   4   8  11    4.60    3.80
   4   8  11   12.20    4.40
  -5  -8 -11   -0.60    5.20
   5   8  11    6.60    4.40
   5   8  11    5.50    5.90
   5   8  11    3.10    5.90
   3  -9 -11   -6.40    6.20
   3  -9 -11   -5.90    3.60
  -3   9  11   -1.30    3.60
  -3   9  11   -3.50    4.00
  -3   9  11   -2.70    3.40
   2  -9 -11    6.80    3.40
   2  -9 -11    1.20    3.90
   2  -9 -11    9.70    5.70
  -2   9  11    6.80    3.50
  -2   9  11    2.80    3.40
  -2   9  11    0.80    3.60
   1  -9 -11   10.70    3.50
   1  -9 -11   11.70    5.00
   1  -9 -11    9.60    4.10
  -1   9  11    8.10    3.40
  -1   9  11   11.20    3.90
   0  -9 -11    3.60    3.80
   0  -9 -11    6.20    3.50
   0  -9 -11    0.00    4.50
   0   9  11    1.20    2.90
   0   9  11   -0.80    2.80
  -1  -9 -11    2.20    3.40
  -1  -9 -11    2.50    4.50
   1   9  11   -2.30    2.80
   1   9  11   -0.50    2.70
   1   9  11   -0.90    3.20
  -2  -9 -11    8.60    4.20
   2   9  11    2.70    3.40
   2   9  11    8.30    3.40
   2   9  11   13.10    4.10
  -3  -9 -11   -1.80    4.60
  -3  -9 -11   -1.30    4.60
   3   9  11   15.20    4.80
   3   9  11    4.60    3.50
   3   9  11    3.30    3.80
  -4  -9 -11    3.20    5.10
  -4  -9 -11   14.90    5.50
   4   9  11   10.30    5.60
   4   9  11   -1.20    4.90
   4   9  11   -0.80    4.00
   2 -10 -11   -1.50    5.40
   2 -10 -11   -8.90    6.00
  -2  10  11   -1.10    3.70
  -2  10  11    5.10    4.40
  -2  10  11   -1.30    4.10
   1 -10 -11    9.70    4.90
   1 -10 -11   14.50    6.70
  -1  10  11   12.40    4.20
  -1  10  11   11.90    4.20
  -1  10  11   20.70    4.30
   0 -10 -11   -1.60    3.50
   0 -10 -11   -1.90    5.20
   0 -10 -11   10.00    4.60
   0  10  11    0.60    3.50
   0  10  11   -0.10    3.50
   0  10  11   -1.30    3.60
  -1 -10 -11    5.60    5.00
  -1 -10 -11    3.70    4.10
   1  10  11    0.10    3.90
   1  10  11    1.40    3.30
   1  10  11    2.60    3.40
  -2 -10 -11   17.80    9.40
  -2 -10 -11   14.00    5.60
   2  10  11   14.20    4.20
   2  10  11   12.30    4.70
   2  10  11   15.60    4.30
  -3 -10 -11    0.20    5.60
  -3 -10 -11   -0.90    5.00
   3  10  11   -0.50    4.90
   3  10  11    2.90    4.00
   3  10  11   -6.80    4.30
  -4 -10 -11    2.70    5.90
   4  10  11  -10.60    5.70
   4  10  11   15.90    6.40
   4  10  11    1.80    4.80
   1 -11 -11   12.20    5.90
   1 -11 -11   32.00    8.10
  -1  11  11   12.90    5.00
  -1  11  11    9.90    4.70
  -1  11  11   13.50    4.40
   0 -11 -11   18.40    6.00
   0 -11 -11   24.60    7.30
   0  11  11   13.70    4.40
   0  11  11   18.40    5.00
   0  11  11   16.90    4.70
  -1 -11 -11    5.40    5.90
  -1 -11 -11   -3.50    5.20
   1  11  11    6.90    4.70
   1  11  11   10.70    4.30
  -2 -11 -11   -2.20    5.70
  -2 -11 -11    8.40    6.10
   2  11  11   -2.30    4.40
   2  11  11    4.20    5.20
   2  11  11    6.60    4.50
   2   7 -12    1.80    3.50
   2   7 -12    0.30    3.60
  -2  -7  12   -1.20    4.50
   1   7 -12    5.30    3.60
   1   7 -12    5.00    3.30
  -1  -7  12    7.90    4.80
  -1  -7  12   -7.10    5.30
   0   7 -12   30.40    4.50
   0  -7  12   32.20    7.00
   0  -7  12   30.40    5.50
  -1   7 -12    0.30    3.20
  -1   7 -12    3.80    3.10
   1  -7  12    7.20    5.00
   1  -7  12   -0.60    6.10
  -2   7 -12   -1.50    3.40
  -2   7 -12   -4.80    3.10
   2  -7  12   -2.30    6.60
   3   6 -12   -6.20    3.40
   3   6 -12    7.70    3.70
  -3  -6  12    3.30    4.70
   2   6 -12   -0.10    3.00
   2   6 -12    0.60    3.20
  -2  -6  12    3.10    2.80
  -2  -6  12    8.20    4.40
   1   6 -12   -0.40    2.60
   1   6 -12    3.20    2.80
  -1  -6  12    6.00    3.80
  -1  -6  12   -5.40    4.20
   0   6 -12   11.50    3.10
   0   6 -12    9.30    3.00
   0  -6  12    8.60    4.00
   0  -6  12    8.70    5.10
  -1   6 -12    4.00    3.00
  -1   6 -12    8.90    2.80
   1  -6  12    3.70    4.30
   1  -6  12   11.60    5.60
  -2   6 -12   13.10    3.60
  -2   6 -12   12.90    3.20
   2  -6  12   14.30    6.70
  -3   6 -12    1.20    3.50
  -3   6 -12    7.50    6.70
  -3   6 -12    1.30    3.50
   3  -6  12    3.30    7.20
   4   5 -12    1.10    3.70
   4   5 -12    1.60    3.90
  -4  -5  12    3.10    4.00
  -4  -5  12    7.90    5.30
   3   5 -12   -0.10    3.10
   3   5 -12   -0.60    3.10
  -3  -5  12   -0.20    3.20
  -3  -5  12    2.50    4.20
   2   5 -12    7.10    2.90
   2   5 -12    5.80    3.00
  -2  -5  12    1.50    3.70
  -2  -5  12   11.30    2.90
  -2  -5  12    4.40    3.70
   1   5 -12    0.80    2.40
   1   5 -12   -2.30    2.30
  -1  -5  12   -4.80    2.10
  -1  -5  12   -2.70    3.40
  -1  -5  12   -2.00    3.80
   0   5 -12    2.50    2.40
   0   5 -12   -0.30    2.30
   0  -5  12    0.50    1.80
   0  -5  12   -1.10    3.80
   0  -5  12   -4.70    3.10
  -1   5 -12   73.29    4.70
  -1   5 -12   69.19    5.10
   1  -5  12   74.59    7.00
  -2   5 -12    2.10    2.80
  -2   5 -12   -1.00    2.40
   2  -5  12    2.70    5.40
  -3   5 -12    4.60    3.30
  -3   5 -12    6.40    3.10
   3  -5  12    0.70    6.10
  -4   5 -12    4.90    3.80
  -4   5 -12   13.80    7.50
  -4   5 -12    0.70    4.70
   4  -5  12   19.10    8.50
   4   4 -12    3.50    3.60
   4   4 -12    2.00    3.20
  -4  -4  12   -1.90    3.80
  -4  -4  12    5.30    4.70
   3   4 -12    0.80    2.70
   3   4 -12   -0.90    2.70
  -3  -4  12    3.80    3.90
  -3  -4  12    1.80    3.10
   2   4 -12    5.90    2.50
   2   4 -12    1.70    2.50
  -2  -4  12    0.10    2.50
  -2  -4  12    2.40    3.20
  -2  -4  12    6.10    3.50
   1   4 -12    1.90    2.30
   1   4 -12    2.00    2.10
  -1  -4  12    3.50    2.20
  -1  -4  12    1.20    3.40
  -1  -4  12    4.10    2.90
   0   4 -12    2.60    2.20
   0   4 -12   -2.10    2.00
   0  -4  12    0.10    2.00
   0  -4  12    1.50    3.50
   0  -4  12    3.50    2.90
  -1   4 -12   17.20    2.90
  -1   4 -12   19.00    3.30
   1  -4  12   14.80    4.30
   1  -4  12   19.40    2.60
  -2   4 -12   11.90    3.00
  -2   4 -12   13.10    2.90
   2  -4  12   12.80    5.20
  -3   4 -12    1.30    2.70
  -3   4 -12    3.70    2.80
   3  -4  12    1.10    5.40
  -4   4 -12    4.80    4.10
  -4   4 -12    6.00    6.40
  -4   4 -12   10.00    3.50
   4  -4  12    1.50    6.80
   4   3 -12    7.40    3.50
   4   3 -12   14.40    3.40
  -4  -3  12    7.10    4.40
  -4  -3  12    7.20    3.70
   3   3 -12   -0.10    2.80
   3   3 -12    0.70    2.50
  -3  -3  12    0.80    3.90
  -3  -3  12   -0.50    2.60
  -3  -3  12    2.00    2.80
   2   3 -12   -0.20    2.30
  -2  -3  12   -0.40    1.10
  -2  -3  12   -3.90    2.80
  -2  -3  12    5.70    2.90
  -2  -3  12   -3.40    2.30
   1   3 -12   14.50    3.70
   1   3 -12   17.00    2.80
   1   3 -12   16.70    3.20
  -1  -3  12   22.40    3.80
  -1  -3  12   16.40    2.80
  -1  -3  12   15.10    2.30
  -1  -3  12   20.00    3.40
  -1  -3  12   17.10    4.20
   0   3 -12   -0.80    1.90
   0   3 -12   -0.40    2.00
   0  -3  12    6.50    3.20
   0  -3  12   -0.30    3.20
   0  -3  12    1.70    1.90
   0  -3  12    1.60    2.60
  -1   3 -12    1.80    2.00
  -1   3 -12    1.20    2.10
  -1   3 -12    3.70    1.90
   1  -3  12   -2.20    2.80
   1  -3  12   -2.60    3.30
   1  -3  12   -5.40    2.50
   1  -3  12   -0.50    1.90
  -2   3 -12    4.40    2.20
  -2   3 -12   -1.50    2.00
  -2   3 -12    2.80    3.20
   2  -3  12    6.60    4.10
   2  -3  12   -0.30    1.90
  -3   3 -12   -0.10    2.60
   3  -3  12    2.20    5.20
   3  -3  12   -2.50    1.70
  -4   3 -12    0.00    5.50
  -4   3 -12    1.30    3.70
  -4   3 -12   -0.60    2.90
   4  -3  12    9.50    6.40
   4  -3  12    1.80    2.60
  -5   3 -12   -3.20    6.60
  -5   3 -12   10.40    4.40
  -5   3 -12    3.80    5.40
   5  -3  12    6.10    7.70
   5  -3  12    9.30    4.20
   5   2 -12    0.90    3.60
   5   2 -12   -2.00    3.70
  -5  -2  12    3.10    4.20
  -5  -2  12    7.10    5.10
   4   2 -12   -1.90    2.70
   4   2 -12   -2.90    2.90
  -4  -2  12    7.30    2.60
  -4  -2  12    6.80    3.90
  -4  -2  12   -1.90    3.20
   3   2 -12    1.20    2.50
  -3  -2  12   -0.60    3.00
  -3  -2  12    0.70    1.70
  -3  -2  12    4.80    2.60
  -3  -2  12   -1.10    2.50
   2   2 -12    0.60    2.30
   2   2 -12    1.40    1.90
   2   2 -12    0.50    2.00
  -2  -2  12    1.30    2.50
  -2  -2  12    0.10    1.40
  -2  -2  12    2.00    2.10
  -2  -2  12   -3.00    3.00
   1   2 -12    4.80    2.90
   1   2 -12    6.90    2.10
   1   2 -12    2.30    1.90
  -1  -2  12   10.00    2.10
  -1  -2  12    8.70    1.70
  -1  -2  12    7.00    2.20
  -1  -2  12    4.20    2.40
   0   2 -12    2.70    2.00
   0   2 -12    5.90    1.90
   0   2 -12    5.40    2.00
   0  -2  12    9.70    2.60
   0  -2  12    8.60    2.20
   0  -2  12    3.90    3.10
   0  -2  12    7.40    1.90
  -1   2 -12   13.00    2.30
  -1   2 -12   10.00    2.30
  -1   2 -12   13.60    2.40
   1  -2  12   12.90    2.40
   1  -2  12   14.60    3.10
   1  -2  12   12.40    3.00
  -2   2 -12    2.80    2.30
  -2   2 -12    4.20    2.50
  -2   2 -12    4.70    2.20
   2  -2  12    0.60    2.30
   2  -2  12   -4.20    3.40
   2  -2  12    3.10    2.10
  -3   2 -12    3.10    2.40
  -3   2 -12    0.80    2.30
   3  -2  12    0.20    2.20
   3  -2  12   -3.20    3.90
   3  -2  12   -1.70    1.80
  -4   2 -12   11.60    4.00
  -4   2 -12   21.10    5.70
   4  -2  12   26.90    6.60
   4  -2  12   11.30    2.80
  -5   2 -12   -1.50    6.60
  -5   2 -12   -2.30    4.90
  -5   2 -12   10.10    4.10
   5  -2  12   -5.00    3.40
   5  -2  12   -1.20    6.60
   5   1 -12    0.60    3.60
   5   1 -12   -0.80    3.30
  -5  -1  12   -2.00    3.70
  -5  -1  12    1.70    4.60
  -5  -1  12   -5.80    3.80
   4   1 -12   -0.80    2.80
   4   1 -12    2.80    2.90
   4   1 -12   -2.60    2.10
  -4  -1  12   -3.70    3.20
  -4  -1  12    2.20    2.60
  -4  -1  12    0.30    3.40
   3   1 -12    4.60    2.40
   3   1 -12   -3.40    2.00
  -3  -1  12   -4.10    2.60
  -3  -1  12   -3.40    2.70
  -3  -1  12    2.90    2.00
   2   1 -12   13.20    2.50
   2   1 -12   11.60    2.10
   2   1 -12   11.90    2.70
  -2  -1  12   12.00    2.00
  -2  -1  12   15.10    3.00
  -2  -1  12    6.00    3.10
  -2  -1  12   13.30    2.70
   1   1 -12   11.80    2.70
   1   1 -12   18.00    2.90
   1   1 -12   16.20    2.70
  -1  -1  12   17.10    2.50
  -1  -1  12   15.40    2.70
  -1  -1  12   17.70    2.10
  -1  -1  12   14.60    2.70
   0   1 -12    3.30    2.60
   0   1 -12    0.40    1.60
   0   1 -12   -1.00    1.60
   0   1 -12    3.30    1.90
   0  -1  12    1.90    2.00
   0  -1  12   -5.20    2.60
   0  -1  12    0.70    1.30
   0  -1  12   -2.30    1.20
   0  -1  12   -0.20    2.00
   0  -1  12    0.50    1.60
  -1   1 -12   16.10    2.60
  -1   1 -12   17.10    2.60
  -1   1 -12   19.00    2.90
   1  -1  12   13.00    2.90
   1  -1  12   16.10    2.60
   1  -1  12   18.10    2.70
   1  -1  12   16.70    3.20
  -2   1 -12   21.10    3.00
  -2   1 -12   14.90    2.70
  -2   1 -12   16.90    3.00
   2  -1  12   18.00    1.70
   2  -1  12   17.10    2.90
   2  -1  12   20.00    3.00
  -3   1 -12    4.60    2.60
  -3   1 -12    6.60    2.60
   3  -1  12    1.30    2.40
   3  -1  12    3.20    2.70
   3  -1  12    5.30    1.90
  -4   1 -12   27.90    4.40
  -4   1 -12   33.90    6.60
  -4   1 -12   36.40    4.60
   4  -1  12   27.90    6.40
   4  -1  12   30.90    3.80
   4  -1  12   36.90    4.10
  -5   1 -12    3.80    4.70
  -5   1 -12   18.30    6.80
  -5   1 -12    4.20    3.90
   5  -1  12   -2.20    6.00
   5  -1  12   12.10    3.80
   5   0 -12    7.00    3.70
   5   0 -12    6.10    3.70
   5   0 -12    0.30    3.30
  -5   0  12    4.30    3.80
  -5   0  12   -2.10    4.20
   4   0 -12    1.30    2.80
   4   0 -12   -2.30    2.50
   4   0 -12   -2.00    2.10
  -4   0  12   -0.30    2.60
  -4   0  12   -3.10    3.10
  -4   0  12   -2.20    3.10
   3   0 -12    5.50    2.50
   3   0 -12    1.90    2.10
  -3   0  12    1.80    2.60
  -3   0  12   -2.10    2.40
  -3   0  12    1.30    2.10
   2   0 -12    7.60    1.80
   2   0 -12    8.50    2.40
   2   0 -12    7.50    2.20
  -2   0  12   11.10    2.50
  -2   0  12   11.70    2.00
  -2   0  12   11.30    2.70
  -2   0  12    8.10    3.00
   1   0 -12   26.50    3.20
   1   0 -12   40.60    3.90
   1   0 -12   33.40    3.30
  -1   0  12   34.70    3.30
  -1   0  12   29.00    3.40
  -1   0  12   32.60    3.50
  -1   0  12   31.70    2.90
   0   0 -12    5.30    2.50
   0   0 -12    8.40    2.00
   0   0 -12    5.90    2.20
   0   0 -12    4.90    2.00
   0   0  12    5.50    2.00
   0   0  12    5.80    2.00
   0   0  12    2.90    1.30
   0   0  12    4.30    1.60
   0   0  12    7.50    1.90
  -1   0 -12    2.70    2.50
  -1   0 -12    3.00    1.70
  -1   0 -12    3.50    2.00
  -1   0 -12    2.20    2.10
   1   0  12    1.80    0.80
   1   0  12    1.50    2.00
   1   0  12    2.40    0.90
   1   0  12   -0.70    2.30
   1   0  12    2.50    1.90
  -2   0 -12   38.00    4.30
  -2   0 -12   29.10    3.60
  -2   0 -12   29.10    3.60
   2   0  12   41.00    4.30
   2   0  12   28.10    2.50
   2   0  12   37.50    3.80
   2   0  12   28.70    3.80
  -3   0 -12   -1.40    2.20
  -3   0 -12    0.40    2.40
   3   0  12    5.00    2.60
   3   0  12   -1.60    1.80
   3   0  12    3.00    2.60
  -4   0 -12   14.20    4.90
  -4   0 -12   -1.80    3.40
  -4   0 -12    7.70    3.10
   4   0  12   -1.10    3.10
   4   0  12    0.90    2.60
  -5   0 -12    4.80    4.50
  -5   0 -12   12.70    6.40
  -5   0 -12   10.50    4.00
   5   0  12    5.60    5.60
   5   0  12   20.30    4.10
   5   0  12   11.50    4.10
  -6   0 -12    1.80    8.20
   5  -1 -12   -1.90    3.40
   5  -1 -12   -1.00    3.20
   5  -1 -12    2.20    3.40
  -5   1  12    7.10    4.20
  -5   1  12    1.90    3.50
   4  -1 -12    0.80    2.30
   4  -1 -12   -1.30    2.60
   4  -1 -12    1.20    2.40
  -4   1  12   -1.00    2.90
  -4   1  12    3.60    3.00
  -4   1  12   -0.70    3.00
   3  -1 -12    4.90    2.40
  -3   1  12    1.10    2.30
  -3   1  12    1.50    2.40
  -3   1  12   -1.00    2.90
   2  -1 -12    1.10    1.90
   2  -1 -12    2.70    1.40
   2  -1 -12   -1.80    1.70
  -2   1  12    1.00    1.80
  -2   1  12    1.20    1.70
  -2   1  12    0.10    2.10
   1  -1 -12   57.79    4.60
   1  -1 -12   54.29    4.00
   1  -1 -12   54.89    4.00
  -1   1  12   56.49    3.60
  -1   1  12   62.79    3.70
  -1   1  12   51.79    4.00
  -1   1  12   65.09    4.40
   0  -1 -12   33.50    3.80
   0  -1 -12   31.50    3.10
   0  -1 -12   34.80    3.30
   0  -1 -12   33.70    3.60
   0   1  12   32.20    2.60
   0   1  12   33.30    3.10
   0   1  12   36.60    3.20
   0   1  12   31.30    3.50
  -1  -1 -12   24.80    3.20
  -1  -1 -12   21.80    3.00
  -1  -1 -12   25.60    3.30
  -1  -1 -12   16.70    2.70
   1   1  12   21.10    2.10
   1   1  12   18.60    1.70
   1   1  12   26.30    3.30
   1   1  12   23.80    3.30
  -2  -1 -12   38.10    4.50
  -2  -1 -12   42.80    4.00
  -2  -1 -12   36.80    3.90
   2   1  12   45.90    4.10
   2   1  12   40.20    4.30
  -3  -1 -12    0.00    2.40
  -3  -1 -12    1.20    2.30
  -3  -1 -12   -1.10    3.50
   3   1  12    4.20    2.80
   3   1  12    2.70    1.90
   3   1  12    8.20    3.30
  -4  -1 -12    4.10    5.00
  -4  -1 -12    3.80    2.90
   4   1  12    1.60    1.50
   4   1  12    5.60    3.20
   4   1  12    2.40    2.50
  -5  -1 -12    1.90    4.40
  -5  -1 -12    8.60    6.00
  -5  -1 -12    2.30    3.70
   5   1  12    2.00    4.10
   5   1  12    7.20    5.60
   5   1  12   10.20    3.80
  -6  -1 -12   14.00    8.00
  -6  -1 -12    8.80    5.70
   6   1  12   15.40    5.10
   6   1  12   -0.20    7.10
   6   1  12   15.20    5.30
   5  -2 -12   12.30    3.80
   5  -2 -12   -0.30    3.40
   5  -2 -12    2.40    3.30
  -5   2  12   -0.90    3.90
  -5   2  12   -4.80    3.40
  -5   2  12    1.40    4.20
   4  -2 -12    5.10    2.90
   4  -2 -12    1.80    2.70
   4  -2 -12    8.60    2.80
  -4   2  12    7.40    3.00
  -4   2  12    3.90    3.10
  -4   2  12    5.60    3.40
   3  -2 -12   -0.80    2.30
   3  -2 -12    8.80    4.20
  -3   2  12    0.30    2.10
  -3   2  12    0.90    2.40
  -3   2  12   -2.80    2.50
   2  -2 -12    7.30    2.40
   2  -2 -12    7.50    2.30
   2  -2 -12    6.00    1.50
  -2   2  12    6.30    2.10
  -2   2  12    7.70    2.00
  -2   2  12    6.70    1.70
  -2   2  12    8.10    2.30
   1  -2 -12   64.29    4.20
   1  -2 -12   70.79    4.50
  -1   2  12   65.89    4.40
  -1   2  12   66.19    3.50
  -1   2  12   71.39    4.20
   0  -2 -12  222.68    8.10
   0  -2 -12  205.68    7.80
   0  -2 -12  208.18    7.60
   0  -2 -12  209.88    6.70
   0   2  12  212.68    7.30
   0   2  12  204.48    7.80
   0   2  12  197.58    6.70
   0   2  12  211.98    6.80
  -1  -2 -12   31.00    3.40
  -1  -2 -12   34.20    3.60
  -1  -2 -12   29.20    3.30
   1   2  12   26.50    3.30
   1   2  12   34.80    2.60
   1   2  12   29.90    3.40
   1   2  12   32.90    2.60
  -2  -2 -12   -3.30    2.40
  -2  -2 -12    0.60    2.20
  -2  -2 -12   -1.40    1.80
   2   2  12   -0.30    2.20
   2   2  12    3.90    2.30
   2   2  12    0.40    1.30
  -3  -2 -12   -3.50    2.40
  -3  -2 -12    2.60    2.90
  -3  -2 -12    0.90    2.30
   3   2  12   -1.20    2.70
   3   2  12    5.60    2.90
   3   2  12   -1.10    1.50
  -4  -2 -12    4.20    3.00
  -4  -2 -12    1.60    4.30
  -4  -2 -12   -1.70    3.10
   4   2  12    4.90    3.40
   4   2  12   -0.30    1.80
  -5  -2 -12   20.20    6.20
  -5  -2 -12    0.50    4.20
  -5  -2 -12   14.40    4.30
   5   2  12    6.50    4.50
   5   2  12    2.90    2.50
   5   2  12    8.10    3.50
  -6  -2 -12   32.00    8.70
  -6  -2 -12   16.70    5.80
   6   2  12   20.60    6.60
   6   2  12   19.30    5.30
   6   2  12   26.70    5.80
   5  -3 -12    3.30    3.70
  -5   3  12    1.20    3.90
  -5   3  12    4.10    3.80
  -5   3  12   12.80    4.60
   4  -3 -12    5.50    2.90
   4  -3 -12    2.60    2.90
   4  -3 -12   -1.70    2.70
  -4   3  12    4.80    3.30
  -4   3  12    1.10    2.50
  -4   3  12    9.90    3.70
   3  -3 -12    1.40    2.30
   3  -3 -12    3.60    2.50
  -3   3  12    6.80    2.70
  -3   3  12   -4.20    3.70
  -3   3  12    3.80    1.90
  -3   3  12    3.30    2.60
   2  -3 -12   -0.10    1.90
   2  -3 -12    3.70    2.30
  -2   3  12    3.00    2.20
  -2   3  12    0.10    2.20
  -2   3  12   -2.40    1.90
  -2   3  12    2.50    1.40
   1  -3 -12   50.49    4.00
   1  -3 -12   41.90    4.00
  -1   3  12   48.10    3.80
  -1   3  12   44.50    3.80
  -1   3  12   51.39    3.40
   0  -3 -12   14.60    3.40
   0  -3 -12   15.80    2.80
   0  -3 -12   16.20    2.90
   0   3  12   22.10    3.10
   0   3  12   15.50    2.70
   0   3  12   15.50    2.40
   0   3  12   20.00    2.70
  -1  -3 -12   61.89    4.50
  -1  -3 -12   65.79    4.50
  -1  -3 -12   66.19    3.60
   1   3  12   68.09    4.60
   1   3  12   66.09    3.80
   1   3  12   62.39    3.70
   1   3  12   63.99    4.50
  -2  -3 -12   -1.20    2.10
  -2  -3 -12    1.50    2.10
  -2  -3 -12   -0.40    2.00
   2   3  12    0.70    2.20
   2   3  12    0.60    1.50
   2   3  12   -1.70    2.40
  -3  -3 -12    5.60    2.90
  -3  -3 -12   -0.20    3.10
  -3  -3 -12    2.80    2.80
  -3  -3 -12    3.80    2.50
   3   3  12    6.30    2.90
   3   3  12    5.60    1.90
   3   3  12    9.60    3.30
  -4  -3 -12   -0.10    4.20
  -4  -3 -12    8.80    3.70
   4   3  12    6.70    4.30
   4   3  12    2.90    2.20
  -5  -3 -12   -2.50    5.50
  -5  -3 -12   -0.40    4.10
   5   3  12    0.00    4.50
   5   3  12    2.50    2.70
  -6  -3 -12    9.90    5.40
  -6  -3 -12   -6.30    7.30
   6   3  12    3.30    4.80
   6   3  12   -4.80    5.50
   5  -4 -12   -0.80    3.50
   5  -4 -12    1.70    4.30
  -5   4  12    6.70    4.90
  -5   4  12   -5.70    3.70
   4  -4 -12    2.60    3.10
   4  -4 -12    2.30    2.90
  -4   4  12    2.50    3.50
  -4   4  12    2.10    2.30
  -4   4  12    1.10    3.10
   3  -4 -12    0.70    2.60
   3  -4 -12    1.90    2.60
  -3   4  12    7.10    2.80
  -3   4  12    3.70    3.00
   2  -4 -12    4.20    2.40
   2  -4 -12    4.70    1.70
   2  -4 -12    6.40    2.50
  -2   4  12    4.70    2.30
  -2   4  12    4.70    2.50
  -2   4  12   10.50    3.00
  -2   4  12    4.60    1.10
   1  -4 -12   18.70    3.00
   1  -4 -12   16.80    3.70
   1  -4 -12   16.40    3.20
  -1   4  12   23.80    3.00
  -1   4  12   18.90    2.90
  -1   4  12   23.30    3.30
   0  -4 -12   24.40    3.30
   0  -4 -12   16.80    3.50
   0  -4 -12   19.10    3.50
   0   4  12   16.90    2.70
   0   4  12   18.50    2.60
   0   4  12   20.40    3.20
   0   4  12   19.20    2.90
  -1  -4 -12   51.29    4.40
  -1  -4 -12   45.70    4.60
   1   4  12   51.79    4.40
   1   4  12   49.70    4.10
   1   4  12   51.19    3.70
   1   4  12   59.99    4.40
  -2  -4 -12    6.70    2.60
  -2  -4 -12    8.90    2.10
  -2  -4 -12    1.50    2.40
   2   4  12   10.10    3.00
   2   4  12    5.90    1.90
   2   4  12   11.20    3.00
  -3  -4 -12   33.30    3.90
  -3  -4 -12   33.20    4.60
  -3  -4 -12   30.20    4.50
  -3  -4 -12   39.10    4.90
   3   4  12   45.80    5.30
   3   4  12   49.20    5.30
   3   4  12   37.50    3.60
  -4  -4 -12    0.00    3.70
  -4  -4 -12   -2.50    3.30
   4   4  12   -1.00    3.70
   4   4  12    4.10    4.00
   4   4  12   -1.50    2.20
  -5  -4 -12   -1.20    5.30
  -5  -4 -12   12.40    4.50
   5   4  12    7.40    4.70
   5   4  12    9.90    3.20
  -6  -4 -12   13.40    7.80
  -6  -4 -12    7.40    5.80
   6   4  12    4.00    4.90
   6   4  12   -0.20    5.70
   5  -5 -12    5.50    3.80
  -5   5  12    1.40    5.00
  -5   5  12   10.20    4.40
   4  -5 -12   -1.60    2.80
   4  -5 -12    0.00    3.40
  -4   5  12    1.90    3.50
  -4   5  12    1.70    3.90
   3  -5 -12    2.50    2.70
   3  -5 -12    2.60    3.00
  -3   5  12    1.20    2.60
  -3   5  12   -6.30    2.80
   2  -5 -12   14.00    2.50
   2  -5 -12   19.90    3.60
   2  -5 -12   17.20    3.10
  -2   5  12   22.60    3.50
  -2   5  12   22.50    3.20
   1  -5 -12    0.10    2.40
   1  -5 -12    2.80    3.30
   1  -5 -12    2.20    2.20
  -1   5  12    1.70    2.20
  -1   5  12    2.00    2.80
  -1   5  12    1.10    2.10
   0  -5 -12   14.90    3.20
   0  -5 -12   11.10    2.70
   0  -5 -12   11.60    3.20
   0   5  12    7.20    2.70
   0   5  12   14.00    2.80
   0   5  12   11.50    2.50
   0   5  12   14.30    2.90
  -1  -5 -12    2.60    2.40
  -1  -5 -12    3.10    2.90
  -1  -5 -12    3.90    0.90
  -1  -5 -12    4.10    2.60
   1   5  12    2.60    2.70
   1   5  12    4.00    2.40
   1   5  12    4.00    2.40
   1   5  12    2.90    1.90
  -2  -5 -12   -3.60    2.30
  -2  -5 -12   -2.60    2.70
  -2  -5 -12    0.10    1.70
  -2  -5 -12    0.00    2.30
   2   5  12    1.80    2.00
   2   5  12   -0.70    2.50
   2   5  12   -1.10    2.30
  -3  -5 -12    4.90    2.90
  -3  -5 -12    2.20    3.50
  -3  -5 -12    0.10    3.00
   3   5  12    1.80    2.10
   3   5  12   13.40    6.30
  -4  -5 -12   -7.50    3.20
  -4  -5 -12    4.50    3.80
   4   5  12    2.10    4.00
   4   5  12   -4.00    3.60
   4   5  12    3.10    2.60
  -5  -5 -12   -5.20    4.30
  -5  -5 -12    1.00    5.10
   5   5  12   -0.50    3.40
   5   5  12   -5.40    4.60
   4  -6 -12   -4.20    3.90
  -4   6  12   -5.80    3.90
  -4   6  12    3.50    3.60
   3  -6 -12    3.90    3.00
  -3   6  12   10.90    3.40
  -3   6  12   12.30    3.80
   2  -6 -12    1.50    3.10
   2  -6 -12    1.50    2.30
   2  -6 -12    5.10    2.60
  -2   6  12    2.20    2.80
   1  -6 -12    3.70    2.30
   1  -6 -12    1.30    2.90
   1  -6 -12   -2.70    3.30
  -1   6  12   -3.00    2.20
  -1   6  12    0.70    2.30
  -1   6  12    0.20    2.30
   0  -6 -12    1.10    2.60
   0  -6 -12    3.10    2.90
   0  -6 -12   -2.00    2.20
   0   6  12    4.80    2.40
   0   6  12    5.00    2.30
   0   6  12   -1.60    2.20
  -1  -6 -12    0.40    2.30
  -1  -6 -12    5.10    2.70
  -1  -6 -12    4.40    3.20
   1   6  12   -2.40    2.50
   1   6  12   -3.50    2.10
   1   6  12   -0.60    2.00
  -2  -6 -12    0.20    2.80
  -2  -6 -12    0.40    2.50
  -2  -6 -12    3.30    2.00
   2   6  12    6.80    3.50
   2   6  12    0.60    2.80
   2   6  12    3.20    2.10
  -3  -6 -12    1.80    2.90
   3   6  12    4.10    3.30
   3   6  12   -5.20    3.30
   3   6  12    2.20    2.40
  -4  -6 -12    7.50    4.00
  -4  -6 -12   -1.20    4.00
   4   6  12   11.60    4.50
   4   6  12    2.50    4.00
   4   6  12    3.90    3.10
  -5  -6 -12    4.30    4.80
   5   6  12    2.50    3.80
   5   6  12   10.10    5.30
   4  -7 -12    2.50    3.70
   4  -7 -12   -0.60    6.80
  -4   7  12    8.60    4.50
   3  -7 -12    2.70    3.20
  -3   7  12   -6.50    3.80
  -3   7  12    5.80    3.40
   2  -7 -12   10.00    3.00
   2  -7 -12    3.20    2.80
  -2   7  12    2.00    3.20
  -2   7  12    2.90    2.80
   1  -7 -12    1.90    2.90
   1  -7 -12   -1.00    2.70
  -1   7  12   -3.30    2.50
  -1   7  12   -2.80    2.50
  -1   7  12   -1.20    4.10
   0  -7 -12    8.10    3.00
   0   7  12   11.90    3.00
   0   7  12   12.50    5.20
   0   7  12   14.10    3.20
  -1  -7 -12    5.20    2.30
  -1  -7 -12   10.50    3.10
   1   7  12   12.90    3.10
   1   7  12    7.00    4.80
   1   7  12    2.20    2.90
  -2  -7 -12    0.60    2.40
   2   7  12   -0.50    2.40
   2   7  12    1.80    3.10
  -3  -7 -12   27.10    4.80
  -3  -7 -12   29.20    4.00
   3   7  12   26.00    4.70
   3   7  12   20.70    4.40
   3   7  12   28.80    4.10
  -4  -7 -12   -4.50    4.20
  -4  -7 -12   -1.20    4.30
   4   7  12   16.60    5.10
   4   7  12    2.90    3.30
   4   7  12   -2.10    4.30
  -5  -7 -12   -0.80    6.10
  -5  -7 -12   -3.00    5.50
   5   7  12   -1.80    5.40
   5   7  12    1.20    4.20
   5   7  12    6.60    5.80
   3  -8 -12    1.70    3.50
   3  -8 -12   12.40    6.30
  -3   8  12    6.20    3.80
  -3   8  12   -0.30    4.40
   2  -8 -12    3.70    3.40
   2  -8 -12    4.20    3.30
  -2   8  12   -4.10    3.20
  -2   8  12   -3.60    3.40
  -2   8  12    8.30    3.30
   1  -8 -12   10.40    3.60
   1  -8 -12    7.70    3.40
  -1   8  12    1.40    3.10
  -1   8  12   12.50    3.70
  -1   8  12   11.70    3.80
   0  -8 -12   -0.40    3.30
   0   8  12    0.90    2.70
   0   8  12   -2.90    2.90
   0   8  12    2.70    3.00
  -1  -8 -12    2.40    3.60
   1   8  12    5.20    3.00
   1   8  12    6.20    3.50
   1   8  12    0.60    3.20
  -2  -8 -12    1.70    3.10
  -2  -8 -12   -2.10    4.00
   2   8  12    3.10    3.30
   2   8  12   -1.10    3.10
   2   8  12    7.60    3.20
  -3  -8 -12   -0.40    4.20
   3   8  12    2.00    3.80
   3   8  12   -3.80    3.80
   3   8  12   -0.10    3.20
  -4  -8 -12   -3.30    4.70
  -4  -8 -12    0.50    4.60
   4   8  12   -6.50    3.70
   4   8  12    1.10    5.10
   4   8  12    0.70    4.80
   3  -9 -12   10.20    7.70
  -3   9  12   -4.80    4.00
  -3   9  12    6.70    4.40
  -3   9  12    0.80    4.30
   2  -9 -12    9.70    4.70
   2  -9 -12    8.40    4.20
   2  -9 -12   22.40    6.80
  -2   9  12    4.40    3.90
  -2   9  12    6.80    4.30
  -2   9  12    4.60    4.30
   1  -9 -12    5.30    3.70
   1  -9 -12    0.00    4.20
   1  -9 -12   -2.70    5.60
  -1   9  12   -2.40    3.10
  -1   9  12    0.70    3.30
  -1   9  12   -0.40    3.40
   0  -9 -12    2.90    4.70
   0  -9 -12    4.40    5.00
   0  -9 -12    0.10    4.00
   0   9  12   -1.20    3.30
   0   9  12    1.20    3.40
   0   9  12    9.20    3.60
  -1  -9 -12   11.90    5.10
  -1  -9 -12   18.70    4.50
   1   9  12    8.10    3.70
   1   9  12   14.00    4.00
   1   9  12    8.80    4.00
  -2  -9 -12   -2.20    4.30
  -2  -9 -12    3.80    4.90
   2   9  12   -0.80    3.30
   2   9  12    0.20    3.70
   2   9  12   -3.70    4.10
  -3  -9 -12    0.60    4.80
  -3  -9 -12   -7.00    5.10
   3   9  12    7.10    4.80
   3   9  12    0.00    3.70
   3   9  12   -3.80    4.00
  -4  -9 -12    5.00   11.30
  -4  -9 -12    9.00    5.90
   4   9  12   -0.80    5.50
   4   9  12    0.30    4.40
   4   9  12   -4.10    5.10
   2 -10 -12   11.00    5.30
   2 -10 -12   -2.30    7.60
  -2  10  12    2.90    4.50
  -2  10  12   -6.90    4.10
  -2  10  12    6.50    4.60
   1 -10 -12   15.00    6.40
   1 -10 -12    8.50    5.10
  -1  10  12    6.20    4.30
  -1  10  12    1.40    4.10
  -1  10  12    4.00    4.00
   0 -10 -12   -0.70    4.30
   0 -10 -12   -2.60    4.70
   0 -10 -12    3.70    6.10
   0  10  12    8.00    3.90
   0  10  12    0.30    3.80
   0  10  12   -4.70    3.70
  -1 -10 -12    3.30    5.50
  -1 -10 -12   -6.30    4.60
   1  10  12    6.30    4.20
   1  10  12   -2.30    3.50
   1  10  12    5.80    4.30
  -2 -10 -12   -1.80    5.10
  -2 -10 -12   -3.40    5.70
   2  10  12   -3.60    4.10
   2  10  12    8.30    4.80
   2  10  12    1.10    4.30
  -3 -10 -12   -4.90    5.50
  -3 -10 -12    5.80    6.60
   3  10  12    4.50    4.40
   3  10  12    5.10    4.60
   3  10  12    6.60    5.60
   0 -11 -12   12.60    7.40
   0 -11 -12   -1.20    5.90
   0  11  12   -0.10    4.70
   0  11  12    6.90    4.50
   0  11  12   -5.40    4.50
  -1 -11 -12    2.70    5.90
  -1 -11 -12    1.00    6.80
   1  11  12    0.70    5.00
   1  11  12    1.60    4.90
   1  11  12    1.70    4.40
   0   7 -13   21.80    4.20
   0   7 -13   16.90    4.10
   0  -7  13   25.50    6.00
   0  -7  13   20.60    7.50
   2   6 -13    0.40    3.70
   2   6 -13   -0.50    3.70
  -2  -6  13    2.50    4.80
   1   6 -13    4.90    3.20
   1   6 -13   -2.40    3.20
  -1  -6  13   -8.30    5.10
  -1  -6  13    8.20    4.50
   0   6 -13    4.70    3.40
   0   6 -13   -0.30    3.50
   0  -6  13    7.60    5.80
   0  -6  13    4.90    4.60
  -1   6 -13    3.70    3.40
   1  -6  13    2.10    5.20
   1  -6  13    5.60    6.50
  -2   6 -13   -3.50    3.30
   2  -6  13    8.30    7.30
   3   5 -13   -2.10    3.30
   3   5 -13    4.70    3.80
  -3  -5  13    2.30    3.90
  -3  -5  13    3.60    5.00
   2   5 -13    3.80    3.00
   2   5 -13   -0.90    3.10
  -2  -5  13   -4.40    4.10
  -2  -5  13    3.20    3.30
   1   5 -13    4.40    3.20
   1   5 -13    9.90    3.20
  -1  -5  13   10.20    2.80
  -1  -5  13    5.90    3.80
  -1  -5  13   10.60    4.90
   0   5 -13    1.10    2.60
   0   5 -13   -8.50    4.60
   0  -5  13   -4.80    4.70
   0  -5  13   -2.30    3.80
  -1   5 -13   -1.80    2.60
  -1   5 -13    0.30    2.70
   1  -5  13    6.10    5.30
   1  -5  13   -2.30    4.30
  -2   5 -13    5.40    3.40
  -2   5 -13    0.70    3.00
   2  -5  13    2.40    5.80
  -3   5 -13    3.00    3.50
   3  -5  13   -5.00    6.90
   3   4 -13    3.60    3.50
   3   4 -13    2.90    3.30
  -3  -4  13    2.60    3.50
  -3  -4  13   -4.60    4.40
   2   4 -13    6.50    3.00
   2   4 -13   12.70    3.50
  -2  -4  13   -0.20    2.90
  -2  -4  13    6.10    3.80
  -2  -4  13    0.00    3.40
   1   4 -13   -2.20    2.60
   1   4 -13    4.40    2.60
  -1  -4  13    2.60    2.50
  -1  -4  13    4.50    3.40
  -1  -4  13   -4.20    3.90
   0   4 -13    5.80    2.70
   0   4 -13    5.00    2.60
   0  -4  13    3.10    2.40
   0  -4  13   -0.20    4.20
   0  -4  13    1.50    3.30
  -1   4 -13    0.20    2.50
  -1   4 -13   -1.60    2.50
   1  -4  13    1.10    2.10
   1  -4  13    6.40    3.80
   1  -4  13   -2.30    5.40
  -2   4 -13    1.70    2.70
  -2   4 -13    3.40    3.00
   2  -4  13    0.90    5.00
  -3   4 -13   -5.40    3.00
  -3   4 -13    2.80    3.60
   3  -4  13   10.10    6.80
  -4   4 -13    1.00    3.90
  -4   4 -13   -1.50    4.80
  -4   4 -13    0.40    7.30
   4  -4  13    1.30    7.60
   4   3 -13   -0.60    3.20
   4   3 -13    0.50    3.60
  -4  -3  13   -3.80    5.10
  -4  -3  13    2.10    3.90
   3   3 -13    1.60    3.10
   3   3 -13    4.70    3.20
  -3  -3  13    0.60    3.90
  -3  -3  13   -1.40    3.20
   2   3 -13    8.80    2.90
   2   3 -13    6.60    2.80
  -2  -3  13   10.70    3.20
  -2  -3  13    6.90    3.50
  -2  -3  13   10.00    4.20
   1   3 -13    3.80    4.50
   1   3 -13   -4.00    2.20
  -1  -3  13    1.00    2.40
  -1  -3  13    2.20    2.90
  -1  -3  13    8.30    3.70
   0   3 -13    3.70    2.40
   0   3 -13    1.80    2.20
   0  -3  13    6.40    3.80
   0  -3  13   -1.90    2.30
   0  -3  13   -0.70    3.00
  -1   3 -13    2.30    2.50
  -1   3 -13    1.20    2.20
   1  -3  13    2.50    4.00
   1  -3  13    1.20    3.50
   1  -3  13    1.80    2.30
  -2   3 -13    2.50    2.50
  -2   3 -13    1.10    2.60
   2  -3  13    0.10    2.20
   2  -3  13    7.20    4.60
  -3   3 -13   -0.90    2.90
  -3   3 -13    2.60    3.00
   3  -3  13   -3.80    5.70
  -4   3 -13    8.90    3.80
  -4   3 -13    5.10    6.20
  -4   3 -13   -3.80    4.30
   4  -3  13    1.50    7.10
   4   2 -13    4.00    3.50
   4   2 -13    4.20    3.30
  -4  -2  13   -3.10    3.60
  -4  -2  13   -6.20    4.30
   3   2 -13   10.70    3.20
   3   2 -13    4.50    2.80
  -3  -2  13    1.30    3.00
  -3  -2  13    1.10    2.10
  -3  -2  13   -1.00    3.10
   2   2 -13   14.10    3.10
   2   2 -13   11.70    2.80
  -2  -2  13    4.40    3.10
  -2  -2  13    7.00    2.00
  -2  -2  13    8.90    3.30
   1   2 -13    3.20    2.40
   1   2 -13   -3.90    5.60
   1   2 -13    9.00    2.60
  -1  -2  13    2.90    2.60
  -1  -2  13    5.50    1.80
  -1  -2  13    1.50    2.40
   0   2 -13   13.10    2.80
   0   2 -13   15.60    2.50
   0   2 -13   11.10    3.30
   0  -2  13   15.80    2.60
   0  -2  13   12.40    3.50
   0  -2  13   19.80    3.10
  -1   2 -13   12.40    2.70
  -1   2 -13   10.10    2.70
  -1   2 -13   11.40    3.60
   1  -2  13   10.20    2.70
   1  -2  13    7.20    3.10
   1  -2  13   11.50    3.50
  -2   2 -13    1.20    2.30
  -2   2 -13    0.50    2.30
   2  -2  13    0.20    2.40
   2  -2  13    1.70    4.00
  -3   2 -13   14.30    3.40
  -3   2 -13   17.50    3.50
   3  -2  13   24.60    5.90
   3  -2  13   22.50    3.20
   3  -2  13   14.50    2.30
  -4   2 -13    7.30    4.20
  -4   2 -13    3.10    6.00
  -4   2 -13    3.90    3.50
   4  -2  13   10.60    3.90
   4  -2  13    7.20    6.10
  -5   2 -13   -1.60    5.40
  -5   2 -13   17.40    4.80
  -5   2 -13    8.30    7.90
   5  -2  13    0.20    7.60
   4   1 -13    1.80    3.10
   4   1 -13    6.20    3.20
  -4  -1  13    1.80    4.30
  -4  -1  13    1.40    3.60
  -4  -1  13    1.20    2.90
   3   1 -13    1.90    2.60
   3   1 -13    4.20    2.70
  -3  -1  13    2.80    2.30
  -3  -1  13    2.80    3.30
  -3  -1  13   -0.20    3.00
   2   1 -13    4.80    4.80
   2   1 -13   11.80    2.90
  -2  -1  13    1.40    2.60
  -2  -1  13    2.30    2.80
  -2  -1  13    5.50    2.00
   1   1 -13    7.40    3.00
   1   1 -13    5.40    2.40
   1   1 -13    4.10    2.30
  -1  -1  13   -0.40    1.70
  -1  -1  13    7.70    2.40
  -1  -1  13   -0.30    2.40
  -1  -1  13    3.10    2.30
   0   1 -13    3.00    2.20
   0   1 -13    3.70    2.40
   0   1 -13    1.90    2.00
   0  -1  13   -1.20    1.30
   0  -1  13    3.30    2.50
   0  -1  13    2.00    2.20
   0  -1  13   -1.20    1.90
  -1   1 -13   10.80    2.80
  -1   1 -13   11.40    2.80
  -1   1 -13    4.60    2.10
   1  -1  13   10.70    2.70
   1  -1  13   12.10    2.80
   1  -1  13   10.70    3.70
  -2   1 -13    1.20    2.60
  -2   1 -13    0.00    2.10
   2  -1  13    0.40    2.50
   2  -1  13   -0.10    3.00
  -3   1 -13    1.30    2.90
  -3   1 -13    4.40    2.70
   3  -1  13    8.10    2.90
   3  -1  13    2.10    1.80
  -4   1 -13   -4.00    5.60
  -4   1 -13   -3.50    3.10
  -4   1 -13    0.90    3.70
   4  -1  13    2.40    3.20
   4  -1  13    4.00    2.60
   4  -1  13   -0.10    5.20
  -5   1 -13    4.40    4.70
  -5   1 -13    6.80    7.40
  -5   1 -13   -3.70    5.10
   5  -1  13    2.70    3.90
   5  -1  13   -6.70    6.70
   5   0 -13   -3.60    3.70
   5   0 -13    2.40    3.90
  -5   0  13   10.20    4.40
  -5   0  13   -6.50    4.40
  -5   0  13   -0.60    5.00
   4   0 -13   -1.20    3.00
   4   0 -13    0.40    3.00
  -4   0  13    2.90    3.20
  -4   0  13    3.40    3.90
  -4   0  13   -0.60    3.30
   3   0 -13   -0.50    2.50
   3   0 -13   -1.70    2.40
  -3   0  13    3.00    2.40
  -3   0  13   -0.10    2.80
  -3   0  13   -2.80    2.80
   2   0 -13   52.69    4.40
   2   0 -13   52.59    4.40
  -2   0  13   53.29    3.90
  -2   0  13   46.50    4.40
  -2   0  13   56.09    7.10
   1   0 -13   28.10    3.70
   1   0 -13   23.10    3.30
   1   0 -13   31.40    3.60
  -1   0  13   33.80    4.00
  -1   0  13   24.80    3.00
  -1   0  13   38.60    4.00
  -1   0  13   30.50    3.70
   0   0 -13    0.80    2.90
   0   0 -13    0.80    2.00
   0   0 -13    4.40    2.30
   0   0 -13    3.80    2.60
   0   0 -13    6.30    3.00
   0   0  13    3.50    1.30
   0   0  13    2.90    1.60
   0   0  13    2.60    2.20
   0   0  13    2.60    2.00
   0   0  13    1.40    2.30
  -1   0 -13   35.20    3.70
  -1   0 -13   26.50    3.50
  -1   0 -13   28.00    3.60
   1   0  13   28.20    3.60
   1   0  13   25.60    1.60
   1   0  13   31.10    3.60
   1   0  13   23.80    1.50
  -2   0 -13   13.80    2.80
  -2   0 -13   15.50    3.20
   2   0  13   20.10    3.30
   2   0  13   20.50    3.60
  -3   0 -13    7.00    5.10
  -3   0 -13    5.10    3.10
   3   0  13    8.40    2.20
   3   0  13   10.60    3.30
  -4   0 -13    3.00    3.40
  -4   0 -13   -1.10    5.50
  -4   0 -13    7.70    3.30
   4   0  13    1.70    2.90
   4   0  13   -2.70    3.40
  -5   0 -13   -3.10    4.20
  -5   0 -13    4.80    5.10
  -5   0 -13  -13.00    6.20
   5   0  13    2.10    4.30
   5   0  13    5.10    4.00
   5   0  13    0.40    7.10
   5  -1 -13    3.90    3.80
  -5   1  13    2.60    4.40
  -5   1  13   -0.10    4.30
  -5   1  13   -6.90    4.80
   4  -1 -13    3.20    3.00
   4  -1 -13   -0.90    3.00
  -4   1  13   -1.20    3.30
  -4   1  13    2.10    3.50
  -4   1  13   -0.90    3.40
   3  -1 -13    4.40    2.50
   3  -1 -13    2.20    2.50
  -3   1  13    1.00    2.60
  -3   1  13    1.30    2.50
  -3   1  13   -0.70    2.60
   2  -1 -13    1.10    3.00
   2  -1 -13    4.40    2.30
  -2   1  13    1.00    2.00
  -2   1  13    1.80    2.10
   1  -1 -13   12.60    2.90
   1  -1 -13    9.00    2.60
   1  -1 -13    9.10    2.50
  -1   1  13    9.20    2.20
  -1   1  13   12.50    2.90
  -1   1  13   13.60    2.90
  -1   1  13   13.00    2.40
   0  -1 -13   25.30    3.40
   0  -1 -13   20.70    3.30
   0  -1 -13   20.00    3.20
   0  -1 -13   20.30    3.30
   0   1  13   19.90    2.90
   0   1  13   19.20    2.60
   0   1  13   21.20    3.20
   0   1  13   25.00    3.10
  -1  -1 -13   21.40    3.40
  -1  -1 -13   18.50    3.00
  -1  -1 -13   25.00    3.50
   1   1  13   14.20    3.10
   1   1  13   24.70    3.30
   1   1  13   18.90    2.30
   1   1  13   18.70    1.60
   1   1  13   18.20    1.70
  -2  -1 -13    1.50    2.30
  -2  -1 -13   -0.90    2.30
   2   1  13    1.90    2.80
   2   1  13   -1.10    1.40
   2   1  13    7.00    2.70
  -3  -1 -13   36.00    6.00
   3   1  13   32.10    3.50
   3   1  13   27.00    1.90
   3   1  13   25.20    4.20
  -4  -1 -13    5.50    3.30
  -4  -1 -13   -0.20    4.80
  -4  -1 -13   -0.50    3.80
   4   1  13   -4.20    2.70
   4   1  13   -7.30    3.40
  -5  -1 -13   10.50    4.80
  -5  -1 -13    5.50    7.10
  -5  -1 -13    3.30    4.90
   5   1  13    4.20    5.70
   5   1  13    1.40    3.80
   5  -2 -13   -2.40    3.90
  -5   2  13   -0.10    4.50
  -5   2  13   15.00    4.90
   4  -2 -13    3.50    3.30
   4  -2 -13    2.90    3.10
  -4   2  13   -6.10    3.20
  -4   2  13    3.30    3.60
  -4   2  13    1.80    3.30
   3  -2 -13   -2.80    2.60
   3  -2 -13   -3.90    2.50
  -3   2  13   -0.80    2.70
  -3   2  13    0.20    2.20
  -3   2  13   -2.90    2.50
   2  -2 -13    2.00    2.50
  -2   2  13   -0.40    2.10
  -2   2  13    5.00    1.90
   1  -2 -13   39.40    4.20
   1  -2 -13   37.20    3.90
  -1   2  13   44.80    2.60
  -1   2  13   42.80    3.30
  -1   2  13   38.70    3.80
  -1   2  13   43.70    4.30
   0  -2 -13   19.80    3.20
   0  -2 -13   20.80    3.10
   0   2  13   21.40    2.90
   0   2  13   24.80    3.40
   0   2  13   27.30    3.60
   0   2  13   23.10    2.20
  -1  -2 -13    2.20    2.40
  -1  -2 -13   -2.20    2.00
  -1  -2 -13    2.70    2.20
   1   2  13    0.70    2.30
   1   2  13    5.10    1.60
   1   2  13    1.50    2.30
   1   2  13   -0.90    1.50
  -2  -2 -13    9.50    3.10
  -2  -2 -13    7.70    2.90
  -2  -2 -13    7.10    2.60
   2   2  13    7.40    2.90
   2   2  13    5.10    1.80
   2   2  13    6.10    2.90
  -3  -2 -13    0.90    3.40
  -3  -2 -13    2.20    5.30
  -3  -2 -13    5.60    4.10
   3   2  13   -0.40    3.10
   3   2  13   -1.50    1.70
   3   2  13    3.90    3.70
  -4  -2 -13   -0.90    3.60
  -4  -2 -13    0.10    4.80
  -4  -2 -13    1.50    3.60
   4   2  13    3.30    2.70
   4   2  13    3.50    1.90
  -5  -2 -13    0.80    4.70
  -5  -2 -13   -2.20    5.90
  -5  -2 -13   -2.80    4.30
   5   2  13   13.60    5.00
   5  -3 -13    3.30    3.90
  -5   3  13    0.20    4.20
   4  -3 -13    0.80    3.00
   4  -3 -13   -2.30    3.40
  -4   3  13   -5.30    2.80
  -4   3  13   -4.50    3.40
  -4   3  13    4.30    3.90
   3  -3 -13   11.80    3.40
   3  -3 -13   14.70    3.30
  -3   3  13   17.50    3.60
  -3   3  13   17.20    3.60
  -3   3  13   17.70    2.50
   2  -3 -13   -1.20    2.40
  -2   3  13    3.90    2.50
  -2   3  13    0.70    2.50
  -2   3  13   -0.70    1.50
   1  -3 -13    7.50    2.80
   1  -3 -13   12.40    2.90
  -1   3  13   12.90    2.60
  -1   3  13   12.10    2.90
  -1   3  13   15.40    2.40
   0  -3 -13  151.48    6.90
   0  -3 -13  163.48    7.40
   0   3  13  161.58    7.10
   0   3  13  150.68    5.50
   0   3  13  149.09    6.00
   0   3  13  148.79    6.50
  -1  -3 -13   11.20    2.30
  -1  -3 -13   11.80    2.90
  -1  -3 -13    9.90    2.50
   1   3  13   12.10    2.80
   1   3  13   11.80    2.30
   1   3  13   16.90    3.30
   1   3  13   10.60    2.10
  -2  -3 -13    1.10    2.50
  -2  -3 -13    0.10    2.60
  -2  -3 -13    3.90    2.40
   2   3  13    3.30    1.70
   2   3  13    2.50    2.80
   2   3  13   -1.20    2.70
  -3  -3 -13   11.20    3.60
  -3  -3 -13    7.40    3.10
  -3  -3 -13    9.20    4.00
   3   3  13    7.10    2.10
   3   3  13    8.30    3.90
   3   3  13    4.30    3.60
  -4  -3 -13   -1.20    5.30
  -4  -3 -13   -3.20    3.80
  -4  -3 -13    5.00    3.90
   4   3  13    4.90    2.40
   4   3  13    8.70    4.10
  -5  -3 -13   -4.20    4.30
  -5  -3 -13    6.80    6.50
   5   3  13    5.90    3.70
   5   3  13   -4.10    4.70
   4  -4 -13    1.00    3.70
   4  -4 -13   -0.10    3.30
  -4   4  13   -2.00    3.40
  -4   4  13    4.50    3.80
   3  -4 -13   -0.80    3.10
   3  -4 -13    5.00    2.90
  -3   4  13    7.10    3.30
  -3   4  13    0.50    3.00
   2  -4 -13   -1.20    2.70
   2  -4 -13    1.20    1.80
  -2   4  13    3.00    2.60
  -2   4  13    2.70    2.70
   1  -4 -13    4.80    2.80
   1  -4 -13    2.10    2.70
  -1   4  13    2.90    2.60
  -1   4  13    6.00    2.60
  -1   4  13    3.60    2.50
   0  -4 -13   42.10    4.80
   0  -4 -13   46.80    4.30
   0   4  13   39.30    3.80
   0   4  13   44.00    4.20
   0   4  13   41.70    4.40
   0   4  13   46.90    4.10
  -1  -4 -13   33.60    4.20
  -1  -4 -13   32.70    2.80
  -1  -4 -13   30.30    4.40
   1   4  13   25.40    3.40
   1   4  13   36.60    4.10
   1   4  13   33.80    4.50
   1   4  13   34.20    4.10
  -2  -4 -13    5.80    3.40
  -2  -4 -13    9.50    5.20
  -2  -4 -13    5.80    2.60
   2   4  13    8.20    3.30
   2   4  13    6.30    2.10
   2   4  13    7.80    3.10
  -3  -4 -13    2.20    3.30
  -3  -4 -13   -0.50    2.80
  -3  -4 -13    3.60    3.70
   3   4  13    0.00    3.30
   3   4  13    3.80    2.20
   3   4  13   -0.50    3.50
  -4  -4 -13    6.70    4.00
  -4  -4 -13    7.30    4.00
  -4  -4 -13    2.60    4.50
   4   4  13    6.20    2.60
   4   4  13    2.20    4.30
   4   4  13    4.60    4.10
  -5  -4 -13  -13.50    5.70
  -5  -4 -13    3.00    4.80
   5   4  13   -1.70    4.80
   5   4  13    2.70    3.40
   4  -5 -13   -0.80    4.30
   4  -5 -13   -0.90    3.40
  -4   5  13    7.10    4.10
  -4   5  13    2.60    3.60
   3  -5 -13    0.50    3.50
   3  -5 -13   -1.10    2.90
  -3   5  13    4.70    3.60
  -3   5  13   -1.70    2.90
   2  -5 -13    5.70    3.30
   2  -5 -13    7.50    2.30
  -2   5  13    6.40    3.40
  -2   5  13    3.40    3.00
   1  -5 -13    5.60    2.60
   1  -5 -13   15.50    3.70
  -1   5  13    8.30    2.90
  -1   5  13    9.50    3.20
  -1   5  13    8.60    2.80
   0  -5 -13    9.60    3.40
   0  -5 -13    8.90    3.60
   0  -5 -13    7.80    2.90
   0   5  13    9.60    3.00
   0   5  13    3.50    3.00
   0   5  13    8.70    2.60
   0   5  13   13.70    3.00
  -1  -5 -13    2.90    3.50
  -1  -5 -13    0.90    2.50
  -1  -5 -13    4.30    3.20
   1   5  13    2.50    2.90
   1   5  13    3.80    3.40
   1   5  13    4.10    2.60
   1   5  13    2.50    2.10
  -2  -5 -13    0.30    3.10
  -2  -5 -13   -0.30    2.70
  -2  -5 -13    3.70    2.70
   2   5  13    5.60    2.30
   2   5  13   -2.40    2.90
   2   5  13   -1.10    4.30
  -3  -5 -13    1.50    3.30
  -3  -5 -13   -4.60    3.30
  -3  -5 -13   -0.10    3.60
   3   5  13    2.20    3.50
   3   5  13    9.20    3.70
   3   5  13   -1.00    2.40
  -4  -5 -13   -0.80    3.80
  -4  -5 -13   -5.70    4.20
   4   5  13    1.90    2.90
   4   5  13   -2.30    4.30
   4   5  13    1.50    4.30
  -5  -5 -13    8.40    5.40
  -5  -5 -13   18.30    6.40
   5   5  13   14.30    5.50
   5   5  13   14.60    4.20
   4  -6 -13   -4.50    3.80
  -4   6  13   -2.80    3.70
  -4   6  13   -0.40    4.60
   3  -6 -13    6.30    4.30
   3  -6 -13   -1.40    3.00
  -3   6  13    4.60    4.00
  -3   6  13    3.10    3.30
   2  -6 -13    8.50    3.50
   2  -6 -13   10.40    4.10
   2  -6 -13    6.50    2.60
  -2   6  13   14.00    3.90
  -2   6  13   13.30    3.60
   1  -6 -13   16.50    4.10
   1  -6 -13   22.20    3.70
  -1   6  13   20.50    3.60
  -1   6  13   12.10    3.30
  -1   6  13   15.40    3.70
   0  -6 -13    8.50    3.10
   0  -6 -13    7.80    3.60
   0   6  13   13.80    3.00
   0   6  13   14.20    3.90
  -1  -6 -13    4.80    3.80
   1   6  13    3.60    2.50
   1   6  13    7.00    3.90
   1   6  13   10.80    3.50
  -2  -6 -13   16.00    3.40
  -2  -6 -13   15.70    4.20
  -2  -6 -13   18.20    3.90
   2   6  13   16.80    3.20
   2   6  13   12.70    3.60
  -3  -6 -13    4.60    3.70
  -3  -6 -13    4.60    3.60
   3   6  13    4.90    3.70
   3   6  13    8.80    4.00
   3   6  13    0.70    2.80
  -4  -6 -13   -1.00    4.40
  -4  -6 -13   -5.60    4.30
   4   6  13   -4.70    4.30
   4   6  13   -1.00    3.20
   4   6  13    1.90    4.40
  -5  -6 -13   -6.10    5.10
  -5  -6 -13    5.70    7.00
   5   6  13    7.10    4.20
   5   6  13    9.00    5.90
  -3   7  13    5.90    4.20
  -3   7  13    2.50    3.70
   2  -7 -13   -2.90    3.10
   2  -7 -13    6.30    3.10
  -2   7  13    1.20    3.00
  -2   7  13   -0.70    3.00
  -2   7  13   -0.50    3.60
   1  -7 -13   -3.10    3.20
  -1   7  13    6.00    3.10
  -1   7  13    6.60    3.20
  -1   7  13    4.30    3.30
   0  -7 -13   28.90    4.50
   0   7  13   22.90    4.00
   0   7  13   25.20    4.00
   0   7  13   17.90    4.20
  -1  -7 -13   12.30    3.60
  -1  -7 -13    8.10    2.90
   1   7  13   11.20    3.20
   1   7  13   10.70    3.60
   1   7  13    9.50    3.30
  -2  -7 -13   23.70    4.90
  -2  -7 -13   20.80    3.50
   2   7  13   21.80    4.40
   2   7  13   20.40    3.70
   2   7  13   11.10    3.80
  -3  -7 -13    4.00    4.30
  -3  -7 -13    1.80    3.50
   3   7  13   -3.60    3.80
   3   7  13    5.90    4.00
   3   7  13    2.20    5.50
  -4  -7 -13    1.60    4.70
  -4  -7 -13    2.30    4.90
   4   7  13    2.80    4.80
   4   7  13   -6.80    4.80
   4   7  13   -0.10    3.70
   3  -8 -13    3.70    4.40
   3  -8 -13    0.90    7.20
  -3   8  13   -5.20    4.20
   2  -8 -13    2.20    3.70
   2  -8 -13    7.90    3.80
  -2   8  13    4.80    4.00
  -2   8  13   -2.00    3.60
  -2   8  13    1.50    3.60
   1  -8 -13   -2.30    3.60
   1  -8 -13    9.80    4.10
  -1   8  13   -2.40    3.20
  -1   8  13    9.80    3.60
  -1   8  13    2.30    3.40
   0   8  13   -4.80    3.20
   0   8  13    4.30    3.20
   0   8  13    1.40    3.40
  -1  -8 -13    6.20    3.90
   1   8  13    7.90    3.40
   1   8  13    2.70    3.20
   1   8  13   -1.60    3.50
  -2  -8 -13    8.90    4.30
   2   8  13    3.20    3.50
   2   8  13    8.90    4.10
   2   8  13   -8.00    3.20
  -3  -8 -13   -3.20    4.90
   3   8  13    1.60    3.90
   3   8  13    4.70    3.60
   3   8  13   -2.70    4.30
  -4  -8 -13   13.00    5.70
   4   8  13    0.70    5.20
   4   8  13   -5.60    5.40
   4   8  13    0.90    4.10
   2  -9 -13    3.70    4.90
   2  -9 -13   23.20    7.50
  -2   9  13   11.70    4.30
  -2   9  13   12.60    4.90
  -2   9  13   10.30    4.60
   1  -9 -13   -3.10    4.40
   1  -9 -13   13.00    6.50
  -1   9  13    4.40    3.90
  -1   9  13   -0.30    3.70
  -1   9  13    8.50    4.40
   0  -9 -13    0.70    4.40
   0  -9 -13    7.50    5.40
   0   9  13   -2.50    3.60
   0   9  13    0.40    3.60
   0   9  13   -3.10    3.50
  -1  -9 -13    8.50    4.60
   1   9  13    3.30    3.60
   1   9  13   -3.80    4.00
   1   9  13    3.80    3.70
  -2  -9 -13    6.40    5.00
  -2  -9 -13   -3.40    5.30
   2   9  13   -5.40    3.40
   2   9  13   -6.30    4.60
   2   9  13    4.60    4.10
  -3  -9 -13    4.80    5.50
  -3  -9 -13   -0.70    5.90
   3   9  13    8.60    4.50
   3   9  13    3.30    4.20
   3   9  13    4.50    5.00
   1 -10 -13   18.90    6.00
   1 -10 -13   25.60    7.80
  -1  10  13    8.30    5.00
  -1  10  13   24.70    5.30
  -1  10  13   24.40    5.30
   0 -10 -13   12.50    5.20
   0 -10 -13    8.50    5.50
   0 -10 -13    7.40    6.40
   0  10  13    5.40    4.60
   0  10  13    3.50    4.00
   0  10  13    4.80    4.40
  -1 -10 -13   -0.60    6.40
  -1 -10 -13   -3.70    5.30
   1  10  13   -1.10    4.30
   1  10  13    0.40    4.60
   1  10  13   -1.70    4.30
  -2 -10 -13    1.20    5.80
  -2 -10 -13    5.20    6.50
   2  10  13   -3.30    4.30
   2  10  13   -0.80    5.30
   2  10  13    5.70    4.40
   0   6 -14   12.40    4.30
   0   6 -14    9.30    3.90
   0  -6  14   12.70    7.00
   0  -6  14   15.70    6.20
   2   5 -14   -2.80    3.50
   2   5 -14   -3.60    3.80
  -2  -5  14   -2.10    4.80
   1   5 -14   -0.30    3.40
   1   5 -14    4.10    3.40
  -1  -5  14   -4.50    4.60
  -1  -5  14   -5.40    5.50
   0   5 -14   12.50    3.50
   0   5 -14    3.60    3.30
   0  -5  14    5.10    5.70
   0  -5  14   14.30    5.20
  -1   5 -14   -1.20    3.20
  -1   5 -14   -2.80    3.20
   1  -5  14   -1.40    4.90
   1  -5  14   -8.90    6.00
  -2   5 -14   -1.70    3.50
   2  -5  14    8.90    7.40
   3   4 -14   -0.60    3.50
   3   4 -14    2.90    3.60
  -3  -4  14    5.60    5.50
  -3  -4  14    2.00    4.20
   2   4 -14    7.40    3.30
   2   4 -14    4.10    3.30
  -2  -4  14    1.70    3.60
  -2  -4  14    2.80    4.40
   1   4 -14   -3.30    2.90
   1   4 -14    0.50    3.00
  -1  -4  14   -2.00    4.10
  -1  -4  14   -3.40    4.70
  -1  -4  14    0.80    3.10
   0   4 -14    9.20    3.30
   0   4 -14    3.70    3.10
   0  -4  14    5.50    4.20
   0  -4  14   -5.20    2.70
  -1   4 -14    1.50    2.90
  -1   4 -14   -3.10    2.90
   1  -4  14  -10.90    5.10
   1  -4  14    4.40    4.60
  -2   4 -14   -0.40    3.20
  -2   4 -14   -5.10    3.00
   2  -4  14    0.40    5.70
  -3   4 -14    5.20    3.90
  -3   4 -14   18.30    4.20
   3  -4  14   -7.50    6.90
   3   3 -14    1.90    3.50
   3   3 -14    7.00    3.70
  -3  -3  14   -1.90    3.90
  -3  -3  14    2.90    4.80
   2   3 -14    4.30    3.40
   2   3 -14    8.40    3.40
  -2  -3  14   11.80    3.50
  -2  -3  14    7.70    4.30
  -2  -3  14   10.00    4.40
   1   3 -14    4.50    2.90
   1   3 -14   -3.60    2.70
  -1  -3  14   -3.20    2.90
  -1  -3  14    3.60    3.50
  -1  -3  14   -3.00    4.00
   0   3 -14    5.30    2.90
   0   3 -14   -0.30    2.70
   0  -3  14    1.50    2.90
   0  -3  14    3.00    3.60
   0  -3  14    3.30    4.50
  -1   3 -14    8.40    3.00
  -1   3 -14    5.20    3.20
   1  -3  14    7.90    5.10
   1  -3  14    6.90    4.30
   1  -3  14    9.00    3.00
  -2   3 -14   15.40    3.40
  -2   3 -14   13.50    3.70
   2  -3  14   16.00    5.90
  -3   3 -14    4.40    3.50
  -3   3 -14    5.30    3.70
   3  -3  14   12.80    7.20
  -4   3 -14   -7.50    4.00
   4  -3  14    4.70    7.70
   4   2 -14    1.90    3.90
   4   2 -14    1.00    3.80
  -4  -2  14    5.40    5.50
  -4  -2  14    1.80    4.10
   3   2 -14    2.30    3.10
   3   2 -14    3.80    3.40
  -3  -2  14    2.10    3.60
  -3  -2  14    1.20    4.20
   2   2 -14    4.20    2.90
   2   2 -14    2.90    2.80
  -2  -2  14    0.60    3.20
   1   2 -14   -0.60    2.50
   1   2 -14   -3.50    2.40
  -1  -2  14   -3.20    3.10
  -1  -2  14    2.30    2.20
  -1  -2  14    2.50    3.00
   0   2 -14    7.30    2.80
   0   2 -14    7.80    2.70
   0  -2  14   11.70    3.00
   0  -2  14    3.80    3.30
  -1   2 -14   35.30    4.50
   1  -2  14   39.50    5.80
   1  -2  14   36.60    4.60
  -2   2 -14    5.00    3.20
  -2   2 -14   -0.60    2.90
   2  -2  14    0.60    2.90
   2  -2  14    5.40    5.30
  -3   2 -14    6.00    3.40
  -3   2 -14    5.50    3.40
   3  -2  14   -1.40    3.40
   3  -2  14    1.90    5.60
  -4   2 -14   16.00    4.50
  -4   2 -14   17.20    7.40
  -4   2 -14   18.50    5.20
   4  -2  14   33.10    8.30
   4   1 -14    4.70    3.70
   4   1 -14    5.80    3.90
  -4  -1  14    4.30    4.20
  -4  -1  14    4.30    4.90
   3   1 -14   -0.80    3.10
   3   1 -14   -4.20    2.90
  -3  -1  14    2.50    3.30
  -3  -1  14    2.60    2.70
  -3  -1  14   -1.80    3.80
   2   1 -14    5.30    3.00
   2   1 -14    2.60    2.80
  -2  -1  14    0.80    2.10
  -2  -1  14    3.50    3.00
  -2  -1  14    3.70    3.30
   1   1 -14    3.50    2.80
   1   1 -14    2.60    2.30
  -1  -1  14    4.70    3.10
  -1  -1  14    1.40    2.90
  -1  -1  14    4.20    2.30
   0   1 -14   -2.20    2.40
   0   1 -14    4.40    2.90
   0  -1  14   -0.60    2.60
   0  -1  14   -0.20    2.40
   0  -1  14    1.90    3.00
   0  -1  14    0.30    1.20
  -1   1 -14    5.00    2.60
   1  -1  14    0.10    2.70
   1  -1  14    8.40    2.90
  -2   1 -14   -2.70    2.70
  -2   1 -14    2.60    3.00
   2  -1  14    8.30    3.00
  -3   1 -14    1.40    3.10
  -3   1 -14   -0.50    3.30
   3  -1  14   -4.90    5.30
   3  -1  14    7.50    3.40
  -4   1 -14    0.00    6.30
  -4   1 -14    1.00    4.40
  -4   1 -14    1.50    3.90
   4  -1  14   -7.50    6.20
   4  -1  14    2.90    4.60
   4   0 -14    1.40    3.70
   4   0 -14   -3.20    3.40
  -4   0  14    3.20    3.90
  -4   0  14    2.90    3.70
   3   0 -14    8.30    3.20
   3   0 -14    3.40    3.20
  -3   0  14    5.70    2.90
  -3   0  14    9.20    3.40
  -3   0  14    1.80    3.40
   2   0 -14   10.10    2.90
   2   0 -14   18.40    3.50
  -2   0  14   11.10    3.20
  -2   0  14   15.30    2.70
  -2   0  14   12.70    3.50
   1   0 -14   33.40    4.20
   1   0 -14   26.90    3.90
  -1   0  14   37.90    4.50
  -1   0  14   29.10    3.30
   0   0 -14    2.10    2.30
   0   0 -14    4.20    3.10
   0   0  14    2.60    1.60
   0   0  14    6.00    2.80
   0   0  14    5.70    2.40
   0   0  14    4.40    2.70
  -1   0 -14    1.50    2.30
   1   0  14   14.10    3.10
   1   0  14    1.30    2.70
  -2   0 -14    3.40    2.90
  -2   0 -14    4.80    3.00
   2   0  14   11.50    3.70
   2   0  14    9.00    3.40
  -3   0 -14    3.80    3.30
  -3   0 -14    0.70    3.10
   3   0  14    4.40    2.00
   3   0  14    7.20    3.60
  -4   0 -14    5.20    4.20
  -4   0 -14    8.90    6.60
  -4   0 -14    5.80    4.10
   4   0  14    7.50    3.30
   4   0  14   10.40    4.20
  -5   0 -14   -2.00    4.80
  -5   0 -14   -4.10    7.50
   5   0  14   -8.10    7.70
   4  -1 -14    7.50    3.90
   4  -1 -14    7.70    3.50
  -4   1  14    8.40    3.90
  -4   1  14    0.40    6.30
  -4   1  14   -5.50    3.90
   3  -1 -14    5.30    3.00
   3  -1 -14    2.30    3.10
  -3   1  14   -4.40    2.90
  -3   1  14    4.30    3.20
  -3   1  14    6.50    3.10
   2  -1 -14    9.40    3.20
   2  -1 -14    0.50    2.60
  -2   1  14    5.10    2.50
  -2   1  14    2.50    2.40
  -2   1  14    4.40    2.90
   1  -1 -14   67.09    7.50
   1  -1 -14   69.69    4.90
  -1   1  14   61.79    6.50
  -1   1  14   64.69    4.50
  -1   1  14   61.19    4.70
   0   1  14    7.30    2.60
   0   1  14    4.10    2.70
   0   1  14    4.50    1.90
  -1  -1 -14   -2.70    2.30
   1   1  14   -0.60    1.50
   1   1  14    0.40    2.60
   1   1  14    0.20    2.60
  -2  -1 -14    3.20    2.80
  -2  -1 -14    2.10    2.90
   2   1  14    3.60    1.20
   2   1  14    3.60    3.00
   2   1  14    0.80    3.20
   2   1  14    4.00    1.70
  -3  -1 -14   -2.60    4.70
  -3  -1 -14    1.50    3.20
  -3  -1 -14    5.60    3.30
   3   1  14    4.10    2.30
   3   1  14    5.20    3.70
  -4  -1 -14    4.10    4.40
  -4  -1 -14    7.90    4.00
  -4  -1 -14    6.80    6.30
   4   1  14   -0.20    3.10
  -5  -1 -14   -6.10    7.10
  -5  -1 -14   -1.50    4.80
  -5  -1 -14    0.90    5.50
   5   1  14    5.70    6.60
   5   1  14    4.20    5.20
   4  -2 -14    4.50    4.10
   4  -2 -14   -7.20    3.50
  -4   2  14   -0.20    5.20
  -4   2  14   -0.70    3.90
  -4   2  14    4.70    4.10
   3  -2 -14   -2.90    3.80
   3  -2 -14   -2.30    2.90
  -3   2  14    3.90    3.10
  -3   2  14    4.40    3.20
  -3   2  14    7.20    2.60
   2  -2 -14    7.30    5.10
   2  -2 -14    3.00    2.60
  -2   2  14    3.50    2.20
  -2   2  14    4.80    2.70
  -2   2  14    5.80    2.90
   1  -2 -14    1.00    2.50
   1  -2 -14    1.00    3.00
  -1   2  14    4.40    2.20
  -1   2  14    3.30    2.60
  -1   2  14    0.80    2.40
   0  -2 -14    0.00    3.10
   0  -2 -14    0.30    3.60
   0   2  14   -0.10    1.70
   0   2  14   -1.30    2.50
   0   2  14   -1.70    2.30
   0   2  14    0.80    1.80
  -1  -2 -14    5.80    3.10
  -1  -2 -14   -0.90    2.60
   1   2  14    6.80    3.10
   1   2  14    4.60    1.90
   1   2  14    4.80    2.70
  -2  -2 -14   10.40    3.60
  -2  -2 -14   12.60    3.30
   2   2  14   10.10    3.40
   2   2  14    9.10    3.30
   2   2  14   11.00    2.00
  -3  -2 -14    5.00    3.30
  -3  -2 -14    5.20    3.50
  -3  -2 -14   -0.90    4.50
   3   2  14    2.70    1.80
   3   2  14    2.80    4.10
  -4  -2 -14    8.00    4.40
  -4  -2 -14    2.40    5.50
  -4  -2 -14   -0.90    3.80
   4   2  14   -0.50    4.30
   4   2  14    1.60    3.20
  -5  -2 -14   -9.30    5.20
  -5  -2 -14    8.70    5.00
  -5  -2 -14    0.00    7.20
   5   2  14    7.30    4.40
   5   2  14    1.10    5.40
   4  -3 -14    1.60    7.90
   4  -3 -14    3.20    3.60
  -4   3  14    8.40    4.50
  -4   3  14   -4.60    3.80
   3  -3 -14   -0.70    3.90
   3  -3 -14   -0.20    2.90
  -3   3  14   -1.20    3.10
  -3   3  14   -1.90    3.10
  -3   3  14    4.80    3.50
   2  -3 -14   -0.20    2.60
   2  -3 -14    1.70    3.10
  -2   3  14   -6.00    2.60
  -2   3  14    0.70    1.90
  -2   3  14    4.90    2.90
   1  -3 -14   -0.40    2.40
   1  -3 -14   -0.70    2.90
  -1   3  14    1.30    2.70
  -1   3  14    1.80    2.50
   0  -3 -14    3.00    3.00
   0  -3 -14    8.10    4.40
   0   3  14    7.60    2.20
   0   3  14    6.30    4.60
   0   3  14    5.70    2.70
  -1  -3 -14    3.30    3.20
  -1  -3 -14    2.50    2.50
   1   3  14   -0.90    2.50
   1   3  14    1.50    1.90
  -2  -3 -14    1.70    2.60
  -2  -3 -14    0.20    2.90
   2   3  14    1.20    1.90
   2   3  14    3.80    3.20
   2   3  14   -5.30    2.90
  -3  -3 -14   -3.40    3.10
  -3  -3 -14    1.90    4.40
  -3  -3 -14    4.90    3.30
   3   3  14    2.40    3.50
   3   3  14   -0.20    2.10
   3   3  14    1.40    4.00
  -4  -3 -14    3.50    4.30
  -4  -3 -14    1.70    3.90
  -4  -3 -14    3.10    5.70
   4   3  14   -2.60    2.80
   4   3  14    4.30    4.40
  -5  -3 -14   17.70    7.80
  -5  -3 -14   28.80    6.10
   5   3  14   10.90    4.80
   5   3  14   30.00    6.30
   4  -4 -14    3.00    3.80
   4  -4 -14    6.70    4.70
  -4   4  14   -3.80    4.40
  -4   4  14   -4.90    3.90
   3  -4 -14    1.60    3.10
   3  -4 -14   -0.60    3.80
  -3   4  14   -6.40    3.40
  -3   4  14   -6.00    3.10
   2  -4 -14    0.70    2.90
   2  -4 -14    3.80    2.10
   2  -4 -14    5.00    3.60
  -2   4  14    1.10    2.90
  -2   4  14    4.20    3.50
   1  -4 -14    2.50    2.70
   1  -4 -14    2.70    3.60
  -1   4  14    3.30    2.50
  -1   4  14    4.70    3.10
  -1   4  14    6.00    2.90
   0  -4 -14    1.10    2.50
   0   4  14    6.00    3.00
   0   4  14   -0.20    2.70
   0   4  14    7.70    2.40
  -1  -4 -14    4.40    3.40
  -1  -4 -14    1.30    2.50
   1   4  14    0.80    3.00
   1   4  14    9.20    3.20
   1   4  14    2.00    2.10
  -2  -4 -14    3.40    3.40
  -2  -4 -14    0.40    3.00
   2   4  14    0.70    3.20
   2   4  14    4.40    2.30
  -3  -4 -14    4.90    3.80
  -3  -4 -14    3.50    3.30
  -3  -4 -14    3.30    4.30
   3   4  14   -0.40    3.80
   3   4  14    1.90    2.40
   3   4  14    7.60    4.00
  -4  -4 -14   -6.10    4.20
  -4  -4 -14   -0.30    4.10
  -4  -4 -14   -2.60    5.10
   4   4  14    4.00    3.00
   4   4  14   10.00    4.80
   4   4  14   -9.60    4.60
  -5  -4 -14    9.10    5.50
  -5  -4 -14   -8.10    6.60
   5   4  14    8.30    5.80
   4  -5 -14   -0.90    4.10
   4  -5 -14    7.00    7.80
  -4   5  14    7.80    5.00
  -4   5  14    0.90    4.30
   3  -5 -14   -2.70    3.30
   3  -5 -14   -1.40    4.30
  -3   5  14    3.50    3.40
  -3   5  14    6.40    4.00
   2  -5 -14    7.10    6.40
   2  -5 -14    3.60    2.50
   2  -5 -14    1.30    3.00
  -2   5  14   -1.30    3.00
  -2   5  14    3.70    3.30
   1  -5 -14    1.10    2.70
  -1   5  14   -1.20    2.50
  -1   5  14    0.10    2.70
  -1   5  14   -0.80    2.90
   0  -5 -14   25.70    4.10
   0  -5 -14   27.10    4.80
   0   5  14   28.30    4.10
   0   5  14   25.00    3.50
  -1  -5 -14    5.60    3.20
  -1  -5 -14   10.20    3.90
   1   5  14    8.10    2.80
   1   5  14    3.70    3.50
   1   5  14    9.70    3.50
  -2  -5 -14    8.10    3.70
  -2  -5 -14   11.40    3.70
  -2  -5 -14   14.30    3.90
   2   5  14   13.70    3.80
   2   5  14    9.40    3.80
   2   5  14    5.00    2.70
  -3  -5 -14   11.10    4.40
  -3  -5 -14   -3.30    4.10
  -3  -5 -14    8.00    4.10
   3   5  14    9.10    3.20
   3   5  14   -0.50    3.90
   3   5  14    2.80    4.10
  -4  -5 -14    1.30    5.80
  -4  -5 -14    1.30    4.20
   4   5  14   -3.00    4.90
   4   5  14    8.40    5.10
   4   5  14    0.20    3.30
   3  -6 -14    1.30    3.60
  -3   6  14    0.20    3.80
  -3   6  14    1.50    4.20
   2  -6 -14   -3.20    3.20
   2  -6 -14    1.30    2.90
   2  -6 -14   -0.90    4.10
  -2   6  14   -4.40    3.20
  -2   6  14    8.10    3.60
   1  -6 -14   25.60    5.00
   1  -6 -14   10.70    3.60
  -1   6  14   25.90    4.40
  -1   6  14   19.30    3.90
  -1   6  14   24.20    4.20
   0  -6 -14   -2.40    2.90
   0  -6 -14   -2.80    3.80
   0   6  14   -4.20    2.70
   0   6  14    4.10    3.40
   0   6  14   -1.30    3.10
  -1  -6 -14   -2.20    3.00
  -1  -6 -14    3.50    3.90
   1   6  14    4.20    3.30
   1   6  14    3.00    2.80
   1   6  14    6.40    3.80
  -2  -6 -14    6.10    3.70
  -2  -6 -14    7.80    3.60
  -2  -6 -14    7.60    4.20
   2   6  14    1.60    3.40
   2   6  14    4.10    3.00
   2   6  14   -0.50    3.80
  -3  -6 -14    8.90    4.10
  -3  -6 -14    1.90    4.00
   3   6  14    1.30    3.20
   3   6  14    4.80    4.40
   3   6  14   12.00    4.30
  -4  -6 -14    9.40    4.90
  -4  -6 -14   -3.00    5.20
   4   6  14    1.90    5.00
   4   6  14    2.40    5.30
   4   6  14   13.40    5.80
   3  -7 -14    6.70    4.40
  -3   7  14    2.10    4.20
  -3   7  14   -0.80    4.60
   2  -7 -14   12.00    5.80
   2  -7 -14    2.20    3.60
  -2   7  14   -5.20    3.70
  -2   7  14   -6.20    3.40
  -2   7  14   -9.60    3.60
   1  -7 -14    5.80    3.80
  -1   7  14    0.30    3.40
  -1   7  14    4.00    3.40
  -1   7  14    1.50    3.70
   0  -7 -14    2.30    3.50
   0   7  14    4.90    3.30
   0   7  14    2.60    3.60
   0   7  14    3.40    3.80
  -1  -7 -14    2.90    3.10
  -1  -7 -14    4.10    3.60
   1   7  14    3.50    3.50
   1   7  14    7.70    4.10
   1   7  14   -1.60    3.50
  -2  -7 -14   -1.40    3.40
  -2  -7 -14   -2.80    4.10
   2   7  14    7.10    3.70
   2   7  14   -5.40    3.60
   2   7  14   -0.30    4.20
  -3  -7 -14   -5.80    4.00
  -3  -7 -14    2.20    4.40
   3   7  14   -3.80    4.50
   3   7  14   -4.80    4.30
   3   7  14    5.00    3.50
  -4  -7 -14   -4.00    5.00
   4   7  14    0.00    5.60
   4   7  14    1.40    5.60
   4   7  14    2.00    4.20
   2  -8 -14   14.20    4.60
  -2   8  14    4.60    4.80
  -2   8  14    6.10    4.50
  -2   8  14    2.50    4.20
   1  -8 -14    6.80    4.30
   1  -8 -14    2.70    4.00
  -1   8  14    9.90    4.10
  -1   8  14    1.10    3.80
  -1   8  14   -3.70    3.90
   0  -8 -14    1.00    4.10
   0   8  14   -2.00    3.80
   0   8  14   14.40    4.10
   0   8  14    2.30    3.50
  -1  -8 -14   -1.20    4.10
   1   8  14    4.50    3.80
   1   8  14   -0.50    3.50
   1   8  14    3.00    4.30
  -2  -8 -14   14.80    4.80
   2   8  14    4.80    4.00
   2   8  14   -0.10    3.60
   2   8  14   12.40    4.50
  -3  -8 -14   -5.70    5.40
   3   8  14    5.00    4.90
   3   8  14   -5.80    3.80
   3   8  14   -9.10    5.00
   1  -9 -14   -0.50    5.00
   1  -9 -14  -10.00    5.20
  -1   9  14   -6.30    4.40
  -1   9  14   -3.50    4.30
  -1   9  14    3.40    4.20
   0  -9 -14    9.60    5.10
   0   9  14    4.20    4.10
   0   9  14   -6.70    4.00
   0   9  14    6.50    4.50
  -1  -9 -14   -3.40    5.00
   1   9  14   -0.60    4.70
   1   9  14   -4.90    4.00
   1   9  14    5.10    4.20
  -2  -9 -14   -4.10    5.00
   2   9  14   -2.90    4.50
   2   9  14  -10.00    4.90
   2   9  14    4.40    4.40
   1   4 -15   -2.50    3.30
   1   4 -15    5.40    3.70
  -1  -4  15   -2.20    4.70
  -1  -4  15    0.40    3.80
   0   4 -15    4.90    3.50
   0   4 -15   10.20    3.80
   0  -4  15   20.00    5.60
   0  -4  15    4.70    6.20
  -1   4 -15    4.10    3.70
  -1   4 -15    2.40    3.50
   1  -4  15    8.40    5.20
   1  -4  15   -5.30    6.00
  -2   4 -15   -3.00    3.90
  -2   4 -15    4.60    4.10
   2  -4  15   10.50    7.30
   2   3 -15   11.50    3.80
   2   3 -15    1.70    3.60
  -2  -3  15    0.10    4.00
  -2  -3  15   10.10    4.80
   1   3 -15    3.90    3.30
   1   3 -15    3.90    3.30
  -1  -3  15    2.10    5.20
  -1  -3  15    3.60    3.80
  -1  -3  15   10.80    4.90
   0   3 -15    5.90    3.20
   0   3 -15    5.70    3.30
   0  -3  15    1.20    4.60
   0  -3  15    8.60    3.60
   0  -3  15    7.20    5.20
  -1   3 -15    4.40    3.40
  -1   3 -15   -4.30    3.10
   1  -3  15   -7.40    5.40
   1  -3  15   -0.10    3.30
  -2   3 -15    8.10    3.80
   2  -3  15    5.00    6.20
  -3   3 -15    0.20    4.00
  -3   3 -15   10.70    4.40
   3  -3  15   13.10    7.60
   3   2 -15   10.60    4.10
   3   2 -15   16.80    4.30
  -3  -2  15    6.00    4.40
  -3  -2  15    3.80    5.10
   2   2 -15   -2.00    3.30
   2   2 -15    5.40    3.60
  -2  -2  15    9.90    3.80
  -2  -2  15   -2.70    4.00
  -2  -2  15   -2.80    4.50
   1   2 -15    1.80    3.10
   1   2 -15    3.30    3.20
  -1  -2  15    4.70    3.40
  -1  -2  15   -0.10    3.80
   0   2 -15    9.30    3.20
   0   2 -15    1.30    2.90
   0  -2  15   -2.00    3.90
   0  -2  15    4.70    3.40
  -1   2 -15    3.40    3.00
  -1   2 -15    4.20    3.30
   1  -2  15    4.20    3.40
   1  -2  15    1.10    4.90
  -2   2 -15    0.80    3.30
  -2   2 -15    5.10    3.30
   2  -2  15   -2.40    5.70
   2  -2  15    6.40    3.50
  -3   2 -15    8.70    4.10
  -3   2 -15   -2.90    3.80
   3  -2  15    7.60    7.10
   3   1 -15    0.60    3.90
   3   1 -15    3.40    3.50
  -3  -1  15   -1.10    4.10
  -3  -1  15    4.80    4.50
   2   1 -15   26.80    4.60
   2   1 -15   20.50    4.20
  -2  -1  15   29.40    4.70
  -2  -1  15   30.00    4.50
   1   1 -15   -0.30    3.00
   1   1 -15    5.40    3.00
  -1  -1  15    1.20    3.50
  -1  -1  15    2.20    2.80
  -1  -1  15   -0.10    3.30
   0   1 -15    4.50    2.70
   0   1 -15    7.20    2.90
   0  -1  15    4.60    3.00
   0  -1  15    2.70    3.70
  -1   1 -15   -3.60    2.90
  -1   1 -15    0.30    2.70
   1  -1  15    0.10    3.30
  -2   1 -15    4.50    3.20
  -2   1 -15    4.10    3.30
   2  -1  15   -6.00    3.50
  -3   1 -15   -2.00    3.80
  -3   1 -15    0.60    3.70
   3  -1  15    4.10    6.50
   3  -1  15    6.20    4.00
  -4   1 -15    2.00    7.50
  -4   1 -15   -3.80    4.50
  -4   1 -15    5.90    5.30
   4  -1  15   12.90    8.10
   3   0 -15    0.30    3.50
   3   0 -15   -6.60    3.10
  -3   0  15   -3.60    3.70
  -3   0  15    1.00    3.30
  -3   0  15   -7.10    3.60
   2   0 -15    0.20    3.00
   2   0 -15   -1.90    3.00
  -2   0  15    4.00    3.30
  -2   0  15    3.60    2.70
  -2   0  15    0.60    3.30
   1   0 -15    1.30    2.80
   1   0 -15    9.80    3.30
  -1   0  15    5.90    3.40
  -1   0  15    7.70    2.90
  -1   0  15    4.20    3.30
   0   0 -15    7.70    3.20
   0   0 -15    5.90    3.20
   0   0  15    8.00    2.40
   0   0  15    6.70    3.40
   0   0  15   12.70    3.40
   0   0  15    3.30    3.00
  -1   0 -15   10.00    3.40
  -1   0 -15   12.30    3.40
   1   0  15    5.50    3.60
   1   0  15    9.70    3.60
  -2   0 -15   -1.20    3.00
  -2   0 -15    5.50    3.30
  -3   0 -15   -0.10    3.70
  -3   0 -15   10.30    3.90
   3   0  15    6.10    4.30
  -4   0 -15   -3.90    4.40
  -4   0 -15    2.40    4.70
  -4   0 -15    3.80    7.30
   4   0  15    3.20    7.50
   4   0  15   -0.30    5.40
   3  -1 -15   -1.30    3.70
   3  -1 -15    0.20    3.30
  -3   1  15    4.40    3.70
  -3   1  15   -1.40    3.60
  -3   1  15   -5.80    3.30
   2  -1 -15   -0.30    3.40
   2  -1 -15   -1.00    2.80
  -2   1  15    4.10    3.40
  -2   1  15    2.00    2.90
  -2   1  15    6.50    3.10
   1  -1 -15    9.70    3.70
   1  -1 -15    9.80    2.90
  -1   1  15   16.50    4.00
  -1   1  15   17.10    3.20
  -1   1  15   14.50    3.30
   0  -1 -15   -1.50    2.70
   0  -1 -15   -3.10    2.40
   0   1  15    2.70    2.90
   0   1  15   -4.10    2.80
   0   1  15    0.60    1.90
  -1  -1 -15    1.70    2.90
  -1  -1 -15    1.00    2.80
   1   1  15    5.00    2.30
   1   1  15    3.60    3.30
   1   1  15   -0.30    3.10
  -2  -1 -15    1.90    2.70
  -2  -1 -15    0.50    3.10
   2   1  15    0.50    3.60
   2   1  15    3.00    3.80
  -3  -1 -15   10.30    6.10
  -3  -1 -15   11.30    4.10
  -3  -1 -15    4.20    3.80
   3   1  15    9.10    4.20
  -4  -1 -15   -3.90    4.40
  -4  -1 -15    1.10    4.60
  -4  -1 -15    5.40    7.00
   4   1  15    1.50    5.00
   3  -2 -15    8.50    3.60
   3  -2 -15   10.10    4.00
  -3   2  15    3.40    3.80
  -3   2  15   -1.10    3.50
   2  -2 -15    5.40    3.00
   2  -2 -15    7.50    3.40
  -2   2  15    3.80    3.30
  -2   2  15   11.30    3.50
  -2   2  15    9.20    2.80
   1  -2 -15    1.80    2.90
   1  -2 -15   -2.00    3.00
  -1   2  15    2.90    2.60
  -1   2  15   -1.40    3.10
  -1   2  15   -2.40    2.30
  -1   2  15   -1.10    2.70
   0  -2 -15    4.60    3.10
   0  -2 -15    3.00    2.80
   0   2  15    3.40    3.00
   0   2  15    3.50    2.30
   0   2  15    3.00    3.20
  -1  -2 -15   -0.40    2.80
  -1  -2 -15    1.00    2.90
   1   2  15    1.80    3.20
   1   2  15   -2.30    3.20
   1   2  15    2.40    2.00
  -2  -2 -15    1.70    3.20
  -2  -2 -15    2.10    3.40
   2   2  15   -0.20    2.00
   2   2  15    3.20    2.40
   2   2  15   -3.00    3.40
   2   2  15    3.70    3.90
  -3  -2 -15   -2.40    5.30
  -3  -2 -15   12.50    4.30
  -3  -2 -15    3.90    3.90
   3   2  15    3.50    2.70
   3   2  15    7.60    4.40
   3   2  15    1.80    4.70
  -4  -2 -15    9.00    4.60
  -4  -2 -15   -3.50    4.50
  -4  -2 -15    6.60    6.80
   4   2  15    0.80    4.00
   4   2  15    5.80    5.00
   3  -3 -15    5.00    4.20
   3  -3 -15    3.30    3.70
  -3   3  15   -8.20    3.60
  -3   3  15   -1.60    3.60
   2  -3 -15    5.30    3.80
   2  -3 -15    1.60    3.20
  -2   3  15   -1.50    3.30
  -2   3  15    2.80    3.80
   1  -3 -15   -1.50    2.70
   1  -3 -15    1.60    3.40
  -1   3  15   -3.40    3.10
  -1   3  15    0.10    2.60
  -1   3  15   -4.90    2.80
   0  -3 -15    5.60    3.50
   0  -3 -15   -0.90    2.80
   0   3  15    1.20    3.30
   0   3  15   -1.30    3.00
   0   3  15   -1.70    2.40
  -1  -3 -15    4.70    3.40
  -1  -3 -15    1.70    2.70
   1   3  15    6.60    3.50
   1   3  15   -0.50    3.10
   1   3  15    0.30    2.30
  -2  -3 -15    4.00    3.30
  -2  -3 -15   -1.60    3.10
   2   3  15    3.10    3.90
   2   3  15    0.50    3.70
   2   3  15    6.60    2.30
  -3  -3 -15    3.60    3.70
  -3  -3 -15    3.10    4.00
  -3  -3 -15   -4.20    4.90
   3   3  15    5.70    4.30
   3   3  15   12.40    4.90
  -4  -3 -15    5.80    4.80
  -4  -3 -15   15.30    6.90
  -4  -3 -15    8.80    4.90
   4   3  15   13.00    5.20
   3  -4 -15   11.00    4.00
   3  -4 -15    9.50    4.70
  -3   4  15    1.80    4.30
  -3   4  15    1.90    3.90
   2  -4 -15    3.40    3.40
   2  -4 -15   -5.30    3.80
  -2   4  15   -2.90    3.40
  -2   4  15    9.70    3.50
   1  -4 -15    6.10    4.10
   1  -4 -15   18.00    3.80
  -1   4  15   12.60    3.90
  -1   4  15   10.40    3.30
  -1   4  15   16.70    3.80
   0  -4 -15   -0.90    3.40
   0  -4 -15    0.40    3.00
   0   4  15    4.70    3.30
   0   4  15   -1.90    2.50
   0   4  15   -3.30    3.30
  -1  -4 -15    5.70    3.50
  -1  -4 -15    4.00    3.30
   1   4  15    5.10    2.70
   1   4  15    6.10    3.50
   1   4  15   -1.50    3.50
  -2  -4 -15    5.60    3.60
  -2  -4 -15   13.80    4.30
   2   4  15    4.30    2.70
   2   4  15   11.10    4.20
   2   4  15    3.10    3.90
  -3  -4 -15   -4.60    3.80
  -3  -4 -15    6.40    4.00
  -3  -4 -15    7.70    5.30
   3   4  15   -0.60    2.80
   3   4  15    1.00    4.50
   3   4  15   -2.50    4.10
  -4  -4 -15   -2.00    4.80
  -4  -4 -15    2.40    4.90
  -4  -4 -15    6.50    6.10
   4   4  15    4.20    5.30
   4   4  15    5.80    5.90
   3  -5 -15    9.20    4.20
   3  -5 -15   13.70    5.20
  -3   5  15    5.30    4.60
   2  -5 -15    1.30    3.30
   2  -5 -15   -3.60    4.20
  -2   5  15    5.50    3.70
   1  -5 -15   34.10    5.50
   1  -5 -15   30.00    4.80
  -1   5  15   26.40    4.40
  -1   5  15   34.90    4.60
   0  -5 -15   10.70    3.60
   0  -5 -15   10.40    4.40
   0   5  15    9.10    3.20
   0   5  15   13.00    3.80
   0   5  15    5.00    3.40
  -1  -5 -15   -5.70    3.60
  -1  -5 -15    0.60    3.40
   1   5  15   -0.10    3.50
   1   5  15    9.90    3.80
   1   5  15   -1.40    2.70
  -2  -5 -15    5.70    3.60
  -2  -5 -15   -1.50    4.10
  -2  -5 -15   -7.90    3.90
   2   5  15   -1.30    3.70
   2   5  15    6.00    3.00
   2   5  15   -2.70    3.90
  -3  -5 -15   -2.10    4.00
  -3  -5 -15    2.50    5.00
  -3  -5 -15    0.80    4.20
   3   5  15   11.80    5.00
   3   5  15    5.70    3.20
   3   5  15    3.00    4.90
  -4  -5 -15   13.10    5.20
  -4  -5 -15    1.70    6.00
   4   5  15    4.80    6.00
   4   5  15   -2.80    4.20
   4   5  15   13.10    5.80
   3  -6 -15   -1.30    5.60
  -3   6  15   12.00    5.20
  -3   6  15    8.60    4.60
   2  -6 -15   -4.00    3.70
   2  -6 -15    8.60    4.80
  -2   6  15   -1.10    3.80
  -2   6  15    2.00    3.60
  -2   6  15   -5.60    4.10
   1  -6 -15   -2.10    3.40
   1  -6 -15    3.30    4.30
  -1   6  15    5.40    3.70
  -1   6  15    3.40    3.70
  -1   6  15    6.00    3.90
   0  -6 -15   19.10    5.00
   0   6  15   28.00    4.40
   0   6  15   24.90    5.00
  -1  -6 -15   -2.70    4.10
  -1  -6 -15    5.80    3.90
   1   6  15   -4.60    3.70
   1   6  15    0.60    3.20
   1   6  15   -2.60    3.70
  -2  -6 -15   12.10    4.50
  -2  -6 -15    7.80    4.30
  -2  -6 -15    2.00    3.90
   2   6  15   17.20    4.50
   2   6  15    5.30    4.30
   2   6  15    3.80    3.40
  -3  -6 -15   11.40    4.90
  -3  -6 -15    5.40    4.90
   3   6  15    0.70    3.60
   3   6  15    7.30    5.10
   3   6  15    5.10    5.20
   4   6  15    1.90    5.90
   4   6  15    7.70    4.40
   4   6  15   -6.20    5.80
   2  -7 -15   10.30    4.40
  -2   7  15    3.20    4.60
  -2   7  15    2.20    4.30
  -2   7  15    7.10    4.30
   1  -7 -15    1.60    4.00
  -1   7  15   12.80    4.20
  -1   7  15   11.90    4.20
  -1   7  15   -3.10    3.90
   0  -7 -15    6.40    4.00
   0   7  15   -0.80    3.40
   0   7  15    0.60    4.20
   0   7  15    6.90    3.80
  -1  -7 -15   13.60    6.50
  -1  -7 -15    5.10    4.30
   1   7  15    4.50    4.20
   1   7  15   -2.00    4.10
   1   7  15   -0.30    3.50
  -2  -7 -15   -8.70    4.50
   2   7  15   -1.40    4.10
   2   7  15   -7.10    3.50
   2   7  15    1.30    4.50
  -3  -7 -15   -4.00    4.80
   3   7  15    2.00    5.40
   3   7  15   -2.10    3.80
   3   7  15    7.60    5.40
   1  -8 -15    7.70    4.90
   1  -8 -15    4.60    5.10
  -1   8  15    1.80    4.30
  -1   8  15   19.20    5.00
  -1   8  15   10.40    4.90
   0  -8 -15    2.90    4.70
   0   8  15    1.50    4.10
   0   8  15   -3.50    4.20
   0   8  15   -1.60    3.90
  -1  -8 -15   -4.60    4.80
   1   8  15   10.10    4.10
   1   8  15    5.20    4.60
   1   8  15   -1.10    4.60
  -2  -8 -15    7.70    5.30
   2   8  15    7.00    4.70
   2   8  15   11.10    5.40
   1   9  15    3.50    4.60
   1   9  15    4.70    5.00
   1   9  15   -0.70    5.00
   1   3 -16   -2.70    3.90
   1   3 -16    5.70    3.90
  -1  -3  16    3.10    4.40
  -1  -3  16   -1.10    5.50
   0   3 -16    0.20    3.80
   0   3 -16    7.30    3.80
   0  -3  16    1.20    5.50
   0  -3  16    4.30    4.60
   0  -3  16   -4.50    6.00
  -1   3 -16    3.40    4.10
  -1   3 -16    0.10    3.80
   1  -3  16    3.40    6.20
   2   2 -16   12.80    4.40
   2   2 -16    0.10    4.00
  -2  -2  16    5.10    4.50
  -2  -2  16   -7.50    4.90
   1   2 -16   -0.50    3.50
   1   2 -16    8.10    4.10
  -1  -2  16   -3.20    5.50
  -1  -2  16   -7.60    4.80
   0   2 -16    3.30    3.70
   0   2 -16   -2.30    3.20
   0  -2  16    2.60    5.40
   0  -2  16   -9.80    4.50
   0  -2  16    2.20    4.10
  -1   2 -16   -7.10    3.30
  -1   2 -16    3.40    3.70
   1  -2  16    2.70    5.80
   1  -2  16    3.00    4.10
  -2   2 -16    2.30    3.90
  -2   2 -16    3.30    3.90
   2  -2  16   15.20    6.60
   2   1 -16    9.60    4.00
   2   1 -16   11.40    4.30
  -2  -1  16   19.40    4.80
  -2  -1  16   25.40    5.10
   1   1 -16    5.00    3.60
   1   1 -16    2.30    3.40
  -1  -1  16    3.50    3.90
  -1  -1  16    7.50    5.00
   0   1 -16    4.90    3.50
   0   1 -16    1.00    3.30
   0  -1  16    2.20    5.00
   0  -1  16    0.50    3.80
  -1   1 -16    3.60    3.60
  -1   1 -16   10.00    3.70
   1  -1  16   10.80    4.20
  -2   1 -16    0.20    3.50
  -2   1 -16   -0.60    3.80
   2  -1  16    0.90    5.50
  -3   1 -16    0.90    4.40
  -3   1 -16   -3.60    4.70
   3  -1  16   13.90    7.90
   2   0 -16    0.30    3.60
   2   0 -16    8.40    4.20
  -2   0  16    0.50    4.20
  -2   0  16    3.30    4.00
   1   0 -16    0.60    3.30
   1   0 -16   -0.20    3.50
  -1   0  16   -2.60    3.60
  -1   0  16    5.40    3.40
  -1   0  16   -1.00    3.70
   0   0 -16   -2.50    3.40
   0   0 -16   -2.30    3.30
   0   0  16    1.60    3.50
   0   0  16    2.10    3.70
  -1   0 -16    0.90    3.40
  -1   0 -16    1.50    3.40
   1   0  16   -1.60    3.60
   1   0  16   -2.10    4.00
  -2   0 -16    3.60    3.80
  -2   0 -16    5.40    3.60
   2   0  16    9.40    4.50
  -3   0 -16   -1.40    4.20
  -3   0 -16    3.00    4.50
   3   0  16  -12.00    4.70
   3  -1 -16   -0.90    4.00
   3  -1 -16    6.60    4.60
  -3   1  16  -11.50    4.30
   2  -1 -16    2.30    4.00
   2  -1 -16   -4.60    3.10
  -2   1  16   -2.40    3.60
  -2   1  16    3.00    3.90
  -2   1  16    3.50    3.50
   1  -1 -16   -0.20    3.10
   1  -1 -16    1.70    3.50
  -1   1  16   -5.70    3.20
  -1   1  16    0.30    3.40
  -1   1  16   -2.50    3.60
  -1   1  16    3.20    2.80
   0  -1 -16   -1.30    3.30
   0  -1 -16   -6.30    2.90
   0   1  16    5.50    3.80
   0   1  16    5.00    3.60
  -1  -1 -16    0.40    3.40
  -1  -1 -16    2.20    3.60
   1   1  16   -1.90    3.90
   1   1  16    2.80    3.90
  -2  -1 -16    1.70    3.30
  -2  -1 -16   -2.20    3.60
   2   1  16   -2.60    4.10
  -3  -1 -16    3.30    4.20
  -3  -1 -16    1.80    6.70
  -3  -1 -16    4.10    4.30
   3   1  16   -0.30    4.70
   3  -2 -16    4.50    4.60
   3  -2 -16    0.70    4.20
  -3   2  16    4.50    4.50
  -3   2  16    2.00    4.30
   2  -2 -16    4.40    4.00
   2  -2 -16   -5.30    3.30
  -2   2  16    5.00    4.20
  -2   2  16    5.50    4.00
   1  -2 -16   -0.30    3.50
   1  -2 -16   -2.30    3.10
  -1   2  16    0.60    3.70
  -1   2  16    9.20    3.60
  -1   2  16   -6.60    2.90
   0  -2 -16    4.30    3.70
   0  -2 -16   -4.90    3.20
   0   2  16    4.20    2.60
   0   2  16    2.60    3.60
   0   2  16    6.60    3.90
  -1  -2 -16    1.10    3.50
  -1  -2 -16    1.80    3.10
   1   2  16   -1.70    4.20
   1   2  16    1.20    3.90
  -2  -2 -16   10.50    4.30
  -2  -2 -16   -1.00    3.50
   2   2  16   -4.60    4.50
   2   2  16    6.80    4.40
  -3  -2 -16   -2.60    4.10
  -3  -2 -16    3.90    6.80
  -3  -2 -16    2.10    4.70
   3   2  16    8.40    5.80
   3   2  16   -0.40    4.70
  -3   3  16   -6.10    4.10
   2  -3 -16   -3.60    4.20
   2  -3 -16   -1.60    3.60
  -2   3  16   -4.40    3.80
  -2   3  16   -2.80    4.00
   1  -3 -16    3.40    3.90
   1  -3 -16   -0.40    3.40
  -1   3  16    0.90    3.40
  -1   3  16    6.70    3.20
  -1   3  16    2.30    3.80
   0  -3 -16    2.70    3.70
   0  -3 -16    4.10    3.20
   0   3  16    7.60    3.90
   0   3  16   -5.40    3.30
   0   3  16    5.60    2.80
  -1  -3 -16    2.30    3.30
  -1  -3 -16   -1.20    3.60
   1   3  16    7.20    3.90
   1   3  16    7.20    2.60
   1   3  16    2.30    4.00
  -2  -3 -16    5.70    4.10
  -2  -3 -16    1.00    3.70
   2   3  16    9.00    4.70
   2   3  16   12.00    4.40
  -3  -3 -16    5.70    4.70
  -3  -3 -16    9.80    4.90
  -3  -3 -16    0.20    6.30
   3   3  16   11.20    5.70
   3   3  16   -4.50    4.70
   2  -4 -16   -2.80    4.50
   2  -4 -16    7.40    4.10
  -2   4  16    1.00    4.20
  -2   4  16   -5.20    4.00
   1  -4 -16    7.60    4.50
   1  -4 -16    1.40    3.60
  -1   4  16   -1.30    3.50
  -1   4  16   13.40    4.00
   0  -4 -16    0.00    4.10
   0  -4 -16   -5.80    3.10
   0   4  16    5.70    3.00
   0   4  16    2.20    3.90
   0   4  16    2.90    3.80
  -1  -4 -16   -3.30    3.60
  -1  -4 -16    4.40    4.10
   1   4  16    4.10    3.00
   1   4  16    7.70    4.10
   1   4  16    3.30    4.30
  -2  -4 -16   13.70    4.50
  -2  -4 -16    8.20    4.40
   2   4  16   13.70    4.80
   2   4  16   11.30    4.80
   2   4  16   19.20    3.40
  -3  -4 -16    1.50    4.60
  -3  -4 -16    2.10    4.40
  -3  -4 -16   14.80    6.20
   3   4  16   -6.90    5.20
   3   4  16    3.30    5.20
   2  -5 -16    0.50    5.00
   2  -5 -16    7.50    4.20
  -2   5  16   -2.30    4.20
  -2   5  16   -3.20    4.10
  -2   5  16    3.10    4.00
   1  -5 -16    7.70    4.70
   1  -5 -16   -4.90    3.50
  -1   5  16    2.50    3.90
  -1   5  16    4.50    4.30
  -1   5  16    1.10    3.80
   0  -5 -16    3.70    4.60
   0  -5 -16    3.20    3.90
   0   5  16    2.80    3.40
   0   5  16    1.20    4.00
   0   5  16   -0.90    3.90
  -1  -5 -16    5.60    3.90
  -1  -5 -16    6.40    4.80
   1   5  16    1.60    3.30
   1   5  16   11.60    4.60
   1   5  16    5.70    4.20
  -2  -5 -16    0.40    3.90
  -2  -5 -16   -4.80    5.10
  -2  -5 -16   -3.30    4.80
   2   5  16    5.10    3.40
   2   5  16   -4.00    4.40
   2   5  16    0.10    4.50
  -3  -5 -16    5.60    5.70
  -3  -5 -16   -1.40    4.60
  -3  -5 -16   15.30    5.80
   3   5  16    7.70    5.30
   3   5  16   11.50    5.70
   2  -6 -16   20.20    6.00
  -2   6  16    4.80    4.30
  -2   6  16   -1.50    4.60
  -2   6  16    2.60    4.50
   1  -6 -16    5.70    4.20
   1  -6 -16    3.00    5.40
  -1   6  16    4.60    4.00
  -1   6  16   13.50    4.60
  -1   6  16    3.20    4.20
   0  -6 -16   -9.30    4.80
   0  -6 -16    2.20    4.20
   0   6  16    0.50    3.60
   0   6  16    8.00    4.10
   0   6  16    6.50    4.50
  -1  -6 -16    6.90    4.20
  -1  -6 -16    4.10    5.10
   1   6  16    2.20    4.30
   1   6  16    1.00    4.50
   1   6  16    1.50    3.70
  -2  -6 -16   -1.50    5.30
  -2  -6 -16    8.40    5.10
  -2  -6 -16   -2.70    4.60
   2   6  16    0.00    4.50
   2   6  16    2.50    4.90
  -3  -6 -16   -6.50    5.00
  -3  -6 -16   -5.30    6.30
   3   6  16   -0.30    5.40
   3   6  16   -3.30    5.70
   3   6  16   -1.20    4.20
   1  -7 -16    4.10    4.70
   1  -7 -16    1.30    5.80
  -1   7  16    3.10    4.20
  -1   7  16    6.80    4.80
  -1   7  16    1.70    4.70
   0  -7 -16    2.60    4.50
   0  -7 -16   -6.20    5.50
   0   7  16   -2.60    3.90
   0   7  16    5.00    4.30
   0   7  16    3.00    4.70
  -1  -7 -16   -7.70    4.30
   1   7  16   -2.40    4.60
   1   7  16   10.30    5.10
   1   7  16    9.80    4.00
  -2  -7 -16    1.00    5.60
   2   7  16    7.90    5.60
   2   7  16    0.40    4.10
   2   7  16    0.70    5.10
   0   1 -17    1.40    3.80
   0   1 -17    9.60    4.60
   0  -1  17    8.70    4.70
  -1   1 -17    5.70    4.20
  -1   1 -17   -2.70    4.30
   1  -1  17   -6.70    4.50
   1   0 -17    4.00    4.10
   1   0 -17   -0.30    4.40
  -1   0  17    7.60    4.60
   0   0 -17    6.20    4.00
   0   0 -17    3.00    3.90
   0   0  17    0.40    4.30
  -1   0 -17    5.20    4.00
  -1   0 -17    2.60    3.80
   1   0  17   -0.60    4.60
   1   0  17   -1.40    5.00
  -2   0 -17   -3.80    3.90
  -2   0 -17    4.10    4.50
   2   0  17   10.90    5.30
   1  -1 -17    2.00    4.50
   1  -1 -17    5.60    4.00
  -1   1  17    4.70    4.20
  -1   1  17   -7.40    4.30
   0  -1 -17    0.30    3.90
   0  -1 -17   -0.70    3.80
   0   1  17   -3.00    4.30
  -1  -1 -17    3.00    4.10
  -1  -1 -17    5.80    4.10
   1   1  17    3.90    4.40
  -2  -1 -17    4.10    4.70
  -2  -1 -17   -2.90    4.00
   2   1  17    4.50    5.70
   2   1  17   -3.60    4.80
   1  -2 -17    0.80    4.40
   1  -2 -17    2.30    4.00
  -1   2  17    5.00    4.40
  -1   2  17    5.40    4.40
   0  -2 -17   -0.20    3.80
   0  -2 -17    1.20    4.30
   0   2  17   -3.00    4.10
   0   2  17    2.00    4.40
  -1  -2 -17    8.50    4.50
  -1  -2 -17    7.80    3.80
   1   2  17   13.20    5.10
   1   2  17    7.70    4.70
  -2  -2 -17   -6.60    4.30
  -2  -2 -17   -1.10    4.60
   2   2  17  -12.50    5.30
   1  -3 -17    5.60    4.90
   1  -3 -17    4.40    4.00
  -1   3  17   -0.80    4.50
  -1   3  17   -0.30    3.70
  -1   3  17    8.80    4.40
   0  -3 -17   -2.00    3.80
   0  -3 -17    0.80    4.50
   0   3  17    6.80    4.40
   0   3  17    4.70    4.40
  -1  -3 -17    5.80    4.50
  -1  -3 -17   -2.20    3.60
   1   3  17   -0.30    4.70
   1   3  17   -4.50    4.50
  -2  -3 -17    9.60    4.90
  -2  -3 -17    8.30    5.00
   2   3  17    4.80    5.00
   2   3  17   19.80    5.90
   1  -4 -17    4.90    4.40
   1  -4 -17    2.80    5.20
  -1   4  17    1.00    4.30
  -1   4  17   -3.60    4.30
  -1   4  17    0.60    3.90
   0  -4 -17    0.30    3.70
   0  -4 -17  -10.60    4.50
   0   4  17   -4.80    3.70
   0   4  17    4.80    4.80
   0   4  17    6.60    4.70
  -1  -4 -17    2.80    4.70
  -1  -4 -17    5.60    4.30
   1   4  17    7.00    4.90
   1   4  17   14.60    5.20
  -2  -4 -17    1.00    5.00
  -2  -4 -17    0.50    4.60
   2   4  17   15.50    5.40
   2   4  17  -12.40    5.10
   1  -5 -17   10.60    5.80
   1  -5 -17   -1.10    4.20
  -1   5  17    2.50    4.20
  -1   5  17    7.40    4.70
  -1   5  17    1.20    4.90
   0  -5 -17   -2.10    4.00
   0  -5 -17   -5.20    5.10
   0   5  17   -0.30    4.40
   0   5  17   -7.50    4.70
  -1  -5 -17   -2.10    4.90
  -1  -5 -17    1.90    4.20
   1   5  17    2.90    3.80
   1   5  17   -0.70    4.80
   1   5  17    5.20    5.10
  -2  -5 -17    8.90    5.10
  -2  -5 -17    0.10    5.90
  -2  -5 -17   10.60    6.00
   2   5  17   -0.30    5.60
   2   5  17   10.50    5.30
   0  -6 -17    4.50    6.00
   0   6  17    6.00    5.10
   0   6  17    6.90    5.10
  -1  -6 -17   -5.20    6.00
   1   6  17    7.20    4.30
   1   6  17   -3.70    5.20
   1   6  17    3.40    5.60
   0   0   0    0.00    0.00

_computing_structure_solution     'SHELXT 2014/5 (Sheldrick, 2014)'
;
_shelx_hkl_checksum              48309
loop_
_space_group_symop_operation_xyz
'x, y, z'
'-x, -y, -z'
loop_
_atom_site_label
_atom_site_type_symbol
_atom_site_fract_x
_atom_site_fract_y
_atom_site_fract_z
_atom_site_U_iso_or_equiv
_atom_site_adp_type
_atom_site_occupancy
_atom_site_site_symmetry_order
_atom_site_calc_flag
_atom_site_refinement_flags_posn
_atom_site_refinement_flags_adp
N3 N 0.1122(3) 0.37222(15) 0.30906(11) 0.0554(4) Uani 1 1 d . .
H5 H 0.136(3) 0.303(2) 0.2668(15) 0.066 Uiso 1 1 d . U
N1 N 0.3947(2) 0.13394(14) 0.26684(11) 0.0544(3) Uani 1 1 d . .
N2 N 0.7033(4) 0.29158(19) 0.57287(14) 0.0849(5) Uani 1 1 d . .
C2 C 0.6658(3) -0.06159(19) 0.22793(16) 0.0672(5) Uani 1 1 d . .
H2 H 0.708042 -0.131633 0.184573 0.081 Uiso 1 1 calc R U
C3 C 0.8013(3) -0.04830(19) 0.31331(16) 0.0677(5) Uani 1 1 d . .
H3 H 0.938847 -0.109124 0.328800 0.081 Uiso 1 1 calc R U
C4 C 0.7327(3) 0.05562(18) 0.37607(14) 0.0593(4) Uani 1 1 d . .
H4 H 0.822936 0.065301 0.434727 0.071 Uiso 1 1 calc R U
C5 C 0.5267(3) 0.14662(14) 0.35132(11) 0.0449(3) Uani 1 1 d . .
C6 C 0.4470(3) 0.26052(15) 0.41395(11) 0.0478(4) Uani 1 1 d . .
C8 C 0.2576(3) 0.36142(16) 0.39040(12) 0.0503(4) Uani 1 1 d . .
H8 H 0.228877 0.429258 0.436717 0.060 Uiso 1 1 calc R U
C9 C -0.0804(3) 0.48621(19) 0.28675(14) 0.0625(5) Uani 1 1 d . .
H9 H -0.085000 0.547366 0.342259 0.075 Uiso 1 1 calc R U
H10 H -0.232748 0.439872 0.292011 0.075 Uiso 1 1 calc R U
C10 C -0.0514(2) 0.58200(15) 0.17580(12) 0.0443(3) Uani 1 1 d . .
C15 C 0.1391(3) 0.67181(17) 0.15076(12) 0.0501(4) Uani 1 1 d . .
H15 H 0.252428 0.672399 0.202711 0.060 Uiso 1 1 calc R U
C14 C 0.1625(3) 0.76100(18) 0.04882(14) 0.0581(4) Uani 1 1 d . .
H14 H 0.292119 0.820895 0.032408 0.070 Uiso 1 1 calc R U
C13 C -0.0044(3) 0.76178(19) -0.02846(14) 0.0620(5) Uani 1 1 d . .
H13 H 0.011871 0.822110 -0.096925 0.074 Uiso 1 1 calc R U
C1 C 0.4665(3) 0.03089(18) 0.20806(15) 0.0645(5) Uani 1 1 d . .
H1 H 0.374586 0.021609 0.149827 0.077 Uiso 1 1 calc R U
C12 C -0.1940(3) 0.6738(2) -0.00434(14) 0.0622(5) Uani 1 1 d . .
H12 H -0.307691 0.674433 -0.056378 0.075 Uiso 1 1 calc R U
C11 C -0.2179(3) 0.58374(17) 0.09687(14) 0.0538(4) Uani 1 1 d . .
H11 H -0.347251 0.523488 0.112380 0.065 Uiso 1 1 calc R U
C7 C 0.5862(3) 0.27739(18) 0.50292(14) 0.0605(4) Uani 1 1 d . .
loop_
_atom_site_aniso_label
_atom_site_aniso_U_11
_atom_site_aniso_U_22
_atom_site_aniso_U_33
_atom_site_aniso_U_23
_atom_site_aniso_U_13
_atom_site_aniso_U_12
N3 0.0635(8) 0.0476(7) 0.0528(8) -0.0078(6) -0.0058(6) 0.0130(6)
N1 0.0604(8) 0.0461(7) 0.0580(8) -0.0137(6) -0.0152(6) 0.0095(6)
N2 0.1124(14) 0.0761(11) 0.0706(11) -0.0171(9) -0.0367(10) 0.0002(10)
C2 0.0766(12) 0.0491(9) 0.0754(12) -0.0157(8) -0.0028(9) 0.0120(8)
C3 0.0592(10) 0.0503(9) 0.0878(13) -0.0030(9) -0.0075(9) 0.0155(8)
C4 0.0570(10) 0.0531(9) 0.0649(10) -0.0016(8) -0.0175(8) 0.0041(7)
C5 0.0499(8) 0.0348(7) 0.0470(8) 0.0012(6) -0.0052(6) -0.0029(6)
C6 0.0576(9) 0.0415(7) 0.0421(8) -0.0010(6) -0.0061(6) -0.0036(6)
C8 0.0652(10) 0.0411(7) 0.0424(8) -0.0045(6) 0.0045(7) -0.0019(7)
C9 0.0544(9) 0.0601(10) 0.0650(10) 0.0003(8) 0.0079(8) 0.0141(8)
C10 0.0383(7) 0.0418(7) 0.0519(8) -0.0110(6) -0.0008(6) 0.0111(6)
C15 0.0429(8) 0.0550(9) 0.0539(9) -0.0139(7) -0.0091(6) 0.0033(7)
C14 0.0531(9) 0.0546(9) 0.0653(10) -0.0090(8) 0.0033(8) -0.0045(7)
C13 0.0681(11) 0.0620(10) 0.0513(9) -0.0043(8) -0.0024(8) 0.0129(9)
C1 0.0765(12) 0.0535(9) 0.0669(11) -0.0211(8) -0.0174(9) 0.0123(8)
C12 0.0589(10) 0.0718(11) 0.0582(10) -0.0194(8) -0.0203(8) 0.0158(9)
C11 0.0399(8) 0.0503(8) 0.0735(11) -0.0182(8) -0.0061(7) 0.0033(6)
C7 0.0789(12) 0.0498(9) 0.0517(9) -0.0043(7) -0.0103(8) -0.0039(8)
loop_
_atom_type_symbol
_atom_type_description
_atom_type_scat_dispersion_real
_atom_type_scat_dispersion_imag
_atom_type_scat_source
C C 0.0033 0.0016 'International Tables Vol C Tables 4.2.6.8 and 6.1.1.4'
H H 0.0000 0.0000 'International Tables Vol C Tables 4.2.6.8 and 6.1.1.4'
N N 0.0061 0.0033 'International Tables Vol C Tables 4.2.6.8 and 6.1.1.4'
loop_
_geom_angle_atom_site_label_1
_geom_angle_atom_site_label_2
_geom_angle_atom_site_label_3
_geom_angle
C8 N3 C9 123.67(15)
C8 N3 H5 116.1(11)
C9 N3 H5 120.2(12)
C1 N1 C5 117.81(13)
C1 C2 C3 118.07(16)
C1 C2 H2 121.0
C3 C2 H2 121.0
C2 C3 C4 119.41(15)
C2 C3 H3 120.3
C4 C3 H3 120.3
C3 C4 C5 119.58(16)
C3 C4 H4 120.2
C5 C4 H4 120.2
N1 C5 C4 120.86(14)
N1 C5 C6 117.08(13)
C4 C5 C6 122.05(14)
C8 C6 C7 115.98(14)
C8 C6 C5 125.79(14)
C7 C6 C5 118.06(14)
N3 C8 C6 126.80(15)
N3 C8 H8 116.6
C6 C8 H8 116.6
N3 C9 C10 113.03(13)
N3 C9 H9 109.0
C10 C9 H9 109.0
N3 C9 H10 109.0
C10 C9 H10 109.0
H9 C9 H10 107.8
C15 C10 C11 118.57(14)
C15 C10 C9 120.75(14)
C11 C10 C9 120.68(15)
C10 C15 C14 120.31(14)
C10 C15 H15 119.8
C14 C15 H15 119.8
C13 C14 C15 120.43(16)
C13 C14 H14 119.8
C15 C14 H14 119.8
C12 C13 C14 119.71(16)
C12 C13 H13 120.1
C14 C13 H13 120.1
N1 C1 C2 124.27(17)
N1 C1 H1 117.9
C2 C1 H1 117.9
C13 C12 C11 120.25(16)
C13 C12 H12 119.9
C11 C12 H12 119.9
C12 C11 C10 120.74(16)
C12 C11 H11 119.6
C10 C11 H11 119.6
N2 C7 C6 178.3(2)
loop_
_geom_bond_atom_site_label_1
_geom_bond_atom_site_label_2
_geom_bond_distance
N3 C8 1.317(2)
N3 C9 1.4584(19)
N3 H5 0.900(19)
N1 C1 1.337(2)
N1 C5 1.3428(18)
N2 C7 1.148(2)
C2 C1 1.365(2)
C2 C3 1.366(3)
C2 H2 0.9300
C3 C4 1.373(2)
C3 H3 0.9300
C4 C5 1.395(2)
C4 H4 0.9300
C5 C6 1.458(2)
C6 C8 1.373(2)
C6 C7 1.424(2)
C8 H8 0.9300
C9 C10 1.500(2)
C9 H9 0.9700
C9 H10 0.9700
C10 C15 1.378(2)
C10 C11 1.386(2)
C15 C14 1.382(2)
C15 H15 0.9300
C14 C13 1.374(2)
C14 H14 0.9300
C13 C12 1.363(3)
C13 H13 0.9300
C1 H1 0.9300
C12 C11 1.378(2)
C12 H12 0.9300
C11 H11 0.9300
loop_
_geom_torsion_atom_site_label_1
_geom_torsion_atom_site_label_2
_geom_torsion_atom_site_label_3
_geom_torsion_atom_site_label_4
_geom_torsion
C1 C2 C3 C4 0.4(3)
C2 C3 C4 C5 -0.4(3)
C1 N1 C5 C4 0.4(2)
C1 N1 C5 C6 179.45(14)
C3 C4 C5 N1 0.0(2)
C3 C4 C5 C6 -179.01(15)
N1 C5 C6 C8 -4.1(2)
C4 C5 C6 C8 174.94(15)
N1 C5 C6 C7 -179.10(14)
C4 C5 C6 C7 -0.1(2)
C9 N3 C8 C6 -177.63(15)
C7 C6 C8 N3 176.37(15)
C5 C6 C8 N3 1.2(3)
C8 N3 C9 C10 119.22(17)
N3 C9 C10 C15 -65.1(2)
N3 C9 C10 C11 115.93(17)
C11 C10 C15 C14 -0.2(2)
C9 C10 C15 C14 -179.18(14)
C10 C15 C14 C13 0.4(2)
C15 C14 C13 C12 -0.1(3)
C5 N1 C1 C2 -0.4(3)
C3 C2 C1 N1 0.0(3)
C14 C13 C12 C11 -0.3(3)
C13 C12 C11 C10 0.5(2)
C15 C10 C11 C12 -0.2(2)
C9 C10 C11 C12 178.75(14)
