#------------------------------------------------------------------------------
#$Date: 2019-11-26 12:50:13 +0200 (Tue, 26 Nov 2019) $
#$Revision: 243393 $
#$URL: file:///home/coder/svn-repositories/cod/cif/4/13/36/4133656.cif $
#------------------------------------------------------------------------------
#
# This file is available in the Crystallography Open Database (COD),
# http://www.crystallography.net/
#
# All data on this site have been placed in the public domain by the
# contributors.
#
data_4133656
loop_
_publ_author_name
'Liu, Yidong'
'Liu, Song'
'Li, Dongmei'
'Zhang, Nan'
'Peng, Lei'
'Ao, Jun'
'Song, Choong Eui'
'Lan, Yu'
'Yan, Hailong'
_publ_section_title
;
 Kinetic Resolution of Allylic Alcohol with Chiral BINOL-Based Alkoxides:
 A Combination of Experimental and Theoretical Studies.
;
_journal_issue                   2
_journal_name_full               'Journal of the American Chemical Society'
_journal_page_first              1150
_journal_page_last               1159
_journal_paper_doi               10.1021/jacs.8b12796
_journal_volume                  141
_journal_year                    2019
_chemical_absolute_configuration ad
_chemical_formula_moiety         'C16 H13 Cl O2'
_chemical_formula_sum            'C16 H13 Cl O2'
_chemical_formula_weight         272.71
_space_group_crystal_system      triclinic
_space_group_IT_number           1
_space_group_name_Hall           'P 1'
_space_group_name_H-M_alt        'P 1'
_symmetry_cell_setting           triclinic
_symmetry_space_group_name_Hall  'P 1'
_symmetry_space_group_name_H-M   'P 1'
_atom_sites_solution_hydrogens   geom
_atom_sites_solution_primary     dual
_audit_creation_date             2017-05-08
_audit_creation_method
;
 Olex2 1.2-alpha
 (compiled 2017.03.28 svn.r3405 for OlexSys, GUI svn.r5335)
;
_cell_angle_alpha                68.974(6)
_cell_angle_beta                 75.048(5)
_cell_angle_gamma                71.536(5)
_cell_formula_units_Z            2
_cell_length_a                   6.5896(3)
_cell_length_b                   9.7473(5)
_cell_length_c                   12.2249(8)
_cell_measurement_reflns_used    3312
_cell_measurement_temperature    293(2)
_cell_measurement_theta_max      27.1460
_cell_measurement_theta_min      4.4170
_cell_volume                     685.90(7)
_computing_molecular_graphics
;
 OLEX2: a complete structure solution, refinement and analysis program.
 Dolomanov et al., J. Appl. Cryst. (2009). 42, 339-341
;
_computing_publication_material
;
 OLEX2: a complete structure solution, refinement and analysis program.
 Dolomanov et al., J. Appl. Cryst. (2009). 42, 339-341
;
_computing_structure_refinement  'ShelXL (Sheldrick, 2015)'
_computing_structure_solution    'ShelXT (Sheldrick, 2015)'
_diffrn_ambient_temperature      293(2)
_diffrn_detector_area_resol_mean 16.0892
_diffrn_measured_fraction_theta_full 0.998
_diffrn_measured_fraction_theta_max 0.999
_diffrn_measurement_device_type  'SuperNova, Single source at offset, Eos'
_diffrn_measurement_method       '\w scans'
_diffrn_radiation_type           MoK\a
_diffrn_radiation_wavelength     0.71073
_diffrn_reflns_av_R_equivalents  0.0186
_diffrn_reflns_av_unetI/netI     0.0353
_diffrn_reflns_Laue_measured_fraction_full 0.998
_diffrn_reflns_Laue_measured_fraction_max 0.999
_diffrn_reflns_limit_h_max       8
_diffrn_reflns_limit_h_min       -8
_diffrn_reflns_limit_k_max       12
_diffrn_reflns_limit_k_min       -12
_diffrn_reflns_limit_l_max       15
_diffrn_reflns_limit_l_min       -15
_diffrn_reflns_number            9288
_diffrn_reflns_point_group_measured_fraction_full 0.993
_diffrn_reflns_point_group_measured_fraction_max 0.991
_diffrn_reflns_theta_full        25.242
_diffrn_reflns_theta_max         26.369
_diffrn_reflns_theta_min         3.339
_diffrn_source                   'micro-focus sealed X-ray tube'
_exptl_absorpt_coefficient_mu    0.273
_exptl_absorpt_correction_T_max  1.00000
_exptl_absorpt_correction_T_min  0.85192
_exptl_absorpt_correction_type   multi-scan
_exptl_absorpt_process_details
;
 CrysAlisPro 1.171.38.41k (Rigaku Oxford Diffraction, 2015)
 Empirical absorption correction using spherical harmonics,
 implemented in SCALE3 ABSPACK scaling algorithm.
;
_exptl_crystal_colour            Colorless
_exptl_crystal_density_diffrn    1.320
_exptl_crystal_description       Block
_exptl_crystal_F_000             284
_exptl_crystal_size_max          0.42
_exptl_crystal_size_mid          0.35
_exptl_crystal_size_min          0.32
_refine_diff_density_max         0.230
_refine_diff_density_min         -0.211
_refine_diff_density_rms         0.041
_refine_ls_abs_structure_details
;
 Flack x determined using 1783 quotients [(I+)-(I-)]/[(I+)+(I-)]
 (Parsons, Flack and Wagner, Acta Cryst. B69 (2013) 249-259).
;
_refine_ls_abs_structure_Flack   -0.02(3)
_refine_ls_extinction_method     none
_refine_ls_goodness_of_fit_ref   1.044
_refine_ls_hydrogen_treatment    constr
_refine_ls_matrix_type           full
_refine_ls_number_parameters     345
_refine_ls_number_reflns         5563
_refine_ls_number_restraints     4
_refine_ls_restrained_S_all      1.044
_refine_ls_R_factor_all          0.0563
_refine_ls_R_factor_gt           0.0429
_refine_ls_shift/su_max          0.000
_refine_ls_shift/su_mean         0.000
_refine_ls_structure_factor_coef Fsqd
_refine_ls_weighting_details
;
w=1/[\s^2^(Fo^2^)+(0.0469P)^2^+0.0545P] where P=(Fo^2^+2Fc^2^)/3
;
_refine_ls_weighting_scheme      calc
_refine_ls_wR_factor_gt          0.0955
_refine_ls_wR_factor_ref         0.1072
_reflns_Friedel_coverage         0.985
_reflns_Friedel_fraction_full    0.987
_reflns_Friedel_fraction_max     0.984
_reflns_number_gt                4503
_reflns_number_total             5563
_reflns_threshold_expression     'I > 2\s(I)'
_iucr_refine_instructions_details
;
 lyd-1950.res created by SHELXL-2014/7
 TITL lyd-1950_b.res in P1
 REM Old TITL lyd-1950_b.res in P1
 REM SHELXT solution in P1
 REM R1 0.181, Rweak 0.023, Alpha 0.000, Orientation as input
 REM Flack x = 0.213 ( 0.024 ) from Parsons quotients
 REM Formula found by SHELXT: C32 Cl2 O3
 CELL 0.71073 6.5896 9.7473 12.2249 68.974 75.048 71.536
 ZERR 2 0.0003 0.0005 0.0008 0.006 0.005 0.005
 LATT -1
 SFAC C H Cl O
 UNIT 32 26 2 4
 DFIX 2.5 H004 O00C
 L.S. 30
 PLAN 20
 BOND $H
 LIST 6
 fmap 2
 acta
 SHEL 999 0.8
 REM <olex2.extras>
 REM <HklSrc %.\\LYD-1950.hkl >
 REM </olex2.extras>
 WGHT 0.046900 0.054500
 FVAR 1.04736
 CL01 3 2.162383 0.326162 0.091523 11.00000 0.04250 0.09063 =
 0.06391 -0.01043 0.00679 -0.01916
 CL02 3 -1.162734 0.680784 0.890557 11.00000 0.04392 0.08650 =
 0.06244 -0.01345 0.00333 -0.02369
 O003 4 -0.338615 0.989311 0.584550 11.00000 0.04977 0.04483 =
 0.07569 -0.02937 0.00853 -0.01473
 O004 4 0.791751 0.472506 0.466496 11.00000 0.04536 0.04089 =
 0.06430 -0.00323 -0.00251 -0.00511
 AFIX 147
 H004 2 0.724106 0.507518 0.410792 11.00000 -1.50000
 AFIX 0
 C005 1 -0.345644 0.857181 0.610216 11.00000 0.04093 0.03724 =
 0.04125 -0.01615 -0.00502 -0.00776
 C006 1 -0.550477 0.657201 0.733061 11.00000 0.04102 0.04059 =
 0.05179 -0.01547 0.00035 -0.00485
 AFIX 43
 H006 2 -0.427170 0.581395 0.720820 11.00000 -1.20000
 AFIX 0
 C007 1 0.006079 0.788020 0.489094 11.00000 0.04038 0.04019 =
 0.04317 -0.01856 -0.00150 -0.00771
 AFIX 43
 H007 2 0.004950 0.890210 0.465015 11.00000 -1.20000
 AFIX 0
 C008 1 -0.541477 0.807466 0.684791 11.00000 0.03753 0.03929 =
 0.03308 -0.01129 -0.00363 -0.00677
 C009 1 0.705078 0.217993 0.903270 11.00000 0.09959 0.09712 =
 0.05416 -0.02989 -0.01197 0.01241
 AFIX 43
 H009 2 0.686929 0.197479 0.985101 11.00000 -1.20000
 AFIX 0
 C00A 1 0.199468 0.684324 0.438292 11.00000 0.04074 0.03669 =
 0.04526 -0.01648 -0.00104 -0.00372
 AFIX 13
 H00A 2 0.177872 0.581371 0.471485 11.00000 -1.20000
 AFIX 0
 C00B 1 1.724638 0.089989 0.266309 11.00000 0.04396 0.03805 =
 0.06029 -0.01386 0.00112 -0.00373
 AFIX 43
 H00B 2 1.718447 -0.010625 0.288901 11.00000 -1.20000
 AFIX 0
 O00C 4 0.389234 0.683399 0.475027 11.00000 0.04658 0.06405 =
 0.06089 -0.02502 -0.01840 0.00703
 AFIX 147
 H00C 2 0.386823 0.770222 0.469563 11.00000 -1.50000
 AFIX 0
 O00D 4 1.347604 0.011500 0.402045 11.00000 0.05221 0.03741 =
 0.06876 -0.02125 0.00364 -0.01224
 C00E 1 0.754879 0.283108 0.658371 11.00000 0.04019 0.03166 =
 0.04881 -0.01721 -0.00175 -0.00190
 C00F 1 -0.160112 0.746841 0.564016 11.00000 0.04200 0.03910 =
 0.04810 -0.01694 0.00032 -0.00744
 AFIX 43
 H00F 2 -0.162992 0.645285 0.589469 11.00000 -1.20000
 AFIX 0
 C00G 1 -0.920270 0.728727 0.813043 11.00000 0.03744 0.05333 =
 0.03340 -0.01128 -0.00414 -0.01053
 C00H 1 0.581256 0.228676 0.732322 11.00000 0.04503 0.05442 =
 0.05664 -0.02346 0.00917 -0.00750
 AFIX 43
 H00H 2 0.479196 0.213833 0.700281 11.00000 -1.20000
 AFIX 0
 C00I 1 -0.738463 0.617725 0.798872 11.00000 0.05139 0.04134 =
 0.05056 -0.00891 0.00420 -0.01454
 AFIX 43
 H00I 2 -0.740854 0.516155 0.833228 11.00000 -1.20000
 AFIX 0
 C00J 1 0.903626 0.303296 0.709985 11.00000 0.05192 0.05045 =
 0.06830 -0.02278 -0.01191 -0.00531
 AFIX 43
 H00J 2 1.021535 0.339599 0.661705 11.00000 -1.20000
 AFIX 0
 C00K 1 0.880048 0.270629 0.831268 11.00000 0.08254 0.08302 =
 0.07443 -0.03829 -0.03304 0.00293
 AFIX 43
 H00K 2 0.981891 0.284079 0.864346 11.00000 -1.20000
 AFIX 0
 C00L 1 1.544574 0.196420 0.298857 11.00000 0.03432 0.03668 =
 0.03658 -0.01337 -0.00475 -0.00290
 C00M 1 0.227073 0.727561 0.303643 11.00000 0.03428 0.03238 =
 0.04310 -0.01665 -0.00202 -0.00151
 C00N 1 0.559471 0.196151 0.854714 11.00000 0.07055 0.08166 =
 0.05335 -0.01813 0.01867 -0.00847
 AFIX 43
 H00N 2 0.443005 0.158814 0.903920 11.00000 -1.20000
 AFIX 0
 C00O 1 1.153693 0.258271 0.406277 11.00000 0.03978 0.03247 =
 0.04581 -0.01080 -0.00178 -0.00760
 AFIX 43
 H00O 2 1.151552 0.360794 0.374717 11.00000 -1.20000
 AFIX 0
 C00P 1 1.924314 0.276541 0.168964 11.00000 0.03474 0.05680 =
 0.04061 -0.00985 -0.00381 -0.00921
 C00Q 1 -0.919728 0.880121 0.766826 11.00000 0.03310 0.05201 =
 0.05655 -0.01500 -0.00538 -0.00091
 AFIX 43
 H00Q 2 -1.045034 0.954981 0.778072 11.00000 -1.20000
 AFIX 0
 C00R 1 0.782194 0.318886 0.525746 11.00000 0.03720 0.03754 =
 0.04926 -0.01116 -0.00304 -0.01189
 AFIX 13
 H00R 2 0.657863 0.302530 0.506559 11.00000 -1.20000
 AFIX 0
 C00S 1 0.984066 0.217335 0.481590 11.00000 0.04066 0.03546 =
 0.04541 -0.01450 -0.00319 -0.00822
 AFIX 43
 H00S 2 0.991425 0.113960 0.510142 11.00000 -1.20000
 AFIX 0
 C00T 1 1.911213 0.129580 0.201721 11.00000 0.04575 0.05098 =
 0.06043 -0.01906 0.00560 0.00515
 AFIX 43
 H00T 2 2.029627 0.056396 0.179971 11.00000 -1.20000
 AFIX 0
 C00U 1 0.078945 0.708555 0.251520 11.00000 0.04762 0.05058 =
 0.06001 -0.01772 -0.00997 -0.01446
 AFIX 43
 H00U 2 -0.037657 0.669947 0.298955 11.00000 -1.20000
 AFIX 0
 C00V 1 1.746698 0.386430 0.198363 11.00000 0.04667 0.04666 =
 0.07100 -0.01842 0.00841 -0.01278
 AFIX 43
 H00V 2 1.754361 0.486807 0.175093 11.00000 -1.20000
 AFIX 0
 C00W 1 -0.729165 0.917847 0.703602 11.00000 0.04082 0.04118 =
 0.05367 -0.01744 -0.00300 -0.00467
 AFIX 43
 H00W 2 -0.726140 1.019503 0.672829 11.00000 -1.20000
 AFIX 0
 C00X 1 1.346248 0.146056 0.370850 11.00000 0.03761 0.04090 =
 0.03972 -0.01442 -0.00368 -0.00796
 C00Y 1 0.398066 0.786427 0.230849 11.00000 0.04356 0.05445 =
 0.05175 -0.02142 0.00034 -0.01236
 AFIX 43
 H00Y 2 0.498761 0.800169 0.264549 11.00000 -1.20000
 AFIX 0
 C00Z 1 0.420996 0.825034 0.108694 11.00000 0.06496 0.07201 =
 0.05710 -0.01981 0.01447 -0.01537
 AFIX 43
 H00Z 2 0.536555 0.864634 0.060915 11.00000 -1.20000
 AFIX 0
 C010 1 1.559216 0.346138 0.262107 11.00000 0.04188 0.03924 =
 0.06886 -0.02029 0.00692 -0.00491
 AFIX 43
 H010 2 1.439404 0.420317 0.281182 11.00000 -1.20000
 AFIX 0
 C011 1 0.103344 0.746829 0.128633 11.00000 0.08365 0.08551 =
 0.06427 -0.03241 -0.02575 -0.01436
 AFIX 43
 H011 2 0.003952 0.732996 0.094096 11.00000 -1.20000
 AFIX 0
 C1 1 0.275048 0.805327 0.057983 11.00000 0.08549 0.09025 =
 0.04463 -0.02329 -0.00403 -0.00753
 AFIX 43
 H1 2 0.291195 0.831309 -0.024234 11.00000 -1.20000
 AFIX 0
 HKLF 4
 REM lyd-1950_b.res in P1
 REM R1 = 0.0429 for 4503 Fo > 4sig(Fo) and 0.0563 for all 5563 data
 REM 345 parameters refined using 4 restraints
 END
 WGHT 0.0469 0.0545
 REM Highest difference peak 0.230, deepest hole -0.211, 1-sigma level 0.041
 Q1 1 0.6555 0.5418 0.4837 11.00000 0.05 0.23
 Q2 1 0.3628 0.5727 0.5040 11.00000 0.05 0.19
 Q3 1 0.3466 0.4567 0.4955 11.00000 0.05 0.18
 Q4 1 0.2003 0.5363 0.5179 11.00000 0.05 0.16
 Q5 1 1.9066 0.2065 0.1536 11.00000 0.05 0.15
 Q6 1 -0.5144 0.7397 0.7397 11.00000 0.05 0.14
 Q7 1 1.4734 0.1653 0.3622 11.00000 0.05 0.13
 Q8 1 -0.9127 0.7987 0.8261 11.00000 0.05 0.12
 Q9 1 0.6395 0.4354 0.4844 11.00000 0.05 0.12
 Q10 1 1.5059 0.2717 0.2366 11.00000 0.05 0.12
 Q11 1 -1.1638 0.9956 0.6843 11.00000 0.05 0.12
 Q12 1 -0.0016 0.9766 0.3740 11.00000 0.05 0.12
 Q13 1 -0.4713 0.8392 0.6228 11.00000 0.05 0.12
 Q14 1 -0.6446 1.0186 0.7468 11.00000 0.05 0.12
 Q15 1 -0.1612 1.0059 0.3811 11.00000 0.05 0.12
 Q16 1 -0.7739 0.5164 0.9778 11.00000 0.05 0.11
 Q17 1 1.3190 0.5065 0.2045 11.00000 0.05 0.11
 Q18 1 -0.6152 0.5370 0.9534 11.00000 0.05 0.11
 Q19 1 0.2262 0.7138 0.3662 11.00000 0.05 0.11
 Q20 1 0.5448 0.1112 0.7331 11.00000 0.05 0.11
 REM The information below was added by Olex2.
 REM
 REM R1 = 0.0429 for 4503 Fo > 4sig(Fo) and 0.0563 for all 9965 data
 REM n/a parameters refined using n/a restraints
 REM Highest difference peak 0.23, deepest hole -0.21
 REM Mean Shift 0, Max Shift 0.000.
 REM +++ Tabular Listing of Refinement Information +++
 REM R1_all = 0.0563
 REM R1_gt = 0.0429
 REM wR_ref = 0.1072
 REM GOOF = 1.044
 REM Shift_max = 0.000
 REM Shift_mean = 0
 REM Reflections_all = 9965
 REM Reflections_gt = 4503
 REM Parameters = n/a
 REM Hole = -0.21
 REM Peak = 0.23
 REM Flack = -0.02(3)
;
_cod_data_source_file            ja8b12796_si_002.cif
_cod_data_source_block           LYD-1950
_cod_depositor_comments
;
The following automatic conversions were performed:

data item '_symmetry_cell_setting' value 'Triclinic' was changed to
'triclinic' in accordance with the
/home/saulius/struct/COD-crude-data/automatic-downloads/DataCite-retrospective/ACS/depositions/lib/dictionaries/cif_core.dic
dictionary named 'cif_core.dic' version 2.4.2 last updated on
2011-04-26.

Automatic conversion script
Id: cif_fix_values 6909 2019-04-08 15:41:33Z antanas 
;
_cod_database_code               4133656
_shelx_shelxl_version_number     2014/7
_shelx_space_group_comment
;
 The symmetry employed for this shelxl refinement is uniquely defined
 by the following loop, which should always be used as a source of
 symmetry information in preference to the above space-group names.
 They are only intended as comments.
;
_oxdiff_exptl_absorpt_empirical_details
;
 Empirical correction (ABSPACK) includes:
 - Absorption correction using spherical harmonics
 - Frame scaling
;
_oxdiff_exptl_absorpt_empirical_full_max 1.465
_oxdiff_exptl_absorpt_empirical_full_min 0.628
_reflns_friedel_fraction
;
 is defined as the number of unique
 Friedel pairs measured divided by the number that would be
 possible theoretically, ignoring centric projections and
 systematic absences.
;
_olex2_refinement_description
;
 1. Fixed Uiso
 At 1.2 times of:
 All C(H) groups
 At 1.5 times of:
 All O(H) groups
 2. Restrained distances
 H004-O00C
 2.5 with sigma of 0.02
 3.a Ternary CH refined with riding coordinates:
 C00A(H00A), C00R(H00R)
 3.b Aromatic/amide H refined with riding coordinates:
 C006(H006), C007(H007), C009(H009), C00B(H00B), C00F(H00F), C00H(H00H),
 C00I(H00I), C00J(H00J), C00K(H00K), C00N(H00N), C00O(H00O), C00Q(H00Q),
 C00S(H00S), C00T(H00T), C00U(H00U), C00V(H00V), C00W(H00W), C00Y(H00Y),
 C00Z(H00Z), C010(H010), C011(H011), C1(H1)
 3.c Idealised tetrahedral OH refined as rotating group:
 O004(H004), O00C(H00C)
;
_olex2_submission_special_instructions 'No special instructions were received'
loop_
_space_group_symop_operation_xyz
'x, y, z'
loop_
_atom_site_label
_atom_site_type_symbol
_atom_site_fract_x
_atom_site_fract_y
_atom_site_fract_z
_atom_site_U_iso_or_equiv
_atom_site_adp_type
_atom_site_occupancy
_atom_site_site_symmetry_order
_atom_site_calc_flag
_atom_site_refinement_flags_posn
Cl01 Cl 2.16238(18) 0.32616(14) 0.09152(11) 0.0718(4) Uani 1 1 d .
Cl02 Cl -1.16273(17) 0.68078(14) 0.89056(10) 0.0674(4) Uani 1 1 d .
O003 O -0.3386(5) 0.9893(3) 0.5846(3) 0.0566(9) Uani 1 1 d .
O004 O 0.7918(4) 0.4725(3) 0.4665(2) 0.0565(7) Uani 1 1 d .
H004 H 0.7241 0.5075 0.4108 0.085 Uiso 1 1 calc DGR
C005 C -0.3456(7) 0.8572(4) 0.6102(4) 0.0394(10) Uani 1 1 d .
C006 C -0.5505(8) 0.6572(5) 0.7331(4) 0.0469(11) Uani 1 1 d .
H006 H -0.4272 0.5814 0.7208 0.056 Uiso 1 1 calc R
C007 C 0.0061(7) 0.7880(5) 0.4891(4) 0.0412(10) Uani 1 1 d .
H007 H 0.0049 0.8902 0.4650 0.049 Uiso 1 1 calc R
C008 C -0.5415(7) 0.8075(4) 0.6848(3) 0.0376(10) Uani 1 1 d .
C009 C 0.7051(13) 0.2180(8) 0.9033(5) 0.091(2) Uani 1 1 d .
H009 H 0.6869 0.1975 0.9851 0.109 Uiso 1 1 calc R
C00A C 0.1995(7) 0.6843(5) 0.4383(3) 0.0424(10) Uani 1 1 d .
H00A H 0.1779 0.5814 0.4715 0.051 Uiso 1 1 calc R
C00B C 1.7246(7) 0.0900(5) 0.2663(4) 0.0513(12) Uani 1 1 d .
H00B H 1.7184 -0.0106 0.2889 0.062 Uiso 1 1 calc R
O00C O 0.3892(4) 0.6834(3) 0.4750(3) 0.0587(7) Uani 1 1 d D
H00C H 0.3868 0.7702 0.4696 0.088 Uiso 1 1 calc GR
O00D O 1.3476(5) 0.0115(3) 0.4020(3) 0.0537(8) Uani 1 1 d .
C00E C 0.7549(7) 0.2831(4) 0.6584(4) 0.0416(10) Uani 1 1 d .
C00F C -0.1601(7) 0.7468(5) 0.5640(4) 0.0442(11) Uani 1 1 d .
H00F H -0.1630 0.6453 0.5895 0.053 Uiso 1 1 calc R
C00G C -0.9203(7) 0.7287(5) 0.8130(3) 0.0424(10) Uani 1 1 d .
C00H C 0.5813(8) 0.2287(5) 0.7323(4) 0.0548(12) Uani 1 1 d .
H00H H 0.4792 0.2138 0.7003 0.066 Uiso 1 1 calc R
C00I C -0.7385(8) 0.6177(5) 0.7989(4) 0.0509(11) Uani 1 1 d .
H00I H -0.7409 0.5162 0.8332 0.061 Uiso 1 1 calc R
C00J C 0.9036(9) 0.3033(5) 0.7100(5) 0.0569(12) Uani 1 1 d .
H00J H 1.0215 0.3396 0.6617 0.068 Uiso 1 1 calc R
C00K C 0.8800(11) 0.2706(7) 0.8313(5) 0.0777(17) Uani 1 1 d .
H00K H 0.9819 0.2841 0.8643 0.093 Uiso 1 1 calc R
C00L C 1.5446(6) 0.1964(4) 0.2989(3) 0.0369(10) Uani 1 1 d .
C00M C 0.2271(7) 0.7276(4) 0.3036(3) 0.0376(9) Uani 1 1 d .
C00N C 0.5595(10) 0.1962(7) 0.8547(5) 0.0775(17) Uani 1 1 d .
H00N H 0.4430 0.1588 0.9039 0.093 Uiso 1 1 calc R
C00O C 1.1537(7) 0.2583(4) 0.4063(4) 0.0410(10) Uani 1 1 d .
H00O H 1.1516 0.3608 0.3747 0.049 Uiso 1 1 calc R
C00P C 1.9243(7) 0.2765(5) 0.1690(4) 0.0465(11) Uani 1 1 d .
C00Q C -0.9197(7) 0.8801(5) 0.7668(4) 0.0504(12) Uani 1 1 d .
H00Q H -1.0450 0.9550 0.7781 0.061 Uiso 1 1 calc R
C00R C 0.7822(7) 0.3189(4) 0.5257(4) 0.0420(10) Uani 1 1 d .
H00R H 0.6579 0.3025 0.5066 0.050 Uiso 1 1 calc R
C00S C 0.9841(7) 0.2173(5) 0.4816(4) 0.0409(10) Uani 1 1 d .
H00S H 0.9914 0.1140 0.5101 0.049 Uiso 1 1 calc R
C00T C 1.9112(8) 0.1296(6) 0.2017(4) 0.0589(13) Uani 1 1 d .
H00T H 2.0296 0.0564 0.1800 0.071 Uiso 1 1 calc R
C00U C 0.0789(8) 0.7086(5) 0.2515(4) 0.0516(11) Uani 1 1 d .
H00U H -0.0377 0.6699 0.2990 0.062 Uiso 1 1 calc R
C00V C 1.7467(8) 0.3864(5) 0.1984(4) 0.0579(13) Uani 1 1 d .
H00V H 1.7544 0.4868 0.1751 0.069 Uiso 1 1 calc R
C00W C -0.7292(7) 0.9178(5) 0.7036(4) 0.0467(11) Uani 1 1 d .
H00W H -0.7261 1.0195 0.6728 0.056 Uiso 1 1 calc R
C00X C 1.3462(7) 0.1461(5) 0.3709(3) 0.0397(10) Uani 1 1 d .
C00Y C 0.3981(8) 0.7864(5) 0.2308(4) 0.0500(11) Uani 1 1 d .
H00Y H 0.4988 0.8002 0.2645 0.060 Uiso 1 1 calc R
C00Z C 0.4210(9) 0.8250(6) 0.1087(5) 0.0699(15) Uani 1 1 d .
H00Z H 0.5366 0.8646 0.0609 0.084 Uiso 1 1 calc R
C010 C 1.5592(8) 0.3461(5) 0.2621(4) 0.0533(12) Uani 1 1 d .
H010 H 1.4394 0.4203 0.2812 0.064 Uiso 1 1 calc R
C011 C 0.1033(10) 0.7468(7) 0.1286(5) 0.0739(16) Uani 1 1 d .
H011 H 0.0040 0.7330 0.0941 0.089 Uiso 1 1 calc R
C1 C 0.2750(10) 0.8053(7) 0.0580(5) 0.0775(17) Uani 1 1 d .
H1 H 0.2912 0.8313 -0.0242 0.093 Uiso 1 1 calc R
loop_
_atom_site_aniso_label
_atom_site_aniso_U_11
_atom_site_aniso_U_22
_atom_site_aniso_U_33
_atom_site_aniso_U_23
_atom_site_aniso_U_13
_atom_site_aniso_U_12
Cl01 0.0425(7) 0.0906(10) 0.0639(8) -0.0104(7) 0.0068(6) -0.0192(7)
Cl02 0.0439(7) 0.0865(9) 0.0624(7) -0.0135(7) 0.0033(6) -0.0237(7)
O003 0.050(2) 0.0448(18) 0.076(2) -0.0294(16) 0.0085(16) -0.0147(15)
O004 0.0454(16) 0.0409(13) 0.0643(18) -0.0032(12) -0.0025(13) -0.0051(11)
C005 0.041(3) 0.037(2) 0.041(2) -0.0161(19) -0.0050(19) -0.0078(19)
C006 0.041(3) 0.041(2) 0.052(2) -0.0155(19) 0.0004(19) -0.0049(19)
C007 0.040(3) 0.040(2) 0.043(2) -0.0186(19) -0.002(2) -0.0077(19)
C008 0.038(3) 0.039(2) 0.033(2) -0.0113(17) -0.0036(18) -0.0068(19)
C009 0.100(5) 0.097(4) 0.054(4) -0.030(3) -0.012(4) 0.012(4)
C00A 0.041(2) 0.037(2) 0.045(2) -0.0165(18) -0.0010(18) -0.0037(18)
C00B 0.044(3) 0.038(3) 0.060(3) -0.014(2) 0.001(2) -0.004(2)
O00C 0.0466(17) 0.0640(17) 0.0609(17) -0.0250(15) -0.0184(13) 0.0070(13)
O00D 0.052(2) 0.0374(17) 0.069(2) -0.0212(15) 0.0036(16) -0.0122(14)
C00E 0.040(2) 0.032(2) 0.049(2) -0.0172(18) -0.0017(19) -0.0019(17)
C00F 0.042(3) 0.039(2) 0.048(2) -0.017(2) 0.000(2) -0.007(2)
C00G 0.037(3) 0.053(3) 0.033(2) -0.011(2) -0.0041(18) -0.011(2)
C00H 0.045(3) 0.054(3) 0.057(3) -0.023(2) 0.009(2) -0.007(2)
C00I 0.051(3) 0.041(2) 0.051(3) -0.0089(19) 0.004(2) -0.015(2)
C00J 0.052(3) 0.050(3) 0.068(3) -0.023(2) -0.012(2) -0.005(2)
C00K 0.083(5) 0.083(4) 0.074(4) -0.038(3) -0.033(3) 0.003(3)
C00L 0.034(3) 0.037(2) 0.037(2) -0.0134(17) -0.0047(18) -0.0029(18)
C00M 0.034(2) 0.032(2) 0.043(2) -0.0167(17) -0.0020(17) -0.0015(17)
C00N 0.071(4) 0.082(4) 0.053(3) -0.018(3) 0.019(3) -0.008(3)
C00O 0.040(3) 0.032(2) 0.046(2) -0.0108(19) -0.0018(19) -0.0076(18)
C00P 0.035(3) 0.057(3) 0.041(2) -0.010(2) -0.0038(19) -0.009(2)
C00Q 0.033(3) 0.052(3) 0.057(3) -0.015(2) -0.005(2) -0.001(2)
C00R 0.037(2) 0.038(2) 0.049(2) -0.0112(18) -0.0030(18) -0.0119(18)
C00S 0.041(3) 0.035(2) 0.045(2) -0.0145(19) -0.003(2) -0.0082(18)
C00T 0.046(3) 0.051(3) 0.060(3) -0.019(2) 0.006(2) 0.005(2)
C00U 0.048(3) 0.051(3) 0.060(3) -0.018(2) -0.010(2) -0.014(2)
C00V 0.047(3) 0.047(3) 0.071(3) -0.018(2) 0.008(2) -0.013(2)
C00W 0.041(3) 0.041(2) 0.054(3) -0.017(2) -0.003(2) -0.005(2)
C00X 0.038(2) 0.041(3) 0.040(2) -0.0144(19) -0.0037(18) -0.0080(19)
C00Y 0.044(3) 0.054(3) 0.052(3) -0.021(2) 0.000(2) -0.012(2)
C00Z 0.065(4) 0.072(3) 0.057(3) -0.020(3) 0.014(3) -0.015(3)
C010 0.042(3) 0.039(2) 0.069(3) -0.020(2) 0.007(2) -0.005(2)
C011 0.084(4) 0.086(4) 0.064(3) -0.032(3) -0.026(3) -0.014(3)
C1 0.085(4) 0.090(4) 0.045(3) -0.023(3) -0.004(3) -0.008(3)
loop_
_atom_type_symbol
_atom_type_description
_atom_type_scat_dispersion_real
_atom_type_scat_dispersion_imag
_atom_type_scat_source
H H 0.0000 0.0000 'International Tables Vol C Tables 4.2.6.8 and 6.1.1.4'
Cl Cl 0.1484 0.1585 'International Tables Vol C Tables 4.2.6.8 and 6.1.1.4'
C C 0.0033 0.0016 'International Tables Vol C Tables 4.2.6.8 and 6.1.1.4'
O O 0.0106 0.0060 'International Tables Vol C Tables 4.2.6.8 and 6.1.1.4'
loop_
_geom_angle_atom_site_label_1
_geom_angle_atom_site_label_2
_geom_angle_atom_site_label_3
_geom_angle
O003 C005 C008 120.1(4)
O003 C005 C00F 120.1(4)
O004 C00R C00E 111.3(3)
O004 C00R H00R 108.7
O004 C00R C00S 108.9(3)
C005 C00F H00F 119.0
C006 C008 C005 123.7(4)
C006 C008 C00W 117.9(4)
C006 C00I H00I 120.4
C007 C00A H00A 108.0
C007 C00A C00M 112.4(3)
C007 C00F C005 122.1(4)
C007 C00F H00F 119.0
C008 C005 C00F 119.8(3)
C008 C006 H006 119.4
C008 C00W H00W 119.3
C009 C00K C00J 119.7(6)
C009 C00K H00K 120.2
C009 C00N C00H 121.1(6)
C009 C00N H00N 119.5
C00A C007 H007 117.3
C00A O00C H00C 109.5
C00B C00L C00X 119.0(3)
C00B C00L C010 117.6(4)
C00B C00T C00P 120.1(4)
C00B C00T H00T 119.9
O00C C00A C007 109.2(3)
O00C C00A H00A 108.0
O00C C00A C00M 111.2(3)
O00D C00X C00L 119.5(4)
O00D C00X C00O 121.0(4)
C00E C00H H00H 120.0
C00E C00H C00N 119.9(5)
C00E C00J H00J 119.3
C00E C00R H00R 108.7
C00F C007 H007 117.3
C00F C007 C00A 125.5(4)
C00G C00I C006 119.2(4)
C00G C00I H00I 120.4
C00G C00Q H00Q 120.8
C00H C00E C00J 118.1(4)
C00H C00E C00R 120.9(4)
C00H C00N H00N 119.5
C00I C006 H006 119.4
C00I C006 C008 121.3(4)
C00I C00G Cl02 119.8(3)
C00I C00G C00Q 121.7(4)
C00J C00E C00R 120.9(4)
C00J C00K H00K 120.2
C00K C009 H009 120.1
C00K C00J C00E 121.3(5)
C00K C00J H00J 119.3
C00L C00B H00B 119.3
C00L C010 H010 119.3
C00M C00A H00A 108.0
C00M C00U H00U 119.8
C00M C00U C011 120.4(5)
C00M C00Y H00Y 119.6
C00N C009 H009 120.1
C00N C009 C00K 119.9(6)
C00N C00H H00H 120.0
C00O C00S C00R 127.0(4)
C00O C00S H00S 116.5
C00O C00X C00L 119.5(3)
C00P C00T H00T 119.9
C00P C00V H00V 120.3
C00Q C00G Cl02 118.5(4)
C00Q C00W C008 121.5(4)
C00Q C00W H00W 119.3
C00R O004 H004 109.5
C00R C00S H00S 116.5
C00S C00O H00O 119.1
C00S C00O C00X 121.8(4)
C00S C00R C00E 110.5(3)
C00S C00R H00R 108.7
C00T C00B H00B 119.3
C00T C00B C00L 121.4(4)
C00T C00P Cl01 120.4(4)
C00T C00P C00V 120.1(4)
C00U C00M C00A 119.9(4)
C00U C00M C00Y 118.6(4)
C00U C011 H011 120.0
C00V C00P Cl01 119.5(4)
C00V C010 C00L 121.3(4)
C00V C010 H010 119.3
C00W C008 C005 118.4(3)
C00W C00Q C00G 118.4(4)
C00W C00Q H00Q 120.8
C00X C00O H00O 119.1
C00Y C00M C00A 121.5(4)
C00Y C00Z H00Z 119.9
C00Z C00Y C00M 120.8(5)
C00Z C00Y H00Y 119.6
C00Z C1 C011 120.0(5)
C00Z C1 H1 120.0
C010 C00L C00X 123.4(4)
C010 C00V C00P 119.4(4)
C010 C00V H00V 120.3
C011 C00U H00U 119.8
C011 C1 H1 120.0
C1 C00Z C00Y 120.3(5)
C1 C00Z H00Z 119.9
C1 C011 C00U 120.0(5)
C1 C011 H011 120.0
loop_
_geom_bond_atom_site_label_1
_geom_bond_atom_site_label_2
_geom_bond_distance
Cl01 C00P 1.725(5)
Cl02 C00G 1.744(5)
O003 C005 1.225(5)
O004 H004 0.8200
O004 C00R 1.424(4)
C005 C008 1.484(6)
C005 C00F 1.489(6)
C006 H006 0.9300
C006 C008 1.383(6)
C006 C00I 1.377(6)
C007 H007 0.9300
C007 C00A 1.502(6)
C007 C00F 1.302(5)
C008 C00W 1.389(6)
C009 H009 0.9300
C009 C00K 1.376(9)
C009 C00N 1.354(9)
C00A H00A 0.9800
C00A O00C 1.430(5)
C00A C00M 1.522(5)
C00B H00B 0.9300
C00B C00L 1.384(6)
C00B C00T 1.366(6)
O00C H00C 0.8200
O00D C00X 1.225(5)
C00E C00H 1.384(6)
C00E C00J 1.389(6)
C00E C00R 1.505(6)
C00F H00F 0.9300
C00G C00I 1.357(6)
C00G C00Q 1.379(6)
C00H H00H 0.9300
C00H C00N 1.392(7)
C00I H00I 0.9300
C00J H00J 0.9300
C00J C00K 1.378(7)
C00K H00K 0.9300
C00L C00X 1.492(5)
C00L C010 1.392(5)
C00M C00U 1.383(6)
C00M C00Y 1.384(6)
C00N H00N 0.9300
C00O H00O 0.9300
C00O C00S 1.321(5)
C00O C00X 1.473(6)
C00P C00T 1.367(7)
C00P C00V 1.383(6)
C00Q H00Q 0.9300
C00Q C00W 1.377(6)
C00R H00R 0.9800
C00R C00S 1.490(6)
C00S H00S 0.9300
C00T H00T 0.9300
C00U H00U 0.9300
C00U C011 1.390(7)
C00V H00V 0.9300
C00V C010 1.371(6)
C00W H00W 0.9300
C00Y H00Y 0.9300
C00Y C00Z 1.382(7)
C00Z H00Z 0.9300
C00Z C1 1.362(8)
C010 H010 0.9300
C011 H011 0.9300
C011 C1 1.379(8)
C1 H1 0.9300
loop_
_refln_index_h
_refln_index_k
_refln_index_l
_refln_F_squared_meas
_refln_F_squared_sigma
4 7 -1 65.19 5.33
-5 3 -7 5.32 1.86
3 -5 2 103.25 5.12
-3 -5 -3 179.54 7.12
-3 5 -2 100.91 6.97
1 -1 2 3365.91 22.59
-3 5 -3 11.67 2.47
-8 -9 -4 13.81 3
3 -5 3 16.37 2.31
0 0 2 453.32 4.05
0 0 -2 457.28 5.96
0 0 -2 461.34 6.06
-6 -8 -3 37.44 4.21
0 0 -3 1372.79 12.59
0 0 -3 1358.59 12.86
0 0 3 1362.18 13.1
-3 5 -4 133.11 8.18
0 0 3 1344.58 8.82
0 0 4 39.68 2.64
0 0 4 38.31 1.78
0 0 2 449.55 6.04
0 0 4 39.96 2.6
0 0 -4 35.07 2.32
0 0 -5 1198.75 15.76
3 -5 4 141.11 7.06
0 0 -6 238.15 7.75
0 0 6 232.64 5.58
0 0 6 240.87 8.05
6 8 3 26.48 4.16
0 0 7 4.78 1.49
0 0 7 5 0.96
0 0 7 5.27 0.95
3 -5 5 23.64 3.27
0 0 8 28.8 2.4
0 0 8 29.9 3.47
0 0 -9 5.95 1.75
0 0 -7 4.13 1.35
0 0 9 6.82 2.02
0 0 10 150.23 8.76
0 0 10 159.1 6.47
3 -5 6 124.39 7.24
0 0 11 11.26 2.69
0 0 -11 12.29 2.75
0 0 -12 11.59 2.71
-6 -8 -4 3.37 1.56
0 0 -13 0.92 1.1
0 0 13 0.18 1.25
0 0 14 3.54 2.04
3 -5 7 24.69 3.23
0 1 -13 10.06 2.8
0 -1 13 12.58 3.48
0 -1 12 17.37 3.53
0 0 12 11.91 2.92
0 -1 11 2.39 1.53
0 1 -11 6.24 2.14
0 1 -10 0.33 1.13
3 -5 9 2.1 1.5
0 1 -9 279.42 10.95
0 -1 9 264.44 7.05
0 -1 9 268.89 11.47
-6 -8 -4 4.31 1.61
0 -1 8 3.37 1.33
0 1 -8 6.44 1.63
0 -1 8 3.63 0.85
3 -4 -13 0.01 1.82
0 1 -7 25.33 2.99
0 -1 7 28.63 2.04
0 -1 7 32.15 3.46
0 -1 8 4.13 0.87
0 -1 6 13 1.17
0 -1 6 12.22 2
0 1 -6 14.89 2.06
3 -4 -11 8.28 2.63
0 -1 5 139.39 3.25
0 1 -5 148.99 5.92
0 -1 5 145.89 6.16
6 8 4 1.01 0.98
0 1 -4 272.93 7.25
0 1 -4 250.47 2.9
0 -1 4 264.62 3.7
-3 4 9 78.74 7.19
0 -1 4 260.21 4.26
0 -1 4 265.85 2.95
0 -1 3 813.23 6.29
0 1 -4 266.84 6.39
0 1 -3 854.96 11.45
0 -1 3 852 11.64
0 -1 3 853.48 11.95
3 -4 -8 9.05 1.91
0 1 -3 845.19 9.87
0 -1 3 851.53 5.37
0 -1 2 241.56 3.04
6 8 5 8.19 2.37
0 -1 2 244.06 5.6
0 1 -2 221.12 4.95
0 -1 2 248.12 5.34
-3 4 7 142.73 9.15
0 1 -2 230.88 5.22
0 1 -1 76.98 2.36
0 -1 -2 104.89 2.13
0 1 -2 230.16 4.3
0 1 2 105.77 2.29
0 -1 -2 104.35 3.21
0 1 2 102.17 2.23
-3 4 6 22.67 3.59
0 1 2 102.3 2.76
0 1 3 321.63 3.95
0 1 3 326.5 5.54
-6 -8 -5 9.61 2.2
0 -1 -3 326.32 5.15
0 1 3 315.03 5.48
0 -1 -3 327.47 6.54
-3 4 4 3.56 1.62
0 -1 -4 26.29 1.6
0 -1 -4 27.6 2.12
0 1 4 26.74 2.07
0 1 3 318.65 6.18
0 1 4 25.95 1.75
0 -1 -4 27.26 0.97
0 1 4 26.38 1.91
3 -4 -3 48.16 4.43
0 1 5 416.72 3.71
0 1 5 428.92 8.86
0 1 5 400.25 7.59
-6 -8 -5 9.75 2.18
0 1 6 446.04 8.7
0 -1 -6 458.89 10.56
0 1 6 461.28 10.39
3 -4 -3 48.49 2.52
0 1 7 240.43 6.99
0 -1 -7 247.37 8.45
0 1 8 2.16 1.13
0 -1 -5 441.69 9.36
0 1 8 4.71 1.08
0 1 9 92.04 6.14
0 1 9 95.8 5.09
3 -4 -2 81.36 3.48
0 1 10 5.09 1.39
0 -1 -10 4.8 1.39
0 1 10 6 1.82
6 8 6 18.89 3.28
0 1 11 140.83 8.71
0 -1 -11 133.27 8.26
0 1 12 38.62 4.97
-3 4 1 18.21 2.92
0 -1 -12 39.42 4.83
0 -1 -12 49.29 5.58
0 -1 -13 1.66 1.4
0 1 11 130.62 6.75
0 1 14 1.03 1.31
0 -1 -14 0.38 1.24
0 2 -13 7.36 2.44
-3 4 -1 0.89 0.8
0 -2 12 51.8 6.38
0 2 -12 59.11 6.36
0 -2 11 3.15 1.69
-6 -8 -6 21.5 3.26
0 2 -10 8.71 2.3
0 -2 10 11.27 2.83
0 -2 9 1.89 1.24
-3 4 -2 86.82 5.83
0 2 -8 23.78 3.19
0 -2 8 23.91 1.67
0 -2 8 22.66 3.45
0 2 -11 2.8 1.46
0 -2 7 92.48 3.35
0 2 -7 95.44 5.95
0 -2 7 94.97 6.23
-3 4 -3 8.48 1.88
0 2 -6 17.9 2.47
0 -2 6 19.54 1.14
0 -2 6 16.74 1.1
-6 -8 -6 20.81 3.18
0 -2 6 21.28 2.78
0 -2 5 590.96 5.4
0 2 -5 616.48 13.06
-3 4 -4 3.5 1.23
0 2 -5 600.65 6.39
0 -2 5 610.46 6.38
0 -2 4 11.47 1.74
0 2 -6 18.77 1.13
0 2 -4 12.8 0.96
0 -2 4 11.63 0.91
0 -2 4 9.96 0.73
-3 4 -5 73.38 5.71
0 -2 3 57.68 3.14
0 2 -3 55.7 2.72
0 2 -3 57.36 2.08
-6 -8 -7 83.95 6.36
0 -2 3 54.83 2.03
0 2 -3 61.53 3.34
0 -2 3 56.17 3.35
3 -4 6 6.18 1.78
0 -2 2 1477.73 10.93
0 -2 2 1525.14 15.14
0 -2 2 1519.95 13.81
0 2 -3 59.75 3.55
0 -2 2 1515.23 17.49
0 2 -2 1519.88 12.21
0 2 -2 1522.24 14.61
3 -4 7 127.83 6.87
0 -2 1 393.34 4.85
0 -2 1 410.05 5.79
0 -2 1 405.45 5.87
-6 -8 -7 79.97 6.11
0 -2 1 413.74 6.69
0 2 -1 398.42 6.43
0 2 -1 406.89 8.13
-3 4 -8 7.18 2.25
0 2 -1 398.4 5.09
0 -2 0 7212.65 32.26
0 2 0 7309.03 33.55
0 -2 1 397.5 8.25
0 -2 -1 212.18 5.53
0 2 1 209.58 5.49
0 -2 -1 195.89 4.17
3 -4 9 1.27 1.26
0 -2 -1 204.59 4.3
0 -2 -2 4336.91 26.02
0 2 2 4258.71 25.28
6 8 7 66.32 6.06
0 -2 -2 4199.37 19.27
0 2 2 4252.14 20.41
0 -2 -2 4300.58 21.02
3 -4 11 1.57 1.44
0 2 3 1426.19 15.19
0 -2 -3 1403.88 15.71
0 -2 -3 1396.14 12.66
0 2 2 4357.36 22.17
0 2 3 1367.18 13.67
0 2 3 1426.25 9.52
0 2 4 118.37 3.44
-3 3 11 2.27 1.56
0 -2 -4 116.87 3.09
0 -2 -4 117.63 4.97
0 2 4 117.51 4.31
-6 -8 -8 24.75 3.5
0 2 4 118.12 3.57
0 2 5 1082.78 9.04
0 2 5 1095.58 12.99
-3 3 10 2.28 1.04
0 -2 -5 1121.03 16.55
0 -2 -5 1088.72 9.04
0 2 6 22.68 1.27
0 -2 -4 116.51 3.93
0 -2 -6 22.84 2.59
0 2 6 17.68 1.95
0 2 6 22.42 2.16
-3 3 9 101.52 6.75
0 -2 -7 201.87 8.11
0 2 7 193.78 6.83
0 2 7 209.52 3.76
6 8 8 20.93 3.44
0 2 8 94.81 5.06
0 -2 -8 87.1 2.34
0 -2 -8 90.36 5.83
-3 3 8 37.14 3.85
0 2 8 92.49 5.33
0 2 9 34.32 3.6
0 -2 -9 41.36 4.28
0 2 7 201.58 7.1
0 -2 -10 9.43 2.17
0 2 10 13.23 2.54
0 2 10 8.96 1.83
-3 3 7 223.36 8.88
0 2 11 14.43 2.38
0 -2 -11 14.6 2.94
0 2 12 19.49 3.4
-6 -8 -9 11.3 2.45
0 -2 -12 15.59 3.29
0 -2 -13 12.11 3.05
0 2 13 16.08 2.81
-3 3 6 140.98 8.39
0 2 14 -0.31 1.08
0 -2 -14 -0.64 1.35
0 2 15 1.63 1.12
0 2 12 19.56 2.94
0 3 -12 2.3 1.74
0 -3 11 43.21 5.72
0 3 -11 39.74 5.1
-3 3 5 80.22 4.64
0 3 -10 2.96 1.7
0 -3 9 63.89 6.21
0 3 -9 80.53 6.45
6 8 9 13.79 2.84
0 -3 8 13.53 2.74
0 -3 7 5.76 1.66
0 -3 7 5.37 0.77
3 -3 -4 122.36 4.84
0 -3 6 137.72 3.83
0 3 -6 142.35 7.29
0 -3 6 135.79 7.38
0 3 -8 8.37 2.03
0 3 -5 2.25 0.56
0 3 -5 0.47 0.67
0 -3 5 1.43 0.48
-3 3 3 114.57 7.13
0 -3 4 34.62 1.95
0 3 -4 30.19 1.85
0 -3 4 31.64 3.04
-6 -8 -10 2.45 1.41
0 -3 4 29.5 1.22
0 -3 3 440.38 10.19
0 3 -3 419.83 7
-3 3 2 70.61 5.53
0 3 -3 419.57 7.94
0 3 -3 410 10.65
0 -3 3 439.36 9.18
0 3 -4 34 3.2
0 3 -3 400.33 7.88
0 3 -2 19 1.84
0 3 -2 15.19 1.36
-3 3 1 180.37 8.6
0 3 -2 16.98 1.2
0 3 -2 17 2.15
0 -3 2 15.09 1.72
6 8 10 0.7 0.91
0 -3 2 22.4 1.65
0 3 -2 16.05 1.57
0 3 -2 16.53 0.98
3 -3 0 6.44 1.46
0 3 -1 1259.98 17.29
0 -3 1 1240.33 13.41
0 3 -1 1203.07 10.49
0 -3 2 15.87 1.1
0 -3 1 1217.92 11.23
0 3 -1 1218.23 11.29
0 -3 1 1206.86 12.35
-3 3 -1 20.18 2.47
0 3 0 812.45 13.75
0 -3 0 795.3 13.26
0 -3 0 773.99 10.05
-6 -8 -11 1.48 1.14
0 3 0 777.78 6.67
0 3 0 778.3 8.61
0 3 0 795.13 9.86
-3 3 -3 7.32 1.64
0 3 0 776.57 10.76
0 -3 0 769.91 6.85
0 -3 -1 1725.71 10.6
0 -3 0 790.62 9.12
0 3 1 1777.94 19.72
0 3 1 1711.35 10.16
0 -3 -1 1720.52 15.1
-3 3 -4 67.16 4.85
0 -3 -1 1732.23 14.78
0 3 1 1751.06 15.76
0 3 2 11.05 1.58
6 8 11 -0.34 0.9
0 -3 -2 6.6 0.99
0 3 2 10.02 1.29
0 -3 -2 8.16 1.39
-3 3 -5 54.33 4.51
0 3 3 222.04 6.32
0 -3 -3 226.31 7.37
0 3 3 227.53 7.11
0 -3 -2 7.66 1.04
0 -3 -3 228.85 5.9
0 -3 -4 277.4 8.54
0 3 4 272.02 6.4
3 -3 6 44.48 4.01
0 3 4 259.94 7.29
0 -3 -4 272.62 5.87
0 -3 -5 156.84 4.34
-6 -8 -12 1.84 1.13
0 -3 -5 147.86 6.63
0 3 5 150.01 5.83
0 3 5 156.11 4.46
-3 3 -7 16.99 2.36
0 -3 -6 164.41 4.33
0 -3 -6 155.82 7.24
0 3 6 161.84 5.26
0 3 5 157.84 4.93
0 3 7 164.44 4.27
0 -3 -7 166.54 4.21
0 3 7 166.29 6.06
3 -3 8 20.5 3.33
0 3 7 155.24 6.69
0 3 8 18.16 2.28
0 3 8 16.52 2.32
6 8 12 -0.52 0.87
0 -3 -8 20.85 1.49
0 -3 -8 16.98 2.72
0 3 9 6.6 1.67
3 -3 9 47.33 5.27
0 3 9 3.51 1.14
0 -3 -9 4.06 0.71
0 -3 -9 5.69 1.79
0 3 8 19.62 1.46
0 -3 -10 28 3.88
0 3 10 31.17 3.5
0 3 10 36 3.8
-3 3 -11 3.48 1.61
0 -3 -11 38.75 4.82
0 3 11 40.47 4.21
0 3 12 41.01 4.67
6 8 13 0.1 0.86
0 -3 -12 31.96 4.72
0 3 13 2.97 1.63
0 -3 -13 2.16 1.81
3 -2 -12 2.1 1.39
0 3 14 10.7 2.51
0 -3 -14 11.2 3.36
0 3 14 5.2 2.01
0 3 12 48.07 4.8
0 -4 11 13.86 3.59
0 4 -11 16.3 3.59
0 4 -10 0.16 1.14
-3 2 11 1.88 1.28
0 -4 9 16.03 3.32
0 4 -9 24.58 3.8
0 4 -8 12.89 2.71
6 8 14 2.12 1.53
0 -4 7 81.01 6.39
0 -4 7 73.57 3.31
0 -4 6 7.21 1.86
3 -2 -9 59.94 5.94
0 4 -6 6.67 1.75
0 -4 5 1.03 0.92
0 4 -5 1.42 0.98
0 -4 8 17.39 3.28
0 -4 4 15.58 1.55
0 -4 4 14.52 2.22
0 4 -4 14.1 2.36
3 -2 -8 13.51 2.78
0 4 -3 45.09 1.47
0 4 -3 43.33 3.94
0 -4 3 46.61 1.95
6 9 -2 18.07 3.93
0 4 -3 49.45 3.04
0 -4 3 42.23 3.47
0 -4 2 1520.47 12.4
-3 2 7 1175.19 23.45
0 -4 2 1533.25 15.66
0 4 -2 1520.6 15.3
0 4 -2 1572.34 13.9
0 -4 3 46.85 2.71
0 4 -1 69.97 4.73
0 4 -1 67.39 3.34
0 -4 1 68.64 3.4
-3 2 6 161.29 8.51
0 -4 1 61.72 2.74
0 4 -1 67.51 2.83
0 4 -1 66.9 3.13
-6 -9 2 19.12 3.14
0 4 0 261.96 8.92
0 4 0 263.99 6.62
0 4 0 260.63 4.42
-3 2 5 24.67 3.39
0 -4 0 258.2 5.92
0 -4 0 257.64 8.73
0 -4 0 262.97 6.68
0 -4 1 66.55 2.9
0 -4 0 258.75 6.04
0 -4 -1 762.02 10.87
0 -4 -1 769.26 11.52
-3 2 4 199.06 9.06
0 -4 -1 763.54 14.77
0 -4 -1 713.76 8.37
0 4 1 725.73 8
6 9 -1 2.5 1.38
0 -4 -2 582.28 9.98
0 4 2 556.65 5.61
0 -4 -2 589.6 13.16
3 -2 -3 3.32 1.07
0 4 3 337 4.06
0 4 3 375.99 9.24
0 -4 -3 370.38 10.71
0 -4 -2 589.39 9.97
0 4 3 343.64 4.14
0 4 4 264.89 4.96
0 -4 -4 272.33 6.76
3 -2 -2 200.64 8.88
0 4 4 275.01 8.3
0 4 5 44.36 3.54
0 4 5 45.33 2.1
-6 -9 1 4.38 1.85
0 4 5 41.24 2.4
0 -4 -5 46.1 2.75
0 4 6 13.54 1.64
-3 2 1 29.69 2.53
0 -4 -6 12.89 1.47
0 4 6 12.73 1.38
0 4 6 13.38 2.14
0 -4 -5 45.45 4.05
0 -4 -7 1264.93 23.31
0 4 7 1253.39 20.4
0 4 7 1293.93 15.66
3 -2 0 166.67 6.04
0 -4 -8 19.81 3.12
0 4 8 22.61 2.36
0 -4 -8 27.12 2.01
6 9 0 17.8 3.65
0 -4 -9 5.23 1.8
0 4 9 3.37 1.26
0 4 9 3.75 1.2
-3 2 0 160.89 7.5
0 4 10 3.03 1.32
0 4 10 1.88 0.83
0 -4 -10 2.55 0.66
0 -4 -9 3.89 0.82
0 4 11 11.26 2.48
0 4 11 12.77 2.4
0 4 12 13.9 2.65
-3 2 -1 37.88 3.64
0 4 12 10.98 2.54
0 -4 -13 5.52 2.41
0 4 13 6.08 1.89
-6 -9 0 23.46 3.41
0 4 14 -1.19 1.4
0 4 14 -0.31 1.2
0 4 15 1.28 1.16
-3 2 -2 84.22 4.4
0 -5 10 1.59 1.79
0 5 -9 8.08 2.41
0 -5 9 10.04 2.76
0 -4 -14 -1.92 1.79
0 5 -8 8.56 2.4
0 -5 7 39.15 4.74
0 5 -7 42.92 4.84
-3 2 -4 73.36 4.86
0 -5 6 3.99 1.67
0 -5 6 4.57 1.01
0 -5 5 84.93 6.06
6 9 1 2.23 1.49
0 -5 5 91.68 4.15
0 -5 4 107.32 6.35
0 -5 4 106.21 4.49
-3 2 -5 9.32 1.82
0 5 -4 105.85 6.83
0 5 -3 71.59 2.31
0 -5 3 73.94 4.88
0 5 -5 90.85 6.53
0 -5 3 69.41 2.63
0 5 -3 78.04 5.84
0 -5 2 58.63 3.43
-3 2 -6 169.5 7.68
0 -5 2 52.37 3.76
0 -5 2 57.6 3.36
0 5 -2 49.58 4.58
-6 -9 -1 2.11 1.47
0 -5 2 52.78 2.59
0 -5 1 255.53 6.1
0 -5 1 250.69 6.12
3 -2 7 33.73 3.57
0 -5 1 251.85 7.18
0 -5 1 251.6 7.38
0 5 -1 263.23 6.04
0 5 -2 54.4 3.16
0 -5 0 120.78 3.42
0 5 0 124.07 5.18
0 5 0 120.91 6.8
-3 2 -8 8.02 1.7
0 -5 0 122.21 4.55
0 5 0 119.85 4.29
0 5 0 116.77 3.21
6 9 2 20.11 3.81
0 -5 -1 187.21 8.29
0 5 1 166.95 4.36
0 5 1 182.48 6.57
-3 2 -9 12.62 1.95
0 -5 -1 174.13 4.81
0 5 2 190.66 7.06
0 -5 -2 189.07 6.38
0 -5 0 127.22 4.68
0 5 2 185.49 3.77
0 -5 -3 30.54 2.58
0 -5 -3 29.75 1.5
3 -2 11 17.87 3.58
0 5 3 30.06 1.19
0 -5 -3 32.64 3.59
0 5 3 24.56 2.63
-6 -9 -2 21.27 3.29
0 -5 -4 172.52 6.06
0 5 4 163.38 3.24
0 -5 -4 164.57 8.14
-3 1 13 16.28 3.8
0 5 5 34.62 2
0 5 5 35.07 1.56
0 -5 -5 36.71 2.8
0 5 4 168.53 7.13
0 5 5 35.87 3.43
0 5 6 14.39 1.28
0 -5 -6 16.5 1.61
-3 1 11 1.34 1.16
0 5 6 15.24 1.65
0 5 6 17.33 2.52
0 -5 -6 14.58 2.64
6 9 3 5.61 2.3
0 -5 -7 169.16 5.74
0 -5 -7 163.33 8.97
0 5 7 167.53 5.14
-3 1 9 4.62 1.45
0 -5 -8 24.27 3.68
0 5 8 21.71 2.15
0 5 8 23.04 3.12
0 5 7 168.53 8.08
0 5 9 2.94 0.9
0 -5 -9 4.32 0.99
0 5 10 4.72 1.4
3 -1 -8 24.49 3.44
0 5 10 4.12 1.65
0 -5 -10 1.69 1.36
0 5 11 53.74 5.39
-6 -9 -3 5.56 1.78
0 -5 -11 54.42 6.19
0 5 12 2.13 1.13
0 -5 -12 1.36 1.26
-3 1 7 231.56 9.83
0 5 13 -0.23 0.81
0 5 13 0.06 0.94
0 -5 -14 33.6 5.63
0 5 11 42.7 4.05
0 5 15 4.18 1.98
0 -6 10 1.78 1.56
0 6 -9 1.13 0.98
-3 1 6 382.67 12.3
0 -6 8 23.9 4.11
0 6 -8 28.8 4.38
0 6 -7 7.29 2.33
-6 -9 -4 3.03 1.54
0 -6 6 69.31 4.05
0 -6 6 69.14 6.15
0 6 -6 59.22 5.91
3 -1 -5 11.91 1.95
0 -6 5 34.6 2.88
0 6 -5 26.93 3.89
0 -6 4 9.84 1.62
0 -6 7 9.53 2.49
0 6 -4 10.52 2.53
0 6 -3 30.49 1.72
0 6 -3 31.83 4.09
-3 1 4 3.1 1.08
0 -6 3 34.45 3.53
0 6 -2 2.83 0.83
0 6 -2 0.51 0.91
-6 -9 -5 27.75 3.7
0 -6 2 1.52 0.79
0 -6 2 1.56 0.79
0 -6 2 1.67 0.54
-3 1 3 441.96 8.15
0 6 -1 0.74 1.1
0 6 -1 0.81 0.37
0 -6 1 1.16 0.73
0 6 -2 3.39 0.97
0 6 -1 0.52 0.61
0 6 0 158.74 5.34
0 -6 0 184.02 6.26
-3 1 2 812.18 10.89
0 6 0 186.81 9.45
0 6 0 168.53 3.88
0 6 0 172.91 6.8
-6 -9 -6 4.8 1.79
0 -6 -1 17.01 1.7
0 6 1 21.42 1.73
0 -6 -1 18.49 2.26
3 -1 -1 9.81 1.54
0 -6 -2 523.17 8.07
0 6 2 505.83 6.95
0 6 2 527.66 12.83
0 6 1 20.77 2.53
0 -6 -2 529.82 11.54
0 -6 -3 44.08 3.41
0 6 3 39.12 1.48
-3 1 0 118.64 4.04
0 6 3 46.43 3.99
0 6 4 103.86 6.14
0 -6 -4 102.09 2.55
-6 -9 -7 -0.87 1.12
0 -6 -4 116.4 7.47
0 -6 -5 53.64 3.68
0 -6 -5 49.72 2.25
3 -1 0 125.64 5.64
0 6 5 49.1 4.4
0 -6 -5 52.58 5.21
0 -6 -6 29.23 2.74
0 -6 -4 118.36 5.46
0 6 6 29.04 2
0 6 6 26.65 1.43
0 -6 -6 30.62 2.09
-3 1 -1 407.45 7.51
0 6 6 31.41 3.61
0 6 7 165.34 4.5
0 6 7 171.7 8.72
-6 -9 -8 53.13 5.06
0 -6 -7 181.46 10.11
0 6 8 1.42 0.63
0 -6 -8 2.28 0.91
-3 1 -2 293.43 6.7
0 -6 -8 0.26 0.98
0 6 9 22.34 2.27
0 -6 -9 24.07 4.01
0 6 7 164.91 5.61
0 -6 -9 27 2.53
0 6 10 4.16 1.23
0 6 10 4.49 1.78
3 -1 3 4.9 1.38
0 -6 -10 9.36 2.66
0 -6 -11 2.12 1.51
0 -6 -11 4.89 1.18
-6 -9 -9 1.81 1.46
0 6 12 3.34 1.87
0 -6 -12 -0.41 1.51
0 6 13 1.95 1.72
-3 1 -4 770.57 12.88
0 -6 -14 2.17 1.57
0 6 14 0.94 1.37
0 6 15 2.6 1.79
0 6 11 1.87 1.53
0 7 -8 7.55 2.45
0 -7 8 8.66 2.71
0 7 -7 5.47 2.22
-3 1 -6 0.75 0.72
0 7 -6 7.98 2.4
0 -7 6 7.22 2.38
0 7 -5 24.44 4.05
-6 -9 -10 22.74 3.39
0 -7 5 15.8 3
0 -7 4 1.33 1.09
0 7 -4 0.62 0.89
-3 1 -7 45.11 3.7
0 7 -3 25.1 3.97
0 -7 3 29.17 3.48
0 -7 3 25.42 2.76
0 -7 5 17.25 2.27
0 7 -2 7.4 2.25
0 -7 2 8.13 1.64
0 7 -2 8.67 1.59
3 -1 8 24.48 3.11
0 -7 1 13.04 2.01
0 7 -1 12.18 2.71
0 7 -1 9.89 1.75
-6 -9 -11 1.14 1.18
0 7 0 6.99 2.27
0 -7 0 5.89 1.48
0 -7 0 8.55 1.55
3 -1 9 85.54 6.33
0 7 1 17.53 3.2
0 7 1 14.81 2.31
0 -7 -1 16.05 2.22
0 7 0 7.52 1.66
0 -7 -1 14.13 1.75
0 7 2 3.87 1.39
0 -7 -2 5.09 1.39
3 -1 10 0.33 1.22
0 -7 -2 3.28 0.78
0 -7 -2 2.22 1.18
0 7 3 6.69 1.8
6 9 11 0.25 1.26
0 -7 -3 6.85 2.25
0 7 3 4.9 0.57
0 -7 -4 522.39 12.33
-3 1 -12 13.83 3.14
0 7 4 493.75 14.38
0 7 5 300.01 11.6
0 -7 -5 311.36 13.6
0 -7 -3 6.24 1.53
0 -7 -5 303.53 6.13
0 7 6 27.38 3.72
0 -7 -6 27.41 2.89
-3 0 13 1.65 1.58
0 -7 -7 54.73 5.97
0 7 7 53.04 5.25
0 -7 -7 59.96 4.14
-6 -9 -12 3.18 1.58
0 7 8 6.39 2.08
0 -7 -8 6.53 1.45
0 -7 -9 5.34 1.34
-3 0 11 0.66 1.19
0 7 9 3.66 1.73
0 -7 -10 0.78 1.23
0 -7 -10 1.2 0.79
0 -7 -8 1.1 1.81
0 -7 -11 1.08 0.75
0 7 11 -1.36 1.46
0 -7 -11 -1.64 1.47
-3 0 9 34.91 3.85
0 7 12 0.44 1.16
0 7 13 2.31 1.79
0 -7 -13 3.65 2.2
-6 -9 -13 1.2 1.28
0 -8 8 -2.6 1.67
0 8 -7 0.84 1.27
0 -8 7 0.69 0.89
-3 0 8 56.74 5.44
0 -8 6 17.11 3.51
0 -8 5 70.93 6.44
0 8 -5 75.31 7.46
0 7 14 20.37 4.17
0 8 -4 51.15 6.03
0 -8 4 48.74 4.06
0 -8 4 52.1 5.18
-3 0 7 177.37 9.11
0 -8 3 4.87 1.31
0 8 -3 2.84 1.64
0 8 -2 6.21 2.25
6 10 -1 7.31 2.47
0 -8 2 6.93 1.72
0 8 -1 34.24 4.93
0 -8 1 29.09 3.22
-3 0 6 15.15 2.63
0 -8 1 35.51 3.47
0 8 0 6.35 2.27
0 8 0 4.08 1.36
0 -8 2 6.63 1.62
0 -8 0 4.69 1.25
0 -8 -1 0.31 0.74
0 8 1 -0.49 1.23
-3 0 5 330.23 11.26
0 -8 -1 0.79 0.62
0 -8 -2 9.02 2.37
0 8 2 4.08 1.42
6 10 0 -0.39 1.13
0 -8 -3 23.68 4.03
0 -8 -3 28.75 3.2
0 8 3 20.45 3.14
-3 0 4 26.89 3.07
0 -8 -4 47.16 4.08
0 8 4 44.44 4.71
0 -8 -5 352.96 10.89
0 -8 -2 6.73 1.63
0 8 5 331.59 13.11
0 -8 -6 147.06 10.13
0 8 6 143.29 8.82
3 0 -3 43.23 3.72
0 -8 -7 6.23 1.58
0 8 7 4.72 1.72
0 -8 -7 4.01 1.96
-6 -10 0 0.19 0.92
0 -8 -8 3.15 1.19
0 -8 -8 5.26 2.13
0 -8 -9 -1.15 1.45
-3 0 2 56.16 2.32
0 -8 -9 0.97 0.95
0 -8 -10 0.07 0.62
0 -8 -10 -0.73 1.84
0 8 8 4.61 1.89
0 -8 -11 3.58 2.04
0 8 11 2.5 1.66
0 -8 -11 3.56 1.2
-3 0 1 228.99 8.26
0 -8 -12 5.08 2.55
0 -8 -13 0.46 1.63
0 8 13 2.74 1.91
6 10 1 6.85 2.33
0 -9 6 0.94 1.11
0 -9 5 -0.42 0.95
0 9 -5 -0.78 1.44
3 0 0 259.12 9.38
0 -9 4 12.33 2.31
0 -9 4 7.82 2.19
0 -9 3 4.32 1.46
0 -9 7 5.35 2.13
0 9 -2 2.87 1.7
0 -9 2 5.16 1.57
0 -9 1 1.34 0.87
-3 0 -1 627.03 5.92
0 9 0 17.75 2.76
0 9 0 24.55 4.5
0 -9 0 20.67 2.88
-6 -10 -1 5.69 1.77
0 9 1 27.65 4.76
0 -9 -1 32.76 3.56
0 9 2 76.57 6.14
-3 0 -2 96.29 2.92
0 9 2 98.58 8.7
0 -9 -2 67.97 7.08
0 -9 -3 60.65 4.85
0 9 1 28.57 3.64
0 9 3 50.19 5.16
0 -9 -4 151.02 10.6
0 9 4 168.28 9.62
3 0 3 135.55 4.72
0 9 5 84.76 7
0 -9 -5 71.48 7.52
0 -9 -5 85.44 5.73
6 10 2 0.57 0.98
0 9 6 107.86 8.13
0 -9 -6 115.23 6.61
0 -9 -7 -0.4 1.96
-3 0 -4 251.8 6.52
0 -9 -7 3.53 1.47
0 -9 -8 31.49 3.5
0 9 8 33.31 4.89
0 -9 -6 118.31 9.61
0 -9 -9 8.06 1.82
0 9 9 6.12 2.53
0 -9 -10 8.5 1.98
3 0 5 193.82 8.19
0 -9 -10 8.53 3.03
0 9 11 2.52 1.85
0 -9 -11 -1.85 1.79
-6 -10 -2 0.58 0.95
0 -9 -12 3.56 2.39
0 9 12 1.21 1.62
0 -10 4 11.67 2.39
-3 0 -7 28.1 2.89
0 -10 3 1.37 1.11
0 10 -2 -3.51 2.06
0 -10 2 2.06 1.05
0 -9 -11 -1.43 0.96
0 10 -1 0.9 1.59
0 -10 0 15.3 2.7
0 10 0 10.98 3.34
3 0 8 50.26 4.34
0 10 1 4.32 2.39
0 10 1 2.06 1.3
0 10 2 7.83 2.73
6 10 3 15.77 3.27
0 -10 -2 4.51 1.6
0 10 3 12.28 2.75
0 10 3 7.73 2.8
3 0 9 356.71 12.33
0 -10 -3 16.62 2.86
0 -10 -4 2.65 1.25
0 10 4 -0.37 0.93
0 10 2 5.89 1.86
0 10 5 4.29 2.04
0 -10 -5 2.14 1.18
0 -10 -5 2 1.85
-3 0 -10 4.98 1.7
0 -10 -6 2.24 2.18
0 10 6 0.5 1.51
0 -10 -7 11.49 3.43
-6 -10 -3 18.83 3.17
0 10 7 20.2 3.96
0 10 8 5.89 2.59
0 -10 -8 2.23 1.72
-3 0 -12 0.27 1.06
0 10 9 -0.14 1.49
0 -10 -9 0.31 1.58
0 -10 -9 1.45 0.99
0 -10 -7 22.68 3.24
0 -10 -10 2 1.08
0 -10 -10 2.13 1.97
0 -10 -11 4.36 1.53
-3 -1 12 1.08 1.25
0 -10 -12 3.35 1.46
0 -11 3 2.47 1.34
0 -11 2 2.62 1.33
6 10 4 1.71 1.26
0 -11 0 1.27 1.15
0 11 0 2.99 2.08
0 11 1 0.96 1.77
3 1 -10 1.85 1.2
0 -11 -2 25.97 3.66
0 11 2 20.56 4.82
0 -11 -3 11.85 2.47
0 -11 1 0.74 0.74
0 11 3 14.08 3.25
0 -11 -4 2.47 1.4
0 11 4 3.81 2.34
-3 -1 9 32.61 4.55
0 -11 -4 1.66 1.65
0 -11 -5 6.19 1.97
0 11 5 3.59 1.91
-6 -10 -4 5.53 1.93
0 -11 -6 -1.33 1.62
0 11 6 0.22 1.42
0 -11 -6 0.63 0.95
3 1 -7 74.06 5.99
0 -11 -7 4.71 2.44
0 -11 -7 2.76 1.39
0 11 8 5.01 2.22
0 -11 -5 3.47 1.76
0 -11 -8 8.4 3.4
0 -11 -9 2.86 1.56
0 11 9 6.41 2.74
3 1 -6 23.63 3.32
0 -11 -11 16.5 2.97
0 12 5 6.65 2.51
0 12 6 1.88 1.49
6 10 4 4.81 1.49
-1 12 4 2.83 1.95
-1 11 7 10.64 3.38
1 -11 -6 3.33 2.32
3 1 -5 67 5.19
1 -11 -5 0.36 0.92
1 -11 -5 0.53 1.4
-1 11 5 0.26 1.16
0 12 7 18.01 4.18
1 -11 -4 3.4 1.59
1 -11 -4 1.42 1.57
-1 11 3 2.82 1.68
3 1 -4 22.02 2.85
-1 11 3 3.91 2.34
1 -11 -2 4.95 1.8
-1 11 2 4.42 2.56
-6 -10 -5 12.7 2.71
1 -10 -10 1.71 1
1 -10 -9 9.99 3.35
1 -10 -9 8.32 2.08
3 1 -3 559.08 13.77
-1 10 8 16.26 3.76
1 -10 -8 14.82 2.83
1 -10 -8 11.67 3.39
1 -10 -11 -0.13 0.63
1 -10 -7 1.39 1.32
-1 10 7 1.61 1.53
1 -10 -6 -0.52 1.17
3 1 -3 568.03 9
1 -10 -6 -1.39 1.59
1 -10 -5 4.35 1.68
1 -10 -5 5.79 2.48
6 10 5 10.53 2.26
-1 10 4 3.22 1.67
1 -10 -4 2.09 1.28
1 -10 -4 2.74 1.95
-3 -1 2 715.46 8.81
1 -10 -3 13.22 3.57
1 -10 -3 16.77 2.93
-1 10 3 15.8 3.4
-1 10 5 3.51 2.08
1 -10 -2 17.19 3.04
-1 10 2 9.23 3.02
1 -10 -1 -0.25 0.87
-3 -1 1 199.21 3.48
-1 10 1 1.82 1.68
1 -10 0 16.38 2.86
-1 10 0 11.54 3.58
-6 -10 -6 9.32 2.37
1 -10 1 5.33 1.75
1 -10 2 5.4 1.7
-1 10 -2 2.38 2.04
-3 -1 -1 99.82 5.16
1 -10 4 1.84 1.23
1 -9 -11 3.55 2.28
1 -9 -11 1.66 1.11
-1 10 -1 9.45 3.02
1 -9 -10 1.26 1.66
1 -9 -10 -1.05 0.89
-1 9 10 1.97 1.73
-3 -1 -3 137.55 6.15
-1 9 9 2.57 1.59
1 -9 -9 1.22 1.01
1 -9 -8 0.86 1.51
6 10 6 5.49 1.67
-1 9 8 -0.21 1.21
-1 9 7 36.03 5.23
1 -9 -7 32.23 3.85
-3 -1 -4 208.04 7.61
1 -9 -6 0.79 0.93
-1 9 6 -0.81 1.19
1 -9 -6 2.63 1.83
1 -9 -8 1.06 0.93
-1 9 5 1.21 1.15
1 -9 -5 0.11 0.77
1 -9 -4 37.52 4.11
-3 -1 -5 37.62 3.28
1 -9 -4 27.85 4.78
-1 9 3 58.05 5.98
1 -9 -3 57.55 5.14
-6 -10 -7 -1.52 1.12
-1 9 2 79.56 7.98
1 -9 -2 85.96 8.1
1 -9 -2 82.1 6.08
3 1 6 229.14 8.74
-1 9 1 25.95 4.65
-1 9 1 21.58 3.47
1 -9 -1 27.55 3.56
1 -9 -3 53.66 6.52
-1 9 0 9.95 2.34
-1 9 0 10.42 2.96
1 -9 1 16.37 2.72
-3 -1 -7 42.02 3.47
-1 9 -2 1.32 1.73
1 -9 2 1.95 1.22
1 -9 3 9.79 2.16
6 10 7 1.05 1.1
1 -9 4 2.54 1.16
-1 9 -4 1.75 1.2
1 -8 -12 30.45 5.62
-3 -1 -9 241.5 8.29
1 -8 -11 9.02 1.9
1 -8 -11 6.32 2.67
-1 8 11 5.7 2.38
-1 9 -3 14.38 3.57
1 -8 -10 2.31 1.18
1 -8 -10 6.63 2.79
1 -8 -9 2.04 1.15
3 1 10 28.98 3.72
-1 8 9 6.7 2.7
1 -8 -8 44.53 6.1
-1 8 8 56.07 6.22
-6 -10 -8 1.4 1.32
-1 8 7 11.91 2.88
1 -8 -7 13.63 3.44
1 -8 -7 5.53 1.75
3 1 12 8.49 2.37
1 -8 -6 0.53 0.82
1 -8 -5 1.19 1.13
-1 8 5 1.4 1.52
1 -8 -8 48.33 4.36
1 -8 -4 20.76 3.03
-1 8 4 15.43 3
1 -8 -4 20.62 3.9
-3 -1 -13 4.63 1.88
-1 8 3 8.43 2.31
1 -8 -3 6.48 1.82
1 -8 -2 77.33 7.12
6 10 8 4.17 1.61
-1 8 2 63.61 5.75
1 -8 -2 77.64 5.7
1 -8 -1 36.42 3.9
3 2 -12 2.97 1.63
-1 8 1 36.45 4.29
-1 8 0 14.6 2.68
1 -8 0 15.48 2.6
-1 8 2 70.99 6.98
-1 8 -1 10.88 2.84
-1 8 -1 10.13 2.16
1 -8 1 14.09 2.45
-3 -2 10 5.83 2.36
1 -8 2 39.74 4
1 -8 3 6.44 1.68
1 -8 3 5.35 1.59
-6 -10 -9 5.63 1.91
1 -8 4 6.28 1.9
-1 8 -4 7.99 2.6
1 -8 4 5.4 1.61
3 2 -8 81.79 5.81
1 -8 5 0.9 0.74
-1 8 -5 2.01 1.65
1 -8 6 1.16 1.09
-1 8 -3 5.04 2.07
1 -8 7 9.59 2.67
1 -8 8 2.41 2.02
-1 7 13 4.43 2.27
-3 -2 7 15.93 3.09
1 -7 -12 -2.78 1.95
-1 7 12 0.5 1.47
1 -7 -11 8.58 2.99
6 10 9 8.91 2.34
-1 7 11 12.05 3.14
-1 7 10 4.7 1.85
1 -7 -10 3.45 1.86
-3 -2 6 124.36 7.87
1 -7 -9 4.84 1.43
-1 7 9 0.56 1.23
1 -7 -9 3.46 1.8
1 -7 -11 15.61 2.2
-1 7 8 37.6 4.87
1 -7 -8 42.67 5.64
-1 7 7 17.84 3.33
-3 -2 5 0.58 0.59
1 -7 -7 18.92 2.68
1 -7 -6 33.01 3.49
-1 7 6 30.59 4.17
-6 -10 -10 2.27 1.44
1 -7 -5 9.83 2.5
1 -7 -5 8.38 1.81
-1 7 5 9.66 2.43
-3 -2 4 80.25 5.75
-1 7 4 10.43 2.43
1 -7 -4 11.03 2.69
1 -7 -4 16.69 2.54
1 -7 -6 30.24 4.52
1 -7 -3 27.6 3.34
1 -7 -3 23.7 1.67
-1 7 3 28.25 3.84
-3 -2 3 95.91 4.96
1 -7 -2 1396.94 22.64
-1 7 2 1404.15 24.78
1 -7 -2 1352.32 10.38
6 10 10 6.59 2.29
-1 7 1 640.81 16.48
-1 7 1 627.56 19.16
1 -7 -1 659.28 15.53
-3 -2 3 98.7 4.58
1 -7 0 61.58 3.56
1 -7 0 63.95 4.92
-1 7 0 65.56 5.15
1 -7 -1 605.16 9.22
1 -7 1 9 1.63
-1 7 -1 6.56 1.6
-1 7 -1 9.98 2.58
-3 -2 2 18.45 2.61
-1 7 -2 3.7 1.14
1 -7 2 5.42 1.46
-1 7 -2 4.75 1.35
-6 -10 -11 7.12 2.06
-1 7 -2 5.55 2.02
1 -7 3 28.71 3.34
-1 7 -3 33.41 4.67
-3 -2 1 568.81 11.86
1 -7 4 1.42 1
1 -7 4 0.81 0.71
-1 7 -4 1.9 1.47
1 -7 2 2.28 0.98
-1 7 -5 5.96 2.26
1 -7 5 6.49 1.92
-1 7 -6 0.5 0.99
3 2 0 1012.64 9.55
1 -7 6 4.29 1.95
1 -7 7 -0.64 1.11
-1 7 -7 -0.78 1.26
-6 -10 -12 1.54 1.28
-1 7 -8 15.81 3.68
1 -7 9 2.15 1.7
-1 6 14 1.8 1.51
-3 -2 -2 36.24 1.43
-1 6 13 3.89 1.94
-1 6 12 2.85 1.81
1 -6 -12 -0.4 1.51
1 -7 8 14.97 3.44
-1 6 11 58.17 6.28
1 -6 -10 26 2.73
1 -6 -10 26.88 4.48
3 2 3 353.45 10.26
-1 6 9 7.5 2.38
1 -6 -9 6.65 2.39
1 -6 -9 9.19 1.71
6 11 6 2.56 1.34
-1 6 8 41.54 4.83
1 -6 -8 46.63 3.72
-1 6 7 2.27 1.15
-3 -2 -4 1116.13 17.32
1 -6 -6 14.93 3.03
-1 6 6 13.17 2.66
1 -6 -6 14.11 2.16
1 -6 -8 43.63 5.44
1 -6 -5 11.39 2.55
1 -6 -5 12.85 2.12
1 -6 -4 19.45 3.22
-3 -2 -5 141.54 6.23
-1 6 4 16.85 2.81
1 -6 -4 24.05 2.83
1 -6 -3 108.79 4.2
6 11 7 0.9 1.35
-1 6 3 109.78 6.77
1 -6 -3 105.5 5.88
1 -6 -2 29.59 3.88
3 2 6 116.5 6.11
-1 6 2 23.21 3.06
1 -6 -2 20.61 2.65
1 -6 -1 27.92 3.11
1 -6 -3 104 7.24
-1 6 1 29.57 3.35
1 -6 -1 28.34 1.81
1 -6 -1 29.49 1.82
-3 -2 -7 104.74 5.37
-1 6 0 46.43 4.03
1 -6 0 45 2.79
-1 6 0 46.98 4.85
6 11 8 2.56 1.39
1 -6 0 42.68 1.93
-1 6 -1 95.66 5.56
-1 6 -1 100.23 7.18
-3 -2 -8 14.05 2.18
1 -6 1 93.31 3.44
1 -6 1 110.73 5.97
1 -6 1 91.67 3.57
1 -6 0 44.33 3.83
1 -6 2 8.5 1.65
-1 6 -2 9.91 1.78
-1 6 -2 15.96 2.93
-3 -2 -10 105.86 6.78
1 -6 2 10.12 1.83
-1 6 -3 29.81 4.08
1 -6 3 26.09 2.88
6 11 9 0.55 1.03
1 -6 3 34.51 3.48
1 -6 4 23.84 3.13
1 -6 4 23.02 2.65
-3 -2 -11 56.45 5.33
1 -6 5 17.77 2.28
-1 6 -5 22.58 3.57
1 -6 5 15.01 2.73
-1 6 -3 35.89 2.79
1 -6 6 6.27 1.89
1 -6 6 8 1.55
1 -6 7 0.39 0.92
-3 -2 -12 16.75 3.18
-1 6 -8 6.1 2.5
1 -6 8 0.74 1.14
1 -6 9 26.41 4.54
6 12 7 2.04 1.34
1 -6 10 -0.12 1.27
-1 5 15 15.76 3.79
-1 5 14 7.49 2.73
3 2 14 16.68 3.56
-1 5 13 37.73 5.27
1 -5 -13 29.32 5.18
-1 5 12 5.03 1.85
-1 6 -9 28.43 4.61
-1 5 11 15.38 3.15
1 -5 -11 12.85 3.25
-1 5 10 2.14 1.29
3 3 -12 1.4 1.34
1 -5 -10 -1.29 1.26
1 -5 -10 1.21 0.67
1 -5 -9 9.49 1.54
7 -4 -1 39.2 6.13
-1 5 9 8.91 2.25
1 -5 -9 10.93 2.62
-1 5 8 9.53 2.33
-3 -3 10 6.85 2.45
-1 5 8 11.69 1.57
1 -5 -8 12.17 1.79
-1 5 7 101.56 3.83
-1 5 9 8.94 1.57
1 -5 -7 103.13 5.23
1 -5 -7 99.93 7.3
-1 5 6 70.1 5.5
3 3 -8 23.37 3.29
-1 5 6 82.25 2.7
1 -5 -6 87.31 4.87
1 -5 -6 85.84 6.56
7 -4 0 21.48 4.61
1 -5 -5 124.15 5.84
-1 5 5 108.96 6.63
1 -5 -4 164.47 6.72
-3 -3 6 102.73 4.3
1 -5 -4 162.95 8.44
1 -5 -3 10.36 2.14
1 -5 -3 8.41 1.62
1 -5 -5 118.24 7.44
1 -5 -3 10.13 1.39
1 -5 -2 454.72 8.19
1 -5 -2 455.09 13.52
3 3 -5 186.19 9.07
1 -5 -2 461 11.26
1 -5 -1 331.38 11.41
1 -5 -1 338.26 9.66
7 -4 1 8.83 3.04
-1 5 1 331.73 10.16
1 -5 -1 326.81 5.32
1 -5 0 809.09 10.79
-3 -3 5 180.18 9.45
-1 5 0 806.03 15.37
-1 5 0 817.22 12.05
1 -5 0 819.48 10.14
1 -5 -1 329.8 6.6
1 -5 0 833.6 18.21
-1 5 -1 43.22 4.32
-1 5 -1 38.84 3.3
-3 -3 4 33.2 3.93
-1 5 -1 43.14 3.01
1 -5 1 41.63 2.86
1 -5 1 38.38 3.26
7 -4 2 -2.5 1.74
1 -5 2 39.27 2.45
-1 5 -2 41.2 3.2
-1 5 -2 43.52 3.34
-3 -3 3 252.12 7.58
-1 5 -2 39.67 4.27
1 -5 2 42.87 3.26
1 -5 3 18.19 2.25
1 -5 2 38.72 3.27
1 -5 3 16.89 2.3
-1 5 -3 20.26 1.97
-1 5 -4 96.19 6.72
3 3 -2 17.32 2.49
-1 5 -4 97.83 3.97
1 -5 4 90.76 4.91
1 -5 5 61.44 3.88
7 -4 3 1.27 1.43
-1 5 -5 60.36 2.64
-1 5 -5 65.07 5.66
1 -5 6 0.96 0.93
3 3 -2 11.47 1.53
1 -5 6 1.74 0.73
1 -5 7 1.97 0.76
-1 5 -7 1.93 1.17
1 -5 5 56.14 4.87
-1 5 -8 1.41 1.36
1 -5 8 4.28 1.82
-1 5 -9 7.45 2.54
-3 -3 1 68.65 3.94
1 -5 10 11.58 3.2
-1 5 -10 7.14 2.37
-1 4 14 29.55 4.57
7 -3 -2 1.92 1.81
-1 4 13 12.9 3.14
1 -4 -13 12.38 3.37
-1 4 13 14.3 2.95
-3 -3 0 1290.65 21.11
-1 4 12 9.97 2.22
-1 4 12 11.1 2.8
-1 4 11 27.18 3.49
1 -4 -14 19.68 4.4
-1 4 11 31.32 4.23
1 -4 -10 98.95 7.79
-1 4 10 100.89 7.22
-3 -3 -1 603.1 11.97
1 -4 -10 106.72 4.33
-1 4 9 0.15 0.67
1 -4 -9 0.98 0.62
7 -3 -1 6.98 2.63
-1 4 9 0.95 0.88
1 -4 -8 184.53 9.72
-1 4 8 196.06 9.3
3 3 2 77.34 3.06
-1 4 8 178.87 6.71
-1 4 7 92.86 4.28
1 -4 -7 92.31 4.5
1 -4 -9 0.94 1
1 -4 -7 82.56 6.21
-1 4 6 38.04 2.34
1 -4 -6 36.19 2.9
-3 -3 -3 141.78 6.01
1 -4 -6 38.54 4.08
-1 4 5 37.25 2.64
-1 4 5 40.4 1.95
7 -3 0 3.98 2.34
1 -4 -5 33.24 3.67
-1 4 5 40.47 3.85
1 -4 -4 531.79 13.98
3 3 4 27.65 2.8
-1 4 4 497.35 12.74
1 -4 -3 746.28 13.29
-1 4 3 717.55 14.69
1 -4 -5 37.73 2.95
1 -4 -2 59.88 4.41
1 -4 -2 65.43 3.97
-1 4 2 57.06 4.08
3 3 5 73 3.68
1 -4 -2 61.5 3.12
1 -4 -1 1397.99 9.42
1 -4 -1 1454.73 18.47
7 -3 1 0.91 1.76
1 -4 -1 1391.94 14.05
1 -4 -1 1429.22 21.39
1 -4 0 177.02 6.48
-3 -3 -7 65.63 4.44
-1 4 0 182.29 7.66
-1 4 0 186.73 6.76
1 -4 0 176.87 4.9
-1 4 1 1426.93 19.21
1 -4 0 182.19 4.51
-1 4 -1 56.11 4.4
1 -4 1 64.21 3.21
-3 -3 -8 154.82 7.28
-1 4 -1 59.57 3.72
1 -4 1 67.9 4.01
1 -4 1 65.62 3.78
-7 3 -1 1.17 1.88
1 -4 2 298.33 6.62
-1 4 -2 304.37 10.38
1 -4 2 292.69 7.66
-3 -3 -9 258.61 6.99
1 -4 2 294.07 8.24
-1 4 -2 290.43 8.09
-1 4 -2 300.66 8
1 -4 1 64.05 2.96
-1 4 -3 37.1 3.79
1 -4 3 35.39 2.86
1 -4 3 38.44 2.56
3 3 10 43.51 4.12
1 -4 3 38.28 2.73
1 -4 3 35.31 3.04
-1 4 -4 20.38 2.89
7 -3 2 -0.34 1.22
1 -4 4 20.11 1.95
-1 4 -4 19.34 1.7
1 -4 4 21.33 2.61
-3 -3 -12 19.52 3.59
-1 4 -5 236.99 5.2
1 -4 5 220.09 6.21
1 -4 5 231.96 9.18
1 -4 4 18.95 2.1
-1 4 -6 31.1 1.57
1 -4 6 30.41 2.46
-1 4 -6 31.1 3.78
3 3 14 1.08 1.42
1 -4 7 2.51 0.75
-1 4 -7 4.67 1.83
1 -4 7 5.02 1.83
-7 3 -2 0.23 1.22
-1 4 -8 9.65 2.46
1 -4 9 8.34 2.38
-1 4 -9 7.64 2.28
-3 -3 -15 5.95 2.63
-1 4 -10 3.75 1.84
1 -4 11 21.88 4.2
-1 4 -11 16.49 3.48
1 -4 8 15.62 3.14
1 -3 -14 24.61 4.72
-1 3 14 36.32 5.09
-1 3 13 129.22 8.58
3 4 -10 1.48 1.2
-1 3 13 123.01 8.67
-1 3 12 7.99 2.18
-1 3 12 5.22 1.78
7 -3 3 10.6 3.11
-1 3 11 18.26 3.06
1 -3 -11 23.8 3.89
-1 3 11 25.94 3.66
-3 -4 8 26.04 4.39
-1 3 10 11.05 2.36
-1 3 10 8.42 2.01
1 -3 -9 3.42 1.49
1 -3 -12 4.06 1.85
-1 3 9 2.61 1.17
-1 3 9 4.32 1.5
1 -3 -8 47.03 2.78
3 4 -6 8.21 2.11
-1 3 8 57.33 4.74
-1 3 8 47.62 3.76
1 -3 -7 6.92 1.16
-7 3 -3 10.68 3.33
1 -3 -7 5.52 1.54
-1 3 6 151.36 5.31
-1 3 6 151.65 7.07
-3 -4 5 94.29 4.23
1 -3 -6 168.43 7.82
-1 3 5 11.27 1.91
1 -3 -5 12.65 2.14
-1 3 7 6.61 1.29
1 -3 -5 13.34 1.6
-1 3 5 13.89 1.68
1 -3 -4 1295.5 15.55
3 4 -4 11.5 1.91
-1 3 4 1297.8 10.95
-1 3 4 1276.32 14.31
-1 3 4 1298.11 18.91
7 -3 4 1.71 1.71
1 -3 -3 1809.27 22.12
1 -3 -3 1767.98 18.17
1 -3 -3 1761.17 13.34
3 4 -4 11.24 1.19
-1 3 2 291.13 8.29
-1 3 2 284.91 8.3
1 -3 -2 287.78 7.38
-1 3 3 1816.92 21.39
1 -3 -1 1566.88 17.94
1 -3 -1 1627.47 19.72
1 -3 -1 1551.5 7.93
-3 -4 3 330.66 7.85
1 -3 -1 1592.84 14.6
1 -3 -1 1575.67 17.19
-1 3 0 420.26 9.21
-7 3 -4 2.64 1.88
1 -3 0 424.37 5.88
1 -3 0 422.89 7.4
1 -3 0 418.34 10.14
3 4 -2 111.85 6.36
-1 3 0 424.71 10.49
1 -3 0 411.93 8.89
1 -3 1 152.21 5.36
1 -3 0 424.8 8.93
-1 3 -1 154.03 5.1
-1 3 -1 159.67 5.46
1 -3 1 153.06 5.27
-3 -4 2 115.01 6.97
-1 3 -1 152.73 6.31
1 -3 2 88.88 3.88
1 -3 2 88.76 4.09
7 -3 5 0.78 1.29
-1 3 -2 94.25 5.09
-1 3 -2 92.85 3.8
1 -3 2 88.47 3.59
-3 -4 1 5.69 1.58
-1 3 -3 215.73 5.48
-1 3 -3 205.7 6.94
-1 3 -3 216.71 7.96
-1 3 -2 100.64 4.48
1 -3 3 234.71 6.13
1 -3 3 211.39 5.98
1 -3 3 215.04 6.79
3 4 0 15.04 1.98
1 -3 4 256.68 6.8
-1 3 -4 276.38 5.97
1 -3 4 257.96 7
-7 3 -5 0.32 1.17
1 -3 4 247.98 8.16
1 -3 5 320.95 7.35
-1 3 -5 336.38 6.18
-3 -4 0 15.93 2.5
-1 3 -5 346.67 10.89
1 -3 5 332.65 7.57
1 -3 6 190.91 8.45
1 -3 4 252.32 6.47
-1 3 -6 199.72 4.36
1 -3 6 176.47 5.45
1 -3 6 194.19 5.54
-3 -4 -1 78.75 4.13
-1 3 -7 44.16 4.34
1 -3 7 42.99 4.39
-1 3 -8 16.71 2.88
7 -2 -6 5.88 2.41
1 -3 9 16.84 3.18
-1 3 -9 12.2 2.66
1 -3 10 9.1 2.61
3 4 2 480.5 9.83
1 -3 11 2.9 1.64
-1 3 -11 1.02 1.23
1 -3 12 6.78 2.66
1 -3 8 11.69 2.61
-1 2 15 4.73 2.1
-1 2 14 3.05 1.68
1 -2 -14 2.03 1.89
3 4 3 23.52 2.53
1 -2 -13 23.04 4.32
1 -2 -12 38 5.13
-1 2 12 34.75 4.55
7 -2 -5 25.41 4.44
-1 2 11 0.16 0.73
1 -2 -11 0.05 0.9
-1 2 11 0.26 0.83
-3 -4 -3 26.5 2.48
-1 2 10 77.42 5.61
1 -2 -10 76.97 6.43
1 -2 -9 70.02 2.42
-1 2 12 36.91 4.28
1 -2 -9 67.22 5.62
-1 2 9 68.17 5.08
-1 2 8 65.13 4.72
-3 -4 -4 290.31 8.01
1 -2 -8 65.32 2.71
-1 2 8 63 4.57
1 -2 -7 6.66 1.68
7 -2 -4 7.91 2.48
-1 2 7 6.92 1.47
1 -2 -7 8.69 1.06
1 -2 -6 903.73 16.93
-3 -4 -5 146.13 6.12
-1 2 6 931.31 14.44
1 -2 -6 939.52 11.35
1 -2 -5 27 2.75
-1 2 7 8.17 1.6
-1 2 5 34.88 2.49
-1 2 5 33.43 2.93
1 -2 -5 28.8 2.11
-3 -4 -6 17.6 2.22
-1 2 4 225.36 7.2
1 -2 -4 217.42 5.96
-1 2 4 211.74 6.25
7 -2 -3 -1.7 1.45
1 -2 -4 222.13 7.3
1 -2 -4 222.82 5.08
-1 2 3 309.17 6.58
3 4 7 164.48 6.79
1 -2 -3 294.09 6.08
1 -2 -3 304.68 8.05
-1 2 3 310.65 5.26
-1 2 4 213.84 5.32
1 -2 -3 314.16 7.71
1 -2 -3 307.59 5
-1 2 2 736.95 6.72
-3 -4 -9 162.67 8.45
-1 2 2 727.1 11.81
1 -2 -2 717.15 5.98
1 -2 -2 720.73 8.31
7 -2 -3 -0.42 1.31
1 -2 -2 730.08 11.45
-1 2 1 5266.55 29.74
1 -2 -1 5238.51 30.31
3 4 10 16.89 2.58
-1 2 1 5325.99 30.37
1 -2 -1 5319.5 29.81
1 -2 0 468.51 7.63
-1 2 2 741.54 11.36
1 -2 0 462.71 8.5
-1 2 0 462.89 8.56
1 -2 0 460.89 8.96
3 4 11 68.75 4.95
1 -2 1 189.72 5.3
-1 2 -1 192.48 5.93
-1 2 -1 191.18 5.33
7 -2 -2 40.83 5.36
-1 2 -1 185.8 5.25
-1 2 -1 199.35 6.27
-1 2 -2 99.76 4.49
3 4 13 1.23 1.04
1 -2 2 100.7 3.85
1 -2 2 104.83 3.89
-1 2 -2 103.06 4.22
1 -2 1 186.18 4.93
1 -2 2 107.4 3.75
-1 2 -3 3.91 0.72
1 -2 3 3.44 0.83
3 4 15 3.28 1.77
1 -2 3 5.52 0.95
-1 2 -3 3.46 0.94
1 -2 3 5.95 0.94
7 -2 -2 33.79 5.81
1 -2 4 506.63 9.49
-1 2 -4 501.97 11.27
-1 2 -4 504.78 7.68
3 5 -10 14 3.2
1 -2 4 512.18 10.72
1 -2 4 480.14 8.14
1 -2 5 604.8 9.27
-1 2 -3 4.73 1.03
1 -2 5 628.99 13.16
1 -2 5 613.55 9.05
-1 2 -5 598.27 8.19
-3 -5 8 9.02 2.83
-1 2 -6 0.13 0.76
1 -2 6 -0.06 0.38
1 -2 6 0.2 0.26
-7 2 2 44.18 6.43
1 -2 7 33.54 1.85
-1 2 -7 37.92 3.82
1 -2 7 33.19 2.41
-3 -5 6 14.31 1.75
1 -2 8 33.51 1.57
-1 2 -8 39.81 4.11
1 -2 9 5.49 0.94
1 -2 7 33.64 3.74
1 -2 9 5.59 1.54
-1 2 -10 24.02 3.62
1 -2 10 27.6 4.18
-3 -5 5 6.7 1.31
1 -2 11 16.35 3.47
-1 2 -12 12.97 3.07
1 -2 12 13.02 3.36
7 -2 -1 19.48 4.46
1 -2 13 10.1 3.05
1 -1 -14 4.52 2.34
-1 1 14 2.47 1.65
3 5 -4 61.69 4.77
-1 1 13 23.12 4.21
1 -1 -12 10.73 2.8
-1 1 12 11.55 2.88
-1 2 -13 10.02 2.89
-1 1 11 0.18 0.99
-1 1 11 0.8 0.93
1 -1 -10 0.19 0.83
-3 -5 3 118.63 3.98
-1 1 10 2.83 1.3
-1 1 9 35.62 3.42
-1 1 9 40.38 4.2
-7 2 1 16.61 4.09
-1 1 8 386.86 10.62
-1 1 8 395.5 12.09
1 -1 -8 384.64 4.46
-3 -5 2 540.03 9.19
-1 1 7 1.78 0.81
1 -1 -7 1.72 0.41
-1 1 7 1.14 0.89
1 -1 -9 36.51 4.05
-1 1 6 11.3 1.68
1 -1 -6 9.29 0.95
-1 1 6 9.41 1.62
3 5 -1 187.18 8.09
-1 1 5 43.1 3.06
-1 1 5 40.95 2.93
1 -1 -5 36.53 2.92
-7 2 0 30.02 5.25
1 -1 -4 334.13 8.04
-1 1 4 331.75 7.78
1 -1 -4 332.87 7.34
3 5 -1 189.1 7.61
-1 1 4 338.36 7.52
1 -1 -4 325.42 7.11
-1 1 4 332.68 7.46
1 -1 -5 38.52 2.71
-1 1 3 90.93 3.86
-1 1 3 91.83 3.46
1 -1 -3 88.56 3.25
3 5 0 256.94 9.21
-1 1 3 92.28 3.81
-1 1 3 92.8 3.4
1 -1 -3 86.46 3.68
7 -2 0 20.57 4.55
1 -1 -2 484.07 7.87
1 -1 -2 473.73 6.41
1 -1 -2 488.32 8.31
3 5 1 50.22 3.81
-1 1 2 495.04 8.49
-1 1 2 486.23 7.57
1 -1 -2 486.19 7.37
1 -1 -3 92.3 3.87
-1 1 1 7.95 1.05
1 -1 -1 8.09 0.73
1 -1 -1 7.1 0.99
-3 -5 -1 55.38 4.64
-1 1 0 3453.4 18.69
-1 1 0 3495.26 20.53
1 -1 0 3480.34 19.93
-7 2 -1 45.33 6.35
1 -1 0 3531.38 20.92
1 -1 1 145.84 4.17
1 -1 1 147.7 4.17
-3 -5 -2 30.62 2.73
-1 1 -1 150.21 4.41
-1 1 -1 149.72 4.08
1 -1 1 142.53 4.12
1 -1 0 3433.58 18.18
-1 1 -2 3426.58 21.22
-1 1 -2 3341.67 22.55
1 -1 2 3355.88 19.4
-3 -5 -3 171.98 6.36
1 -1 2 3452.13 21.44
-1 1 -3 119.81 4.43
1 -1 3 116.6 3.75
7 -2 1 40.38 6.06
1 -1 3 118.79 4.16
-1 1 -3 114.38 4.56
1 -1 3 116.85 4.67
-3 -5 -5 93.67 5.59
-1 1 -4 53.92 2.47
1 -1 4 52.93 2.69
1 -1 4 57.75 3.09
-1 1 -3 117.95 3.61
-1 1 -5 291.22 8.42
-1 1 -5 290.66 5.67
1 -1 5 277.37 6.55
-3 -5 -6 80.06 4.24
1 -1 5 290.67 8.31
1 -1 6 319.85 7.47
1 -1 6 318.97 9.62
7 -2 2 7.24 2.87
1 -1 6 314.9 5.18
1 -1 7 131.65 5.1
1 -1 7 140.77 7.02
3 5 7 10.13 1.66
-1 1 -7 132.22 6.61
1 -1 8 22.52 3.09
1 -1 8 27.62 2.52
-1 1 -6 311.99 9.44
-1 1 -9 1.4 1.09
1 -1 9 -0.34 1.07
1 -1 9 0.84 0.45
-3 -5 -9 17 3.01
1 -1 10 36.4 2.67
-1 1 -10 32.81 4.02
1 -1 11 2.19 1.52
-7 2 -2 11.47 3.44
-1 1 -12 15.42 3.18
1 -1 12 21.91 4.04
1 -1 13 2.72 1.72
-3 -5 -10 64.34 3.76
-1 0 14 3.81 2.17
1 0 -13 1.06 1.16
1 0 -13 1.61 1.62
-1 1 -11 0.7 1.01
-1 0 12 12.23 3.02
1 0 -12 7.13 2.38
1 0 -11 3.5 1.63
-3 -5 -11 16.62 1.92
-1 0 10 41.04 4.73
1 0 -10 34.72 4.09
-1 0 10 35.89 3.33
7 -2 3 13.6 3.52
1 0 -9 5.7 1.67
-1 0 9 2.01 1.45
-1 0 8 82.14 5.86
3 5 13 22.49 3.45
-1 0 8 80.38 4.4
1 0 -7 673.38 14.36
-1 0 7 645.73 11.82
-1 0 9 4.74 1.27
1 0 -6 31.56 2.87
-1 0 6 32.26 2.49
-1 0 6 27.31 2.89
3 5 14 4.5 1.8
-1 0 5 7.07 1.36
1 0 -5 6.38 1.2
1 0 -5 8.64 1.09
-7 2 -3 17.71 4.02
1 0 -4 28.8 2.46
1 0 -4 29.45 2.25
-1 0 4 33.48 2.39
3 5 16 -3.87 1.9
1 0 -4 35.32 2.59
-1 0 4 29.97 2.5
1 0 -4 31.68 2
-1 0 5 8.39 1.2
1 0 -3 1003.25 11.32
-1 0 3 988.81 12.47
1 0 -3 980.79 12.65
-3 -6 8 8.5 2.99
-1 0 3 1003.03 13.24
1 0 -3 973.89 10.57
-1 0 3 997.01 11.14
7 -2 4 0.58 1.67
-1 0 2 123.41 3.24
-1 0 2 117.98 3.53
-1 0 2 120.12 3.83
-3 -6 6 4.69 2.1
1 0 -2 111.88 3.43
1 0 -2 123.2 3.22
-1 0 2 118.41 4.05
1 0 -2 121.39 3.97
-1 0 1 1841.12 9.19
1 0 -1 1849.44 13.7
-1 0 1 1877.32 13.29
3 6 -4 21.61 3.25
1 0 -1 1810.15 13.25
1 0 -1 1900.99 10.13
-1 0 -1 378.06 5.94
-7 2 -4 -0.29 1.27
-1 0 -1 370.25 6.44
1 0 1 384.83 6.34
1 0 1 359.92 4.25
-3 -6 3 289.21 8.49
1 0 2 331.72 5.93
1 0 2 328.63 5.38
-1 0 -2 338.34 5.27
-1 0 -1 371.77 4.06
-1 0 -2 336.05 5.79
1 0 2 329.88 6.3
1 0 3 9999 36.12
-3 -6 2 108.54 5.18
-1 0 -4 173.39 5.72
-1 0 -4 188.19 4.52
-1 0 -4 202.03 5.76
7 -2 5 10.68 3.04
1 0 4 181.55 5.62
-1 0 -5 5.85 1.23
1 0 5 3.78 0.94
3 6 -1 445.48 12.74
1 0 5 5.17 0.95
1 0 6 331.49 7.7
1 0 6 341.24 9.25
1 0 4 186.01 4.99
1 0 7 128.01 5.12
-1 0 -7 138.17 6.44
1 0 7 134.58 6.44
3 6 -1 436.09 13.01
1 0 8 11.85 1.42
1 0 8 11.35 2.15
1 0 9 31.61 2.47
-7 2 -5 12.8 3.43
1 0 9 31.45 3.74
1 0 10 -0.02 0.63
1 0 10 -0.74 1.32
3 6 0 13.86 2.16
1 0 11 14.99 2.03
-1 0 -11 14.3 2.91
1 0 11 7.25 2.25
-1 0 -9 33.58 3.73
1 0 12 4.34 1.81
-1 0 -13 34.83 4.89
1 0 13 44.45 5.72
3 6 1 180.35 7.51
-1 0 -14 -2.29 1.58
-1 -1 13 20.77 4.35
1 1 -13 14.74 3.45
7 -2 6 2.32 1.72
1 1 -12 1.24 1.27
1 1 -11 6.03 2.01
-1 -1 11 6.04 2.1
-3 -6 -1 160.34 7.04
1 1 -10 45.18 4.76
1 1 -9 29.87 3.67
-1 -1 9 25.37 3.75
-1 -1 12 3.41 1.91
-1 -1 8 96.59 4.28
-1 -1 8 106.11 6.94
1 1 -8 98.95 6.13
-3 -6 -2 25.6 2.56
-1 -1 7 83.64 3.73
1 1 -7 82.82 5.21
-1 -1 6 991.26 6.14
-7 2 -6 2.77 2.01
1 1 -6 995.29 6.34
1 1 -6 1069.81 17.2
-1 -1 6 1013.87 12.05
-3 -6 -3 27.95 2.67
-1 -1 5 37.93 1.36
1 1 -5 31.65 1.28
-1 -1 5 33.68 2.03
-1 -1 6 1041.5 18.82
1 1 -5 30.96 2.72
-1 -1 4 270.75 3.99
1 1 -4 271.07 7.76
-3 -6 -4 34.56 2.96
1 1 -4 269.31 4.47
1 1 -4 283.66 4.18
-1 -1 4 273.89 8.07
-7 2 -7 2.56 1.67
1 1 -4 282.39 7.29
-1 -1 3 248.47 6.27
1 1 -3 237.35 6.65
-3 -6 -5 152.96 6.18
-1 -1 3 252.81 7.01
-1 -1 3 237.85 4.41
1 1 -3 237.08 6.74
-1 -1 4 271.04 5.11
-1 -1 3 259.19 7.1
1 1 -3 236.34 3.98
-1 -1 2 224.71 3.85
-3 -6 -6 2.17 1.04
1 1 -2 209.49 3.77
1 1 -2 206.52 5.57
-1 -1 2 224.15 5.13
-7 2 -8 -2.31 1.63
-1 -1 2 219.02 5.85
1 1 -2 214.84 5.78
1 1 -1 129.99 3.89
-3 -6 -7 56.95 3.83
-1 -1 1 115.59 3.1
1 1 -1 128.36 2.88
-1 -1 1 121.62 3.88
1 1 -2 227.73 4.93
-1 -1 1 118.29 2.98
1 1 0 627.61 5.53
1 1 0 623.56 7.04
3 6 8 47.97 3.96
1 1 1 240.74 3.33
-1 -1 -2 3718.17 16.51
1 1 2 3677.03 19.45
7 -1 -5 18.88 3.97
-1 -1 -2 3790.04 18.57
1 1 2 3656.83 16.43
1 1 2 3761.64 19.71
3 6 9 22.69 2.96
-1 -1 -3 2691.78 16.43
1 1 3 2710.38 17.79
-1 -1 -3 2780.39 17.41
-1 -1 -2 3730.66 20.59
-1 -1 -4 8210.79 37.2
1 1 4 8246.59 35.44
-1 -1 -5 36.16 1.44
-3 -6 -11 110.37 8.46
1 1 5 34.15 2.33
1 1 5 37.12 2.53
1 1 5 36.47 1.48
7 -1 -4 12.38 3.73
1 1 6 35.03 2.51
1 1 6 35.09 1.31
-1 -1 -6 36.76 3.02
3 6 13 3.48 1.57
1 1 7 10.69 1.74
1 1 7 8.67 0.58
1 1 7 10.51 1.34
1 1 6 33.05 2.75
-1 -1 -7 9.37 1.68
1 1 8 2.81 1.15
1 1 8 0.94 0.52
-3 -6 -14 7.7 2.71
1 1 9 9.42 2
-1 -1 -9 8.37 1.93
1 1 9 8.5 1.39
7 -1 -4 10.61 2.97
1 1 10 67.96 5.59
-1 -1 -10 76.76 5.85
1 1 11 2.98 1.41
3 6 15 1.55 1.35
1 1 11 3.7 1.2
1 1 12 1.73 0.91
-1 -1 -12 1.4 1.32
1 1 10 67.03 4.14
1 1 13 4.24 1.85
-1 -1 -13 6.25 2.28
-1 -1 -13 7.33 2.41
3 7 -7 5.29 1.97
1 1 14 14.53 3.43
1 2 -13 2.5 1.74
-1 -2 12 4.93 2.11
-7 1 4 8.64 2.84
1 2 -11 21.11 3.63
-1 -2 11 18.17 3.71
1 2 -10 7.33 2.17
3 7 -5 11.27 2.57
-1 -2 9 95.09 7.36
1 2 -9 101.49 6.89
-1 -2 8 148.01 8.62
1 2 -12 2.56 1.49
-1 -2 7 2.23 1.25
-1 -2 7 2.83 0.58
1 2 -7 2.22 1.12
3 7 -3 64.35 5.31
-1 -2 6 31.64 3.52
1 2 -6 25.77 1.42
1 2 -6 30.88 3.12
7 -1 -3 27.21 4.6
1 2 -5 353.82 5.26
-1 -2 5 349.38 4.55
-1 -2 5 357.82 10.84
-3 -7 2 259.03 11.98
-1 -2 4 243.76 4.19
1 2 -4 242.54 7.44
-1 -2 3 287.24 4.11
-1 -2 6 30.44 1.56
1 2 -3 299.14 4.86
1 2 -3 295.63 7.56
1 2 -3 291.36 7.7
-3 -7 1 72.06 6.25
-1 -2 3 303.6 8.27
-1 -2 2 443.72 5.87
-1 -2 2 469.76 9.39
-7 1 3 23.27 4.69
1 2 -2 467.18 9.47
-1 -2 2 449.86 4.79
-1 -2 2 450.85 6.53
3 7 0 22.18 3.25
1 2 -2 473.66 8.7
-1 -2 2 461.29 9.25
-1 -2 2 460.29 8.97
1 2 -2 465.66 8.75
-1 -2 1 364.21 5.4
-1 -2 1 367.52 7.14
-1 -2 1 361.55 4.44
-3 -7 0 25.95 2.8
1 2 -1 372.86 7.51
1 2 -1 375.28 5.59
-1 -2 1 366.78 7.53
7 -1 -3 37.37 6.39
1 2 -1 369.2 6.97
-1 -2 1 369.89 5.82
-1 -2 0 554 8.55
3 7 1 33.36 3.05
-1 -2 0 554.59 7.04
-1 -2 0 535.24 5.87
1 2 0 547.46 6.8
1 2 -1 370.76 7.22
1 2 0 534.64 6.4
1 2 0 533.35 8.37
1 2 0 527.45 6.89
3 7 1 34.11 2.59
-1 -2 -1 4059.38 18.78
-1 -2 -1 4161.34 21.77
1 2 1 4092.94 19.21
7 -1 -2 2.01 1.18
1 2 1 4121.91 19.1
1 2 1 4181.78 18.02
1 2 1 4269.22 18.76
-3 -7 -2 28.78 2.92
-1 -2 -1 4130.86 19.14
-1 -2 -1 4199.65 18.46
-1 -2 -1 4148.47 17.64
1 2 1 4132.25 22.05
-1 -2 -2 152.78 3.72
1 2 2 149.63 3.52
1 2 2 143.28 3.83
-3 -7 -3 44.23 3.56
-1 -2 -2 150.76 3.66
1 2 2 137.59 4.09
1 2 2 147.08 3.6
7 -1 -2 2.1 1.76
-1 -2 -2 156.01 3.55
-1 -2 -3 4809.41 20.79
1 2 3 4770.4 20.75
3 7 4 6.72 1.18
1 2 3 4762.22 25.64
-1 -2 -3 4772.07 19.48
1 2 3 4853.27 21.84
-1 -2 -2 151.87 4.39
1 2 3 4784.8 23.78
-1 -2 -4 557.37 7.17
1 2 4 564.49 9.44
-3 -7 -4 6.8 1.69
1 2 4 563.85 6.61
1 2 4 585.29 8.43
1 2 4 565.68 8.81
-7 1 2 1.96 1.67
-1 -2 -4 567.96 10.1
-1 -2 -5 848.65 13.55
-1 -2 -5 809.16 11.97
-3 -7 -5 6.94 1.73
-1 -2 -5 844.75 7.93
1 2 5 882.62 11.52
-1 -2 -5 819.8 8.7
-1 -2 -4 569.78 9.27
-1 -2 -6 1279.31 18.15
-1 -2 -6 1285.1 9.79
1 2 6 1282.81 9.87
-3 -7 -6 67.49 4.39
1 2 7 32.69 1.62
1 2 7 34.9 2.88
-1 -2 -8 116.37 6.42
7 -1 -1 1.56 1.69
1 2 8 118.55 3.03
1 2 8 119.1 5.07
1 2 9 27.94 3.16
-3 -7 -7 55.34 5.47
1 2 9 28.16 2.72
1 2 10 3.82 1.41
-1 -2 -10 3.65 1.46
1 2 8 118.86 5.93
1 2 11 19.84 3.15
1 2 11 24.44 2.89
-1 -2 -11 26.19 3.77
-3 -7 -7 50.32 4.19
1 2 12 1.53 1.24
-1 -2 -12 2.57 1.44
1 2 13 30.53 4.44
-7 1 1 -0.84 1.78
1 2 13 22.94 3.19
1 2 14 7.29 2.51
-1 -2 -14 9.6 2.84
3 7 8 72.99 4.09
1 3 -12 9.27 2.64
-1 -3 12 6.48 2.64
1 3 -11 42.4 5.2
-1 -2 -13 27.14 4.31
-1 -3 10 61.03 6.55
1 3 -10 53.85 5.59
-1 -3 9 4.95 2.15
-3 -7 -9 9.21 1.89
-1 -3 8 87.95 6.98
1 3 -8 85.96 6.26
1 3 -7 41.39 4.09
7 -1 0 29.61 5.23
1 3 -6 440.01 12.5
-1 -3 6 423.84 13.4
-1 -3 5 11.13 2.15
3 7 11 9.01 2.35
1 3 -5 12.35 1.27
-1 -3 4 46.53 2.46
1 3 -4 46.77 2.43
-1 -3 7 49.8 4.98
1 3 -4 46.32 3.62
1 3 -3 215.39 5.16
-1 -3 3 213.99 5.16
3 7 13 6.58 1.99
1 3 -3 203.83 4.93
-1 -3 3 215.17 7.66
1 3 -2 116.3 5.19
-7 1 0 33.11 5.37
1 3 -2 114.06 4.55
-1 -3 2 101.52 4.8
1 3 -2 103.77 3.44
3 7 15 5.62 1.93
-1 -3 2 101.66 3.32
-1 -3 2 104.43 4.53
-1 -3 1 883.23 10.14
1 3 -2 115.24 3.74
-1 -3 1 909.61 12
1 3 -1 912.41 11.66
1 3 -1 887 7.68
3 8 -6 1.59 1.32
-1 -3 1 927.31 9.97
1 3 -1 944.22 14.2
1 3 -1 904.3 10.04
-7 1 -1 6.47 2.63
1 3 -1 963.4 15.22
1 3 -1 903.94 13.01
1 3 0 285.83 5.56
3 8 -4 18.73 3.43
1 3 0 269.95 5.64
1 3 0 276.67 7.64
-1 -3 0 270.72 5.39
1 3 -1 920.08 6.7
1 3 0 273.79 6.57
-1 -3 0 256.81 6.45
1 3 0 276.05 4.22
3 8 -2 -0.11 0.76
1 3 0 270.67 4.71
1 3 1 217.65 3.89
1 3 1 213.17 4.94
7 -1 1 1.8 1.65
-1 -3 -1 220.16 4.88
1 3 1 220.84 4.25
1 3 1 222.25 4.59
3 8 -1 49.41 4.33
-1 -3 -1 213.12 4.91
1 3 1 220.92 4.91
1 3 1 219.97 6.57
-1 -3 -1 214.82 5.58
1 3 2 183.74 5.85
-1 -3 -2 189.94 6.07
-1 -3 -2 186.22 3.86
3 8 0 29.35 3.24
1 3 2 191.54 4.6
1 3 2 193.25 4.7
-1 -3 -2 191.19 4.53
-7 1 -2 11.55 3.05
1 3 2 186.09 5.14
-1 -3 -2 173.04 4.43
1 3 2 194.42 4.59
3 8 0 31.11 2.68
1 3 3 388.05 6.82
-1 -3 -3 382.71 9
-1 -3 -3 384.39 6.42
1 3 2 183.36 3.52
1 3 3 382.44 8.62
1 3 3 403.44 5.59
1 3 3 381.48 6.41
3 8 1 2.1 0.82
1 3 4 359.96 8.63
-1 -3 -4 357.6 6.24
1 3 4 358.36 6.46
7 -1 2 18.51 4.15
1 3 4 361.16 6.33
1 3 4 361.16 6.22
-1 -3 -4 334.36 6.92
3 8 2 34.23 2.57
-1 -3 -4 358.09 9.19
-1 -3 -5 157.95 5.14
1 3 5 173.95 4.57
-1 -3 -4 349.15 6.36
-1 -3 -5 161.51 4.38
-1 -3 -5 161.36 4.2
1 3 5 165.98 4.39
3 8 2 31.48 2.91
1 3 6 143.3 5.26
-1 -3 -6 134.9 6.35
1 3 6 140.16 4.13
7 -1 3 5.23 2.64
-1 -3 -6 137.65 4.09
-1 -3 -7 35.58 2.12
-1 -3 -7 34.83 3.47
-3 -8 -3 110.77 6.54
1 3 7 32.59 2.74
-1 -3 -8 24.31 1.75
-1 -3 -8 25.13 3.19
1 3 6 133.95 4.03
1 3 8 24.19 2.59
1 3 8 24.16 2.55
1 3 9 103.73 3.59
-3 -8 -4 27.09 3
1 3 9 104.39 5.56
-1 -3 -9 109.43 6.91
1 3 10 2.06 1.06
-7 1 -3 5.59 2.41
-1 -3 -10 1.63 1.14
-1 -3 -11 0.69 1.08
1 3 11 2.12 1.15
-3 -8 -5 1.39 1.21
1 3 12 9.11 2.3
1 3 12 8.3 1.95
-1 -3 -12 12.44 2.93
1 3 10 1.59 0.69
-1 -3 -13 1.9 1.68
1 3 13 2.5 1.25
1 3 14 4.25 1.6
-3 -8 -6 15.04 3.07
1 3 14 5.5 2.06
1 3 15 7.46 2.61
-1 -3 -15 12 3.51
7 -1 4 9.92 3.01
-1 -4 11 7.34 2.77
1 4 -10 0.75 1.16
-1 -4 10 0.69 1.67
-3 -8 -7 8.31 2.37
-1 -4 9 269.51 13.37
-1 -4 8 2.44 1.64
1 4 -8 3.79 1.73
1 4 -11 4.45 2.07
-1 -4 7 57.89 5.59
1 4 -6 187.35 8.81
-1 -4 6 188.09 5.61
3 8 8 2.22 1.16
1 4 -5 13 2.3
-1 -4 5 12.06 1.43
-1 -4 5 11.81 2.31
-7 1 -4 8.99 2.96
-1 -4 4 119.37 4.38
1 4 -4 114.78 6.29
-1 -4 3 18.95 1.73
3 8 9 6.24 1.79
-1 -4 3 17.5 2.37
-1 -4 2 103.72 3.99
1 4 -2 106.59 5.72
-1 -4 4 125.39 6.72
1 4 -2 92.24 2.34
1 4 -1 58.61 3.09
1 4 -1 58.45 4.1
-3 -8 -11 52.17 6.46
-1 -4 1 54.73 3.13
-1 -4 1 66.25 3.88
-1 -4 1 55.72 2.86
7 -1 5 -1.25 1.19
1 4 0 15.81 2.12
1 4 0 15.89 1.76
1 4 0 14.39 1.29
-3 -8 -13 0.88 1.51
-1 -4 0 15.18 1.75
-1 -4 0 12.23 1.38
1 4 0 17.77 1.55
1 4 -1 54.32 2.2
1 4 1 1958.2 10.65
1 4 1 1993.15 14.83
1 4 1 1973.93 15.68
3 9 -6 -2.02 1.46
-1 -4 -1 1901.4 18.19
1 4 1 1951.08 14.44
-1 -4 -1 1980.62 22.55
-7 1 -5 0.81 1.32
1 4 2 55.86 2.92
-1 -4 -2 55.1 2.83
-1 -4 -2 53.87 3.81
-3 -9 4 28.39 4.79
1 4 2 59.81 2.94
1 4 3 22.71 1.94
-1 -4 -3 20.39 1.73
1 4 2 58.02 3.92
1 4 3 20.31 1.82
-1 -4 -3 20.27 1.38
-1 -4 -3 25.75 2.71
3 9 -2 -0.44 1.3
-1 -4 -4 364.7 7.27
-1 -4 -4 369.74 10.43
1 4 4 354.91 8.09
7 -1 6 15.41 3.6
-1 -4 -5 15.35 2.27
-1 -4 -5 12.94 1.45
1 4 5 15.76 1.89
-3 -9 1 2.68 1.31
-1 -4 -6 356.55 11.22
1 4 6 336.66 8.97
-1 -4 -7 55.4 4.71
-1 -4 -5 13.38 1.41
1 4 7 57.26 3.93
-1 -4 -8 6.05 1.78
1 4 8 2.2 0.84
-3 -9 0 0.85 0.94
-1 -4 -8 5.14 0.95
-1 -4 -9 0.95 1.04
-1 -4 -9 0.85 0.45
-7 1 -6 15.03 3.56
1 4 9 1.85 1.02
1 4 9 3.11 0.76
1 4 10 171.45 8.05
-3 -9 -1 18.45 3.3
-1 -4 -10 197.04 10.3
1 4 10 192.06 8.14
-1 -4 -11 5.49 2.01
1 4 9 2.38 1.07
1 4 11 5.74 1.65
-1 -4 -12 -0.6 1.48
1 4 12 0.31 0.97
3 9 2 0.74 0.69
1 4 13 6.72 1.99
1 4 13 4.79 1.94
-1 -4 -13 6.24 2.37
-7 1 -7 4.43 2.08
1 4 14 1.04 1.12
-1 -4 -14 1.04 1.43
1 4 15 1.29 1.3
3 9 3 11.98 1.9
1 4 15 -0.01 0.86
1 4 16 4.25 2.04
1 5 -10 2.18 1.46
1 4 14 0.54 1.15
1 5 -9 1.21 1.45
-1 -5 9 6.85 2.69
1 5 -8 163.45 9.61
3 9 4 11.38 1.85
-1 -5 7 37.24 4.76
1 5 -7 39.78 4.72
-1 -5 6 115.16 7.76
7 -1 7 4.06 2.01
-1 -5 6 124.05 5.13
-1 -5 5 1.91 1.23
1 5 -5 2.61 1.32
-3 -9 -5 77.92 5.77
-1 -5 4 43.8 4.27
1 5 -4 35.07 3.83
-1 -5 4 39.99 2.82
1 5 -6 114.1 7.38
-1 -5 3 55.57 3.28
1 5 -3 60.05 4.92
-1 -5 2 21.46 2.58
-3 -9 -6 3.96 1.51
-1 -5 2 19.43 1.94
1 5 -2 17.21 1.02
1 5 -2 16.93 1.27
-7 1 -8 -0.47 1.14
1 5 -1 4.67 1.48
-1 -5 1 4.49 1.15
1 5 -1 5.3 0.74
-3 -9 -8 -0.62 1.19
-1 -5 1 4.48 0.94
1 5 0 276.38 6.2
-1 -5 0 273.33 7.99
1 5 -2 18.8 1.64
1 5 0 252.71 4.07
-1 -5 0 269.26 6.96
1 5 0 271.96 6.57
3 9 9 2.76 1.53
1 5 1 2.93 0.61
-1 -5 -1 3.25 0.89
1 5 1 2.89 0.82
-7 1 -9 1.93 1.6
-1 -5 -1 2.39 0.82
-1 -5 -2 1033.59 13.58
-1 -5 -2 1007.14 18.52
-3 -9 -10 0.23 0.98
1 5 2 1008.65 9.67
1 5 2 1000.5 13.99
-1 -5 -3 134.15 4.91
-1 -5 -1 3.66 1.21
1 5 3 131.51 4.58
-1 -5 -3 139.4 7
-1 -5 -4 37.01 2.62
-3 -9 -12 19.39 4.27
1 5 4 30.3 2.71
-1 -5 -4 36.8 3.69
1 5 4 36.77 2.52
7 0 -5 41.64 5.84
-1 -5 -5 538.94 9.84
1 5 5 502.04 11.53
-1 -5 -5 517.23 8.83
3 9 13 14.74 3.43
-1 -5 -6 21.39 1.98
-1 -5 -6 25.22 3.27
1 5 6 22.56 2.57
-1 -5 -5 548.46 14.6
-1 -5 -7 83.23 6.14
-1 -5 -7 82.73 3.94
-1 -5 -8 33.31 4.13
3 10 -3 4.55 2.09
-1 -5 -8 32.1 2.51
-1 -5 -9 64.05 5.91
-1 -5 -9 56.01 3.34
-7 0 5 47.42 6.57
1 5 9 48.08 4.4
-1 -5 -10 51.32 5.64
1 5 10 43.46 3.73
-3 -10 2 9.38 2.39
1 5 10 44.65 4.47
-1 -5 -11 54.6 6.04
1 5 11 60.45 4.81
1 5 9 58.54 3.92
1 5 11 62.96 5.48
-1 -5 -12 5.17 2.04
1 5 12 4.79 1.5
-3 -10 1 2.08 1.31
-1 -5 -13 -1.1 1.61
1 5 13 -0.7 0.96
1 5 14 -0.85 1.14
7 0 -4 5.95 2.4
1 5 14 1.19 1.14
1 5 15 2.13 1.67
1 5 15 3.09 1.85
3 10 1 16.29 3.72
1 5 16 -0.77 1.21
-1 -6 9 17.64 3.85
1 6 -9 14.92 3.27
-1 -5 -14 0.73 1.83
-1 -6 8 0.82 1.16
1 6 -7 74.61 6.72
-1 -6 7 91.16 7.64
-3 -10 -2 4.07 1.66
-1 -6 6 81.78 4.57
-1 -6 6 88.14 7.16
1 6 -5 8.72 2.23
7 0 -4 17.11 4.52
-1 -6 5 5.5 1.84
1 6 -4 6.39 1.98
-1 -6 4 7.29 1.98
-3 -10 -4 89.72 8.05
1 6 -3 80.63 6.27
-1 -6 3 80.43 5.75
-1 -6 3 81.07 4.39
-1 -6 5 6.33 1.34
1 6 -2 4.56 0.83
1 6 -2 4.15 0.62
1 6 -2 4.56 0.9
3 10 5 19.41 3.12
-1 -6 2 3.05 1.14
1 6 -1 500.6 7.71
-1 -6 1 490.29 10.42
-7 0 4 11.87 3.26
1 6 -1 507.15 9.35
1 6 -1 513.74 15.28
1 6 0 138.62 3.31
-3 -10 -6 15.94 2.84
1 6 0 159.64 8.44
-1 -6 0 152.09 5.77
1 6 0 149.62 4.56
-1 -6 1 492.55 12.33
-1 -6 -1 166.76 6.38
1 6 1 169.37 4.35
-1 -6 -1 170.62 8.41
-3 -10 -8 5.3 2.32
-1 -6 -1 176.86 6.2
1 6 2 13.01 1.07
1 6 2 12.41 1.79
7 0 -3 48.82 7.18
-1 -6 -2 11.67 2.25
-1 -6 -2 11.7 1.64
-1 -6 -2 13.24 1.8
3 10 9 2.01 1.4
1 6 3 59.14 3.17
1 6 3 57.5 3.96
-1 -6 -3 59.29 3.61
1 6 2 14 1.65
-1 -6 -4 27.69 1.32
1 6 4 27.97 2.91
-1 -6 -4 31.26 3.73
-3 -10 -10 10.42 2.49
1 6 4 30.62 2.28
-1 -6 -5 60.71 5.36
1 6 5 64.82 3.46
7 0 -3 44.36 5.77
1 6 5 59.34 4.37
-1 -6 -5 63.93 2.88
1 6 6 50 4.24
-3 -10 -12 14.32 4.05
-1 -6 -6 53.02 3.07
-1 -6 -6 57.82 3.61
-1 -6 -7 10.6 2.47
-1 -6 -5 66.93 3.85
-1 -6 -7 12.03 1.69
-1 -6 -8 14.16 2.9
1 6 8 12.44 2.33
-3 -11 3 5.61 2.46
1 6 9 11.98 1.75
1 6 9 14.73 2.64
-1 -6 -9 12.49 1.8
-7 0 3 40.52 5.91
-1 -6 -10 72.06 4.23
1 6 10 75.46 4.7
-1 -6 -10 74.56 7.02
3 11 -1 3.12 2.13
-1 -6 -11 17.53 3.66
-1 -6 -11 12.67 1.82
1 6 11 16.12 3.17
-1 -6 -9 10.8 2.47
1 6 12 21.39 3
1 6 12 23.15 3.75
-1 -6 -12 18.61 3.97
-3 -11 0 -1.66 1.2
1 6 13 2.91 1.7
-1 -6 -13 3.8 1.88
1 6 14 -0.95 1.2
7 0 -2 21.95 4.01
1 6 15 -1.1 1.31
1 6 16 0.18 1.06
1 7 -8 7.42 2.6
-3 -11 -2 0.55 1.01
1 7 -7 6.64 2.37
-1 -7 7 9.9 2.77
1 7 -6 11.18 2.75
-1 -6 -14 0.98 1.4
1 7 -5 8.28 2.35
-1 -7 5 9.72 1.72
-1 -7 5 9.76 2.44
3 11 4 14.67 2.86
-1 -7 4 96.25 5.31
-1 -7 4 89.48 6.71
1 7 -3 42.72 5.03
-7 0 2 30.48 5.05
-1 -7 3 48.01 4.67
1 7 -2 30.78 2.28
1 7 -2 29.63 4.16
-3 -11 -5 15.55 2.94
-1 -7 2 22.77 3.03
-1 -7 1 4.4 1.32
1 7 -1 4.72 1.8
-1 -7 3 42.61 3.49
-1 -7 1 5.19 1.52
1 7 0 8.22 0.77
1 7 0 7.25 1.38
-3 -11 -7 26.09 4.83
-1 -7 0 10.26 1.73
-1 -7 0 8.81 1.71
-1 -7 -1 79.36 6.36
7 0 -2 22.37 4.91
1 7 1 76.68 6.39
1 7 1 84.1 4.89
-1 -7 -1 79.84 4.6
3 11 8 2.37 1.7
1 7 2 10.73 1.83
1 7 2 10.09 1.51
-1 -7 -2 10.78 1.66
-1 -7 -1 74.93 4.61
-1 -7 -3 86.1 4.76
1 7 3 80.46 3.87
1 7 3 83.83 5.24
-3 -11 -9 1.38 1.01
-1 -7 -4 122.44 8.03
1 7 4 127.14 6.68
1 7 4 119.21 4.45
7 0 -1 37.78 6.05
1 7 5 17.91 2.62
1 7 5 16.15 1.64
-1 -7 -5 20.91 2.38
3 11 11 3.91 2.02
-1 -7 -5 14.58 1.05
-1 -7 -6 29.89 2.15
1 7 6 28.18 3.43
-1 -7 -4 127.89 5.76
1 7 6 32.3 2.44
-1 -7 -6 34.31 3.07
1 7 7 93.59 6.39
-3 -12 -1 0.45 1.43
-1 -7 -7 98.83 7.76
-1 -7 -8 21.72 3.79
1 7 8 27.05 3.65
-7 0 1 23.46 4.43
-1 -7 -9 2.65 1.81
1 7 9 5.29 1.15
1 7 9 6.9 2.16
-3 -12 -3 3.26 1.54
-1 -7 -10 64.08 6.85
1 7 10 65.68 6.05
1 7 10 59.38 3.98
-1 -7 -8 23 2.57
-1 -7 -11 4.73 2.01
-1 -7 -11 4.69 1.26
1 7 11 5.64 1.97
-3 -12 -5 13.86 3.73
1 7 12 -0.66 1.04
1 7 13 -0.12 1.42
-1 -7 -13 0.22 1.39
7 0 0 3.85 2.25
-1 -7 -14 0.91 1.51
1 7 15 1.18 0.87
-1 -8 7 5.15 2.22
-3 -12 -6 3.03 1.75
1 8 -6 22.89 4.23
-1 -8 6 14.53 3.27
-1 -8 5 3.14 1.6
1 7 14 0.35 1.07
1 8 -5 5.08 2.11
-1 -8 4 15.26 3.09
1 8 -4 8.77 2.63
-3 -12 -8 1.29 1.52
-1 -8 3 19.07 2.57
-1 -8 3 14.53 2.9
-1 -8 2 111.73 6.04
-7 0 0 5.42 2.12
1 8 -2 127.1 9.21
-1 -8 1 7.07 1.67
1 8 -1 5.78 2.31
3 12 9 3.32 1.94
1 8 0 2.07 1.56
-1 -8 0 4.38 1.37
1 8 0 4.88 1.4
-1 -8 2 111.37 7.13
-1 -8 -1 99.49 5.58
1 8 1 91.77 5.52
1 8 1 92.36 7.7
4 -9 -5 4.26 2.19
1 8 2 18 2.61
-1 -8 -2 15.91 2.23
-1 -8 -2 15.22 2.08
7 0 1 2.88 1.78
1 8 3 0.75 0.78
-1 -8 -3 2 0.95
1 8 4 2.27 1.06
-4 9 2 -1.01 1.34
-1 -8 -4 1.53 0.77
-1 -8 -5 0.32 0.91
-1 -8 -5 0.39 0.93
-1 -8 -2 22.36 3.7
-1 -8 -6 80.39 7.32
-1 -8 -6 79.75 4.99
1 8 6 66.37 5.66
4 -8 -7 15.12 3.8
-1 -8 -7 3.55 2.07
-1 -8 -7 5.18 1.54
-1 -8 -8 311.23 15.12
-7 0 -1 2.34 1.55
1 8 8 278.14 12.16
-1 -8 -9 94.18 5.53
-1 -8 -9 111.61 9.25
4 -8 -5 4.16 2.26
-1 -8 -10 9.32 2.77
1 8 10 6.53 2.08
-1 -8 -10 7.13 1.58
-1 -8 -8 290.49 9.6
-1 -8 -11 8.82 1.84
-1 -8 -11 13.3 3.64
1 8 12 -0.95 1.34
4 -8 -4 5.57 2.27
-1 -8 -12 2.06 1.08
-1 -8 -13 5.03 2.46
1 8 13 -0.34 1.26
-7 0 -2 15.83 3.59
-1 -9 6 3.76 2.19
1 9 -5 1.51 1.26
-1 -9 5 3.78 1.89
4 -8 -3 17.41 3.52
-1 -9 4 4.86 1.93
1 9 -4 1.46 1.38
-1 -9 3 9.45 2.45
1 8 14 0.42 1.25
1 9 -3 7.36 2.62
1 9 -2 20.73 4.29
-1 -9 2 18.02 3.12
-4 8 2 0.7 1.73
1 9 -1 50.91 6.26
-1 -9 1 49.24 4.77
-1 -9 1 50.62 4.37
7 0 2 9.23 2.9
1 9 0 39.36 5.48
-1 -9 0 30.44 3.59
-1 -9 -1 14 2.28
-4 8 0 12.45 3.41
1 9 1 13.38 2.31
1 9 1 13.11 3.19
1 9 2 4.96 2.2
-1 -9 0 36.29 3.69
-1 -9 -2 2.95 1.61
-1 -9 -2 3.89 1.31
-1 -9 -3 33.84 4.92
-4 8 -1 -0.54 1.16
-1 -9 -3 32.75 3.47
-1 -9 -4 3.73 1.96
1 9 4 10.79 2.36
-7 0 -3 33.63 5.16
1 9 5 97.21 7.12
-1 -9 -5 104.41 8.64
-1 -9 -5 100.55 6.04
-4 8 -3 4.98 2.21
-1 -9 -6 50.33 4.29
1 9 6 43.84 4.95
1 9 7 101.09 7.62
-1 -9 -4 8.14 1.85
-1 -9 -7 107.76 6.26
1 9 8 13.1 3.13
-1 -9 -8 6.85 2.67
4 -7 -9 30.51 4.34
-1 -9 -9 111.85 6.48
1 9 9 103.61 8.25
-1 -9 -9 115.8 9.96
7 0 3 29.24 5.02
-1 -9 -10 14.71 3.95
1 9 10 14.54 3.33
1 9 11 3.89 2.14
4 -7 -7 0.14 1
-1 -9 -11 3.08 2.33
1 9 12 8.17 2.63
-1 -9 -12 7.23 2.93
-1 -9 -10 14.12 2.43
1 9 13 -2.79 1.9
-1 -9 -13 0.53 1.8
1 10 -3 3.16 2.12
4 -7 -6 4.71 2.08
-1 -10 2 5.2 1.71
1 10 -2 7.16 2.81
1 10 -1 0.96 1.45
7 0 4 2.54 1.89
-1 -10 0 23.52 3.29
1 10 0 25.63 4.84
1 10 1 2.71 1.85
-4 7 4 3.55 2.16
1 10 2 -1.38 1.07
1 10 2 -0.5 1.2
-1 -10 -2 0.82 0.97
-1 -10 1 2.24 1.2
-1 -10 -3 -0.55 1.45
1 10 3 -0.38 1.22
-1 -10 -3 -0.55 1.28
4 -7 -3 10.79 2.78
-1 -10 -4 11.04 2.24
1 10 4 13.97 2.81
1 10 5 9.44 2.57
-7 0 -4 1.25 1.59
-1 -10 -5 3.96 2.02
-1 -10 -6 3.98 2.35
1 10 6 0.32 1.16
4 -7 -2 2.29 1.56
-1 -10 -7 2.48 1.63
-1 -10 -7 5.97 1.73
1 10 7 4.42 1.95
-1 -10 -5 4.67 1.62
1 10 8 74.84 7.23
-1 -10 -8 85.65 6.02
1 10 9 8.53 2.64
4 -7 -1 3.67 1.82
-1 -10 -9 14.08 2.65
-1 -10 -10 22.71 3.26
-1 -10 -10 26.59 5.27
7 0 5 24.78 4.54
-1 -10 -11 16.42 4.46
1 10 11 16.21 3.83
-1 -10 -11 18.62 2.98
-4 7 -1 5.62 2.04
-1 -11 3 6.36 2.01
-1 -11 2 1.83 1.11
-1 -11 1 2.99 1.41
1 10 10 29.66 4.98
-1 -11 0 5.98 1.98
1 11 0 2.7 2.43
1 11 1 1.03 1.65
-4 7 -2 2.49 1.5
1 11 2 2.42 1.74
-1 -11 -2 0.21 1.11
-1 -11 -3 0.67 1.08
-7 0 -5 27.07 4.61
1 11 3 -0.22 1.29
1 11 4 0.59 1.08
-1 -11 -4 1.21 1
-4 7 -4 -0.16 0.77
1 11 5 20.19 3.75
-1 -11 -5 17.2 4.25
-1 -11 -5 15.73 2.88
1 11 3 -0.34 1.09
1 11 6 5.11 2.16
-1 -11 -6 2.13 1.22
-1 -11 -7 2.54 2.14
-4 7 -6 8.94 2.74
-1 -11 -7 6.11 1.8
1 11 8 0.87 1.22
-1 -11 -8 5.03 2.58
7 0 6 19.21 4.08
-1 -11 -9 -1.05 1.74
1 11 9 2.77 1.87
-1 -11 -9 -0.02 0.91
4 -6 -9 -0.28 1.25
-1 -11 -10 19.14 4.69
-1 -11 -10 18.2 3.13
-1 -11 -11 14.12 2.85
-1 -11 -8 3.54 1.54
1 12 5 -2.9 1.71
1 12 6 1.41 1.51
1 12 7 3.1 1.84
4 -6 -8 35.65 5.34
-2 11 4 10.38 3.26
-2 11 3 5.81 2.67
2 -10 -8 4.85 2.47
-7 0 -6 25.04 4.51
-2 10 7 -0.22 1.24
2 -10 -7 2.63 1.86
2 -10 -7 -0.68 1.14
4 -6 -7 10.72 2.9
2 -10 -6 16.1 4.09
2 -10 -6 23.59 3.69
2 -10 -5 78.09 6.73
2 -10 -8 -1.49 1.14
2 -10 -5 74.71 8.45
-2 10 4 34.86 5.35
2 -10 -4 24.16 4.83
4 -6 -6 2.01 1.3
2 -10 -4 33.27 4.46
-2 10 3 -0.2 1.24
2 -10 -3 4.59 1.89
7 0 7 13.57 3.38
-2 10 2 -1.93 1.9
2 -10 -2 -0.07 0.94
-2 10 2 2.03 1.62
4 -6 -5 29.62 4.15
-2 10 1 2.37 1.47
2 -10 -1 1.55 1.63
2 -10 0 -0.16 1.15
-2 10 3 3.11 2.02
2 -10 1 1.97 1.38
2 -10 2 4.14 1.66
2 -9 -10 2.93 2.2
4 -6 -4 2.28 1.42
2 -9 -9 0.1 0.9
2 -9 -9 2.86 1.94
-2 9 9 3.01 1.9
-7 0 -7 22.68 4.31
2 -9 -8 10.44 3.5
2 -9 -8 12.63 2.72
2 -9 -7 10.4 3.43
4 -6 -3 20.87 3.64
2 -9 -7 12.75 2.73
2 -9 -6 0.48 0.99
-2 9 6 1.89 1.65
-2 9 8 12.57 3.4
-2 9 5 5.65 2.27
2 -9 -5 5.32 1.91
2 -9 -5 0.97 1.43
-4 6 2 144.08 10.08
-2 9 4 43.04 5.75
2 -9 -4 39.28 5.74
-2 9 3 35.1 5.05
-7 0 -8 5.44 2.24
2 -9 -3 40.31 4.68
2 -9 -3 37.44 5.55
-2 9 2 7.98 2.51
4 -6 -1 3.37 1.46
-2 9 2 9.83 3.2
-2 9 1 16.88 3.42
-2 9 1 16.84 3.89
-2 9 3 43.07 6.05
-2 9 0 1.65 1.21
-2 9 0 0.71 1.42
2 -9 0 2.88 1.52
-4 6 0 0.43 0.89
2 -9 1 -0.52 1.15
-2 9 -2 2.07 1.74
2 -9 2 1.38 1.2
7 0 8 5.62 2.47
2 -9 3 7.34 1.99
2 -9 4 10.81 2.43
2 -8 -11 3.74 2.27
-4 6 -1 21.63 3.56
-2 8 10 7.03 2.47
2 -8 -10 5.43 1.71
-2 8 9 37.42 5.6
-2 9 -3 8.69 2.94
2 -8 -9 35.29 4.06
-2 8 8 -0.55 1.19
2 -8 -8 -0.31 0.67
-4 6 -2 6.87 2.09
2 -8 -7 3.33 1.3
-2 8 6 6.37 2.3
2 -8 -6 4.59 2.34
-7 0 -9 3.08 1.79
2 -8 -5 0.68 1.07
-2 8 5 0.51 1.17
2 -8 -5 -2.03 1.59
-4 6 -3 5.46 1.86
2 -8 -4 3.87 1.74
-2 8 4 2.66 1.77
-2 8 3 4.33 1.56
2 -8 -6 3.54 1.41
2 -8 -3 5.83 1.93
2 -8 -2 46.06 5.79
-2 8 2 52.3 6.15
-4 6 -4 2.42 1.16
2 -8 -2 62.54 5.61
2 -8 -1 17.11 3.01
-2 8 1 18.51 3.38
-7 0 -10 1.34 1.45
2 -8 0 77.52 6.25
-2 8 0 64.42 5.96
-2 8 0 71.35 7.27
4 -6 5 3.19 1.72
-2 8 -1 31.38 3.9
2 -8 1 34.73 4.18
-2 8 -1 34.86 5.21
-2 8 1 17.89 3.8
2 -8 2 20.72 3.27
-2 8 -3 12.73 3.27
2 -8 3 13.26 2.49
4 -5 -11 3.24 1.86
2 -8 4 13.75 2.6
2 -8 5 1.48 1.1
-2 8 -5 1.6 1.74
-7 -1 6 -0.09 0.94
-2 7 12 7.65 2.84
2 -7 -12 3.04 2.37
-2 7 11 0.71 1.26
4 -5 -9 28.45 4.76
-2 7 10 14.7 3.49
2 -7 -10 13.16 3.54
2 -7 -10 8.43 1.91
-2 8 -6 3.39 1.8
-2 7 9 26.98 4.62
2 -7 -9 30.72 3.65
-2 7 8 12.48 3.15
4 -5 -8 4.72 1.65
2 -7 -8 14.25 2.51
-2 7 7 22.6 4.08
2 -7 -7 26.6 4.41
7 1 -5 2.14 1.57
-2 7 6 15.95 3.37
2 -7 -6 11.94 2.25
2 -7 -6 16.39 3.49
4 -5 -7 14.56 3.41
-2 7 5 24.17 3.91
2 -7 -5 20.63 3.72
2 -7 -5 25.34 3.36
2 -7 -7 27.18 3.49
2 -7 -4 2.2 1.39
-2 7 4 3.03 1.44
2 -7 -4 4.65 1.65
4 -5 -6 1.91 1.42
-2 7 3 17.85 3.26
2 -7 -3 20.53 3.64
2 -7 -3 21.38 3.09
-7 -1 5 0.87 1.58
2 -7 -2 8.26 2.01
-2 7 2 6.17 1.92
2 -7 -1 83.33 7.12
4 -5 -5 14.07 2.75
-2 7 1 91.52 6.94
-2 7 1 85.78 7.3
-2 7 0 -1.21 1.87
2 -7 -2 6.81 2.26
2 -7 0 1.22 1.27
-2 7 -1 298.12 13.75
-2 7 -1 299.42 11.93
-4 5 3 5.6 2.27
-2 7 -2 70.01 5.31
2 -7 2 66.87 5.45
-2 7 -2 70.01 6.82
7 1 -4 71.77 7.64
2 -7 3 28.8 3.31
-2 7 -3 33.44 4.76
-2 7 -4 23.4 4.07
4 -5 -2 -1.03 1.4
2 -7 4 23.52 3.24
-2 7 -5 2.74 1.63
2 -7 5 0.25 0.81
2 -7 3 24.14 3.35
-2 7 -6 1.91 1.5
2 -7 6 1.72 1.15
2 -7 6 0.99 0.96
4 -5 -1 81.98 6.41
-2 7 -7 1.41 1.09
2 -7 8 5.02 1.97
2 -7 9 0.2 0.95
7 1 -4 74.36 9.16
2 -6 -13 2.84 2.03
2 -6 -12 4.45 2.26
-2 6 12 1.12 1.47
-4 5 0 5.96 1.69
2 -6 -11 2.01 1.61
2 -6 -10 -0.09 0.6
-2 6 10 0.54 1.38
-2 6 13 2.38 1.84
2 -6 -9 9.31 2.79
-2 6 9 16.52 3.51
2 -6 -9 13.93 2.33
4 -5 1 4.3 1.47
2 -6 -8 63.09 4.89
-2 6 8 67.38 6.59
2 -6 -7 35.73 4.82
-7 -1 4 72.53 7.74
-2 6 7 44.35 5.23
-2 6 6 11.89 2.68
2 -6 -6 12.06 2.29
-4 5 -2 16.28 3.01
2 -6 -5 8.89 1.92
2 -6 -5 6.86 1.72
-2 6 5 5.15 1.99
2 -6 -7 43.92 4.15
2 -6 -4 114.1 6.74
2 -6 -4 108.82 5.98
-2 6 4 100.58 7.24
4 -5 3 54.18 4.18
2 -6 -3 20.86 1.25
2 -6 -3 17.05 3.14
-2 6 3 24.95 3.65
7 1 -3 11.02 3.48
2 -6 -2 76.92 4.48
2 -6 -2 71.32 6.04
2 -6 -2 65.17 2.18
-4 5 -4 1.53 1.18
-2 6 2 74.45 6.05
-2 6 1 11.31 2.28
-2 6 1 16.25 2.98
2 -6 -3 20.54 2.88
2 -6 -1 16.7 2.02
2 -6 -1 15.78 1.24
2 -6 -1 17.95 2.81
4 -5 5 12.34 2.4
-2 6 0 132.59 8.36
-2 6 0 136.67 7.74
2 -6 0 135.04 4.71
7 1 -3 8.67 2.76
-2 6 -1 14.97 2.94
2 -6 1 18.5 2.77
2 -6 1 14.77 1.86
-4 5 -6 3.39 1.69
-2 6 -1 18.7 2.85
-2 6 -2 540.23 17.32
-2 6 -2 546.41 14
2 -6 0 136.72 5.67
2 -6 2 562.41 11.16
2 -6 2 546.29 12.29
-2 6 -3 95.42 5.64
4 -5 7 68.61 5.65
2 -6 3 99.6 6.27
2 -6 3 98.92 4.85
2 -6 3 105.9 5.96
-7 -1 3 5.35 2.25
2 -6 4 20.12 2.33
-2 6 -4 22.23 3.73
2 -6 4 19.63 2.82
-4 5 -8 7.2 2.38
-2 6 -5 4.42 1.81
2 -6 5 2.26 1.11
2 -6 5 5.37 1.69
-2 6 -4 19.34 2.48
2 -6 6 -1.89 1.02
2 -6 6 0.19 0.8
-2 6 -7 1.3 1.21
4 -5 9 24.58 4.26
-2 6 -8 10.09 2.8
2 -6 8 4.56 1.93
2 -6 9 2.03 1.65
7 1 -2 13.05 3.32
-2 5 14 -3.09 1.89
2 -5 -13 1.52 1.61
-2 5 13 0.05 1.24
4 -4 -10 4.59 2.03
2 -5 -12 17.4 4.07
-2 5 11 11.93 3.11
2 -5 -11 6.91 2.67
-2 6 -9 2.64 1.62
2 -5 -10 3.45 1.17
2 -5 -10 4 1.95
-2 5 9 36.35 4.91
4 -4 -8 54.85 6.08
2 -5 -9 25.79 4.25
-2 5 8 9.65 2.35
2 -5 -8 5.48 2.1
-7 -1 2 13.99 3.5
2 -5 -7 132.93 8.83
2 -5 -7 135.68 6.76
-2 5 7 141.29 8.76
4 -4 -7 44.87 4.4
-2 5 6 26 3.76
2 -5 -6 23.43 3.6
-2 5 5 2.99 1.44
2 -5 -8 7.8 1.74
2 -5 -5 3.93 1.34
2 -5 -4 10.39 2.36
-2 5 4 12.33 2.42
4 -4 -6 10.26 2.09
2 -5 -4 8.93 1.84
2 -5 -4 14.38 2.18
2 -5 -3 26.17 2.79
7 1 -2 14.14 3.86
-2 5 3 30.45 3.71
2 -5 -3 31.98 3.35
2 -5 -3 32.39 2.02
4 -4 -5 -1.04 1.41
2 -5 -2 64.65 2.74
2 -5 -2 61.44 5.22
2 -5 -2 71.69 5.03
2 -5 -3 29.76 3.67
2 -5 -1 522.61 14.85
2 -5 -1 513.71 13.29
-2 5 1 516.7 14.38
4 -4 -4 14.57 3.02
2 -5 -1 490.27 6.69
-2 5 0 19.28 3.02
2 -5 0 22.03 2.32
-7 -1 1 5.51 2.12
-2 5 0 19.64 2.78
2 -5 0 17.94 1.61
-2 5 -1 40.98 3.91
-4 4 3 91.34 7.45
2 -5 1 38.63 3.07
2 -5 1 38.4 2.71
-2 5 -1 38.5 4.23
2 -5 0 18.35 2.71
-2 5 -2 72.1 4.85
-2 5 -2 86.11 6.35
2 -5 2 75.2 4.25
-4 4 1 8.31 1.89
2 -5 3 274.5 8.92
-2 5 -3 267.64 8.97
2 -5 3 274.4 8.14
7 1 -1 4.52 2.22
-2 5 -3 276.36 11.46
2 -5 4 72.67 5.01
-2 5 -4 72.14 4.55
-4 4 1 7.64 2.09
2 -5 4 68.38 4.22
2 -5 4 71.39 5.02
-2 5 -5 46.38 4.85
2 -5 3 269.32 9.62
-2 5 -5 33.08 2.92
2 -5 5 39.55 3.37
2 -5 5 35.76 3.83
-4 4 -1 87.77 6.86
2 -5 6 21.33 3.21
2 -5 6 19.02 2.55
-2 5 -7 18.74 3.34
7 1 0 77.14 8.44
2 -5 7 16.06 2.23
-2 5 -8 0.66 0.97
2 -5 8 0.79 0.94
4 -4 2 12.84 2.47
-2 5 -9 6.55 2.09
2 -5 10 2.93 1.66
-2 5 -10 -0.91 1.16
2 -5 7 18.13 3.18
-2 4 13 23.36 4.21
-2 4 12 5.79 2.1
2 -4 -12 8.33 2.6
-4 4 -3 8.06 2.13
-2 4 11 69.82 6.68
-2 4 10 54.38 5.72
2 -4 -10 51.47 5.95
-7 -1 0 68.56 7.27
2 -4 -9 61.48 4.14
-2 4 9 63.96 5.95
-2 4 9 62.57 4.63
-4 4 -5 -0.06 0.78
2 -4 -8 65.53 4.36
-2 4 8 61.59 5.69
-2 4 8 61.22 4.17
-2 4 10 60.83 4.89
2 -4 -7 130.61 8.19
2 -4 -7 136.23 6.32
-2 4 7 128.48 5.5
-4 4 -6 37.61 4.26
2 -4 -6 -0.06 0.31
-2 4 6 0.48 0.4
2 -4 -6 -0.97 0.89
7 1 1 33.21 5.47
2 -4 -5 114.53 5.83
2 -4 -5 108.71 4.78
2 -4 -5 101.36 6.63
4 -4 7 51.07 4.88
-2 4 5 100.68 6.62
2 -4 -4 79.29 5.67
2 -4 -4 75.8 3.71
2 -4 -6 -0.08 0.72
2 -4 -4 76.99 4.78
-2 4 4 74.65 5.56
2 -4 -3 69.44 4.58
-4 4 -8 33.92 4.48
2 -4 -3 69.96 3.29
2 -4 -3 67.96 4.54
2 -4 -3 64 1.77
-7 -1 -1 37.4 5.43
2 -4 -2 62.55 3
2 -4 -2 71.26 4.4
-2 4 2 60.12 4.76
-4 4 -9 3.39 1.77
2 -4 -2 58.85 4.58
2 -4 -1 55.32 4.39
2 -4 -1 59.53 3.91
-2 4 3 74.12 5.42
-2 4 0 10.86 2.03
-2 4 0 10.92 1.77
2 -4 0 10.3 1.65
4 -4 10 17.17 3.59
2 -4 0 9.42 1.94
-2 4 0 12.13 2.11
2 -4 1 35.45 3.28
-7 -1 -2 27.82 4.58
-2 4 -1 35.17 3.38
2 -4 1 36.21 2.96
-2 4 -1 32.61 3.45
-4 3 10 2.7 1.82
2 -4 2 30.07 2.48
-2 4 -2 28.75 2.89
-2 4 -2 34.89 3.63
2 -4 1 37.45 2.44
2 -4 3 73.42 4.32
-2 4 -3 72.36 4.44
2 -4 3 70.73 4.64
4 -3 -8 35.52 4.71
-2 4 -3 69.24 5.2
-2 4 -4 110.5 5.31
-2 4 -4 116.29 6.87
7 1 2 25.36 4.84
2 -4 4 124.06 5.6
2 -4 4 113.41 5.79
-2 4 -5 11.5 2.31
4 -3 -7 44.41 4.58
2 -4 5 11.55 1.92
2 -4 5 10.33 1.76
-2 4 -5 10.47 1.61
2 -4 4 116.85 5.94
2 -4 6 0.61 0.59
2 -4 6 -0.15 0.93
-2 4 -6 -0.65 0.67
4 -3 -6 37.23 4.04
-2 4 -7 4.89 1.75
2 -4 7 3.26 1.49
2 -4 7 4.45 1.22
-7 -1 -3 -0.23 1.44
2 -4 8 6.98 2.12
2 -4 9 6.79 2.3
-2 4 -9 2.55 1.57
-4 3 5 127 8.56
2 -4 10 9.49 2.83
-2 4 -11 -0.12 0.97
2 -4 11 1.39 1.42
-2 4 -8 9.1 2.3
2 -3 -13 1.65 1.79
-2 3 13 -2.76 1.54
2 -3 -12 11.26 3.19
-4 3 4 56.95 5.75
-2 3 12 10.54 2.65
-2 3 11 83.9 6.46
-2 3 11 92.37 7.31
7 1 3 -1.15 2.11
-2 3 10 140.62 7.83
2 -3 -10 143.68 9.48
-2 3 10 138.69 8.58
-4 3 3 162.99 9.48
2 -3 -9 154.57 9.28
2 -3 -9 150.52 5.88
-2 3 9 151.68 8.67
2 -3 -11 84.38 7.72
2 -3 -8 103.85 7.29
2 -3 -8 95.59 4.83
-2 3 8 84.96 6.33
4 -3 -1 20.05 2.58
2 -3 -7 2.22 1.26
-2 3 7 1.5 1.14
2 -3 -7 1.45 0.81
7 1 4 16.44 3.86
2 -3 -6 3.98 0.91
2 -3 -6 4.31 1.4
2 -3 -6 3.12 1.07
4 -3 0 31.21 3.88
-2 3 6 3.46 1.01
2 -3 -5 40.74 3.89
2 -3 -5 41.05 3.11
-2 3 6 4.13 1.53
-2 3 5 42.63 4.07
2 -3 -5 41 2.53
2 -3 -4 332.73 10.58
-4 3 -1 22.75 2.65
-2 3 4 324.34 10.72
-2 3 4 324.99 7.22
2 -3 -4 317.6 6.29
-7 -1 -4 18.64 3.84
2 -3 -3 37.08 2.6
-2 3 3 38.21 3.61
2 -3 -3 37.24 1.96
4 -3 3 141.63 8.05
2 -3 -2 11.11 1.82
2 -3 -2 7.55 1.59
2 -3 -2 11.18 1.06
2 -3 -3 31.4 3.1
2 -3 -1 1611.21 20.04
-2 3 1 1626.79 22.48
2 -3 0 635.71 12.29
4 -3 4 3.71 1.42
-2 3 0 648.49 13.74
2 -3 0 638.79 13.19
-2 3 0 607.72 12.71
7 1 5 33.27 5.21
-2 3 -1 367.67 10.11
-2 3 -1 365.94 10.14
2 -3 1 368.98 9.32
4 -3 5 51.74 4.94
-2 3 -2 322.15 9.02
-2 3 -2 329 9.86
2 -3 3 8.8 1.41
-2 3 -1 346.75 9.71
-2 3 -3 10.63 1.92
2 -3 3 10.46 1.68
-2 3 -4 22.81 2.35
-4 3 -7 16.5 2.85
2 -3 4 23.51 2.51
2 -3 4 24 2.5
-2 3 -5 7.76 1.68
-7 -1 -5 25.97 4.46
2 -3 5 9.3 1.59
2 -3 5 8.48 1.55
-2 3 -5 7.12 1.32
-4 3 -8 26.55 3.41
2 -3 6 167.02 7.88
2 -3 6 161.32 6.84
2 -3 6 158.21 6.22
2 -3 5 9.8 1.76
-2 3 -7 27.67 2.37
-2 3 -7 34.28 3.86
2 -3 7 27.62 2.6
-4 3 -9 37.5 4.67
2 -3 8 37.89 2.89
2 -3 8 43.8 4.76
-2 3 -8 36.7 4.23
-7 -1 -6 89.82 8.14
2 -3 9 47.35 5.25
-2 3 -10 5.18 1.93
2 -3 10 6.33 2.37
4 -3 10 11.43 2.91
2 -3 11 3.5 1.86
-2 3 -12 4.06 1.77
2 -3 12 4.19 2.2
-2 3 -9 48.22 5.17
2 -2 -13 0.17 1.1
-2 2 13 2.33 1.7
-2 2 12 -0.65 0.99
4 -2 -12 0.96 1.23
-2 2 12 2.37 1.56
2 -2 -11 13.76 3.13
-2 2 11 20.45 3.48
7 1 6 90.51 8.58
-2 2 10 150.54 8.45
2 -2 -10 152.58 9.44
-2 2 10 163.44 8.81
-4 2 9 8.5 2.42
-2 2 9 329.77 11.7
2 -2 -9 334.81 7.84
-2 2 9 334.65 12.17
-2 2 11 22.83 3.47
2 -2 -8 45.95 3.05
-2 2 8 49.2 4.51
-2 2 8 47.68 4.16
4 -2 -8 8.56 2.26
-2 2 7 126.77 6.28
-2 2 7 127.17 6.95
2 -2 -6 22.37 2.61
7 1 7 10.51 2.99
-2 2 6 26.12 3.09
-2 2 6 26.06 2.66
2 -2 -5 4.8 1.02
-4 2 7 3.68 1.45
2 -2 -5 3.62 1.09
2 -2 -5 5.49 1.4
-2 2 5 3.69 1.04
2 -2 -6 23.69 2.94
2 -2 -4 21.69 2.24
-2 2 4 17.77 1.86
-2 2 4 22.44 2.63
4 -2 -6 2.76 1.24
2 -2 -3 110.16 4.71
-2 2 3 120.2 5.02
2 -2 -3 111.79 3.95
-7 -1 -7 8.58 2.84
2 -2 -3 107.83 5.17
-2 2 3 113.9 5.79
2 -2 -2 15.38 1.86
4 -2 -5 8.85 1.96
2 -2 -2 16.22 1.44
-2 2 2 13.04 1.95
2 -2 -1 32.65 2.56
-2 2 3 118.83 4.46
2 -2 -1 27.15 2.66
-2 2 1 29.09 2.75
2 -2 -1 28.03 1.99
-4 2 4 879.74 21.13
2 -2 0 967.52 14.93
-2 2 0 996.73 15.55
-2 2 0 1011.31 15.89
-7 -1 -8 10.28 2.86
-2 2 -1 489.3 10.34
-2 2 -1 510.45 10.85
2 -2 1 492.08 10.63
-4 2 3 22.17 3.56
-2 2 -1 491.24 11.09
-2 2 -2 67.42 4.1
-2 2 -2 68.57 3.94
-2 2 0 968.62 14.04
-2 2 -2 67.74 3.85
2 -2 2 66.9 4.02
-2 2 -3 1028.84 15.15
-4 2 2 20.76 3.15
-2 2 -3 1018.5 15.53
-2 2 -4 21.37 2.2
-2 2 -4 19.45 2.35
7 1 8 7.08 2.6
-2 2 -5 13.84 2.09
2 -2 5 15.12 2.09
-2 2 -5 13.01 1.7
-4 2 1 359.03 13.03
2 -2 5 15.15 2.03
-2 2 -6 27.89 3.09
-2 2 -6 26.89 2.37
2 -2 4 24.86 2.54
2 -2 6 28.1 3.07
-2 2 -7 9.34 2.05
2 -2 7 14.53 2.47
-4 2 0 107.61 7.07
-2 2 -7 9.55 1.42
2 -2 7 16.25 1.83
-2 2 -8 175.81 5.75
-7 -1 -9 3.4 1.58
-2 2 -8 161.1 8.33
2 -2 8 167.59 5.6
2 -2 9 23.4 3.58
-4 2 -1 83.59 6.16
2 -2 10 8.39 2.39
-2 2 -10 10.17 2.4
-2 2 -11 5.27 1.85
2 -2 8 165.13 8.62
2 -2 12 -0.39 1.78
-2 2 -12 2.08 1.35
2 -2 13 8.05 2.84
-4 2 -2 49.05 3.38
-2 1 14 9.85 3
2 -1 -13 9.36 2.77
-2 1 13 11.63 3.12
7 1 9 3.87 2.3
-2 1 12 29.4 4.57
-2 1 11 10.02 2.25
-2 1 11 8.02 2.34
-4 2 -4 12.93 1.93
2 -1 -10 36.39 4.48
-2 1 10 34.79 4.33
-2 1 10 38.54 4.01
2 -1 -12 27.5 4.48
2 -1 -9 264.99 11.28
-2 1 9 273.59 10.27
-2 1 8 74.32 5.48
-4 2 -5 19.93 2.99
2 -1 -8 81.41 5.88
-2 1 7 84.57 5.51
-2 1 7 83.05 5.26
-7 -1 -10 3.66 1.82
2 -1 -6 158.49 7.08
2 -1 -6 162.05 7.19
-2 1 6 149.69 6.79
-4 2 -6 106.04 6.15
2 -1 -5 699.07 13.86
2 -1 -5 702.51 14.02
-2 1 5 682.72 13.85
2 -1 -7 93.08 5.91
2 -1 -4 62.88 3.83
-2 1 4 69.52 3.52
2 -1 -4 58.7 3.84
-4 2 -8 32.26 3.7
-2 1 4 67.97 3.92
2 -1 -4 67.43 3.73
2 -1 -3 654.61 11.92
-7 -1 -11 3.96 1.92
2 -1 -3 671.58 10.79
-2 1 3 684.13 13.05
-2 1 3 672.08 11.45
-4 2 -9 5.25 1.86
2 -1 -2 1103.47 14.53
-2 1 2 1177.63 12.58
-2 1 2 1159.88 16.52
2 -1 -3 664.91 11.33
2 -1 -2 1103.57 13.08
2 -1 -2 1142.92 13.66
2 -1 -1 120.69 5.15
-4 2 -10 14.54 2.93
-2 1 1 123.36 3.91
2 -1 -1 112.69 5.25
-2 1 1 127.91 5.31
-7 -2 5 2.26 1.53
2 -1 0 902.84 14.25
-2 1 0 877.17 13.79
-2 1 0 857.59 10.32
4 -2 11 7.91 2.55
2 -1 0 901.2 10.46
-2 1 -1 862.09 10.97
-2 1 -1 886.11 14.33
2 -1 -1 112.89 4.22
-2 1 -1 868.07 10.5
2 -1 1 866.35 13.56
2 -1 1 858.62 13.75
4 -1 -12 2.08 1.86
2 -1 2 58.85 3.19
-2 1 -2 66.22 3.68
2 -1 2 63.29 3.6
7 2 -4 0.37 1.16
2 -1 2 60.89 3.63
2 -1 2 55.99 3.56
-2 1 -3 109.01 4.35
4 -1 -10 7.16 2.24
2 -1 3 114.13 4.9
2 -1 3 113.63 5.15
2 -1 3 111.16 4.85
-2 1 -2 59.23 2.97
-2 1 -4 11.61 1.57
2 -1 4 9.45 1.46
-2 1 -4 14.11 1.73
-4 1 9 79.88 7.06
2 -1 5 375.9 9.38
2 -1 5 377.04 9.67
-2 1 -5 379.17 9.64
-7 -2 4 1.52 1.47
-2 1 -6 34.73 2.66
2 -1 6 37.78 3.35
2 -1 6 34.15 3.03
-4 1 8 6.59 2.02
-2 1 -7 23.68 2.2
-2 1 -7 27.77 3.09
2 -1 8 18.62 2.58
-2 1 -6 35.15 3.25
-2 1 -8 11.32 2.25
2 -1 9 60.23 2.81
-2 1 -9 63.54 5.31
-4 1 7 1.07 0.92
-2 1 -10 56.33 5.26
2 -1 10 54.43 5.52
2 -1 11 10.34 2.7
7 2 -3 70.42 7.59
2 -1 12 -0.48 1.08
-2 1 -12 0.38 1.04
2 -1 13 -0.5 1.8
4 -1 -5 176.63 7.94
2 0 -13 5.52 2.59
-2 0 13 2.8 1.85
2 0 -12 32.71 4.8
-2 1 -11 6.48 2.09
2 0 -11 11.58 2.81
-2 0 11 14.75 3.09
-2 0 10 1.32 0.83
4 -1 -4 108.28 5.75
2 0 -10 0.33 0.87
2 0 -10 0.26 1.09
-2 0 9 109.51 6.07
7 2 -3 68.72 8.6
2 0 -9 113.79 6.94
2 0 -8 13.98 2.35
-2 0 8 13.3 2.07
4 -1 -3 1104.84 20.72
-2 0 7 12.39 1.93
-2 0 7 15.68 2.59
2 0 -7 13.59 2.13
-2 0 9 118.7 7.71
-2 0 6 128.21 6.62
2 0 -6 127.33 5.8
-2 0 6 118.12 5.55
4 -1 -2 14.56 1.84
2 0 -5 38.09 2.87
-2 0 5 41.3 3.16
-2 0 5 40.44 3.45
-7 -2 3 63.31 6.94
-2 0 4 1423.82 19.03
-2 0 4 1407.8 17.7
2 0 -4 1375.74 16.86
4 -1 -1 44.08 2.81
-2 0 4 1411.17 15.73
-2 0 3 36.41 2.2
2 0 -3 38.02 3.02
2 0 -4 1383.25 15.65
2 0 -3 41.82 2.96
-2 0 3 34.48 2.69
-2 0 3 34.55 2.83
-4 1 0 87 3.5
2 0 -2 70.58 3.84
2 0 -2 71.77 2.91
-2 0 2 73.68 2.62
7 2 -2 80.27 7.94
2 0 -2 74.27 3.75
-2 0 2 76.45 3.91
2 0 -2 70.83 3.6
4 -1 1 138.17 7.89
-2 0 1 152.87 5.33
-2 0 1 146.37 2.8
2 0 -1 148.43 5.31
-2 0 2 76.99 3.85
2 0 -1 158.05 5.21
2 0 0 377.16 4.44
-2 0 0 368.51 4.12
4 -1 2 29.96 3.69
-2 0 0 381.32 8.5
2 0 0 370.34 8.28
2 0 0 374.34 8.22
7 2 -2 78.79 8.9
2 0 1 54.44 1.91
-2 0 -1 63.97 3.76
-2 0 -1 57.38 3.29
-4 1 -3 308.94 8.49
-2 0 -1 63.05 1.82
2 0 1 54.25 3.36
-2 0 -2 1325.24 17.46
-2 0 -1 59.37 1.91
-2 0 -2 1340.44 16.03
2 0 2 1356.4 16.18
-2 0 -2 1347.75 10.72
-4 1 -4 26.1 2.41
-2 0 -3 344.85 9.31
-2 0 -3 369.42 8.42
-2 0 -3 352.98 6.68
-7 -2 2 68.26 7.1
2 0 3 335.33 6.88
2 0 3 346.99 8.4
-2 0 -4 77 3.6
-4 1 -5 24.7 2.56
2 0 4 77.9 3.79
2 0 4 78.39 4.13
2 0 4 77.78 4.3
2 0 3 348.38 8.77
2 0 5 11.99 1.69
2 0 5 15.49 2.01
-2 0 -5 10.77 1.53
4 -1 6 15.49 2.77
-2 0 -6 1050.03 14.4
2 0 6 1032 16.2
-2 0 -7 71 3.79
7 2 -1 -0.78 1.27
2 0 7 73.05 4.52
2 0 8 60.75 4.74
2 0 8 58.97 4.33
-4 1 -8 59.81 4.92
-2 0 -9 0.1 0.94
2 0 9 1.88 1.07
-2 0 -10 38.57 4.2
-2 0 -7 69.96 4.63
2 0 11 16.63 2.11
-2 0 -11 14.83 3
2 0 12 6.36 2.03
4 -1 9 43.19 4.56
2 0 13 4.37 1.98
-2 0 -13 2.27 1.38
2 0 14 -2.01 1.67
-7 -2 1 2.27 1.54
2 1 -13 5.3 2.32
2 1 -13 4.76 2.06
-2 -1 13 6.94 2.78
-4 1 -10 12.89 2.28
-2 -1 12 55.84 6.6
-2 -1 11 11.07 2.84
2 1 -11 11.99 2.6
-2 0 -14 0.59 1.29
-2 -1 10 20.6 3.63
2 1 -9 9.26 2.13
-2 -1 9 8.14 2.15
-4 1 -11 8.79 2.49
2 1 -8 15.93 2.53
-2 -1 7 246.92 10.41
-2 -1 7 277.85 5.3
7 2 -1 -0.18 1.45
2 1 -7 270.77 9.46
-2 -1 7 270.53 7.86
2 1 -6 361.41 11.47
4 0 -12 18.54 3.96
2 1 -6 361.7 7.63
2 1 -6 343.89 6.46
-2 -1 6 357.07 8.72
2 1 -7 255.06 5.13
2 1 -5 273.4 9.32
-2 -1 5 282.16 9.65
2 1 -5 280.79 8.04
4 0 -10 8.71 2.46
2 1 -5 259.18 6.61
2 1 -4 231.12 6.53
2 1 -4 218.44 7.9
7 2 0 2 1.54
-2 -1 4 216.64 7.92
2 1 -4 217.45 6.01
-2 -1 4 228.94 6.35
4 0 -8 4.75 1.85
-2 -1 3 1715.2 16.82
2 1 -3 1691.4 16.53
-2 -1 3 1773.11 21.22
-2 -1 4 222.66 6.71
-2 -1 3 1739.87 16.45
-2 -1 2 350.36 6.31
2 1 -2 358.04 5.98
4 0 -7 0.56 1.06
2 1 -2 358.4 8.73
-2 -1 2 360.86 9.08
2 1 -2 350.66 8.88
-7 -2 0 1.41 1.56
-2 -1 1 1105.47 13.73
2 1 -1 1084.8 13.01
-2 -1 1 1101.14 15.27
4 0 -6 242.84 9.63
2 1 -1 1087.02 8.01
2 1 0 95.6 4.55
-2 -1 0 91.52 3.93
-2 -1 1 1088.76 8.76
2 1 0 91.79 3.93
2 1 1 278.85 7.41
-2 -1 -1 277.51 7.58
4 0 -5 15.7 2.84
2 1 1 277.25 6.98
-2 -1 -2 77.87 2.07
-2 -1 -2 78.91 4.08
7 2 1 29.06 5.1
-2 -1 -2 77.84 3.73
2 1 2 74.91 3.89
2 1 2 74.58 2.2
4 0 -4 202.58 7.35
-2 -1 -3 26.19 2.19
2 1 3 33.71 2.6
-2 -1 -3 25.56 2.43
2 1 2 76.55 3.79
-2 -1 -4 24.65 1.93
-2 -1 -4 21.64 2.03
2 1 4 25.43 2.34
4 0 -3 10.85 1.6
2 1 4 22.18 1.84
-2 -1 -5 556.31 10.27
2 1 5 543.08 11.27
-7 -2 -1 37.42 5.31
-2 -1 -6 826.83 13.87
2 1 6 831.72 14.26
-2 -1 -7 1319.31 16.32
4 0 -2 418.94 8.4
-2 -1 -7 1292.21 19.03
-2 -1 -8 39.06 3.69
2 1 8 40.94 2.15
-2 -1 -5 545.08 10.14
2 1 9 15.75 1.18
-2 -1 -9 13.98 2.35
-2 -1 -9 13.13 1.08
4 0 -1 225.08 10.51
2 1 10 9.35 2.28
-2 -1 -10 11.26 2.3
2 1 11 7.73 2.1
7 2 2 7.04 2.73
-2 -1 -11 3.38 1.62
2 1 12 0.76 0.59
-2 -1 -12 3.23 1.59
-4 0 0 69.67 5.28
2 1 13 6.87 2.34
-2 -1 -13 11.53 2.82
2 1 14 2.11 1.67
2 1 11 5.89 1.37
-2 -1 -14 1.18 1.57
2 2 -12 -0.88 1.21
-2 -2 12 3.22 2
-4 0 -1 9 0.62
2 2 -11 7.19 2.28
2 2 -10 3.92 1.57
-2 -2 10 5.38 2.02
-7 -2 -2 11.5 2.81
2 2 -9 73.6 5.87
-2 -2 8 38.45 4.62
2 2 -8 37 3.92
-4 0 -2 176.68 3.83
-2 -2 7 30.63 1.66
-2 -2 7 32.69 4.02
2 2 -6 1.99 0.81
-2 -2 9 76.12 6.77
-2 -2 6 2.72 1.33
-2 -2 6 2.99 0.6
2 2 -6 2.1 0.5
-4 0 -3 181.94 4.78
2 2 -5 50.99 2.52
-2 -2 5 51.21 2.53
2 2 -5 45.88 3.46
7 2 3 75.43 7.96
2 2 -5 48.7 2.33
2 2 -4 530.29 12.85
-2 -2 4 519.62 8.24
4 0 4 82.71 5.95
2 2 -4 522.74 7.96
-2 -2 4 541.85 13.27
2 2 -4 518.13 8.3
2 2 -5 46.85 4.03
2 2 -3 112.47 3.93
2 2 -3 113.76 5.61
-2 -2 3 112 4.21
-4 0 -5 48.16 3.23
2 2 -3 105.28 3.66
-2 -2 3 105.54 5.56
-2 -2 3 118.42 5.05
-7 -2 -3 71.11 7.18
2 2 -2 1677.58 15.36
-2 -2 2 1617.17 15.52
-2 -2 2 1570.76 16.73
-4 0 -7 6.84 1.56
-2 -2 2 1678.89 20.92
2 2 -2 1651.68 15.15
2 2 -1 11.91 1.62
2 2 -2 1649.22 19.96
-2 -2 1 14.47 1.47
2 2 -1 12.31 1.37
-2 -2 1 14.3 1.39
4 0 8 179.85 8.96
2 2 -1 12.8 1.72
-2 -2 0 13.19 1.45
2 2 0 17.89 1.32
-7 -2 -4 11.09 3.03
2 2 0 18.74 1.46
-2 -2 0 12.04 1.66
2 2 0 18.25 1.98
-4 0 -9 9.47 2.03
2 2 1 974.11 9.22
2 2 1 1001.69 14.8
2 2 1 1001.05 13.84
2 2 0 18.14 1.71
2 2 1 974.68 12.83
-2 -2 -2 89.23 2.95
2 2 2 88.49 2.76
4 0 11 0.57 1.1
2 2 2 93.77 4.18
2 2 2 94.49 4.15
-2 -2 -2 83.89 4.06
7 2 4 6.66 2.31
-2 -2 -3 935.43 10.85
2 2 3 932.01 10.16
2 2 3 937.27 9.9
4 0 12 6.5 2.28
2 2 3 942.7 13.61
2 2 3 954.23 13.53
2 2 4 1017.93 12.18
-2 -2 -3 925.61 14.14
-2 -2 -4 1048.35 13.75
2 2 4 1022.1 14.66
2 2 4 1025.91 11.85
4 1 -12 6.13 2.44
-2 -2 -4 1010.71 15.55
-2 -2 -5 155.31 5.42
-2 -2 -5 143.19 5.28
7 2 5 0.47 1.14
2 2 5 165.28 5.98
2 2 5 160.38 5.44
-2 -2 -6 1401.04 18.09
-4 -1 10 12.42 3.3
2 2 6 1462.65 18.14
2 2 6 1408.42 13.59
2 2 7 628.17 8.82
2 2 5 161.46 4.71
-2 -2 -7 641.22 13.33
-2 -2 -7 648.87 8.92
2 2 7 672.09 12.98
4 1 -8 3.26 1.38
-2 -2 -8 273.02 5.48
2 2 8 265.81 8.67
2 2 8 266.08 5.47
-7 -2 -5 3.42 1.84
-2 -2 -9 175.22 8.18
-2 -2 -9 191.33 4.24
2 2 9 191.54 4.26
4 1 -7 6.15 1.65
2 2 9 200.95 8.37
-2 -2 -10 51.28 4.83
-2 -2 -10 57.45 2.17
-2 -2 -8 262.3 9.2
-2 -2 -10 53.76 4.87
2 2 10 54.61 3.8
2 2 11 4.92 1.61
4 1 -6 20.5 3.42
2 2 11 5.33 1.49
-2 -2 -11 5.01 1.51
2 2 12 0.6 1.17
7 2 6 22.01 4.24
-2 -2 -12 0.78 0.83
-2 -2 -13 2.31 1.56
2 2 13 2.66 1.12
4 1 -5 115.62 5.9
2 2 14 2.3 1.8
-2 -2 -14 1.28 1.33
2 2 15 -2.4 2.36
2 2 12 2.2 1.09
2 3 -12 12.42 3.04
-2 -3 11 -1.09 1.32
2 3 -11 0.65 0.95
4 1 -4 62.34 3.9
2 3 -10 9.8 2.54
-2 -3 9 6.72 2.23
2 3 -9 4.38 1.76
-7 -2 -6 25.99 4.39
-2 -3 8 15.93 3.12
-2 -3 7 394.38 14.35
2 3 -7 404.99 12.67
4 1 -3 78.78 5.85
-2 -3 6 167.54 4.5
-2 -3 6 166.44 4.68
2 3 -6 156.94 4.43
2 3 -8 14.96 2.73
-2 -3 5 133.63 4.09
-2 -3 5 120.1 3.89
2 3 -5 123.22 6.74
-4 -1 3 74.57 3.34
-2 -3 5 124.48 7.17
2 3 -5 128.67 6.29
2 3 -5 118.8 2.03
7 2 7 34.12 5.32
-2 -3 4 124.97 4.04
-2 -3 4 116.11 3.74
-2 -3 4 114.24 6.51
-4 -1 2 9.46 2.01
2 3 -4 106.77 2.59
2 3 -4 120.72 5.67
-2 -3 3 211.4 5.44
2 3 -4 114.35 6.08
-2 -3 3 211.47 5.01
2 3 -3 197.43 4.12
-2 -3 3 210.54 8.3
4 1 0 30.98 3.83
2 3 -3 207.1 6.86
2 3 -2 869.88 14.9
2 3 -2 843.62 13.06
-7 -2 -7 31.58 4.87
-2 -3 2 837.96 10.12
-2 -3 2 845.49 11.14
2 3 -2 795.81 9.2
4 1 2 42.65 4.28
-2 -3 2 830.94 14.23
2 3 -1 61.06 3.02
-2 -3 1 64.12 2.88
2 3 -2 822.55 10.99
2 3 -1 64.04 2.98
-2 -3 1 63.26 4.13
2 3 -1 56.89 3.61
-4 -1 -3 46.81 1.71
2 3 0 102.06 4.45
2 3 0 109.73 4.18
2 3 0 111.69 4.09
7 2 8 32.89 5.21
-2 -3 0 107.88 4.02
2 3 0 104.74 4.23
-2 -3 0 107.93 5.24
4 1 4 4.08 1.22
-2 -3 -1 444.63 8.34
2 3 1 464.59 8.9
2 3 1 467.78 9.32
-2 -3 0 106.63 3.82
-2 -3 -1 459.2 8.23
2 3 1 451.19 8.86
-2 -3 -1 461.98 8.38
-4 -1 -5 129.96 4.9
2 3 1 463.8 10.25
2 3 2 599.86 10.22
-2 -3 -2 581.28 9.75
-7 -2 -8 40.99 5.42
-2 -3 -2 578.08 10.41
-2 -3 -2 587.89 9.42
2 3 2 585.94 10.43
-4 -1 -6 20.91 2.9
2 3 2 602.65 9.48
-2 -3 -2 595.08 9.57
-2 -3 -3 36.34 2.72
2 3 2 573.08 9.48
2 3 3 34.04 2.34
-2 -3 -3 35.99 2.46
-2 -3 -3 35.11 2.32
-4 -1 -7 24.46 2.64
2 3 3 31.95 2.4
-2 -3 -4 127.17 5.16
2 3 4 129.12 4.76
-7 -2 -9 0.13 1.29
-2 -3 -4 127.78 4.35
2 3 4 127.79 4.36
2 3 4 126.64 4.91
-4 -1 -9 45 4.2
-2 -3 -5 24.61 2.44
2 3 5 26.12 2.29
-2 -3 -5 25.04 1.96
-2 -3 -4 128.34 5.35
2 3 5 29.68 2.08
-2 -3 -6 88.11 4.92
-2 -3 -6 93.38 3.63
4 1 10 44.21 4.58
2 3 6 89.7 3.57
-2 -3 -7 580.16 13.58
-2 -3 -7 582.65 8.78
7 2 9 0.97 1.48
2 3 7 596.86 8.84
-2 -3 -8 211.92 8.74
-2 -3 -8 211.89 5.17
4 1 12 21.68 3.7
2 3 8 203.92 5.06
-2 -3 -9 127.04 7.28
-2 -3 -9 125.82 3.96
2 3 7 616.6 11.95
2 3 10 45.2 4.14
-2 -3 -10 33.14 3.99
2 3 10 35.1 3.28
-4 -1 -13 14.81 3.11
2 3 11 2.92 1.26
-2 -3 -11 1.79 1.36
2 3 12 26.5 3.71
-7 -2 -10 1.28 1.42
-2 -3 -12 24.95 3.94
2 3 13 2.05 1.12
2 3 13 2.96 1.25
4 2 -10 5.06 2.06
2 3 14 2.68 1.65
2 3 14 4.2 1.56
-2 -3 -14 2.12 1.8
2 3 12 29.95 3.4
-2 -3 -15 1.32 1.47
2 4 -11 5.03 2.01
-2 -4 11 3.72 2.16
4 2 -8 21.84 3.8
-2 -4 10 2.52 1.76
2 4 -9 0.14 0.87
-2 -4 9 2.93 1.75
7 2 10 4.52 2.3
-2 -4 8 8.07 2.4
-2 -4 7 81.86 6.87
2 4 -7 76 5.82
-4 -2 7 9.66 2.11
-2 -4 6 125.55 8.06
-2 -4 5 22.67 3.35
2 4 -5 24.96 3.07
2 4 -8 6.42 2.02
-2 -4 4 26.56 2.05
-2 -4 4 25.12 1.06
2 4 -4 29.05 3.14
-4 -2 6 139.28 7.45
2 4 -3 42.48 3.64
-2 -4 3 42.83 1.71
-2 -4 3 46.29 4.15
-7 -2 -11 7.39 2.4
2 4 -3 41.7 3.52
2 4 -2 506.71 11.74
2 4 -2 505.57 11.82
-4 -2 5 20.38 2.85
-2 -4 2 483.55 6.41
-2 -4 2 485.6 9.78
-2 -4 2 513.98 13.06
-2 -4 3 48.47 2.74
-2 -4 1 3.75 1.19
-2 -4 1 3.76 0.88
-2 -4 1 3.72 0.63
-4 -2 4 126.54 6.87
-2 -4 1 1.92 0.64
2 4 -1 1 0.76
2 4 0 11.21 1.73
7 3 -4 1.63 1.88
-2 -4 0 12.29 1.24
-2 -4 0 11.27 1.38
-2 -4 0 9.43 1.62
-4 -2 3 146.9 7.33
2 4 0 11.15 1.61
-2 -4 0 10.66 1.48
-2 -4 -1 60.25 3.73
2 4 0 14.36 2.01
-2 -4 -1 61.72 2.86
-2 -4 -1 60.46 3.12
2 4 1 61.98 3.33
4 2 -2 13.42 2.42
-2 -4 -1 61.79 4.01
-2 -4 -1 58.87 3.34
-2 -4 -2 174.81 6.4
7 3 -4 5.47 2.26
-2 -4 -2 181.47 5.14
2 4 2 180.73 5.87
-2 -4 -2 171.36 5.29
-4 -2 2 13.87 1.41
2 4 2 183.35 6.79
-2 -4 -2 169.07 5.67
2 4 3 -0.09 0.38
2 4 2 178.22 6.52
-2 -4 -3 1.01 0.61
-2 -4 -3 0.3 0.37
-2 -4 -3 0.56 0.54
-4 -2 0 -1.65 0.96
-2 -4 -3 0.49 0.41
-2 -4 -4 827.65 14.96
-2 -4 -4 830.91 11.58
-7 -3 4 3.45 1.86
-2 -4 -4 802.5 12.36
2 4 4 838.01 11.76
-2 -4 -5 454.75 11.55
4 2 2 171.45 8.39
-2 -4 -5 459.23 9.37
2 4 5 462.88 8.92
-2 -4 -5 459.92 10.39
-2 -4 -4 802.48 12.89
-2 -4 -6 29.57 2.17
2 4 6 30.88 2.42
-2 -4 -6 27.44 2.3
-4 -2 -4 295.99 5.84
-2 -4 -7 30.57 2.22
2 4 7 32.97 2.86
2 4 7 33.09 2.74
7 3 -3 5.15 2.36
2 4 8 21.33 2.43
-2 -4 -9 280.02 11.26
2 4 9 264.87 8.73
-4 -2 -5 11.47 1.41
2 4 10 157.92 7.14
2 4 11 14.5 2.55
-2 -4 -11 15.99 3.12
-2 -4 -8 18.16 1.71
2 4 12 1.32 1.2
-2 -4 -12 0.17 1.34
2 4 12 1.77 1
-4 -2 -6 99.28 4.57
2 4 13 15.51 2.95
-2 -4 -13 20.12 3.77
2 4 14 0.43 1.1
-7 -3 3 1.68 1.42
2 4 14 0.94 1.07
-2 -4 -15 3.95 1.89
2 4 15 2.99 1.53
-4 -2 -7 32.49 3.54
2 4 16 -0.84 1.25
2 5 -10 6.8 2.26
-2 -5 10 11.01 3.13
-2 -4 -14 3.08 1.97
-2 -5 9 1.16 1.33
2 5 -8 0.07 0.89
-2 -5 8 0.38 1.06
4 2 8 55.76 4.95
-2 -5 7 102.96 8.07
-2 -5 6 135.43 8.83
2 5 -6 139.56 8.07
7 3 -3 0.84 1.33
-2 -5 5 939.13 21.86
2 5 -4 7.79 1.91
-2 -5 4 8.44 2.06
4 2 9 13.9 2.51
-2 -5 3 100.36 6.46
-2 -5 3 102.27 4.91
2 5 -3 102.8 6.16
2 5 -5 964.86 20.17
2 5 -2 50.82 1.94
-2 -5 2 53.59 3.23
2 5 -2 49.14 2.26
4 2 10 73.46 5.75
-2 -5 2 56.42 3.67
2 5 -2 47.63 4.14
2 5 -1 77.11 4.48
7 3 -2 37.58 6.3
2 5 -1 82.39 3.45
-2 -5 1 81.98 5.26
-2 -5 1 81.46 4.28
-4 -2 -12 12.78 2.78
2 5 -1 76.44 5.15
2 5 0 490.79 10.59
-2 -5 0 493.14 9.62
-2 -5 1 81.62 3.93
2 5 0 501.61 7.56
-2 -5 0 481.86 12.35
-2 -5 0 473.46 10.19
4 2 14 4.36 2.13
-2 -5 -1 189.62 7.63
2 5 1 205.78 5.15
2 5 1 185.73 5.69
7 3 -2 37.05 5.55
2 5 1 191.53 6.06
2 5 1 185.4 6.2
-2 -5 -1 183.14 6.36
-4 -3 9 2.64 1.92
-2 -5 -2 0.41 0.5
-2 -5 -2 1.69 0.67
-2 -5 -2 1.28 0.59
-2 -5 -1 198.42 6.12
2 5 2 0.43 0.34
2 5 3 0.95 0.42
-2 -5 -3 1.53 0.7
4 3 -7 5.44 1.83
-2 -5 -3 1.56 0.57
-2 -5 -3 1.56 0.66
-2 -5 -3 2.21 0.91
-7 -3 2 38.35 5.31
-2 -5 -4 3.3 0.82
-2 -5 -4 4.09 1.02
2 5 4 5.94 1.21
-4 -3 6 49.54 3.6
2 5 4 4.05 0.81
-2 -5 -5 306.45 8.19
-2 -5 -5 316.19 10.71
-2 -5 -4 5.42 1.49
2 5 5 337.75 7.01
-2 -5 -5 325.19 8.46
2 5 5 331.75 8.47
4 3 -5 71.24 6.15
2 5 6 19.03 2.17
-2 -5 -6 20.18 2.84
-2 -5 -6 19.39 1.97
7 3 -1 46.06 6.06
-2 -5 -7 116.62 7.04
-2 -5 -7 117.82 4.79
2 5 7 118.47 5.67
4 3 -4 11.6 2.52
-2 -5 -7 117.34 5.19
-2 -5 -8 118.46 7.43
2 5 8 124.81 6.11
2 5 6 20.88 1.9
-2 -5 -9 21.15 2.26
2 5 9 18.03 2.63
-2 -5 -9 20.92 3.39
4 3 -3 25.31 3.54
2 5 10 28.55 3.38
2 5 11 28.59 3.48
-2 -5 -11 27.62 4.22
-7 -3 1 50.35 6
2 5 12 16.44 2.77
-2 -5 -12 16.23 3.32
2 5 12 14.28 2.69
-4 -3 2 439.22 12.05
-2 -5 -13 -0.61 1.32
2 5 13 1.75 1.37
-2 -5 -14 12.53 3.4
2 5 11 30.45 3.39
2 5 14 14.7 3.03
2 5 15 1.84 1.54
-2 -5 -15 -0.09 1.23
4 3 -1 5.75 1.77
2 5 16 0.74 1.37
2 5 16 3.96 2.13
2 6 -9 0.18 1.34
7 3 -1 42.69 6.42
2 6 -8 20.89 3.75
-2 -6 8 24.56 4.41
2 6 -7 1.24 1.24
4 3 0 243.99 5.72
2 6 -6 46.88 5.04
-2 -6 6 43.55 5.25
2 6 -5 4.01 1.83
-2 -6 9 -0.27 1.14
-2 -6 4 121.48 7.96
-2 -6 4 122.55 5.9
2 6 -4 116.53 7.38
4 3 1 9.4 0.87
-2 -6 3 29.46 2.9
-2 -6 3 20.66 3.2
2 6 -2 105.21 5.61
7 3 0 5.77 2.45
2 6 -2 101.28 3.15
-2 -6 2 100.94 6.55
-2 -6 2 106.75 5.35
4 3 2 136.11 2.58
2 6 -1 0.95 0.76
2 6 -1 -0.01 0.31
-2 -6 1 2.04 0.83
2 6 -2 100.63 3.13
2 6 -1 0.93 0.99
-2 -6 1 1.71 1.13
2 6 0 193.33 6.78
4 3 3 733.2 17.1
-2 -6 0 182.95 8.08
-2 -6 0 179.55 6.79
2 6 0 187.87 5.46
-7 -3 0 4.15 2
-2 -6 -1 3.94 1.12
2 6 1 4.37 1.03
2 6 1 3.65 0.78
-4 -3 -4 188.09 8.04
-2 -6 -1 5.49 1.25
2 6 1 3.96 1.49
-2 -6 -1 3.45 1.19
2 6 0 190.45 8.94
-2 -6 -2 162.45 6.36
-2 -6 -2 167.53 6.19
-2 -6 -2 163.35 7.97
-4 -3 -5 29.45 3.26
2 6 2 159.48 4.28
-2 -6 -3 187.85 8.57
-2 -6 -3 188.02 6.56
7 3 1 3.09 1.84
2 6 3 189.17 4.34
2 6 3 198.68 6.52
-2 -6 -4 484.49 14.01
-4 -3 -6 1.08 0.89
-2 -6 -4 441.59 10.1
2 6 4 457.25 6.63
-2 -6 -4 477.56 10.87
-2 -6 -3 189.91 6.84
2 6 5 159.23 6.46
-2 -6 -5 177.82 8.76
-2 -6 -5 152.23 5.5
-4 -3 -8 86.09 5.36
2 6 5 169.15 4.44
-2 -6 -6 128.95 7.72
-2 -6 -6 118.25 5.48
-7 -3 -1 4.39 2.13
-2 -6 -6 111.26 5.18
-2 -6 -7 86.28 6.53
-2 -6 -7 85.41 4.7
-4 -3 -9 87.5 5.69
-2 -6 -8 19.56 3.28
2 6 8 18.61 2.65
-2 -6 -8 17.71 2.22
2 6 6 125 5.99
2 6 9 2.48 1.27
-2 -6 -9 3.77 1.17
-2 -6 -10 117.55 8.55
-4 -3 -10 85.62 4.71
-2 -6 -10 114.34 5.67
-2 -6 -11 31.96 4.75
2 6 11 29.72 3.82
7 3 2 38.3 5.75
2 6 12 6.41 1.8
-2 -6 -12 4.66 1.82
2 6 12 6.42 2.01
-4 -3 -11 3.6 1.03
2 6 13 25.51 3.88
2 6 13 26.87 3.63
2 6 14 0.12 0.83
2 6 11 28.89 3.3
2 6 14 1.9 1.41
2 6 15 4.51 1.89
-2 -6 -15 7.91 3.11
-4 -3 -13 23.09 4.02
2 6 16 0.87 1.28
2 7 -8 3.96 1.77
-2 -7 8 0.43 1.56
-7 -3 -2 45.22 5.68
-2 -7 7 26.65 4.65
2 7 -6 18.62 3.42
-2 -7 6 21.01 3.94
-4 -3 -15 1.51 1.53
-2 -7 5 137.25 9.3
-2 -7 5 143.26 6.87
-2 -7 4 10.45 1.97
2 7 -7 20.24 3.74
-2 -7 4 13.9 2.94
-2 -7 3 35.3 4.34
-2 -7 3 31.57 3.24
4 4 -8 36.9 4.28
2 7 -2 1.08 0.91
-2 -7 2 3.54 1.16
-2 -7 2 1.42 1.11
-7 -3 -3 1.38 1.45
2 7 -1 31.27 4.09
-2 -7 1 26.66 3.44
-2 -7 1 27.45 2.96
4 4 -7 8.78 1.98
2 7 0 113.45 4.77
2 7 0 110.35 4.75
2 7 0 109.15 5.19
2 7 -1 27.54 2.22
-2 -7 0 102.81 5.57
2 7 0 102.31 4.63
2 7 0 111.69 7.57
-4 -4 6 2.65 1.59
2 7 1 8.8 1.06
2 7 1 6.14 1.25
2 7 1 9.28 1.52
7 3 3 -2 1.7
-2 -7 -1 7.83 1.81
2 7 2 2.96 0.81
2 7 2 3.88 1.14
-4 -4 5 129.23 9.06
-2 -7 -2 3.85 1.47
2 7 2 3.1 0.47
2 7 3 129.64 5.96
-2 -7 -1 7.18 1.54
-2 -7 -3 138.61 8.12
2 7 3 140.29 5.07
-2 -7 -4 10.46 2.31
-4 -4 4 67.42 4.29
-2 -7 -4 10.67 1.88
-2 -7 -5 56.34 5.36
-2 -7 -5 59.93 2.96
-7 -3 -4 34.84 4.9
2 7 5 57.54 4.27
-2 -7 -6 0.65 0.43
-2 -7 -6 -0.42 1.12
-4 -4 3 14.8 2.1
-2 -7 -7 7.64 2.21
2 7 7 9.8 1.96
-2 -7 -7 8.35 1.71
-2 -7 -5 56.62 4.06
2 7 8 33.89 3.76
-2 -7 -8 38.39 3.43
-2 -7 -9 33.18 4.7
4 4 -2 5.4 1.13
2 7 9 31.12 3.77
-2 -7 -10 27.68 4.48
2 7 10 21.19 3.34
7 3 4 35 5.38
-2 -7 -11 110 9.06
2 7 11 112.92 7.82
-2 -7 -11 111.03 6.06
4 4 -1 18.41 2.28
2 7 12 3.58 1.43
-2 -7 -12 5.35 2.08
2 7 12 4.64 1.85
-2 -7 -10 23.61 2.81
2 7 13 5.78 1.75
-2 -7 -13 4.36 2.27
2 7 13 5.95 2.06
4 4 -1 18.75 1.84
2 7 14 5.27 2.19
2 7 15 6.29 2.53
2 8 -7 5.05 2.15
7 3 5 -2 1.76
2 8 -6 18.46 3.66
-2 -8 6 22.18 4.23
2 8 -5 15 3.32
4 4 0 120.33 4.4
2 8 -4 -0.63 1.57
-2 -8 4 1.97 1
-2 -8 4 2.03 1.53
-2 -8 7 6.53 2.63
-2 -8 3 4.44 1.46
-2 -8 3 2.81 1.36
2 8 -2 4.62 1.97
4 4 1 211 5.82
-2 -8 2 4.77 1.4
-2 -8 1 0.18 0.91
-2 -8 1 1.87 1.03
-7 -3 -5 -0.29 1.26
2 8 0 75.33 4.39
-2 -8 0 74.83 5.81
-2 -8 0 75.67 5.15
4 4 2 32.65 2.36
2 8 1 62.84 3.68
2 8 1 69.17 6.43
-2 -8 -1 65.81 5.25
2 8 -1 3.09 1.5
2 8 1 78.43 4.73
2 8 2 13.95 1.65
-2 -8 -2 11.26 2.68
-4 -4 -3 70.18 4.79
-2 -8 -2 12.78 2.17
-2 -8 -3 8.97 2.3
2 8 3 9.54 1.31
7 3 6 9.85 3.09
-2 -8 -3 12.73 2.13
-2 -8 -4 15.23 3
2 8 4 9.17 1.24
4 4 4 70.26 5.19
-2 -8 -4 11.26 2.05
-2 -8 -5 11.74 2.7
2 8 5 15.32 2.45
2 8 3 10.26 1.9
-2 -8 -6 14.49 3.05
2 8 6 11.3 2.17
-2 -8 -6 12.97 2.16
4 4 6 1.59 1.13
-2 -8 -7 55.08 4.33
2 8 7 63.94 5.35
-2 -8 -8 27.98 4.54
-7 -3 -6 4.21 2.11
-2 -8 -8 29.7 3.27
-2 -8 -9 30.4 4.84
2 8 9 31.79 4.12
-4 -4 -7 23.78 3.01
2 8 10 39.65 4.78
-2 -8 -10 35.4 5.34
-2 -8 -10 36.07 3.69
2 8 8 18.67 3
-2 -8 -11 81.58 5.57
2 8 11 96.77 7.62
-2 -8 -12 2.92 2.04
-4 -4 -8 8.15 1.63
-2 -8 -12 1.79 1.05
-2 -8 -13 1.71 1.95
2 8 13 3.27 1.72
7 3 7 -1.31 1.78
2 8 14 2 1.55
-2 -9 6 3.19 1.9
2 9 -5 7 2.61
4 4 9 1.39 1.06
2 9 -4 12.66 3.24
-2 -9 4 19.75 2.99
-2 -9 4 16.5 3.42
-2 -8 -14 -0.01 1.15
2 9 -3 1.39 1.41
-2 -9 3 0.6 1.2
2 9 -2 18.1 3.63
-4 -4 -11 2.19 1.21
-2 -9 2 15.84 3.17
2 9 -1 0.18 1.38
-2 -9 1 3.53 1.68
-7 -3 -7 0.29 1.35
-2 -9 0 56.73 5.38
-2 -9 0 49.07 4.5
2 9 0 45.76 5.76
4 4 12 1.45 1.16
2 9 1 1.43 0.81
-2 -9 -1 2.94 1.2
-2 -9 -1 2.66 1.35
-2 -9 1 3.49 1.28
2 9 2 111.59 6.4
2 9 2 106.3 8.61
-2 -9 -3 7.72 2.36
4 4 14 2.99 1.49
-2 -9 -3 6.55 1.66
-2 -9 -4 34.89 4.8
-2 -9 -4 39.39 3.91
7 3 8 7.85 2.99
-2 -9 -5 4.62 2
2 9 5 7.01 1.8
-2 -9 -5 4.44 1.51
4 4 16 3.93 1.7
-2 -9 -6 72.04 5.29
2 9 6 57.09 5.26
-2 -9 -7 15.83 3.53
2 9 4 34.32 3.84
-2 -9 -7 15.26 2.57
-2 -9 -8 19.02 4.01
2 9 8 22.12 3.5
4 5 -7 6.05 1.78
-2 -9 -9 4.76 2.4
-2 -9 -9 5.7 1.67
2 9 9 4.32 1.87
-7 -3 -8 10.25 2.96
-2 -9 -10 55.48 4.8
2 9 10 51.67 5.73
-2 -9 -11 55.46 7.14
-4 -5 6 0.89 1.18
2 9 11 46.86 5.68
-2 -9 -12 25.92 5.22
-2 -9 -12 34.33 3.9
-2 -9 -10 54.94 6.86
2 9 13 8.12 2.68
-2 -10 5 4.09 2.06
2 10 -4 1.42 1.65
-4 -5 5 3.47 1.8
2 10 -3 1.33 1.31
-2 -10 3 0.37 0.79
-2 -10 3 -2.12 1.43
-7 -3 -9 23.35 4.04
-2 -10 2 1.73 1.08
-2 -10 2 2.64 1.71
2 10 -1 14.56 3.63
-4 -5 4 20.21 3.65
-2 -10 1 14.93 2.71
-2 -10 0 0.92 1
-2 -10 0 -0.11 0.79
2 10 -2 2.23 1.16
2 10 1 22.77 4.4
-2 -10 -1 22.06 3.19
-2 -10 -1 17.4 2.98
-4 -5 3 23.49 3.78
2 10 2 2.24 1.11
-2 -10 -2 3.54 1.4
2 10 3 37.19 5.47
7 3 9 25.59 4.61
-2 -10 -3 27.17 3.51
2 10 3 31.54 3.86
-2 -10 -4 0.36 1.16
-4 -5 2 14.68 2.12
-2 -10 -4 -0.43 1
-2 -10 -5 0.05 1.52
2 10 5 -1.95 1.22
-2 -10 -3 31.42 4.98
-2 -10 -6 2.89 2.08
2 10 6 2.27 1.47
-2 -10 -6 4.87 1.66
-4 -5 1 74.06 4.52
2 10 7 1.08 1.14
-2 -10 -7 0.86 0.72
-2 -10 -8 2 1.3
-7 -3 -10 3.9 2.04
-2 -10 -8 3.17 1.44
-2 -10 -9 14.76 3.84
2 10 9 9.86 2.77
4 5 0 50.16 4.62
-2 -10 -10 61.29 7.71
-2 -10 -10 56.51 5.16
2 10 10 51.52 6.1
2 10 8 2.13 1.55
-2 -10 -11 53.76 5.12
2 10 11 45.64 5.91
-2 -10 -12 18.4 4.67
-4 -5 0 40.59 4.61
-2 -10 -12 9.9 2.33
-2 -11 2 3.96 1.65
2 11 -1 2.6 2.28
7 3 10 2.17 1.64
2 11 0 4.1 2.21
-2 -11 0 5.42 1.8
2 11 1 2.07 1.89
-4 -5 -1 90.83 5.22
2 11 2 12.22 3.63
-2 -11 -2 13.74 2.66
2 11 3 0.33 1.37
-2 -11 1 1.01 1.17
2 11 4 18.5 4.18
2 11 4 17.98 3.21
-2 -11 -4 18.69 3.12
-4 -5 -2 49.89 3.91
-2 -11 -5 8.97 3.02
2 11 5 7.52 2.3
-2 -11 -5 6.05 1.91
-7 -3 -11 1.21 1.57
2 11 6 19.29 3.59
-2 -11 -6 17.7 3.05
-2 -11 -7 0.52 1.59
-4 -5 -3 355.77 9.27
-2 -11 -7 1.25 1.09
-2 -11 -8 1.27 2.44
2 11 8 0.81 0.99
-2 -11 -6 23.06 4.6
-2 -11 -9 1.39 1.41
2 11 9 -1.04 1.37
-2 -11 -9 0.77 0.98
-4 -5 -4 0.79 0.53
2 11 10 0.56 1.28
-2 -11 -10 4.69 1.8
-2 -11 -11 3.48 2.24
7 4 -4 25.38 5.45
-2 -11 -11 4.08 1.7
-2 -11 -12 9.14 2.41
-2 -12 -1 1.21 1.24
4 5 4 0.84 0.81
2 12 3 1.42 1.71
-2 -12 -3 1.54 1.37
2 12 4 10.86 3.54
2 11 11 4.49 2.26
-2 -12 -5 1.8 1.67
2 12 5 5.1 2.24
-2 -12 -5 2.38 1.45
-4 -5 -5 3.12 1.17
-2 -12 -6 0.74 1.34
-2 -12 -6 0.58 0.94
-2 -12 -7 5.34 2.63
7 4 -3 25.07 4.79
-2 -12 -8 -1.86 1.94
2 12 8 0.73 1.23
-2 -12 -8 0.39 1
4 5 6 85.19 5.59
-2 -12 -9 6.87 2.06
2 13 7 1.91 1.59
-3 10 5 -1.13 1.64
-2 -12 -7 4.79 1.76
3 -10 -4 0.99 1.21
-3 10 3 45.01 6.4
-3 10 3 37.82 6.24
4 5 7 6.94 1.67
-3 10 2 48.08 6.51
-3 10 1 1.38 1.45
3 -9 -8 -0.99 1.65
-7 -4 3 23.25 4.05
3 -9 -7 4.07 2.2
3 -9 -7 7.26 2.38
-3 9 6 1.51 1.56
4 5 8 39.27 3.86
3 -9 -5 0.39 1.26
-3 9 5 2.06 1.59
3 -9 -5 0.37 1.2
3 -9 -8 2.29 1.33
3 -9 -4 0.96 1.19
-3 9 4 -1.26 1.37
3 -9 -4 1.91 1.51
-4 -5 -10 18.58 3.12
-3 9 3 4.62 2.22
3 -9 -3 2.53 1.73
3 -9 -3 3.53 1.81
7 4 -3 30.71 5.93
-3 9 2 8.02 2.94
3 -9 -2 6.39 2.16
-3 9 1 31.99 5.37
-4 -5 -11 6.75 1.4
-3 9 1 23.54 4.38
-3 9 0 1.99 1.86
3 -9 0 2.52 1.36
-3 9 2 8.57 2.79
3 -9 1 6.83 2.17
-3 9 -2 4.94 2.25
3 -9 2 13.04 2.92
4 5 13 3.17 1.32
3 -9 4 1.96 1.48
3 -8 -10 6.44 2.59
3 -8 -10 8.08 2.16
7 4 -2 3.18 1.77
3 -8 -9 7.52 2.19
-3 8 8 3.91 2.17
3 -8 -8 3.53 2.04
-4 -5 -15 3.49 1.59
-3 8 7 2.22 1.77
3 -8 -7 7.63 2.79
3 -8 -7 2.89 1.59
3 -8 -9 9.66 3.24
3 -8 -6 7.6 2.86
3 -8 -6 7.72 2.21
-3 8 5 2.1 1.43
-4 -6 7 2.93 2.04
3 -8 -5 4.18 1.94
-3 8 4 21.3 4.17
3 -8 -4 14.2 3.38
7 4 -2 2.43 2.02
-3 8 3 14.91 3.41
3 -8 -3 12.93 3.24
-3 8 3 14.8 3.38
4 6 -5 18.55 2.98
-3 8 2 15.37 3.55
3 -8 -2 11.52 2.7
-3 8 2 13.06 3.12
3 -8 -4 17.78 3.22
3 -8 -1 24.21 3.77
-3 8 1 25.82 4.22
-3 8 0 22.26 4.19
4 6 -4 0.24 0.64
3 -8 0 18.43 3.35
-3 8 0 15.44 3.37
-3 8 -1 9.64 2.64
-7 -4 2 -2.2 1.45
3 -8 1 11.18 2.68
-3 8 -2 -2.5 1.79
3 -8 2 1.8 1.42
4 6 -3 59.68 5.67
3 -8 3 4.78 1.86
-3 8 -4 0.36 1.14
3 -8 4 0.24 0.91
-3 8 -1 9.63 2.85
3 -8 5 -2.1 1.32
3 -7 -11 14.36 4.04
-3 7 10 25.4 4.77
4 6 -2 3.3 1.26
3 -7 -10 31.39 3.97
-3 7 9 4.04 2.31
3 -7 -9 0.47 1.34
7 4 -1 -0.62 1.14
-3 7 8 -0.63 1.06
3 -7 -8 2 1.58
3 -7 -8 1.23 1.26
-4 -6 2 2.47 1.49
3 -7 -7 9.55 2.84
3 -7 -7 9.06 2.41
3 -7 -6 47.13 5.95
3 -7 -9 1.8 1.22
3 -7 -6 57.68 5.53
3 -7 -5 51.49 6.07
3 -7 -5 48.27 5.12
4 6 -1 21.84 3.41
-3 7 4 9.39 2.8
3 -7 -4 7.7 2.58
3 -7 -4 8.26 2.28
-7 -4 1 0.75 1.17
3 -7 -3 3.31 1.44
-3 7 2 33.9 4.81
3 -7 -2 30.79 4.48
4 6 0 228.71 10.44
3 -7 -2 39.79 4.65
-3 7 1 4.74 1.91
3 -7 -1 -1.02 1.06
3 -7 -3 0.95 1.03
-3 7 0 4.45 1.9
3 -7 0 3.38 1.72
-3 7 0 3.03 1.25
4 6 0 208.61 8.46
-3 7 -1 6.28 1.99
3 -7 1 5.86 1.95
-3 7 -2 4.91 2.03
7 4 -1 1.64 1.52
-3 7 -2 4 1.72
-3 7 -3 -0.56 1.83
3 -7 3 7.16 2.04
4 6 1 351.05 10.93
3 -7 4 72.77 6.17
-3 7 -5 24.16 4.24
3 -7 5 19.17 3.19
3 -7 2 6.19 1.89
3 -7 6 -0.2 0.95
-3 7 -7 3.09 1.73
3 -6 -12 5.43 2.69
4 6 2 427.81 12.05
3 -6 -11 4.66 2.28
-3 6 10 2.66 2.11
3 -6 -10 -0.37 1.08
7 4 0 66.78 7.89
-3 6 9 19.44 4.09
3 -6 -9 24.37 3.43
-3 6 8 11.52 3.08
-4 -6 -3 63.44 4.47
3 -6 -8 16.19 2.86
-3 6 7 1.68 1.51
3 -6 -7 0.68 1.36
3 -6 -9 20.79 4.29
-3 6 6 8.4 2.58
3 -6 -6 9.15 2.6
3 -6 -6 6.96 2
4 6 4 46.77 4.09
3 -6 -5 97.03 7.74
3 -6 -5 104.04 7.22
3 -6 -5 111.63 7.3
-7 -4 0 62.3 6.48
-3 6 4 -1.81 1.35
3 -6 -4 -1.67 1.32
3 -6 -4 1.42 1.07
-4 -6 -5 13.05 2.09
3 -6 -3 5.01 1.94
3 -6 -3 7.36 1.79
3 -6 -3 3.57 1.73
-3 6 5 95.56 7.97
-3 6 2 0.99 1.15
3 -6 -2 0.81 1.04
3 -6 -2 4.62 1.6
-4 -6 -6 3.27 1.14
-3 6 1 6.37 2.14
-3 6 1 8.36 2.33
3 -6 -1 5.15 1.85
7 4 1 23.66 4.59
3 -6 -1 11.52 2.44
-3 6 0 10.12 2.4
3 -6 0 9.19 1.88
-4 -6 -8 55.45 5.15
-3 6 0 9.83 2.4
-3 6 -1 2.83 1.46
-3 6 -1 1.48 1.14
3 -6 -1 10.05 1.97
3 -6 1 0.37 0.7
-3 6 -2 0.42 0.76
3 -6 2 0.98 0.68
-4 -6 -9 16.66 2.28
-3 6 -2 1.3 0.87
3 -6 2 -0.03 0.61
-3 6 -3 12.19 2.72
-7 -4 -1 23.64 4.1
-3 6 -3 11.5 2.41
3 -6 3 9.28 1.82
3 -6 3 7.67 2.09
4 6 10 59.72 4.74
3 -6 4 7.24 1.78
3 -6 4 6.06 1.56
-3 6 -4 7.36 2.03
3 -6 3 9.61 1.88
-3 6 -5 200.15 11.02
3 -6 5 210.18 8.56
3 -6 5 194.59 9.51
-4 -6 -12 0.29 0.89
-3 6 -6 7.19 2.33
3 -6 6 7.29 2.14
3 -6 6 7.09 1.76
7 4 2 1.26 1.04
-3 6 -7 6.32 2.46
3 -6 7 7.95 2.39
-3 6 -8 -0.27 1.23
4 6 13 2.85 1.47
3 -6 9 6.32 2.35
-3 5 12 2.72 1.91
3 -5 -12 4.87 2.32
3 -6 6 7.5 2.03
3 -5 -11 9.73 3.05
3 -5 -10 65.22 7.21
-3 5 10 69.8 7.39
-4 -6 -15 10.55 3.21
-3 5 9 19.75 3.9
3 -5 -9 25.07 3.25
-3 5 8 2.21 1.19
-7 -4 -2 2.19 1.51
3 -5 -8 0.53 0.83
3 -5 -7 0.34 1.11
3 -5 -7 0.25 0.9
4 7 -6 3.49 1.64
3 -5 -6 4.21 1.24
3 -5 -6 1.22 1.14
3 -5 -6 2.54 1.18
3 -5 -8 0.21 1.34
3 -5 -5 60.15 3.92
3 -5 -5 59.99 5.52
-3 5 5 62.21 6.06
-4 -7 5 15.2 3.64
3 -5 -4 165.87 9.25
3 -5 -4 162.02 6.13
3 -5 -4 167.3 8.83
-7 -4 -3 14.21 3.08
3 -5 -4 168.02 8.37
-3 5 3 2.52 1.19
3 -5 -3 2.1 0.8
4 7 -4 28.54 3.74
3 -5 -3 3.97 1.49
3 -5 -3 2.12 1.04
3 -5 -2 0.59 0.75
-3 5 4 168.03 9.74
3 -5 -2 3.69 1.37
-3 5 2 2.69 1.29
3 -5 -2 3.62 1.54
-4 -7 3 7.86 2.56
-3 5 1 8.66 2
3 -5 -1 11.27 2.35
3 -5 -1 14.08 2.55
7 4 3 10.12 2.93
3 -5 -1 13.37 2.31
3 -5 0 183.72 5.34
-3 5 0 177.64 9.34
4 7 -2 51.53 4.75
-3 5 0 171.08 8.85
3 -5 0 182.46 8.13
-3 5 -1 12.05 2.5
3 -5 -1 10.16 1.1
3 -5 1 12.91 2.53
3 -5 1 13.53 1.69
-3 5 -1 15.82 2.75
-4 -7 1 66.47 6.51
3 -5 2 95.62 6.41
4 7 0 197.65 9.69
3 -5 3 11.29 2.32
-7 -4 -4 2.2 1.56
3 -5 3 12.83 2.19
-4 -7 0 193.01 7.78
-3 5 -4 128.89 7.22
-3 5 -3 14.2 2.5
3 -5 4 129.49 6.63
4 7 0 199.25 9.26
-3 5 -5 17.98 3.21
3 -5 2 102.66 6.08
3 -5 5 24.06 2.97
4 7 1 250.08 10.17
3 -5 5 23.76 3.21
-3 5 -5 20.08 2.8
3 -5 6 121.61 6.73
-4 -7 -1 272.75 9.23
3 -5 6 114.8 7.36
7 4 4 0.8 1.5
3 -5 7 22.77 3.62
4 7 2 67.49 5.07
3 -5 7 23.05 3.12
-3 5 -7 23.28 3.91
3 -5 8 9.06 2.56
4 7 2 69.21 5.5
-3 5 -9 1.31 1.22
0 0 9 5.59 1.19
-3 4 13 0.26 1.21
-4 -7 -3 60.04 4.92
-3 4 12 11.24 3.12
3 -5 10 1.78 1.41
-3 4 11 5.82 2.41
-4 -7 -4 19.57 2.91
-3 4 10 5.02 1.95
7 4 5 21.05 4.15
3 -4 -9 88.51 7.74
4 7 4 22.74 2.77
3 -4 -9 92.41 5.8
3 -4 -10 4.71 2.07
3 -4 -8 8.47 2.48
-4 -7 -5 70.23 4.76
3 -4 -7 146.04 7.17
0 -1 6 13.01 1.24
3 -4 -7 145.64 7.36
-4 -7 -6 23.88 3.43
-3 4 7 136.94 6.36
3 -4 -7 133.63 8.66
3 -4 -6 17.64 2.44
4 7 6 18.34 2.45
-3 4 5 6.03 1.88
-7 -4 -5 24.07 4.04
3 -4 -5 3.44 1.13
-4 -7 -7 8.74 1.79
3 -4 -4 5.76 1.67
3 -4 -5 4.29 1.55
3 -4 -4 6.15 1.75
-4 -7 -8 20.94 3.4
3 -4 -3 53.48 3.61
0 1 2 104.64 3.14
-3 4 3 48.44 4.94
4 7 8 19.79 2.53
3 -4 -2 91.18 6.03
3 -4 -3 51.54 4.68
3 -4 -2 88.28 5.87
-4 -7 -9 32.8 3.25
3 -4 -1 16.22 2.55
7 4 6 11.46 3.11
3 -4 -1 17.05 1.81
-4 -7 -10 7.03 2.3
-3 4 0 3.92 1.31
3 -4 -1 16.75 2.59
-3 4 0 5.28 1.64
4 7 10 4 1.26
3 -4 1 1.02 0.67
0 -1 -8 2.61 1.09
-3 4 -2 79.34 5.58
-4 -7 -11 6.62 2.26
3 -4 2 80.6 5.34
-3 4 -1 1.05 0.81
3 -4 3 7.49 1.47
-4 -7 -11 2.41 1.13
3 -4 3 12.93 2.22
-7 -4 -6 12.9 3
3 -4 4 3.96 1.13
-4 -7 -12 7.18 2.42
3 -4 4 5.37 1.47
-3 4 -4 1.77 0.83
-3 4 -5 82.94 5.51
4 7 12 9.1 2.31
3 -4 5 80.97 5.5
0 -2 7 95.19 2.98
-3 4 -6 3.06 1.52
4 7 13 -0.48 1.2
3 -4 6 3.01 1.3
3 -4 5 69.4 4.97
-3 4 -6 1.75 1.09
4 7 14 1.77 1.4
3 -4 7 126.96 7.01
7 4 7 0.59 1.38
-3 4 -7 129.11 8.19
-4 -7 -15 -2.99 1.96
3 -4 8 8.54 2.24
3 -4 7 131.38 8.02
-3 4 -9 5.15 2.03
4 8 -7 8.13 2.51
-3 4 -10 3.15 1.41
0 -2 2 1497.51 8.5
-3 4 -11 2.32 1.59
4 8 -5 1.11 1.02
3 -3 -13 7.42 2.9
3 -4 10 4.91 1.93
3 -3 -12 7.96 2.65
4 8 -4 11.52 2.69
3 -3 -11 0.72 1.27
-7 -4 -7 2.37 1.76
3 -3 -10 3.96 1.71
-4 -8 4 13.58 3.49
3 -3 -9 92.28 7.57
-3 3 10 6.2 2.16
3 -3 -9 100.31 5.65
4 8 -3 11.02 2.54
3 -3 -8 39.32 4.7
0 2 3 1357.21 11.64
3 -3 -8 40.38 3.67
4 8 -2 8.86 2.24
3 -3 -7 220.79 10.55
-3 3 8 50.24 5.35
-3 3 7 220.73 10.77
-4 -8 2 5.13 1.54
3 -3 -6 139.82 7.97
7 4 8 3 1.67
-3 3 6 126.86 6.29
4 8 -1 0.58 0.95
3 -3 -5 75.36 5.54
3 -3 -6 137.79 6.84
-3 3 5 83.85 6.35
-4 -8 1 0.88 0.86
3 -3 -4 117.74 6.65
0 2 9 35.94 3.33
-3 3 4 132.08 7.77
-4 -8 1 0.87 1.35
3 -3 -3 108.18 6.09
3 -3 -4 125.21 5.97
3 -3 -3 112.48 6.93
4 8 0 -1.17 0.86
3 -3 -3 106.55 4.3
-7 -4 -8 1.97 1.59
3 -3 -2 73.65 5.38
-4 -8 0 0.22 0.75
3 -3 -2 68.5 3.52
3 -3 -2 66.11 4.57
3 -3 -1 185.15 8.22
4 8 1 64.64 5.32
3 -3 -1 181.15 6.13
0 3 -6 139.61 3.88
-3 3 0 11.79 1.96
-4 -8 -1 71.94 5.05
-3 3 0 10.42 2.22
3 -3 0 9.7 2.01
3 -3 1 18.23 2.55
4 8 1 66.61 5.95
3 -3 2 250.57 9.26
-7 -4 -9 3.12 1.89
-3 3 -2 241.4 8.64
4 8 2 183.13 8.83
3 -3 3 7.93 1.77
-3 3 -2 253.48 9.55
-3 3 -4 67.5 4.82
4 8 2 192.22 6.83
3 -3 4 66.4 4.9
0 3 -1 1218.74 12.85
3 -3 5 54.58 4.21
4 8 3 174.9 7.49
3 -3 5 58.82 4.6
-3 3 -5 52.37 4.24
-3 3 -6 39.53 3.66
4 8 3 169.56 6.72
-3 3 -6 38.44 4.01
7 4 9 5 2.15
3 -3 7 15.31 2.69
-4 -8 -4 64.39 5.68
3 -3 7 22.35 2.93
-3 3 -7 16.94 2.84
-3 3 -8 15.51 2.9
4 8 4 63.35 4.37
3 -3 8 19.87 2.93
0 3 3 214 5.67
3 -3 8 15.26 2.26
4 8 5 10.56 1.8
-3 3 -9 41.74 4.83
-3 3 -8 13.34 2.04
3 -3 10 0.11 1.18
4 8 5 13.51 2.16
3 -3 11 6.54 2.17
-7 -4 -10 9.55 2.61
3 -2 -13 6.92 2.69
-4 -8 -6 23.7 2.94
-3 2 12 4.68 1.93
-3 3 -12 -1.01 1.19
3 -2 -11 0.98 1.15
4 8 6 21.45 2.73
-3 2 10 2.14 1.21
0 -3 -10 31.34 1.74
-3 2 10 3.47 1.71
-4 -8 -7 10.07 1.97
-3 2 9 65 5.97
3 -2 -10 2.87 1.34
-3 2 8 20.14 3.31
4 8 7 10.03 1.69
-3 2 8 12.75 2.3
7 4 10 2.47 1.57
3 -2 -7 1144.03 21.53
-4 -8 -8 20.94 2.75
-3 2 7 1160.08 21.15
3 -2 -7 1128.4 22.56
3 -2 -6 158.23 7.59
4 8 8 24.24 3.17
-3 2 6 156.56 7.44
0 -4 5 1.24 0.54
3 -2 -5 28.45 3.17
-4 -8 -9 7.21 1.75
-3 2 5 24.6 2.84
3 -2 -5 24.31 2.99
3 -2 -4 199.13 7.83
4 8 9 5.85 1.58
-3 2 4 204.68 7.6
-7 -4 -11 0.6 1.19
3 -2 -3 6.54 1.47
4 8 10 6.68 1.55
3 -2 -3 5.14 1.05
-3 2 3 7.35 1.79
-3 2 2 198.34 6.56
4 8 10 6.88 1.96
-3 2 2 195.54 8.55
0 -4 0 250.02 4.46
3 -2 -1 26.76 2.49
4 8 11 8.23 2.06
3 -2 -1 33.98 3.52
3 -2 -2 182.2 6.22
3 -2 -1 30.79 2.65
4 8 12 3.5 1.78
-3 2 0 159.46 5.93
7 4 11 1.66 1.74
-3 2 0 168.83 5.91
4 8 13 4.53 2.05
3 -2 1 33.91 3.4
3 -2 0 153.93 7.32
-3 2 -1 34.36 2.9
4 8 14 7.8 2.43
-3 2 -2 86.55 4.82
0 -4 -7 1286.93 14.04
3 -2 2 80.95 5.28
4 9 -6 6.42 2.55
-3 2 -3 370.63 11.02
-3 2 -2 89.58 5.48
-3 2 -3 356.6 9.36
4 9 -4 5.21 1.98
3 -2 4 72.64 5.06
-7 -5 4 -0.25 0.88
-3 2 -5 9.28 1.8
4 9 -3 3.51 1.83
3 -2 5 9.2 1.89
-3 2 -4 69.18 4.37
3 -2 6 171.16 7.76
4 9 -2 19.36 3.57
3 -2 7 35.44 3.8
0 -5 8 6.13 2.23
-3 2 -7 36.05 3.8
-4 -9 2 20.19 4.08
-3 2 -8 3.56 1.35
-3 2 -7 33.77 3.27
3 -2 8 6.37 1.9
4 9 -1 24.05 3.48
-3 2 -9 10.73 2.43
7 5 -3 29.06 5.08
3 -2 9 13.29 2.55
4 9 0 18.25 3.51
-3 2 -10 -3.08 1.52
3 -2 9 15.66 2.97
-3 2 -11 22.28 3.75
-4 -9 0 25.13 4.31
3 -2 12 7.52 2.78
0 5 -1 268.85 10.36
3 -1 -13 18.51 4.1
4 9 1 0.91 0.92
3 -1 -12 14.59 3.42
-3 2 -12 5.03 2.1
3 -1 -11 2.42 1.58
4 9 2 1.41 1.46
3 -1 -10 22.67 3.81
-7 -5 3 23.27 3.62
-3 1 10 28.94 4.23
4 9 2 -0.32 0.58
3 -1 -9 3.62 1.53
-3 1 10 30.98 3.99
-3 1 8 22.74 3.24
4 9 3 17.85 3.48
-3 1 8 21.77 3.29
0 -5 -5 36.6 4
3 -1 -7 227.31 9.83
-4 -9 -3 14.4 2.59
-3 1 7 231.05 9.97
3 -1 -7 229.36 9.71
3 -1 -6 378.93 12.16
-4 -9 -3 11.71 2.62
-3 1 6 401.29 12.38
7 5 -3 29.65 5.87
3 -1 -5 11.21 2.1
-4 -9 -4 18.41 2.77
-3 1 5 10.11 1.96
-3 1 5 14.54 2.49
3 -1 -4 2.12 0.95
-4 -9 -4 13.78 2.76
-3 1 4 4.37 0.96
0 5 14 22.12 3.87
3 -1 -3 443.21 10.09
-4 -9 -5 14.34 2.54
-3 1 3 441.28 12.34
3 -1 -3 447.9 11.51
3 -1 -2 778.38 12.34
-4 -9 -5 14.63 2.74
-3 1 2 800.75 16.25
7 5 -2 26.46 4.73
3 -1 -1 11.83 1.4
-4 -9 -6 17.47 2.71
-3 1 1 7.41 1
3 -1 -1 10.98 2.06
3 -1 0 125.18 4.25
-4 -9 -6 16.14 3.03
3 -1 0 114.93 6.28
0 -6 1 0.85 0.42
-3 1 0 124 6.28
-4 -9 -7 2.33 1.16
3 -1 1 423.63 11.77
-3 1 0 119.12 3.9
-3 1 -1 417.82 11.39
-4 -9 -7 2.53 1.2
3 -1 2 294.84 9.89
7 5 -2 21.55 4.74
-3 1 -2 304.05 9.67
-4 -9 -8 6.56 1.81
-3 1 -3 4.48 0.92
-3 1 -2 282.13 7.28
-3 1 -3 3.37 0.91
-4 -9 -9 1.75 1.65
-3 1 -3 3.27 1.08
0 6 6 33.21 1.76
3 -1 4 785.1 16.3
-4 -9 -10 9.58 2.84
-3 1 -5 40.69 3.24
-3 1 -4 781.43 15.44
3 -1 5 41.38 3.92
-4 -9 -11 0.71 1.22
-3 1 -6 -0.02 0.56
-7 -5 2 18.8 3.51
-3 1 -7 45.06 3.95
-4 -9 -12 1.57 1.51
3 -1 7 46.11 4.12
3 -1 6 0.5 0.83
-3 1 -8 18.53 2.41
-4 -9 -13 -2.34 1.9
3 -1 8 23.81 3.22
0 -7 9 -1.17 1.44
-3 1 -9 89.02 6.29
-4 -9 -14 6.22 2.72
3 -1 9 94.03 6.14
-3 1 -9 83.79 4.85
3 -1 10 1.45 1.2
4 10 -3 2.18 1.52
3 -1 11 10.52 2.72
7 5 -1 16.71 3.8
3 -1 12 15.35 3.47
4 10 -2 0.33 0.93
3 -1 13 8.33 2.99
-3 1 -11 10.01 2.48
3 0 -13 -0.97 1.51
4 10 -1 1.62 1.53
3 0 -12 2.61 1.32
0 -7 -1 18.4 3.2
3 0 -11 5.92 2.12
4 10 0 11.18 2.99
3 0 -10 6.23 2
-3 0 12 5.06 2.09
3 0 -9 30.72 4
4 10 1 7.39 2.41
-3 0 9 30.81 4.24
-7 -5 1 10.6 2.75
-3 0 8 53.32 4.6
-4 -10 -2 14.78 2.86
3 0 -7 183.22 8.37
3 0 -8 55.58 4.99
-3 0 7 192 8.4
4 10 3 -1.27 0.92
-3 0 6 12.88 2.21
0 7 10 0.92 1.29
3 0 -6 15.25 2.28
4 10 4 11.46 3
3 0 -5 352.79 11.54
3 0 -6 16.22 2.59
-3 0 5 355.2 10.79
-4 -10 -4 7.68 2.17
3 0 -4 34.13 3.5
7 5 0 8.38 2.81
-3 0 4 29.32 3.09
4 10 5 11.9 2.34
-3 0 4 31.31 2.4
3 0 -4 35.61 2.91
-3 0 3 41.73 3.68
-4 -10 -6 7.32 2.54
-3 0 3 41.08 2.37
0 -8 0 6.17 1.63
3 0 -2 54.85 2.84
-4 -10 -6 12.22 2.78
-3 0 2 59.51 4.28
-3 0 3 52.04 4
3 0 -1 236.32 5.02
4 10 7 23.82 3.48
-3 0 1 220.36 3.58
-7 -5 0 9.53 2.47
-3 0 0 246.24 3.62
-4 -10 -8 4.76 2.18
-3 0 0 258.33 8.73
3 0 0 257.55 4.24
-3 0 -1 625.13 6.42
-4 -10 -8 3.42 1.55
3 0 2 97.4 5.59
0 8 10 -1.41 1.29
-3 0 -2 88.47 5.01
4 10 9 22.06 3.55
3 0 2 87.21 3.25
-3 0 -2 91.76 3.13
-3 0 -3 137.68 4.21
-4 -10 -10 -0.51 1.35
3 0 3 136.85 6.66
7 5 0 6.93 2.68
3 0 4 242.19 8.9
-4 -10 -11 -3.43 1.96
3 0 4 254.81 7.25
-3 0 -4 248.51 8.56
-3 0 -5 189.71 7.47
-4 -10 -12 1.36 1.7
-3 0 -6 187.9 6.96
0 -9 -3 56.74 6.42
-3 0 -6 198.14 7.6
-4 -10 -13 2.54 1.86
3 0 7 29.12 3.22
3 0 6 190.68 8.13
-3 0 -8 51.81 3.91
-4 -11 2 8.16 2.84
-3 0 -8 49.13 4.27
7 5 1 6.46 2.53
3 0 9 341.93 11.49
-4 -11 1 13.02 3.47
-3 0 -9 328.66 11.58
-3 0 -9 318.86 9.49
3 0 10 9.41 2.1
4 11 1 -0.53 1.2
3 0 11 28.73 4.1
0 -10 1 1.4 0.89
3 0 12 0.57 1.09
4 11 2 28.72 5.05
3 0 13 1.91 1.52
-3 0 -11 31.97 4.16
-3 0 -14 22.27 4.14
4 11 3 3.25 1.66
3 1 -12 1.08 1.21
-7 -5 -1 7.44 2.36
-3 -1 11 1.57 1.37
4 11 4 3.84 2.18
-3 -1 10 0.49 1.35
3 1 -11 1.48 1.61
3 1 -9 26.78 3.5
-4 -11 -5 29.36 4.84
-3 -1 8 305.54 9.99
0 10 10 -1.71 2.15
3 1 -8 316.01 11.17
4 11 5 30.83 4.03
-3 -1 7 83.6 5.15
-3 -1 8 309.27 13.14
3 1 -7 82.14 5.21
4 11 6 1.46 1.27
-3 -1 6 24.2 2.7
7 5 2 65.02 7.43
3 1 -6 25.95 2.75
-4 -11 -7 -1.31 1.43
-3 -1 5 66.6 4.35
-3 -1 6 27.33 3.58
3 1 -5 61.95 3.82
-4 -11 -7 0.49 1.14
3 1 -4 23.99 2.14
0 -11 -8 5.48 1.83
-3 -1 4 17.4 2.6
4 11 8 18.69 3.48
-3 -1 3 579.03 12.85
-3 -1 4 20.96 2.07
-3 -1 3 581.16 14.11
-4 -11 -9 2.9 1.83
3 1 -2 738.62 15.17
-7 -5 -2 58.03 6.11
-3 -1 2 731.62 15.52
-4 -11 -9 1.06 1.16
3 1 -1 202.3 4.06
-3 -1 2 749.71 14.46
-3 -1 1 211.46 7.99
4 11 10 3.66 2.02
3 1 0 2218.13 27.45
1 -10 -7 0.43 1.51
3 1 1 97.65 5.48
-4 -11 -11 3.23 2.11
-3 -1 -2 169.58 6.77
-3 -1 0 2223.11 24.29
3 1 2 165.94 7.08
-4 -11 -12 -0.65 1.52
-3 -1 -3 134.41 3.64
-7 -5 -3 1.46 1.09
3 1 3 135.34 6.41
4 12 2 -1.7 1.52
-3 -1 -4 207.38 5.42
3 1 3 136.21 3.86
3 1 4 192.8 7.75
4 12 4 0.75 1.61
3 1 5 44.46 3.8
-1 9 11 1.04 1.6
-3 -1 -6 217.38 7.83
4 12 5 13.1 3.66
-3 -1 -6 227.44 7.29
-3 -1 -5 41.44 2.79
3 1 7 36.6 3.54
-4 -12 -6 3.71 2.13
-3 -1 -8 64.66 4.34
7 5 3 1.93 0.98
3 1 8 65.03 4.8
-4 -12 -7 2.55 1.89
3 1 9 238.98 9.39
-3 -1 -8 64.11 4.69
3 1 10 30.21 3.55
-4 -12 -7 2.06 1.47
-3 -1 -10 40.93 4.29
1 -9 0 11.96 2.44
-3 -1 -11 12.98 2.74
4 12 8 3.89 1.73
-3 -1 -12 9.96 2.47
3 1 11 20.1 3.38
3 1 13 3.7 1.19
4 12 9 5.31 2.13
3 1 14 1.19 1.29
-7 -5 -4 26.98 4.18
-3 -1 -14 0.26 0.93
4 13 8 0.27 0.98
-3 -2 11 1.9 1.56
-3 -1 -14 3.78 2.01
3 2 -10 3.89 1.61
-5 7 2 4.69 2.4
3 2 -9 29.24 3.75
1 -8 -5 0.7 0.82
-3 -2 8 76.99 6.86
-5 7 0 4.79 2.16
3 2 -7 11.75 2.48
-3 -2 9 31.53 4.67
-3 -2 7 14.07 2.13
-5 7 -2 2.2 1.56
3 2 -7 10.47 2.06
7 5 4 27.62 4.72
-3 -2 6 127.21 6.1
5 -6 -7 -0.73 1.19
3 2 -6 120.64 6.07
3 2 -6 128.3 7.68
-3 -2 5 0.89 1.1
5 -6 -5 -0.04 1.08
3 2 -5 0.3 0.5
-1 8 -6 -1.67 1.46
-3 -2 4 81.11 4.65
5 -6 -4 13.53 3.2
3 2 -4 75.65 4.07
3 2 -4 83.71 5.66
3 2 -3 107.79 6.13
-5 6 3 13.66 3.45
3 2 -3 94.44 4.58
-7 -5 -5 1.64 1.69
3 2 -3 103.5 4.15
-5 6 2 4.71 2.15
3 2 -2 21.36 2.73
-3 -2 3 94.51 6.04
3 2 -2 19.74 2.12
-5 6 1 3.99 2.33
3 2 -2 21.75 1.67
1 -7 -4 13.23 1.52
3 2 -1 570.95 6.94
-5 6 0 17.51 3.68
3 2 -1 545.26 11.24
-3 -2 2 20.48 1.86
-3 -2 1 538.2 7.83
-5 6 -1 5.68 2.35
-3 -2 0 1018.34 15.9
7 5 5 -0.58 0.89
-3 -2 -1 360.12 9.54
-5 6 -2 5.11 2.16
3 2 2 31.72 3.05
3 2 1 348.82 10.35
3 2 2 36.02 1.46
-5 6 -3 -0.46 0.98
-3 -2 -3 363.92 6.07
1 -7 5 7.2 1.65
-3 -2 -4 1091.34 12.36
-5 6 -4 -1.35 1.29
3 2 4 1130.38 18.35
3 2 3 355.7 5.8
3 2 5 146.54 6.76
5 -6 5 2.01 1.48
3 2 5 142.14 5.04
7 5 6 1.37 1.25
-3 -2 -6 111.09 5.62
5 -5 -9 2.46 1.7
-3 -2 -7 117.37 5.6
-3 -2 -6 107.58 4.88
3 2 7 116.18 6.1
5 -5 -8 47.5 5.42
-3 -2 -8 14.57 2.23
-1 6 5 11.98 2.38
3 2 8 18.06 2.58
-5 5 7 54.04 6.95
-3 -2 -9 602.73 14.85
-3 -2 -8 14.05 2.09
-3 -2 -9 607.8 14.97
5 -5 -6 9.06 2.88
-3 -2 -10 112.49 4.34
-7 -5 -6 -1.06 1.42
-3 -2 -10 119.65 7.16
-5 5 6 9.52 3.04
-3 -2 -11 60.24 5.4
3 2 10 115.32 6.7
3 2 12 19.7 3.4
-5 5 5 3.35 2.13
3 2 13 2.26 1.43
1 -6 1 98.42 4.76
3 2 13 9.18 1.96
-5 5 4 26.84 4.76
-3 -2 -14 13.41 3.25
-3 -2 -13 6.62 2.19
-3 -2 -15 2.03 1.86
-5 5 3 4.85 2.53
-3 -3 11 19.41 4.2
7 5 7 35.34 5.19
3 3 -10 3.37 1.7
-5 5 2 -0.21 1.39
3 3 -9 37.46 4.38
3 3 -11 20.2 3.68
-3 -3 8 27.97 4.3
5 -5 -1 24.54 4
3 3 -7 11.5 2.21
1 -5 -12 3.54 1.85
3 3 -6 97.68 6.86
-5 5 0 6.21 2.37
-3 -3 6 98.27 4.87
-3 -3 7 6.4 2.12
-3 -3 6 94.02 7.18
-5 5 -1 10.52 2.85
3 3 -5 178.46 7.25
-7 -5 -7 36.84 4.91
-3 -3 5 179.59 6.48
5 -5 2 119.29 8.42
3 3 -4 32.3 3.66
-3 -3 5 187.89 6.05
-3 -3 4 34.11 2.78
-5 5 -3 0.93 1.38
3 3 -4 33.14 2.42
-1 5 3 10.74 2.04
3 3 -3 252.42 9.7
-5 5 -4 2.26 1.47
3 3 -3 240.78 6.77
3 3 -4 33.44 2.89
3 3 -3 252.39 7.31
-5 5 -5 3.05 1.4
3 3 -2 16.13 1.71
7 5 8 1.11 1.27
-3 -3 2 14.43 2.46
5 -5 5 0.96 1.17
-3 -3 2 15.06 1.88
-3 -3 2 14.48 1.85
3 3 -1 65.53 3.11
-5 5 -6 4.09 1.64
-3 -3 1 66.8 4.97
-1 5 -3 14.82 2.58
-3 -3 0 1250.3 16.89
5 -5 6 1.27 1.23
3 3 0 1260.54 12.95
3 3 0 1244.26 14.67
3 3 1 608.1 13.79
5 -5 7 6.63 2.15
3 3 1 620.15 8.89
-7 -5 -8 1.69 1.54
3 3 2 78.29 4.72
-5 5 -8 6.25 2.1
-3 -3 -2 81.22 4.42
-3 -3 -2 77.71 3.11
3 3 3 133.83 4.07
-5 4 9 0.76 1.23
-3 -3 -4 26.13 2.2
1 -4 -11 32.3 4.8
3 3 4 32.51 2.2
5 -4 -8 4.33 1.58
-3 -3 -5 66.07 3.79
-3 -3 -4 27.59 2.73
-3 -3 -5 64.46 4.19
5 -4 -7 -3.44 2.05
-3 -3 -6 5.33 1.31
-7 -5 -9 5.48 2.01
3 3 6 6.75 1.64
5 -4 -6 23.83 4.61
-3 -3 -7 65.23 4.22
-3 -3 -6 3.08 1.15
3 3 7 62.16 4.35
5 -4 -5 23.61 3.42
3 3 8 153.26 6.96
1 -4 -3 743.01 15.95
-3 -3 -9 247.53 9.95
-5 4 5 23.09 4.28
3 3 9 277.47 9.73
-3 -3 -8 145.46 5.34
-3 -3 -10 39.34 2.67
5 -4 -4 51.12 6.19
-3 -3 -11 133.33 8.27
7 5 9 3 1.68
3 3 12 22.44 2.89
5 -4 -3 14.96 2.63
3 3 13 5.14 2.03
3 3 12 20.05 3.36
3 3 13 3.77 1.42
5 -4 -3 13.03 3.11
-3 -3 -14 1.91 1.63
1 -4 2 281.34 7.63
3 3 15 2.14 1.71
5 -4 -2 9.64 2.64
3 3 15 2.59 1.42
3 3 14 2.58 1.25
-3 -4 10 1.77 1.74
5 -4 -1 8.37 2.32
3 4 -9 2.57 1.51
-7 -5 -10 2.51 1.58
3 4 -8 27.35 3.68
-5 4 0 9.15 2.6
-3 -4 7 3.63 1.9
-3 -4 9 2.56 1.6
3 4 -6 7.19 1.76
-5 4 -1 74.39 7.05
-3 -4 6 7.56 1.23
-1 3 15 3.33 1.91
3 4 -5 98.3 6.77
-5 4 -2 1.93 1.06
-3 -4 5 91.65 3.99
-3 -4 6 2.53 1.62
3 4 -5 85.13 5.4
-5 4 -2 0.52 1.15
3 4 -4 14.11 2.53
7 5 10 0.19 0.89
-3 -4 4 11.5 1.49
5 -4 3 5.29 2.02
-3 -4 4 10.16 2.28
-3 -4 4 13.89 1.72
3 4 -3 315.12 11.24
5 -4 4 10.67 2.6
-3 -4 3 332.85 8.39
-1 3 5 12.72 1.35
-3 -4 3 316.96 11.94
-5 4 -4 17.02 3.34
-3 -4 2 121.15 4.85
3 4 -3 313.25 6.95
3 4 -2 106.99 4.4
-5 4 -5 2.15 0.95
3 4 -2 111.36 5.18
-7 -5 -11 2.47 1.47
3 4 -1 5.08 1.43
-5 4 -6 6.59 2
-3 -4 1 7.25 1.25
3 4 -1 6.57 1.28
3 4 -1 10.27 1.55
-5 4 -6 10.7 2.66
3 4 0 13.41 2.09
1 -3 1 161.8 4.46
-3 -4 0 15.86 1.89
-5 4 -7 15.4 2.96
3 4 0 15.06 1.85
-3 -4 0 16.71 1.91
3 4 1 82.03 4.96
5 -4 7 20.49 3.46
-3 -4 -1 82.92 4.27
-7 -5 -11 0.48 1.1
-3 -4 -2 486.62 9.81
5 -4 8 8.72 2.46
3 4 2 499.24 11.69
3 4 1 76.49 4.01
-3 -4 -2 512.46 10.66
-5 4 -9 5.96 2.21
-3 -4 -3 23.32 2.25
-1 3 -6 181.76 8.39
-3 -4 -3 24.78 2.47
5 -4 9 4.66 1.7
-3 -4 -4 290.72 8.31
3 4 3 24.86 2.21
-3 -4 -4 282.42 8.36
-5 3 10 1.62 1.54
3 4 4 285.49 8.71
7 5 11 3.84 2.05
3 4 5 129.19 6.04
5 -3 -8 6.62 2.03
-3 -4 -5 137.26 5.45
-3 -4 -5 136.71 6.09
3 4 6 13.7 1.99
5 -3 -7 23.37 3.68
-3 -4 -6 16.36 1.95
-1 2 9 65.22 5.05
-3 -4 -7 173.27 6.06
5 -3 -6 3.99 1.52
-3 -4 -8 23.52 3.06
-3 -4 -7 175.17 7.71
3 4 8 24.65 2.8
-5 3 6 4.62 2.18
-3 -4 -9 181.12 5.93
-7 -5 -12 -0.51 1.01
-3 -4 -10 14.83 2.74
5 -3 -5 37.54 5.54
-3 -4 -10 12.72 1.62
3 4 9 172.12 7.53
-3 -4 -11 72.43 3.64
5 -3 -4 8.12 2.09
-3 -4 -12 95.33 7.64
-1 2 3 311.3 7.67
3 4 13 0.39 1.36
5 -3 -4 10.97 3
3 4 14 4.61 2.05
3 4 12 104.85 6.28
3 4 14 3.1 1.44
5 -3 -3 22.98 3.24
-3 -4 -15 -0.69 1.6
-7 -6 3 3.98 1.68
3 4 16 1.28 1.25
-5 3 2 15.46 3.31
3 5 -9 0.94 0.95
3 4 15 3.51 1.52
3 5 -8 9.58 2.39
5 -3 -1 3.17 1.58
3 5 -7 25.36 3.59
-1 2 -2 107.71 3.69
3 5 -6 14.94 2.61
5 -3 0 35.1 4.66
-3 -5 6 15.84 3.28
-3 -5 7 24.71 4.39
3 5 -5 5.62 1.83
-5 3 -1 11.59 1.87
-3 -5 5 3.99 1.67
7 6 -3 9.49 3.43
-3 -5 4 64.6 3.75
5 -3 1 13.12 2.83
-3 -5 4 72.3 6.31
3 5 -4 71.13 5.62
-3 -5 3 128.94 5.27
-5 3 -2 93.41 5.35
-3 -5 3 118.54 7.72
-1 2 -9 4.96 1.56
3 5 -2 550.61 14.42
5 -3 3 30.81 4.24
-3 -5 2 566.6 11.14
3 5 -3 126.08 6.51
3 5 -2 536.01 13.09
-5 3 -3 37.95 3.52
-3 -5 1 176.09 5.46
7 6 -2 0.28 1.43
3 5 -1 178.16 6.26
-5 3 -4 21.59 3.58
-3 -5 1 183.64 9.01
-3 -5 1 184.14 6.47
-3 -5 0 225.54 6.48
-5 3 -5 8.32 1.87
-3 -5 0 246.93 7.5
1 -1 -6 7.04 1.5
3 5 0 237.25 8.46
5 -3 5 4.9 1.85
3 5 1 57.15 4.13
-3 -5 0 246.04 10.07
-3 -5 -1 55.81 3.65
-5 3 -6 4.94 1.72
-3 -5 -2 25.34 2.65
7 6 -2 0.9 1.48
-3 -5 -2 27.35 2.43
-5 3 -7 6.25 1.85
3 5 3 174.06 6.63
3 5 2 25.73 2.64
-3 -5 -3 176.19 6.19
5 -3 7 5.12 1.94
-3 -5 -4 89.8 5.27
1 -1 -1 7.19 0.88
3 5 4 88.97 4.7
-5 3 -8 30.83 4.1
-3 -5 -5 92.42 4.64
-3 -5 -4 90.25 4.58
-3 -5 -6 75.59 5.25
5 -3 8 33.8 4.4
3 5 6 72.45 4.38
-7 -6 2 -0.07 0.98
-3 -5 -7 10.81 1.63
5 -3 9 13.33 2.99
-3 -5 -8 97.05 6.53
-3 -5 -7 10.13 2.1
3 5 8 99.34 5.27
-5 3 -10 0.81 1.01
-3 -5 -9 16.05 1.95
1 -1 4 54.73 3.23
-3 -5 -10 58.24 5.55
5 -3 10 3.02 1.68
3 5 10 60.21 4.49
3 5 9 17.78 2.46
-3 -5 -11 16.91 3.22
-5 2 10 -0.78 1.28
3 5 11 23.61 3.04
7 6 -1 38.43 6.22
3 5 12 19.13 2.95
-5 2 9 0.4 1.21
-3 -5 -13 20.68 3.98
-3 -5 -12 14.74 3.11
3 5 14 2.44 1.64
-5 2 8 19.36 3.85
3 5 15 5.53 2.34
-1 0 13 1.99 1.53
3 5 15 5.93 2.02
-5 2 7 52.7 6.06
3 5 16 -1.65 1.37
-3 -5 -15 5.13 2.27
3 6 -8 2.29 1.43
-5 2 6 5.04 1.96
3 6 -7 7.77 2.27
7 6 -1 31.97 5.26
3 6 -6 1.92 1.24
5 -2 -5 -1.5 1.15
3 6 -5 5.27 1.74
-3 -6 7 8.13 2.78
3 6 -4 24.55 3.3
5 -2 -4 0.61 0.87
-3 -6 4 22.52 2.42
-1 0 3 985.33 11.27
3 6 -3 292.31 11.07
-5 2 4 0.54 0.93
-3 -6 3 273.05 12.27
-3 -6 4 19.95 3.56
3 6 -2 110.92 6.61
5 -2 -3 5.16 1.88
-3 -6 2 110.94 7.53
-7 -6 1 29.59 4.19
3 6 -2 107.33 6.63
5 -2 -2 23.35 4.01
-3 -6 1 425.04 10.33
3 6 -2 108.31 3.25
-3 -6 1 412.16 14.06
5 -2 -1 307.89 13.73
3 6 -1 452.17 7.41
-1 0 -2 330.64 6.64
3 6 0 21.28 2.7
5 -2 0 1.01 1.18
-3 -6 0 24.23 2.49
3 6 0 19.72 2.78
-3 -6 0 22.56 2.69
-5 2 -1 4.56 1.03
3 6 1 189.02 7.36
-7 -6 1 34.38 4.39
-3 -6 -1 173.19 8.56
5 -2 1 6.13 1.94
3 6 1 172.73 8.09
-3 -6 -1 183.95 6.79
3 6 2 19.36 2.22
-5 2 -2 81.24 6.81
-3 -6 -2 22.48 2.69
-1 0 -12 6.65 2.23
-3 -6 -3 24.5 3.03
5 -2 3 18.78 3.32
-3 -6 -3 19.96 2.54
3 6 3 23.43 2.39
-3 -6 -4 29.15 2.79
-5 2 -3 15.73 2.03
-3 -6 -4 24.22 2.77
7 6 0 9.67 3.16
-3 -6 -5 164.87 8.2
5 -2 4 31.91 4.34
-3 -6 -5 158.71 6.96
3 6 4 35.67 2.84
-3 -6 -6 0.27 0.88
-5 2 -5 1.04 0.62
3 6 6 1.08 0.68
1 1 -5 31.54 1.6
-3 -6 -7 59.38 5.28
-5 2 -5 -2 1.27
3 6 7 61.17 3.81
-3 -6 -6 0.41 0.71
3 6 8 56.97 3.84
-5 2 -6 1.06 0.99
-3 -6 -9 25.57 3.79
-7 -6 0 6.98 2.06
3 6 9 22.24 2.59
-5 2 -7 30.6 4.12
-3 -6 -10 16.96 3.26
-3 -6 -9 20.73 2.38
3 6 10 20.59 3.04
-5 2 -7 30.12 3.6
3 6 11 107.98 6.81
1 1 -1 126.36 3.92
3 6 12 3.44 1.67
-5 2 -8 6.63 2.1
-3 -6 -13 1.07 1.34
-3 -6 -12 -0.47 1.08
3 6 14 12.87 2.87
-5 2 -9 8.29 2.17
3 6 14 7.44 2.32
-7 -6 0 11.58 2.58
-3 -6 -15 -0.71 1.36
-5 2 -9 8.39 2.26
3 6 16 9.66 2.68
3 6 15 -0.72 1.16
3 7 -8 13.16 3.09
-5 2 -10 1.76 1.22
-3 -7 7 6.1 2.5
-1 -1 -7 9.55 0.61
-3 -7 6 0.93 1.17
5 -2 10 3.8 1.76
-3 -7 5 11.67 2.97
3 7 -6 -2.14 1.43
3 7 -4 71.95 6.1
5 -2 11 1.02 0.84
-3 -7 3 67.6 6.42
7 6 0 9.08 3.02
3 7 -2 242.29 9.87
-5 2 -12 -3.63 1.8
3 7 -2 245.86 10.86
3 7 -3 60.94 5.47
-3 -7 1 76.5 4.72
5 -1 -9 -0.03 1.17
-3 -7 1 79.02 5.29
1 2 -8 151.1 7.9
3 7 -1 76.5 6.15
-5 1 9 -0.1 1.01
3 7 0 24.39 2.1
3 7 -1 75.48 3.42
3 7 0 19.79 2.58
-5 1 8 12.12 3.16
-3 -7 0 23.43 2.97
7 6 1 23.48 4.63
3 7 1 38.92 3.57
5 -1 -7 9.25 2.49
-3 -7 -1 36.93 3.3
-3 -7 0 25.25 3.64
-3 -7 -1 35.19 3.53
-5 1 7 5.49 1.98
3 7 1 36.83 4.21
-1 -2 1 355.98 7.36
3 7 2 24.02 2.78
-5 1 6 29.06 4.47
-3 -7 -2 29.32 3.2
3 7 2 21.84 2.27
-3 -7 -3 40.68 4.26
-5 1 5 80.18 7.13
-3 -7 -3 47.26 4.05
-7 -6 -1 23.35 3.78
3 7 3 43.42 3.01
5 -1 -4 0.2 1.19
-3 -7 -4 7.62 1.89
3 7 3 41.45 3.1
3 7 4 7.12 1.43
5 -1 -3 8.07 2.52
-3 -7 -5 4.85 1.62
-1 -2 -2 152.49 3.87
3 7 5 7.42 1.54
-5 1 3 8.06 2.31
-3 -7 -5 7.07 1.39
-3 -7 -5 7.63 1.55
-3 -7 -6 58.81 5.47
-5 1 2 91.01 7.24
3 7 6 59.4 3.37
-7 -6 -1 19.24 3.39
3 7 6 60.66 4.33
5 -1 -1 17.77 3.48
-3 -7 -7 57.34 4.08
-3 -7 -6 62.68 4.69
3 7 7 57.75 3.47
-5 1 0 1035.08 23.85
-3 -7 -8 71.56 6.42
1 2 5 846.82 7.99
-3 -7 -8 65.11 4.33
-5 1 -1 11.46 2.67
-3 -7 -8 69.49 4.96
3 7 8 72.49 5.16
3 7 9 13.78 2.39
-5 1 -2 10.14 2.51
-3 -7 -10 22.29 3.9
7 6 2 16.72 3.81
-3 -7 -11 8.68 2.64
5 -1 3 24.67 3.8
-3 -7 -12 5.78 2.24
3 7 10 22.68 3.27
-3 -7 -13 6.47 2.39
-5 1 -3 20.39 1.92
3 7 14 2.74 1.33
-1 -3 11 40.15 5.58
3 7 14 0.18 1.29
-5 1 -4 46.16 3.2
-3 -7 -15 -0.23 1.3
-3 -7 -14 0.45 1.28
3 8 -7 0.05 1.34
-5 1 -5 46.78 3.53
-3 -8 6 0.77 0.9
-7 -6 -2 21.75 3.67
-3 -8 5 5.32 2.16
5 -1 5 43.38 4.99
-3 -8 4 23.96 4.24
3 8 -5 8.98 2.52
-3 -8 3 2.14 1.51
5 -1 6 33.82 4.44
3 8 -2 1.2 0.93
-1 -3 1 921.11 13.22
-3 -8 2 0.99 0.97
-5 1 -7 17.85 2.57
-3 -8 1 62.76 6.04
-3 -8 2 -0.24 0.88
3 8 -1 53.32 5.61
5 -1 7 16.73 3.19
3 8 0 30.36 3.15
-7 -6 -3 4.16 1.81
-3 -8 0 28.18 3.41
5 -1 8 24.76 3.78
3 8 0 32.64 4.37
-3 -8 0 30.51 4.12
3 8 1 4.68 1.44
-5 1 -9 10.72 2.48
3 8 1 3.78 1.04
-1 -3 -1 225.27 6.46
-3 -8 -1 3.52 1.45
-5 1 -9 8.28 2.01
3 8 2 27.56 3.93
-3 -8 -1 3.76 1.48
-3 -8 -2 27.25 3.35
5 -1 10 18.41 3.34
-3 -8 -3 99.72 7.29
7 6 3 9.11 2.93
-3 -8 -3 108.97 6
5 -1 11 2.97 1.72
3 8 3 106.63 4.07
3 8 3 106.27 5.59
-3 -8 -4 29.77 4.06
-5 1 -11 2.22 1.41
-3 -8 -4 35.59 3.74
-1 -3 -5 163.79 6.55
3 8 4 34.25 3.25
-5 0 11 14.06 3.84
3 8 5 0.65 0.75
3 8 4 27.52 1.94
-3 -8 -5 0.2 0.77
5 0 -9 78.23 7.48
-3 -8 -6 16.29 2.55
-7 -6 -4 4.94 1.99
3 8 6 15.31 1.51
-5 0 9 75.55 7.81
3 8 7 7.66 1.83
3 8 6 13.53 2.28
-3 -8 -8 1.24 1.22
-5 0 8 18.9 3.63
-3 -8 -8 2.14 1.16
1 3 13 2.19 1.46
-3 -8 -9 5.12 1.52
5 0 -7 20.42 3.58
-3 -8 -10 11.81 2.29
-3 -8 -9 7.76 2.46
3 8 10 13.23 2.68
-5 0 7 15.49 3.28
3 8 11 47.61 5.17
7 6 4 2.13 1.51
3 8 12 3.5 1.92
-5 0 6 1.83 1.52
3 8 13 0.54 1.39
-3 -8 -12 2.5 1.85
3 8 14 16.53 3.5
5 0 -5 110.85 7.87
3 9 -5 4.11 2.18
-1 -4 2 101.52 5.19
3 9 -4 34.88 4.99
-5 0 5 99.35 7.73
3 9 -3 3.63 2.03
-3 -9 5 1.95 1.68
-3 -9 3 5.13 1.72
-5 0 4 5.71 1.91
-3 -9 2 0.83 1.02
-7 -6 -5 17.03 3.35
3 9 -1 2.56 1.93
5 0 -3 210.19 12.11
-3 -9 1 4.92 2.09
-3 -9 2 1.4 1.14
3 9 0 0.93 0.8
5 0 -2 86.6 7.68
-3 -9 0 1.82 1.34
1 4 3 20.71 1.08
3 9 1 19.68 2.56
5 0 -1 535.38 18.26
3 9 1 21.06 2.55
3 9 1 23.43 4.04
3 9 2 0.45 1.27
-5 0 0 30.12 4.08
3 9 2 1.88 0.99
7 6 5 17.54 3.65
-3 -9 -3 15.38 3.25
5 0 1 146.65 9.19
3 9 3 8.87 1.87
-3 -9 -2 3.28 1.38
-3 -9 -4 13.54 2.97
5 0 2 233.16 11.35
3 9 4 10.04 1.92
1 4 11 1.25 0.83
-3 -9 -5 88.15 7.54
-5 0 -2 215.37 3.26
3 9 5 79.93 5.63
-3 -9 -4 8.79 2.07
3 9 6 1.7 0.99
5 0 3 13.66 2.89
-3 -9 -7 4.89 1.89
7 6 6 0.79 1.08
-3 -9 -7 3.74 1.38
5 0 4 2.78 1.36
3 9 8 1.25 1.19
3 9 7 4.46 1.69
-3 -9 -9 2.7 1.78
-5 0 -4 3.94 0.86
-3 -9 -9 2.29 1.32
-1 -5 3 56.99 4.55
3 9 10 1.99 1.5
-5 0 -5 54.09 3.38
-3 -9 -11 16.58 3.95
-3 -9 -10 2.72 2.01
-3 -9 -11 13.11 2.49
5 0 6 13.92 2.76
3 9 12 21.67 3.94
-7 -6 -6 -0.07 1.06
-3 -9 -13 19.35 4.5
-5 0 -6 13.22 1.91
-3 -9 -14 2.19 1.65
-3 -9 -12 19.39 3.09
-3 -10 4 3.76 1.86
5 0 7 88.31 7.05
-3 -10 3 5.75 1.92
1 5 3 125.57 5.2
3 10 -2 18.59 3.83
-5 0 -8 18.33 3.04
-3 -10 2 17.07 3.83
-3 -10 3 4.17 1.97
-3 -10 1 4.91 2.13
-5 0 -8 19.56 2.72
3 10 0 22.85 4.23
7 6 7 2.12 1.46
-3 -10 0 22.83 3.91
5 0 9 5 1.86
-3 -10 -1 21.29 3.3
-3 -10 0 23.99 3.58
3 10 2 8.62 2.55
-5 0 -10 1.93 1.31
-3 -10 -3 0.32 0.95
-1 -5 -11 58.2 3.5
3 10 3 0.63 0.8
-5 0 -10 2.19 1.28
-3 -10 -4 95.8 6.83
3 10 3 0.76 1.13
-3 -10 -5 15.69 3.51
5 0 11 9.15 2.5
-3 -10 -5 13.03 2.69
-7 -6 -7 4.47 1.71
3 10 6 13.12 2.71
5 0 12 1.91 1.59
-3 -10 -7 0.37 1.16
-3 -10 -6 10.05 3.11
-3 -10 -7 1.4 1.12
-5 0 -12 4.26 1.77
3 10 8 9.98 2.53
1 6 -2 2.48 1.25
-3 -10 -9 3.23 1.93
-5 -1 10 10.82 3.29
-3 -10 -9 4.43 1.54
-3 -10 -8 5.63 1.85
3 10 10 13.14 3.06
-5 -1 9 0.33 1.42
-3 -10 -11 25.71 5.13
-7 -6 -7 3.35 1.75
-3 -10 -11 23.46 3.59
-5 -1 8 9.42 2.49
3 10 12 14.2 3.47
3 10 11 20.92 3.98
-3 -10 -13 14.19 4.04
5 1 -7 14.45 3.2
3 11 -2 2.02 1.77
1 6 3 54.61 2.05
-3 -11 2 -0.58 1.05
-5 -1 7 13.78 3.12
-3 -11 1 1.03 1.13
-3 -11 2 -0.26 1.12
3 11 0 4.37 2.26
-5 -1 6 49.89 5.37
3 11 1 3.47 2.15
7 6 8 3.5 1.95
3 11 2 0.04 1.29
5 1 -5 34.26 4.54
3 11 3 10.8 3.26
-3 -11 -1 3.08 1.4
3 11 4 9.56 2.92
-5 -1 5 31.5 4.51
-3 -11 -4 17.02 3.13
1 6 11 8.83 1.9
3 11 5 15.48 3.01
-5 -1 4 1.08 0.77
-3 -11 -6 2.76 1.77
-3 -11 -5 13.97 3.52
-3 -11 -6 5.79 1.96
5 1 -3 28.84 4
3 11 7 24.43 3.96
-7 -6 -8 3.04 1.66
-3 -11 -8 2.78 1.76
-5 -1 3 34.92 4.27
-3 -11 -8 2.7 1.39
-3 -11 -7 27.1 3.95
3 11 9 3.73 1.8
5 1 -2 72.78 6.1
3 11 10 1.82 1.54
1 7 -1 5.59 1.23
-3 -11 -11 3.23 1.98
-5 -1 2 78.52 6.36
-3 -11 -11 4.24 1.74
-3 -11 -10 1.7 1.4
-3 -11 -13 -0.33 0.89
-5 -1 1 1.96 0.99
3 12 2 4 2.37
-7 -6 -8 0.16 1.24
3 12 3 5.33 2.66
-5 -1 0 436.07 14.69
3 12 4 3.3 2.09
-3 -12 -2 8.66 2.45
3 12 5 8.78 3.29
-5 -1 -1 73.55 6.06
-3 -12 -5 9.66 2.57
-1 -7 -6 30.14 4.18
3 12 6 2.54 1.48
-5 -1 -2 493.82 15.44
-3 -12 -7 1.93 1.77
-3 -12 -6 2.66 1.85
-3 -12 -7 1.67 1.52
5 1 3 24.77 3.75
3 12 8 4.71 2.17
-7 -6 -9 -0.81 1.15
-3 -12 -9 4.33 2.16
-5 -1 -4 181.91 9.44
-3 -12 -9 5.34 2.06
-3 -12 -8 3.45 1.78
3 13 8 2.25 1.61
5 1 5 6.43 2
4 -9 -4 2.2 1.66
-1 -8 5 3.4 1.14
-4 9 2 -0.12 1.04
-5 -1 -5 3.64 1.5
-4 9 1 6.87 2.6
-4 9 3 -1.42 1.49
-4 9 0 -2.12 1.8
5 1 6 3.46 1.49
4 -8 -6 0.97 1.34
7 6 9 -1.91 1.4
-4 8 5 3.11 2.13
-5 -1 -6 3.39 0.91
4 -8 -5 5.43 2.16
4 -8 -6 2.09 1.42
-4 8 4 -0.01 1.09
5 1 7 44.16 4.99
4 -8 -4 7.33 2.43
1 8 5 2.12 1.11
4 -8 -3 15.38 3.56
-5 -1 -8 9.51 2.22
-4 8 3 15.4 3.93
-4 8 3 17.35 3.86
4 -8 -2 4.84 2.02
-5 -1 -8 7.85 1.72
-4 8 1 25.19 4.52
-7 -6 -10 8.57 2.53
4 -8 -1 23.83 4.13
5 1 9 2.39 1.49
-4 8 0 15.96 3.55
-4 8 1 21.95 4.22
-4 8 -1 2.14 1.69
-5 -1 -10 16.55 2.92
4 -8 1 4.42 1.82
-1 -9 3 8.82 2.01
4 -8 2 8.65 2.7
-5 -1 -10 14.21 2.54
4 -8 3 9.13 2.65
-4 8 -2 10.31 2.87
4 -7 -9 30.25 5.49
5 1 11 4.81 1.87
4 -7 -8 3.98 2.11
-7 -6 -10 4.13 1.69
-4 7 7 7.66 2.69
5 1 12 5.83 2.01
4 -7 -7 4.75 1.9
4 -7 -8 7.17 2.2
4 -7 -6 5.73 2.22
-5 -1 -12 6.56 2.09
-4 7 5 2.03 1.65
-1 -9 -7 108.09 9.11
4 -7 -5 0.35 1.23
-5 -1 -13 0.46 1.09
4 -7 -4 0.15 0.83
4 -7 -5 4.31 1.91
-4 7 3 11.6 2.9
-5 -1 -14 0.93 1.25
4 -7 -3 11.26 2.72
7 6 10 4.42 1.88
-4 7 2 0.84 0.95
5 2 -8 7.88 2.33
-4 7 2 3.87 1.96
-4 7 3 8.91 2.97
-4 7 1 7.34 2.38
5 2 -7 21.03 3.86
-4 7 0 3.54 1.92
1 10 3 1.67 1.19
4 -7 0 9.26 2.58
-5 -2 7 21.3 4.19
-4 7 -1 7.48 2.35
-4 7 0 5.03 2.08
-4 7 -2 2.92 1.53
-5 -2 6 31.21 4.03
4 -7 2 5.23 1.99
-7 -6 -11 4.68 1.96
4 -7 3 4.61 1.93
5 2 -5 47.14 5.4
4 -7 4 0.09 1.05
-4 7 -3 1.78 1.48
4 -7 5 5.23 1.91
-5 -2 5 40.38 5.29
4 -7 6 9.72 2.59
1 11 -1 5.4 2.55
-4 6 9 1.99 1.64
5 2 -4 -0.26 0.56
4 -6 -9 3.25 1.45
4 -6 -10 18.05 4.21
4 -6 -8 40.24 5.7
-5 -2 4 -0.53 0.99
4 -6 -8 46.9 5.18
-7 -6 -11 5.6 1.92
4 -6 -7 12.17 3.15
5 2 -3 104.63 4.62
4 -6 -7 9.65 2.37
-4 6 7 12.59 3.42
4 -6 -6 0.65 1.02
-5 -2 3 98.52 7.7
4 -6 -6 1.11 1.25
-1 -11 -12 15.54 2.99
4 -6 -5 30.37 4.47
5 2 -2 1.7 1.26
4 -6 -5 29.54 4.3
-4 6 5 31.17 4.99
4 -6 -4 1.54 1.47
-5 -2 2 0.61 0.78
4 -6 -4 2.83 1.48
7 6 11 5.44 2.14
4 -6 -3 18.78 3.28
-5 -2 1 74.12 5.9
4 -6 -3 18.23 3.29
-4 6 3 18.72 3.79
4 -6 -2 128.45 8.74
-5 -2 0 112.4 7.29
4 -6 -2 137.35 8.82
-2 10 0 2.02 1.74
-4 6 1 5.39 1.87
5 2 1 21.59 3.54
-4 6 1 5.92 2.12
-4 6 2 134.29 8.73
-4 6 1 8.14 2.75
-5 -2 -2 78.35 6.07
4 -6 0 -0.64 1.09
-7 -6 -12 2.59 1.36
4 -6 0 0.38 1.02
5 2 3 19.56 3.37
4 -6 1 21.74 3.21
-4 6 0 -1.27 1.39
4 -6 1 24.96 3.89
5 2 4 6.58 1.88
-4 6 -2 5.27 2.05
2 -9 -1 13.99 2.92
-4 6 -3 2.29 1.36
-5 -2 -5 115.09 3.86
4 -6 3 4.86 1.95
4 -6 2 5.22 1.56
-4 6 -4 3.6 1.47
5 2 5 112.9 7.63
4 -6 4 3.8 1.43
7 6 12 0.98 1.28
-4 6 -5 1.99 1.46
-5 -2 -6 72.68 5.92
-4 6 -6 7.03 2.4
4 -6 4 5.62 2.05
-4 6 -7 8.9 2.65
5 2 7 0.68 1
4 -5 -10 53.92 6.84
2 -8 -3 9.28 2.58
-4 5 9 39.55 5.85
-5 -2 -7 1.31 1.12
4 -5 -9 33.51 4.15
-4 5 10 65.94 7.62
4 -5 -8 4.75 2.17
-5 -2 -8 0.65 0.76
-4 5 7 19.44 3.94
-7 -7 3 -0.13 0.87
4 -5 -7 15.09 2.9
-5 -2 -9 22.06 2.82
-4 5 6 -0.28 1.28
4 -5 -7 13.44 3.06
4 -5 -6 0.77 0.82
-5 -2 -10 0.46 0.68
-4 5 5 13.79 3.38
2 -7 -9 21.31 4.39
4 -5 -5 17.41 3.38
5 2 10 -0.36 1.17
-4 5 4 0.25 1.16
4 -5 -5 15.62 3.09
4 -5 -4 -1.01 0.97
-5 -2 -11 5.92 1.83
4 -5 -3 4.7 1.69
7 7 -3 3.65 2.2
-4 5 2 -1.77 1.16
-5 -2 -12 7.76 2.18
4 -5 -2 -0.2 0.96
4 -5 -3 3.47 1.42
-4 5 2 -0.21 1.14
-5 -2 -13 1.86 0.97
-4 5 1 78.38 6.94
-2 7 0 -0.31 0.99
-4 5 1 86.94 6.47
-5 -2 -14 1.67 1.4
4 -5 0 4.12 1.57
-4 5 1 95.95 7.77
-4 5 -1 6.58 1.94
5 3 -8 2.78 1.84
-4 5 -1 6.23 1.84
7 7 -2 4.16 2.23
4 -5 2 16.14 2.78
5 3 -7 47.69 5.87
4 -5 2 17.13 2.19
-4 5 -2 20.55 3.19
4 -5 3 59.21 5.31
5 3 -6 -0.13 0.96
-4 5 -3 58.05 5.4
2 -6 -10 -1.44 1.35
4 -5 4 -0.11 0.64
5 3 -5 0.2 0.94
4 -5 4 -0.39 1.27
-4 5 -4 0.14 0.73
-4 5 -5 12.65 2.71
-5 -3 5 0.71 1.43
-4 5 -5 8.13 2.17
-7 -7 2 1.38 1.14
4 -5 5 9.13 2.28
-5 -3 4 6.31 1.74
4 -5 6 2.62 1.51
4 -5 5 8.79 2.01
4 -5 6 1.09 0.96
5 3 -3 82.13 6.83
4 -5 7 58.7 5.54
2 -6 -1 21.39 3.44
-4 5 -7 57.2 5.95
-5 -3 3 79.25 7.16
4 -5 8 10.51 2.74
4 -5 7 62.47 5.94
-4 5 -9 26.16 4.41
5 3 -2 144.83 9.93
-4 4 11 0.06 0.73
7 7 -1 4.49 2.22
-4 4 10 2.98 1.99
-5 -3 2 127.68 8.78
-4 4 9 19.96 4.08
4 -4 -11 3.81 2.04
4 -4 -9 17.38 2.91
5 3 -1 26.03 1.64
-4 4 8 54.79 6.44
-2 6 -6 -0.59 1
4 -4 -7 45.05 5.26
5 3 0 5.93 1.91
-4 4 7 34.48 4.95
4 -4 -8 54.66 5.09
4 -4 -6 9.22 2.27
5 3 1 131.58 8.64
-4 4 5 1.86 1.39
-7 -7 1 4.3 1.77
4 -4 -5 0.54 0.66
5 3 2 202.62 10.35
-4 4 4 18.52 3.48
4 -4 -5 0.95 1
4 -4 -4 19.01 2.64
5 3 3 106.14 7.42
4 -4 -3 82.8 6.1
2 -5 -5 3.69 1.57
4 -4 -3 86.31 6.9
5 3 4 2.5 0.51
4 -4 -2 96.37 6.36
4 -4 -3 91.6 5.59
-4 4 2 117.79 8.32
5 3 4 0.53 1.16
4 -4 -1 6.26 1.75
7 7 -1 3.09 2.02
-4 4 1 6.36 2.28
5 3 5 22.7 3.48
4 -4 0 85.66 6.47
4 -4 -1 4.43 1.39
-4 4 0 86.36 5.79
5 3 5 19.23 1.7
-4 4 -1 81.6 5.65
2 -5 2 73.92 5.08
-4 4 -2 7.53 1.78
-5 -3 -6 48.47 4.76
-4 4 -2 8.23 2.08
4 -4 1 79.49 6.15
4 -4 3 8.48 1.99
-5 -3 -7 193.77 7.14
-4 4 -4 5.97 1.83
7 7 0 41.27 5.95
4 -4 4 7.4 1.89
5 3 7 215.1 10.47
4 -4 5 -1.51 1.03
-4 4 -4 9.61 2.21
4 -4 5 0.07 0.83
-5 -3 -8 1.24 1.17
4 -4 6 38.77 4.23
2 -4 -13 38.87 5.93
-4 4 -6 47.12 4.84
-5 -3 -9 -0.33 0.58
4 -4 7 45.54 4.64
4 -4 6 40.48 4.25
-4 4 -7 41.05 4.73
-5 -3 -10 0.88 0.77
4 -4 8 40.21 4.45
-7 -7 0 55.58 5.55
4 -4 8 43.11 5.15
5 3 10 1.03 0.98
4 -4 9 4.61 2.05
4 -4 8 41.71 4.4
-4 4 -10 13.28 3.12
-5 -3 -11 2.03 1.24
4 -3 -12 3.57 1.92
2 -4 -4 71.62 2.2
4 -3 -11 -4.63 2.13
-5 -3 -12 5.79 2.09
4 -3 -10 -0.84 0.92
-4 3 11 1.4 1.47
-4 3 9 44.49 5.62
-5 -3 -13 9.18 2.62
4 -3 -8 37.7 4.38
7 7 0 46.83 6.68
4 -3 -7 32.84 4.3
-5 -3 -14 1.93 1.6
-4 3 7 44.05 5.34
-4 3 8 39.05 5.16
4 -3 -6 42.29 4.64
5 4 -8 -0.18 1.46
-4 3 6 46.45 5.3
2 -4 2 36.13 3
4 -3 -5 120.95 6.96
5 4 -7 73.67 7.4
4 -3 -4 58.77 4.97
4 -3 -5 133.77 7.82
4 -3 -4 65.48 6.25
5 4 -6 25.08 4.29
4 -3 -3 153.01 7.57
7 7 1 12.83 3.29
4 -3 -3 162 9.54
5 4 -5 48.14 5.74
4 -3 -2 25.81 3.73
4 -3 -3 157.85 7.48
-4 3 2 26.36 3.77
-5 -4 5 43.88 5.89
4 -3 -1 28.02 3.68
-2 3 13 -1.82 1.41
-4 3 1 22.16 2.6
-5 -4 4 63.69 5.2
-4 3 0 28.77 2.98
-4 3 1 23.33 3.52
-4 3 -1 20.85 3.23
-5 -4 4 72.67 7.28
-4 3 -2 0.66 0.55
7 7 1 9.23 2.93
-4 3 -2 0.81 0.83
-5 -4 3 35.18 3.86
-4 3 -3 125.3 6.42
4 -3 2 0.23 0.79
-4 3 -4 5.61 1.45
5 4 -2 58.52 5.81
-4 3 -4 5.25 1.72
-2 3 5 39.56 2.74
-4 3 -5 55.15 5.04
-5 -4 2 54.71 4.84
-4 3 -6 14.69 2.57
-4 3 -5 50.46 4.4
4 -3 6 16.21 2.8
5 4 -1 107.7 7.65
4 -3 7 24.35 3.38
-7 -7 -1 15.59 3
4 -3 7 21.73 3.2
-5 -4 1 100.95 6.49
4 -3 8 27.16 3.68
-4 3 -7 20.8 3.07
-4 3 -8 28.82 3.91
5 4 0 129.46 8.82
4 -3 9 39.19 4.47
-2 3 -3 7.63 1.39
-4 3 -10 13.32 2.91
5 4 0 111.75 3.15
4 -3 10 14.93 3.02
4 -3 9 38.99 4.92
4 -3 11 11.92 3.18
5 4 1 42.54 1.65
4 -2 -11 15.81 3.65
-7 -7 -1 10.92 2.45
4 -2 -10 8.41 2.47
5 4 2 78.57 1.91
4 -2 -9 4.39 1.81
-4 2 10 15.35 3.26
-4 2 8 8.27 2.34
5 4 2 83.41 2.25
4 -2 -8 8.66 2.29
-2 2 14 1.86 1.45
-4 2 7 3.05 1.41
5 4 3 39.14 4.54
4 -2 -7 2.87 1.46
-4 2 8 10.46 2.48
4 -2 -6 1.16 0.92
5 4 3 41.07 1.85
-4 2 6 5.46 1.86
7 7 2 3.8 2.15
-4 2 5 9.76 2.53
5 4 4 94.34 6.86
4 -2 -5 6.7 1.8
-4 2 6 4.15 1.52
4 -2 -4 846.38 18.21
-5 -4 -4 94.93 6.44
4 -2 -3 14.55 2.42
2 -2 -4 20.45 2.38
4 -2 -3 19.67 3.45
-5 -4 -5 11.97 1.47
4 -2 -2 22.78 2.53
4 -2 -3 17.48 2.35
-4 2 2 14.92 2.76
-5 -4 -5 9.34 2.2
4 -2 -1 365.79 9.56
-7 -7 -2 8.53 2.38
4 -2 -1 366.66 13.49
-5 -4 -6 115.92 7.22
-4 2 1 353.41 8.75
-4 2 1 340.53 8.64
-4 2 0 95.78 4.74
-5 -4 -7 65.46 4.44
-4 2 0 90.77 4.46
2 -2 2 64.28 3.89
-4 2 -1 89.32 4.77
5 4 7 54.17 5.37
-4 2 -1 94.73 4.57
4 -2 1 91.31 6.48
-4 2 -2 47.42 4.65
-5 -4 -8 42.63 4.39
-4 2 -3 156.84 8.3
-7 -7 -2 6 1.94
4 -2 3 164.54 8.6
-5 -4 -9 3.54 1.31
4 -2 4 9.7 2.17
-4 2 -3 161.29 6.37
-4 2 -5 17.99 2.43
5 4 9 7.09 2.11
4 -2 5 17.86 2.96
2 -2 11 4.29 2.07
4 -2 6 106.59 7.07
-5 -4 -10 4.38 1.64
-4 2 -7 33.5 3.8
-4 2 -6 100.89 6.64
-4 2 -7 29.65 3.54
5 4 10 4.74 1.7
4 -2 8 34.98 4.08
-7 -7 -3 1.64 1.33
-4 2 -8 32.89 3.9
-5 -4 -11 -0.4 1.04
4 -2 9 8.53 2.33
4 -2 8 38.52 4.35
4 -2 9 8.04 2.01
-5 -4 -12 -0.76 1.05
4 -2 10 22.09 3.8
-2 1 5 682.76 13.35
-4 2 -11 7.92 2.41
-5 -4 -13 2.61 1.6
4 -2 11 10.69 2.58
4 -2 10 23.12 3.53
-4 2 -12 0.91 1.13
-5 -4 -14 3.49 1.81
-4 1 12 3.15 1.85
-7 -7 -3 1.85 1.52
-4 1 11 2.91 1.74
-5 -4 -15 1.32 1.52
-4 1 10 5.89 2.38
4 -1 -11 -0.49 1.04
-4 1 9 81.24 6.78
5 5 -7 1.51 1.59
-4 1 8 1.86 1.25
-2 1 -1 882.02 13.54
4 -1 -8 4.57 1.77
5 5 -6 -0.34 1.05
4 -1 -7 2.64 1.34
4 -1 -8 8.05 2.05
-4 1 7 2.42 1.54
5 5 -5 34.97 4.88
4 -1 -6 35.34 3.84
7 7 3 2.92 1.59
-4 1 6 36.05 4.22
-5 -5 5 34.19 5.41
4 -1 -5 176.73 8.83
-4 1 6 34.81 4.18
-4 1 5 182.72 9.14
-5 -5 4 28.31 3.17
4 -1 -4 104.51 6.62
2 -1 8 19.2 2.87
-4 1 4 109.13 6.73
5 5 -3 33.02 4.58
4 -1 -3 1128.78 17.12
-4 1 4 113.77 7.27
-4 1 3 1078.01 12.74
-5 -5 3 35.18 3.57
4 -1 -2 15.47 3.03
-7 -7 -4 2.24 1.34
-4 1 2 16.69 1.45
5 5 -2 9.93 1.58
-4 1 1 44.33 2.47
-4 1 2 14.81 2.67
-4 1 1 47.02 4.56
5 5 -2 10.2 2.68
4 -1 0 91.59 6.46
2 0 -6 124.9 6.49
-4 1 0 89.81 3.41
-5 -5 2 7.47 1.75
-4 1 -1 127.19 4.47
-4 1 0 87.03 6.12
-4 1 -1 136.54 4.26
5 5 -1 39.45 4.72
-4 1 -2 24.63 2.18
-7 -7 -4 1.27 1.3
-4 1 -2 29.96 2.15
-5 -5 1 31.08 3.52
-4 1 -3 332.43 11.72
-4 1 -2 29.72 3.53
4 -1 3 310.7 11.63
-5 -5 1 29.41 4.44
-4 1 -4 24.03 3.22
-2 0 1 147.43 5.28
-4 1 -5 29.11 3.55
-5 -5 0 29.13 3.34
4 -1 5 26.54 3.51
4 -1 4 28.8 3.62
-4 1 -6 11.13 2.24
-5 -5 0 22.15 2.91
-4 1 -7 77.65 5.25
7 7 4 -0.03 1.43
4 -1 7 84.14 6.22
-5 -5 -1 25.01 3.19
4 -1 8 65.86 5.54
-4 1 -7 87.4 5.93
-4 1 -9 34.77 3.72
5 5 1 29.73 2.26
-4 1 -9 37.98 4.16
-2 0 -5 15.01 1.73
4 -1 10 13.88 2.76
-5 -5 -2 227.88 9.57
-4 1 -10 15.64 2.98
4 -1 10 15.76 3.09
4 -1 11 6.25 2.03
5 5 3 32.39 4.12
4 -1 12 16.06 3.52
7 7 5 0.36 1.27
-4 1 -13 1.39 1.45
5 5 3 34.93 2.7
-4 0 12 19.55 4.19
-4 1 -12 13.91 2.98
-4 0 11 3.2 1.85
-5 -5 -4 112.9 4.7
-4 0 10 14.6 3.33
2 1 -10 24.12 3.57
-4 0 9 1.3 1.33
-5 -5 -5 17.37 2.05
4 0 -8 3.85 1.7
4 0 -9 1.08 1.06
-4 0 8 5.78 1.66
-5 -5 -5 17.87 2.81
4 0 -7 1.74 0.82
-7 -7 -5 0.82 1.25
-4 0 7 2.19 1.23
-5 -5 -6 56.99 4.97
4 0 -6 249.45 11.22
-4 0 7 1.25 1.38
-4 0 6 249.49 11.43
-5 -5 -7 58.55 4.5
4 0 -5 15.43 2.26
2 1 -3 1730.83 15.78
4 0 -4 229.05 10.02
-5 -5 -7 57.89 4.63
-4 0 4 242.62 10.37
-4 0 5 20.11 3.18
4 0 -3 11.58 2.27
-5 -5 -8 3.75 1.39
-4 0 3 10.43 2.24
-7 -7 -5 0.01 1.25
-4 0 3 9.68 1.15
-5 -5 -8 5.42 1.52
-4 0 2 418.74 13.23
-4 0 3 8.96 2.18
4 0 -1 216.54 5.03
-5 -5 -9 88.64 6.27
-4 0 1 220.18 9.42
2 1 3 34.76 2.67
4 0 0 69.05 5.64
-5 -5 -9 82.41 5.42
-4 0 -1 9.27 0.68
-4 0 1 198.49 3.38
-4 0 -1 10.61 2.22
-5 -5 -10 -1.12 0.94
4 0 2 175.35 8.71
7 7 6 11.68 3.05
-4 0 -2 176.37 8.36
-5 -5 -10 0.09 0.77
4 0 3 178.29 8.67
-4 0 -2 168.78 4.05
-4 0 -3 171.32 8.21
-5 -5 -11 14.48 2.88
4 0 3 165.2 5.29
-2 -1 -14 2.06 1.53
-4 0 -4 73.48 3.54
5 5 11 11.17 2.52
4 0 4 76.27 4.14
-4 0 -4 74.27 5.41
4 0 5 45.32 4.46
5 5 12 8.62 2.21
-4 0 -6 46.18 4.29
-7 -7 -6 5.28 1.92
4 0 6 54.53 5.03
-5 -5 -13 4.24 1.78
-4 0 -7 5.03 1.6
-4 0 -6 48.59 3.56
-4 0 -8 178.21 8.31
-5 -5 -14 4.57 2.1
-4 0 -8 172.82 7.84
2 2 -4 526.83 10.69
4 0 9 11.14 2.45
5 6 -6 13.23 3.18
-4 0 -10 8.99 1.92
-4 0 -9 8.29 1.87
-4 0 -10 9.34 2.22
5 6 -5 7.6 2.35
4 0 11 0.45 0.96
-7 -7 -6 7.17 2.22
-4 0 -11 -0.3 1.29
5 6 -4 15.33 3.29
-4 0 -12 6.79 2.17
-4 0 -11 0.61 0.64
-4 0 -13 5.62 2.07
-5 -6 4 19.07 4.1
4 1 -11 16.12 3.45
-2 -2 -1 979.47 12.56
4 1 -10 18.14 3.42
-5 -6 3 58.05 4.57
-4 -1 9 -0.05 0.87
-4 -1 11 18.92 4.14
4 1 -8 3.58 1.58
5 6 -2 3 1.04
-4 -1 8 4.05 1.58
7 7 7 8.93 2.51
4 1 -7 4.1 1.73
5 6 -2 4 1.84
-4 -1 7 7.91 1.98
-4 -1 8 1.39 1.3
4 1 -6 22.91 2.9
-5 -6 2 3.89 1.25
-4 -1 6 24.52 3.31
-2 -2 -7 634.4 13.21
4 1 -5 118.68 7.64
5 6 -1 22.41 3.93
-4 -1 5 116.75 7.04
-4 -1 6 20.65 3.45
4 1 -4 76.17 5.9
-5 -6 1 25.51 2.97
-4 -1 4 65 5.2
-7 -7 -7 16.11 3.16
-4 -1 4 67.81 3.67
-5 -6 1 24.54 4.23
4 1 -3 72.22 3.83
-4 -1 4 64.64 5.64
-4 -1 3 80.5 6.08
5 6 0 10.2 1.69
4 1 -2 8.62 1.99
-2 -2 -15 0.67 1.19
4 1 -2 8.66 1.14
5 6 0 14.46 3.02
-4 -1 2 7.34 0.85
-4 -1 2 9.91 2.18
-4 -1 1 353.83 11.55
-5 -6 0 10.46 2.1
-4 -1 0 35.01 3.6
-7 -7 -7 13.12 2.83
-4 -1 -1 486.02 13.36
-5 -6 -1 54.06 4.43
-4 -1 -2 47.51 4.17
4 1 1 468.68 14.26
-4 -1 -3 43.95 1.83
5 6 1 52.31 3.81
-4 -1 -3 49.51 4.36
2 3 -3 206.21 7.75
4 1 4 4.46 0.87
5 6 2 6.9 2.09
-4 -1 -4 4.69 1.45
4 1 3 48 2.35
-4 -1 -5 134.73 7.15
-5 -6 -2 3.26 1.32
4 1 5 138.07 7.64
7 7 8 5.03 2.13
4 1 6 22.37 3.15
-5 -6 -3 15.03 2.56
-4 -1 -6 22.58 2.3
4 1 5 129.17 5.28
4 1 7 29.17 3.66
5 6 3 18.06 2.99
-4 -1 -8 37.39 3.84
2 3 1 463.8 8.32
-4 -1 -8 37.27 3.53
-5 -6 -4 107.81 5.53
4 1 9 52.31 4.84
4 1 8 41.48 4.36
-4 -1 -10 45.45 4.14
-5 -6 -4 113.13 6.53
-4 -1 -10 41.86 4.32
-7 -7 -8 5.02 1.99
-4 -1 -11 13.82 2.68
5 6 5 9.81 2.3
4 1 12 25.71 3.82
4 1 11 16.33 2.97
4 1 13 10.12 2.77
-5 -6 -5 9.62 2.05
-4 -1 -14 6.69 2.38
2 3 5 25.78 2.27
4 2 -11 4.34 1.89
-5 -6 -6 7.96 1.77
-4 -2 10 2.99 1.88
-4 -1 -14 3.71 1.9
4 2 -9 7.28 2.01
-5 -6 -6 7.9 1.84
-4 -2 8 22.46 4.04
-7 -7 -8 4.45 1.64
4 2 -7 9.85 2.47
-5 -6 -7 71.04 5.43
-4 -2 7 11.99 2.92
4 2 -8 17.78 2.77
4 2 -6 144.74 8.89
5 6 7 59.89 5.36
-4 -2 6 148.58 9.37
2 3 15 0.79 1.31
4 2 -5 20.39 3.33
-5 -6 -8 9.32 2.17
4 2 -5 18.96 2.23
4 2 -6 140.04 6.52
4 2 -4 120.12 7.55
5 6 8 8.61 2.06
-4 -2 4 116.35 7.85
-7 -7 -9 3.04 1.6
4 2 -3 142.89 7.98
-5 -6 -9 0.83 0.82
-4 -2 3 124.1 7.86
4 2 -4 131.87 5.2
-4 -2 3 134.49 5.15
-5 -6 -10 2.62 1.28
-4 -2 2 12.9 2.26
2 4 -1 1.46 0.73
-4 -2 2 12.11 2.4
5 6 10 4.63 1.62
4 2 -1 60.46 2.36
4 2 -2 12.88 1.17
-4 -2 1 64.53 4.78
-5 -6 -11 3.25 1.15
4 2 0 -0.53 1.01
-7 -7 -9 0.32 1.11
-4 -2 -1 94.3 5.76
-5 -6 -12 1.42 1.33
-4 -2 -2 177.27 7.96
4 2 1 79.76 5.87
-4 -2 -3 967.52 18.54
-5 -6 -12 -0.04 0.65
-4 -2 -4 306.07 10.54
2 4 3 0.44 0.43
4 2 4 306.73 11.07
5 6 13 9.85 2.43
4 2 5 9.27 2.02
4 2 4 286.9 6.04
4 2 5 11.36 1.43
5 6 14 5.09 1.94
-4 -2 -6 105.75 6.25
7 7 9 5.24 2.07
-4 -2 -7 30.7 2.83
5 7 -6 21.4 4.18
4 2 7 33.53 3.83
4 2 6 95.97 6.35
-4 -2 -8 56.21 4.64
-5 -7 5 26.95 5.09
-4 -2 -8 56.14 4.23
2 4 11 21.34 2.84
-4 -2 -9 17.33 2.67
-5 -7 4 1.78 1.18
-4 -2 -9 14.68 2.42
-4 -2 -9 16.67 2.52
-4 -2 -10 71.05 5.22
5 7 -3 7.67 2.38
-4 -2 -10 67.27 5.36
-7 -7 -10 1.38 1.41
4 2 11 3.48 1.58
-5 -7 3 8.99 2.91
4 2 12 17 3
-4 -2 -11 6.47 1.98
-4 -2 -13 21.5 3.78
5 7 -2 43.54 5.64
-4 -2 -14 3.8 2.13
2 5 -2 55.25 4.01
-4 -3 10 8.24 2.84
-5 -7 2 33.91 5.25
4 3 -9 8.39 2.21
-4 -2 -15 2.71 1.91
-4 -3 8 23.62 4.36
5 7 -1 74.3 7.08
-4 -3 7 2.42 1.63
-7 -7 -10 1.57 1.08
4 3 -6 46.39 5.16
-5 -7 1 66.72 7.08
-4 -3 6 45.76 4.06
4 3 -7 3.81 1.41
4 3 -6 46.25 3.96
5 7 0 0.21 0.67
-4 -3 5 66.52 4.8
2 5 2 0.46 0.38
4 3 -5 62.6 4.24
5 7 0 1.98 1.33
-4 -3 4 14.15 2.24
-4 -3 5 55.63 5.81
4 3 -4 11.07 1.7
-5 -7 0 1.47 0.94
-4 -3 3 23.25 2.79
7 7 10 1.26 1.29
-4 -3 3 15.43 3.08
5 7 1 3.85 1.63
-4 -3 2 412.16 14.44
4 3 -3 20.29 1.99
4 3 -1 8.22 1.29
-5 -7 -1 2.64 1.3
-4 -3 1 11.33 1.98
-2 -5 -8 118.7 5.27
4 3 -1 7.17 0.9
5 7 2 -0.61 1.19
-4 -3 0 246.49 9.07
-4 -3 1 10.15 2.15
4 3 1 8.42 1.9
-5 -7 -2 0.31 0.8
-4 -3 -1 11.34 2.04
-7 -7 -11 2.6 1.39
4 3 2 160.91 8.06
5 7 3 190.18 9.71
-4 -3 -2 156.95 7.28
4 3 1 9.78 0.78
4 3 2 149.52 3.56
-5 -7 -3 202.09 8.83
-4 -3 -3 705.12 8.05
-2 -6 5 3.04 1.68
-4 -3 -4 182.44 5.14
5 7 4 274.57 11.43
4 3 4 191.87 8.7
4 3 3 721.92 8.11
-4 -3 -5 31.43 2.49
-5 -7 -4 287.24 10.58
4 3 5 28.25 2.21
7 7 11 8.73 2.69
-4 -3 -6 0.8 0.56
-5 -7 -5 127.57 6.92
-4 -3 -7 4.71 1.28
4 3 5 29.48 3.45
4 3 7 3.33 1.36
5 7 5 117.02 7.33
-4 -3 -8 84.89 5.6
2 6 2 155.74 5.54
-4 -3 -9 73.81 5.33
-5 -7 -6 1.61 1
4 3 9 83.55 5.87
4 3 8 92.63 6.18
-4 -3 -10 94.85 5.99
-5 -7 -6 2.12 1.36
4 3 10 85.91 6.11
-7 -7 -12 0.04 0.86
4 3 11 4.66 1.62
-5 -7 -7 2.54 1.25
-4 -3 -12 63.77 5.99
-4 -3 -11 5.01 1.66
4 3 13 20.69 3.58
5 7 7 0.83 0.81
4 3 14 15.05 3.32
-2 -6 -9 5.03 1.83
4 3 14 15.01 2.73
-5 -7 -8 6.54 1.73
4 3 15 2.27 1.23
-4 -3 -14 20.13 3.89
4 4 -9 12.25 2.69
-5 -7 -9 33.05 4.32
-4 -4 8 26.84 4.72
7 7 12 0.72 1.08
-4 -4 7 8.18 2.73
5 7 9 34.71 3.96
4 4 -6 3.6 1.28
4 4 -7 11.05 2.73
-4 -4 6 4.74 1.17
-5 -7 -10 2.8 1.22
4 4 -5 119.58 8.14
2 7 -4 16.21 3.01
-4 -4 5 124.06 6.06
-5 -7 -11 -0.42 0.77
4 4 -5 124.1 6.41
-4 -4 5 131.75 5.92
-4 -4 4 67.7 4.48
5 7 11 1 1.08
-4 -4 4 58.76 5.98
7 8 -2 2.73 1.86
4 4 -3 19.83 3.24
5 7 12 16.69 2.91
-4 -4 3 16.13 2.22
4 4 -4 60.18 4.15
-4 -4 3 11.81 2.67
-5 -7 -13 -0.16 0.88
4 4 -2 10.38 2.29
-2 -7 -3 138.9 6.33
-4 -4 2 6.31 1.89
5 7 13 2.41 1.27
4 4 -1 23.05 3.23
-4 -4 2 7.59 1.54
-4 -4 1 14.46 2.79
5 7 14 0.34 1.05
4 4 0 115.82 5.13
-7 -8 2 5.49 1.91
-4 -4 0 108.81 5.83
5 8 -5 23.84 4.37
4 4 1 203.65 6.09
4 4 0 118.93 7.4
-4 -4 -1 210.87 8.11
-5 -8 4 23.3 4.88
4 4 2 32.79 2.26
-2 -7 -12 6.85 1.54
-4 -4 -2 30.14 3.15
5 8 -3 3.21 1.8
4 4 3 73.71 5.33
4 4 2 39.9 3.95
4 4 3 63.99 3.04
-5 -8 3 2.71 1.68
-4 -4 -4 69.23 3.74
-7 -8 1 -0.01 0.95
-4 -4 -4 72.2 4.94
-5 -8 2 0.67 0.83
-4 -4 -5 502.18 10.89
4 4 4 70.93 3.25
4 4 5 484.78 13.62
-5 -8 2 -1.27 1.46
-4 -4 -6 2.22 0.93
-2 -8 -1 69.33 4.91
-4 -4 -7 28.39 3.06
5 8 -1 9.08 2.5
4 4 7 25.98 3.26
-4 -4 -6 0.62 0.82
-4 -4 -8 8.08 1.83
5 8 -1 8.47 2.56
4 4 8 8.42 1.91
7 8 -1 3.52 2.24
-4 -4 -9 0.54 0.6
5 8 0 11.49 2.45
-4 -4 -10 105.88 7.04
-4 -4 -9 1.96 1.18
4 4 10 121.49 7.05
5 8 0 21.64 3.61
4 4 11 3.6 1.55
-2 -8 -11 80.35 8.18
-4 -4 -12 1.06 1.25
5 8 1 3.59 1.38
-4 -4 -13 15.34 3.33
-4 -4 -11 3.27 1.02
-4 -4 -14 2.06 1.67
-5 -8 -1 2.26 1.01
4 4 15 25.31 4.42
7 8 0 22.03 4.38
4 4 15 30.72 4.01
5 8 1 2.02 1.33
4 5 -9 34.24 4.56
-4 -4 -15 28.93 4.95
-4 -5 8 12.63 3.41
5 8 2 29.15 4.09
-4 -5 7 11.82 3.25
-2 -9 -2 108.25 6.5
4 5 -6 0 1.05
-5 -8 -2 30.97 3.14
4 5 -5 1.35 0.9
4 5 -6 0.24 0.83
-4 -5 5 4.18 1.14
5 8 3 105.68 7.09
4 5 -4 16.8 2.43
7 8 0 18.42 4.17
-4 -5 4 20.18 2.38
5 8 3 109.46 7.31
4 5 -3 24.65 3.59
4 5 -4 19.08 3.3
-4 -5 3 24.18 2.64
5 8 4 122.58 7.44
4 5 -3 22.22 2.66
-2 -9 -13 4.74 2.41
4 5 -2 15.18 2.72
-5 -8 -5 46.97 4.38
-4 -5 2 11.51 1.72
4 5 -2 12.56 1.89
4 5 -1 84.88 6.15
-5 -8 -6 61.16 5.47
-4 -5 1 86.52 5.01
-7 -8 0 18.5 3.22
4 5 -1 78.85 4.52
5 8 6 48.54 4.57
4 5 0 54.15 5.08
-4 -5 1 78 6.58
-4 -5 0 43.3 3.63
-5 -8 -7 9 2.13
4 5 0 48.67 3.5
-2 -10 -5 0.04 0.75
-4 -5 -1 94.62 5.27
-5 -8 -8 0.98 0.97
4 5 1 85.91 4.66
4 5 1 84.28 6.04
4 5 2 51.31 4.48
5 8 8 2.3 1.16
-4 -5 -2 50.6 3.91
7 8 1 1.63 1.61
4 5 3 365.48 11.71
-5 -8 -9 10.75 2.25
4 5 3 347.36 8.99
4 5 2 54.46 3.71
-4 -5 -3 372.26 10.56
-5 -8 -10 -0.56 1.27
4 5 4 0.96 0.61
-2 -11 -3 0.48 1.04
-4 -5 -4 1.94 1.08
5 8 10 2.36 1.17
-4 -5 -5 3.67 1.17
-4 -5 -4 0.96 0.94
-4 -5 -5 3.61 1.31
-5 -8 -11 1.19 1.07
-4 -5 -6 85.31 5.38
7 8 1 0.88 1.25
-4 -5 -6 99.71 5.4
5 8 11 1.56 1.26
-4 -5 -7 4.48 1.31
-4 -5 -6 87.84 5.45
-4 -5 -7 5.74 1.39
5 8 12 -0.56 0.74
-4 -5 -8 39.84 4.07
-2 -12 -4 9.21 2.35
-4 -5 -8 47.87 3.72
5 8 12 -0.26 1.02
-4 -5 -9 16.47 2.78
-4 -5 -8 37.52 3.69
4 5 9 16.85 2.54
5 8 13 1.62 1.26
-4 -5 -10 17.4 2.23
-7 -8 -1 3.94 1.85
4 5 11 10.14 2.22
-5 -8 -15 -0.67 1.35
-4 -5 -12 1.44 0.95
4 5 10 14.05 2.43
-4 -5 -13 1.02 1.03
5 9 -3 12.32 3.12
4 5 14 9.72 2.61
-3 9 4 0.3 1.26
4 5 15 6.07 2.33
-5 -9 2 0.19 0.86
4 5 15 3.24 1.51
4 5 14 8.2 2.26
4 6 -7 0.73 0.92
5 9 -1 32.58 4.57
4 6 -6 65.35 6.51
7 8 2 23.41 4.58
4 6 -6 54.53 5.19
-5 -9 1 27.57 4.92
4 6 -5 23.09 3.82
-4 -6 6 57.94 6.88
-4 -6 5 17.24 3.77
5 9 0 12.38 2.83
4 6 -4 0.83 1.19
-3 8 6 7.33 2.77
-4 -6 4 0.19 0.97
5 9 1 2.28 1.52
-4 -6 3 55.05 3.99
-4 -6 4 0.26 0.69
4 6 -3 54.17 4.55
-5 -9 -1 1.63 1.14
4 6 -2 3.48 1.61
7 8 2 26.82 4.67
-4 -6 2 2.84 0.8
5 9 2 8.64 2.35
4 6 -1 18.44 3.05
-4 -6 2 4.21 1.16
-4 -6 1 23.41 2.65
5 9 2 8.93 1.68
-4 -6 1 19.48 3.51
-3 8 -5 2.46 1.57
4 6 0 206.63 9.57
5 9 3 8.19 2.27
-4 -6 0 201.12 7.07
4 6 -1 19.74 2.64
-4 -6 0 196.77 10.5
5 9 3 5.44 1.45
4 6 1 371.5 12.52
-7 -8 -2 25.79 3.66
-4 -6 -1 358.26 10.36
-5 -9 -4 39.04 4.14
4 6 2 428.87 12.88
-4 -6 -1 344.2 9.44
-4 -6 -2 443.18 11.69
-5 -9 -5 29.41 4.04
4 6 3 61.55 4.75
-3 7 1 2.38 1.4
-4 -6 -3 60.47 4.21
5 9 5 29.46 3.3
-4 -6 -4 50.19 4.12
-4 -6 -3 61.48 4.41
-4 -6 -4 49.76 3.91
-5 -9 -6 4.07 1.62
4 6 5 12.68 2.14
-7 -8 -2 26.35 3.95
-4 -6 -5 13.77 2.15
-5 -9 -7 42.3 5.08
4 6 6 3.52 1.23
-4 -6 -5 12.26 2.17
-4 -6 -6 4.59 1.43
5 9 7 48.12 4.46
-4 -6 -7 7.63 1.88
3 -6 -7 1.3 1.22
4 6 7 6.44 1.54
-5 -9 -8 6.78 1.88
-4 -6 -8 56.48 4.08
-4 -6 -7 7.88 1.64
-4 -6 -9 15.76 2.96
-5 -9 -9 31.61 4.74
4 6 9 12.34 2.19
-7 -8 -3 5.44 1.91
-4 -6 -10 62.03 4.25
5 9 9 29.89 3.82
-4 -6 -11 4.8 1.8
-4 -6 -10 57.47 5.72
-4 -6 -11 2.71 1.07
-5 -9 -10 1.11 1.04
-4 -6 -12 1.47 0.84
3 -6 1 1.81 1.09
-4 -6 -13 1.33 1.09
-5 -9 -11 0.13 1.01
-4 -6 -14 3.46 2.01
4 6 12 2.38 1.37
4 6 15 10.99 2.86
5 9 11 0.85 1.08
4 6 15 8.51 2.49
-7 -8 -3 10.32 2.57
4 7 -7 6.6 2.16
-5 -9 -12 6.22 1.76
-4 -7 6 0.36 1.45
4 7 -8 8.68 2.71
4 7 -5 11.8 2.77
-5 -9 -13 0.16 1.05
4 7 -4 24.6 3.89
-3 5 11 8.5 2.95
-4 -7 4 22.72 4.28
-5 -10 1 0.08 1
4 7 -3 11.38 2.37
-4 -7 4 26.66 2.91
-4 -7 3 10.85 1.95
5 10 1 -2.49 1.56
4 7 -2 36.78 4.32
7 8 3 4.31 1.95
-4 -7 2 45.72 5.59
5 10 2 18.34 3.66
4 7 -1 62.41 5.46
-4 -7 2 48.85 3.94
-4 -7 1 79.39 5
5 10 3 12.49 3.05
-3 5 -2 113.4 6.98
3 -5 -2 2.28 0.76
0 0 2 446.49 6.12
-4 -7 0 187.21 6.36
0 0 3 1359.76 13.07
4 7 0 197.76 9.41
0 0 5 1166.5 15.97
4 7 1 254.72 10.45
0 0 -8 33.44 3.48
-7 -8 -4 12.45 2.69
0 0 -10 144.67 8.23
4 7 1 266.96 10.7
0 0 -14 10.03 2.95
-3 5 -6 120.55 8.17
0 -1 10 0.92 1.28
4 7 3 55.63 4.41
0 -1 7 30.35 1.99
0 0 -4 36.01 2.44
0 -1 5 139.46 3.55
-4 -7 -4 24.29 2.82
0 -1 4 261.07 7.35
3 -4 -12 5.86 2.41
0 1 -3 831.97 5.45
4 7 5 57 4.29
0 1 -2 224.65 3.31
-7 -8 -4 9.18 2.54
0 -1 -2 100.63 2.62
-4 -7 -7 7.92 2.06
0 -1 -3 326.69 3.59
3 -4 -6 18.11 3.04
0 -1 -5 418.91 3.64
-4 -7 -8 18.19 2.5
0 1 7 247.16 8.42
0 1 -3 831.95 11.1
0 -1 -9 109.22 6.57
4 7 9 26.07 2.97
0 1 12 42.88 4.07
-3 4 2 84.79 6.35
0 -2 13 6.08 2.61
4 7 10 7.17 1.91
0 2 -9 1.29 1.05
7 8 4 7.16 2.48
0 -2 6 18.87 1.36
4 7 11 3.19 1.22
0 -2 5 590.35 13.18
-3 4 -3 10.06 2.08
0 2 -3 53.4 2.3
-4 -7 -13 1.54 1.44
0 -2 3 52.82 1.59
0 1 13 1.13 1.18
0 2 -2 1519.63 16.77
4 7 15 2.29 1.45
0 2 -1 409.55 6.33
3 -4 6 4.73 1.49
0 2 1 210.54 4.51
4 8 -6 -2 1.41
0 -2 -3 1383.12 10.86
7 8 5 3.67 1.36
0 2 4 124.41 4.75
4 8 -4 11.07 2.65
0 -2 -5 1082.02 12.54
-3 3 12 7.68 2.47
0 -2 -7 210.68 3.75
-4 -8 3 13.59 3.43
0 2 8 87.99 2.36
0 2 1 203.25 4.44
0 2 11 15.06 2.83
-4 -8 2 8.12 2.68
0 2 13 14.43 3.04
3 -3 -7 231.13 9.3
0 -3 10 -0.76 1.9
4 8 -1 1.03 0.99
0 3 -7 4.53 1.39
-7 -8 -5 3.54 1.66
0 -3 5 2.59 1.24
4 8 0 0.66 0.77
0 -3 3 410.37 5.04
3 -3 -3 116.37 5.55
0 -3 2 18.33 1.67
4 8 1 65.99 5.12
0 3 -1 1229 13.61
0 -3 12 3.55 2.03
0 -3 1 1226.1 10.55
4 8 2 173.48 7.85
0 -3 0 788.87 8.91
-3 3 -1 23.09 2.98
0 3 1 1708.06 15.89
4 8 2 179.84 9.75
0 -3 -3 225.89 5.4
-7 -8 -5 4.47 1.73
0 3 4 270.96 4.66
4 8 3 177.84 9.63
0 3 6 166.74 4.43
3 -3 6 45.74 4.2
0 -3 -7 153.17 7.55
4 8 4 78.35 4.75
0 3 9 5.52 0.77
0 -3 -1 1731.8 19.27
0 3 11 38.11 4.18
-4 -8 -6 13.76 2.82
0 3 13 4.66 1.66
-3 3 -10 1.78 1.42
0 -4 10 -0.37 1.29
-4 -8 -7 9.64 2.4
0 -4 6 7.38 1.06
7 8 6 4.54 2.06
0 -4 4 12.62 0.86
-4 -8 -8 21.59 3.72
0 -4 2 1560.86 16.28
-3 2 9 62.31 5.61
0 -4 1 64.34 3.44
-4 -8 -9 10.83 2.78
0 4 0 260.61 5.74
0 3 15 -1.68 1.54
0 4 1 748.21 11.86
-4 -8 -10 3.31 1.77
0 4 2 577.06 10.96
3 -2 -4 198.45 7.93
0 -4 -4 280.81 9.64
-4 -8 -11 4.33 2.14
0 -4 -6 11.58 2.2
-7 -8 -6 9.75 2.54
0 4 8 23.26 2.97
-4 -8 -13 2.26 1.89
0 -4 -10 2.45 1.63
-3 2 1 24.54 2.99
0 -4 -12 5.34 2.25
4 8 15 0.17 0.89
0 5 -10 2.87 1.76
0 -4 -3 370.8 7.96
0 5 -6 2.22 1.26
-4 -9 4 -0.03 1.18
0 -5 4 99.36 2.54
3 -2 3 372.97 11.28
0 5 -2 49.99 2.88
4 9 -2 17.29 3.13
0 5 -1 259.92 7.02
-7 -8 -6 12.16 2.75
0 -5 0 127.62 5.17
-4 -9 1 23.59 4.34
0 -5 -1 174.69 6.11
3 -2 8 6.44 1.89
0 -5 -3 27.69 1.11
4 9 1 -0.1 0.85
0 5 4 152.23 2.74
0 -5 3 73.47 3.78
0 -5 -6 16.42 1.93
4 9 2 0.03 0.76
0 -5 -8 25.7 2.25
-3 1 12 7.96 2.49
0 -5 -10 3.74 0.9
4 9 3 13.79 2.49
0 5 12 4.08 1.79
7 8 7 9.21 2.69
0 -6 9 1.15 1.05
-4 -9 -4 13.78 2.96
0 -6 5 35.15 4.14
3 -1 -6 376.91 11.71
0 -6 3 32.82 2.81
-4 -9 -5 14.52 2.97
0 -6 1 0.82 0.71
0 -5 -9 5.68 2.01
0 -6 0 178.46 6.66
-4 -9 -6 16.93 3.35
0 -6 -1 15.84 2.71
-3 1 3 451.21 11.45
0 -6 -3 43.84 4.57
-4 -9 -7 1.68 1.38
0 6 5 47 1.89
-7 -8 -7 12.29 2.89
0 -6 -6 37.67 4.61
-4 -9 -8 7.74 2.5
0 6 8 2.12 1.27
-3 1 -1 401.01 7.94
0 -6 -10 7.74 1.43
4 9 9 1.84 1.21
0 -6 -13 0.65 1.29
0 -6 -2 530.26 15.44
0 -7 7 13.15 3.11
4 9 11 -0.48 1.14
0 -7 4 0.38 0.7
-3 1 -5 40.5 3.54
0 -7 1 13.86 2.09
4 9 13 -0.44 1.11
0 7 1 15.1 1.53
-7 -8 -7 12.51 2.78
0 7 2 3.05 0.63
-4 -10 3 1.17 1.55
0 -7 -4 510.2 16.9
-3 1 -10 1.5 1.06
0 -7 -6 21.24 3.76
-4 -10 1 -1.6 1.43
0 -7 -9 1.43 1.32
0 -7 2 5.07 1.41
0 -7 -12 1.65 1.56
4 10 2 17.79 3.85
0 8 -6 14.71 3.65
-3 0 10 4.68 1.83
0 -8 3 7.49 1.93
-4 -10 -3 0.83 1.18
0 8 -1 30.83 3.26
7 8 8 3.04 1.59
0 8 1 0.47 0.75
-4 -10 -5 13.79 3.25
0 -8 -4 46 5.6
3 0 -5 350.89 9.85
0 -8 -6 161.9 7.34
4 10 6 9.05 2.3
0 8 9 -0.39 1.75
0 -8 5 73.75 5
0 8 12 2.02 1.65
-4 -10 -7 31.38 4.14
0 9 -4 10.45 3.02
-3 0 2 56.13 4.05
0 9 -1 3.53 2.16
-4 -10 -9 19.12 3.91
0 -9 -2 91.82 5.96
-7 -8 -8 3.33 1.75
0 -9 -4 179.62 8.26
4 10 10 -1.5 1.62
0 9 7 1.25 1.47
-3 0 -3 135.55 6.28
0 9 10 7.89 2.69
4 10 12 -0.94 1.31
0 10 -3 0.88 1.45
0 9 -3 1.16 1.65
0 -10 -1 3.66 1.54
4 11 -1 9.63 2.96
0 -10 -3 10.3 3.02
-3 0 -7 29.18 2.98
0 -10 -6 0.49 1.07
-4 -11 -1 2.99 1.67
0 -10 -8 6.39 1.86
-7 -8 -8 1.68 1.46
0 -10 -11 1.6 1.82
-4 -11 -3 3.46 1.88
0 -11 -1 0.61 1.03
-3 0 -13 -0.84 1.3
0 11 4 1.73 1.5
-4 -11 -5 27.45 4.16
0 11 7 0.77 1.15
0 -10 -4 2.5 1.68
0 -11 -10 0.79 0.89
-4 -11 -6 4.97 2.11
-1 11 6 1.79 1.54
-3 -1 7 76.59 6.25
1 -11 -3 5.71 1.95
-4 -11 -8 28.3 5
-1 10 9 5.66 2.54
-7 -8 -9 6.09 2.18
-1 10 6 -3.61 1.94
4 11 9 0.7 1.04
-1 10 3 9.49 3.08
-3 -1 3 560.64 9.35
-1 10 1 0.62 1.01
-4 -11 -10 3.2 1.64
1 -10 3 0.38 0.79
-1 11 4 4.48 2.11
1 -9 -9 0.93 1.32
4 12 1 0.91 1.45
1 -9 -7 28.59 4.94
3 1 2 154.44 3.14
-1 9 4 35.58 4.8
-4 -12 -4 0.93 1.4
-1 9 2 83.13 6.98
-7 -8 -9 4.34 1.87
-1 9 -1 13.14 3.33
-4 -12 -6 0.95 1.18
-1 8 12 27.62 4.91
-3 -1 -7 41.57 3.48
1 -8 -9 5.38 2.3
-4 -12 -8 -4.55 2.24
1 -8 -6 1.4 1.34
1 -9 -5 0.44 1.32
1 -8 -3 6.02 2.13
-4 -12 -10 12.28 3.78
-1 8 1 42.38 5.42
3 1 13 1.26 1.11
-1 8 -2 37.86 5.23
-5 7 1 0.3 1.43
1 -8 5 3.66 1.49
7 8 9 1.56 1.31
1 -7 -13 0.57 1.68
5 -6 -8 3.28 1.87
1 -7 -10 6.61 1.61
-3 -2 7 11.57 1.47
1 -7 -7 20.62 3.84
-5 6 5 0.65 1.31
1 -7 -5 9.77 1.56
-1 8 0 18.36 3.6
1 -7 -2 1373.95 27.9
5 -6 -3 19.84 3.82
1 -7 -1 621.06 18.65
3 2 -4 82.54 4.14
1 -7 1 9.09 1.93
5 -6 -1 2.79 1.77
1 -7 3 28.74 3.21
-7 -8 -10 13.57 2.77
1 -7 6 3.9 1.14
5 -6 1 5.46 2.3
1 -6 -13 4.07 2.28
-3 -2 1 545.87 13.57
-1 6 10 29.04 4.33
5 -6 3 0.44 1.21
1 -6 -7 3.34 1.18
-1 7 0 69.03 6.52
1 -6 -4 22.91 2.23
5 -6 6 1.77 1.3
1 -6 -2 26.39 1.84
-3 -2 -5 137.86 4.98
1 -6 0 46.36 2.24
5 -5 -7 67.48 7.82
-1 6 -1 87.19 4.41
7 8 10 11.55 2.9
-1 6 -2 10.16 1.64
5 -5 -6 10.57 2.78
-1 6 -4 26.62 3.89
3 2 9 600.63 14.72
-1 6 -7 1.84 1.42
5 -5 -4 24.75 4.3
1 -5 -14 5.03 2.11
1 -6 -1 24.42 3.49
-1 5 10 1.45 0.94
5 -5 -2 0.65 0.89
1 -5 -8 13.4 2.85
3 2 14 18.57 2.8
-1 5 6 71.76 3.85
5 -5 0 7.36 2.23
-1 5 4 151.9 7.58
-7 -8 -11 5.09 1.82
-1 5 2 462.42 12.43
-5 5 -2 120.73 9.13
1 -5 0 828.8 15.07
3 3 -6 102.54 5.96
1 -5 1 42.47 2.35
-5 5 -4 1.74 1.05
-1 5 -2 38.12 2.91
-1 5 7 100.13 6.81
1 -5 4 102.95 6.04
-5 5 -5 -1.09 1.21
-1 5 -6 1.98 1.09
-3 -3 3 261.74 10.36
1 -5 9 4.93 2.28
5 -5 6 3.87 1.61
1 -4 -12 10.84 2.94
7 8 11 8.01 2.39
-1 4 10 95.59 5.93
5 -5 7 8.74 2.46
1 -4 -8 193.88 6.37
3 3 1 602.47 9.06
-1 4 6 32.16 3.53
5 -4 -8 7.91 3.11
1 -4 -4 534.74 11.14
1 -5 7 1.07 1.14
1 -4 -2 56.74 1.74
-5 4 7 0.88 1.3
-1 4 0 180.51 5.42
3 3 5 71.9 4.6
-1 4 -1 59.56 3.4
5 -4 -5 21.68 4.27
-1 4 -2 305.97 7.48
-7 -8 -12 2.9 1.43
-1 4 -3 33.03 2.37
-5 4 4 51.27 6.25
1 -4 5 216.97 6.75
-3 -3 -10 42.19 4.46
1 -4 6 36.03 4.01
5 -4 -2 10.56 2.18
1 -4 10 -0.86 1.29
1 -4 0 181.04 7.67
1 -3 -13 132.96 10.21
-5 4 1 9.54 2.62
1 -3 -10 11.19 2.68
3 4 -11 -3.41 1.77
1 -3 -8 46 4.59
5 -4 1 76.04 6.74
1 -3 -6 148.98 5.22
7 8 12 3.16 1.67
1 -3 -4 1305.85 19.69
-5 4 -3 6.04 1.71
1 -3 -2 282.8 4.59
-3 -4 5 90.09 7
-1 3 1 1616.57 19.85
-5 4 -4 18.54 2.87
-1 3 0 425.97 7.99
1 -3 -9 2.23 0.63
1 -3 1 157.35 4.7
5 -4 5 1.46 1.18
1 -3 2 93.64 4.02
-3 -4 2 116.34 4.99
-1 3 -4 255.12 8.95
5 -4 6 11.8 2.67
1 -3 5 337.73 10.35
7 9 1 26.87 4.83
1 -3 7 39.54 2.33
-5 4 -8 10.6 2.68
-1 3 -10 10.28 2.57
3 4 1 77.19 4.18
-1 2 13 24.22 4.14
5 -4 9 5.01 1.97
-1 2 10 69.88 5.59
1 -3 3 216.34 6.34
1 -2 -8 55.69 4.86
-5 3 9 26.43 4.84
-1 2 6 892.37 15.86
3 4 4 276.31 7.46
-1 2 4 230.61 6.89
-5 3 7 23.78 4.4
-1 2 3 303.2 7.89
7 9 2 7.15 2.61
1 -2 -2 732.73 11.81
5 -3 -5 32.62 4.05
1 -2 -1 5383.81 27.1
-3 -4 -8 22.42 2.19
-1 2 0 464.95 7.86
-5 3 4 6.86 2.32
1 -2 2 105.2 4.85
1 -2 -5 26.18 1.94
1 -2 3 5.7 0.98
-5 3 3 24.36 4.12
1 -2 4 478.3 7.92
-3 -4 -14 4.36 1.98
1 -2 6 0.71 0.83
-5 3 1 5.73 2.09
1 -2 8 31.71 3.79
7 9 3 6.1 2.48
-1 2 -11 20.47 3.5
-5 3 -1 15.13 3.27
1 -1 -13 22.97 4.2
3 5 -5 2.6 1.15
-1 1 10 1.07 0.99
5 -3 2 92.27 7.35
1 -1 -8 404.97 12.39
-1 2 -5 599.97 13.18
1 -1 -5 38.26 2.57
5 -3 4 20.71 3.53
-1 1 4 322.65 8.02
-3 -5 2 544.44 15.87
1 -1 -3 88.47 3.59
-5 3 -5 7.75 2.21
-1 1 2 500.1 6.72
-7 -9 -3 6.09 1.87
-1 1 1 7.78 0.9
5 -3 6 8.07 2.15
-1 1 -1 148.26 4.07
-3 -5 -1 50.26 3.14
-1 1 -2 3346.23 19.21
-5 3 -8 28.81 3.93
-1 1 -4 57.82 3.41
1 -1 -4 328.9 7.73
1 -1 5 310.92 7.74
-5 3 -9 9.05 2.4
1 -1 7 129.43 2.89
3 5 5 90.17 4.78
1 -1 10 31.39 4.15
5 -3 10 1.91 1.46
-1 1 -13 5.32 2.3
-7 -9 -3 7.25 2.35
-1 0 11 8.52 2.43
5 -2 -9 1.67 1.05
1 0 -8 91.4 5.73
3 5 10 72.73 5.04
1 0 -6 31.91 2.07
5 -2 -7 39.79 4.91
-1 0 4 30.67 2.11
-1 1 -8 30.64 3.45
1 0 -3 993.44 12.52
5 -2 -5 0.13 1.12
1 0 -2 128.58 3.94
3 6 -9 5.97 2.26
1 0 -1 1859.34 13.1
5 -2 -4 1.02 1.41
1 0 1 371.14 5.96
-7 -9 -4 1.77 1.25
1 0 4 195.93 5.45
-5 2 3 3 1.32
1 0 5 2.87 0.87
3 6 -3 286.59 10.86
-1 0 -8 10.8 2.03
-5 2 1 295.14 13.31
-1 0 -10 -0.53 0.98
-1 0 1 1805.63 13.4
1 0 14 2.77 2.1
-5 2 -1 4.8 1.57
-1 -1 10 47.01 5.25
-3 -6 0 25.33 3.52
-1 -1 7 84.71 5.8
-5 2 -2 88.93 4.4
-1 -1 5 36.77 3.26
-7 -9 -4 0.66 0.96
-1 -1 4 274.37 7.48
-5 2 -4 31.85 4.26
1 1 -3 242 5.93
-3 -6 -4 30.22 3.41
-1 -1 2 222.49 5.83
5 -2 5 -1.9 1.33
1 1 -1 135.13 3.1
-1 -1 9 29.72 2.52
-1 -1 -1 243.7 3.42
5 -2 6 0.48 1.06
1 1 3 2714.77 17.37
-3 -6 -8 49.32 3.52
-1 -1 -5 35.78 2.68
-5 2 -8 5.86 1.71
-1 -1 -6 35.53 1.31
-7 -9 -5 9.33 2.41
-1 -1 -8 1.47 0.99
5 -2 9 11.96 2.73
-1 -1 -11 3.45 1.57
3 6 13 4.52 1.79
-1 -1 -14 17.99 3.71
5 -2 10 0.05 1.06
-1 -2 10 8.25 2.45
1 1 3 2763.94 17.95
-1 -2 7 3.89 0.64
-5 2 -11 1.76 1.25
1 2 -4 245.75 4.33
-3 -7 4 57.26 6.19
-1 -2 3 317.62 8.54
-5 1 9 -0.8 1.3
1 2 -2 459.9 6.11
-7 -9 -5 7.41 2.02
1 2 -1 355.05 4.67
-5 1 8 5.7 2.15
1 2 0 532.66 8.43
3 7 0 23.48 2.9
1 2 0 544.03 8.07
5 -1 -6 30.78 4.22
1 2 1 4180.94 22.67
-1 -2 3 304.95 4.78
1 2 2 141.29 3.55
5 -1 -4 -0.1 0.77
-1 -2 -3 4855.07 26.86
3 7 2 25.82 2.35
-1 -2 -4 577.14 6.61
5 -1 -3 7.97 2.13
1 2 5 826.25 11.58
-7 -9 -6 0.01 0.62
1 2 7 37.15 2.66
-5 1 1 15.55 3.08
-1 -2 -9 25.8 3.29
3 7 5 5.76 1.1
1 2 12 1.83 1.11
5 -1 1 11.13 2.73
1 2 15 -1.6 1.53
-1 -2 -3 4796.84 24.32
1 3 -9 4.04 1.69
5 -1 2 8.69 2.3
1 3 -5 13.53 2.1
-3 -7 -9 11.9 2.77
1 3 -3 215.44 7.37
-5 1 -4 46.84 5.01
-1 -3 2 106.99 3.58
-7 -9 -6 2.48 1.59
1 3 -1 916.4 10.48
-5 1 -5 41.28 4.76
1 3 0 282.47 7.44
3 7 15 3.82 2
1 3 0 276.14 5.64
-5 1 -6 28.07 2.95
1 3 1 211.33 5.49
-1 -3 4 46.05 3.85
1 3 2 192.55 4.41
-5 1 -8 21.89 3.41
1 3 3 390.62 6.7
-3 -8 1 47.11 4.39
-1 -3 -3 358.69 6.38
5 -1 9 7.49 2.12
1 3 4 357.53 7.19
-7 -9 -7 1.52 1.28
1 3 5 176.54 5.39
-5 1 -10 19.89 3.27
1 3 7 32.26 2.04
3 8 2 32.73 3.18
1 3 9 108.58 5.88
-5 1 -12 -0.93 1.08
1 3 11 1.75 1.09
-1 -3 -3 370 6.33
-1 -3 -14 5.15 2.11
-5 0 9 85.2 7.74
1 4 -9 265.19 12.12
3 8 5 0.96 0.46
-1 -4 6 194.5 9.6
-5 0 8 15.46 3.53
1 4 -3 16.98 2.41
-7 -9 -8 6.44 1.99
1 4 -1 60.28 2.17
5 0 -6 0.45 1.09
1 4 0 17.59 1.3
-3 -8 -10 13.2 3.17
-1 -4 -1 1925.92 16.64
-5 0 5 106.22 7.9
1 4 2 51.82 1.42
1 4 -7 52.8 4.97
-1 -4 -4 338.13 6.59
5 0 -3 180.57 9.61
-1 -4 -6 345.97 7.21
-3 -9 3 3.22 1.83
1 4 8 3.92 1.15
-5 0 2 81.99 6.7
-1 -4 -10 183.97 5.5
-7 -9 -9 -0.38 0.93
1 4 12 -1.03 1.11
5 0 0 20.59 3.61
-1 -4 -15 0.97 1.63
-3 -9 -1 19.29 2.96
-1 -5 8 156.24 10.08
-5 0 -2 231.76 10.88
-1 -5 5 2.18 0.85
-1 -4 -7 59.31 3.04
1 5 -2 15.91 2.55
-5 0 -3 11.67 1.15
1 5 -1 5.81 0.79
-3 -9 -6 3.84 1.54
1 5 0 273.61 9.93
-5 0 -5 51.02 5.15
1 5 2 992.91 12.79
7 10 2 11.12 3.27
-1 -5 -4 33.99 1.94
-5 0 -6 10.85 2.41
-1 -5 -6 26.71 2.24
3 9 11 13.18 3.03
1 5 8 33.14 3.46
-5 0 -7 86.7 5.18
-1 -5 -10 42.73 3
1 5 0 271.77 5.61
1 5 12 8.35 2.2
-5 0 -9 0.88 1
-1 -5 -15 2.59 1.72
3 10 -1 6.87 2.59
1 6 -6 86.16 6.97
5 0 10 1.39 1.1
-1 -6 4 6.55 1.33
7 10 3 4.89 2.46
-1 -6 2 3.21 0.98
-5 0 -11 8.02 2.26
-1 -6 0 148.46 6.35
3 10 4 94.02 6.48
1 6 1 176.15 6.31
-5 0 -13 0.46 0.88
-1 -6 -3 58.87 4.99
1 6 -8 0.08 1.13
-1 -6 -4 29.27 2.54
5 1 -8 11.01 2.95
-1 -6 -6 56.96 5.35
-3 -10 -10 16.03 3.9
-1 -6 -8 8.64 1.49
-5 -1 7 20.24 3.49
1 6 10 73.93 6.02
7 10 4 2.82 2.03
1 6 13 1.14 1.04
-5 -1 6 47.14 5.71
-1 -7 8 8.93 2.94
-3 -11 1 1.13 1.19
1 7 -4 95.89 7.47
5 1 -4 2.58 1.43
-1 -7 2 34.51 3.11
1 6 7 5.57 1.62
1 7 0 12.25 2.63
5 1 -3 32.29 2.59
-1 -7 -2 9.86 1.68
3 11 6 7.28 2.15
-1 -7 -3 81.49 6.4
5 1 -2 75.03 7.09
-1 -7 -5 15.26 2.94
7 11 7 2.39 1.29
-1 -7 -7 98.97 5.14
5 1 0 446.98 16.26
-1 -7 -9 4.17 1.18
-3 -11 -12 3.23 1.54
-1 -7 -12 -1.56 1.59
5 1 2 492.12 16.39
1 8 -7 0.87 1.3
-1 -7 -2 7.78 2.12
-1 -8 4 8.22 1.88
-5 -1 -4 177.13 3.78
-1 -8 1 9.35 2.01
3 12 7 -0.3 1.07
-1 -8 -1 93.35 5.5
-5 -1 -5 6.57 0.99
-1 -8 -4 4.5 1.72
8 -1 -1 3.46 2.04
1 8 7 4.02 1.74
-5 -1 -6 2.23 1.26
1 8 9 102.81 7.69
-4 9 1 -0.13 0.98
-1 -8 -12 2.07 1.53
-5 -1 -7 54.46 3.93
-1 -9 4 6.1 1.75
-1 -8 0 5.1 1.5
-1 -9 2 21.05 2.93
-5 -1 -9 1.58 1.21
-1 -9 -1 16.78 2.49
-4 8 2 2.14 1.51
1 9 3 35.07 4.03
5 1 10 15.99 3.16
-1 -9 -6 56.47 6.43
8 0 -1 1.38 1.45
-1 -9 -8 15.97 2.57
-5 -1 -11 5.33 1.71
-1 -9 -11 3.41 1.33
-4 8 -4 7.2 2.58
-1 -10 3 4.7 1.67
-5 -1 -13 2.92 1.67
-1 -10 -1 3.39 1.43
1 9 2 5.97 1.74
-1 -10 -4 16.79 3.75
-5 -2 9 46.2 6.47
-1 -10 -6 1.65 1.07
4 -7 -4 0.91 1.27
-1 -10 -9 8.41 3.2
-5 -2 7 22.89 3.57
-1 -10 -12 1.77 1.18
8 1 -1 38.75 5.91
-1 -11 -1 0.21 0.94
-5 -2 6 31.45 4.8
-1 -11 -4 -0.79 1.87
4 -7 1 9.2 2.53
1 11 7 2.71 1.78
5 2 -4 -0.43 1.34
1 11 10 19.13 4.21
-1 -10 -8 75.65 8.38
1 12 8 4.86 2.63
5 2 -3 98.86 7.37
-2 10 6 20.78 4.46
-4 6 8 37.66 5.83
-2 10 4 31.26 5.5
5 2 -2 0.44 1.1
-2 10 1 -0.24 1.39
-8 -1 -2 4.38 2.3
2 -9 -10 6.07 1.74
5 2 -1 69.53 6.61
-2 9 7 12.71 3.46
-4 6 4 1.28 1.2
2 -9 -4 34.45 4.37
-5 -2 -1 15.87 2.8
2 -9 -2 10.31 2.52
-2 10 5 96.73 9.08
-2 9 -1 3.66 2.36
-5 -2 -3 14.9 2.69
2 -8 -10 3.47 2.08
4 -6 -1 3.98 1.67
-2 8 7 0.79 1.27
5 2 4 8.81 0.99
2 -8 -4 0.48 1.26
8 1 2 2.97 1.98
-2 8 2 46.24 5.33
-5 -2 -6 70.6 3.72
-2 8 -1 29.68 4
4 -6 3 2.07 1.17
-2 8 -4 14.03 3.43
-5 -2 -7 1.57 0.72
2 -7 -11 0.58 1.71
2 -8 -9 37.4 5.91
2 -7 -8 20.18 4.11
5 2 8 -0.48 1.18
2 -7 -6 13.02 2.5
-4 5 8 5.87 2.48
2 -7 -4 4.67 1.27
-5 -2 -10 2.61 1.3
2 -7 -1 88.75 6.28
-8 -1 -3 13.88 3.78
2 -7 1 282.28 11.14
5 2 11 3.19 1.46
2 -7 4 22.3 3.19
4 -5 -4 -1.16 1.07
2 -7 7 0.81 1.03
5 2 13 0.78 1.04
-2 6 11 1.77 1.49
2 -7 -5 23.1 2.88
2 -6 -8 56.52 6.31
-5 -3 8 -0.54 1.43
2 -6 -6 10.78 2.59
-4 5 0 1.71 1.3
2 -6 -3 15.83 2.1
-5 -3 6 -1.29 1.43
2 -6 -2 72.39 5.39
8 1 3 8.46 3.18
2 -6 0 127.88 7.12
5 3 -4 8.38 2.33
2 -6 1 19.87 2.16
4 -5 4 -1.44 1.04
-2 6 -3 99.88 7.5
-5 -3 3 84.61 6.19
2 -6 4 21.83 3.06
2 -6 -4 108.45 7.74
2 -6 7 0.19 1.04
-5 -3 2 143.45 8.04
-2 5 12 23.51 4.34
4 -5 8 9.69 2.29
2 -5 -9 27.5 3
-5 -3 1 26.12 3.45
2 -5 -6 24.6 2.97
-8 -2 1 2.33 1.86
2 -5 -4 12.8 1.41
-5 -3 -1 120.32 7.31
2 -5 -2 61.15 4.07
-4 4 6 10.66 2.9
2 -5 -1 503.84 11.24
-5 -3 -3 102.27 6.77
2 -5 1 36.51 3.66
-2 5 10 4.21 1.77
2 -5 2 73.61 4.23
-5 -3 -5 19.39 1.64
-2 5 -4 73.04 5.97
4 -4 -2 104.68 7.38
-2 5 -6 20.02 3.35
-5 -3 -6 51.68 3.32
2 -5 9 4.21 1.97
-8 -2 0 56.51 7.1
2 -4 -11 63.09 6.86
-5 -3 -7 196.4 9.54
2 -4 -9 60.99 6.13
-4 4 -3 10.14 2.09
-2 4 7 134.09 8.08
5 3 8 -0.55 1.07
2 -4 -5 109.26 3.24
2 -5 5 41.8 3.78
2 -4 -3 71.65 5.24
-5 -3 -10 0.47 0.79
2 -4 -2 56.29 1.97
4 -4 7 44.73 4.85
2 -4 0 11.82 1.18
5 3 11 0.29 1.02
2 -4 2 32.4 3.14
8 2 1 25.83 5.45
2 -4 3 66.27 4.07
5 3 13 6.38 2.09
2 -4 5 7.61 1.8
4 -3 -9 43.47 5.42
-2 4 -6 0.77 1.12
-5 -4 8 2.43 1.71
-2 4 -10 7.71 2.34
-2 4 1 50.12 4.25
-2 3 12 6.78 1.96
-5 -4 6 25.63 4.69
-2 3 9 148.62 7.53
4 -3 -4 57.23 4.64
-2 3 7 1.98 0.91
5 4 -4 73.66 6.82
2 -3 -6 4.39 1.24
-8 -2 -1 27.14 5.03
2 -3 -4 317.6 8.1
5 4 -3 38.41 4.76
-2 3 2 11.89 1.98
4 -3 1 28.01 3.66
-2 3 0 618.57 12.78
5 4 -2 53.53 6.13
2 -3 2 327.2 8.9
-2 3 8 94 5.55
-2 3 -4 22.85 2.77
5 4 -1 104.33 8.2
-2 3 -6 162.58 5.95
-4 3 -6 14.23 2.54
2 -3 7 34.75 3.94
-5 -4 0 117.89 7.02
-2 3 -11 -0.38 1.14
-8 -2 -2 0.97 1.3
2 -2 -12 0.04 1.45
5 4 2 91.38 6.94
2 -2 -9 339.99 13.29
-4 3 -11 12.36 2.99
2 -2 -7 137.49 7.47
5 4 2 89.87 2.52
-2 2 5 4.2 1.23
-2 3 -6 166.18 8.09
2 -2 -4 21.96 1.94
5 4 3 38.9 2.13
-2 2 2 11.26 1.5
4 -2 -7 3.37 1.43
2 -2 0 1007.56 14.01
5 4 4 89.52 3.25
-2 2 -1 477.2 9.84
8 2 2 0.57 1.62
2 -2 3 1022.85 15.9
-5 -4 -6 112.69 5.23
2 -2 5 15.26 1.92
4 -2 -2 26.35 3.79
2 -2 7 12.48 2.05
-5 -4 -7 61.93 5.29
-2 2 -9 25.93 3.59
-2 2 1 31.35 2.46
-2 2 -13 4.51 1.94
5 4 8 37.39 4.4
2 -1 -11 8.62 2.55
4 -2 2 56.79 5.06
-2 1 8 75.57 5.21
-5 -4 -10 3.33 1.39
-2 1 6 169.55 7.14
-8 -2 -3 -0.86 1.3
-2 1 4 67.8 4.23
-5 -4 -11 0.01 0.91
-2 1 3 660.86 9.76
4 -2 7 37.34 4.16
2 -1 -1 113.16 3.94
5 4 12 0.21 1.02
2 -1 0 905.59 13.95
-2 1 9 273.13 11.26
-2 1 -2 57.13 3.78
5 4 14 7.29 2.21
-2 1 -3 100.63 4.55
4 -2 12 0.7 1.77
-2 1 -5 385.33 8.88
-5 -5 7 2.81 1.91
2 -1 7 28.17 3.13
8 2 3 1.8 1.75
2 -1 9 68.31 5.7
-5 -5 5 36.18 3.54
-2 1 -13 1.31 1.4
4 -1 -7 3.54 1.6
-2 0 10 3.42 1.63
-5 -5 4 25.44 4.48
-2 0 8 13.94 2.6
2 -1 4 12.49 1.8
2 0 -5 41.75 3.6
-5 -5 3 30.92 4.81
2 0 -4 1431.37 19.51
4 -1 -3 1145.83 25.31
2 0 -3 39.17 2.8
-5 -5 2 8.47 1.88
2 0 -1 148.9 3.5
8 2 4 15.72 4.28
2 0 0 394.41 9.33
5 5 -1 31.15 4.63
2 0 1 55.74 3.23
-4 1 -1 134.1 7.56
2 0 2 1351.87 16.86
5 5 -1 27.79 2.37
-2 0 -4 77 3.88
2 0 -3 41.15 2.53
-2 0 -6 1027.86 16.18
5 5 0 19.76 1.87
-2 0 -8 58.02 4.56
-4 1 -6 12.34 2.04
-2 0 -12 13.44 2.87
5 5 2 243.87 11.28
2 1 -12 54.09 5.89
-8 -2 -4 18.81 4.28
-2 -1 8 15.06 1.97
-5 -5 -3 33.16 3.73
2 1 -6 374.47 10.23
4 -1 11 4.19 1.81
-2 -1 5 275.29 7.27
-5 -5 -4 119.43 7.07
2 1 -3 1755.76 21.08
2 0 10 30.51 3.89
-2 -1 2 364.22 8.01
-5 -5 -6 58.4 4.14
2 1 -1 1113.87 14.66
-4 0 8 2.49 1.65
-2 -1 -1 281.28 7.03
-5 -5 -7 57.88 5.06
2 1 3 31.7 1.84
8 2 5 4.33 2.01
2 1 4 23.07 2.3
-5 -5 -8 10.12 2.25
2 1 7 1336.21 18.69
-4 0 4 223.62 9.99
2 1 9 12.13 2.27
-5 -5 -9 83.82 6.19
2 1 12 0.95 1.25
2 1 0 85.87 4.14
-2 -2 11 14.51 3.39
-5 -5 -10 1.12 1.27
2 2 -7 29.68 3.27
4 0 1 9.31 2.12
-2 -2 5 48.07 4.3
-5 -5 -11 16.99 2.5
-2 -2 4 531.32 9.39
-8 -2 -5 4.2 2.03
2 2 -3 108.52 4.41
-5 -5 -12 9.14 1.78
2 2 -2 1581.05 14.28
-4 0 -5 48.18 4.39
-2 -2 1 14.96 1.92
-5 -5 -15 5.45 2.48
-2 -2 -1 976.35 9.05
2 2 -6 3.82 0.64
-2 -2 -2 86.86 3.84
-5 -6 5 6.21 2.66
-2 -2 -3 956.21 12.99
4 0 10 10.91 2.38
2 2 4 1038.09 14.71
5 6 -3 63.54 6.38
-2 -2 -6 1480.32 16.9
-8 -3 2 10.78 3.2
-2 -2 -8 259.87 9.25
5 6 -2 3.95 1.84
-2 -2 -9 196.86 8.6
4 1 -9 -0.96 0.96
-2 -2 -11 4.84 1.6
-5 -6 2 2.95 1.52
2 2 13 2.03 1.28
-2 -2 -4 1011.16 12.71
-2 -3 10 7.37 2.54
-5 -6 1 20.98 2.82
-2 -3 6 165.23 8.82
-4 -1 5 117.83 7.83
2 3 -5 118.67 3.92
5 6 0 8.69 2.29
2 3 -4 113.49 3.92
-8 -3 1 0.79 1.13
2 3 -3 201.04 5.38
5 6 1 47.85 5.25
-2 -3 2 841.62 15.77
4 1 -1 371.14 13.52
2 3 -1 62.76 3.42
5 6 2 2.81 0.97
2 3 0 101.61 4.91
2 3 -6 146.36 7.22
-2 -3 -1 450.25 10.31
5 6 3 10.26 1.79
2 3 2 579.47 11.73
-4 -1 -4 5.87 0.93
2 3 3 32.1 2.21
5 6 4 110.53 7.38
-2 -3 -4 135.72 4.86
-8 -3 0 5.75 2.51
2 3 6 95.34 4.45
-5 -6 -5 9.8 1.81
2 3 8 217.07 7.58
-4 -1 -9 42.63 4.15
2 3 11 4.35 1.36
5 6 6 8.09 2.06
-2 -3 -13 0.63 0.89
-2 -3 -3 33.9 2.47
2 4 -10 0.24 0.8
-5 -6 -7 66.32 5.15
2 4 -6 139.58 7.49
-4 -2 9 6.57 2.47
-2 -4 4 25.13 3.25
-5 -6 -8 9.55 2.15
-2 -4 2 509.92 8.94
8 3 1 7.6 2.95
2 4 -1 4.31 0.79
-5 -6 -9 -0.04 0.65
2 4 0 13.82 1.54
-4 -2 5 23.45 3.74
2 4 1 60.04 3.93
-5 -6 -10 4.93 1.47
2 4 2 168.99 5.19
2 4 -4 28.62 3.16
2 4 3 0.04 0.37
5 6 11 2.32 1.25
-2 -4 -5 462.85 8.53
4 2 -1 70.42 5.82
-2 -4 -7 30.97 3.4
-5 -6 -13 5.37 2.07
-2 -4 -10 149.14 8.7
-8 -3 -1 11.62 3.22
2 4 13 15.85 2.8
-5 -6 -15 4.44 2.18
2 4 15 5.43 2.23
-4 -2 -5 9.21 1.91
2 5 -7 99.65 7.12
5 7 -4 0.55 1.03
2 5 -3 99.66 5.73
-2 -4 -6 27.18 3.04
-2 -5 2 46.65 4.18
-5 -7 3 8.3 1.86
2 5 -1 81 2.8
-4 -2 -10 69.63 5.39
2 5 0 482.03 12.68
-5 -7 2 34.21 3.65
-2 -5 -1 185.09 7.39
-8 -3 -2 38.1 5.75
2 5 3 1.35 0.64
-5 -7 1 79.12 5.42
-2 -5 -4 4.45 1.16
4 3 -8 27.69 3.53
-2 -5 -6 17.47 2.01
5 7 0 1.13 1.06
2 5 7 111.66 4.75
2 5 0 478.69 9.13
-2 -5 -10 36.64 4.58
5 7 1 1.93 1
2 5 13 2.6 1.54
-4 -3 4 15.49 3.13
2 5 15 0.64 1.01
5 7 1 1.13 1.08
-2 -6 7 3.94 2
8 3 2 33.53 5.94
2 6 -3 28.86 3.61
-5 -7 -2 0.67 0.86
2 6 -2 101.38 6.7
4 3 0 253.23 4.41
2 6 0 187.03 5.9
5 7 3 188.74 8.6
2 6 1 4.84 1.02
2 5 14 13.79 3.02
2 6 2 158.18 5.51
-5 -7 -5 119.85 6.78
-2 -6 -4 453.05 8.27
4 3 4 177.53 4.75
-2 -6 -5 165.84 6.45
5 7 6 2.37 1.09
2 6 7 84.18 5.14
-8 -3 -3 3.77 1.93
2 6 10 120.44 7.16
-5 -7 -7 1.54 1.01
-2 -6 -13 27.54 4.74
-4 -3 -10 86.35 6.17
2 6 15 2.44 1.32
-5 -7 -8 6.51 1.99
2 7 -5 140.27 9.02
2 6 4 472.13 10.52
2 7 -3 32.51 4.28
-5 -7 -9 40.26 3.94
2 7 -1 29.76 2.91
-4 -4 9 12.87 3.5
2 7 1 8.57 2.19
5 7 10 1.88 1.11
-2 -7 -2 2.49 1.05
8 3 3 1.02 1.63
2 7 4 6.62 1.55
-5 -7 -12 19.9 3.73
2 7 6 0.77 0.87
4 4 -4 64.58 5.83
-2 -7 -9 33.49 3.26
5 7 13 0.85 0.94
2 7 11 117.07 6.29
-2 -7 0 99.71 6.35
-2 -7 -14 3.02 2.16
-5 -7 -15 0.46 1.2
-2 -8 5 17.82 3.53
-4 -4 1 22.75 2.65
-2 -8 2 3.44 1.39
5 8 -3 1.86 1.56
2 8 0 78.53 6.97
-8 -3 -4 12.12 3.27
2 8 2 15.04 2.18
5 8 -2 1.59 1.28
2 8 4 10 1.95
-4 -4 -3 64.11 3.24
-2 -8 -7 63.09 6.47
5 8 -1 8.99 2.12
-2 -8 -9 26.76 3.11
2 8 -3 1.55 1.54
2 8 12 4.25 1.99
-5 -8 1 7.48 2.52
-2 -9 5 2.66 1.77
-4 -4 -8 7.31 1.76
-2 -9 2 18.9 2.87
-5 -8 0 16.28 2.56
2 9 1 1.87 1.31
8 3 4 15.2 4.06
2 9 3 9.21 1.98
-5 -8 -1 1.75 1.06
-2 -9 -6 55.82 6.3
4 4 14 3.49 1.85
-2 -9 -8 19.32 2.84
5 8 2 25.44 3.68
-2 -9 -11 48.04 4.53
-2 -9 3 0.68 0.7
-2 -10 4 1.45 1.29
-5 -8 -3 123.55 6.96
-2 -10 1 16.77 3.21
4 5 -5 2.18 1.33
2 10 2 0.21 1.29
-5 -8 -5 35.9 4.12
2 10 4 -2.19 1.27
8 3 5 13.68 3.88
-2 -10 -7 0.07 1.62
-5 -8 -6 58.72 4.84
-2 -10 -9 10.88 2.32
-4 -5 2 13.88 2.89
2 10 12 13.5 3.55
5 8 7 7.86 1.91
-2 -11 -1 0.77 0.88
2 10 0 0.69 1.16
-2 -11 -4 17.25 3.97
-5 -8 -9 9.48 2.52
2 11 7 1.6 1.26
4 5 2 50.02 3.52
-2 -11 -10 2.4 2.14
-5 -8 -10 1.95 1.25
-2 -12 -2 3.5 1.68
-8 -3 -5 13.95 3.47
2 12 6 1.24 1.27
5 8 11 1.66 1.13
2 12 9 1.82 1.39
4 5 5 4.28 1.41
-3 10 2 52.75 7.33
-5 -8 -12 0.59 0.73
3 -9 -6 4.53 1.83
-2 -11 -8 0.33 0.82
-3 9 3 -1.51 1.51
-5 -8 -14 1.84 1.51
3 -9 -1 26.64 4.24
-4 -5 -9 16.44 2.17
3 -9 3 1.1 1.18
-5 -9 3 15.31 4.03
3 -8 -8 5.22 1.94
8 3 6 6.12 2.65
3 -8 -5 1.66 1.43
-5 -9 1 27.44 3.55
3 -8 -3 17.28 3.21
4 6 -8 5.84 2.19
-3 8 0 18.32 3.46
-5 -9 0 13.66 2.6
-3 8 -3 6.4 2.73
-3 9 -1 3.49 1.87
3 -7 -10 27.59 5.23
5 9 2 8.53 2.34
-3 7 7 11.29 3.15
-4 -6 3 57.89 6.2
-3 7 5 48.05 5.93
5 9 3 4.48 1.6
-3 7 2 39.38 5.03
-8 -3 -6 0.41 1.4
-3 7 -1 6.88 2.33
5 9 4 28.23 4.16
-3 7 -4 61.48 6.45
-4 -6 0 204.93 7.87
-3 6 11 3.83 1.89
-5 -9 -5 26.02 3.39
3 -6 -8 9.94 2.79
-3 7 6 53.49 6.41
3 -6 -6 7.34 2.19
5 9 6 5.78 1.72
3 -6 -4 -0.09 0.75
-4 -6 -4 44.92 3.72
3 -6 -2 1.84 1.01
-5 -9 -8 3.89 1.67
3 -6 0 9.51 2.26
-8 -4 2 15.66 3.69
3 -6 2 -0.93 1.21
-5 -9 -9 31.25 3.76
-3 6 -4 4.19 1.72
4 6 8 57.45 4.48
3 -6 5 196.74 9.51
5 9 10 1.76 1.29
3 -6 8 0.67 1.09
-3 6 3 5.89 2.29
3 -5 -9 23.54 4.19
-5 -9 -12 6.46 2.54
-3 5 6 3.45 1.52
4 6 14 2.43 1.41
3 -5 -5 56.67 4.91
-5 -9 -14 2.66 1.92
3 -5 -3 4.58 1.55
-8 -4 1 16.95 3.82
-3 5 1 11.41 2.58
-5 -10 -1 1.21 1.2
3 -5 0 173.61 8.56
4 7 -3 10.37 2.43
5 10 4 17.31 3.55
-5 -10 -3 17 2.95
5 10 4 12.73 2.28
3 -5 -5 60.01 5.77
5 10 5 1.2 1.03
-4 -7 -1 269.11 7.96
-5 -10 -6 4.84 1.81
3 -5 4 134.97 7.58
-5 -10 -7 2.99 1.64
-4 -7 -3 60.65 4.48
5 10 7 4.98 1.73
8 4 0 30.44 5.91
-5 -10 -8 8.99 2.23
-4 -7 -6 23.09 2.78
-5 -10 -9 2.13 1.57
-3 4 8 13.73 3.02
5 10 9 2.21 1.26
-4 -7 -9 27.55 4.08
-5 -10 -10 4.03 1.59
0 1 -12 10.8 2.76
-5 -10 -11 -1.16 1.38
4 7 11 5.37 1.61
-5 -10 -12 2.42 1.87
3 -4 0 5.5 1.42
5 11 1 4.04 1.75
-4 -7 -14 1.61 1.34
5 11 3 -1.58 1.42
-8 -4 0 31.33 5.17
5 11 5 5.54 2.26
-4 -8 5 2.73 1.7
-5 -11 -6 1.56 1.42
3 -4 8 5.15 1.67
-5 -11 -7 -1.05 1.25
4 8 -2 8.72 2.22
-5 -11 -8 -4.12 1.92
0 2 -4 12.88 1.81
-5 -11 -9 -1.25 1.45
4 8 0 0.72 0.84
-5 -11 -10 4.64 2.22
3 -3 -5 77.92 4.95
-5 -11 -11 9.62 3.07
4 8 1 62.66 3.74
5 12 3 8.77 3.03
8 4 1 6.03 2.76
5 12 5 0.31 1.02
-4 -8 -3 187.73 8.11
-5 -12 -7 3.85 2
-3 3 -3 8.63 1.82
-5 -12 -8 3.36 1.95
-4 -8 -5 16.03 2.42
-5 -12 -9 -0.48 1.34
0 -3 3 428.77 7.02
-5 -12 -10 1.27 1.44
4 8 7 14.92 2.42
6 -5 -6 4.44 2.3
-3 2 11 1.86 1.19
6 -5 -4 19.06 4.18
4 8 9 7.89 1.57
-6 5 2 10.33 3.3
-8 -4 -1 2.42 1.69
-6 5 1 6.62 2.66
-4 -8 -12 3.75 2.08
6 -5 0 0 0.65
3 -2 -2 198.95 7.06
6 -5 1 5.36 2.08
4 9 -5 -1.96 1.45
6 -5 2 6.27 2.28
0 -4 2 1577.42 18.9
6 -5 3 5.56 2.1
4 9 -1 18.13 3.49
-6 5 -4 -1.09 1.39
-3 2 -6 165.85 7.24
-6 5 -5 1.1 1.43
-4 -9 -1 1.2 0.9
6 -4 -6 2.83 2.01
-8 -4 -2 4.62 2.31
-6 4 4 17.6 4.07
4 9 3 13.69 2.12
6 -4 -3 32.16 5.33
-3 1 9 5.31 1.8
6 -4 -2 7.02 2.73
4 9 5 15.57 2.47
-6 4 1 16.25 3.73
0 -5 -2 191.46 8.37
-6 4 0 3.24 1.83
4 9 7 3.41 1.39
6 -4 1 1.86 1.32
-3 1 1 9.63 1.79
6 -4 2 3.53 1.67
4 9 10 8.08 2.27
6 -4 3 1.6 1.33
8 4 2 6.61 2.67
6 -4 4 16.17 3.46
4 10 -4 1.15 1.25
-6 4 -5 11.14 3.11
-3 1 -8 16.8 2.68
-6 4 -6 14.39 3.27
-4 -10 0 4.3 2.02
6 -4 7 1.81 1.52
0 6 9 20.2 3.28
6 -3 -6 103.77 10.3
4 10 4 9.21 1.93
6 -3 -5 21.96 3.66
3 0 -7 195.54 9.4
-6 3 5 20.91 4.35
-4 -10 -7 37.86 5.34
6 -3 -4 19.15 3.43
-8 -4 -3 13.14 3.43
6 -3 -3 7.48 2.17
-4 -10 -9 20.47 3.34
6 -3 -3 11.14 3.28
-3 0 0 240.69 3.4
6 -3 -2 2.06 1.54
4 11 -2 5.39 2.27
6 -3 -1 90.78 8.48
0 -8 -5 359.37 15.48
-6 3 0 23.03 4.37
-4 -11 -2 32.05 4.48
-6 3 -1 2.08 1.69
3 0 10 6.15 2.03
6 -3 2 5.34 2.31
-4 -11 -6 3.92 1.99
6 -3 3 1.56 1.41
8 4 3 18.4 4.39
6 -3 4 2.97 1.64
-4 -11 -8 19.53 3.53
-6 3 -5 38.72 5.35
-3 -1 5 66.78 5.28
-6 3 -6 6.9 2.5
4 11 11 0.86 1.43
-6 3 -7 -0.92 1.06
0 11 3 9.81 3.29
6 -3 8 4.36 1.79
-4 -12 -5 12.07 2.88
6 -3 8 4.25 1.84
3 1 4 198.68 5.53
6 -2 -8 10.9 2.85
-4 -12 -9 5.32 2.49
6 -2 -7 0.09 0.91
-8 -4 -4 14.65 3.49
6 -2 -6 4.01 1.84
-5 7 -1 1.71 1.57
-6 2 6 0.63 1.21
3 2 -11 4.37 1.71
-6 2 5 -1.12 1.58
-5 6 4 13.37 3.59
6 -2 -4 12.21 2.86
-1 8 10 3.31 1.65
-6 2 4 9.21 2.92
5 -6 0 23.74 4.07
-6 2 3 35.1 5.31
-3 -2 2 21.62 2.37
6 -2 -2 7.29 2.08
5 -6 4 0.29 1.07
-6 2 2 10.35 2.93
8 4 4 6.67 2.68
-6 2 1 1.87 1.55
5 -5 -7 58.21 6.02
-6 2 0 34.67 5.04
-3 -2 -7 111.67 5.57
6 -2 1 27.77 4.59
5 -5 -3 3.88 1.84
-6 2 -2 93.5 8.14
1 -6 -11 58.45 6.9
-6 2 -3 3.36 1.85
5 -5 1 11.92 2.76
-6 2 -4 1.68 1.27
-3 -3 9 42.52 5.61
-6 2 -5 8.97 2.58
5 -5 4 0.59 1.08
-6 2 -6 22.79 4
8 4 5 -1.83 1.81
6 -2 7 21.64 3.91
-5 5 -7 6.19 2.04
6 -2 8 -0.54 0.93
3 3 -1 71.33 4.79
6 -2 9 -0.7 1.39
-5 4 8 8.34 2.76
-6 1 8 13.19 3.47
-1 5 0 808.31 18.17
6 -1 -7 83.02 9.58
5 -4 -4 48.26 4.69
6 -1 -6 29.66 4.52
-3 -3 -7 61.96 3.55
-6 1 6 27.73 4.86
-5 4 2 10.41 2.76
6 -1 -5 8.71 3.14
-8 -4 -5 1.46 1.3
6 -1 -4 24.72 3.97
5 -4 2 0.96 1.04
6 -1 -4 23.6 4.67
3 4 -7 4.88 1.64
6 -1 -3 10.63 3.31
-5 4 -5 0.98 0.93
6 -1 -2 38.79 4.77
-1 4 -5 239.71 9.94
6 -1 -2 43.51 6.02
5 -4 7 17.59 3.19
-6 1 1 29.77 4.69
-3 -4 1 6.46 1.28
-6 1 0 1.46 1.29
-5 4 -10 6.04 2.29
-6 1 -1 14.99 3.29
8 4 6 9.58 3.33
6 -1 2 12.35 3.08
5 -3 -6 1.48 1.43
6 -1 3 153.49 10.31
-3 -4 -6 19.2 2.47
-6 1 -4 7.1 2.48
5 -3 -3 23.55 4.15
-6 1 -5 16.48 3.39
-1 3 -12 11.29 2.84
-6 1 -6 6.08 2.02
-5 3 0 28.59 4.33
6 -1 7 6.7 2.22
-3 -5 9 1.07 1.37
6 -1 8 7.28 2.33
-5 3 -3 36.72 4.74
6 -1 9 5.38 2.1
-8 -4 -6 7.9 2.64
6 -1 10 -2.92 1.78
-5 3 -6 7.15 1.8
-6 0 8 15.61 3.61
3 5 0 233.55 8.71
6 0 -7 2.03 1.5
5 -3 8 31.16 4.22
6 0 -6 50.96 6.03
1 -1 -11 1.58 1.41
-6 0 6 56.79 6.63
-5 3 -11 3.39 1.65
6 0 -5 2.18 1.82
-3 -5 -8 99.28 4.63
6 0 -4 62.77 6.4
5 -2 -6 10.56 2.58
-6 0 4 65.79 6.88
8 4 7 0.5 1.28
-6 0 3 18.78 3.7
5 -2 -3 6.31 1.83
6 0 -2 49.49 5.52
-3 -6 5 4.73 2.02
-6 0 2 62.39 6.54
-5 2 0 -0.02 1.17
6 0 -1 21.48 4.21
-1 0 7 660.45 15.25
-6 0 0 3.72 1.93
-5 2 -3 16.6 3.16
-6 0 -1 34.36 4.76
-3 -6 -2 24.88 3.03
-6 0 -2 444.19 16.81
-5 2 -6 1.84 0.93
6 0 3 7.85 2.57
-8 -4 -7 -0.4 1.64
6 0 4 125.54 9.18
5 -2 8 7.29 1.99
-6 0 -5 31.88 4.59
-3 -6 -10 16.96 2.13
-6 0 -6 17.28 3.51
5 -2 11 1.42 1.42
-6 0 -7 10.95 2.66
1 1 -3 229 4.06
6 0 8 3.96 2.11
5 -1 -8 9.76 2.66
6 0 9 4.73 2.07
3 7 -1 76.25 5.35
6 0 10 7.81 2.44
5 -1 -5 82.32 6.65
-6 -1 8 9.47 3.17
-8 -5 1 8.53 2.75
-6 -1 7 79.34 7.6
5 -1 -2 75.59 7.14
6 1 -6 11.14 3.03
-3 -7 -4 8.27 1.67
6 1 -5 27.06 4.47
-5 1 -2 9.28 1.15
-6 -1 5 34.75 4.85
-1 -2 0 562.12 6.78
6 1 -4 61.19 7.54
5 -1 4 48.13 5.25
6 1 -3 59.79 6.23
3 7 12 8.81 2.33
-6 -1 3 60.69 6.27
-5 1 -7 20.72 3.34
6 1 -2 26.27 4.75
8 5 0 14.18 4
6 1 -1 5.78 2.39
-5 1 -10 23.05 3.42
-6 -1 0 2.93 1.89
3 8 1 5.04 1.73
6 1 1 257.83 13.53
-5 0 10 3.01 1.73
6 1 2 47.48 5.78
-1 -3 0 262.21 5.45
6 1 3 204.73 11.75
-5 0 7 19.86 3.6
6 1 4 13.34 3.08
-3 -8 -7 8.87 1.99
6 1 5 20.35 3.76
5 0 -4 6.89 2.08
-6 -1 -6 72.07 6.64
-8 -5 0 12.62 3.15
6 1 7 21.43 3.86
-5 0 1 544.64 16.91
-6 -1 -8 5.38 1.96
3 9 0 2.06 1.45
-6 -1 -9 0.66 1.06
-5 0 -3 12.3 2.62
-6 -1 -10 4.11 1.77
1 4 1 1961.85 17.59
-6 -1 -11 5.91 2
5 0 5 55.89 5.59
-6 -1 -12 1.23 1.09
-3 -9 -8 -0.01 0.82
6 2 -7 0.95 1.27
5 0 8 22.74 3.63
6 2 -6 60.14 6.84
8 5 1 14.68 4.16
-6 -2 6 47.55 6.43
-5 0 -11 9.34 2.14
-6 -2 5 15.62 3.27
-3 -10 -1 14.6 3.02
6 2 -4 3.31 1.92
5 1 -9 0.03 1.09
6 2 -4 4.7 2.37
1 5 7 83.8 5.2
6 2 -3 1.04 1.38
5 1 -6 58.48 5.99
6 2 -2 103.2 8.12
-3 -10 -12 7.86 2.08
-6 -2 2 108.97 8.1
-5 -1 4 1.76 1.2
-6 -2 1 12.98 2.9
-8 -5 -1 8.77 2.81
6 2 0 22.11 4.11
5 1 -1 2.73 1.56
-6 -2 -1 9.95 2.66
-3 -11 -9 5.37 2.33
-6 -2 -2 54.53 5.72
-5 -1 -3 19.54 3.23
6 2 3 1.97 1.36
-1 -7 6 10.03 2.66
-6 -2 -4 96.22 7.55
-5 -1 -5 6.75 1.16
6 2 5 122.41 8.93
3 13 7 2.37 1.66
6 2 6 38.35 5.03
5 1 8 13.32 2.74
-6 -2 -7 4.48 1.92
8 5 2 15.15 4.15
6 2 8 40.94 5.25
-5 -1 -11 6.46 1.85
6 2 9 8.1 2.46
4 -8 0 9.26 2.79
6 2 10 6.66 2.32
-5 -1 -14 1.7 1.41
6 2 11 1.21 1.66
1 8 11 11.29 2.95
6 2 12 2.27 1.59
5 2 -6 34.29 4.78
-6 -3 7 5.22 2.53
-4 7 1 7.18 2.35
-6 -3 6 25.3 4.87
-5 -2 4 0.79 0.94
-6 -3 5 19.24 3.4
-8 -5 -2 14.89 3.41
6 3 -4 120.91 9.26
5 2 -2 0.92 0.45
-6 -3 4 122.01 8.52
-4 6 6 5.02 2.31
-6 -3 3 3.04 1.5
5 2 2 79.49 6.62
6 3 -2 6.29 2.19
-1 -11 -6 4.25 2.07
6 3 -2 4.12 2.31
-5 -2 -5 115.92 7.4
6 3 -1 10.46 2.94
-4 6 -1 18.98 3.51
-6 -3 0 10.23 2.4
-5 -2 -8 1.53 0.83
6 3 1 285.5 14.09
-8 -5 -3 -1.21 1.64
6 3 2 36.18 5.08
-5 -2 -11 4.23 1.5
-6 -3 -3 32.15 4.29
4 -5 -6 -0.13 0.91
-6 -3 -4 15.99 3.12
-5 -3 9 18.52 4.33
6 3 5 31.4 4.48
-2 8 -2 19.42 3.89
-6 -3 -6 75.54 6.61
-5 -3 5 -0.05 0.57
6 3 7 10.16 2.64
-4 5 -3 60.83 5.72
6 3 8 3.11 1.59
5 3 -2 146.39 8.9
-6 -3 -9 14.33 2.94
8 5 3 2.3 2.01
-6 -3 -10 23.31 3.7
-5 -3 0 7.34 2.08
-6 -3 -11 0.18 0.92
4 -4 -9 17.78 3.69
-6 -3 -12 2.39 1.41
-5 -3 -4 0.89 0.96
6 4 -6 13.37 3.37
2 -6 2 549.9 14.69
6 4 -5 -0.05 1.21
5 3 6 47.87 4.97
-6 -4 5 0.2 1.43
-4 4 0 92.59 7.08
-6 -4 4 23.91 3.62
-5 -3 -9 -0.49 1.03
6 4 -4 19.97 4.42
-8 -5 -4 6.52 2.33
6 4 -3 19.47 3.76
5 3 12 5.97 2.13
6 4 -2 54.71 6.15
4 -4 9 4.62 1.81
-6 -4 2 50.12 5.18
-5 -4 7 58.98 7.24
6 4 -1 3.63 1.86
2 -4 -8 62.59 5.95
6 4 0 11.72 3.03
-5 -4 4 63.21 4.73
-6 -4 -1 32.45 4.29
4 -3 -2 26.39 3.06
6 4 2 12.25 2.95
-5 -4 2 55.54 6.03
6 4 3 68.32 6.75
8 5 4 6.95 2.88
-6 -4 -4 33.49 4.28
5 4 1 46.44 5.2
6 4 5 5.19 2.01
4 -3 8 28.69 4.09
6 4 6 7.21 2.4
-5 -4 -3 42.07 4.33
6 4 7 11.02 2.81
2 -3 -1 1618.67 20.84
6 4 8 3.32 1.67
5 4 5 12.97 2.62
-6 -4 -9 36.93 4.55
4 -2 -4 851.35 17.49
-6 -4 -10 0.84 1.32
-5 -4 -8 33.27 3.42
-6 -4 -11 16.02 3.12
8 5 5 25.76 5.05
-6 -4 -12 5.4 1.98
-5 -4 -10 4.35 1.29
6 4 13 2.87 1.66
-4 2 -4 13.1 2.47
-6 -5 5 14.8 3.87
5 4 13 2.69 1.49
6 5 -4 11.4 3.23
2 -2 6 28.51 2.87
-6 -5 4 3.99 2.22
-5 -5 6 0.2 0.97
6 5 -3 4.86 2.22
4 -1 -9 80.06 6.87
-6 -5 3 5.95 1.83
-5 -5 3 32.56 3.44
6 5 -2 51.82 6.05
-8 -5 -5 20.84 4.04
-6 -5 2 45.85 4.81
-5 -5 2 9.4 2.44
6 5 -1 73.35 7.1
4 -1 -1 43.95 4.72
-6 -5 1 57.33 5.34
5 5 0 20.36 3.54
6 5 0 3.27 1.69
-2 0 12 32.55 4.83
6 5 1 101.19 8.42
5 5 2 231.34 6.54
6 5 2 1.88 1.33
-4 1 -8 52.11 4.59
6 5 3 72.05 6.84
5 5 5 13.76 2.66
6 5 4 76.47 7.01
8 5 6 -3.85 2.15
6 5 5 1.23 1.16
5 5 7 63.3 5.6
6 5 6 15.61 3.21
-4 0 6 238.7 10.39
6 5 7 0.96 1.13
5 5 9 80.34 6.28
6 5 8 8.04 2.5
-2 -1 6 364.44 11.74
-6 -5 -9 9.65 2.39
-5 -5 -12 13.18 2.9
6 5 9 8.24 2.31
-4 0 -3 169.86 5.06
-6 -5 -10 20.65 3.05
-5 -6 6 18.15 4.27
-6 -5 -11 0.53 1.1
-8 -5 -6 1.42 1.61
6 5 11 0.36 0.77
-5 -6 3 49.71 6.39
6 5 12 9.62 2.57
4 0 13 5.73 2.47
6 6 -5 3.74 2.06
5 6 -1 26.22 3.9
6 6 -4 77.02 8.8
2 2 -1 12.25 1.16
-6 -6 4 60.64 7.72
-5 -6 0 10.53 2.02
-6 -6 3 7.26 1.95
-4 -1 3 79.58 5.7
6 6 -3 2.22 1.69
-5 -6 -2 4.98 1.53
6 6 -2 8.34 2.59
8 5 7 3.79 1.96
6 6 -1 11.3 2.97
-5 -6 -4 118.92 6.8
-6 -6 1 17.92 2.83
-4 -1 -7 21.59 2.95
6 6 0 12.14 3.13
-5 -6 -6 9.42 2.04
-6 -6 0 11.76 2.42
-2 -3 1 60.35 3.01
-6 -6 -1 31.93 3.91
-5 -6 -8 7.23 1.77
6 6 1 28.2 4.56
4 2 -7 10.28 2.01
-6 -6 -2 2.64 1.23
-5 -6 -11 2.67 1.5
-6 -6 -3 1.63 1.1
-8 -5 -7 4.26 2.06
6 6 3 1.33 1.39
-5 -6 -14 1.74 1.68
-6 -6 -4 11.91 2.31
4 2 3 955.33 19.75
-6 -6 -5 0.91 0.98
-5 -7 4 1.07 1.52
6 6 6 19.85 3.52
2 4 1 65.9 3.44
-6 -6 -6 25.69 3.49
5 7 -1 73.25 6.65
-6 -6 -7 20.92 3.41
4 2 13 18.93 3.56
6 6 8 9.92 2.58
-5 -7 0 0.71 0.64
-6 -6 -8 4.57 1.63
8 5 8 -2.72 1.77
-6 -6 -9 5.42 1.71
5 7 2 -1.57 1.83
-6 -6 -10 8.82 2.24
4 3 -2 435.47 8.18
6 6 10 6.09 2.05
-5 -7 -4 288.07 10.26
6 6 11 6.53 2.21
-2 -5 -5 335.68 7.96
6 6 12 0.74 0.92
-5 -7 -6 1.94 1.35
6 7 -5 -1.84 1.62
-4 -3 -7 7.09 1.74
6 7 -4 4.03 2.23
5 7 8 7.91 2.1
-6 -7 3 15.36 2.69
-8 -6 0 -1.87 1.47
-6 -7 3 22.41 4.79
-5 -7 -11 2.17 1.06
6 7 -2 56.46 7.12
4 4 -6 3.92 1.6
6 7 -1 2.53 1.93
-5 -7 -14 2.19 1.64
-6 -7 1 1.59 1.06
-2 -6 -14 -0.84 1.3
-6 -7 0 1.07 0.83
-5 -8 3 0.29 0.77
6 7 0 1.49 1.24
4 4 1 223.5 9.7
-6 -7 -1 25.91 3.41
-5 -8 1 9.73 2.13
-6 -7 -1 24.08 3.44
8 6 1 5.41 2.74
-6 -7 -2 4.4 1.52
5 8 1 1.69 1.18
6 7 3 55.94 5.98
-4 -4 -10 109.9 5.37
-6 -7 -3 54.72 5.05
-5 -8 -2 24.76 3.22
-6 -7 -4 0.88 1.1
-2 -8 -5 13.83 2.19
6 7 5 10.89 2.63
5 8 5 38.87 4.15
-6 -7 -5 15.14 2.75
-4 -5 3 27.79 2.66
-6 -7 -6 25.42 3.68
-5 -8 -8 3.37 1.47
6 7 7 10.87 2.63
-8 -6 -1 3.72 1.62
-6 -7 -7 10.15 2.38
-5 -8 -11 -0.49 1.04
-6 -7 -8 57.76 5.18
-4 -5 -3 363.06 10.51
-6 -7 -9 2.68 1.58
-5 -8 -13 2.76 1.73
6 7 9 0.81 1.19
-2 -10 -11 61.69 7.85
6 7 10 0.84 1.15
-5 -9 2 -2.04 1.73
6 7 11 2.18 1.37
4 5 12 6.76 1.87
6 7 12 8.08 2.26
5 9 1 0.93 1.04
6 7 14 0.41 0.81
8 6 2 27.7 5.43
-6 -8 3 28.28 3.57
-5 -9 -3 6.46 1.92
-6 -8 2 27.88 3.59
-4 -6 1 16.84 2.06
6 8 -1 15.08 3.72
-5 -9 -6 2.04 1.39
-6 -8 1 21.94 3.19
-3 8 1 28.13 4.65
-6 -8 0 2.86 1.4
5 9 8 7.11 2.03
6 8 1 19.66 3.83
-4 -6 -6 3.68 1.35
-6 -8 -1 20.4 2.88
-5 -9 -11 -2.22 1.25
6 8 2 1.1 1.09
-8 -6 -2 24.12 4.29
-6 -8 -2 2.13 1.14
5 10 0 -2.27 1.43
-6 -8 -3 35.79 3.89
4 7 -5 8.95 2.2
-5 -10 -5 4.95 1.85
-4 -7 0 176.65 10.28
5 10 6 8.96 2.02
3 -6 4 5.85 1.79
-5 -10 -8 10.43 2.93
-4 -7 -5 60.35 5.13
-5 -10 -9 0.62 1.05
-3 5 -8 6.99 2.23
5 10 10 4.88 1.93
-4 -7 -10 6.76 1.59
-5 -10 -13 -2.04 1.79
-8 -6 -3 5.39 2.32
5 11 4 12.1 3.26
4 7 16 2.2 1.54
5 11 6 2.79 1.12
3 -4 5 73.78 5.31
5 11 8 0.65 1.03
4 8 -1 0.56 0.75
5 11 10 6.23 2.15
0 1 4 28.03 1.01
5 12 4 -0.45 1.42
-4 -8 -2 192.73 8.2
5 12 7 -2.43 1.42
3 -3 -1 184.39 7.45
5 12 9 -0.76 1.13
4 8 6 18.59 2.3
6 -5 -5 9.63 3.23
8 6 3 8.68 2.9
6 -5 -2 5.51 2.33
-4 -8 -10 5.52 1.48
-6 5 0 0.78 1.42
3 -2 -6 146.81 7.71
-6 5 -2 5.09 2.37
-4 -9 3 4.3 2.04
6 -5 4 -0.19 0.95
0 3 6 158.86 6.33
6 -4 -5 3.19 1.63
-4 -9 -2 1.14 1.15
-6 4 3 40.13 5.96
3 -2 10 0.6 1.2
6 -4 -1 23.74 4.43
4 9 6 20.86 2.93
-6 4 -1 0.2 0.91
-8 -6 -4 1.64 1.55
-6 4 -3 6.15 2.6
4 9 12 0.13 1.17
6 -4 5 8.68 2.61
3 -1 3 3.77 0.97
6 -3 -6 101.13 7.96
4 10 3 2.68 1.55
6 -3 -5 18.95 4.39
0 -6 4 9.15 2.06
-6 3 4 25.27 4.68
4 10 8 2.08 1.44
6 -3 -2 2.98 1.48
3 0 -3 39.73 2.76
-6 3 1 83.31 8.13
4 11 0 -0.28 0.94
6 -3 1 0.37 1.2
8 6 4 3.74 2.24
-6 3 -3 0.97 0.97
4 11 7 1.5 1.27
6 -3 5 39.36 5.41
3 1 -10 -0.02 0.79
6 -3 7 -1.86 1.55
4 12 3 0.85 1.63
6 -3 9 5.38 2.13
0 -9 -9 9.38 2.97
-6 2 7 2.97 1.92
-5 7 3 1.11 1.34
6 -2 -5 1.28 1.14
-3 -1 -9 230.89 9.42
6 -2 -4 11.24 3.3
5 -6 -2 3.76 1.83
6 -2 -3 28.54 5.04
8 6 5 6.31 2.6
6 -2 -1 0.37 1.31
5 -5 -8 41.38 6.37
-6 2 -1 24.04 4.29
-3 -2 -2 33.72 2.97
6 -2 3 2.34 1.66
-5 5 1 18.09 3.89
6 -2 5 4.35 2.05
1 -7 -8 38.99 3.65
-6 2 -7 17.41 3.55
5 -5 5 0.65 0.84
-6 2 -9 -0.74 0.9
-3 -3 4 34 2.62
6 -1 -7 78.74 7.58
-5 4 6 29.07 4.89
6 -1 -6 27.49 5.41
-8 -6 -5 3.52 1.7
-6 1 5 9.78 2.91
5 -4 0 7.56 2.18
6 -1 -3 8.16 2.39
-3 -3 -13 4.26 1.95
-6 1 2 42.35 5.56
5 -4 6 8.92 2.12
6 -1 0 0.65 1.53
-1 4 7 89.53 6.09
-6 1 -2 11.2 2.82
-5 3 8 9.23 2.91
6 -1 4 7.2 2.38
-3 -4 -2 507.79 10.76
6 -1 6 5.8 2.18
5 -3 -2 12.16 2.8
-6 1 -8 9.08 2.51
8 6 6 6.35 2.6
-6 1 -10 0.81 0.99
-5 3 -4 21.06 2.76
-6 0 8 8.74 2.98
3 5 -3 122.93 7.11
6 0 -6 73.23 8.73
5 -3 9 8.32 2.18
-6 0 5 3.59 2.03
-1 2 0 468.89 9.1
6 0 -3 22.93 3.83
-5 2 5 0.84 1.19
6 0 -2 54.54 6.68
3 5 13 24.83 3.47
6 0 0 4.19 1.86
5 -2 2 84.56 7.06
6 0 2 434.96 17.42
-8 -6 -6 6.12 2.2
-6 0 -4 138.97 9.38
5 -2 7 32.51 4.36
6 0 6 13.42 3.04
3 6 5 155.59 5.96
-6 0 -8 4.02 1.77
-5 1 10 26.61 4.73
-6 0 -10 12.32 2.71
-1 0 -6 354.99 9.45
6 1 -7 74.59 7.61
-5 1 4 0.41 0.97
-6 -1 6 9.97 2.88
-3 -7 -1 28.05 3.68
6 1 -4 59.18 6.38
-5 1 -3 21.95 3.44
6 1 -3 67.58 7.78
8 6 7 -3.47 2.1
-6 -1 2 32.76 4.6
-5 1 -8 31.19 3.61
6 1 0 1.04 1.1
3 8 -3 5.16 1.85
-6 -1 -2 62.6 6.22
5 0 -8 16.23 3.49
-6 -1 -4 16.5 3.32
1 2 10 6.3 1.55
6 1 6 77.62 7.15
-5 0 3 182.83 10.05
6 1 8 7.96 2.67
-3 -8 -14 12.34 3.65
6 1 10 1.32 1.5
-5 0 -4 4 1.63
-6 -2 8 23.05 4.73
-8 -6 -7 3.27 1.88
-6 -2 6 57.52 6.16
-5 0 -9 3.31 1.35
-6 -2 5 13.97 3.32
3 10 -4 0.79 1.14
6 2 -3 0.22 0.89
-5 -1 8 10.84 2.95
6 2 -2 101.24 9.21
-1 -5 10 5.53 2.33
-6 -2 0 23.04 3.75
5 1 -3 34.87 4.99
6 2 2 48.17 5.82
-3 -11 -3 8.52 2.23
6 2 4 83.84 7.43
5 1 4 180.85 9.87
-6 -2 -6 31.31 4.39
8 6 8 8.14 2.73
-6 -2 -8 36.48 4.62
-5 -1 -9 1.35 1.12
-6 -2 -10 6.3 1.87
-4 8 4 6.4 2.49
-6 -2 -12 3.9 1.62
-5 -2 8 10.38 3.02
6 3 -6 41.1 5.7
-1 -7 -10 60.16 4.19
-6 -3 5 21.09 4.38
-5 -2 3 110.81 7.29
6 3 -3 5.03 2.1
-4 7 -5 4.55 2
-6 -3 2 8.45 2.14
-5 -2 -4 11.16 2.29
-6 -3 1 10.51 2.51
8 7 1 1.32 2.15
-6 -3 -1 273.79 12.37
5 2 9 19.84 3.3
6 3 3 24.6 4.09
4 -6 6 6.48 2.09
-6 -3 -5 26.27 3.94
-5 -3 7 39.6 5.83
-6 -3 -7 11.2 2.67
2 -9 -6 0.08 1.09
6 3 9 12.54 3
5 3 -1 31.39 4.44
6 3 11 -3.27 1.73
4 -5 6 4.87 1.6
-6 -4 6 6.15 2.47
-5 -3 -5 18.84 2.95
6 4 -4 28.98 4.67
-8 -7 -1 -1.24 1.53
6 4 -3 24.79 4.92
-5 -3 -11 1.29 1.09
6 4 -2 61.32 7.3
-4 4 -5 0.12 0.79
-6 -4 1 5.97 1.96
-5 -4 5 48.43 4.07
6 4 1 30 4.73
-2 5 2 69.32 5.49
-6 -4 -3 55.25 5.52
5 4 -1 91.26 3.37
-6 -4 -5 6.72 2.06
-4 3 -3 146.87 8.33
-6 -4 -7 10.68 2.55
-5 -4 -4 86.46 3.09
6 4 9 34.46 4.73
8 7 2 -0.53 1.17
6 4 11 13.58 2.95
-5 -4 -9 8.68 2.12
6 5 -5 20.55 4.25
4 -2 0 106.09 7.05
-6 -5 4 8.85 2
5 4 15 2.24 1.51
-6 -5 3 6 1.78
2 -2 -8 45.13 4.6
6 5 -2 48.44 6.57
5 5 -2 10.04 2.56
6 5 -1 75.91 7.79
-4 1 5 177.77 9.32
-6 -5 0 3.04 1.36
5 5 1 29 4.02
-6 -5 -2 1.98 1.25
-8 -7 -2 5.05 2.07
-6 -5 -4 82.03 6.56
5 5 6 66.44 5.67
-6 -5 -6 12.63 2.65
4 0 -11 3.73 1.6
-6 -5 -8 10.07 2.44
5 5 10 0.54 0.97
-6 -5 -10 25.64 3.85
2 0 2 1331.98 11.81
-6 -5 -11 0.32 0.83
-5 -6 4 14.71 2.31
6 5 13 11.52 2.76
4 0 7 5.29 1.6
-6 -6 4 75.17 5.69
5 6 -1 23.41 2.61
-6 -6 3 4.51 2.24
-8 -7 -3 6.35 2.23
-6 -6 2 5.35 1.63
-5 -6 -3 19.35 2.77
-6 -6 1 18.79 2.94
4 1 3 50.04 4.57
-6 -6 0 13.7 2.55
-5 -6 -7 67.73 5.07
6 6 2 4.45 2.07
2 2 10 57.25 4.84
-6 -6 -3 3.29 1.37
5 6 12 0.19 0.68
6 6 4 11.27 2.69
4 2 -3 141.23 4.68
-6 -6 -6 23.97 3.51
5 7 -2 36.4 4.86
-6 -6 -7 14.12 2.8
8 7 3 8.02 3.1
-6 -6 -9 6.08 1.99
-5 -7 -1 2.75 1.12
-6 -6 -10 5.45 1.78
-4 -3 6 46.69 5.53
-6 -6 -12 3.72 1.46
-5 -7 -5 134.81 7.18
6 7 -4 -0.21 1.13
2 5 -9 -0.27 0.98
6 7 -3 25.62 5.22
-5 -7 -10 4.87 1.82
-6 -7 2 59.6 5.21
4 3 12 60.28 5.45
6 7 0 4.49 2
5 8 -4 16.19 3.46
6 7 1 27.81 4.51
-8 -7 -4 2.44 1.6
6 7 2 2.22 1.43
5 8 0 16.84 3.3
-6 -7 -3 46.61 4.64
-4 -4 -5 516.48 13.28
6 7 4 3.59 1.67
-5 -8 -4 151.73 7.74
6 7 6 29.71 4.19
-2 -7 -8 30.6 4.34
-6 -7 -7 17.56 3.12
5 8 9 8.66 1.93
6 7 8 52.07 5.51
-4 -5 0 45.45 3.58
-6 -7 -10 0.11 0.91
5 9 -4 5.86 2.29
-6 -7 -12 9.69 2.11
8 7 4 -0.88 1.48
6 8 -3 26.63 4.64
-5 -9 -2 13.06 2.56
6 8 -2 17.39 4.02
-4 -6 5 21.76 2.55
6 8 0 2.68 1.66
-5 -9 -7 50.12 4.65
6 8 1 20.52 3.96
-3 10 4 -2.17 2.04
6 8 2 5.43 2.16
5 9 12 5.55 2
-5 -10 -4 18.04 3.01
4 6 11 3.24 1.25
-5 -10 -7 1.95 1.14
-4 -7 -2 72.43 4.83
-5 -10 -10 9.24 2.94
8 7 5 18.96 4.33
5 11 2 7.14 2.42
-4 -7 -12 10.01 1.94
5 11 7 1.76 1.19
3 -4 -4 5.22 1.22
-5 -11 -12 -0.71 1.5
-4 -8 0 1.6 1.34
5 12 8 -2.82 1.56
3 -5 1 14.41 2.3
6 -5 -3 1.9 1.55
4 8 8 16.27 2.22
-6 5 -1 4.9 2.23
3 -3 7 21.15 2.7
6 -5 5 3.49 1.75
4 9 0 25.16 3.46
-6 4 2 12.38 3.24
-8 -7 -5 16.66 3.59
-6 4 -2 0.01 1.19
4 9 8 7.97 1.99
6 -4 6 15.73 3.56
3 -1 -4 1.11 0.88
6 -3 -4 26.12 4.93
-4 -10 -5 14.11 2.95
-6 3 2 3.26 2
0 -4 -11 15.13 3.16
-6 3 -2 7.29 2.44
-4 -11 -4 8 2.41
6 -3 6 3.49 1.99
-3 0 -5 188.87 6.34
6 -2 -7 0.62 1.32
4 12 7 0.65 1.23
6 -2 -5 0.09 1.02
8 7 6 2.83 1.94
6 -2 -2 11.87 3.22
5 -6 2 1.17 1.21
6 -2 2 92.81 8.11
3 2 -5 1.44 1.09
6 -2 6 16.44 3.49
5 -5 3 0.74 1.18
6 -1 -8 5.73 2.24
-1 10 2 9.57 2.71
6 -1 -5 7.19 2.18
-5 4 3 13.68 3.3
-6 1 3 12.72 3.17
-3 -3 -3 137.1 4.54
6 -1 1 13.3 3.27
5 -4 8 14.14 2.95
6 -1 5 17.98 3.54
-8 -7 -6 0.88 1.27
-6 1 -9 1.55 1.35
-5 3 -2 104.07 7.94
-6 0 7 3.55 1.87
-3 -4 -11 69.9 6.22
6 0 -4 71.76 8.15
5 -2 -8 20.38 3.61
-6 0 1 19.33 3.65
-1 3 1 1608.16 18.57
-6 0 -3 11.47 2.94
-5 2 -4 32.65 3.07
6 0 7 9.56 2.79
3 6 -1 405.6 9.32
-6 0 -11 0.91 1.01
-5 1 7 9.16 2.74
6 1 -5 28.02 5.45
8 7 7 0.37 1.2
6 1 -2 36.41 4.86
-5 1 -6 32.05 4.14
-6 -1 -1 279.05 13.1
3 7 7 58.54 4.44
-6 -1 -5 19.1 3.54
-5 0 6 2.31 1.42
6 1 9 0.38 1.39
1 1 12 1.18 1.16
-6 -2 7 -2.98 1.95
-5 0 -7 84.37 6.5
-6 -2 4 4.36 1.87
-3 -9 -3 8.64 2.02
6 2 -1 18.18 3.92
-5 -1 5 38.6 4.64
-6 -2 -3 9.58 2.51
8 7 8 -3.53 2.1
6 2 7 4.68 2.01
-5 -1 -7 50.74 5.05
-6 -2 -11 4.09 1.63
-3 -12 -4 3.19 1.75
6 3 -5 22.72 4.17
-5 -2 5 51.46 5.13
6 3 -3 5.98 2.69
1 6 0 150.97 5.57
6 3 0 5.75 2.43
5 2 6 78.87 6.48
6 3 4 17.61 3.45
4 -6 -2 143.44 8.63
-6 -3 -8 2.35 1.67
-5 -3 4 5.06 1.97
6 3 12 -0.67 1.22
8 7 9 -2 1.57
-6 -4 4 21.03 4.28
-5 -3 -8 0.54 0.53
6 4 -1 2.05 1.55
4 -4 -4 18.47 3.01
-6 -4 -2 8.82 2.26
-5 -4 3 32.47 4.8
-6 -4 -6 8.21 2.22
2 -7 5 2.09 1.34
6 4 10 -0.68 1.33
5 4 6 113.02 7.5
6 5 -4 13.28 3.83
-4 2 9 8.41 2.37
-6 -5 3 9.73 2.94
5 5 -4 37.91 4.97
6 5 0 2.76 1.66
8 8 1 1.4 1.59
-6 -5 -3 90.04 6.81
5 5 4 114.79 7.53
-6 -5 -7 3.13 1.31
-4 1 -3 303.32 7.52
6 5 10 25.19 4.01
5 5 13 4.21 1.68
6 6 -4 82.12 8.08
-2 1 2 1160.44 14.37
6 6 -2 4.22 1.94
-5 -6 -1 51.84 4.41
6 6 0 14.54 3.33
-4 -1 7 6.75 2.06
-6 -6 -2 4.2 1.44
5 6 9 0.03 0.78
-6 -6 -5 -0.44 1.4
8 8 2 -2.37 1.95
-6 -6 -8 10.39 2.51
5 7 -1 68.73 5.09
-6 -6 -11 12.01 2.37
-4 -2 -8 58.55 4.24
6 7 -3 20.52 4.17
-5 -7 -7 1.91 1.13
6 7 -1 0.39 1.12
2 3 9 127.79 3.94
6 7 1 18.11 3.66
5 8 -2 -0.08 0.74
-6 -7 -4 3.3 1.34
4 4 -3 16.02 2
-6 -7 -6 24.56 3.43
-5 -8 -7 11.95 2.58
-6 -7 -9 1.73 1.49
-8 -8 -3 7.33 2.36
6 7 13 1.03 1.15
5 9 0 14.89 3.01
6 8 -1 15 3.4
-4 -5 -7 5.71 1.57
-6 -8 -1 20.02 3.11
-5 -9 -10 3.26 1.77
-5 -10 -6 3.67 1.81
2 9 7 17.93 2.99
5 10 11 1.85 1.33
4 7 7 6.92 1.57
5 11 9 4.1 1.74
4 7 -1 76.77 6.33
-6 6 -3 1.34 1.39
-4 -8 -4 81.79 5.39
-6 5 -3 2.44 1.74
8 8 3 6.9 2.81
6 -4 0 0.03 1.23
4 9 4 15.19 2.32
-6 3 6 93.19 9.18
-3 2 -1 32.03 2.65
6 -3 0 20.66 4.05
4 10 11 2.33 1.53
-6 3 -8 0.32 0.99
0 -2 -6 24.2 1.29
6 -2 -3 28.35 4.11
5 -6 -6 0.72 1.25
6 -2 4 2.26 1.4
-3 -1 1 207.56 7.48
-6 1 7 73.85 7.89
5 -5 8 6.61 2.08
6 -1 -1 28.87 4.74
-8 -8 -4 -0.46 0.95
-6 1 -7 6.29 2.09
-5 3 5 35.38 5.11
6 0 -5 3.78 1.73
3 4 -3 330.06 9.39
6 0 1 31.72 4.79
-5 2 2 30.7 4.43
-6 0 -9 4.53 1.86
-1 6 -6 9.21 2.45
-6 -1 4 54.33 6.05
5 -1 0 1075.68 25.1
-6 -1 -3 207.2 11.26
3 6 16 11.35 3.08
6 1 11 4.22 1.89
-5 0 -1 144.74 8.7
-6 -2 3 1.69 1.39
8 8 4 -0.35 1.27
-6 -2 -5 119.97 8.35
5 1 1 72.01 6.34
-6 -2 -13 0 0.8
3 10 7 2.3 1.3
6 3 -1 11.02 2.74
5 2 0 114.65 8.21
6 3 6 65.64 6.47
1 3 8 24.87 1.8
-6 -4 5 -0.84 1.22
-5 -3 -2 200.91 9.45
-6 -4 0 10.29 2.46
4 -5 -2 0.11 0.54
-6 -4 -8 1.92 1.17
-5 -4 -2 98.88 6.48
6 5 -3 4.61 2.24
8 8 5 11.63 3.3
-6 -5 -1 99.29 7.13
-5 -5 1 30.61 3.38
-6 -5 -9 11.37 2.43
-4 2 -9 6.09 1.67
6 6 -3 6.91 2.55
-5 -6 2 1.94 0.9
-6 -6 -1 33.92 4.01
2 -4 6 0.96 0.9
6 6 7 16.3 3.27
5 7 -5 28.67 4.66
6 6 13 2.72 1.74
-4 -1 -12 25.45 3.92
-6 -7 0 1.14 1.23
-5 -7 -12 21.88 2.82
-6 -7 -5 10.88 2.35
-8 -8 -5 8.42 2.52
-6 -7 -11 4.16 1.67
-5 -8 -12 -0.43 1.02
6 8 0 2.23 1.57
4 5 -8 15.18 2.91
5 10 8 6.59 1.96
-5 -10 -2 18.15 2.95
5 12 6 5.44 2.68
2 6 -1 1 0.46
6 -4 -4 20.9 4.43
-4 -8 -14 4.15 2.24
-6 3 3 3.35 1.87
-3 3 9 92.75 7.46
6 -2 -6 1.79 1.72
-4 -11 -10 2.55 1.87
-6 2 -8 -0.51 1.09
8 8 6 5.33 2.37
-6 1 -3 145.12 9.87
-5 4 -3 6.93 2.23
6 0 -3 24.71 4.75
3 2 11 59.03 5.36
-6 -1 7 73.91 8.04
5 -2 9 6.58 1.99
-6 -1 -7 19.92 3.47
0 -7 -5 314.66 9.59
6 2 1 12.5 3.07
5 0 12 5.04 1.95
6 3 -4 142.9 11.58
3 8 3 110.16 5.62
6 3 10 27.14 4.28
5 2 12 5.45 1.95
6 4 4 31.6 4.57
8 8 7 1.28 1.37
-6 -5 2 51.24 4.83
5 4 11 -1.22 1.06
-6 -5 -12 9.53 2.16
-4 3 7 33.65 3.85
-6 -6 -4 11.96 2.45
-5 -6 -5 11.02 2.27
6 7 -2 57.01 6.53
-1 -9 -12 6.59 1.87
-6 -7 -8 67.35 5.83
5 8 2 26.32 3.63
-6 -8 -2 3.28 1.56
4 3 2 145.92 3.02
6 -5 -1 9.88 2.91
4 8 -3 8.65 2.33
-6 3 -4 -1.29 1.37
8 8 8 1.47 1.46
-6 1 4 27.84 4.62
5 -5 -5 1.02 1.09
6 0 5 26.42 4.31
-3 1 -13 5.91 2.15
6 2 -5 10.3 2.91
5 -1 11 1.83 1.74
-6 -3 -2 29.12 4.05
-3 7 -6 2.39 1.61
6 4 12 0.93 1.19
-5 -3 -15 8.08 2.76
6 6 -1 17.7 3.93
-4 7 6 2.33 1.79
-6 -7 -2 6.06 1.86
-5 -7 -3 190.94 8.23
5 11 5 7.37 2.04
8 8 9 2.13 1.55
6 -2 0 37.33 5.39
-4 -10 2 -1.67 1.64
-6 -1 1 6.28 2.02
-4 -6 -2 433.99 10.92
-6 -4 3 20.46 3.31
-5 -1 -12 5.43 1.79
6 6 9 5.66 2.04
2 1 8 45.68 3.73
-6 4 -4 19.56 4.06
5 9 4 37.51 3.58
-6 -2 -9 8.38 2.27
-4 0 2 403.79 5.96
6 8 -2 22.02 4.27
5 5 8 7.66 2.08
-6 -5 -5 1.46 1.17
6 0 -8 15.31 3.51
