#------------------------------------------------------------------------------
#$Date: 2019-11-26 12:51:10 +0200 (Tue, 26 Nov 2019) $
#$Revision: 243395 $
#$URL: file:///home/coder/svn-repositories/cod/cif/4/13/36/4133658.cif $
#------------------------------------------------------------------------------
#
# This file is available in the Crystallography Open Database (COD),
# http://www.crystallography.net/
#
# All data on this site have been placed in the public domain by the
# contributors.
#
data_4133658
loop_
_publ_author_name
'Wertjes, William C.'
'Okumura, Mikiko'
'Sarlah, David'
_publ_section_title
;
 Palladium-Catalyzed Dearomative syn-1,4-Diamination.
;
_journal_issue                   1
_journal_name_full               'Journal of the American Chemical Society'
_journal_page_first              163
_journal_page_last               167
_journal_paper_doi               10.1021/jacs.8b13030
_journal_volume                  141
_journal_year                    2019
_chemical_formula_moiety         'C12 H18 N4 O2, H2 O'
_chemical_formula_sum            'C12 H20 N4 O3'
_chemical_formula_weight         268.32
_chemical_name_systematic        benzene_MTAD_iPrNH2
_space_group_crystal_system      triclinic
_space_group_IT_number           2
_space_group_name_Hall           '-P 1'
_space_group_name_H-M_alt        'P -1'
_atom_sites_solution_hydrogens   mixed
_atom_sites_solution_primary     dual
_audit_creation_date             2018-10-23
_audit_creation_method
;
Olex2 1.2
(compiled 2017.03.28 svn.r3405 for OlexSys, GUI svn.r5335)
;
_cell_angle_alpha                69.1109(16)
_cell_angle_beta                 76.8504(17)
_cell_angle_gamma                68.7540(16)
_cell_formula_units_Z            2
_cell_length_a                   8.0480(3)
_cell_length_b                   8.8580(4)
_cell_length_c                   10.9924(5)
_cell_measurement_reflns_used    9860
_cell_measurement_temperature    100(2)
_cell_measurement_theta_max      26.42
_cell_measurement_theta_min      2.59
_cell_volume                     678.01(5)
_computing_cell_refinement       'SAINT v8.37A (Bruker, 2015)'
_computing_data_reduction        'SAINT v8.37A (Bruker, 2015)'
_computing_molecular_graphics    'Olex2 (Dolomanov et al., 2009)'
_computing_publication_material  'Olex2 (Dolomanov et al., 2009)'
_computing_structure_refinement  'XL (Sheldrick, 2008)'
_computing_structure_solution    'ShelXT (Sheldrick, 2015)'
_diffrn_ambient_temperature      99.99
_diffrn_detector                 'Bruker Photon 100 area detector'
_diffrn_detector_type            'photon counter area detector'
_diffrn_measured_fraction_theta_full 0.998
_diffrn_measured_fraction_theta_max 0.999
_diffrn_measurement_device       'kappa diffractometer'
_diffrn_measurement_device_type  'Bruker D8 Venture/Photon 100'
_diffrn_measurement_method       '\f and \w scans'
_diffrn_radiation_monochromator  'multilayer mirrors'
_diffrn_radiation_probe          x-ray
_diffrn_radiation_type           MoK\a
_diffrn_radiation_wavelength     0.71073
_diffrn_reflns_av_R_equivalents  0.0192
_diffrn_reflns_av_unetI/netI     0.0255
_diffrn_reflns_Laue_measured_fraction_full 0.998
_diffrn_reflns_Laue_measured_fraction_max 0.999
_diffrn_reflns_limit_h_max       10
_diffrn_reflns_limit_h_min       -10
_diffrn_reflns_limit_k_max       11
_diffrn_reflns_limit_k_min       -11
_diffrn_reflns_limit_l_max       13
_diffrn_reflns_limit_l_min       -13
_diffrn_reflns_number            5557
_diffrn_reflns_point_group_measured_fraction_full 0.998
_diffrn_reflns_point_group_measured_fraction_max 0.999
_diffrn_reflns_theta_full        25.242
_diffrn_reflns_theta_max         26.443
_diffrn_reflns_theta_min         2.588
_diffrn_source                   'microfocus sealed X-ray tube'
_diffrn_source_target            Mo
_diffrn_source_type              'Incoatec I\ms'
_diffrn_standards_number         0
_exptl_absorpt_coefficient_mu    0.096
_exptl_absorpt_correction_T_max  0.745372
_exptl_absorpt_correction_T_min  0.713362
_exptl_absorpt_correction_type   multi-scan
_exptl_absorpt_process_details
;
 TWINABS-2012/1 (Bruker,2012) was used for absorption correction.
 
For component 1:
 wR2(int) was 0.0855 before and 0.0503 after correction.
 The Ratio of minimum to maximum transmission not present.
 The \l/2 correction factor is Not present
 
For component 2:
 wR2(int) was 0.0943 before and 0.0559 after correction.
 The Ratio of minimum to maximum transmission is 0.96.
 The \l/2 correction factor is Not present

Final HKLF 4 output contains 43855 reflections, Rint = 0.0573
 (27675 with I > 3sig(I), Rint = 0.0434)
;
_exptl_crystal_colour            colourless
_exptl_crystal_colour_primary    colourless
_exptl_crystal_density_diffrn    1.314
_exptl_crystal_description       plate
_exptl_crystal_F_000             288
_exptl_crystal_recrystallization_method
'Crystallization was conducted by slow diffusion in dichloromethane/diethyl ether.'
_exptl_crystal_size_max          0.317
_exptl_crystal_size_mid          0.154
_exptl_crystal_size_min          0.08
_refine_diff_density_max         0.276
_refine_diff_density_min         -0.229
_refine_diff_density_rms         0.044
_refine_ls_extinction_coef       0.071(5)
_refine_ls_extinction_expression Fc^*^=kFc[1+0.001xFc^2^\l^3^/sin(2\q)]^-1/4^
_refine_ls_extinction_method     'SHELXL-2014/7 (Sheldrick 2014'
_refine_ls_goodness_of_fit_ref   1.107
_refine_ls_hydrogen_treatment    mixed
_refine_ls_matrix_type           full
_refine_ls_number_parameters     188
_refine_ls_number_reflns         2779
_refine_ls_number_restraints     0
_refine_ls_restrained_S_all      1.107
_refine_ls_R_factor_all          0.0584
_refine_ls_R_factor_gt           0.0472
_refine_ls_shift/su_max          0.000
_refine_ls_shift/su_mean         0.000
_refine_ls_structure_factor_coef Fsqd
_refine_ls_weighting_details
'w=1/[\s^2^(Fo^2^)+(0.0265P)^2^+0.5207P] where P=(Fo^2^+2Fc^2^)/3'
_refine_ls_weighting_scheme      calc
_refine_ls_wR_factor_gt          0.0940
_refine_ls_wR_factor_ref         0.0980
_reflns_Friedel_coverage         0.000
_reflns_number_gt                2426
_reflns_number_total             2779
_reflns_threshold_expression     'I > 2\s(I)'
_cod_data_source_file            ja8b13030_si_002.cif
_cod_data_source_block           d25pt4
_cod_database_code               4133658
_shelx_shelxl_version_number     2014/7
_shelx_space_group_comment
;
The symmetry employed for this shelxl refinement is uniquely defined
by the following loop, which should always be used as a source of
symmetry information in preference to the above space-group names.
They are only intended as comments.
;
_shelx_estimated_absorpt_t_max   0.992
_shelx_estimated_absorpt_t_min   0.970
_olex2_refinement_description
;
1. Fixed Uiso
 At 1.2 times of:
  All C(H) groups
 At 1.5 times of:
  All C(H,H,H) groups, All N(H,H) groups, All O(H,H) groups
2.a Ternary CH refined with riding coordinates:
 C1(H1), C4(H4), C10(H10)
2.b Aromatic/amide H refined with riding coordinates:
 C2(H2), C3(H3), C5(H5), C6(H6)
2.c Idealised Me refined as rotating group:
 C9(H9A,H9B,H9C), C11(H11A,H11B,H11C), C12(H12A,H12B,H12C)
;
_shelx_res_file
;
    d25pt4.res created by SHELXL-2014/7

TITL d25pt4 in P-1
CELL 0.71073 8.048 8.858 10.9924 69.1109 76.8504 68.754
ZERR 2 0.0003 0.0004 0.0005 0.0016 0.0017 0.0016
LATT 1
SFAC C H N O
UNIT 24 40 8 6
EQIV $1 +X,-1+Y,+Z
EQIV $2 2-X,1-Y,1-Z

L.S. 10
PLAN  20
SIZE 0.08 0.154 0.317
TEMP -173.16
HTAB N4 O3
HTAB N4 O2_$1
HTAB O3 N2
HTAB O3 O1_$2
BOND $H
HTAB
WPDB -2
CONF
LIST 4
fmap 2
acta
OMIT -1 1 2
OMIT 0 0 2
OMIT -1 0 1
REM <olex2.extras>
REM <HklSrc "%.\\d25pt4.hkl">
REM </olex2.extras>

WGHT    0.026500    0.520700
EXTI    0.070762
FVAR       0.38147
O1    4    1.096630    0.771897    0.415890    11.00000    0.02846    0.02063 =
         0.02207   -0.00066   -0.01224   -0.00653
O2    4    0.768530    1.223993    0.106170    11.00000    0.02470    0.01193 =
         0.01834   -0.00263   -0.00495   -0.00440
N1    3    0.814983    0.931681    0.181249    11.00000    0.02969    0.01153 =
         0.02160    0.00032   -0.01345   -0.00673
N2    3    0.907291    0.788616    0.276871    11.00000    0.02793    0.01320 =
         0.02188    0.00091   -0.01175   -0.00596
N3    3    0.953986    1.025897    0.267370    11.00000    0.02034    0.01368 =
         0.01694   -0.00425   -0.00424   -0.00557
N4    3    0.591957    0.465096    0.240676    11.00000    0.01935    0.01323 =
         0.01696   -0.00427   -0.00328   -0.00486
H4A   2    0.672469    0.465347    0.294789    11.00000   -1.50000
H4B   2    0.655375    0.381044    0.195164    11.00000   -1.50000
C1    1    0.698776    0.915678    0.105928    11.00000    0.03018    0.01333 =
         0.01973   -0.00007   -0.01293   -0.00679
AFIX  13
H1    2    0.668492    1.023118    0.031658    11.00000   -1.20000
AFIX   0
C2    1    0.526627    0.897433    0.187389    11.00000    0.02363    0.01462 =
         0.02545   -0.00685   -0.01254    0.00113
AFIX  43
H2    2    0.460595    0.979562    0.231616    11.00000   -1.20000
AFIX   0
C3    1    0.460261    0.774852    0.201965    11.00000    0.01974    0.01720 =
         0.02363   -0.00563   -0.00777   -0.00086
AFIX  43
H3    2    0.349638    0.773516    0.255397    11.00000   -1.20000
AFIX   0
C4    1    0.552784    0.637726    0.137433    11.00000    0.02335    0.01305 =
         0.01818   -0.00124   -0.00906   -0.00536
AFIX  13
H4    2    0.472336    0.643072    0.077791    11.00000   -1.20000
AFIX   0
C5    1    0.729188    0.650986    0.060185    11.00000    0.02847    0.01671 =
         0.01356   -0.00442   -0.00416   -0.00621
AFIX  43
H5    2    0.796809    0.567422    0.017595    11.00000   -1.20000
AFIX   0
C6    1    0.795674    0.772625    0.048145    11.00000    0.02758    0.02073 =
         0.01371   -0.00176   -0.00262   -0.01016
AFIX  43
H6    2    0.910672    0.769230    0.000469    11.00000   -1.20000
AFIX   0
C7    1    0.992608    0.849619    0.328272    11.00000    0.01912    0.01554 =
         0.01721   -0.00397   -0.00188   -0.00470
C8    1    0.838011    1.076414    0.176692    11.00000    0.01791    0.01552 =
         0.01525   -0.00609   -0.00043   -0.00474
C9    1    1.023961    1.134475    0.300177    11.00000    0.02765    0.01894 =
         0.02686   -0.00887   -0.00812   -0.00816
AFIX 137
H9A   2    0.995169    1.247463    0.235489    11.00000   -1.50000
H9B   2    1.154448    1.085153    0.299725    11.00000   -1.50000
H9C   2    0.969535    1.144158    0.387480    11.00000   -1.50000
AFIX   0
C10   1    0.435863    0.417047    0.331101    11.00000    0.02190    0.01950 =
         0.02411   -0.00856    0.00369   -0.00906
AFIX  13
H10   2    0.376001    0.501690    0.380588    11.00000   -1.20000
AFIX   0
C11   1    0.299876    0.418692    0.254941    11.00000    0.02397    0.02792 =
         0.04681   -0.01091   -0.00510   -0.01092
AFIX 137
H11A  2    0.248524    0.534561    0.199013    11.00000   -1.50000
H11B  2    0.204084    0.379400    0.316243    11.00000   -1.50000
H11C  2    0.359058    0.343179    0.200305    11.00000   -1.50000
AFIX   0
C12   1    0.510860    0.243749    0.428220    11.00000    0.03434    0.02530 =
         0.02344   -0.00383    0.00236   -0.01531
AFIX 137
H12A  2    0.414012    0.214413    0.494612    11.00000   -1.50000
H12B  2    0.603461    0.247066    0.470847    11.00000   -1.50000
H12C  2    0.563427    0.158111    0.381774    11.00000   -1.50000
AFIX   0

O3    4    0.798766    0.497825    0.382585    11.00000    0.03971    0.01975 =
         0.02856    0.00436   -0.01934   -0.01497
H3A   2    0.842845    0.583505    0.355114    11.00000   -1.50000
H3B   2    0.853758    0.423752    0.445204    11.00000   -1.50000
HKLF 4

REM  d25pt4 in P-1
REM R1 =  0.0472 for    2426 Fo > 4sig(Fo)  and  0.0584 for all    2779 data
REM    188 parameters refined using      0 restraints

END

WGHT      0.0265      0.5207

REM Instructions for potential hydrogen bonds
HTAB N4 O3
HTAB N4 O2_$1
EQIV $3 x-1, y, z
HTAB C3 O1_$3
EQIV $4 -x+2, -y+2, -z
HTAB C6 O2_$4
EQIV $5 -x+2, -y+2, -z+1
HTAB C9 O1_$5
HTAB O3 N2
HTAB O3 O1_$2

REM Highest difference peak  0.276,  deepest hole -0.229,  1-sigma level  0.044
Q1    1   0.9409  0.9517  0.3157  11.00000  0.05    0.28
Q2    1   0.9832  1.0805  0.2857  11.00000  0.05    0.26
Q3    1   0.5191  0.7050  0.1656  11.00000  0.05    0.24
Q4    1   0.4684  0.8552  0.1543  11.00000  0.05    0.22
Q5    1   0.7639  0.9212  0.1428  11.00000  0.05    0.21
Q6    1   0.6340  0.6560  0.0899  11.00000  0.05    0.21
Q7    1   0.7401  0.8431  0.0824  11.00000  0.05    0.21
Q8    1   0.6079  0.9140  0.1354  11.00000  0.05    0.20
Q9    1   0.5500  0.7993  0.2067  11.00000  0.05    0.20
Q10   1   0.7902  0.6714  0.0963  11.00000  0.05    0.18
Q11   1   0.8871  1.0589  0.2349  11.00000  0.05    0.18
Q12   1   1.1041  1.0870  0.3827  11.00000  0.05    0.17
Q13   1   1.0224  0.9539  0.2517  11.00000  0.05    0.16
Q14   1   0.7101  0.7459  0.0332  11.00000  0.05    0.16
Q15   1   0.8947  0.8293  0.3426  11.00000  0.05    0.16
Q16   1   1.0011  0.7468  0.4904  11.00000  0.05    0.16
Q17   1   0.3595  0.4238  0.2930  11.00000  0.05    0.15
Q18   1   0.8112  1.2520  0.1355  11.00000  0.05    0.15
Q19   1   0.7619  0.4794  0.3198  11.00000  0.05    0.15
Q20   1   0.6860  1.2095  0.0650  11.00000  0.05    0.14
;
_shelx_res_checksum              61268
_shelx_hkl_file
;
  -1   0   0    0.36    0.02
   1   0   0    0.37    0.02
  -2   0   0   23.66    0.21
   2   0   0   23.58    0.22
  -3   0   0   86.66    0.72
   3   0   0   85.58    0.82
  -4   0   0   68.31    0.59
   4   0   0   68.65    0.65
  -5   0   0    4.82    0.13
   5   0   0    5.06    0.13
  -6   0   0    0.04    0.49
   6   0   0    0.41    0.14
  -7   0   0    0.88    0.52
   7   0   0    0.70    0.22
  -8   0   0    7.36    0.43
   8   0   0    7.43    0.27
  -9   0   0    1.23    0.80
   9   0   0    2.28    0.62
   9  -1   0    3.50    1.30
  -9   1   0    6.83   19.31
   8  -1   0    5.35    0.30
  -8   1   0    5.86    0.46
   7  -1   0    0.67    0.11
  -7   1   0    0.74    0.20
   6  -1   0   17.32    0.29
  -6   1   0   17.53    0.30
   5  -1   0    0.64    0.10
  -5   1   0    0.75    0.08
   4  -1   0   16.65    0.20
  -4   1   0   16.62    0.21
   3  -1   0    0.14    0.05
  -3   1   0    0.20    0.05
   2  -1   0   45.91    0.37
  -2   1   0   46.01    0.39
   1  -1   0  412.90    3.26
  -1   1   0  415.21    2.92
   0  -1   0   15.06    0.16
   0   1   0   14.91    0.16
  -1  -1   0  167.49    1.19
   1   1   0  166.30    1.27
  -2  -1   0   99.34    0.69
   2   1   0   97.98    0.68
  -3  -1   0    7.76    0.12
   3   1   0    7.82    0.11
  -4  -1   0    1.93    0.10
   4   1   0    2.09    0.09
  -5  -1   0    7.05    0.12
   5   1   0    6.87    0.14
  -6  -1   0   30.51    0.38
   6   1   0   30.94    0.36
  -7  -1   0    8.61    0.53
   7   1   0   11.90    0.24
  -8  -1   0    1.42    0.66
   8   1   0    0.51    0.27
  -9  -1   0    0.40    0.31
   9   1   0    0.28    0.19
   8  -2   0    7.60    0.45
  -8   2   0    9.56    1.36
   7  -2   0    9.90    0.23
  -7   2   0   10.16    0.33
   6  -2   0   24.27    0.38
  -6   2   0   25.61    0.39
   5  -2   0    8.99    0.22
  -5   2   0    8.71    0.26
   4  -2   0    1.41    0.08
  -4   2   0    1.36    0.09
   3  -2   0   11.43    0.18
  -3   2   0   11.71    0.18
   2  -2   0    5.02    0.39
  -2   2   0    4.95    0.35
   1  -2   0   34.57    0.39
  -1   2   0   34.34    0.36
   0  -2   0    7.04    0.13
   0   2   0    6.90    0.14
  -1  -2   0    2.62    0.06
   1   2   0    2.42    0.07
  -2  -2   0  111.41    0.87
   2   2   0  111.46    1.03
  -3  -2   0    6.28    0.10
   3   2   0    6.14    0.11
  -4  -2   0   26.24    0.25
   4   2   0   25.90    0.28
  -5  -2   0   80.35    0.85
   5   2   0   79.15    0.93
  -6  -2   0    0.10    0.06
   6   2   0    0.05    0.06
  -7  -2   0    6.67    0.20
   7   2   0    6.90    0.20
  -8  -2   0   11.26    0.69
   8   2   0   13.01    0.31
  -9  -2   0    8.74    0.50
   9   2   0    9.21    0.36
   8  -3   0   10.30    0.88
  -8   3   0   12.21    2.41
   7  -3   0    7.37    0.42
  -7   3   0   10.05    0.46
   6  -3   0   17.15    0.31
  -6   3   0   17.22    0.33
   5  -3   0    2.96    0.19
  -5   3   0    2.83    0.25
   4  -3   0    2.24    0.18
  -4   3   0    2.90    0.19
   3  -3   0    2.50    0.12
  -3   3   0    2.48    0.12
   2  -3   0   28.41    0.36
  -2   3   0   28.48    0.32
   1  -3   0   27.27    0.63
  -1   3   0   26.81    0.50
   0  -3   0  154.45    1.30
   0   3   0  154.46    1.45
  -1  -3   0  226.63    1.83
   1   3   0  227.23    1.77
  -2  -3   0   12.39    0.45
   2   3   0   13.01    0.59
  -3  -3   0   17.02    0.20
   3   3   0   16.79    0.23
  -4  -3   0    1.02    0.06
   4   3   0    1.09    0.08
  -5  -3   0  113.50    1.01
   5   3   0  115.04    1.24
  -6  -3   0   29.72    0.34
   6   3   0   29.93    0.47
  -7  -3   0    2.10    0.12
   7   3   0    2.41    0.15
  -8  -3   0    0.63    0.59
   8   3   0    0.46    0.77
  -9  -3   0    7.89    1.26
   9   3   0   10.01    0.50
   7  -4   0   25.93    0.59
  -7   4   0   27.26    0.64
   6  -4   0   13.14    0.31
  -6   4   0   13.58    0.41
   5  -4   0    2.49    0.15
  -5   4   0    2.17    0.15
   4  -4   0   18.15    0.45
  -4   4   0   18.40    0.58
   3  -4   0   43.85    0.52
  -3   4   0   43.64    0.51
   2  -4   0   28.00    0.41
  -2   4   0   27.30    0.34
   1  -4   0   44.16    0.51
  -1   4   0   43.73    0.54
   0  -4   0   53.25    0.56
   0   4   0   53.22    0.66
  -1  -4   0    0.44    0.06
   1   4   0    0.52    0.06
  -2  -4   0    1.95    0.10
   2   4   0    1.92    0.10
  -3  -4   0   15.90    0.52
   3   4   0   16.59    0.73
  -4  -4   0    1.58    0.08
   4   4   0    1.46    0.11
  -5  -4   0    0.04    0.07
   5   4   0    0.11    0.09
  -6  -4   0   10.59    0.22
   6   4   0   10.52    0.27
  -7  -4   0   31.59    0.37
   7   4   0   32.16    0.65
  -8  -4   0    1.38    0.16
   8   4   0    1.66    0.16
  -9  -4   0    0.00    0.63
   9   4   0    0.25    0.89
   6  -5   0   10.34    0.47
  -6   5   0   10.62    0.45
   5  -5   0   31.51    0.51
  -5   5   0   31.45    0.51
   4  -5   0    0.16    0.13
  -4   5   0    0.14    0.12
   3  -5   0    8.50    0.37
  -3   5   0    8.35    0.31
   2  -5   0    9.80    0.24
  -2   5   0    9.57    0.21
   1  -5   0    3.60    0.17
  -1   5   0    3.70    0.19
   0  -5   0   14.63    0.26
   0   5   0   15.42    0.43
  -1  -5   0   28.31    0.33
   1   5   0   27.86    0.42
  -2  -5   0    8.55    0.20
   2   5   0    8.41    0.21
  -3  -5   0   45.33    0.61
   3   5   0   45.80    0.80
  -4  -5   0    0.35    0.19
   4   5   0    0.72    0.29
  -5  -5   0    2.39    0.11
   5   5   0    2.33    0.15
  -6  -5   0   28.61    0.39
   6   5   0   27.86    0.44
  -7  -5   0    2.20    0.20
   7   5   0    2.56    0.22
  -8  -5   0    0.29    0.11
   8   5   0    0.20    0.13
  -9  -5   0   35.58    0.65
   9   5   0   34.71    0.71
   5  -6   0    0.45    0.49
  -5   6   0    0.81    0.42
   4  -6   0    1.48    0.17
  -4   6   0    1.55    0.16
   3  -6   0   17.04    0.43
  -3   6   0   17.10    0.39
   2  -6   0    0.03    0.21
  -2   6   0    0.00    0.26
   1  -6   0   13.73    0.27
  -1   6   0   13.44    0.37
   0  -6   0   39.77    0.48
   0   6   0   39.40    0.55
  -1  -6   0    6.33    0.19
   1   6   0    6.59    0.24
  -2  -6   0   13.12    0.23
   2   6   0   13.05    0.31
  -3  -6   0   31.57    0.40
   3   6   0   31.03    0.46
  -4  -6   0   18.06    0.34
   4   6   0   18.53    0.46
  -5  -6   0   41.13    0.45
   5   6   0   41.36    0.68
  -6  -6   0    0.75    0.10
   6   6   0    0.77    0.17
  -7  -6   0    5.66    0.31
   7   6   0    5.43    0.52
  -8  -6   0    3.25    0.31
   8   6   0    0.76    0.48
  -9  -6   0   12.87    0.30
   9   6   0   13.54    0.39
   4  -7   0    0.35    0.48
  -4   7   0    0.00    0.62
   3  -7   0   18.60    0.41
  -3   7   0   18.11    0.46
   2  -7   0   43.23    0.87
  -2   7   0   42.23    1.05
   1  -7   0    0.86    0.34
  -1   7   0    0.92    0.67
   0  -7   0   85.71    0.88
   0   7   0   84.03    1.03
  -1  -7   0    2.57    0.21
   1   7   0    2.19    0.32
  -2  -7   0   13.84    0.33
   2   7   0   13.95    0.44
  -3  -7   0  108.47    0.99
   3   7   0  107.58    1.16
  -4  -7   0    0.19    0.14
   4   7   0    0.26    0.16
  -5  -7   0    6.72    0.33
   5   7   0    6.85    0.63
  -6  -7   0    7.33    0.21
   6   7   0    6.93    0.30
  -7  -7   0   27.12    0.36
   7   7   0   27.64    0.54
  -8  -7   0   13.64    0.34
   8   7   0   13.91    0.67
   3  -8   0    0.38    0.21
  -3   8   0    0.44    0.24
   2  -8   0    2.91    0.27
  -2   8   0    3.04    0.23
   1  -8   0    0.29    0.30
  -1   8   0    0.01    0.75
   0  -8   0    6.12    0.26
   0   8   0    6.12    0.35
  -1  -8   0    0.52    0.13
   1   8   0    0.72    0.22
  -2  -8   0   16.86    0.45
   2   8   0   18.29    0.90
  -3  -8   0    6.04    0.76
   3   8   0    4.54    0.76
  -4  -8   0   43.34    0.54
   4   8   0   44.18    0.71
  -5  -8   0    1.34    0.27
   5   8   0    1.68    0.56
  -6  -8   0    0.37    0.29
   6   8   0    0.81    0.46
  -7  -8   0    0.82    0.14
   7   8   0    1.00    0.22
  -8  -8   0    1.47    0.66
   8   8   0    0.00    0.47
   2  -9   0    3.83    0.46
  -2   9   0    3.35    1.46
   1  -9   0   10.53    0.65
  -1   9   0   11.44    0.60
   0  -9   0   17.70    0.59
   0   9   0   15.84    0.78
  -1  -9   0    0.75    0.16
   1   9   0    0.79    0.25
  -2  -9   0    0.40    0.18
   2   9   0    0.55    0.31
  -3  -9   0    2.10    0.26
   3   9   0    1.55    0.37
  -4  -9   0    2.59    0.25
   4   9   0    2.93    0.26
  -5  -9   0    4.17    0.23
   5   9   0    3.67    0.33
  -6  -9   0   14.83    0.40
   6   9   0   16.17    0.75
  -7  -9   0    0.00    0.91
   7   9   0    2.94    0.62
  -1 -10   0    0.00    0.64
   1  10   0    0.00    0.79
  -2 -10   0    1.68    0.23
   2  10   0    1.40    0.35
  -3 -10   0    4.62    0.57
   3  10   0    5.62    0.93
  -4 -10   0    0.00    0.58
   4  10   0    0.10    0.50
  -5 -10   0    0.70    0.26
   5  10   0    0.81    0.28
   3  10  -1    3.50    0.39
  -3 -10   1    3.64    0.26
   2  10  -1    2.12    0.52
  -2 -10   1    2.12    0.37
   6   9  -1    1.88    0.60
  -6  -9   1    1.72    0.49
   5   9  -1    0.90    0.28
  -5  -9   1    0.15    0.19
   4   9  -1    8.71    0.50
  -4  -9   1    8.97    0.46
   3   9  -1    0.07    0.41
  -3  -9   1    0.87    0.41
   2   9  -1    1.03    0.24
  -2  -9   1    0.48    0.19
   1   9  -1    0.29    0.31
  -1  -9   1    0.43    0.16
   0   9  -1    8.69    0.61
   0  -9   1   11.26    0.41
  -1   9  -1    3.78    1.17
   1  -9   1    0.62    0.34
   7   8  -1    1.70    0.27
  -7  -8   1    1.06    0.17
   6   8  -1   14.06    0.67
  -6  -8   1   13.50    0.45
   5   8  -1   29.15    0.81
  -5  -8   1   28.66    0.58
   4   8  -1    3.74    0.31
  -4  -8   1    3.55    0.19
   3   8  -1    3.82    0.43
  -3  -8   1    2.33    0.39
   2   8  -1   16.60    0.79
  -2  -8   1   17.76    0.57
   1   8  -1    1.04    0.26
  -1  -8   1    0.56    0.13
   0   8  -1    6.68    0.37
   0  -8   1    6.90    0.36
  -1   8  -1   13.12    0.56
   1  -8   1   13.08    0.49
  -2   8  -1    0.56    0.21
   2  -8   1    0.53    0.20
  -3   8  -1    1.14    0.24
   3  -8   1    1.62    0.25
   8   7  -1    1.21    0.45
  -8  -7   1    0.77    0.33
   7   7  -1    0.62    0.20
  -7  -7   1    0.52    0.16
   6   7  -1    7.86    0.32
  -6  -7   1    7.08    0.25
   5   7  -1    0.23    0.34
  -5  -7   1    0.74    0.16
   4   7  -1   38.96    0.72
  -4  -7   1   39.19    0.47
   3   7  -1    0.87    0.15
  -3  -7   1    0.66    0.12
   2   7  -1   30.91    0.72
  -2  -7   1   29.14    0.58
   1   7  -1   39.16    0.90
  -1  -7   1   40.41    0.53
   0   7  -1    4.56    0.29
   0  -7   1    4.66    0.21
  -1   7  -1   39.87    1.11
   1  -7   1   40.44    0.68
  -2   7  -1    4.65    0.36
   2  -7   1    4.06    0.32
  -3   7  -1    0.51    0.17
   3  -7   1    0.24    0.21
  -4   7  -1    3.43    0.56
   4  -7   1    2.41    0.42
   9   6  -1    0.47    0.19
  -9  -6   1    0.31    0.16
   8   6  -1    4.59    0.39
  -8  -6   1    4.09    0.40
   7   6  -1    0.00    0.40
  -7  -6   1    0.00    0.39
   6   6  -1    1.08    0.15
  -6  -6   1    0.81    0.12
   5   6  -1   51.42    0.85
  -5  -6   1   51.98    0.64
   4   6  -1    0.00    0.68
  -4  -6   1    0.00    0.39
   3   6  -1    4.75    0.20
  -3  -6   1    4.70    0.15
   2   6  -1   11.86    0.29
  -2  -6   1   11.47    0.25
   1   6  -1    4.42    0.25
  -1  -6   1    4.50    0.18
   0   6  -1   37.15    0.65
   0  -6   1   36.95    0.47
  -1   6  -1    0.17    0.13
   1  -6   1    0.10    0.11
  -2   6  -1    0.00    0.55
   2  -6   1    0.00    0.87
  -3   6  -1   18.36    0.53
   3  -6   1   18.86    0.44
  -4   6  -1    5.09    0.26
   4  -6   1    5.42    0.26
  -5   6  -1    0.15    0.45
   5  -6   1    0.81    0.41
   9   5  -1    0.53    0.32
  -9  -5   1    0.34    0.46
   8   5  -1    3.08    0.20
  -8  -5   1    3.08    0.17
   7   5  -1    3.60    0.54
  -7  -5   1    3.19    0.25
   6   5  -1   29.32    0.62
  -6  -5   1   29.30    0.41
   5   5  -1   36.69    0.49
  -5  -5   1   37.31    0.38
   4   5  -1    3.03    0.37
  -4  -5   1    3.13    0.25
   3   5  -1    3.61    0.41
  -3  -5   1    4.06    0.33
   2   5  -1   65.81    0.69
  -2  -5   1   66.92    0.62
   1   5  -1    3.50    0.20
  -1  -5   1    3.37    0.13
   0   5  -1   14.35    0.69
   0  -5   1   14.40    0.49
  -1   5  -1   29.30    0.47
   1  -5   1   29.28    0.41
  -2   5  -1   16.82    0.33
   2  -5   1   17.17    0.32
  -3   5  -1    2.85    0.33
   3  -5   1    3.12    0.29
  -4   5  -1   53.10    0.69
   4  -5   1   51.36    0.69
  -5   5  -1   10.68    0.30
   5  -5   1   10.41    0.34
  -6   5  -1    6.79    0.45
   6  -5   1    6.32    0.32
   9   4  -1    7.46    0.51
  -9  -4   1    5.12    0.36
   8   4  -1    0.11    0.14
  -8  -4   1    0.28    0.11
   7   4  -1    0.98    0.22
  -7  -4   1    0.93    0.13
   6   4  -1   11.88    0.28
  -6  -4   1   11.66    0.24
   5   4  -1    2.30    0.15
  -5  -4   1    2.14    0.11
   4   4  -1    4.42    0.17
  -4  -4   1    4.25    0.11
   3   4  -1   31.54    0.43
  -3  -4   1   31.58    0.38
   2   4  -1   11.48    0.21
  -2  -4   1   11.45    0.18
   1   4  -1   28.30    0.37
  -1  -4   1   28.51    0.32
   0   4  -1   74.58    1.02
   0  -4   1   74.54    0.80
  -1   4  -1  248.70    2.45
   1  -4   1  251.68    2.29
  -2   4  -1    4.59    0.13
   2  -4   1    4.45    0.16
  -3   4  -1    0.02    0.09
   3  -4   1    0.09    0.11
  -4   4  -1    0.04    0.37
   4  -4   1    0.00    0.39
  -5   4  -1   21.68    0.37
   5  -4   1   22.14    0.37
  -6   4  -1   13.89    0.38
   6  -4   1   14.12    0.32
  -7   4  -1    1.48    0.28
   7  -4   1    2.62    0.29
   9   3  -1    4.95    0.57
  -9  -3   1    3.57    0.44
   8   3  -1   10.71    0.46
  -8  -3   1   10.52    0.41
   7   3  -1    0.26    0.13
  -7  -3   1    0.21    0.09
   6   3  -1    0.80    0.42
  -6  -3   1    0.80    0.21
   5   3  -1   16.07    0.30
  -5  -3   1   15.98    0.27
   4   3  -1   77.85    0.71
  -4  -3   1   77.75    0.63
   3   3  -1   54.03    0.66
  -3  -3   1   54.57    0.45
   2   3  -1   79.85    1.36
  -2  -3   1   82.76    1.18
   1   3  -1   31.39    0.35
  -1  -3   1   31.57    0.31
   0   3  -1  247.33    2.03
   0  -3   1  244.19    1.95
  -1   3  -1   14.64    1.20
   1  -3   1   17.98    0.95
  -2   3  -1    4.77    0.12
   2  -3   1    4.81    0.16
  -3   3  -1    0.18    0.07
   3  -3   1    0.16    0.07
  -4   3  -1    2.52    0.37
   4  -3   1    1.68    0.32
  -5   3  -1    3.77    0.25
   5  -3   1    3.77    0.22
  -6   3  -1    7.92    0.24
   6  -3   1    7.65    0.23
  -7   3  -1   25.10    0.72
   7  -3   1   25.97    0.46
  -8   3  -1    0.93    1.99
   8  -3   1    1.38    0.44
   9   2  -1    0.45    0.17
  -9  -2   1    0.26    0.26
   8   2  -1    1.07    0.29
  -8  -2   1    0.39    0.15
   7   2  -1    6.86    0.32
  -7  -2   1    6.72    0.22
   6   2  -1    0.23    0.09
  -6  -2   1    0.26    0.07
   5   2  -1    6.51    0.24
  -5  -2   1    6.42    0.20
   4   2  -1    0.85    0.17
  -4  -2   1    0.72    0.10
   3   2  -1   26.91    0.28
  -3  -2   1   26.81    0.24
   2   2  -1   82.51    0.87
  -2  -2   1   82.05    0.68
   1   2  -1    5.06    0.13
  -1  -2   1    5.06    0.11
   0   2  -1   99.68    0.90
   0  -2   1  101.74    0.84
  -1   2  -1   81.17    0.72
   1  -2   1   81.33    0.64
  -2   2  -1   78.28    0.96
   2  -2   1   78.12    0.89
  -3   2  -1   50.22    0.50
   3  -2   1   49.92    0.47
  -4   2  -1   29.46    0.38
   4  -2   1   29.16    0.32
  -5   2  -1   19.42    0.56
   5  -2   1   18.87    0.44
  -6   2  -1    4.28    0.18
   6  -2   1    4.11    0.15
  -7   2  -1   11.52    0.39
   7  -2   1   11.37    0.26
  -8   2  -1    5.39    0.69
   8  -2   1    4.32    0.50
   9   1  -1    0.22    0.17
  -9  -1   1    1.15    0.35
   8   1  -1    1.27    0.20
  -8  -1   1    1.05    0.53
   7   1  -1    9.95    0.35
  -7  -1   1   15.14    0.35
   6   1  -1   27.60    0.35
  -6  -1   1   27.52    0.34
   5   1  -1   19.29    0.26
  -5  -1   1   18.85    0.26
   4   1  -1   17.77    0.27
  -4  -1   1   16.88    0.25
   3   1  -1    7.01    0.12
  -3  -1   1    6.72    0.12
   2   1  -1  335.68    2.61
  -2  -1   1  338.00    2.25
   1   1  -1  210.73    2.50
  -1  -1   1  214.73    2.04
   0   1  -1    0.06    0.04
   0  -1   1    0.09    0.03
  -1   1  -1   99.62    0.74
   1  -1   1  100.40    0.70
  -2   1  -1   38.04    0.38
   2  -1   1   39.12    0.33
  -3   1  -1    0.30    0.07
   3  -1   1    0.25    0.05
  -4   1  -1   22.41    0.27
   4  -1   1   22.73    0.24
  -5   1  -1   27.87    0.40
   5  -1   1   27.34    0.29
  -6   1  -1    0.75    0.44
   6  -1   1    0.54    0.18
  -7   1  -1    9.13    0.37
   7  -1   1    9.16    0.32
  -8   1  -1    1.40    0.36
   8  -1   1    1.12    0.22
  -9   1  -1    5.55    0.68
   9  -1   1    6.84    0.42
   9   0  -1    1.62    0.95
  -9   0   1    4.40    0.95
   8   0  -1    2.36    0.14
  -8   0   1    2.46    0.27
   7   0  -1    0.00    0.28
  -7   0   1    0.13    0.15
   6   0  -1   15.63    0.44
  -6   0   1   15.96    0.29
   5   0  -1    0.17    0.06
  -5   0   1    0.18    0.06
   4   0  -1   82.21    0.76
  -4   0   1   82.74    0.73
   3   0  -1    2.37    0.15
  -3   0   1    2.49    0.14
   2   0  -1  479.05    3.74
  -2   0   1  489.47    3.53
   1   0  -1  414.77    3.41
  -1   0   1  416.87    3.19
  -1   0  -1  106.64    0.84
   1   0   1  106.86    0.79
  -2   0  -1   38.56    0.34
   2   0   1   38.65    0.32
  -3   0  -1    0.94    0.72
   3   0   1    0.30    0.41
  -4   0  -1    0.66    0.09
   4   0   1    0.83    0.06
  -5   0  -1    4.63    0.18
   5   0   1    4.66    0.15
  -6   0  -1   13.07    0.65
   6   0   1   12.76    0.33
  -7   0  -1    3.79    0.50
   7   0   1    2.22    0.26
  -8   0  -1    0.40    0.27
   8   0   1    0.42    0.14
  -9   0  -1    3.67    2.05
   9   0   1    1.08    0.55
   8  -1  -1    7.88    0.30
  -8   1   1    7.80    0.49
   7  -1  -1   14.75    0.32
  -7   1   1   15.07    0.31
   6  -1  -1    0.03    0.21
  -6   1   1    0.17    0.16
   5  -1  -1    5.26    0.18
  -5   1   1    5.39    0.14
   4  -1  -1   10.20    0.16
  -4   1   1   10.21    0.17
   3  -1  -1   24.17    0.26
  -3   1   1   24.18    0.26
   2  -1  -1    9.96    0.14
  -2   1   1   10.13    0.14
   1  -1  -1    2.52    0.08
  -1   1   1    2.53    0.06
   0  -1  -1  175.73    1.35
   0   1   1  176.19    1.35
  -1  -1  -1    0.09    0.02
   1   1   1    0.11    0.02
  -2  -1  -1    0.21    0.03
   2   1   1    0.20    0.03
  -3  -1  -1  166.96    1.23
   3   1   1  168.03    1.05
  -4  -1  -1    0.01    0.12
   4   1   1    0.31    0.07
  -5  -1  -1    4.81    0.18
   5   1   1    4.64    0.14
  -6  -1  -1    2.92    0.22
   6   1   1    2.41    0.12
  -7  -1  -1    4.22    0.65
   7   1   1    4.31    0.28
  -8  -1  -1    0.52    0.35
   8   1   1    1.20    0.28
  -9  -1  -1    6.78    0.44
   9   1   1    6.24    0.28
   8  -2  -1    2.85    0.58
  -8   2   1    4.67    1.83
   7  -2  -1    0.48    0.12
  -7   2   1    0.88    0.13
   6  -2  -1    0.29    0.16
  -6   2   1    0.15    0.10
   5  -2  -1   41.45    0.58
  -5   2   1   42.79    0.63
   4  -2  -1    1.42    0.09
  -4   2   1    1.46    0.08
   3  -2  -1    1.70    0.08
  -3   2   1    1.63    0.08
   2  -2  -1   50.25    0.53
  -2   2   1   50.36    0.58
   1  -2  -1  132.77    1.14
  -1   2   1  132.02    1.22
   0  -2  -1   73.73    0.68
   0   2   1   74.13    0.62
  -1  -2  -1    4.81    0.10
   1   2   1    4.91    0.09
  -2  -2  -1  149.72    1.11
   2   2   1  149.14    1.07
  -3  -2  -1   44.88    0.35
   3   2   1   44.79    0.35
  -4  -2  -1   77.57    0.58
   4   2   1   77.63    0.56
  -5  -2  -1   61.02    0.66
   5   2   1   63.52    0.78
  -6  -2  -1   15.58    0.30
   6   2   1   15.73    0.21
  -7  -2  -1   14.41    0.43
   7   2   1   15.03    0.29
  -8  -2  -1    6.51    0.59
   8   2   1    5.82    0.29
  -9  -2  -1    1.73    0.35
   9   2   1    1.57    0.17
   8  -3  -1    0.61    0.73
  -8   3   1    0.00    0.66
   7  -3  -1    6.45    0.65
  -7   3   1    5.07    0.45
   6  -3  -1    3.44    0.19
  -6   3   1    3.70    0.19
   5  -3  -1    0.83    0.23
  -5   3   1    0.16    0.12
   4  -3  -1    5.68    0.20
  -4   3   1    6.03    0.21
   3  -3  -1   45.57    0.48
  -3   3   1   44.81    0.44
   2  -3  -1   49.62    0.52
  -2   3   1   49.93    0.50
   1  -3  -1    2.95    0.17
  -1   3   1    3.13    0.17
   0  -3  -1    1.27    0.07
   0   3   1    1.35    0.08
  -1  -3  -1   59.35    0.56
   1   3   1   59.01    0.55
  -2  -3  -1    0.82    0.17
   2   3   1    0.86    0.18
  -3  -3  -1   26.02    0.25
   3   3   1   25.54    0.29
  -4  -3  -1  137.26    0.93
   4   3   1  134.34    0.96
  -5  -3  -1    2.65    0.23
   5   3   1    3.16    0.24
  -6  -3  -1    6.94    0.19
   6   3   1    6.22    0.20
  -7  -3  -1    1.65    0.12
   7   3   1    1.96    0.12
  -8  -3  -1    9.26    0.63
   8   3   1    7.71    0.29
  -9  -3  -1    2.40    0.61
   9   3   1    0.95    0.41
   7  -4  -1    5.26    0.47
  -7   4   1    7.88    0.72
   6  -4  -1   23.14    0.52
  -6   4   1   22.87    0.46
   5  -4  -1   29.88    0.45
  -5   4   1   29.48    0.42
   4  -4  -1    1.56    0.27
  -4   4   1    0.50    0.23
   3  -4  -1    1.24    0.12
  -3   4   1    1.40    0.11
   2  -4  -1  107.08    1.05
  -2   4   1  107.56    0.95
   1  -4  -1   44.70    0.59
  -1   4   1   44.47    0.57
   0  -4  -1    3.52    0.15
   0   4   1    3.80    0.19
  -1  -4  -1   35.50    0.38
   1   4   1   35.30    0.38
  -2  -4  -1    0.37    0.07
   2   4   1    0.33    0.06
  -3  -4  -1   21.08    1.02
   3   4   1   20.70    0.95
  -4  -4  -1   30.32    0.31
   4   4   1   30.79    0.35
  -5  -4  -1   28.50    0.30
   5   4   1   28.25    0.32
  -6  -4  -1   38.61    0.43
   6   4   1   39.44    0.50
  -7  -4  -1    1.19    0.12
   7   4   1    1.05    0.13
  -8  -4  -1    0.26    0.08
   8   4   1    0.13    0.13
  -9  -4  -1    1.55    0.61
   9   4   1    0.93    0.32
   6  -5  -1    1.58    0.33
  -6   5   1    1.44    0.33
   5  -5  -1    0.64    0.15
  -5   5   1    0.73    0.14
   4  -5  -1    3.45    0.21
  -4   5   1    3.49    0.19
   3  -5  -1    1.13    0.23
  -3   5   1    1.15    0.20
   2  -5  -1   19.13    0.34
  -2   5   1   18.78    0.30
   1  -5  -1   34.01    0.45
  -1   5   1   34.39    0.42
   0  -5  -1   20.94    0.40
   0   5   1   19.25    0.45
  -1  -5  -1    0.56    0.07
   1   5   1    0.55    0.07
  -2  -5  -1   35.58    0.38
   2   5   1   34.91    0.44
  -3  -5  -1   19.53    0.31
   3   5   1   20.11    0.33
  -4  -5  -1   29.56    0.36
   4   5   1   28.49    0.42
  -5  -5  -1   33.20    0.36
   5   5   1   32.73    0.40
  -6  -5  -1    7.35    0.20
   6   5   1    6.87    0.21
  -7  -5  -1   71.27    0.86
   7   5   1   72.12    0.90
  -8  -5  -1    0.17    0.11
   8   5   1    0.09    0.12
  -9  -5  -1   20.93    0.44
   9   5   1   20.60    0.52
   5  -6  -1   15.67    0.54
  -5   6   1   17.01    0.55
   4  -6  -1   11.32    0.34
  -4   6   1   11.07    0.31
   3  -6  -1    1.85    0.24
  -3   6   1    2.11    0.18
   2  -6  -1   50.74    0.90
  -2   6   1   51.39    0.69
   1  -6  -1    7.39    0.23
  -1   6   1    7.25    0.19
   0  -6  -1    3.47    0.14
   0   6   1    3.72    0.19
  -1  -6  -1   21.43    0.32
   1   6   1   21.42    0.42
  -2  -6  -1    9.07    0.19
   2   6   1    9.12    0.24
  -3  -6  -1    0.13    0.07
   3   6   1    0.08    0.09
  -4  -6  -1   18.07    0.34
   4   6   1   17.39    0.42
  -5  -6  -1    3.16    0.14
   5   6   1    2.81    0.19
  -6  -6  -1   25.76    0.33
   6   6   1   26.35    0.43
  -7  -6  -1    2.60    0.25
   7   6   1    1.46    0.47
  -8  -6  -1    0.00    0.26
   8   6   1    0.06    0.29
  -9  -6  -1    0.30    0.14
   9   6   1    0.06    0.16
   4  -7  -1   13.22    0.56
  -4   7   1   12.78    0.43
   3  -7  -1    3.17    0.22
  -3   7   1    2.69    0.18
   2  -7  -1    0.00    0.55
  -2   7   1    0.00    0.38
   1  -7  -1   68.78    1.07
  -1   7   1   66.58    1.32
   0  -7  -1   46.94    0.57
   0   7   1   47.53    0.67
  -1  -7  -1   13.81    0.32
   1   7   1   13.36    0.49
  -2  -7  -1    4.73    0.30
   2   7   1    4.77    0.52
  -3  -7  -1    9.04    0.27
   3   7   1    8.82    0.26
  -4  -7  -1    0.77    0.11
   4   7   1    0.59    0.16
  -5  -7  -1    7.69    0.29
   5   7   1    7.66    0.41
  -6  -7  -1    0.25    0.10
   6   7   1    0.25    0.11
  -7  -7  -1   10.82    0.25
   7   7   1   10.94    0.37
  -8  -7  -1    0.00    0.23
   8   7   1    0.00    0.39
  -9  -7  -1    5.15    0.54
   9   7   1    5.71    0.93
   3  -8  -1    1.08    0.21
  -3   8   1    1.24    0.23
   2  -8  -1    0.13    0.21
  -2   8   1    0.34    0.17
   1  -8  -1    4.10    0.61
  -1   8   1    4.69    0.72
   0  -8  -1   34.94    0.50
   0   8   1   35.45    0.64
  -1  -8  -1    0.26    0.11
   1   8   1    0.32    0.20
  -2  -8  -1   21.62    0.47
   2   8   1   20.96    0.84
  -3  -8  -1    1.16    0.45
   3   8   1    1.34    0.87
  -4  -8  -1    1.25    0.17
   4   8   1    0.73    0.15
  -5  -8  -1   52.23    1.14
   5   8   1   53.14    0.89
  -6  -8  -1   10.55    0.36
   6   8   1   10.67    0.40
  -7  -8  -1    5.39    0.21
   7   8   1    5.15    0.30
  -8  -8  -1    3.86    0.40
   8   8   1    0.75    0.72
   2  -9  -1    2.52    0.27
  -2   9   1    2.78    0.34
   1  -9  -1    0.00    0.63
  -1   9   1    1.38    0.56
   0  -9  -1    0.32    0.47
   0   9   1    1.42    0.44
  -1  -9  -1    8.68    0.28
   1   9   1    8.03    0.37
  -2  -9  -1   21.83    0.41
   2   9   1   21.34    0.65
  -3  -9  -1    6.27    0.35
   3   9   1    5.82    0.38
  -4  -9  -1   28.91    0.58
   4   9   1   30.50    0.60
  -5  -9  -1    4.17    0.24
   5   9   1    4.22    0.26
  -6  -9  -1    1.51    0.30
   6   9   1    2.52    0.43
  -7  -9  -1    0.71    0.42
   7   9   1    0.86    0.85
   0 -10  -1    5.60    0.87
   0  10   1    3.02    1.47
  -1 -10  -1    1.83    0.49
   1  10   1    0.62    1.19
  -2 -10  -1    6.55    0.28
   2  10   1    7.08    0.41
  -3 -10  -1    4.73    0.56
   3  10   1    5.80    0.79
  -4 -10  -1    4.37    0.58
   4  10   1    5.82    0.49
  -5 -10  -1    0.71    0.22
   5  10   1    1.00    0.30
  -6 -10  -1    0.41    0.18
   6  10   1    0.82    0.52
   5   9  -2    2.33    0.32
  -5  -9   2    2.48    0.22
   4   9  -2    0.26    0.32
  -4  -9   2    1.81    0.62
   3   9  -2    3.74    0.62
  -3  -9   2    1.54    0.44
   2   9  -2   10.29    0.49
  -2  -9   2   10.66    0.38
   1   9  -2    5.85    0.44
  -1  -9   2    6.63    0.33
   0   9  -2    0.00    0.45
   0  -9   2    1.11    0.43
   7   8  -2    6.67    0.37
  -7  -8   2    6.17    0.28
   6   8  -2    3.85    0.60
  -6  -8   2    5.16    0.42
   5   8  -2    6.29    0.51
  -5  -8   2    5.52    0.40
   4   8  -2    6.32    0.28
  -4  -8   2    6.75    0.27
   3   8  -2   17.14    0.68
  -3  -8   2   18.99    0.57
   2   8  -2   13.70    1.14
  -2  -8   2   14.48    0.47
   1   8  -2    0.74    0.30
  -1  -8   2    0.46    0.16
   0   8  -2    7.06    0.58
   0  -8   2    8.05    0.40
  -1   8  -2   24.85    0.58
   1  -8   2   24.66    0.56
  -2   8  -2    0.91    0.28
   2  -8   2    1.13    0.20
   8   7  -2    3.44    0.47
  -8  -7   2    1.80    0.40
   7   7  -2    0.43    0.22
  -7  -7   2    0.63    0.16
   6   7  -2    0.93    0.22
  -6  -7   2    0.69    0.16
   5   7  -2    9.47    0.57
  -5  -7   2    8.96    0.30
   4   7  -2    3.41    0.25
  -4  -7   2    3.39    0.23
   3   7  -2   59.28    0.96
  -3  -7   2   59.28    0.56
   2   7  -2   26.38    0.79
  -2  -7   2   28.60    0.59
   1   7  -2    0.08    0.67
  -1  -7   2    0.69    0.22
   0   7  -2    0.37    0.19
   0  -7   2    0.24    0.12
  -1   7  -2   31.27    0.79
   1  -7   2   33.74    0.70
  -2   7  -2    0.68    0.37
   2  -7   2    0.15    0.50
  -3   7  -2    0.07    0.18
   3  -7   2    0.45    0.19
  -4   7  -2    0.72    0.57
   4  -7   2    2.05    0.65
   8   6  -2    2.40    0.67
  -8  -6   2    1.61    0.41
   7   6  -2    1.18    0.43
  -7  -6   2    2.88    0.32
   6   6  -2    0.21    0.15
  -6  -6   2    0.21    0.12
   5   6  -2   19.07    0.58
  -5  -6   2   18.04    0.39
   4   6  -2   19.70    0.45
  -4  -6   2   20.02    0.41
   3   6  -2    1.36    0.12
  -3  -6   2    1.23    0.10
   2   6  -2    0.53    0.12
  -2  -6   2    0.35    0.07
   1   6  -2   47.67    0.77
  -1  -6   2   48.45    0.60
   0   6  -2    2.20    0.23
   0  -6   2    2.17    0.14
  -1   6  -2   34.06    0.56
   1  -6   2   34.45    0.50
  -2   6  -2   30.06    0.63
   2  -6   2   31.97    0.89
  -3   6  -2    2.22    0.37
   3  -6   2    3.08    0.33
  -4   6  -2    1.37    0.20
   4  -6   2    1.03    0.18
  -5   6  -2    0.77    0.46
   5  -6   2    1.19    0.40
   9   5  -2    0.18    0.21
  -9  -5   2    0.22    0.23
   8   5  -2    6.07    0.39
  -8  -5   2    5.28    0.22
   7   5  -2    0.84    0.37
  -7  -5   2    0.00    0.24
   6   5  -2   44.70    0.84
  -6  -5   2   46.43    0.62
   5   5  -2    1.68    0.14
  -5  -5   2    1.58    0.11
   4   5  -2    8.18    0.28
  -4  -5   2    8.24    0.26
   3   5  -2   21.08    0.38
  -3  -5   2   21.47    0.35
   2   5  -2    7.55    0.22
  -2  -5   2    7.83    0.17
   1   5  -2    2.03    0.16
  -1  -5   2    1.79    0.12
   0   5  -2    1.68    0.31
   0  -5   2    1.18    0.20
  -1   5  -2    3.57    0.16
   1  -5   2    3.22    0.16
  -2   5  -2    4.18    0.20
   2  -5   2    4.09    0.19
  -3   5  -2    1.86    0.24
   3  -5   2    2.20    0.23
  -4   5  -2   12.49    0.35
   4  -5   2   12.22    0.42
  -5   5  -2    9.63    0.36
   5  -5   2    9.38    0.28
  -6   5  -2    5.86    0.60
   6  -5   2    4.88    0.44
   9   4  -2    2.62    0.46
  -9  -4   2    3.52    0.38
   8   4  -2    0.51    0.21
  -8  -4   2    0.30    0.13
   7   4  -2   15.74    0.50
  -7  -4   2   15.21    0.30
   6   4  -2   11.66    0.35
  -6  -4   2   10.79    0.29
   5   4  -2   10.30    0.27
  -5  -4   2   10.03    0.22
   4   4  -2   75.00    0.81
  -4  -4   2   75.80    0.69
   3   4  -2   10.91    0.27
  -3  -4   2   11.28    0.23
   2   4  -2   18.87    0.32
  -2  -4   2   19.10    0.24
   1   4  -2    1.23    0.10
  -1  -4   2    1.18    0.08
   0   4  -2   10.49    0.36
   0  -4   2    9.86    0.32
  -1   4  -2    6.50    0.21
   1  -4   2    6.84    0.23
  -2   4  -2   42.09    0.52
   2  -4   2   42.19    0.51
  -3   4  -2    9.88    0.26
   3  -4   2    9.46    0.26
  -4   4  -2   50.12    0.87
   4  -4   2   50.51    0.81
  -5   4  -2    0.47    0.13
   5  -4   2    0.40    0.14
  -6   4  -2   14.33    0.40
   6  -4   2   15.17    0.39
  -7   4  -2    7.87    0.46
   7  -4   2    9.09    0.37
   9   3  -2    1.57    0.58
  -9  -3   2    2.26    0.41
   8   3  -2    5.43    0.50
  -8  -3   2    6.36    0.41
   7   3  -2   15.32    0.40
  -7  -3   2   14.58    0.30
   6   3  -2   10.75    0.52
  -6  -3   2   11.51    0.50
   5   3  -2    1.60    0.32
  -5  -3   2    1.55    0.26
   4   3  -2    0.78    0.09
  -4  -3   2    0.82    0.07
   3   3  -2    0.11    0.08
  -3  -3   2    0.09    0.05
   2   3  -2    1.90    0.11
  -2  -3   2    1.78    0.12
   1   3  -2   54.72    0.57
  -1  -3   2   54.86    0.52
   0   3  -2   68.94    0.75
   0  -3   2   68.98    0.61
  -1   3  -2    0.56    0.18
   1  -3   2    0.33    0.16
  -2   3  -2   45.81    0.52
   2  -3   2   46.95    0.47
  -3   3  -2   10.61    0.20
   3  -3   2   10.68    0.23
  -4   3  -2    0.65    0.19
   4  -3   2    0.45    0.21
  -5   3  -2    0.67    0.21
   5  -3   2    0.00    0.29
  -6   3  -2    4.58    0.19
   6  -3   2    4.49    0.21
  -7   3  -2    1.06    0.60
   7  -3   2    1.18    0.31
   9   2  -2   11.32    0.46
  -9  -2   2   10.61    0.29
   8   2  -2    0.11    0.31
  -8  -2   2    0.51    0.26
   7   2  -2    2.01    0.44
  -7  -2   2    1.95    0.20
   6   2  -2   11.62    0.30
  -6  -2   2   11.18    0.23
   5   2  -2    3.18    0.41
  -5  -2   2    2.98    0.36
   4   2  -2    0.36    0.15
  -4  -2   2    0.16    0.09
   3   2  -2   16.28    0.23
  -3  -2   2   16.38    0.18
   2   2  -2  127.37    1.20
  -2  -2   2  126.68    1.26
   1   2  -2   84.98    1.22
  -1  -2   2   86.66    1.31
   0   2  -2   88.91    0.79
   0  -2   2   90.04    0.82
  -1   2  -2   34.99    0.39
   1  -2   2   35.50    0.34
  -2   2  -2   42.11    0.52
   2  -2   2   42.17    0.52
  -3   2  -2   14.68    0.23
   3  -2   2   14.58    0.21
  -4   2  -2    0.80    0.09
   4  -2   2    0.74    0.07
  -5   2  -2   14.84    0.34
   5  -2   2   14.63    0.30
  -6   2  -2   32.96    0.63
   6  -2   2   33.20    0.38
  -7   2  -2   25.87    0.64
   7  -2   2   26.46    0.39
  -8   2  -2    8.69    0.79
   8  -2   2    6.67    0.76
   9   1  -2    3.82    0.23
  -9  -1   2    3.64    0.33
   8   1  -2    0.37    0.42
  -8  -1   2    0.74    0.26
   7   1  -2    4.18    0.25
  -7  -1   2    3.22    0.22
   6   1  -2   50.90    0.58
  -6  -1   2   51.91    0.50
   5   1  -2   14.37    0.27
  -5  -1   2   14.57    0.20
   4   1  -2    7.69    0.18
  -4  -1   2    7.41    0.16
   3   1  -2  292.33    2.41
  -3  -1   2  287.49    1.95
   2   1  -2  175.84    1.31
  -2  -1   2  172.62    1.43
   1   1  -2   38.28    0.42
  -1  -1   2   40.12    0.45
   0   1  -2  115.20    1.00
   0  -1   2  115.26    1.04
  -1   1  -2  123.68    1.07
   1  -1   2  123.46    0.98
  -2   1  -2   35.85    0.40
   2  -1   2   35.86    0.34
  -3   1  -2   19.93    0.33
   3  -1   2   19.49    0.23
  -4   1  -2  163.53    1.35
   4  -1   2  164.49    1.17
  -5   1  -2   13.56    0.33
   5  -1   2   14.26    0.20
  -6   1  -2    6.49    0.41
   6  -1   2    6.73    0.20
  -7   1  -2    7.12    0.36
   7  -1   2    6.31    0.25
  -8   1  -2    4.82    0.46
   8  -1   2    5.70    0.36
  -9   1  -2    7.06    3.56
   9  -1   2    2.91    7.16
   9   0  -2    0.90    0.20
  -9   0   2    0.83    0.71
   8   0  -2    2.82    0.17
  -8   0   2    2.24    0.20
   7   0  -2    7.16    0.36
  -7   0   2    6.99    0.36
   6   0  -2    0.48    0.20
  -6   0   2    0.97    0.21
   5   0  -2   18.88    0.26
  -5   0   2   19.15    0.24
   4   0  -2    7.90    0.17
  -4   0   2    8.03    0.15
   3   0  -2    6.43    0.46
  -3   0   2    6.62    0.43
   2   0  -2  153.97    1.45
  -2   0   2  152.67    1.28
   1   0  -2  306.27    2.73
  -1   0   2  311.45    2.86
   0   0  -2  332.16    6.38
   0   0   2  325.82    6.32
  -1   0  -2  219.50    2.02
   1   0   2  223.74    2.15
  -2   0  -2  190.17    1.63
   2   0   2  190.69    1.36
  -3   0  -2   14.79    0.28
   3   0   2   14.68    0.20
  -4   0  -2    2.93    0.15
   4   0   2    2.87    0.12
  -5   0  -2    0.28    0.11
   5   0   2    0.18    0.06
  -6   0  -2   15.88    0.44
   6   0   2   16.19    0.31
  -7   0  -2    6.48    0.47
   7   0   2    6.82    0.30
  -8   0  -2    5.14    0.37
   8   0   2    5.23    0.27
  -9   0  -2    1.76    0.74
   9   0   2    1.44    0.75
   8  -1  -2    1.92    0.24
  -8   1   2    1.64    0.34
   7  -1  -2    1.71    0.16
  -7   1   2    1.78    0.12
   6  -1  -2    1.94    0.22
  -6   1   2    2.63    0.21
   5  -1  -2    1.62    0.13
  -5   1   2    1.43    0.09
   4  -1  -2    0.79    0.07
  -4   1   2    0.77    0.07
   3  -1  -2    2.37    0.15
  -3   1   2    2.45    0.10
   2  -1  -2  131.86    1.12
  -2   1   2  132.62    0.99
   1  -1  -2 1000.00    7.96
  -1   1   2  985.70    7.25
   0  -1  -2    0.22    0.03
   0   1   2    0.18    0.04
  -1  -1  -2  319.09    3.63
   1   1   2  313.67    3.16
  -2  -1  -2  221.78    1.55
   2   1   2  223.26    1.42
  -3  -1  -2    2.07    0.09
   3   1   2    2.01    0.06
  -4  -1  -2    2.13    0.16
   4   1   2    2.29    0.10
  -5  -1  -2   22.50    0.34
   5   1   2   22.51    0.26
  -6  -1  -2    0.40    0.13
   6   1   2    0.38    0.08
  -7  -1  -2   21.08    0.62
   7   1   2   20.44    0.39
  -8  -1  -2   16.71    0.70
   8   1   2   17.75    0.44
  -9  -1  -2    1.82    0.35
   9   1   2    2.33    0.19
   8  -2  -2    1.39    0.66
  -8   2   2    0.00    0.44
   7  -2  -2    6.08    0.25
  -7   2   2    6.23    0.24
   6  -2  -2   16.46    0.44
  -6   2   2   16.08    0.31
   5  -2  -2    6.05    0.29
  -5   2   2    6.97    0.26
   4  -2  -2    0.25    0.07
  -4   2   2    0.35    0.06
   3  -2  -2    8.33    0.17
  -3   2   2    8.42    0.16
   2  -2  -2   21.01    0.66
  -2   2   2   20.73    0.60
   1  -2  -2   38.41    0.39
  -1   2   2   38.15    0.36
   0  -2  -2  355.08    2.81
   0   2   2  355.68    2.94
  -1  -2  -2   25.74    0.27
   1   2   2   25.74    0.24
  -2  -2  -2   31.79    0.36
   2   2   2   31.63    0.32
  -3  -2  -2  145.47    0.98
   3   2   2  145.23    0.96
  -4  -2  -2    1.25    0.06
   4   2   2    1.27    0.07
  -5  -2  -2   23.66    0.78
   5   2   2   26.86    0.48
  -6  -2  -2    1.11    0.15
   6   2   2    1.13    0.09
  -7  -2  -2    0.06    0.17
   7   2   2    0.37    0.12
  -8  -2  -2    6.65    0.56
   8   2   2    5.60    0.31
  -9  -2  -2    4.13    0.39
   9   2   2    4.33    0.24
   7  -3  -2    2.66    0.45
  -7   3   2    2.20    0.60
   6  -3  -2    2.19    0.16
  -6   3   2    2.31    0.16
   5  -3  -2    5.55    0.29
  -5   3   2    5.13    0.24
   4  -3  -2   40.32    0.54
  -4   3   2   42.07    0.51
   3  -3  -2   30.92    0.37
  -3   3   2   31.13    0.35
   2  -3  -2   11.33    0.21
  -2   3   2   10.97    0.22
   1  -3  -2   32.48    0.54
  -1   3   2   31.85    0.61
   0  -3  -2  305.47    2.74
   0   3   2  304.68    2.27
  -1  -3  -2   22.69    0.27
   1   3   2   22.47    0.25
  -2  -3  -2   19.47    0.28
   2   3   2   19.29    0.26
  -3  -3  -2    6.29    0.10
   3   3   2    6.40    0.12
  -4  -3  -2   47.78    0.39
   4   3   2   47.60    0.38
  -5  -3  -2    0.83    0.11
   5   3   2    0.46    0.11
  -6  -3  -2   48.53    0.60
   6   3   2   49.10    0.55
  -7  -3  -2   78.59    0.80
   7   3   2   79.94    0.80
  -8  -3  -2    0.00    0.65
   8   3   2    0.34    0.31
  -9  -3  -2    8.82    1.91
   9   3   2    4.18    0.44
 -10  -3  -2    0.64    0.35
  10   3   2    0.38    0.23
   7  -4  -2    4.86    0.38
  -7   4   2    3.89    0.37
   6  -4  -2    1.95    0.21
  -6   4   2    1.73    0.20
   5  -4  -2    3.74    0.20
  -5   4   2    3.89    0.20
   4  -4  -2   32.02    0.71
  -4   4   2   32.05    0.52
   3  -4  -2    1.59    0.13
  -3   4   2    1.29    0.12
   2  -4  -2    3.20    0.14
  -2   4   2    3.26    0.15
   1  -4  -2   59.49    0.68
  -1   4   2   60.34    0.71
   0  -4  -2   94.04    1.03
   0   4   2   94.90    0.91
  -1  -4  -2    1.09    0.08
   1   4   2    1.03    0.07
  -2  -4  -2   24.84    0.30
   2   4   2   24.66    0.30
  -3  -4  -2   13.00    0.26
   3   4   2   12.06    0.28
  -4  -4  -2    0.97    0.07
   4   4   2    0.96    0.08
  -5  -4  -2   21.44    0.23
   5   4   2   21.40    0.25
  -6  -4  -2   47.22    0.48
   6   4   2   47.26    0.51
  -7  -4  -2   36.81    0.39
   7   4   2   36.09    0.37
  -8  -4  -2    0.53    0.16
   8   4   2    0.14    0.10
  -9  -4  -2    2.55    1.11
   9   4   2    1.13    0.43
 -10  -4  -2   14.83    0.98
  10   4   2   16.34    1.04
   6  -5  -2   12.88    0.54
  -6   5   2   12.96    0.48
   5  -5  -2    6.74    0.26
  -5   5   2    7.28    0.27
   4  -5  -2    1.46    0.16
  -4   5   2    1.78    0.16
   3  -5  -2    4.03    0.24
  -3   5   2    4.21    0.23
   2  -5  -2    2.80    0.17
  -2   5   2    2.69    0.17
   1  -5  -2   15.51    0.31
  -1   5   2   15.79    0.31
   0  -5  -2    2.63    0.16
   0   5   2    1.77    0.20
  -1  -5  -2    0.82    0.08
   1   5   2    0.77    0.10
  -2  -5  -2    6.82    0.17
   2   5   2    6.73    0.17
  -3  -5  -2  114.60    1.11
   3   5   2  115.53    1.09
  -4  -5  -2    0.46    0.15
   4   5   2    0.47    0.12
  -5  -5  -2   30.65    0.33
   5   5   2   30.30    0.38
  -6  -5  -2   28.74    0.38
   6   5   2   27.91    0.45
  -7  -5  -2   28.55    0.37
   7   5   2   29.32    0.43
  -8  -5  -2    9.68    0.21
   8   5   2    9.33    0.25
  -9  -5  -2   11.15    0.42
   9   5   2   10.91    0.34
   5  -6  -2    1.70    0.51
  -5   6   2    0.87    0.45
   4  -6  -2    0.85    0.16
  -4   6   2    0.76    0.15
   3  -6  -2   11.01    0.37
  -3   6   2   11.41    0.36
   2  -6  -2    1.86    0.31
  -2   6   2    2.20    0.24
   1  -6  -2    0.20    0.11
  -1   6   2    0.16    0.12
   0  -6  -2    0.07    0.07
   0   6   2    0.13    0.10
  -1  -6  -2  144.31    1.38
   1   6   2  145.39    1.71
  -2  -6  -2   32.12    0.39
   2   6   2   31.84    0.44
  -3  -6  -2    0.44    0.09
   3   6   2    0.52    0.09
  -4  -6  -2    7.28    0.23
   4   6   2    7.18    0.22
  -5  -6  -2    2.65    0.15
   5   6   2    2.66    0.17
  -6  -6  -2    0.26    0.08
   6   6   2    0.20    0.10
  -7  -6  -2    4.40    0.21
   7   6   2    3.62    0.53
  -8  -6  -2   12.57    0.32
   8   6   2   12.78    0.40
  -9  -6  -2    1.94    0.19
   9   6   2    1.95    0.18
   4  -7  -2   12.19    0.58
  -4   7   2   10.11    0.47
   3  -7  -2    3.88    0.23
  -3   7   2    3.51    0.19
   2  -7  -2    2.99    0.41
  -2   7   2    2.06    0.30
   1  -7  -2   56.35    1.10
  -1   7   2   54.92    1.01
   0  -7  -2   13.80    0.27
   0   7   2   14.13    0.35
  -1  -7  -2   14.90    0.32
   1   7   2   15.16    0.37
  -2  -7  -2    8.54    0.26
   2   7   2    9.51    0.38
  -3  -7  -2   25.59    0.39
   3   7   2   26.04    0.44
  -4  -7  -2   38.79    0.48
   4   7   2   38.09    0.50
  -5  -7  -2    6.99    0.41
   5   7   2    7.68    0.56
  -6  -7  -2    0.16    0.09
   6   7   2    0.34    0.15
  -7  -7  -2    3.69    0.17
   7   7   2    3.42    0.23
  -8  -7  -2    3.34    0.28
   8   7   2    4.25    0.41
  -9  -7  -2    0.00    0.56
   9   7   2    0.42    0.47
   3  -8  -2    3.48    0.28
  -3   8   2    3.77    0.22
   2  -8  -2    1.19    0.19
  -2   8   2    0.81    0.18
   1  -8  -2    2.81    0.41
  -1   8   2    3.58    0.46
   0  -8  -2    2.24    0.19
   0   8   2    1.54    0.25
  -1  -8  -2    5.42    0.21
   1   8   2    5.07    0.27
  -2  -8  -2   59.27    0.83
   2   8   2   60.52    1.10
  -3  -8  -2    8.77    0.66
   3   8   2   10.96    1.01
  -4  -8  -2   16.03    0.35
   4   8   2   16.03    0.33
  -5  -8  -2    2.91    0.53
   5   8   2    2.14    0.40
  -6  -8  -2   28.62    0.51
   6   8   2   27.25    0.61
  -7  -8  -2    9.69    0.25
   7   8   2    9.97    0.38
  -8  -8  -2    1.54    0.37
   8   8   2    1.97    0.75
   2  -9  -2    9.27    0.36
  -2   9   2    9.17    0.40
   1  -9  -2    3.94    0.57
  -1   9   2    2.73    0.45
   0  -9  -2    0.00    0.47
   0   9   2    0.88    0.72
  -1  -9  -2    4.22    0.23
   1   9   2    3.98    0.28
  -2  -9  -2    0.12    0.13
   2   9   2    0.20    0.21
  -3  -9  -2   25.12    0.54
   3   9   2   23.09    0.66
  -4  -9  -2    0.41    0.23
   4   9   2    0.24    0.19
  -5  -9  -2    1.98    0.18
   5   9   2    1.83    0.24
  -6  -9  -2    7.68    0.32
   6   9   2    7.41    0.52
  -7  -9  -2    3.92    0.36
   7   9   2    2.90    0.33
  -8  -9  -2    1.98    0.21
   8   9   2    1.42    0.29
   0 -10  -2    3.63    0.72
   0  10   2    8.08    1.07
  -1 -10  -2    1.61    0.59
   1  10   2    0.00    0.70
  -2 -10  -2    0.46    0.16
   2  10   2    0.67    0.25
  -3 -10  -2   13.11    0.65
   3  10   2   11.07    0.91
  -4 -10  -2    2.89    0.52
   4  10   2    2.83    0.46
  -5 -10  -2   12.08    0.40
   5  10   2   12.00    0.49
  -6 -10  -2    1.89    0.34
   6  10   2    1.06    0.34
   4   9  -3    0.67    0.58
  -4  -9   3    0.00    0.75
   3   9  -3   13.58    0.51
  -3  -9   3   14.50    0.50
   2   9  -3    4.72    0.41
  -2  -9   3    4.87    0.31
   1   9  -3    0.64    0.22
  -1  -9   3    0.44    0.25
   6   8  -3    1.91    0.64
  -6  -8   3    0.97    0.35
   5   8  -3    2.15    0.49
  -5  -8   3    1.40    0.39
   4   8  -3    1.49    0.22
  -4  -8   3    1.67    0.16
   3   8  -3    0.00    0.45
  -3  -8   3    0.33    0.55
   2   8  -3    7.64    0.41
  -2  -8   3    7.74    0.53
   1   8  -3    1.85    0.24
  -1  -8   3    2.23    0.23
   0   8  -3    1.80    0.14
   0  -8   3    1.42    0.33
  -1   8  -3    5.32    0.64
   1  -8   3    5.32    0.49
  -2   8  -3   16.31    0.78
   2  -8   3   17.23    0.50
   7   7  -3   23.47    0.62
  -7  -7   3   24.04    0.53
   6   7  -3   19.01    0.62
  -6  -7   3   18.92    0.43
   5   7  -3   11.80    0.34
  -5  -7   3   11.45    0.36
   4   7  -3   10.32    0.37
  -4  -7   3   11.10    0.47
   3   7  -3   14.48    0.33
  -3  -7   3   14.81    0.33
   2   7  -3    0.00    0.36
  -2  -7   3    0.01    0.31
   1   7  -3   18.50    0.53
  -1  -7   3   19.05    0.62
   0   7  -3   10.67    0.47
   0  -7   3   11.14    0.31
  -1   7  -3    2.56    0.23
   1  -7   3    2.19    0.43
  -2   7  -3    1.74    0.70
   2  -7   3    2.89    0.47
  -3   7  -3    8.55    0.32
   3  -7   3    8.57    0.36
   8   6  -3   15.91    0.73
  -8  -6   3   16.19    0.80
   7   6  -3    3.76    0.48
  -7  -6   3    4.99    0.36
   6   6  -3    8.84    0.27
  -6  -6   3    9.23    0.26
   5   6  -3    8.99    0.36
  -5  -6   3    8.35    0.38
   4   6  -3   11.33    0.50
  -4  -6   3   12.15    0.46
   3   6  -3    0.83    0.12
  -3  -6   3    0.89    0.11
   2   6  -3   18.01    0.35
  -2  -6   3   17.72    0.33
   1   6  -3    0.30    0.21
  -1  -6   3    0.00    0.27
   0   6  -3   35.79    0.77
   0  -6   3   36.68    0.55
  -1   6  -3    0.90    0.11
   1  -6   3    1.14    0.14
  -2   6  -3    1.88    0.27
   2  -6   3    2.29    0.33
  -3   6  -3    1.71    0.22
   3  -6   3    2.58    0.51
  -4   6  -3    0.33    0.19
   4  -6   3    0.35    0.20
  -5   6  -3    1.75    0.65
   5  -6   3    1.76    0.50
   8   5  -3    4.09    0.29
  -8  -5   3    4.45    0.25
   7   5  -3    0.19    0.44
  -7  -5   3    0.54    0.27
   6   5  -3   16.03    0.49
  -6  -5   3   14.26    0.37
   5   5  -3    6.91    0.27
  -5  -5   3    7.60    0.22
   4   5  -3  107.47    1.16
  -4  -5   3  105.70    1.14
   3   5  -3   15.87    0.45
  -3  -5   3   15.72    0.38
   2   5  -3   29.39    0.40
  -2  -5   3   29.65    0.35
   1   5  -3   10.61    0.25
  -1  -5   3   10.72    0.21
   0   5  -3    8.36    0.52
   0  -5   3    9.67    0.38
  -1   5  -3    3.41    0.15
   1  -5   3    3.70    0.19
  -2   5  -3   21.20    0.40
   2  -5   3   21.16    0.39
  -3   5  -3   10.05    0.37
   3  -5   3    9.91    0.37
  -4   5  -3   16.99    0.46
   4  -5   3   17.08    0.39
  -5   5  -3    0.32    0.22
   5  -5   3    0.32    0.16
  -6   5  -3    0.00    0.65
   6  -5   3    0.55    0.57
   8   4  -3    0.81    0.22
  -8  -4   3    0.49    0.14
   7   4  -3    2.61    0.37
  -7  -4   3    2.19    0.21
   6   4  -3    1.14    0.28
  -6  -4   3    1.03    0.22
   5   4  -3   18.86    0.41
  -5  -4   3   18.42    0.28
   4   4  -3    0.19    0.10
  -4  -4   3    0.10    0.08
   3   4  -3   16.34    0.29
  -3  -4   3   16.43    0.29
   2   4  -3    9.72    0.27
  -2  -4   3    9.59    0.23
   1   4  -3    3.92    0.14
  -1  -4   3    3.91    0.13
   0   4  -3    2.56    0.16
   0  -4   3    1.55    0.78
  -1   4  -3   43.88    0.78
   1  -4   3   43.62    0.57
  -2   4  -3    1.59    0.12
   2  -4   3    1.63    0.12
  -3   4  -3   97.66    1.15
   3  -4   3   98.17    1.15
  -4   4  -3   53.48    1.40
   4  -4   3   54.48    0.83
  -5   4  -3    8.22    0.39
   5  -4   3    7.90    0.24
  -6   4  -3    5.48    0.78
   6  -4   3    3.82    0.23
  -7   4  -3    2.05    0.34
   7  -4   3    2.78    0.34
   9   3  -3    0.22    0.57
  -9  -3   3    0.64    0.48
   8   3  -3    8.95    0.48
  -8  -3   3    9.32    0.73
   7   3  -3    4.44    0.27
  -7  -3   3    3.71    0.16
   6   3  -3    6.03    0.33
  -6  -3   3    5.09    0.30
   5   3  -3    2.63    0.25
  -5  -3   3    2.22    0.19
   4   3  -3   36.01    0.42
  -4  -3   3   35.78    0.38
   3   3  -3   58.67    0.80
  -3  -3   3   59.05    0.66
   2   3  -3    9.70    0.21
  -2  -3   3    9.50    0.22
   1   3  -3   25.70    0.34
  -1  -3   3   25.46    0.31
   0   3  -3  224.48    1.99
   0  -3   3  225.55    1.88
  -1   3  -3    9.53    0.37
   1  -3   3    9.24    0.28
  -2   3  -3   21.81    0.33
   2  -3   3   22.02    0.32
  -3   3  -3    4.40    0.17
   3  -3   3    4.47    0.16
  -4   3  -3    1.06    0.26
   4  -3   3    1.20    0.24
  -5   3  -3   16.34    0.80
   5  -3   3   15.08    0.61
  -6   3  -3   14.95    0.37
   6  -3   3   14.73    0.33
  -7   3  -3   30.75    1.62
   7  -3   3   31.97    0.59
   9   2  -3    3.30    0.30
  -9  -2   3    3.42    0.21
   8   2  -3    1.00    0.37
  -8  -2   3    0.00    0.27
   7   2  -3    1.20    0.56
  -7  -2   3    0.34    0.26
   6   2  -3    0.78    0.14
  -6  -2   3    0.81    0.10
   5   2  -3   12.42    0.27
  -5  -2   3   12.67    0.25
   4   2  -3    7.75    0.35
  -4  -2   3    8.15    0.36
   3   2  -3   14.17    0.24
  -3  -2   3   13.99    0.24
   2   2  -3   65.08    1.20
  -2  -2   3   67.78    1.46
   1   2  -3   75.01    0.83
  -1  -2   3   74.85    0.90
   0   2  -3   52.14    0.51
   0  -2   3   51.51    0.54
  -1   2  -3  191.35    1.72
   1  -2   3  191.03    1.60
  -2   2  -3   79.36    1.42
   2  -2   3   79.13    1.25
  -3   2  -3    0.71    0.09
   3  -2   3    0.83    0.09
  -4   2  -3   67.43    0.92
   4  -2   3   67.01    0.62
  -5   2  -3   15.15    0.43
   5  -2   3   15.86    0.33
  -6   2  -3   18.42    0.61
   6  -2   3   17.93    0.27
  -7   2  -3    1.55    0.27
   7  -2   3    0.97    0.16
  -8   2  -3    0.74    1.79
   8  -2   3    1.05    0.56
   9   1  -3    2.00    0.61
  -9  -1   3    1.58    0.79
   8   1  -3    4.31    0.54
  -8  -1   3    4.30    1.60
   7   1  -3    0.00    0.40
  -7  -1   3    0.27    0.28
   6   1  -3    0.77    0.14
  -6  -1   3    0.90    0.09
   5   1  -3    0.79    0.11
  -5  -1   3    0.59    0.08
   4   1  -3   20.16    0.37
  -4  -1   3   18.88    0.33
   3   1  -3    2.77    0.12
  -3  -1   3    2.63    0.12
   2   1  -3  189.95    1.58
  -2  -1   3  189.17    1.66
   1   1  -3    4.07    0.17
  -1  -1   3    4.09    0.18
   0   1  -3  108.98    0.99
   0  -1   3  110.19    1.08
  -1   1  -3    0.07    0.04
   1  -1   3    0.09    0.04
  -2   1  -3   41.06    0.70
   2  -1   3   39.43    0.47
  -3   1  -3   37.40    0.92
   3  -1   3   35.12    0.77
  -4   1  -3    3.21    0.12
   4  -1   3    3.23    0.11
  -5   1  -3    0.07    0.15
   5  -1   3    0.07    0.06
  -6   1  -3    2.31    0.60
   6  -1   3    0.00    0.24
  -7   1  -3   16.91    0.54
   7  -1   3   16.68    0.29
  -8   1  -3   16.12    0.58
   8  -1   3   15.40    0.46
   8   0  -3    1.72    0.17
  -8   0   3    1.60    0.19
   7   0  -3    4.13    0.44
  -7   0   3    4.57    0.39
   6   0  -3    1.25    0.34
  -6   0   3    2.64    0.25
   5   0  -3    0.04    0.06
  -5   0   3    0.13    0.06
   4   0  -3   25.29    0.41
  -4   0   3   25.59    0.35
   3   0  -3  496.56    6.12
  -3   0   3  496.50    4.23
   2   0  -3   65.48    0.70
  -2   0   3   65.55    0.60
   1   0  -3    2.46    0.19
  -1   0   3    2.64    0.11
   0   0  -3    0.41    0.08
   0   0   3    0.37    0.08
  -1   0  -3  590.96    6.14
   1   0   3  602.24    5.12
  -2   0  -3   28.72    0.34
   2   0   3   28.96    0.31
  -3   0  -3   72.89    0.86
   3   0   3   73.07    0.78
  -4   0  -3   12.86    0.25
   4   0   3   13.14    0.19
  -5   0  -3   21.88    0.39
   5   0   3   22.54    0.28
  -6   0  -3    7.40    0.65
   6   0   3    7.61    0.27
  -7   0  -3   13.54    0.59
   7   0   3   13.01    0.31
  -8   0  -3    0.35    0.25
   8   0   3    0.15    0.14
  -9   0  -3    7.03    1.70
   9   0   3    5.51    0.58
   8  -1  -3    0.07    0.17
  -8   1   3    0.33    0.16
   7  -1  -3   13.46    0.31
  -7   1   3   13.23    0.27
   6  -1  -3    0.97    0.43
  -6   1   3    0.56    0.18
   5  -1  -3    6.19    0.24
  -5   1   3    6.08    0.18
   4  -1  -3    0.67    0.08
  -4   1   3    0.71    0.07
   3  -1  -3  114.34    1.43
  -3   1   3  115.56    1.18
   2  -1  -3  205.18    2.24
  -2   1   3  206.30    1.70
   1  -1  -3  403.33    3.93
  -1   1   3  405.99    3.38
   0  -1  -3   38.85    0.39
   0   1   3   38.37    0.38
  -1  -1  -3    1.52    0.10
   1   1   3    0.30    0.26
  -2  -1  -3   66.82    0.52
   2   1   3   66.14    0.52
  -3  -1  -3  356.66    3.10
   3   1   3  356.29    2.31
  -4  -1  -3    7.90    0.50
   4   1   3    8.95    0.24
  -5  -1  -3   24.61    0.39
   5   1   3   25.09    0.29
  -6  -1  -3   15.11    0.32
   6   1   3   15.02    0.21
  -7  -1  -3    1.67    0.45
   7   1   3    2.94    0.34
  -8  -1  -3    0.72    0.33
   8   1   3    1.02    0.38
  -9  -1  -3    0.30    0.28
   9   1   3    0.78    0.20
   8  -2  -3    1.58    0.46
  -8   2   3    1.06    0.36
   7  -2  -3    0.32    0.15
  -7   2   3    0.26    0.14
   6  -2  -3   11.11    0.36
  -6   2   3   11.51    0.26
   5  -2  -3   10.90    0.36
  -5   2   3   11.06    0.31
   4  -2  -3    8.00    0.20
  -4   2   3    8.22    0.17
   3  -2  -3    5.53    0.16
  -3   2   3    5.65    0.14
   2  -2  -3    0.23    0.29
  -2   2   3    0.00    0.32
   1  -2  -3    0.45    0.06
  -1   2   3    0.50    0.06
   0  -2  -3   53.90    0.54
   0   2   3   54.35    0.50
  -1  -2  -3    9.86    0.16
   1   2   3    9.87    0.16
  -2  -2  -3   61.45    0.70
   2   2   3   61.81    0.56
  -3  -2  -3    0.49    0.05
   3   2   3    0.54    0.05
  -4  -2  -3   29.25    0.30
   4   2   3   28.89    0.27
  -5  -2  -3    9.40    1.23
   5   2   3    9.20    0.53
  -6  -2  -3   19.81    0.35
   6   2   3   19.91    0.23
  -7  -2  -3    9.43    0.34
   7   2   3    9.31    0.26
  -8  -2  -3    6.97    0.44
   8   2   3    5.96    0.32
  -9  -2  -3    9.16    0.45
   9   2   3    8.61    0.32
   7  -3  -3    3.98    0.59
  -7   3   3    3.75    0.72
   6  -3  -3    1.59    0.16
  -6   3   3    1.42    0.15
   5  -3  -3   20.74    0.46
  -5   3   3   21.15    0.42
   4  -3  -3    6.25    0.24
  -4   3   3    6.83    0.24
   3  -3  -3    0.27    0.08
  -3   3   3    0.11    0.08
   2  -3  -3    1.54    0.09
  -2   3   3    1.68    0.11
   1  -3  -3  168.39    1.72
  -1   3   3  160.57    1.80
   0  -3  -3   44.40    0.47
   0   3   3   44.47    0.48
  -1  -3  -3  109.57    0.92
   1   3   3  108.68    0.88
  -2  -3  -3   66.28    0.79
   2   3   3   66.24    0.76
  -3  -3  -3   60.68    0.57
   3   3   3   60.77    0.53
  -4  -3  -3   21.90    0.25
   4   3   3   22.14    0.22
  -5  -3  -3   25.55    0.36
   5   3   3   26.23    0.32
  -6  -3  -3   64.68    0.80
   6   3   3   64.99    0.61
  -7  -3  -3    2.22    0.18
   7   3   3    2.46    0.13
  -8  -3  -3   10.78    0.51
   8   3   3   11.85    0.43
  -9  -3  -3   13.48    1.19
   9   3   3   15.33    0.70
 -10  -3  -3   12.93    0.57
  10   3   3   13.41    0.39
   7  -4  -3   14.73    0.47
  -7   4   3   14.54    0.45
   6  -4  -3    1.13    0.20
  -6   4   3    0.95    0.25
   5  -4  -3   17.15    0.37
  -5   4   3   17.16    0.35
   4  -4  -3   49.15    0.65
  -4   4   3   49.53    0.69
   3  -4  -3    0.37    0.10
  -3   4   3    0.39    0.13
   2  -4  -3    4.69    0.15
  -2   4   3    4.82    0.18
   1  -4  -3    9.00    0.22
  -1   4   3    8.50    0.22
   0  -4  -3   13.55    0.27
   0   4   3   13.57    0.24
  -1  -4  -3   37.04    0.42
   1   4   3   37.15    0.41
  -2  -4  -3   25.03    0.34
   2   4   3   25.20    0.31
  -3  -4  -3  138.02    1.42
   3   4   3  137.08    1.45
  -4  -4  -3  173.86    1.30
   4   4   3  172.58    1.30
  -5  -4  -3    0.30    0.06
   5   4   3    0.42    0.06
  -6  -4  -3    6.48    0.34
   6   4   3    5.86    0.32
  -7  -4  -3    0.57    0.11
   7   4   3    0.39    0.09
  -8  -4  -3   50.97    0.69
   8   4   3   51.25    0.58
  -9  -4  -3    0.67    1.14
   9   4   3    0.04    0.42
 -10  -4  -3    4.11    0.97
  10   4   3    3.88    0.89
   6  -5  -3    0.85    0.38
  -6   5   3    1.59    0.34
   5  -5  -3    0.31    0.14
  -5   5   3    0.27    0.15
   4  -5  -3   14.22    0.39
  -4   5   3   13.07    0.32
   3  -5  -3   17.32    0.41
  -3   5   3   16.71    0.46
   2  -5  -3   15.11    0.30
  -2   5   3   15.12    0.32
   1  -5  -3   14.05    0.27
  -1   5   3   13.54    0.27
   0  -5  -3   13.04    0.37
   0   5   3   12.16    0.40
  -1  -5  -3    6.78    0.19
   1   5   3    6.83    0.16
  -2  -5  -3    7.71    0.19
   2   5   3    7.54    0.17
  -3  -5  -3   21.10    0.36
   3   5   3   20.77    0.34
  -4  -5  -3   62.04    0.63
   4   5   3   61.74    0.64
  -5  -5  -3    3.54    0.11
   5   5   3    3.65    0.13
  -6  -5  -3    1.01    0.12
   6   5   3    0.96    0.11
  -7  -5  -3    5.62    0.26
   7   5   3    6.56    0.24
  -8  -5  -3    0.95    0.08
   8   5   3    1.05    0.10
  -9  -5  -3    0.21    0.20
   9   5   3    0.47    0.16
 -10  -5  -3    5.07    0.47
  10   5   3    5.01    0.39
   5  -6  -3    0.06    0.45
  -5   6   3    1.27    0.50
   4  -6  -3    5.82    0.26
  -4   6   3    5.59    0.25
   3  -6  -3    6.35    0.30
  -3   6   3    6.35    0.37
   2  -6  -3    5.79    0.56
  -2   6   3    7.09    0.63
   1  -6  -3   36.12    0.47
  -1   6   3   36.64    0.53
   0  -6  -3   24.72    0.39
   0   6   3   24.46    0.38
  -1  -6  -3    9.73    0.96
   1   6   3    8.87    0.94
  -2  -6  -3    5.20    0.17
   2   6   3    5.05    0.16
  -3  -6  -3    0.89    0.10
   3   6   3    0.74    0.09
  -4  -6  -3    3.73    0.17
   4   6   3    3.99    0.21
  -5  -6  -3    1.00    0.10
   5   6   3    1.18    0.11
  -6  -6  -3   54.67    0.54
   6   6   3   54.62    0.58
  -7  -6  -3    0.00    0.42
   7   6   3    0.57    0.45
  -8  -6  -3    0.00    0.42
   8   6   3    2.95    0.55
  -9  -6  -3    2.88    0.17
   9   6   3    3.33    0.25
   4  -7  -3    1.00    0.28
  -4   7   3    0.73    0.34
   3  -7  -3   17.60    0.39
  -3   7   3   17.76    0.37
   2  -7  -3    6.44    0.39
  -2   7   3    5.21    0.44
   1  -7  -3    3.25    0.48
  -1   7   3    2.57    0.75
   0  -7  -3   67.67    0.86
   0   7   3   67.95    0.82
  -1  -7  -3   25.48    0.55
   1   7   3   26.01    0.48
  -2  -7  -3   87.62    1.46
   2   7   3   92.64    1.75
  -3  -7  -3   16.23    0.31
   3   7   3   16.39    0.31
  -4  -7  -3   49.81    0.66
   4   7   3   49.59    0.57
  -5  -7  -3    1.95    0.19
   5   7   3    1.75    0.25
  -6  -7  -3    1.98    0.13
   6   7   3    2.21    0.15
  -7  -7  -3    3.99    0.17
   7   7   3    4.36    0.22
  -8  -7  -3    0.00    0.26
   8   7   3    0.00    0.32
  -9  -7  -3    4.22    0.59
   9   7   3    3.72    0.44
   3  -8  -3    0.48    0.19
  -3   8   3    0.72    0.19
   2  -8  -3    9.35    0.37
  -2   8   3    9.19    0.32
   1  -8  -3    5.75    0.36
  -1   8   3    5.41    0.32
   0  -8  -3    4.36    0.25
   0   8   3    4.86    0.30
  -1  -8  -3   63.48    0.84
   1   8   3   63.32    0.89
  -2  -8  -3    2.46    0.70
   2   8   3    1.66    1.07
  -3  -8  -3    4.55    0.37
   3   8   3    5.42    0.45
  -4  -8  -3    0.23    0.10
   4   8   3    0.26    0.16
  -5  -8  -3   10.16    0.41
   5   8   3   10.25    0.48
  -6  -8  -3   42.08    0.67
   6   8   3   42.11    0.81
  -7  -8  -3   10.11    0.26
   7   8   3   10.78    0.34
  -8  -8  -3    2.81    0.37
   8   8   3    3.42    0.56
  -9  -8  -3    1.31    0.34
   9   8   3    1.33    0.55
   2  -9  -3    1.43    0.22
  -2   9   3    1.17    0.23
   1  -9  -3    5.12    0.42
  -1   9   3    4.49    0.78
   0  -9  -3    0.46    0.46
   0   9   3    1.81    0.48
  -1  -9  -3   18.78    0.43
   1   9   3   18.52    0.49
  -2  -9  -3    0.54    0.14
   2   9   3    0.35    0.20
  -3  -9  -3    1.38    0.30
   3   9   3    1.23    0.39
  -4  -9  -3   32.60    0.65
   4   9   3   32.89    0.60
  -5  -9  -3    9.49    0.31
   5   9   3    9.71    0.37
  -6  -9  -3   16.46    0.42
   6   9   3   17.00    0.57
  -7  -9  -3    0.00    0.32
   7   9   3    1.49    0.49
  -8  -9  -3    0.52    0.16
   8   9   3    0.97    0.26
   0 -10  -3    0.55    0.55
   0  10   3    1.93    0.66
  -1 -10  -3    1.61    0.49
   1  10   3    3.50    0.60
  -2 -10  -3    0.41    0.20
   2  10   3    0.22    0.22
  -3 -10  -3    2.78    0.53
   3  10   3    3.83    0.63
  -4 -10  -3    0.00    0.49
   4  10   3    0.77    0.73
  -5 -10  -3   10.25    0.36
   5  10   3   10.39    0.48
  -6 -10  -3    1.97    0.27
   6  10   3    1.78    0.34
  -7 -10  -3    8.70    0.39
   7  10   3    8.86    0.47
   5   8  -4    3.09    0.59
  -5  -8   4    3.42    0.47
   4   8  -4    1.71    0.25
  -4  -8   4    1.81    0.19
   3   8  -4    4.39    0.51
  -3  -8   4    4.08    0.60
   2   8  -4    1.12    0.37
  -2  -8   4    0.73    0.48
   1   8  -4    0.02    0.42
  -1  -8   4    0.35    0.22
   0   8  -4    1.31    0.49
   0  -8   4    0.51    0.45
  -1   8  -4    4.00    0.64
   1  -8   4    4.44    0.44
   6   7  -4    4.84    0.31
  -6  -7   4    4.92    0.35
   5   7  -4   16.52    0.45
  -5  -7   4   16.68    0.38
   4   7  -4   13.52    0.46
  -4  -7   4   13.23    0.45
   3   7  -4    0.95    0.15
  -3  -7   4    0.68    0.13
   2   7  -4   17.22    0.83
  -2  -7   4   18.19    0.88
   1   7  -4    8.03    0.35
  -1  -7   4    8.15    0.94
   0   7  -4    5.55    0.41
   0  -7   4    5.14    0.29
  -1   7  -4    6.47    0.60
   1  -7   4    7.06    0.53
  -2   7  -4   10.45    0.71
   2  -7   4    9.89    0.59
  -3   7  -4    3.36    0.36
   3  -7   4    4.06    0.28
   7   6  -4    4.79    0.79
  -7  -6   4    4.20    0.47
   6   6  -4    1.16    0.20
  -6  -6   4    1.23    0.15
   5   6  -4    0.96    0.41
  -5  -6   4    0.00    0.34
   4   6  -4    1.56    0.50
  -4  -6   4    1.30    0.38
   3   6  -4    0.56    0.12
  -3  -6   4    0.42    0.11
   2   6  -4    0.34    0.11
  -2  -6   4    0.55    0.09
   1   6  -4    6.51    0.27
  -1  -6   4    6.95    0.44
   0   6  -4    0.16    0.21
   0  -6   4    0.59    0.20
  -1   6  -4   10.42    0.45
   1  -6   4    9.90    0.30
  -2   6  -4    2.66    0.42
   2  -6   4    0.68    0.36
  -3   6  -4    2.02   15.51
   3  -6   4    0.15    0.52
  -4   6  -4    4.70    0.36
   4  -6   4    5.60    0.30
   8   5  -4    2.32    0.27
  -8  -5   4    2.98    0.33
   7   5  -4    0.00    0.54
  -7  -5   4    0.00    0.38
   6   5  -4    0.41    0.28
  -6  -5   4    0.34    0.31
   5   5  -4    3.56    0.22
  -5  -5   4    3.36    0.16
   4   5  -4    8.71    0.31
  -4  -5   4    9.30    0.36
   3   5  -4    7.27    0.38
  -3  -5   4    6.50    0.41
   2   5  -4   76.07    0.81
  -2  -5   4   76.95    0.77
   1   5  -4    1.86    0.16
  -1  -5   4    1.88    0.21
   0   5  -4   32.03    0.64
   0  -5   4   32.53    0.64
  -1   5  -4   55.90    0.81
   1  -5   4   55.63    0.68
  -2   5  -4   10.00    0.47
   2  -5   4    9.86    0.34
  -3   5  -4    2.00    0.32
   3  -5   4    1.88    0.26
  -4   5  -4    1.20    0.32
   4  -5   4    1.33    0.18
  -5   5  -4    0.13    0.23
   5  -5   4    0.31    0.18
   8   4  -4    0.32    0.25
  -8  -4   4    0.44    0.18
   7   4  -4    0.46    0.29
  -7  -4   4    0.80    0.31
   6   4  -4    0.19    0.37
  -6  -4   4    0.00    0.31
   5   4  -4    1.55    0.21
  -5  -4   4    1.45    0.18
   4   4  -4   17.67    0.35
  -4  -4   4   17.83    0.29
   3   4  -4   14.54    0.29
  -3  -4   4   13.65    0.29
   2   4  -4   44.61    0.56
  -2  -4   4   44.97    0.66
   1   4  -4    0.38    0.08
  -1  -4   4    0.49    0.08
   0   4  -4    2.87    0.22
   0  -4   4    3.18    0.29
  -1   4  -4    0.53    0.39
   1  -4   4    1.44    0.27
  -2   4  -4   41.07    0.62
   2  -4   4   40.14    0.53
  -3   4  -4   31.68    0.77
   3  -4   4   31.03    0.52
  -4   4  -4   23.74    0.69
   4  -4   4   26.01    0.54
  -5   4  -4    4.78    0.30
   5  -4   4    4.48    0.22
  -6   4  -4    0.95    0.59
   6  -4   4    0.42    0.21
   8   3  -4   11.75    0.56
  -8  -3   4   10.44    0.48
   7   3  -4   19.55    0.41
  -7  -3   4   19.27    0.38
   6   3  -4    6.90    0.41
  -6  -3   4    5.06    0.42
   5   3  -4   19.33    0.58
  -5  -3   4   19.41    0.56
   4   3  -4    6.81    0.21
  -4  -3   4    6.49    0.15
   3   3  -4    1.75    0.16
  -3  -3   4    1.83    0.15
   2   3  -4   12.82    0.36
  -2  -3   4   12.94    0.38
   1   3  -4   66.66    0.70
  -1  -3   4   66.71    0.75
   0   3  -4   20.65    0.32
   0  -3   4   20.70    0.32
  -1   3  -4   14.65    0.29
   1  -3   4   14.69    0.29
  -2   3  -4   13.66    0.32
   2  -3   4   13.79    0.25
  -3   3  -4   27.06    0.44
   3  -3   4   27.02    0.36
  -4   3  -4   38.50    0.77
   4  -3   4   39.28    0.55
  -5   3  -4    2.50    1.66
   5  -3   4    0.39    0.30
  -6   3  -4    4.41    0.26
   6  -3   4    4.59    0.20
  -7   3  -4    4.24    1.47
   7  -3   4    0.96    0.67
   8   2  -4    2.15    0.38
  -8  -2   4    0.55    0.29
   7   2  -4    0.75    0.31
  -7  -2   4    0.78    0.25
   6   2  -4    6.46    0.22
  -6  -2   4    6.43    0.22
   5   2  -4    2.85    0.30
  -5  -2   4    2.34    0.31
   4   2  -4   11.37    0.28
  -4  -2   4   12.38    0.27
   3   2  -4    0.38    0.08
  -3  -2   4    0.58    0.10
   2   2  -4   38.15    0.58
  -2  -2   4   38.49    0.59
   1   2  -4   51.63    0.65
  -1  -2   4   50.35    0.77
   0   2  -4   21.33    0.28
   0  -2   4   21.22    0.30
  -1   2  -4   88.91    0.84
   1  -2   4   88.74    0.82
  -2   2  -4    4.83    0.40
   2  -2   4    4.48    0.38
  -3   2  -4   18.65    0.31
   3  -2   4   18.62    0.27
  -4   2  -4    9.13    0.26
   4  -2   4    8.92    0.18
  -5   2  -4    0.99    0.31
   5  -2   4    0.39    0.21
  -6   2  -4    1.65    0.31
   6  -2   4    1.86    0.18
  -7   2  -4    3.63    0.36
   7  -2   4    3.69    0.18
  -8   2  -4    5.72    1.26
   8  -2   4    6.52    0.47
   8   1  -4    0.59    0.51
  -8  -1   4    2.26    0.81
   7   1  -4    0.89    0.30
  -7  -1   4    0.77    0.31
   6   1  -4    7.56    0.29
  -6  -1   4    7.63    0.20
   5   1  -4    1.72    0.16
  -5  -1   4    1.75    0.12
   4   1  -4    6.37    0.35
  -4  -1   4    6.73    0.32
   3   1  -4   34.47    0.64
  -3  -1   4   34.32    0.61
   2   1  -4   16.64    0.25
  -2  -1   4   16.41    0.23
   1   1  -4    0.14    0.10
  -1  -1   4    0.35    0.14
   0   1  -4    3.83    0.13
   0  -1   4    3.76    0.15
  -1   1  -4   40.66    0.44
   1  -1   4   40.78    0.48
  -2   1  -4  110.33    1.43
   2  -1   4  103.97    1.55
  -3   1  -4   17.61    0.51
   3  -1   4   16.35    0.43
  -4   1  -4   26.58    0.39
   4  -1   4   26.70    0.30
  -5   1  -4   15.47    0.36
   5  -1   4   15.74    0.27
  -6   1  -4    0.93    1.18
   6  -1   4    0.38    0.17
  -7   1  -4   37.31    0.85
   7  -1   4   36.66    0.48
  -8   1  -4   15.76    1.01
   8  -1   4   15.09    0.38
   8   0  -4    1.32    0.23
  -8   0   4    1.61    0.17
   7   0  -4    9.40    0.53
  -7   0   4   10.45    0.38
   6   0  -4    0.85    1.04
  -6   0   4    1.38    0.49
   5   0  -4   11.14    0.25
  -5   0   4   11.29    0.21
   4   0  -4   92.18    1.13
  -4   0   4   93.30    0.85
   3   0  -4   69.79    1.39
  -3   0   4   69.23    1.14
   2   0  -4    8.58    0.20
  -2   0   4    8.50    0.17
   1   0  -4    5.79    0.17
  -1   0   4    5.90    0.18
   0   0  -4    8.26    0.23
   0   0   4    8.29    0.21
  -1   0  -4   27.04    0.39
   1   0   4   27.11    0.34
  -2   0  -4   96.68    1.02
   2   0   4   95.80    0.80
  -3   0  -4   36.88    3.21
   3   0   4   36.49    2.22
  -4   0  -4   26.37    0.38
   4   0   4   27.20    0.33
  -5   0  -4    1.66    0.15
   5   0   4    1.35    0.07
  -6   0  -4    1.39    0.54
   6   0   4    1.18    0.21
  -7   0  -4   12.88    0.98
   7   0   4   14.28    0.44
  -8   0  -4    4.38    0.32
   8   0   4    4.36    0.22
  -9   0  -4   14.73    2.58
   9   0   4    5.39    0.82
   8  -1  -4    0.12    0.19
  -8   1   4    0.15    0.18
   7  -1  -4    6.24    0.24
  -7   1   4    5.99    0.23
   6  -1  -4    8.49    0.80
  -6   1   4    6.26    0.49
   5  -1  -4    0.06    0.12
  -5   1   4    0.43    0.17
   4  -1  -4    5.45    0.17
  -4   1   4    5.17    0.15
   3  -1  -4   38.69    0.69
  -3   1   4   38.99    0.57
   2  -1  -4  106.86    1.49
  -2   1   4  111.72    1.44
   1  -1  -4  142.74    1.27
  -1   1   4  142.04    1.20
   0  -1  -4    1.27    0.09
   0   1   4    1.34    0.16
  -1  -1  -4    6.70    0.23
   1   1   4    6.65    0.18
  -2  -1  -4  149.24    1.25
   2   1   4  149.79    1.39
  -3  -1  -4   13.53    0.24
   3   1   4   13.31    0.22
  -4  -1  -4    5.95    0.20
   4   1   4    6.53    0.14
  -5  -1  -4   20.57    0.39
   5   1   4   20.98    0.26
  -6  -1  -4    0.29    0.12
   6   1   4    0.08    0.07
  -7  -1  -4   13.90    0.96
   7   1   4    1.13    0.28
  -8  -1  -4    0.81    0.30
   8   1   4    1.82    0.35
  -9  -1  -4    1.80    0.34
   9   1   4    1.71    0.21
   7  -2  -4    0.39    0.14
  -7   2   4    0.61    0.16
   6  -2  -4    2.06    0.22
  -6   2   4    2.19    0.18
   5  -2  -4   11.02    0.29
  -5   2   4   11.55    0.26
   4  -2  -4   64.53    0.73
  -4   2   4   64.28    0.63
   3  -2  -4   71.93    0.75
  -3   2   4   72.50    0.67
   2  -2  -4   72.04    1.29
  -2   2   4   72.03    1.16
   1  -2  -4  101.58    1.03
  -1   2   4  101.75    0.92
   0  -2  -4    1.78    0.08
   0   2   4    1.76    0.09
  -1  -2  -4  142.13    1.68
   1   2   4  143.24    1.73
  -2  -2  -4   21.34    0.36
   2   2   4   21.10    0.32
  -3  -2  -4    8.69    0.13
   3   2   4    8.62    0.13
  -4  -2  -4  115.79    1.08
   4   2   4  113.95    0.91
  -5  -2  -4    6.95    0.45
   5   2   4    8.02    0.19
  -6  -2  -4    6.26    0.25
   6   2   4    6.22    0.15
  -7  -2  -4   18.52    0.50
   7   2   4   18.94    0.28
  -8  -2  -4   15.51    0.68
   8   2   4   16.50    0.42
  -9  -2  -4    2.18    0.28
   9   2   4    2.07    0.19
   7  -3  -4    1.63    0.54
  -7   3   4    0.24    0.48
   6  -3  -4    0.73    0.15
  -6   3   4    1.04    0.16
   5  -3  -4   11.77    0.54
  -5   3   4   12.39    0.42
   4  -3  -4    0.00    0.21
  -4   3   4    0.00    0.20
   3  -3  -4    1.16    0.10
  -3   3   4    1.17    0.09
   2  -3  -4   24.81    0.34
  -2   3   4   24.94    0.36
   1  -3  -4   12.91    0.24
  -1   3   4   12.46    0.25
   0  -3  -4    2.58    0.11
   0   3   4    2.45    0.10
  -1  -3  -4  263.05    2.15
   1   3   4  267.12    2.08
  -2  -3  -4   90.80    1.32
   2   3   4   89.34    1.55
  -3  -3  -4   51.71    0.61
   3   3   4   50.97    0.47
  -4  -3  -4    5.38    0.12
   4   3   4    5.22    0.12
  -5  -3  -4   22.20    0.81
   5   3   4   22.58    0.73
  -6  -3  -4    1.82    0.26
   6   3   4    1.93    0.13
  -7  -3  -4    3.59    0.23
   7   3   4    3.42    0.13
  -8  -3  -4    7.16    0.56
   8   3   4    5.42    0.37
  -9  -3  -4    1.19    1.11
   9   3   4    0.00    0.39
   7  -4  -4    1.32    0.47
  -7   4   4    0.01    0.35
   6  -4  -4    1.10    0.26
  -6   4   4    1.32    0.23
   5  -4  -4   15.13    0.37
  -5   4   4   14.88    0.37
   4  -4  -4    7.14    0.50
  -4   4   4    7.00    0.68
   3  -4  -4    0.14    0.11
  -3   4   4    0.11    0.12
   2  -4  -4    1.14    0.10
  -2   4   4    1.24    0.12
   1  -4  -4  184.11    1.83
  -1   4   4  182.91    1.81
   0  -4  -4   14.34    0.31
   0   4   4   14.56    0.37
  -1  -4  -4   26.66    0.35
   1   4   4   26.54    0.32
  -2  -4  -4  242.44    2.10
   2   4   4  243.55    2.05
  -3  -4  -4   80.76    0.94
   3   4   4   80.86    0.91
  -4  -4  -4    1.35    0.08
   4   4   4    1.31    0.09
  -5  -4  -4    5.06    0.13
   5   4   4    5.11    0.14
  -6  -4  -4   12.04    0.38
   6   4   4   12.08    0.33
  -7  -4  -4   68.39    0.82
   7   4   4   68.45    0.63
  -8  -4  -4   27.58    0.56
   8   4   4   28.92    0.36
  -9  -4  -4    0.67    0.63
   9   4   4    0.64    0.41
 -10  -4  -4    7.67    2.84
  10   4   4    6.83    0.55
   6  -5  -4    0.86    0.45
  -6   5   4    0.54    0.43
   5  -5  -4    3.59    0.23
  -5   5   4    3.85    0.22
   4  -5  -4    0.30    0.15
  -4   5   4    0.21    0.15
   3  -5  -4   13.37    0.37
  -3   5   4   12.69    0.33
   2  -5  -4    7.85    0.23
  -2   5   4    7.92    0.25
   1  -5  -4    3.51    0.18
  -1   5   4    3.37    0.17
   0  -5  -4    0.89    0.26
   0   5   4    0.81    0.20
  -1  -5  -4   22.03    0.35
   1   5   4   22.14    0.30
  -2  -5  -4    6.40    0.18
   2   5   4    6.32    0.17
  -3  -5  -4   22.00    0.33
   3   5   4   22.08    0.34
  -4  -5  -4    3.73    0.23
   4   5   4    4.26    0.23
  -5  -5  -4    0.11    0.08
   5   5   4    0.18    0.08
  -6  -5  -4   58.20    0.73
   6   5   4   59.16    0.66
  -7  -5  -4    0.00    0.29
   7   5   4    0.00    0.31
  -8  -5  -4    2.67    0.25
   8   5   4    2.37    0.11
  -9  -5  -4    1.94    0.31
   9   5   4    2.62    0.20
 -10  -5  -4    0.17    0.37
  10   5   4    0.20    0.31
   5  -6  -4    2.59    0.45
  -5   6   4    2.28    0.41
   4  -6  -4    1.31    0.17
  -4   6   4    1.37    0.16
   3  -6  -4    0.05    0.19
  -3   6   4    0.27    0.22
   2  -6  -4    1.77    0.28
  -2   6   4    0.81    0.29
   1  -6  -4    1.01    0.13
  -1   6   4    0.85    0.13
   0  -6  -4    0.17    0.09
   0   6   4    0.08    0.10
  -1  -6  -4    0.55    0.25
   1   6   4    0.37    0.25
  -2  -6  -4    0.95    0.10
   2   6   4    1.03    0.11
  -3  -6  -4    4.83    0.18
   3   6   4    5.12    0.17
  -4  -6  -4    3.61    0.14
   4   6   4    3.62    0.23
  -5  -6  -4    7.98    0.25
   5   6   4    7.86    0.22
  -6  -6  -4    4.12    0.17
   6   6   4    4.45    0.18
  -7  -6  -4   45.18    0.64
   7   6   4   46.08    0.77
  -8  -6  -4   20.93    0.85
   8   6   4   23.41    0.57
  -9  -6  -4    1.27    0.17
   9   6   4    1.21    0.14
   4  -7  -4    7.84    0.54
  -4   7   4    7.99    0.46
   3  -7  -4    0.40    0.17
  -3   7   4    0.30    0.15
   2  -7  -4    5.87    0.41
  -2   7   4    7.41    0.88
   1  -7  -4    0.01    0.97
  -1   7   4    0.00    0.76
   0  -7  -4   41.92    0.59
   0   7   4   43.45    0.57
  -1  -7  -4    0.97    0.16
   1   7   4    1.03    0.16
  -2  -7  -4    0.00    0.25
   2   7   4    0.42    0.26
  -3  -7  -4    0.10    0.11
   3   7   4    0.14    0.09
  -4  -7  -4    0.18    0.11
   4   7   4    0.18    0.10
  -5  -7  -4    5.89    0.30
   5   7   4    4.96    0.25
  -6  -7  -4    6.14    0.21
   6   7   4    6.44    0.21
  -7  -7  -4    8.80    0.26
   7   7   4    8.25    0.31
  -8  -7  -4    1.78    0.27
   8   7   4    1.36    0.27
  -9  -7  -4    2.79    0.59
   9   7   4    1.97    0.45
   3  -8  -4    0.35    0.21
  -3   8   4    0.41    0.18
   2  -8  -4    7.04    0.33
  -2   8   4    7.06    0.27
   1  -8  -4    6.81    0.37
  -1   8   4    6.60    0.62
   0  -8  -4    6.57    0.33
   0   8   4    6.65    0.31
  -1  -8  -4    9.47    0.33
   1   8   4    9.77    0.31
  -2  -8  -4   98.68    1.72
   2   8   4   99.85    1.41
  -3  -8  -4    0.00    0.14
   3   8   4    0.46    0.55
  -4  -8  -4    1.50    0.18
   4   8   4    1.22    0.14
  -5  -8  -4    0.45    0.33
   5   8   4    0.22    0.36
  -6  -8  -4   23.38    0.91
   6   8   4   21.17    0.72
  -7  -8  -4    1.12    0.15
   7   8   4    1.11    0.17
  -8  -8  -4    0.50    0.36
   8   8   4    0.25    0.26
  -9  -8  -4    0.87    0.36
   9   8   4    1.81    0.52
   2  -9  -4    0.75    0.24
  -2   9   4    0.77    0.24
   1  -9  -4   38.03    0.80
  -1   9   4   37.13    0.75
   0  -9  -4    5.78    0.42
   0   9   4    6.92    0.54
  -1  -9  -4    2.36    0.20
   1   9   4    3.12    0.27
  -2  -9  -4    7.53    0.29
   2   9   4    7.93    0.35
  -3  -9  -4    0.08    0.25
   3   9   4    0.51    0.36
  -4  -9  -4    0.08    0.21
   4   9   4    0.28    0.24
  -5  -9  -4   15.08    0.33
   5   9   4   15.71    0.38
  -6  -9  -4    1.04    0.32
   6   9   4    3.56    0.49
  -7  -9  -4    1.97    0.41
   7   9   4    1.93    0.47
  -8  -9  -4    2.33    0.21
   8   9   4    2.51    0.24
   0 -10  -4    6.58    0.76
   0  10   4    8.89    0.70
  -1 -10  -4    8.40    0.48
   1  10   4    7.90    0.60
  -2 -10  -4    1.13    0.19
   2  10   4    1.30    0.24
  -3 -10  -4    0.11    0.20
   3  10   4    2.37    0.61
  -4 -10  -4    0.28    0.70
   4  10   4    0.00    0.63
  -5 -10  -4    6.72    0.28
   5  10   4    7.05    0.36
  -6 -10  -4    8.35    0.35
   6  10   4    7.85    0.45
  -7 -10  -4    0.32    0.22
   7  10   4    0.78    0.29
  -3 -11  -4    4.04    0.32
   3  11   4    4.53    0.35
  -4 -11  -4    2.08    1.46
   4  11   4    0.00    1.48
   3   8  -5    0.00    0.47
  -3  -8   5    0.55    0.73
   2   8  -5    6.55    0.69
  -2  -8   5    6.42    0.53
   1   8  -5    1.28    0.40
  -1  -8   5    1.04    0.26
   5   7  -5    0.27    0.39
  -5  -7   5    0.06    0.41
   4   7  -5    0.49    0.31
  -4  -7   5    0.40    0.44
   3   7  -5    0.32    0.16
  -3  -7   5    0.33    0.17
   2   7  -5    5.63    0.31
  -2  -7   5    5.12    0.63
   1   7  -5    3.21    1.06
  -1  -7   5    0.25    0.79
   0   7  -5    1.60    0.36
   0  -7   5    1.63    0.25
  -1   7  -5    0.00    1.36
   1  -7   5    0.00    0.64
  -2   7  -5    2.89    1.01
   2  -7   5    1.73    0.56
   6   6  -5    9.88    0.37
  -6  -6   5    9.41    0.31
   5   6  -5    1.43    0.36
  -5  -6   5    1.07    0.38
   4   6  -5    5.59    0.47
  -4  -6   5    4.85    0.41
   3   6  -5   23.21    0.44
  -3  -6   5   23.17    0.43
   2   6  -5   10.14    0.32
  -2  -6   5   10.44    0.32
   1   6  -5   10.55    0.41
  -1  -6   5   11.32    0.48
   0   6  -5   17.46    0.62
   0  -6   5   15.90    0.54
  -1   6  -5    0.36    0.22
   1  -6   5    0.25    0.15
  -2   6  -5    3.96    0.48
   2  -6   5    5.35    0.49
  -3   6  -5    2.66    0.78
   3  -6   5    1.95    0.59
  -4   6  -5    5.14    0.44
   4  -6   5    5.20    0.33
   7   5  -5    1.00    0.54
  -7  -5   5    1.83    0.51
   6   5  -5   15.46    0.88
  -6  -5   5   15.70    0.45
   5   5  -5   27.99    0.46
  -5  -5   5   27.41    0.39
   4   5  -5    3.30    0.59
  -4  -5   5    2.57    0.49
   3   5  -5   47.04    0.98
  -3  -5   5   45.61    0.78
   2   5  -5    7.92    0.23
  -2  -5   5    7.46    0.22
   1   5  -5   21.28    0.48
  -1  -5   5   20.38    0.42
   0   5  -5    9.97    0.38
   0  -5   5   11.11    0.40
  -1   5  -5    0.31    0.19
   1  -5   5    0.14    0.12
  -2   5  -5   10.22    0.42
   2  -5   5   10.17    0.30
  -3   5  -5    5.48    0.45
   3  -5   5    4.73    0.33
  -4   5  -5    1.77    0.36
   4  -5   5    2.07    0.21
  -5   5  -5    2.61    0.36
   5  -5   5    1.88    0.22
   7   4  -5   10.83    0.52
  -7  -4   5    9.40    0.66
   6   4  -5    0.12    0.40
  -6  -4   5    0.00    0.38
   5   4  -5    4.79    0.40
  -5  -4   5    4.48    0.23
   4   4  -5    5.49    0.23
  -4  -4   5    5.62    0.21
   3   4  -5   80.52    0.89
  -3  -4   5   81.45    1.09
   2   4  -5    9.79    0.26
  -2  -4   5   10.25    0.37
   1   4  -5    0.26    0.11
  -1  -4   5    0.20    0.10
   0   4  -5   33.00    0.56
   0  -4   5   33.34    0.59
  -1   4  -5    4.84    0.43
   1  -4   5    4.56    0.37
  -2   4  -5   10.15    0.31
   2  -4   5   10.20    0.29
  -3   4  -5   27.91    0.91
   3  -4   5   26.61    0.68
  -4   4  -5    0.62    0.48
   4  -4   5    1.68    0.37
  -5   4  -5    6.99    0.43
   5  -4   5    6.64    0.28
  -6   4  -5    0.00    0.82
   6  -4   5    0.02    0.34
   8   3  -5    2.55    0.57
  -8  -3   5    1.87    0.52
   7   3  -5    0.87    0.19
  -7  -3   5    1.09    0.18
   6   3  -5    0.00    0.39
  -6  -3   5    0.00    0.42
   5   3  -5    0.28    0.60
  -5  -3   5    0.00    0.16
   4   3  -5    8.48    0.25
  -4  -3   5    8.22    0.26
   3   3  -5    4.84    0.26
  -3  -3   5    4.83    0.46
   2   3  -5   34.66    1.02
  -2  -3   5   34.49    1.00
   1   3  -5   37.76    0.53
  -1  -3   5   38.14    0.52
   0   3  -5   17.59    0.31
   0  -3   5   18.13    0.28
  -1   3  -5   15.13    0.42
   1  -3   5   16.06    0.46
  -2   3  -5   12.06    0.34
   2  -3   5   12.24    0.29
  -3   3  -5   24.99    0.46
   3  -3   5   24.78    0.39
  -4   3  -5    4.34    1.45
   4  -3   5    4.17    0.61
  -5   3  -5    4.65    0.74
   5  -3   5    3.87    0.34
  -6   3  -5    0.30    0.18
   6  -3   5    0.23    0.12
  -7   3  -5    1.40    1.28
   7  -3   5    0.00    0.46
   8   2  -5    2.76    0.39
  -8  -2   5    0.32    0.32
   7   2  -5    1.92    0.36
  -7  -2   5    0.73    0.44
   6   2  -5    0.66    0.15
  -6  -2   5    0.39    0.16
   5   2  -5    5.83    0.25
  -5  -2   5    5.11    0.23
   4   2  -5   26.40    0.48
  -4  -2   5   26.96    0.46
   3   2  -5   18.32    0.33
  -3  -2   5   18.45    0.33
   2   2  -5    1.34    0.21
  -2  -2   5    1.44    0.25
   1   2  -5   32.89    0.47
  -1  -2   5   31.28    0.53
   0   2  -5    9.11    0.19
   0  -2   5    9.07    0.23
  -1   2  -5    0.74    0.13
   1  -2   5    0.60    0.11
  -2   2  -5  119.12    1.28
   2  -2   5  121.19    1.26
  -3   2  -5    6.04    0.19
   3  -2   5    6.14    0.18
  -4   2  -5    3.01    0.18
   4  -2   5    2.95    0.15
  -5   2  -5   65.09    1.28
   5  -2   5   66.70    0.93
  -6   2  -5    1.50    0.21
   6  -2   5    1.36    0.18
  -7   2  -5    4.51    0.39
   7  -2   5    4.70    0.21
   8   1  -5    3.15    0.69
  -8  -1   5    3.36    0.49
   7   1  -5    1.42    0.37
  -7  -1   5    0.63    0.26
   6   1  -5    0.08    0.14
  -6  -1   5    0.14    0.12
   5   1  -5    1.03    0.14
  -5  -1   5    0.88    0.12
   4   1  -5    1.44    0.19
  -4  -1   5    1.44    0.18
   3   1  -5   17.51    0.34
  -3  -1   5   17.30    0.30
   2   1  -5   22.13    0.34
  -2  -1   5   22.10    0.29
   1   1  -5   28.30    0.79
  -1  -1   5   26.67    0.68
   0   1  -5   14.30    0.69
   0  -1   5   13.14    0.92
  -1   1  -5  144.57    1.31
   1  -1   5  146.22    1.34
  -2   1  -5   51.52    0.80
   2  -1   5   47.81    1.11
  -3   1  -5  147.74    2.38
   3  -1   5  144.00    2.69
  -4   1  -5    1.27    0.12
   4  -1   5    1.45    0.09
  -5   1  -5    1.23    0.18
   5  -1   5    1.03    0.14
  -6   1  -5   46.67    1.55
   6  -1   5   53.12    0.60
  -7   1  -5    6.56    0.44
   7  -1   5    5.03    0.20
  -8   1  -5    2.18    0.51
   8  -1   5    2.25    0.24
   8   0  -5    1.28    0.26
  -8   0   5    1.32    0.16
   7   0  -5    0.22    0.92
  -7   0   5    0.68    0.35
   6   0  -5    0.00    0.36
  -6   0   5    0.14    0.31
   5   0  -5   11.53    0.33
  -5   0   5   11.15    0.24
   4   0  -5   13.76    0.46
  -4   0   5   14.58    0.33
   3   0  -5  138.13    2.32
  -3   0   5  137.43    1.75
   2   0  -5    8.93    0.22
  -2   0   5    8.62    0.20
   1   0  -5   16.00    0.32
  -1   0   5   16.49    0.31
   0   0  -5    3.42    0.16
   0   0   5    3.15    0.14
  -1   0  -5   25.92    0.38
   1   0   5   25.81    0.39
  -2   0  -5    2.90    0.12
   2   0   5    2.71    0.13
  -3   0  -5   78.40    1.32
   3   0   5   78.25    1.30
  -4   0  -5    3.84    0.36
   4   0   5    4.07    0.22
  -5   0  -5    6.71    0.18
   5   0   5    6.96    0.13
  -6   0  -5   22.67    0.92
   6   0   5   20.09    0.30
  -7   0  -5   26.42    1.19
   7   0   5   26.32    0.45
  -8   0  -5    0.39    0.35
   8   0   5    0.28    0.14
  -9   0  -5    3.97    2.56
   9   0   5    2.72    0.65
   7  -1  -5    5.28    0.32
  -7   1   5    5.56    0.21
   6  -1  -5    0.52    0.32
  -6   1   5    0.00    0.23
   5  -1  -5    8.63    0.61
  -5   1   5    8.55    0.30
   4  -1  -5   68.03    0.78
  -4   1   5   68.59    0.68
   3  -1  -5  128.13    2.55
  -3   1   5  131.66    2.08
   2  -1  -5   53.46    0.85
  -2   1   5   56.71    0.91
   1  -1  -5    0.44    0.06
  -1   1   5    0.46    0.08
   0  -1  -5    0.09    0.10
   0   1   5    0.06    0.11
  -1  -1  -5    0.29    0.16
   1   1   5    0.03    0.11
  -2  -1  -5    0.04    0.05
   2   1   5    0.05    0.06
  -3  -1  -5    1.68    0.12
   3   1   5    1.69    0.12
  -4  -1  -5   14.06    0.40
   4   1   5   15.37    0.31
  -5  -1  -5    0.29    0.14
   5   1   5    0.40    0.06
  -6  -1  -5   27.37    0.55
   6   1   5   28.27    0.35
  -7  -1  -5    0.80    0.44
   7   1   5    1.34    0.21
  -8  -1  -5    4.14    1.15
   8   1   5    2.75    0.35
  -9  -1  -5    0.78    0.36
   9   1   5    0.82    0.20
   7  -2  -5    0.17    0.19
  -7   2   5    0.38    0.14
   6  -2  -5    0.95    0.24
  -6   2   5    1.33    0.15
   5  -2  -5    9.56    0.82
  -5   2   5    8.75    0.65
   4  -2  -5   40.87    0.55
  -4   2   5   40.15    0.49
   3  -2  -5   85.90    0.92
  -3   2   5   87.29    0.82
   2  -2  -5   45.26    0.65
  -2   2   5   45.39    0.56
   1  -2  -5   18.26    0.27
  -1   2   5   18.09    0.29
   0  -2  -5   10.52    0.17
   0   2   5   10.59    0.25
  -1  -2  -5    5.60    0.51
   1   2   5    6.09    0.51
  -2  -2  -5  164.02    1.79
   2   2   5  162.66    2.06
  -3  -2  -5   12.14    0.18
   3   2   5   12.08    0.18
  -4  -2  -5   27.52    0.42
   4   2   5   27.36    0.30
  -5  -2  -5   45.70    0.66
   5   2   5   47.61    0.49
  -6  -2  -5    0.68    0.22
   6   2   5    0.68    0.08
  -7  -2  -5    8.06    0.73
   7   2   5    8.19    0.25
  -8  -2  -5    2.95    0.51
   8   2   5    4.94    0.23
  -9  -2  -5    1.98    0.34
   9   2   5    1.89    0.20
   7  -3  -5    0.00    0.47
  -7   3   5    1.41    0.44
   6  -3  -5    0.13    0.14
  -6   3   5    0.23    0.12
   5  -3  -5    0.00    0.66
  -5   3   5    0.44    0.33
   4  -3  -5    5.99    0.53
  -4   3   5    4.67    0.39
   3  -3  -5   57.86    0.67
  -3   3   5   57.66    0.59
   2  -3  -5    2.73    0.15
  -2   3   5    2.83    0.15
   1  -3  -5   10.28    0.30
  -1   3   5   10.76    0.31
   0  -3  -5  101.66    0.92
   0   3   5  103.12    0.96
  -1  -3  -5   24.75    0.32
   1   3   5   24.65    0.32
  -2  -3  -5    1.29    0.10
   2   3   5    1.31    0.12
  -3  -3  -5   63.34    0.68
   3   3   5   62.00    0.54
  -4  -3  -5   37.72    0.39
   4   3   5   37.28    0.35
  -5  -3  -5    2.54    0.20
   5   3   5    2.48    0.17
  -6  -3  -5   34.73    0.91
   6   3   5   35.87    0.38
  -7  -3  -5    6.11    0.37
   7   3   5    5.58    0.17
  -8  -3  -5   68.17    1.64
   8   3   5   68.19    0.82
  -9  -3  -5    0.00    0.75
   9   3   5    1.54    0.46
   6  -4  -5    0.54    0.25
  -6   4   5    0.33    0.32
   5  -4  -5    0.76    0.17
  -5   4   5    0.32    0.17
   4  -4  -5    1.78    0.71
  -4   4   5    0.79    0.54
   3  -4  -5   16.82    0.41
  -3   4   5   18.05    0.67
   2  -4  -5    7.82    0.21
  -2   4   5    7.46    0.25
   1  -4  -5    8.24    0.23
  -1   4   5    8.50    0.25
   0  -4  -5   17.82    0.39
   0   4   5   18.33    0.36
  -1  -4  -5    0.20    0.06
   1   4   5    0.20    0.06
  -2  -4  -5    2.64    0.11
   2   4   5    2.85    0.11
  -3  -4  -5    0.22    0.24
   3   4   5    0.75    0.37
  -4  -4  -5    4.71    0.14
   4   4   5    4.75    0.13
  -5  -4  -5    0.14    0.07
   5   4   5    0.22    0.07
  -6  -4  -5    8.25    0.22
   6   4   5    8.61    0.23
  -7  -4  -5   46.36    1.09
   7   4   5   45.16    0.46
  -8  -4  -5    9.35    0.43
   8   4   5    9.09    0.22
  -9  -4  -5    0.00    0.55
   9   4   5    0.89    0.43
   6  -5  -5    7.22    0.50
  -6   5   5    5.57    0.55
   5  -5  -5    0.07    0.20
  -5   5   5    0.28    0.16
   4  -5  -5    0.31    0.16
  -4   5   5    0.48    0.24
   3  -5  -5    1.22    0.22
  -3   5   5    1.55    0.20
   2  -5  -5    0.17    0.12
  -2   5   5    0.14    0.12
   1  -5  -5    0.44    0.10
  -1   5   5    0.34    0.10
   0  -5  -5   37.72    0.76
   0   5   5   38.38    0.58
  -1  -5  -5   13.57    0.30
   1   5   5   13.44    0.23
  -2  -5  -5   47.93    0.55
   2   5   5   48.24    0.50
  -3  -5  -5   56.85    0.75
   3   5   5   58.46    0.81
  -4  -5  -5   20.36    0.36
   4   5   5   20.68    0.32
  -5  -5  -5   15.87    0.25
   5   5   5   15.36    0.26
  -6  -5  -5    2.36    0.15
   6   5   5    2.66    0.17
  -7  -5  -5   10.19    0.57
   7   5   5    9.95    0.65
  -8  -5  -5    2.76    0.25
   8   5   5    3.07    0.16
  -9  -5  -5    6.44    0.54
   9   5   5    5.57    0.26
   5  -6  -5    1.62    0.48
  -5   6   5    1.62    0.42
   4  -6  -5    6.82    0.31
  -4   6   5    6.71    0.29
   3  -6  -5    0.00    0.21
  -3   6   5    0.24    0.26
   2  -6  -5   26.03    0.70
  -2   6   5   25.22    0.65
   1  -6  -5    8.54    0.29
  -1   6   5    8.41    0.28
   0  -6  -5    1.12    0.12
   0   6   5    1.09    0.10
  -1  -6  -5    0.13    0.17
   1   6   5    0.11    0.16
  -2  -6  -5   46.74    0.60
   2   6   5   46.57    0.51
  -3  -6  -5   26.00    0.37
   3   6   5   26.15    0.39
  -4  -6  -5    9.84    0.31
   4   6   5    9.27    0.33
  -5  -6  -5    0.19    0.11
   5   6   5    0.25    0.10
  -6  -6  -5  115.40    1.05
   6   6   5  115.11    1.00
  -7  -6  -5    0.87    0.40
   7   6   5    1.55    0.26
  -8  -6  -5    0.28    0.29
   8   6   5    0.57    0.35
  -9  -6  -5    1.10    0.25
   9   6   5    0.76    0.13
   4  -7  -5   16.25    0.66
  -4   7   5   17.00    0.57
   3  -7  -5    0.44    0.21
  -3   7   5    0.33    0.19
   2  -7  -5   11.19    0.66
  -2   7   5   10.68    0.99
   1  -7  -5   11.43    0.59
  -1   7   5   11.24    0.51
   0  -7  -5   30.53    0.48
   0   7   5   30.26    0.48
  -1  -7  -5   15.36    0.41
   1   7   5   15.10    0.34
  -2  -7  -5   18.01    0.52
   2   7   5   18.02    0.38
  -3  -7  -5    4.47    0.21
   3   7   5    4.43    0.22
  -4  -7  -5   19.45    0.30
   4   7   5   19.39    0.34
  -5  -7  -5   45.21    0.79
   5   7   5   45.55    0.65
  -6  -7  -5    0.54    0.15
   6   7   5    0.53    0.12
  -7  -7  -5    0.20    0.13
   7   7   5    0.11    0.12
  -8  -7  -5    1.57    0.27
   8   7   5    1.82    0.29
  -9  -7  -5    0.00    0.32
   9   7   5    0.02    0.34
   3  -8  -5    3.26    0.32
  -3   8   5    3.04    0.23
   2  -8  -5    2.78    0.23
  -2   8   5    3.04    0.24
   1  -8  -5   41.84    0.80
  -1   8   5   43.24    0.98
   0  -8  -5    6.13    0.32
   0   8   5    5.77    0.28
  -1  -8  -5   59.54    0.93
   1   8   5   59.95    0.75
  -2  -8  -5    5.22    0.61
   2   8   5    4.58    0.56
  -3  -8  -5   54.27    1.04
   3   8   5   59.84    1.08
  -4  -8  -5    9.14    0.27
   4   8   5    8.80    0.27
  -5  -8  -5    5.43    0.42
   5   8   5    6.16    0.42
  -6  -8  -5    2.84    0.63
   6   8   5    1.82    0.59
  -7  -8  -5    0.51    0.16
   7   8   5    0.68    0.16
  -8  -8  -5    0.30    0.28
   8   8   5    0.32    0.57
  -9  -8  -5    9.12    0.42
   9   8   5    8.71    0.45
   2  -9  -5    0.60    0.24
  -2   9   5    0.80    0.21
   1  -9  -5    7.97    0.54
  -1   9   5    5.89    0.55
   0  -9  -5   10.87    0.52
   0   9   5   10.69    0.59
  -1  -9  -5    0.49    0.19
   1   9   5    0.16    0.18
  -2  -9  -5    0.20    0.16
   2   9   5    0.09    0.16
  -3  -9  -5    0.30    0.34
   3   9   5    0.57    0.30
  -4  -9  -5    9.68    0.39
   4   9   5    9.80    0.36
  -5  -9  -5   12.98    0.28
   5   9   5   13.13    0.37
  -6  -9  -5   15.33    0.51
   6   9   5   16.90    0.54
  -7  -9  -5    1.76    0.44
   7   9   5    2.20    0.48
  -8  -9  -5    0.70    0.19
   8   9   5    0.89    0.24
   0 -10  -5    6.29    0.63
   0  10   5    7.75    0.71
  -1 -10  -5    9.25    0.58
   1  10   5    9.14    0.61
  -2 -10  -5    5.04    0.27
   2  10   5    5.42    0.33
  -3 -10  -5    5.19    0.39
   3  10   5   10.94    1.23
  -4 -10  -5    2.21    0.50
   4  10   5    1.77    0.58
  -5 -10  -5   15.42    0.35
   5  10   5   15.73    0.44
  -6 -10  -5    4.32    0.33
   6  10   5    4.10    0.38
  -7 -10  -5    0.10    0.23
   7  10   5    1.00    0.30
  -3 -11  -5    0.44    0.22
   3  11   5    0.35    0.30
  -4 -11  -5    7.59    0.76
   4  11   5    6.82    0.89
   4   7  -6    0.31    0.30
  -4  -7   6    0.10    0.22
   3   7  -6    6.64    0.31
  -3  -7   6    6.94    0.29
   2   7  -6   10.81    0.58
  -2  -7   6    9.88    0.58
   1   7  -6    0.52    1.12
  -1  -7   6    0.00    0.71
   0   7  -6   12.93    0.54
   0  -7   6   12.36    0.45
  -1   7  -6    0.83    2.96
   1  -7   6    0.00    0.86
   5   6  -6   24.43    0.60
  -5  -6   6   22.91    0.68
   4   6  -6    1.47    0.39
  -4  -6   6    0.80    0.33
   3   6  -6   24.69    0.47
  -3  -6   6   23.84    0.43
   2   6  -6    5.19    0.41
  -2  -6   6    3.57    0.32
   1   6  -6    0.47    0.23
  -1  -6   6    0.06    0.29
   0   6  -6    2.10    0.35
   0  -6   6    0.86    0.33
  -1   6  -6    6.96    0.38
   1  -6   6    7.79    0.36
  -2   6  -6   13.07    0.62
   2  -6   6   13.07    0.63
  -3   6  -6    4.38    1.31
   3  -6   6    2.00    0.71
   6   5  -6    2.65    0.83
  -6  -5   6    1.65    0.51
   5   5  -6    0.30    0.17
  -5  -5   6    0.39    0.11
   4   5  -6    6.48    0.34
  -4  -5   6    6.58    0.43
   3   5  -6   19.63    0.62
  -3  -5   6   20.60    0.63
   2   5  -6    1.62    0.19
  -2  -5   6    1.31    0.19
   1   5  -6    3.31    0.41
  -1  -5   6    2.57    0.46
   0   5  -6   25.34    0.66
   0  -5   6   26.66    0.93
  -1   5  -6    2.61    0.25
   1  -5   6    2.82    0.21
  -2   5  -6    5.04    0.39
   2  -5   6    4.76    0.33
  -3   5  -6    7.44    0.67
   3  -5   6    8.48    0.41
  -4   5  -6    0.08    0.29
   4  -5   6    0.45    0.19
   7   4  -6    0.00    0.77
  -7  -4   6    0.33    0.56
   6   4  -6    0.97    0.40
  -6  -4   6    0.30    0.30
   5   4  -6    1.02    0.32
  -5  -4   6    1.20    0.14
   4   4  -6    0.67    0.19
  -4  -4   6    0.68    0.16
   3   4  -6   14.36    0.41
  -3  -4   6   13.42    0.49
   2   4  -6   39.86    0.78
  -2  -4   6   40.77    0.94
   1   4  -6    2.41    0.18
  -1  -4   6    2.06    0.18
   0   4  -6   43.79    0.73
   0  -4   6   45.98    0.76
  -1   4  -6   19.23    0.74
   1  -4   6   20.11    0.63
  -2   4  -6   19.62    0.46
   2  -4   6   19.72    0.37
  -3   4  -6    3.17    0.81
   3  -4   6    0.46    0.37
  -4   4  -6    0.83    0.51
   4  -4   6    2.04    0.32
  -5   4  -6    8.28    0.42
   5  -4   6    9.11    0.31
   7   3  -6    0.09    0.23
  -7  -3   6    0.43    0.18
   6   3  -6    1.79    0.55
  -6  -3   6    1.40    0.39
   5   3  -6    0.00    0.34
  -5  -3   6    0.00    0.23
   4   3  -6    0.13    0.12
  -4  -3   6    0.27    0.16
   3   3  -6   37.42    0.68
  -3  -3   6   36.00    1.04
   2   3  -6    4.79    0.24
  -2  -3   6    4.96    0.33
   1   3  -6    8.15    0.27
  -1  -3   6    7.64    0.26
   0   3  -6   10.50    0.28
   0  -3   6   10.45    0.26
  -1   3  -6   46.41    0.85
   1  -3   6   48.14    0.81
  -2   3  -6   33.54    0.77
   2  -3   6   33.46    0.90
  -3   3  -6    6.76    0.27
   3  -3   6    6.51    0.23
  -4   3  -6   10.12    0.43
   4  -3   6    9.75    0.36
  -5   3  -6    2.30    1.26
   5  -3   6    3.03    0.34
  -6   3  -6    5.42    0.30
   6  -3   6    6.05    0.26
   7   2  -6    1.04    0.43
  -7  -2   6    1.63    0.55
   6   2  -6    0.53    0.17
  -6  -2   6    0.32    0.15
   5   2  -6   27.38    0.69
  -5  -2   6   27.69    0.65
   4   2  -6    1.65    0.52
  -4  -2   6    0.00    0.60
   3   2  -6    2.87    0.18
  -3  -2   6    2.79    0.17
   2   2  -6   51.65    0.87
  -2  -2   6   51.97    0.72
   1   2  -6    1.53    0.17
  -1  -2   6    1.42    0.23
   0   2  -6    2.36    0.13
   0  -2   6    2.51    0.16
  -1   2  -6   57.32    0.65
   1  -2   6   56.39    0.77
  -2   2  -6    5.14    0.22
   2  -2   6    4.82    0.25
  -3   2  -6   16.51    0.30
   3  -2   6   16.37    0.33
  -4   2  -6   12.32    0.33
   4  -2   6   11.78    0.32
  -5   2  -6    5.33    0.32
   5  -2   6    5.29    0.26
  -6   2  -6    0.00    0.25
   6  -2   6    0.40    0.16
  -7   2  -6    0.47    0.41
   7  -2   6    0.51    0.12
   7   1  -6    2.00    0.44
  -7  -1   6    1.32    0.26
   6   1  -6    2.44    0.23
  -6  -1   6    2.13    0.15
   5   1  -6    0.90    0.16
  -5  -1   6    0.65    0.15
   4   1  -6    1.77    0.29
  -4  -1   6    1.23    0.23
   3   1  -6   12.41    0.35
  -3  -1   6   12.15    0.37
   2   1  -6    0.82    0.11
  -2  -1   6    0.75    0.08
   1   1  -6    4.25    0.43
  -1  -1   6    4.34    0.35
   0   1  -6    1.41    0.41
   0  -1   6    1.15    0.42
  -1   1  -6    0.24    0.07
   1  -1   6    0.23    0.06
  -2   1  -6    0.89    0.21
   2  -1   6    0.25    0.46
  -3   1  -6   33.56    0.54
   3  -1   6   31.92    0.53
  -4   1  -6   69.43    0.83
   4  -1   6   69.21    0.78
  -5   1  -6    3.47    0.46
   5  -1   6    3.18    0.22
  -6   1  -6    0.59    0.21
   6  -1   6    1.38    0.18
  -7   1  -6    9.47    0.76
   7  -1   6    8.01    0.21
  -8   1  -6    3.21    0.83
   8  -1   6    3.21    0.28
   7   0  -6    4.18    0.56
  -7   0   6    2.78    0.34
   6   0  -6    2.11    0.43
  -6   0   6    2.41    0.34
   5   0  -6   33.42    0.56
  -5   0   6   33.19    0.44
   4   0  -6    6.56    0.36
  -4   0   6    5.38    0.38
   3   0  -6    2.61    0.22
  -3   0   6    1.99    0.18
   2   0  -6    0.90    0.12
  -2   0   6    0.94    0.10
   1   0  -6    9.19    0.24
  -1   0   6    9.77    0.23
   0   0  -6   37.47    0.68
   0   0   6   37.29    0.62
  -1   0  -6    1.76    0.13
   1   0   6    1.89    0.14
  -2   0  -6   30.27    0.41
   2   0   6   29.85    0.40
  -3   0  -6   65.58    1.55
   3   0   6   67.08    1.59
  -4   0  -6   13.03    0.38
   4   0   6   12.38    0.30
  -5   0  -6    5.86    0.20
   5   0   6    5.66    0.16
  -6   0  -6   76.97    1.99
   6   0   6   72.03    0.67
  -7   0  -6   11.87    1.46
   7   0   6   12.32    0.41
  -8   0  -6    2.21    0.34
   8   0   6    2.34    0.17
   7  -1  -6    0.61    0.23
  -7   1   6    1.06    0.15
   6  -1  -6   10.75    0.45
  -6   1   6   11.05    0.33
   5  -1  -6   33.64    0.82
  -5   1   6   35.33    0.68
   4  -1  -6   14.50    0.39
  -4   1   6   14.78    0.26
   3  -1  -6    3.39    0.43
  -3   1   6    3.92    0.38
   2  -1  -6    8.90    0.30
  -2   1   6    9.30    0.27
   1  -1  -6    8.77    0.19
  -1   1   6    8.88    0.20
   0  -1  -6   98.78    1.27
   0   1   6   99.02    1.22
  -1  -1  -6   49.52    1.54
   1   1   6   53.94    0.80
  -2  -1  -6   56.70    0.62
   2   1   6   57.07    0.57
  -3  -1  -6   57.66    0.81
   3   1   6   57.59    0.80
  -4  -1  -6   37.47    0.52
   4   1   6   36.93    0.49
  -5  -1  -6    1.65    0.14
   5   1   6    1.71    0.11
  -6  -1  -6    2.08    0.23
   6   1   6    2.15    0.09
  -7  -1  -6    1.00    0.46
   7   1   6    0.80    0.23
  -8  -1  -6    6.69    1.47
   8   1   6    7.02    0.58
  -9  -1  -6    0.37    0.36
   9   1   6    0.46    0.19
   7  -2  -6    2.65    0.36
  -7   2   6    2.20    0.17
   6  -2  -6    4.62    0.41
  -6   2   6    4.50    0.26
   5  -2  -6    0.00    0.25
  -5   2   6    0.15    0.27
   4  -2  -6   45.55    0.63
  -4   2   6   45.15    0.54
   3  -2  -6   90.77    0.90
  -3   2   6   90.34    0.90
   2  -2  -6    8.40    0.71
  -2   2   6    8.24    0.74
   1  -2  -6    7.36    0.19
  -1   2   6    7.27    0.22
   0  -2  -6   49.28    0.51
   0   2   6   48.93    0.59
  -1  -2  -6   15.43    0.52
   1   2   6   16.10    0.53
  -2  -2  -6    6.76    0.33
   2   2   6    6.63    0.38
  -3  -2  -6   38.70    0.46
   3   2   6   38.10    0.48
  -4  -2  -6   50.57    0.83
   4   2   6   51.31    0.66
  -5  -2  -6    0.00    0.26
   5   2   6    0.07    0.15
  -6  -2  -6    2.48    0.29
   6   2   6    2.08    0.10
  -7  -2  -6   16.34    0.83
   7   2   6   16.80    0.34
  -8  -2  -6    3.51    0.48
   8   2   6    3.24    0.24
  -9  -2  -6    0.39    0.32
   9   2   6    1.02    0.20
   6  -3  -6    1.82    0.17
  -6   3   6    1.60    0.16
   5  -3  -6    3.45    0.44
  -5   3   6    3.47    0.39
   4  -3  -6   70.10    2.34
  -4   3   6   69.43    0.93
   3  -3  -6   18.93    0.37
  -3   3   6   18.44    0.35
   2  -3  -6    2.94    0.18
  -2   3   6    3.10    0.16
   1  -3  -6    0.00    0.18
  -1   3   6    0.11    0.23
   0  -3  -6    2.27    0.11
   0   3   6    2.25    0.13
  -1  -3  -6   18.32    0.28
   1   3   6   18.27    0.29
  -2  -3  -6    1.21    0.15
   2   3   6    1.24    0.17
  -3  -3  -6   97.32    1.08
   3   3   6   97.03    0.94
  -4  -3  -6    9.66    0.17
   4   3   6    9.46    0.15
  -5  -3  -6   22.37    0.34
   5   3   6   22.03    0.33
  -6  -3  -6   55.31    0.93
   6   3   6   55.55    0.65
  -7  -3  -6   42.40    0.93
   7   3   6   42.26    0.47
  -8  -3  -6    0.28    0.70
   8   3   6    1.59    0.34
  -9  -3  -6    1.28    0.80
   9   3   6    0.72    0.36
   6  -4  -6    0.88    0.39
  -6   4   6    0.28    0.34
   5  -4  -6    0.16    0.16
  -5   4   6    0.16    0.12
   4  -4  -6    2.62    0.41
  -4   4   6    1.18    0.38
   3  -4  -6    7.51    0.37
  -3   4   6    8.26    0.41
   2  -4  -6    1.37    0.12
  -2   4   6    1.41    0.13
   1  -4  -6    0.95    0.45
  -1   4   6    1.58    0.43
   0  -4  -6  137.54    1.34
   0   4   6  139.22    1.42
  -1  -4  -6    4.17    0.15
   1   4   6    4.38    0.15
  -2  -4  -6   37.46    0.46
   2   4   6   37.49    0.50
  -3  -4  -6    5.01    0.21
   3   4   6    4.45    0.24
  -4  -4  -6   70.89    0.70
   4   4   6   71.31    0.64
  -5  -4  -6   37.05    0.43
   5   4   6   37.36    0.40
  -6  -4  -6    0.16    0.17
   6   4   6    0.00    0.17
  -7  -4  -6    0.83    0.43
   7   4   6    1.23    0.11
  -8  -4  -6    0.58    0.26
   8   4   6    0.87    0.12
  -9  -4  -6   34.13    1.43
   9   4   6   35.62    0.68
   5  -5  -6   25.78    0.54
  -5   5   6   25.92    0.50
   4  -5  -6    2.44    0.23
  -4   5   6    2.41    0.26
   3  -5  -6    2.78    0.41
  -3   5   6    3.16    0.40
   2  -5  -6   10.75    0.28
  -2   5   6   10.40    0.36
   1  -5  -6    0.18    0.09
  -1   5   6    0.35    0.11
   0  -5  -6    1.44    0.25
   0   5   6    1.52    0.20
  -1  -5  -6  166.66    1.63
   1   5   6  167.07    1.53
  -2  -5  -6   13.18    0.23
   2   5   6   13.49    0.24
  -3  -5  -6   51.58    0.62
   3   5   6   51.67    0.63
  -4  -5  -6   32.79    0.49
   4   5   6   32.27    0.48
  -5  -5  -6    1.99    0.12
   5   5   6    2.02    0.14
  -6  -5  -6   10.49    0.28
   6   5   6   10.05    0.26
  -7  -5  -6    0.45    0.21
   7   5   6    1.30    0.20
  -8  -5  -6    0.30    0.21
   8   5   6    0.48    0.12
  -9  -5  -6    5.97    0.61
   9   5   6    5.41    0.31
   5  -6  -6    0.71    0.53
  -5   6   6    0.00    0.70
   4  -6  -6    4.37    0.24
  -4   6   6    4.83    0.29
   3  -6  -6    6.89    0.36
  -3   6   6    6.74    0.51
   2  -6  -6    0.24    0.41
  -2   6   6    0.00    0.68
   1  -6  -6    0.15    0.13
  -1   6   6    0.07    0.13
   0  -6  -6    1.88    0.16
   0   6   6    1.81    0.13
  -1  -6  -6    1.95    0.21
   1   6   6    1.95    0.17
  -2  -6  -6   42.11    0.53
   2   6   6   42.24    0.51
  -3  -6  -6    1.56    0.11
   3   6   6    1.91    0.13
  -4  -6  -6   13.39    0.36
   4   6   6   14.23    0.42
  -5  -6  -6    1.11    0.17
   5   6   6    0.76    0.13
  -6  -6  -6    2.05    0.13
   6   6   6    2.27    0.14
  -7  -6  -6    7.80    0.32
   7   6   6    7.16    0.35
  -8  -6  -6    7.98    0.30
   8   6   6    8.76    0.40
  -9  -6  -6    0.61    0.26
   9   6   6    0.41    0.14
   4  -7  -6    0.65    0.49
  -4   7   6    0.00    0.57
   3  -7  -6    1.13    0.22
  -3   7   6    1.63    0.20
   2  -7  -6    0.50    0.39
  -2   7   6    1.41    0.42
   1  -7  -6    8.72    0.68
  -1   7   6    7.92    0.72
   0  -7  -6    0.53    0.14
   0   7   6    0.46    0.14
  -1  -7  -6    3.49    0.29
   1   7   6    3.93    0.27
  -2  -7  -6    2.22    0.39
   2   7   6    1.49    0.29
  -3  -7  -6   60.24    0.72
   3   7   6   60.86    0.67
  -4  -7  -6    6.15    0.22
   4   7   6    6.40    0.24
  -5  -7  -6    4.48    0.26
   5   7   6    5.16    0.30
  -6  -7  -6   70.34    0.79
   6   7   6   70.39    0.74
  -7  -7  -6    0.54    0.15
   7   7   6    0.33    0.13
  -8  -7  -6    6.65    0.35
   8   7   6    8.17    0.39
  -9  -7  -6   22.48    0.85
   9   7   6   21.30    0.74
   3  -8  -6   20.62    0.54
  -3   8   6   20.85    0.55
   2  -8  -6    5.60    0.30
  -2   8   6    5.65    0.30
   1  -8  -6    0.92    2.05
  -1   8   6    0.55    0.82
   0  -8  -6    6.89    0.33
   0   8   6    5.96    0.32
  -1  -8  -6    5.01    0.28
   1   8   6    5.51    0.27
  -2  -8  -6    8.30    0.48
   2   8   6    8.23    0.51
  -3  -8  -6   25.18    0.63
   3   8   6   25.89    0.54
  -4  -8  -6    7.15    0.19
   4   8   6    7.75    0.31
  -5  -8  -6    6.25    0.40
   5   8   6    6.06    0.55
  -6  -8  -6    0.01    0.44
   6   8   6    0.00    0.54
  -7  -8  -6    0.69    0.17
   7   8   6    0.56    0.16
  -8  -8  -6    8.52    0.45
   8   8   6    9.41    0.48
  -9  -8  -6    2.01    0.35
   9   8   6    1.24    0.42
   2  -9  -6    2.24    0.32
  -2   9   6    2.49    0.33
   1  -9  -6    7.61    0.62
  -1   9   6    8.62    0.60
   0  -9  -6    2.79    0.36
   0   9   6    4.25    0.60
  -1  -9  -6    8.49    0.34
   1   9   6    8.84    0.36
  -2  -9  -6    1.36    0.18
   2   9   6    1.35    0.19
  -3  -9  -6    0.70    0.48
   3   9   6    0.00    0.36
  -4  -9  -6    0.13    0.16
   4   9   6    0.04    0.19
  -5  -9  -6    6.17    0.31
   5   9   6    6.45    0.28
  -6  -9  -6    1.12    0.49
   6   9   6    2.33    0.58
  -7  -9  -6    0.39    0.48
   7   9   6    2.74    0.48
  -8  -9  -6    0.51    0.20
   8   9   6    0.21    0.20
   0 -10  -6   20.57    0.91
   0  10   6   22.59    1.11
  -1 -10  -6   24.43    0.71
   1  10   6   20.47    0.74
  -2 -10  -6    0.95    0.21
   2  10   6    0.59    0.23
  -3 -10  -6    5.46    0.51
   3  10   6    5.78    0.78
  -4 -10  -6    3.26    0.44
   4  10   6    3.84    0.62
  -5 -10  -6    0.64    0.13
   5  10   6    0.94    0.27
  -6 -10  -6    1.21    0.29
   6  10   6    0.51    0.25
  -7 -10  -6    1.71    0.26
   7  10   6    2.22    0.27
  -3 -11  -6    1.24    0.26
   3  11   6    1.53    0.40
  -4 -11  -6    1.14    0.74
   4  11   6    2.37    0.91
   4   6  -7    8.13    0.46
  -4  -6   7    8.08    0.43
   3   6  -7    0.26    0.26
  -3  -6   7    0.57    0.19
   2   6  -7   40.65    0.85
  -2  -6   7   40.33    0.71
   1   6  -7    0.45    0.35
  -1  -6   7    0.33    0.28
   0   6  -7    1.06    0.44
   0  -6   7    0.98    0.43
  -1   6  -7   14.84    0.54
   1  -6   7   14.62    0.50
  -2   6  -7    3.54    0.93
   2  -6   7    2.74    0.73
   5   5  -7    1.98    0.22
  -5  -5   7    2.09    0.21
   4   5  -7   10.44    0.43
  -4  -5   7   11.95    0.55
   3   5  -7   17.42    0.54
  -3  -5   7   16.28    0.58
   2   5  -7   11.24    0.36
  -2  -5   7   11.07    0.37
   1   5  -7    2.58    0.39
  -1  -5   7    1.29    1.13
   0   5  -7    0.47    0.37
   0  -5   7    0.00    0.41
  -1   5  -7    5.95    0.34
   1  -5   7    5.78    0.28
  -2   5  -7    0.30    0.24
   2  -5   7    0.26    0.26
  -3   5  -7    6.02    0.46
   3  -5   7    5.16    0.37
  -4   5  -7    0.42    0.29
   4  -5   7    0.27    0.23
   6   4  -7    2.36    0.47
  -6  -4   7    2.15    0.45
   5   4  -7    0.45    0.60
  -5  -4   7    0.00    0.49
   4   4  -7    0.50    0.17
  -4  -4   7    0.24    0.12
   3   4  -7    0.73    0.32
  -3  -4   7    0.70    0.50
   2   4  -7    0.00    0.50
  -2  -4   7    0.00    0.83
   1   4  -7   15.47    0.40
  -1  -4   7   15.58    0.42
   0   4  -7    5.78    0.34
   0  -4   7    6.35    0.48
  -1   4  -7    5.64    0.70
   1  -4   7    6.29    0.49
  -2   4  -7    4.46    0.26
   2  -4   7    3.93    0.23
  -3   4  -7    4.45    0.63
   3  -4   7    3.69    0.36
  -4   4  -7    0.90    0.45
   4  -4   7    0.40    0.37
  -5   4  -7   19.56    0.61
   5  -4   7   20.01    0.41
   6   3  -7    0.90    0.57
  -6  -3   7    2.47    0.61
   5   3  -7   12.92    0.61
  -5  -3   7   12.48    0.37
   4   3  -7   12.24    0.41
  -4  -3   7   11.82    0.44
   3   3  -7    0.77    3.65
  -3  -3   7    0.00    0.87
   2   3  -7    0.93    0.21
  -2  -3   7    0.90    0.46
   1   3  -7   29.92    0.53
  -1  -3   7   31.08    0.56
   0   3  -7    2.05    0.18
   0  -3   7    1.77    0.15
  -1   3  -7    0.18    0.44
   1  -3   7    0.98    0.54
  -2   3  -7    1.59    0.33
   2  -3   7    1.26    0.43
  -3   3  -7   11.11    0.36
   3  -3   7   10.50    0.29
  -4   3  -7    0.00    0.52
   4  -3   7    0.61    0.27
  -5   3  -7    5.89    0.74
   5  -3   7    6.37    0.65
  -6   3  -7    2.96    0.35
   6  -3   7    3.05    0.22
   7   2  -7    3.48    0.33
  -7  -2   7    3.03    0.27
   6   2  -7    2.80    0.26
  -6  -2   7    2.40    0.18
   5   2  -7    0.35    0.35
  -5  -2   7    0.41    0.31
   4   2  -7    1.28    0.65
  -4  -2   7    2.81    0.48
   3   2  -7   42.62    0.60
  -3  -2   7   42.47    0.67
   2   2  -7   31.39    0.59
  -2  -2   7   30.29    0.57
   1   2  -7    0.40    0.21
  -1  -2   7    0.80    0.23
   0   2  -7   11.63    0.25
   0  -2   7   12.07    0.27
  -1   2  -7    0.00    0.15
   1  -2   7    0.11    0.18
  -2   2  -7    9.86    0.39
   2  -2   7    9.47    0.40
  -3   2  -7    2.47    0.17
   3  -2   7    2.33    0.21
  -4   2  -7    1.19    0.20
   4  -2   7    1.14    0.24
  -5   2  -7    1.86    0.36
   5  -2   7    2.60    0.42
  -6   2  -7    0.01   19.47
   6  -2   7    0.04    0.35
  -7   2  -7    2.70    0.48
   7  -2   7    3.00    0.19
   7   1  -7    0.79    0.47
  -7  -1   7    0.52    0.31
   6   1  -7    2.26    0.23
  -6  -1   7    2.77    0.19
   5   1  -7    1.24    0.19
  -5  -1   7    1.06    0.20
   4   1  -7    9.27    0.91
  -4  -1   7    7.43    0.60
   3   1  -7    2.76    0.53
  -3  -1   7    2.21    0.39
   2   1  -7    4.33    0.21
  -2  -1   7    4.34    0.16
   1   1  -7    3.12    0.27
  -1  -1   7    3.13    0.24
   0   1  -7    0.00    0.19
   0  -1   7    0.08    0.18
  -1   1  -7   21.61    0.34
   1  -1   7   21.80    0.32
  -2   1  -7    6.19    0.37
   2  -1   7    5.65    0.42
  -3   1  -7   39.25    0.64
   3  -1   7   38.04    0.61
  -4   1  -7  174.05    1.79
   4  -1   7  172.15    1.56
  -5   1  -7    3.39    0.73
   5  -1   7    2.92    0.51
  -6   1  -7    0.56    0.40
   6  -1   7    0.52    0.27
  -7   1  -7    4.78    0.47
   7  -1   7    5.54    0.19
   7   0  -7    6.34    0.54
  -7   0   7    6.89    0.39
   6   0  -7    1.12    0.42
  -6   0   7    1.73    0.41
   5   0  -7    0.99    0.18
  -5   0   7    1.35    0.15
   4   0  -7    1.55    0.69
  -4   0   7    2.12    0.46
   3   0  -7    5.85    0.49
  -3   0   7    6.22    0.47
   2   0  -7    2.00    0.15
  -2   0   7    2.01    0.14
   1   0  -7   27.45    0.53
  -1   0   7   27.52    0.48
   0   0  -7    3.90    0.19
   0   0   7    4.16    0.17
  -1   0  -7   19.11    0.42
   1   0   7   19.76    0.45
  -2   0  -7   75.35    0.86
   2   0   7   75.56    0.81
  -3   0  -7    0.00    0.18
   3   0   7    0.08    0.19
  -4   0  -7    3.90    0.29
   4   0   7    4.13    0.35
  -5   0  -7   67.55    0.90
   5   0   7   67.05    0.69
  -6   0  -7    6.68    0.32
   6   0   7    6.85    0.26
  -7   0  -7    0.57    2.51
   7   0   7    0.69    0.27
  -8   0  -7    0.17    0.38
   8   0   7    0.50    0.21
   7  -1  -7    0.46    0.25
  -7   1   7    0.60    0.20
   6  -1  -7    1.34    0.37
  -6   1   7    1.39    0.30
   5  -1  -7   15.77    0.67
  -5   1   7   16.59    0.61
   4  -1  -7   87.90    1.12
  -4   1   7   89.26    1.00
   3  -1  -7    0.00    0.64
  -3   1   7    0.78    0.44
   2  -1  -7   14.22    0.55
  -2   1   7   14.71    0.40
   1  -1  -7    4.24    0.22
  -1   1   7    3.79    0.16
   0  -1  -7   55.26    0.88
   0   1   7   55.46    0.68
  -1  -1  -7   44.10    0.82
   1   1   7   45.89    0.58
  -2  -1  -7    0.08    0.06
   2   1   7    0.08    0.08
  -3  -1  -7    0.41    0.22
   3   1   7    0.63    0.15
  -4  -1  -7   10.09    0.24
   4   1   7   10.29    0.26
  -5  -1  -7    5.05    0.29
   5   1   7    4.92    0.20
  -6  -1  -7    2.54    0.18
   6   1   7    2.56    0.14
  -7  -1  -7    1.76    0.49
   7   1   7    2.71    0.21
  -8  -1  -7    2.48    1.39
   8   1   7    0.19    0.22
   6  -2  -7    1.03    7.21
  -6   2   7    4.65    0.47
   5  -2  -7   17.17    0.55
  -5   2   7   18.16    0.41
   4  -2  -7   27.40    0.61
  -4   2   7   27.60    0.50
   3  -2  -7    1.10    0.13
  -3   2   7    0.79    0.12
   2  -2  -7    3.21    0.18
  -2   2   7    3.88    0.22
   1  -2  -7    0.12    0.09
  -1   2   7    0.34    0.19
   0  -2  -7    3.40    0.14
   0   2   7    3.27    0.18
  -1  -2  -7    5.76    0.35
   1   2   7    6.17    0.40
  -2  -2  -7    5.31    0.17
   2   2   7    5.53    0.23
  -3  -2  -7    5.14    0.18
   3   2   7    5.26    0.17
  -4  -2  -7    6.65    0.34
   4   2   7    5.70    0.26
  -5  -2  -7   25.33    0.51
   5   2   7   25.87    0.44
  -6  -2  -7    0.05    0.10
   6   2   7    0.07    0.08
  -7  -2  -7    0.00    0.57
   7   2   7    0.70    0.11
  -8  -2  -7    3.97    0.61
   8   2   7    5.40    0.27
  -9  -2  -7    7.93    0.58
   9   2   7    8.05    0.30
   6  -3  -7    0.35    0.21
  -6   3   7    0.57    0.16
   5  -3  -7    0.00    0.15
  -5   3   7    0.11    0.35
   4  -3  -7    0.59    0.28
  -4   3   7    1.47    0.34
   3  -3  -7    2.46    0.15
  -3   3   7    2.02    0.16
   2  -3  -7   22.52    0.38
  -2   3   7   22.94    0.41
   1  -3  -7   16.86    0.37
  -1   3   7   16.82    0.48
   0  -3  -7    0.07    0.07
   0   3   7    0.10    0.08
  -1  -3  -7    5.11    0.17
   1   3   7    5.36    0.20
  -2  -3  -7   22.73    0.38
   2   3   7   22.52    0.43
  -3  -3  -7    6.96    0.18
   3   3   7    7.13    0.21
  -4  -3  -7   20.59    0.28
   4   3   7   20.27    0.28
  -5  -3  -7    7.00    0.28
   5   3   7    7.80    0.21
  -6  -3  -7    0.06    0.25
   6   3   7    0.49    0.13
  -7  -3  -7    0.85    0.23
   7   3   7    0.79    0.08
  -8  -3  -7    0.53    0.66
   8   3   7    1.44    0.34
  -9  -3  -7    1.66    0.77
   9   3   7    1.85    0.36
   6  -4  -7    0.38    0.28
  -6   4   7    0.61    0.18
   5  -4  -7    6.56    0.39
  -5   4   7    7.87    0.29
   4  -4  -7    6.01    0.38
  -4   4   7    4.49    0.33
   3  -4  -7    1.57    0.68
  -3   4   7    2.39    0.40
   2  -4  -7   12.77    0.28
  -2   4   7   12.89    0.29
   1  -4  -7   16.93    0.35
  -1   4   7   15.88    0.39
   0  -4  -7    0.97    0.17
   0   4   7    0.88    0.24
  -1  -4  -7    2.74    0.14
   1   4   7    2.60    0.14
  -2  -4  -7   18.53    0.31
   2   4   7   18.26    0.36
  -3  -4  -7    0.45    0.19
   3   4   7    0.10    0.24
  -4  -4  -7    5.41    0.16
   4   4   7    5.73    0.16
  -5  -4  -7   56.20    0.61
   5   4   7   55.95    0.58
  -6  -4  -7    9.99    0.30
   6   4   7   10.04    0.27
  -7  -4  -7   15.67    0.40
   7   4   7   15.89    0.27
  -8  -4  -7    5.19    0.42
   8   4   7    5.31    0.19
  -9  -4  -7    3.23    0.76
   9   4   7    5.25    0.31
   5  -5  -7    1.55    0.27
  -5   5   7    1.61    0.28
   4  -5  -7    4.16    0.32
  -4   5   7    3.67    0.28
   3  -5  -7    1.80    0.22
  -3   5   7    2.36    0.32
   2  -5  -7    0.66    0.18
  -2   5   7    0.93    0.18
   1  -5  -7    0.23    0.11
  -1   5   7    0.26    0.13
   0  -5  -7   27.32    0.54
   0   5   7   25.82    0.52
  -1  -5  -7    3.45    0.17
   1   5   7    3.38    0.20
  -2  -5  -7    0.11    0.07
   2   5   7    0.22    0.09
  -3  -5  -7    4.27    0.26
   3   5   7    4.12    0.44
  -4  -5  -7    8.79    0.27
   4   5   7    8.54    0.25
  -5  -5  -7    0.11    0.08
   5   5   7    0.07    0.07
  -6  -5  -7    1.63    0.34
   6   5   7    1.43    0.18
  -7  -5  -7    5.09    0.27
   7   5   7    6.01    0.25
  -8  -5  -7    3.54    0.30
   8   5   7    3.58    0.16
  -9  -5  -7   12.60    0.86
   9   5   7   12.95    0.54
   4  -6  -7    0.35    0.20
  -4   6   7    0.71    0.22
   3  -6  -7    1.45    0.32
  -3   6   7    1.13    0.50
   2  -6  -7    3.38    0.47
  -2   6   7    1.55    0.62
   1  -6  -7    5.66    0.30
  -1   6   7    5.97    0.21
   0  -6  -7    0.87    0.17
   0   6   7    1.02    0.12
  -1  -6  -7    0.30    0.38
   1   6   7    0.00    0.39
  -2  -6  -7   20.24    0.34
   2   6   7   20.30    0.33
  -3  -6  -7    3.31    0.15
   3   6   7    3.21    0.14
  -4  -6  -7   70.13    0.90
   4   6   7   71.67    0.78
  -5  -6  -7   33.53    0.63
   5   6   7   33.54    0.57
  -6  -6  -7    1.15    0.11
   6   6   7    1.35    0.13
  -7  -6  -7   16.92    0.43
   7   6   7   16.41    0.45
  -8  -6  -7    1.34    0.40
   8   6   7    0.74    0.32
  -9  -6  -7    3.61    0.34
   9   6   7    3.50    0.21
   4  -7  -7    2.59    0.26
  -4   7   7    2.70    0.38
   3  -7  -7   16.92    0.47
  -3   7   7   16.57    0.49
   2  -7  -7    1.49    0.44
  -2   7   7    2.52    0.70
   1  -7  -7    0.58    0.84
  -1   7   7    0.00    0.67
   0  -7  -7    6.67    0.31
   0   7   7    6.09    0.22
  -1  -7  -7    1.06    0.23
   1   7   7    1.61    0.22
  -2  -7  -7   10.48    0.50
   2   7   7   11.16    0.44
  -3  -7  -7    0.02    0.09
   3   7   7    0.18    0.10
  -4  -7  -7   22.33    0.47
   4   7   7   21.95    0.44
  -5  -7  -7   35.05    0.61
   5   7   7   34.19    0.54
  -6  -7  -7    0.63    0.12
   6   7   7    0.69    0.14
  -7  -7  -7    4.12    0.26
   7   7   7    4.45    0.21
  -8  -7  -7    2.79    0.28
   8   7   7    2.57    0.33
  -9  -7  -7    5.01    0.81
   9   7   7    6.22    0.59
   3  -8  -7    0.70    0.28
  -3   8   7    0.56    0.34
   2  -8  -7   19.93    0.49
  -2   8   7   18.56    0.48
   1  -8  -7   25.25    0.79
  -1   8   7   24.83    0.65
   0  -8  -7    0.20    0.18
   0   8   7    0.12    0.23
  -1  -8  -7    2.03    0.24
   1   8   7    1.44    0.16
  -2  -8  -7    0.13    0.42
   2   8   7    0.14    0.42
  -3  -8  -7   72.61    1.00
   3   8   7   70.93    1.02
  -4  -8  -7    0.26    0.16
   4   8   7    0.34    0.12
  -5  -8  -7    3.93    0.57
   5   8   7    4.62    1.02
  -6  -8  -7    0.09    0.28
   6   8   7    0.60    0.50
  -7  -8  -7    0.28    0.18
   7   8   7    0.64    0.18
  -8  -8  -7    1.64    0.48
   8   8   7    1.36    0.54
   1  -9  -7    3.99    0.75
  -1   9   7    6.57    0.52
   0  -9  -7   11.04    0.66
   0   9   7    8.56    0.77
  -1  -9  -7    7.86    0.34
   1   9   7    7.82    0.33
  -2  -9  -7    7.08    0.35
   2   9   7    7.37    0.29
  -3  -9  -7    0.69    0.28
   3   9   7    0.44    0.30
  -4  -9  -7    1.24    0.18
   4   9   7    1.62    0.21
  -5  -9  -7    0.25    0.14
   5   9   7    0.25    0.19
  -6  -9  -7    2.49    0.44
   6   9   7    3.68    0.44
  -7  -9  -7    1.54    0.58
   7   9   7    1.75    0.51
  -8  -9  -7    2.98    0.24
   8   9   7    3.56    0.27
   0 -10  -7    4.99    1.01
   0  10   7    2.44    0.80
  -1 -10  -7    1.89    0.67
   1  10   7    1.50    0.60
  -2 -10  -7   25.87    0.63
   2  10   7   28.03    0.60
  -3 -10  -7   14.56    0.72
   3  10   7   14.12    0.80
  -4 -10  -7    0.72    0.37
   4  10   7    0.27    0.38
  -5 -10  -7    0.87    0.26
   5  10   7    0.84    0.27
  -6 -10  -7    0.57    0.35
   6  10   7    1.22    0.31
  -7 -10  -7    0.21    0.32
   7  10   7    0.00    0.32
   2   6  -8    9.73    0.52
  -2  -6   8    9.17    0.45
   1   6  -8    8.06    0.57
  -1  -6   8   10.02    0.51
   0   6  -8    0.72    0.48
   0  -6   8    0.24    0.27
   4   5  -8    5.88    1.03
  -4  -5   8    5.68    0.50
   3   5  -8    2.19    0.47
  -3  -5   8    1.56    0.56
   2   5  -8    2.96    0.25
  -2  -5   8    2.68    0.31
   1   5  -8    2.47    0.71
  -1  -5   8    1.56    0.63
   0   5  -8    0.00    0.57
   0  -5   8    1.73    0.54
  -1   5  -8    1.62    0.25
   1  -5   8    1.82    0.21
  -2   5  -8    1.10    0.49
   2  -5   8    0.64    0.37
  -3   5  -8   10.12    0.83
   3  -5   8    5.20    0.63
   5   4  -8    6.81    0.99
  -5  -4   8    4.54    0.79
   4   4  -8    0.22    0.34
  -4  -4   8    0.91    0.33
   3   4  -8    0.80    0.36
  -3  -4   8    1.18    0.53
   2   4  -8    0.05    0.51
  -2  -4   8    0.00    0.56
   1   4  -8    8.50    0.36
  -1  -4   8    7.88    0.37
   0   4  -8   32.90    0.69
   0  -4   8   35.02    0.83
  -1   4  -8   12.40    0.65
   1  -4   8   12.08    0.51
  -2   4  -8    2.88    0.24
   2  -4   8    2.67    0.20
  -3   4  -8    2.38    0.54
   3  -4   8    0.11    0.47
  -4   4  -8    0.00    0.68
   4  -4   8    0.00    0.44
   6   3  -8    0.00    0.90
  -6  -3   8    0.00    0.96
   5   3  -8    0.46    0.59
  -5  -3   8    0.94    0.35
   4   3  -8    0.51    0.35
  -4  -3   8    0.16    0.21
   3   3  -8   20.94    1.34
  -3  -3   8   17.99    0.95
   2   3  -8    4.65    0.30
  -2  -3   8    3.87    0.35
   1   3  -8   15.86    0.59
  -1  -3   8   16.78    0.42
   0   3  -8    9.21    0.31
   0  -3   8    8.24    0.39
  -1   3  -8   41.72    1.05
   1  -3   8   42.19    1.06
  -2   3  -8    4.48    0.42
   2  -3   8    4.27    0.41
  -3   3  -8    0.10    0.21
   3  -3   8    0.01    0.23
  -4   3  -8    5.92    0.63
   4  -3   8    6.10    0.65
  -5   3  -8    5.76    0.61
   5  -3   8    6.64    0.52
   6   2  -8    0.65    0.24
  -6  -2   8    0.36    0.17
   5   2  -8    1.43    0.46
  -5  -2   8    1.16    0.43
   4   2  -8    2.16    0.50
  -4  -2   8    1.41    0.46
   3   2  -8    4.73    0.29
  -3  -2   8    5.67    0.28
   2   2  -8    4.62    0.35
  -2  -2   8    3.48    0.29
   1   2  -8    9.60    0.37
  -1  -2   8    9.41    0.31
   0   2  -8   45.53    0.62
   0  -2   8   45.44    0.58
  -1   2  -8    0.00    0.21
   1  -2   8    0.00    0.44
  -2   2  -8   24.01    0.54
   2  -2   8   24.36    0.70
  -3   2  -8    0.80    0.19
   3  -2   8    0.57    0.13
  -4   2  -8   12.03    0.52
   4  -2   8   12.98    0.38
  -5   2  -8    0.32    0.30
   5  -2   8    0.00    0.25
  -6   2  -8    1.78    0.82
   6  -2   8    2.31    0.57
   6   1  -8    5.24    0.34
  -6  -1   8    5.30    0.27
   5   1  -8    0.38    0.24
  -5  -1   8    0.27    0.18
   4   1  -8    0.00    0.39
  -4  -1   8    1.18    0.32
   3   1  -8    3.66    0.60
  -3  -1   8    0.85    0.52
   2   1  -8    1.05    0.12
  -2  -1   8    0.99    0.10
   1   1  -8    0.53    0.28
  -1  -1   8    1.38    0.32
   0   1  -8   68.22    1.07
   0  -1   8   66.50    0.85
  -1   1  -8   10.81    0.25
   1  -1   8   10.78    0.24
  -2   1  -8   10.72    0.43
   2  -1   8    9.38    0.34
  -3   1  -8  104.59    1.52
   3  -1   8  101.97    1.36
  -4   1  -8   10.02    0.29
   4  -1   8    9.25    0.26
  -5   1  -8   20.82    0.73
   5  -1   8   20.61    0.57
  -6   1  -8    0.46    0.51
   6  -1   8    0.00    0.25
  -7   1  -8    3.81    0.52
   7  -1   8    3.85    0.23
   6   0  -8    5.42    0.64
  -6   0   8    5.79    0.40
   5   0  -8    0.37    0.20
  -5   0   8    0.45    0.14
   4   0  -8    0.91    0.61
  -4   0   8    0.00    1.25
   3   0  -8    3.27    0.87
  -3   0   8    1.30    0.54
   2   0  -8    9.87    0.30
  -2   0   8    9.12    0.28
   1   0  -8    1.71    0.20
  -1   0   8    1.37    0.20
   0   0  -8    8.00    0.29
   0   0   8    8.49    0.25
  -1   0  -8    0.23    0.15
   1   0   8    0.00    0.24
  -2   0  -8    2.57    0.16
   2   0   8    2.64    0.15
  -3   0  -8   35.11    0.63
   3   0   8   35.82    0.57
  -4   0  -8   31.49    0.88
   4   0   8   31.56    0.69
  -5   0  -8    3.82    0.22
   5   0   8    3.71    0.19
  -6   0  -8   12.38    0.43
   6   0   8   12.41    0.34
  -7   0  -8    4.50    0.84
   7   0   8    5.44    0.30
   6  -1  -8   54.98    0.98
  -6   1   8   52.90    0.72
   5  -1  -8    4.62    0.67
  -5   1   8    5.52    0.56
   4  -1  -8    1.41    0.16
  -4   1   8    1.19    0.17
   3  -1  -8    4.60    1.20
  -3   1   8    5.92    0.85
   2  -1  -8   15.44    0.54
  -2   1   8   16.77    0.59
   1  -1  -8    0.26    0.10
  -1   1   8    0.16    0.11
   0  -1  -8    4.52    0.32
   0   1   8    5.16    0.24
  -1  -1  -8   15.35    0.37
   1   1   8   15.72    0.33
  -2  -1  -8    0.12    0.09
   2   1   8    0.05    0.08
  -3  -1  -8    0.00    0.23
   3   1   8    0.01    0.15
  -4  -1  -8    8.78    0.26
   4   1   8    9.40    0.32
  -5  -1  -8   17.56    0.43
   5   1   8   16.99    0.42
  -6  -1  -8    4.20    0.24
   6   1   8    4.82    0.21
  -7  -1  -8    6.68    0.66
   7   1   8    8.85    0.26
  -8  -1  -8    6.19    1.02
   8   1   8    3.83    0.66
   6  -2  -8    8.92    0.63
  -6   2   8    8.93    0.62
   5  -2  -8    6.29    0.45
  -5   2   8    6.27    0.32
   4  -2  -8    0.06    0.17
  -4   2   8    0.19    0.16
   3  -2  -8    0.76    0.16
  -3   2   8    0.25    0.15
   2  -2  -8   12.74    0.38
  -2   2   8   13.04    0.43
   1  -2  -8    1.64    0.14
  -1   2   8    1.25    0.22
   0  -2  -8    2.24    0.14
   0   2   8    2.14    0.16
  -1  -2  -8    2.89    0.28
   1   2   8    3.69    0.22
  -2  -2  -8    4.22    0.49
   2   2   8    5.31    0.47
  -3  -2  -8    2.27    0.12
   3   2   8    2.43    0.14
  -4  -2  -8    0.94    0.37
   4   2   8    0.12    0.38
  -5  -2  -8    0.26    0.28
   5   2   8    0.83    0.25
  -6  -2  -8    3.19    0.22
   6   2   8    3.89    0.21
  -7  -2  -8    0.61    0.56
   7   2   8    0.40    0.14
  -8  -2  -8    0.00    0.55
   8   2   8    1.31    0.28
   6  -3  -8    1.37    0.34
  -6   3   8    1.32    0.26
   5  -3  -8    6.22    0.69
  -5   3   8    6.52    0.50
   4  -3  -8    1.83    0.23
  -4   3   8    1.91    0.33
   3  -3  -8   26.23    0.42
  -3   3   8   25.66    0.50
   2  -3  -8   63.51    0.88
  -2   3   8   63.51    1.02
   1  -3  -8   15.99    0.52
  -1   3   8   15.46    0.61
   0  -3  -8   27.91    0.39
   0   3   8   27.73    0.43
  -1  -3  -8   23.79    0.38
   1   3   8   26.07    0.44
  -2  -3  -8   82.75    1.08
   2   3   8   83.79    1.21
  -3  -3  -8   52.28    0.62
   3   3   8   54.38    0.73
  -4  -3  -8    1.58    0.12
   4   3   8    1.54    0.12
  -5  -3  -8   29.50    0.86
   5   3   8   29.11    0.62
  -6  -3  -8    6.99    0.44
   6   3   8    9.59    0.43
  -7  -3  -8   11.58    0.48
   7   3   8   11.76    0.22
  -8  -3  -8    0.00    0.71
   8   3   8    0.00    0.48
  -9  -3  -8    8.79    0.91
   9   3   8   10.90    0.43
   5  -4  -8    2.58    0.19
  -5   4   8    2.54    0.20
   4  -4  -8    2.31    0.33
  -4   4   8    1.37    0.32
   3  -4  -8    5.87    0.46
  -3   4   8    7.51    0.73
   2  -4  -8    1.64    0.14
  -2   4   8    1.45    0.15
   1  -4  -8    2.84    0.25
  -1   4   8    1.89    0.46
   0  -4  -8    0.00    0.30
   0   4   8    0.93    0.39
  -1  -4  -8    3.30    0.16
   1   4   8    3.16    0.16
  -2  -4  -8    7.63    0.26
   2   4   8    8.01    0.42
  -3  -4  -8    1.33    0.21
   3   4   8    1.76    0.25
  -4  -4  -8   61.66    0.68
   4   4   8   61.56    0.66
  -5  -4  -8   40.19    0.53
   5   4   8   39.56    0.52
  -6  -4  -8    9.05    0.28
   6   4   8    9.27    0.24
  -7  -4  -8   25.33    0.54
   7   4   8   23.93    0.34
  -8  -4  -8    2.51    0.37
   8   4   8    2.52    0.14
  -9  -4  -8    0.00    0.65
   9   4   8    0.00    0.29
   5  -5  -8    0.11    0.25
  -5   5   8    0.61    0.29
   4  -5  -8    7.42    0.42
  -4   5   8    7.50    0.30
   3  -5  -8    7.08    0.40
  -3   5   8    7.57    0.34
   2  -5  -8    4.10    0.26
  -2   5   8    3.71    0.23
   1  -5  -8   13.45    0.33
  -1   5   8   12.88    0.34
   0  -5  -8   11.25    0.49
   0   5   8   11.36    0.64
  -1  -5  -8   19.84    0.38
   1   5   8   20.02    0.45
  -2  -5  -8    2.67    0.14
   2   5   8    2.61    0.15
  -3  -5  -8   22.95    0.53
   3   5   8   22.83    0.54
  -4  -5  -8    1.73    0.66
   4   5   8    2.72    0.77
  -5  -5  -8   12.09    0.25
   5   5   8   12.60    0.31
  -6  -5  -8    2.50    0.38
   6   5   8    2.31    0.26
  -7  -5  -8    2.31    0.28
   7   5   8    1.77    0.22
  -8  -5  -8    3.64    0.35
   8   5   8    3.31    0.16
  -9  -5  -8    2.91    0.68
   9   5   8    2.93    0.38
   4  -6  -8   10.47    0.46
  -4   6   8   11.75    0.45
   3  -6  -8    1.86    5.75
  -3   6   8    1.76    0.67
   2  -6  -8    0.00    0.34
  -2   6   8    1.08    0.52
   1  -6  -8    0.51    0.15
  -1   6   8    0.37    0.21
   0  -6  -8   43.44    0.64
   0   6   8   43.18    0.75
  -1  -6  -8   11.14    0.27
   1   6   8   10.84    0.42
  -2  -6  -8   15.14    0.29
   2   6   8   14.59    0.29
  -3  -6  -8  220.08    1.95
   3   6   8  222.21    1.94
  -4  -6  -8   13.86    0.39
   4   6   8   14.84    0.51
  -5  -6  -8    3.21    0.27
   5   6   8    2.64    0.17
  -6  -6  -8    5.89    0.20
   6   6   8    6.28    0.21
  -7  -6  -8   29.49    0.49
   7   6   8   30.53    0.54
  -8  -6  -8    3.80    0.31
   8   6   8    5.12    0.62
  -9  -6  -8    0.66    0.29
   9   6   8    0.92    0.16
   3  -7  -8    4.09    0.31
  -3   7   8    4.34    0.30
   2  -7  -8    2.12    0.69
  -2   7   8    1.36    0.69
   1  -7  -8    5.22    0.55
  -1   7   8    7.05    0.74
   0  -7  -8    0.45    0.18
   0   7   8    0.23    0.16
  -1  -7  -8    0.41    0.30
   1   7   8    0.86    0.23
  -2  -7  -8   19.08    0.58
   2   7   8   17.48    0.57
  -3  -7  -8    3.07    0.18
   3   7   8    2.92    0.16
  -4  -7  -8    2.15    0.21
   4   7   8    2.05    0.18
  -5  -7  -8    7.15    0.27
   5   7   8    6.89    0.28
  -6  -7  -8    1.98    0.23
   6   7   8    1.80    0.18
  -7  -7  -8    2.27    0.18
   7   7   8    2.06    0.16
  -8  -7  -8    2.58    0.35
   8   7   8    2.76    0.34
  -9  -7  -8   29.35    0.71
   9   7   8   30.23    0.76
   2  -8  -8    2.75    0.30
  -2   8   8    2.85    0.31
   1  -8  -8    0.98    0.46
  -1   8   8    0.98    0.64
   0  -8  -8   10.43    0.50
   0   8   8   10.30    0.52
  -1  -8  -8   21.71    0.50
   1   8   8   21.08    0.40
  -2  -8  -8    7.63    0.50
   2   8   8    7.70    0.41
  -3  -8  -8    0.00    0.30
   3   8   8    1.17    0.32
  -4  -8  -8    1.60    0.21
   4   8   8    0.99    0.15
  -5  -8  -8    9.05    0.39
   5   8   8    8.19    0.41
  -6  -8  -8    1.33    0.38
   6   8   8    1.95    0.41
  -7  -8  -8   18.07    0.36
   7   8   8   18.13    0.42
  -8  -8  -8   14.08    0.54
   8   8   8   13.55    0.46
   1  -9  -8    0.00    0.72
  -1   9   8    0.92    0.46
   0  -9  -8    4.24    0.53
   0   9   8    1.10    0.58
  -1  -9  -8    1.50    0.26
   1   9   8    1.12    0.18
  -2  -9  -8   14.55    0.41
   2   9   8   14.28    0.37
  -3  -9  -8    0.72    0.25
   3   9   8    0.43    0.27
  -4  -9  -8    0.65    0.14
   4   9   8    0.81    0.20
  -5  -9  -8    0.15    0.14
   5   9   8    0.62    0.19
  -6  -9  -8    0.00    0.30
   6   9   8    0.00    0.60
  -7  -9  -8    6.13    0.49
   7   9   8    7.52    0.70
  -1 -10  -8   15.36    0.81
   1  10   8   17.55    1.10
  -2 -10  -8    9.05    0.41
   2  10   8    7.95    0.39
  -3 -10  -8    1.93    0.50
   3  10   8    0.74    0.32
  -4 -10  -8    0.70    0.36
   4  10   8    2.30    0.41
  -5 -10  -8    0.80    0.25
   5  10   8    1.08    0.33
  -6 -10  -8    3.58    0.39
   6  10   8    3.69    0.40
   2   5  -9    0.92    0.27
  -2  -5   9    0.82    0.26
   1   5  -9    2.97    7.08
  -1  -5   9    3.95    0.93
   0   5  -9    8.98    0.60
   0  -5   9   10.14    0.96
  -1   5  -9    1.84    0.38
   1  -5   9    0.47    0.26
   4   4  -9    0.58    0.24
  -4  -4   9    0.68    0.28
   3   4  -9    2.58    0.50
  -3  -4   9    0.45    0.42
   2   4  -9   10.62    0.88
  -2  -4   9    8.61    0.69
   1   4  -9   26.16    0.59
  -1  -4   9   24.83    0.51
   0   4  -9    0.56    0.35
   0  -4   9    0.90    0.55
  -1   4  -9    5.16    0.58
   1  -4   9    3.41    0.61
  -2   4  -9    0.28    0.23
   2  -4   9    0.17    0.21
  -3   4  -9    1.86    0.67
   3  -4   9    0.00    0.96
   5   3  -9    5.37    0.55
  -5  -3   9    5.81    0.33
   4   3  -9    0.16    0.25
  -4  -3   9    0.48    0.30
   3   3  -9    3.63    0.59
  -3  -3   9    3.64    0.44
   2   3  -9    4.04    0.36
  -2  -3   9    4.93    0.39
   1   3  -9   12.03    0.48
  -1  -3   9   11.92    0.39
   0   3  -9    0.58    0.20
   0  -3   9    0.47    0.20
  -1   3  -9    0.00    0.33
   1  -3   9    0.00    0.49
  -2   3  -9    5.02    0.83
   2  -3   9    4.72    0.50
  -3   3  -9    3.50    0.29
   3  -3   9    2.96    0.22
  -4   3  -9    0.00    0.50
   4  -3   9    0.29    0.52
   5   2  -9    2.66    0.61
  -5  -2   9    2.16    0.43
   4   2  -9   14.51    0.73
  -4  -2   9   12.31    0.69
   3   2  -9    1.46    0.27
  -3  -2   9    1.50    0.25
   2   2  -9   12.02    0.40
  -2  -2   9   12.24    0.47
   1   2  -9    5.31    0.34
  -1  -2   9    4.89    0.34
   0   2  -9    0.70    0.16
   0  -2   9    0.40    0.14
  -1   2  -9    6.43    0.43
   1  -2   9    5.33    0.83
  -2   2  -9    0.35    0.27
   2  -2   9    0.00    0.32
  -3   2  -9    5.50    0.32
   3  -2   9    5.73    0.29
  -4   2  -9    0.53    0.33
   4  -2   9    0.25    0.18
  -5   2  -9    9.48    0.39
   5  -2   9    8.23    0.37
   5   1  -9    0.61    0.63
  -5  -1   9    1.08    0.34
   4   1  -9   10.05    0.48
  -4  -1   9    9.36    0.45
   3   1  -9    0.25    0.56
  -3  -1   9    1.45    0.77
   2   1  -9    3.19    0.18
  -2  -1   9    3.30    0.19
   1   1  -9   23.30    0.50
  -1  -1   9   23.45    0.50
   0   1  -9    0.55    0.32
   0  -1   9    0.00    0.31
  -1   1  -9   21.07    0.43
   1  -1   9   21.13    0.35
  -2   1  -9   13.32    0.62
   2  -1   9   12.99    0.65
  -3   1  -9    6.65    0.50
   3  -1   9    5.63    0.44
  -4   1  -9   37.77    0.65
   4  -1   9   37.13    0.55
  -5   1  -9   20.87    0.65
   5  -1   9   21.35    0.48
  -6   1  -9    0.00    1.06
   6  -1   9    0.48    0.49
   5   0  -9    2.46    0.25
  -5   0   9    2.78    0.20
   4   0  -9    3.35    0.61
  -4   0   9    6.99    1.74
   3   0  -9    5.52    0.40
  -3   0   9    4.88    0.43
   2   0  -9    4.90    0.27
  -2   0   9    4.65    0.23
   1   0  -9   20.69    0.51
  -1   0   9   21.86    0.43
   0   0  -9    4.53    0.25
   0   0   9    4.63    0.24
  -1   0  -9   18.95    0.49
   1   0   9   18.83    0.42
  -2   0  -9    9.04    0.30
   2   0   9    8.82    0.27
  -3   0  -9   59.89    1.15
   3   0   9   62.11    0.96
  -4   0  -9    2.37    1.67
   4   0   9    6.64    3.14
  -5   0  -9    5.02    0.26
   5   0   9    5.48    0.22
  -6   0  -9    0.52    0.32
   6   0   9    0.00    0.39
  -7   0  -9    0.41    0.51
   7   0   9    1.19    0.34
   5  -1  -9    1.66    0.61
  -5   1   9    1.39    0.52
   4  -1  -9    0.18    0.16
  -4   1   9    0.18    0.15
   3  -1  -9   12.37    0.61
  -3   1   9   12.72    0.45
   2  -1  -9   23.27    0.85
  -2   1   9   22.62    0.74
   1  -1  -9    4.67    0.22
  -1   1   9    4.61    0.21
   0  -1  -9    5.52    1.09
   0   1   9    7.25    0.54
  -1  -1  -9    1.26    0.20
   1   1   9    1.10    0.23
  -2  -1  -9    3.73    0.18
   2   1   9    3.47    0.18
  -3  -1  -9    0.27    0.37
   3   1   9    0.50    0.32
  -4  -1  -9   52.66    1.07
   4   1   9   56.76    0.79
  -5  -1  -9   13.21    0.48
   5   1   9   13.66    0.37
  -6  -1  -9    5.31    0.32
   6   1   9    6.06    0.23
  -7  -1  -9    1.77    0.63
   7   1   9    4.38    0.30
   5  -2  -9    0.51    0.38
  -5   2   9    1.54    0.37
   4  -2  -9    0.02    0.19
  -4   2   9    0.64    0.19
   3  -2  -9    3.85    0.61
  -3   2   9    2.68    0.22
   2  -2  -9    0.73    0.46
  -2   2   9    0.00    0.41
   1  -2  -9    4.82    0.33
  -1   2   9    6.62    0.59
   0  -2  -9   12.39    0.42
   0   2   9   12.31    0.31
  -1  -2  -9    2.48    0.58
   1   2   9    2.53    0.23
  -2  -2  -9    4.00    0.30
   2   2   9    6.10    0.45
  -3  -2  -9   25.41    0.41
   3   2   9   25.84    0.42
  -4  -2  -9   43.24    0.94
   4   2   9   45.23    0.69
  -5  -2  -9    0.00    0.45
   5   2   9    0.00    0.37
  -6  -2  -9    1.06    0.19
   6   2   9    1.31    0.15
  -7  -2  -9    1.66    0.24
   7   2   9    1.72    0.47
  -8  -2  -9    0.00    0.49
   8   2   9    0.48    0.27
   5  -3  -9    0.00    0.57
  -5   3   9    0.44    0.51
   4  -3  -9   18.06    0.72
  -4   3   9   16.89    0.64
   3  -3  -9    3.12    0.17
  -3   3   9    2.99    0.22
   2  -3  -9    4.08    0.28
  -2   3   9    4.78    0.54
   1  -3  -9   38.38    0.62
  -1   3   9   36.28    0.71
   0  -3  -9    9.28    0.24
   0   3   9    9.07    0.32
  -1  -3  -9   11.31    0.26
   1   3   9   10.87    0.34
  -2  -3  -9    0.83    0.18
   2   3   9    0.50    0.23
  -3  -3  -9    8.11    0.30
   3   3   9    9.97    0.44
  -4  -3  -9   12.87    0.38
   4   3   9   13.08    0.30
  -5  -3  -9    3.57    1.64
   5   3   9    3.49    0.26
  -6  -3  -9    4.40    0.48
   6   3   9    4.31    0.33
  -7  -3  -9    1.49    0.17
   7   3   9    1.82    0.14
  -8  -3  -9    0.00    0.77
   8   3   9    0.80    0.34
   5  -4  -9    1.66    0.26
  -5   4   9    2.60    0.29
   4  -4  -9    0.43    0.32
  -4   4   9    0.58    0.43
   3  -4  -9    2.73    0.38
  -3   4   9    3.07    0.52
   2  -4  -9    0.40    0.12
  -2   4   9    0.15    0.14
   1  -4  -9   12.33    0.44
  -1   4   9   12.60    0.58
   0  -4  -9    0.00    0.38
   0   4   9    0.00    0.51
  -1  -4  -9   16.16    0.33
   1   4   9   16.12    0.35
  -2  -4  -9    0.13    0.12
   2   4   9    0.12    0.20
  -3  -4  -9    0.00    0.48
   3   4   9    0.38    0.57
  -4  -4  -9    4.75    0.17
   4   4   9    4.97    0.19
  -5  -4  -9    7.32    0.25
   5   4   9    7.07    0.25
  -6  -4  -9   11.17    0.37
   6   4   9   11.06    0.32
  -7  -4  -9    6.77    0.39
   7   4   9    6.43    0.23
  -8  -4  -9    2.69    0.35
   8   4   9    2.58    0.14
   4  -5  -9   14.18    0.47
  -4   5   9   14.17    0.43
   3  -5  -9   18.74    0.47
  -3   5   9   17.95    0.54
   2  -5  -9   12.34    0.35
  -2   5   9   11.11    0.46
   1  -5  -9    6.72    0.29
  -1   5   9    7.31    0.36
   0  -5  -9    3.49    0.26
   0   5   9    2.88    0.35
  -1  -5  -9    0.25    0.13
   1   5   9    0.58    0.26
  -2  -5  -9    2.26    0.14
   2   5   9    2.11    0.16
  -3  -5  -9    8.32    0.35
   3   5   9    9.67    0.41
  -4  -5  -9    1.48    0.25
   4   5   9    1.62    0.31
  -5  -5  -9   15.29    0.28
   5   5   9   14.68    0.36
  -6  -5  -9    7.00    0.34
   6   5   9    8.82    0.63
  -7  -5  -9    1.17    0.46
   7   5   9    0.41    0.28
  -8  -5  -9    4.06    0.29
   8   5   9    3.93    0.20
   3  -6  -9    0.00    0.53
  -3   6   9    0.00    0.42
   2  -6  -9    0.26    0.32
  -2   6   9    0.92    0.46
   1  -6  -9   15.51    0.40
  -1   6   9   19.95    0.53
   0  -6  -9    3.23    0.23
   0   6   9    3.31    0.34
  -1  -6  -9    8.36    0.32
   1   6   9    8.33    0.45
  -2  -6  -9    1.66    0.13
   2   6   9    1.59    0.18
  -3  -6  -9   25.86    0.41
   3   6   9   25.68    0.49
  -4  -6  -9   20.97    0.51
   4   6   9   20.61    0.77
  -5  -6  -9   12.98    0.41
   5   6   9   13.03    0.56
  -6  -6  -9    2.56    0.15
   6   6   9    2.75    0.21
  -7  -6  -9    8.66    0.32
   7   6   9    6.73    0.34
  -8  -6  -9    1.46    1.83
   8   6   9    1.77    0.66
   3  -7  -9    1.21    0.30
  -3   7   9    1.45    0.32
   2  -7  -9    1.34    0.57
  -2   7   9    1.04    0.55
   1  -7  -9    0.46    0.46
  -1   7   9    1.50    0.41
   0  -7  -9    3.09    0.23
   0   7   9    2.85    0.23
  -1  -7  -9    3.41    0.35
   1   7   9    3.73    0.53
  -2  -7  -9    1.71    0.31
   2   7   9    1.83    0.31
  -3  -7  -9   21.86    0.40
   3   7   9   21.60    0.39
  -4  -7  -9    0.88    0.18
   4   7   9    0.99    0.20
  -5  -7  -9    7.39    0.37
   5   7   9    8.16    0.47
  -6  -7  -9    3.60    0.21
   6   7   9    3.48    0.24
  -7  -7  -9    0.38    0.17
   7   7   9    0.40    0.14
  -8  -7  -9    8.20    0.37
   8   7   9    8.60    0.38
   2  -8  -9    0.72    0.30
  -2   8   9    1.03    0.34
   1  -8  -9    0.00    0.47
  -1   8   9    2.50    0.54
   0  -8  -9    1.27    0.21
   0   8   9    2.33    0.46
  -1  -8  -9    2.98    0.22
   1   8   9    3.30    0.21
  -2  -8  -9    7.81    0.56
   2   8   9    8.27    0.42
  -3  -8  -9    7.51    0.41
   3   8   9    6.31    0.35
  -4  -8  -9    0.32    0.21
   4   8   9    0.36    0.12
  -5  -8  -9   24.65    0.63
   5   8   9   26.54    0.59
  -6  -8  -9    0.54    0.36
   6   8   9    0.54    0.24
  -7  -8  -9   11.95    0.32
   7   8   9   12.16    0.33
  -8  -8  -9   12.60    0.57
   8   8   9   11.69    0.65
   0  -9  -9    1.64    0.43
   0   9   9    0.68    0.72
  -1  -9  -9    0.19    0.21
   1   9   9    0.53    0.19
  -2  -9  -9    4.22    0.28
   2   9   9    4.35    0.27
  -3  -9  -9    2.28    0.27
   3   9   9    2.35    0.35
  -4  -9  -9    0.84    0.29
   4   9   9    0.51    0.19
  -5  -9  -9    0.70    0.17
   5   9   9    0.60    0.17
  -6  -9  -9    0.83    0.43
   6   9   9    1.28    0.49
  -7  -9  -9    0.00    0.50
   7   9   9    1.22    0.58
  -2 -10  -9    1.28    0.25
   2  10   9    1.38    0.22
  -3 -10  -9    5.51    0.72
   3  10   9    7.43    0.49
  -4 -10  -9    2.52    0.50
   4  10   9    2.97    0.52
  -5 -10  -9    0.59    0.19
   5  10   9    0.19    0.20
   2   4 -10    0.68    0.27
  -2  -4  10    0.51    0.46
   1   4 -10    1.33    0.27
  -1  -4  10    1.80    0.26
   0   4 -10    0.00    0.59
   0  -4  10    0.37    0.80
  -1   4 -10    0.90    0.44
   1  -4  10    1.38    0.27
   3   3 -10    2.36    0.71
  -3  -3  10    5.67    1.29
   2   3 -10    1.94    0.50
  -2  -3  10    2.50    0.34
   1   3 -10   14.13    0.46
  -1  -3  10   13.21    0.45
   0   3 -10    9.93    0.38
   0  -3  10    8.74    0.36
  -1   3 -10    0.38    0.57
   1  -3  10    1.37    0.44
  -2   3 -10    0.00    0.55
   2  -3  10    0.00    0.61
  -3   3 -10    0.12    0.28
   3  -3  10    0.58    0.23
   4   2 -10    8.91    0.84
  -4  -2  10    6.79    0.98
   3   2 -10    8.86    0.45
  -3  -2  10    9.55    0.40
   2   2 -10    1.51    0.40
  -2  -2  10    0.81    0.41
   1   2 -10    2.60    0.31
  -1  -2  10    3.76    0.85
   0   2 -10    6.42    0.25
   0  -2  10    6.12    0.31
  -1   2 -10    0.00    0.31
   1  -2  10    0.25    0.47
  -2   2 -10   12.97    0.43
   2  -2  10   13.76    0.54
  -3   2 -10    0.79    0.25
   3  -2  10    0.46    0.19
  -4   2 -10   20.46    0.79
   4  -2  10   18.56    0.54
   4   1 -10    0.00    0.31
  -4  -1  10    0.46    0.32
   3   1 -10    0.00    0.38
  -3  -1  10    0.81    0.77
   2   1 -10    1.69    0.18
  -2  -1  10    1.59    0.16
   1   1 -10    0.06    0.27
  -1  -1  10    0.17    0.32
   0   1 -10   16.58    0.55
   0  -1  10   16.64    0.48
  -1   1 -10   52.66    0.75
   1  -1  10   51.77    0.76
  -2   1 -10    3.69    0.36
   2  -1  10    3.98    0.42
  -3   1 -10    5.67    0.48
   3  -1  10    4.76    0.53
  -4   1 -10   12.10    0.39
   4  -1  10   11.85    0.35
  -5   1 -10   11.78    0.60
   5  -1  10   11.44    0.56
   5   0 -10    0.45    0.25
  -5   0  10    0.67    0.24
   4   0 -10    2.21    1.04
  -4   0  10    0.67    1.04
   3   0 -10    0.11    0.41
  -3   0  10    0.28    0.43
   2   0 -10   13.47    0.40
  -2   0  10   14.30    0.39
   1   0 -10   18.52    0.58
  -1   0  10   18.91    0.59
   0   0 -10    1.20    0.17
   0   0  10    1.06    0.18
  -1   0 -10    4.35    0.42
   1   0  10    3.60    0.64
  -2   0 -10   25.32    0.50
   2   0  10   24.84    0.41
  -3   0 -10    8.25    0.42
   3   0  10    9.19    0.44
  -4   0 -10    2.14    0.41
   4   0  10    1.48    0.64
  -5   0 -10    1.16    0.18
   5   0  10    1.20    0.16
  -6   0 -10    0.03    0.41
   6   0  10    0.00    0.37
   5  -1 -10    1.45    0.25
  -5   1  10    1.42    0.24
   4  -1 -10    0.68    0.22
  -4   1  10    0.48    0.19
   3  -1 -10   19.33    0.64
  -3   1  10   20.96    0.67
   2  -1 -10    3.52    0.42
  -2   1  10    2.26    0.39
   1  -1 -10    5.09    0.26
  -1   1  10    4.69    0.24
   0  -1 -10    9.86    0.39
   0   1  10   11.49    0.38
  -1  -1 -10    3.21    0.39
   1   1  10    3.92    0.42
  -2  -1 -10    0.08    0.13
   2   1  10    0.22    0.14
  -3  -1 -10    2.32    0.38
   3   1  10    3.28    0.47
  -4  -1 -10    4.42    0.28
   4   1  10    3.75    0.36
  -5  -1 -10    5.50    0.48
   5   1  10    4.28    0.28
  -6  -1 -10    0.24    0.21
   6   1  10    0.39    0.15
  -7  -1 -10    2.12    0.43
   7   1  10    3.52    0.44
   4  -2 -10    0.14    0.31
  -4   2  10    0.88    0.30
   3  -2 -10    0.26    0.20
  -3   2  10    0.20    0.17
   2  -2 -10    3.23    0.28
  -2   2  10    3.56    0.35
   1  -2 -10   19.06    0.73
  -1   2  10   22.58    1.15
   0  -2 -10    0.19    0.12
   0   2  10    0.19    0.14
  -1  -2 -10    2.01    0.43
   1   2  10    1.58    0.32
  -2  -2 -10    2.53    0.21
   2   2  10    3.56    0.34
  -3  -2 -10   15.50    0.45
   3   2  10   15.49    0.35
  -4  -2 -10    7.56    0.61
   4   2  10    8.33    0.53
  -5  -2 -10    0.98    0.37
   5   2  10    0.87    0.32
  -6  -2 -10    5.12    0.31
   6   2  10    5.05    0.24
  -7  -2 -10   21.62    0.60
   7   2  10   19.48    0.82
   4  -3 -10    2.12    0.86
  -4   3  10    1.74    0.48
   3  -3 -10    0.22    0.19
  -3   3  10    0.17    0.23
   2  -3 -10    0.29    0.16
  -2   3  10    0.59    0.51
   1  -3 -10   12.99    0.75
  -1   3  10   13.65    0.77
   0  -3 -10    5.50    0.23
   0   3  10    5.35    0.28
  -1  -3 -10    5.79    0.27
   1   3  10    5.85    0.34
  -2  -3 -10    0.94    0.18
   2   3  10    0.71    0.25
  -3  -3 -10    3.53   10.11
   3   3  10    1.33    0.61
  -4  -3 -10    1.75    0.19
   4   3  10    1.70    0.17
  -5  -3 -10    5.87    0.39
   5   3  10    5.52    0.39
  -6  -3 -10    0.79    0.56
   6   3  10    0.80    0.36
  -7  -3 -10    0.68    0.19
   7   3  10    1.09    0.15
  -8  -3 -10    0.91    0.77
   8   3  10    1.24    0.41
   4  -4 -10    0.53    0.66
  -4   4  10    0.42    0.52
   3  -4 -10    0.00    0.34
  -3   4  10    1.17    0.56
   2  -4 -10    2.49    0.18
  -2   4  10    2.34    0.21
   1  -4 -10    0.67    0.31
  -1   4  10    0.47    0.55
   0  -4 -10    3.89    0.27
   0   4  10    2.92    0.57
  -1  -4 -10   16.46    0.36
   1   4  10   16.32    0.43
  -2  -4 -10   15.05    0.61
   2   4  10   13.59    0.78
  -3  -4 -10    6.34    0.30
   3   4  10    6.23    0.39
  -4  -4 -10    9.73    0.29
   4   4  10   10.37    0.29
  -5  -4 -10    7.63    0.38
   5   4  10    8.43    0.29
  -6  -4 -10   19.11    0.54
   6   4  10   18.86    0.41
  -7  -4 -10    2.15    0.37
   7   4  10    2.84    0.35
  -8  -4 -10    3.37    0.39
   8   4  10    2.91    0.16
   3  -5 -10    7.19    0.36
  -3   5  10    7.92    0.42
   2  -5 -10   10.90    0.34
  -2   5  10   11.24    0.49
   1  -5 -10    0.22    0.15
  -1   5  10    0.35    0.19
   0  -5 -10   10.86    0.47
   0   5  10    9.50    0.88
  -1  -5 -10    7.95    0.40
   1   5  10    7.34    0.49
  -2  -5 -10    0.26    0.11
   2   5  10    0.26    0.13
  -3  -5 -10   16.91    0.82
   3   5  10   16.06    0.80
  -4  -5 -10   46.02    0.77
   4   5  10   48.52    0.79
  -5  -5 -10   12.66    0.31
   5   5  10   12.61    0.31
  -6  -5 -10    1.99    0.31
   6   5  10    1.65    0.46
  -7  -5 -10    4.51    0.74
   7   5  10    4.03    0.47
  -8  -5 -10    0.45    0.32
   8   5  10    0.23    0.25
   3  -6 -10    6.26    0.78
  -3   6  10    7.73    0.84
   2  -6 -10    2.09    0.38
  -2   6  10    0.66    0.51
   1  -6 -10    8.67    0.31
  -1   6  10   10.30    0.42
   0  -6 -10    2.93    0.23
   0   6  10    2.89    0.28
  -1  -6 -10    5.63    0.37
   1   6  10    4.90    0.41
  -2  -6 -10    2.39    0.16
   2   6  10    2.34    0.21
  -3  -6 -10   13.79    0.32
   3   6  10   12.58    0.33
  -4  -6 -10   40.27    0.62
   4   6  10   40.13    0.70
  -5  -6 -10   16.32    0.40
   5   6  10   15.75    0.60
  -6  -6 -10    3.31    0.18
   6   6  10    3.18    0.23
  -7  -6 -10    2.22    0.37
   7   6  10    0.56    0.48
  -8  -6 -10    3.91    0.71
   8   6  10    4.80    0.37
   2  -7 -10    0.00    0.78
  -2   7  10    0.00    0.85
   1  -7 -10    4.26    1.32
  -1   7  10    1.77    0.75
   0  -7 -10    0.45    0.32
   0   7  10    1.23    0.27
  -1  -7 -10    1.47    0.47
   1   7  10    2.92    0.86
  -2  -7 -10   51.14    0.93
   2   7  10   51.44    1.09
  -3  -7 -10    1.24    0.15
   3   7  10    1.61    0.19
  -4  -7 -10   17.36    0.43
   4   7  10   17.66    0.57
  -5  -7 -10    2.66    0.30
   5   7  10    3.57    0.42
  -6  -7 -10    0.88    0.25
   6   7  10    1.41    0.21
  -7  -7 -10    0.26    0.17
   7   7  10    0.41    0.20
  -8  -7 -10    1.04    0.34
   8   7  10    1.01    0.32
   1  -8 -10    2.75    0.43
  -1   8  10    2.44    0.70
   0  -8 -10    4.80    0.45
   0   8  10    5.47    0.62
  -1  -8 -10    1.02    0.17
   1   8  10    0.87    0.21
  -2  -8 -10    0.00    0.37
   2   8  10    0.00    0.48
  -3  -8 -10   16.45    0.56
   3   8  10   15.82    0.62
  -4  -8 -10    2.70    0.23
   4   8  10    2.07    0.22
  -5  -8 -10    4.23    0.37
   5   8  10    4.58    0.56
  -6  -8 -10    8.84    0.41
   6   8  10    7.85    0.59
  -7  -8 -10    0.25    0.17
   7   8  10    0.39    0.22
  -1  -9 -10    4.63    0.29
   1   9  10    4.90    0.35
  -2  -9 -10   20.15    0.48
   2   9  10   20.61    0.58
  -3  -9 -10   13.80    0.43
   3   9  10   16.09    0.52
  -4  -9 -10    4.71    0.27
   4   9  10    3.33    0.60
  -5  -9 -10    2.85    0.24
   5   9  10    2.47    0.27
  -6  -9 -10    1.94    0.36
   6   9  10    1.39    0.56
  -4 -10 -10    2.16    0.48
   4  10  10    9.65    3.38
   0   3 -11    1.10    0.29
   0  -3  11    0.83    0.32
   2   2 -11    6.22    0.82
  -2  -2  11    7.81    0.55
   1   2 -11    4.05    0.41
  -1  -2  11    3.51    0.51
   0   2 -11    8.42    0.30
   0  -2  11    8.56    0.40
  -1   2 -11   13.95    0.56
   1  -2  11   14.31    0.85
  -2   2 -11    0.00    0.42
   2  -2  11    0.00    0.38
  -3   2 -11    0.82    0.27
   3  -2  11    0.38    0.24
   3   1 -11    2.08    0.51
  -3  -1  11    3.16    1.01
   2   1 -11    1.35    0.35
  -2  -1  11    0.66    0.22
   1   1 -11    7.03    0.56
  -1  -1  11    8.04    0.57
   0   1 -11   17.27    0.47
   0  -1  11   16.36    0.57
  -1   1 -11    1.53    0.21
   1  -1  11    1.49    0.16
  -2   1 -11    2.56    0.59
   2  -1  11    3.50    0.71
  -3   1 -11    2.03    0.44
   3  -1  11    2.75    0.47
  -4   1 -11   13.04    0.44
   4  -1  11   13.43    0.42
   3   0 -11    0.42    0.42
  -3   0  11    0.43    0.49
   2   0 -11    3.27    0.25
  -2   0  11    3.57    0.26
   1   0 -11    0.00    0.40
  -1   0  11    1.41    0.47
   0   0 -11    0.05    0.14
   0   0  11    0.12    0.19
  -1   0 -11   10.51    0.41
   1   0  11   10.19    0.52
  -2   0 -11    1.06    0.21
   2   0  11    1.09    0.15
  -3   0 -11   12.90    0.42
   3   0  11   11.75    0.39
  -4   0 -11    0.00    0.51
   4   0  11    0.01    0.38
  -5   0 -11    2.84    0.26
   5   0  11    2.76    0.22
   4  -1 -11    0.90    0.24
  -4   1  11    0.54    0.33
   3  -1 -11    1.85    0.51
  -3   1  11    1.89    0.53
   2  -1 -11   17.37    0.96
  -2   1  11   17.29    0.81
   1  -1 -11   20.34    0.49
  -1   1  11   19.93    0.43
   0  -1 -11   15.14    0.58
   0   1  11   15.78    0.56
  -1  -1 -11   13.17    0.36
   1   1  11   13.45    0.39
  -2  -1 -11    0.42    0.20
   2   1  11    0.57    0.15
  -3  -1 -11   31.41    0.69
   3   1  11   31.00    0.78
  -4  -1 -11    6.82    0.35
   4   1  11    6.92    0.43
  -5  -1 -11    1.65    0.61
   5   1  11    0.00    0.37
  -6  -1 -11    0.52    0.25
   6   1  11    0.61    0.20
   4  -2 -11    0.94    0.31
  -4   2  11    0.61    0.32
   3  -2 -11    0.39    0.23
  -3   2  11    0.80    0.25
   2  -2 -11    3.73    0.45
  -2   2  11    3.61    0.50
   1  -2 -11    2.78    0.47
  -1   2  11    3.15    0.59
   0  -2 -11    5.18    0.25
   0   2  11    4.96    0.28
  -1  -2 -11    0.00    0.31
   1   2  11    0.35    0.35
  -2  -2 -11    4.85    0.27
   2   2  11    5.32    0.49
  -3  -2 -11   19.16    0.48
   3   2  11   18.63    0.47
  -4  -2 -11    0.00    0.42
   4   2  11    1.71    0.49
  -5  -2 -11   10.07    0.47
   5   2  11    9.67    0.63
  -6  -2 -11   12.89    0.44
   6   2  11   12.72    0.37
  -7  -2 -11    5.34    1.58
   7   2  11    0.00    3.57
   3  -3 -11    8.59    0.48
  -3   3  11    6.93    0.34
   2  -3 -11    1.29    0.92
  -2   3  11    1.75    0.55
   1  -3 -11   15.93    0.48
  -1   3  11   15.49    0.53
   0  -3 -11    7.04    0.38
   0   3  11    7.00    0.36
  -1  -3 -11    1.44    0.77
   1   3  11    0.34    0.18
  -2  -3 -11    1.67    0.20
   2   3  11    2.20    0.32
  -3  -3 -11   69.12    1.66
   3   3  11   69.26    1.10
  -4  -3 -11    1.37    0.20
   4   3  11    1.29    0.19
  -5  -3 -11    3.77    0.51
   5   3  11    4.48    0.38
  -6  -3 -11    4.22    0.55
   6   3  11    2.40    0.48
  -7  -3 -11    0.08    0.30
   7   3  11    0.18    0.18
   3  -4 -11    1.92    0.67
  -3   4  11    4.39    0.82
   2  -4 -11    5.02    0.25
  -2   4  11    4.97    0.29
   1  -4 -11    3.65    0.34
  -1   4  11    2.53    0.52
   0  -4 -11    0.81    0.39
   0   4  11    0.84    0.64
  -1  -4 -11   24.82    0.47
   1   4  11   24.15    0.52
  -2  -4 -11   20.98    0.53
   2   4  11   19.54    0.87
  -3  -4 -11    8.18    0.28
   3   4  11    7.76    0.36
  -4  -4 -11   28.04    0.51
   4   4  11   26.81    0.52
  -5  -4 -11    2.73    0.38
   5   4  11    2.41    0.31
  -6  -4 -11    4.93    0.36
   6   4  11    4.74    0.31
  -7  -4 -11    8.30    0.84
   7   4  11    7.73    0.66
   3  -5 -11    6.14    1.14
   2  -5 -11    2.70    0.27
  -2   5  11    2.64    0.38
   1  -5 -11    0.24    0.16
  -1   5  11    0.04    0.18
   0  -5 -11    4.28    0.58
   0   5  11    5.59    0.45
  -1  -5 -11    0.00    0.37
   1   5  11    0.27    0.77
  -2  -5 -11   16.37    0.35
   2   5  11   16.10    0.44
  -3  -5 -11   12.89    0.50
   3   5  11   12.96    0.60
  -4  -5 -11    4.35    0.27
   4   5  11    4.42    0.43
  -5  -5 -11    0.97    0.17
   5   5  11    0.94    0.15
  -6  -5 -11    1.39    0.70
   6   5  11    1.47    0.42
  -7  -5 -11    0.17    0.44
   7   5  11    0.00    0.46
   2  -6 -11    7.65    0.65
  -2   6  11    7.74    0.60
   1  -6 -11    3.85    0.28
  -1   6  11    3.91    0.31
   0  -6 -11    6.20    0.34
   0   6  11    4.76    0.47
  -1  -6 -11    1.79    0.23
   1   6  11    1.57    0.41
  -2  -6 -11    9.98    0.37
   2   6  11   10.53    0.42
  -3  -6 -11    1.21    0.16
   3   6  11    0.79    0.18
  -4  -6 -11   29.14    0.60
   4   6  11   29.89    0.62
  -5  -6 -11    0.00    0.31
   5   6  11    0.39    0.39
  -6  -6 -11    5.24    0.23
   6   6  11    5.29    0.31
  -7  -6 -11    2.24    0.71
   7   6  11    3.01    0.70
   1  -7 -11    0.01    1.08
  -1   7  11    2.05    0.87
   0  -7 -11    4.19    0.27
   0   7  11    3.43    0.33
  -1  -7 -11    0.32    0.51
   1   7  11    0.31    0.62
  -2  -7 -11    1.66    0.32
   2   7  11    2.66    0.54
  -3  -7 -11    7.21    0.26
   3   7  11    7.45    0.32
  -4  -7 -11    0.28    0.25
   4   7  11    1.49    0.39
  -5  -7 -11    1.86    0.37
   5   7  11    2.21    0.45
  -6  -7 -11   57.78    0.75
   6   7  11   55.71    0.83
  -7  -7 -11    0.38    0.21
   7   7  11    0.16    0.25
   0  -8 -11    6.04    0.35
   0   8  11    7.17    0.40
  -1  -8 -11    0.12    0.30
   1   8  11    0.34    0.26
  -2  -8 -11    0.32    0.41
   2   8  11    1.90    1.30
  -3  -8 -11   15.69    0.52
   3   8  11   16.16    0.77
  -4  -8 -11    2.23    0.20
   4   8  11    1.55    0.23
  -5  -8 -11    0.93    0.40
   5   8  11    2.11    0.74
  -6  -8 -11    4.62    0.54
   6   8  11    4.56    0.51
  -2  -9 -11   15.41    0.47
   2   9  11   14.80    0.77
  -3  -9 -11    2.14    0.40
   3   9  11    2.37    0.62
  -4  -9 -11    4.71    0.48
   4   9  11    6.45    0.83
  -5  -9 -11    1.14    0.26
   5   9  11    1.40    0.30
   1   1 -12    0.00    0.39
  -1  -1  12    1.24    0.55
   0   1 -12    2.76    0.53
   0  -1  12    3.95    0.66
  -1   1 -12   13.05    0.48
   1  -1  12   12.40    0.39
  -2   1 -12   14.80    0.79
   2  -1  12   13.75    0.81
   2   0 -12    0.63    0.22
  -2   0  12    1.21    0.25
   1   0 -12    1.08    0.48
  -1   0  12    1.23    0.49
   0   0 -12    1.22    0.22
   0   0  12    1.30    0.28
  -1   0 -12    2.82    0.42
   1   0  12    2.91    0.49
  -2   0 -12   17.95    0.49
   2   0  12   17.49    0.43
  -3   0 -12    1.33    0.35
   3   0  12    1.24    0.33
  -4   0 -12    0.61    0.22
   4   0  12    0.51    0.24
   2  -1 -12    0.00    0.68
  -2   1  12    1.50    0.73
   1  -1 -12    5.60    0.31
  -1   1  12    4.47    0.29
   0  -1 -12    0.66    0.41
   0   1  12    1.90    0.49
  -1  -1 -12   49.55    0.85
   1   1  12   51.52    0.90
  -2  -1 -12    7.90    0.37
   2   1  12    8.51    0.33
  -3  -1 -12    0.69    0.38
   3   1  12    0.37    1.08
  -4  -1 -12    2.49    0.32
   4   1  12    1.02    0.35
  -5  -1 -12    1.40    0.22
   5   1  12    1.96    0.22
   2  -2 -12    2.65    0.42
  -2   2  12    1.72    0.43
   1  -2 -12   13.26    0.99
  -1   2  12    9.41    0.73
   0  -2 -12   12.90    0.37
   0   2  12   13.13    0.44
  -1  -2 -12    2.70    0.31
   1   2  12    1.81    0.53
  -2  -2 -12    0.05    0.52
   2   2  12    0.30    0.50
  -3  -2 -12    0.26    0.24
   3   2  12    0.08    0.18
  -4  -2 -12    5.32    0.62
   4   2  12    7.26    0.61
  -5  -2 -12    0.73    0.51
   5   2  12    2.51    0.43
   2  -3 -12    3.29    0.52
  -2   3  12    3.70    0.55
   1  -3 -12    0.81    0.42
  -1   3  12    0.24    0.45
   0  -3 -12    3.44    0.24
   0   3  12    3.57    0.26
  -1  -3 -12    3.77    0.33
   1   3  12    4.41    0.40
  -2  -3 -12   10.88    0.30
   2   3  12   10.47    0.40
  -3  -3 -12    3.04    0.50
   3   3  12    2.67    0.70
  -4  -3 -12    1.36    0.23
   4   3  12    1.71    0.23
  -5  -3 -12    0.00    0.45
   5   3  12    0.16    0.49
  -6  -3 -12   19.75    0.72
   6   3  12   17.80    1.07
   2  -4 -12    0.68    0.40
  -2   4  12    0.60    0.26
   1  -4 -12    0.00    0.54
  -1   4  12    0.00    0.51
   0  -4 -12    2.61    0.51
   0   4  12    2.33    0.53
  -1  -4 -12    0.49    0.17
   1   4  12    0.10    0.19
  -2  -4 -12    0.39    0.43
   2   4  12    0.38    0.68
  -3  -4 -12    0.00    0.28
   3   4  12    0.00    0.53
  -4  -4 -12    2.66    0.27
   4   4  12    2.76    0.25
  -5  -4 -12    0.00    0.35
   5   4  12    1.78    0.57
  -6  -4 -12    0.65    0.42
   6   4  12    1.67    0.39
   1  -5 -12    2.19    0.22
  -1   5  12    2.77    0.25
   0  -5 -12    4.91    1.53
   0   5  12    1.93    1.46
  -1  -5 -12    0.56    0.57
   1   5  12    0.00    0.75
  -2  -5 -12    6.15    0.27
   2   5  12    5.81    0.34
  -3  -5 -12    6.38    0.39
   3   5  12    7.61    0.62
  -4  -5 -12    1.51    0.31
   4   5  12    0.00    0.55
  -5  -5 -12    1.28    0.22
   5   5  12    1.31    0.19
  -6  -5 -12    3.72    0.73
   6   5  12    4.54    0.51
   1  -6 -12   10.52    0.44
  -1   6  12    8.74    0.45
   0  -6 -12   22.35    0.64
   0   6  12   20.82    0.78
  -1  -6 -12    1.00    0.33
   1   6  12    1.41    0.37
  -2  -6 -12    4.04    0.28
   2   6  12    3.69    0.31
  -3  -6 -12    8.26    0.40
   3   6  12    8.45    0.37
  -4  -6 -12    1.06    0.31
   4   6  12    1.47    0.40
  -5  -6 -12    1.41    0.45
   5   6  12    0.54    0.57
  -6  -6 -12    2.62    0.24
   6   6  12    2.61    0.27
   0  -7 -12    2.32    0.25
   0   7  12    2.37    0.35
  -1  -7 -12   11.63    1.18
   1   7  12   11.96    0.90
  -2  -7 -12   16.21    0.60
   2   7  12   15.75    0.82
  -3  -7 -12    0.14    0.15
   3   7  12    0.23    0.21
  -4  -7 -12    0.54    0.33
   4   7  12    0.30    0.46
  -5  -7 -12   23.81    0.44
   5   7  12   22.08    0.66
  -6  -7 -12    2.27    0.21
   6   7  12    2.07    0.27
  -2  -8 -12    8.92    0.68
   2   8  12    8.00    0.79
  -3  -8 -12    1.13    0.46
   3   8  12    1.10    0.98
  -4  -8 -12    7.25    0.34
   4   8  12    7.06    0.34
  -5  -8 -12    0.44    0.45
   5   8  12    0.98    0.63
   0  -1 -13   26.41    0.69
   0   1  13   24.91    0.84
  -1  -1 -13   12.67    0.47
   1   1  13   11.64    0.75
  -2  -1 -13    4.02    0.27
   2   1  13    4.28    0.27
  -3  -1 -13    3.44    0.72
   3   1  13    2.52    0.56
   1  -2 -13   10.20    1.86
  -1   2  13    9.88    1.14
   0  -2 -13   29.43    0.52
   0   2  13   28.61    0.65
  -1  -2 -13    0.00    0.27
   1   2  13    0.00    0.57
  -2  -2 -13    2.77    0.61
   2   2  13    3.29    0.85
  -3  -2 -13    0.36    0.24
   3   2  13    0.38    0.23
  -4  -2 -13    2.80    0.66
   4   2  13    3.04    0.62
   1  -3 -13    0.62    0.26
  -1   3  13    1.06    0.31
   0  -3 -13    0.07    0.21
   0   3  13    0.30    0.31
  -1  -3 -13    0.72    0.21
   1   3  13    0.52    0.30
  -2  -3 -13    0.75    0.44
   2   3  13    0.00    0.48
  -3  -3 -13    0.21    0.62
   3   3  13    0.00    0.71
  -4  -3 -13    0.94    0.24
   4   3  13    0.92    0.25
   0  -4 -13    2.74    1.16
   0   4  13    2.40    0.62
  -1  -4 -13    7.06    0.37
   1   4  13    7.56    0.39
  -2  -4 -13   21.04    0.62
   2   4  13   18.66    1.08
  -3  -4 -13    4.19    0.54
   3   4  13    7.62    0.69
  -4  -4 -13    6.58    0.37
   4   4  13    5.69    0.39
  -5  -4 -13    7.42    1.00
   5   4  13   10.92    1.39
   0  -5 -13   13.08    0.71
   0   5  13   13.17    0.88
  -1  -5 -13   16.12   19.57
   1   5  13   13.73    0.83
  -2  -5 -13    6.92    0.33
   2   5  13    6.50    0.38
  -3  -5 -13    5.02    0.48
   3   5  13    3.69    0.81
  -4  -5 -13    0.00    0.64
   4   5  13    0.04    0.56
  -5  -5 -13   18.32    0.56
   5   5  13   17.45    0.52
  -1  -6 -13   14.76    0.55
   1   6  13   11.20    0.72
  -2  -6 -13    0.83    0.31
   2   6  13    0.46    0.26
  -3  -6 -13    2.42    0.25
   3   6  13    2.42    0.28
  -4  -6 -13    0.00    0.32
   4   6  13    0.00    0.50
  -5  -6 -13    2.37    0.23
   5   6  13    2.74    0.27
  -3  -7 -13    0.46    0.28
   3   7  13    0.68    0.30
  -4  -7 -13    0.00    0.70
   4   7  13   12.23    2.93
   0   0   0    0.00    0.00
;
_shelx_hkl_checksum              91235
_olex2_submission_original_sample_id benzene_MTAD_iPrNH2
_olex2_submission_special_instructions 'No special instructions were received'
loop_
_space_group_symop_operation_xyz
'x, y, z'
'-x, -y, -z'
loop_
_atom_site_label
_atom_site_type_symbol
_atom_site_fract_x
_atom_site_fract_y
_atom_site_fract_z
_atom_site_U_iso_or_equiv
_atom_site_adp_type
_atom_site_occupancy
_atom_site_site_symmetry_order
_atom_site_calc_flag
_atom_site_refinement_flags_posn
O1 O 1.09663(16) 0.77190(15) 0.41589(12) 0.0240(3) Uani 1 1 d .
O2 O 0.76853(15) 1.22399(13) 0.10617(11) 0.0188(3) Uani 1 1 d .
N1 N 0.81498(19) 0.93168(17) 0.18125(14) 0.0205(3) Uani 1 1 d .
N2 N 0.90729(19) 0.78862(17) 0.27687(14) 0.0213(3) Uani 1 1 d .
N3 N 0.95399(18) 1.02590(16) 0.26737(13) 0.0166(3) Uani 1 1 d .
N4 N 0.59196(18) 0.46510(17) 0.24068(13) 0.0164(3) Uani 1 1 d .
H4A H 0.672(3) 0.465(2) 0.2948(19) 0.025 Uiso 1 1 d R
H4B H 0.655(3) 0.381(2) 0.1952(19) 0.025 Uiso 1 1 d R
C1 C 0.6988(2) 0.9157(2) 0.10593(16) 0.0207(4) Uani 1 1 d .
H1 H 0.6685 1.0231 0.0317 0.025 Uiso 1 1 calc R
C2 C 0.5266(2) 0.8974(2) 0.18739(17) 0.0213(4) Uani 1 1 d .
H2 H 0.4606 0.9796 0.2316 0.026 Uiso 1 1 calc R
C3 C 0.4603(2) 0.7749(2) 0.20196(17) 0.0208(4) Uani 1 1 d .
H3 H 0.3496 0.7735 0.2554 0.025 Uiso 1 1 calc R
C4 C 0.5528(2) 0.63773(19) 0.13743(16) 0.0181(4) Uani 1 1 d .
H4 H 0.4723 0.6431 0.0778 0.022 Uiso 1 1 calc R
C5 C 0.7292(2) 0.6510(2) 0.06018(15) 0.0195(4) Uani 1 1 d .
H5 H 0.7968 0.5674 0.0176 0.023 Uiso 1 1 calc R
C6 C 0.7957(2) 0.7726(2) 0.04815(16) 0.0208(4) Uani 1 1 d .
H6 H 0.9107 0.7692 0.0005 0.025 Uiso 1 1 calc R
C7 C 0.9926(2) 0.8496(2) 0.32827(16) 0.0178(3) Uani 1 1 d .
C8 C 0.8380(2) 1.0764(2) 0.17669(15) 0.0162(3) Uani 1 1 d .
C9 C 1.0240(2) 1.1345(2) 0.30018(18) 0.0228(4) Uani 1 1 d .
H9A H 0.9952 1.2475 0.2355 0.034 Uiso 1 1 calc GR
H9B H 1.1544 1.0852 0.2997 0.034 Uiso 1 1 calc GR
H9C H 0.9695 1.1442 0.3875 0.034 Uiso 1 1 calc GR
C10 C 0.4359(2) 0.4170(2) 0.33110(17) 0.0216(4) Uani 1 1 d .
H10 H 0.3760 0.5017 0.3806 0.026 Uiso 1 1 calc R
C11 C 0.2999(3) 0.4187(2) 0.2549(2) 0.0320(5) Uani 1 1 d .
H11A H 0.2485 0.5346 0.1990 0.048 Uiso 1 1 calc GR
H11B H 0.2041 0.3794 0.3162 0.048 Uiso 1 1 calc GR
H11C H 0.3591 0.3432 0.2003 0.048 Uiso 1 1 calc GR
C12 C 0.5109(3) 0.2437(2) 0.42822(18) 0.0279(4) Uani 1 1 d .
H12A H 0.4140 0.2144 0.4946 0.042 Uiso 1 1 calc GR
H12B H 0.6035 0.2471 0.4708 0.042 Uiso 1 1 calc GR
H12C H 0.5634 0.1581 0.3818 0.042 Uiso 1 1 calc GR
O3 O 0.79877(19) 0.49782(17) 0.38259(13) 0.0283(3) Uani 1 1 d .
H3A H 0.843(3) 0.584(3) 0.355(2) 0.042 Uiso 1 1 d R
H3B H 0.854(3) 0.424(3) 0.445(2) 0.042 Uiso 1 1 d R
loop_
_atom_site_aniso_label
_atom_site_aniso_U_11
_atom_site_aniso_U_22
_atom_site_aniso_U_33
_atom_site_aniso_U_23
_atom_site_aniso_U_13
_atom_site_aniso_U_12
O1 0.0285(7) 0.0206(6) 0.0221(6) -0.0007(5) -0.0122(5) -0.0065(5)
O2 0.0247(6) 0.0119(5) 0.0183(6) -0.0026(4) -0.0049(5) -0.0044(5)
N1 0.0297(8) 0.0115(7) 0.0216(7) 0.0003(5) -0.0135(6) -0.0067(6)
N2 0.0279(8) 0.0132(7) 0.0219(7) 0.0009(6) -0.0117(6) -0.0060(6)
N3 0.0203(7) 0.0137(7) 0.0169(7) -0.0042(5) -0.0042(5) -0.0056(5)
N4 0.0194(7) 0.0132(7) 0.0170(7) -0.0043(5) -0.0033(6) -0.0049(5)
C1 0.0302(9) 0.0133(8) 0.0197(8) -0.0001(6) -0.0129(7) -0.0068(7)
C2 0.0236(9) 0.0146(8) 0.0254(9) -0.0069(7) -0.0125(7) 0.0011(6)
C3 0.0197(8) 0.0172(8) 0.0236(9) -0.0056(7) -0.0078(7) -0.0009(7)
C4 0.0233(9) 0.0130(8) 0.0182(8) -0.0012(6) -0.0091(7) -0.0054(6)
C5 0.0285(9) 0.0167(8) 0.0136(8) -0.0044(6) -0.0042(7) -0.0062(7)
C6 0.0276(9) 0.0207(9) 0.0137(8) -0.0018(6) -0.0026(7) -0.0102(7)
C7 0.0191(8) 0.0155(8) 0.0172(8) -0.0040(6) -0.0019(6) -0.0047(6)
C8 0.0179(8) 0.0155(8) 0.0153(8) -0.0061(6) -0.0004(6) -0.0047(6)
C9 0.0276(9) 0.0189(8) 0.0269(9) -0.0089(7) -0.0081(7) -0.0082(7)
C10 0.0219(9) 0.0195(8) 0.0241(9) -0.0086(7) 0.0037(7) -0.0091(7)
C11 0.0240(9) 0.0279(10) 0.0468(12) -0.0109(9) -0.0051(9) -0.0109(8)
C12 0.0343(10) 0.0253(9) 0.0234(9) -0.0038(7) 0.0024(8) -0.0153(8)
O3 0.0397(8) 0.0198(7) 0.0286(7) 0.0044(5) -0.0193(6) -0.0150(6)
loop_
_atom_type_symbol
_atom_type_description
_atom_type_scat_dispersion_real
_atom_type_scat_dispersion_imag
_atom_type_scat_source
C C 0.0033 0.0016 'International Tables Vol C Tables 4.2.6.8 and 6.1.1.4'
H H 0.0000 0.0000 'International Tables Vol C Tables 4.2.6.8 and 6.1.1.4'
N N 0.0061 0.0033 'International Tables Vol C Tables 4.2.6.8 and 6.1.1.4'
O O 0.0106 0.0060 'International Tables Vol C Tables 4.2.6.8 and 6.1.1.4'
loop_
_geom_angle_atom_site_label_1
_geom_angle_atom_site_label_2
_geom_angle_atom_site_label_3
_geom_angle
N2 N1 C1 120.41(12)
C8 N1 N2 113.05(13)
C8 N1 C1 126.39(14)
C7 N2 N1 104.18(12)
C7 N3 C9 124.47(13)
C8 N3 C7 109.07(13)
C8 N3 C9 126.43(13)
H4A N4 H4B 108.9(16)
C4 N4 H4A 105.8(11)
C4 N4 H4B 107.1(11)
C10 N4 H4A 107.3(11)
C10 N4 H4B 109.7(11)
C10 N4 C4 117.75(13)
N1 C1 H1 107.6
N1 C1 C2 110.89(14)
N1 C1 C6 110.40(14)
C2 C1 H1 107.6
C2 C1 C6 112.59(14)
C6 C1 H1 107.6
C1 C2 H2 117.8
C3 C2 C1 124.47(16)
C3 C2 H2 117.8
C2 C3 H3 118.7
C2 C3 C4 122.59(16)
C4 C3 H3 118.7
N4 C4 H4 109.0
C3 C4 N4 109.83(13)
C3 C4 H4 109.0
C5 C4 N4 106.67(13)
C5 C4 C3 113.25(13)
C5 C4 H4 109.0
C4 C5 H5 118.2
C6 C5 C4 123.59(15)
C6 C5 H5 118.2
C1 C6 H6 118.3
C5 C6 C1 123.34(16)
C5 C6 H6 118.3
O1 C7 N2 128.99(15)
O1 C7 N3 121.50(14)
N2 C7 N3 109.50(14)
O2 C8 N1 128.01(15)
O2 C8 N3 127.85(14)
N1 C8 N3 104.13(13)
N3 C9 H9A 109.5
N3 C9 H9B 109.5
N3 C9 H9C 109.5
H9A C9 H9B 109.5
H9A C9 H9C 109.5
H9B C9 H9C 109.5
N4 C10 H10 108.5
N4 C10 C11 111.15(14)
N4 C10 C12 107.47(14)
C11 C10 H10 108.5
C11 C10 C12 112.49(15)
C12 C10 H10 108.5
C10 C11 H11A 109.5
C10 C11 H11B 109.5
C10 C11 H11C 109.5
H11A C11 H11B 109.5
H11A C11 H11C 109.5
H11B C11 H11C 109.5
C10 C12 H12A 109.5
C10 C12 H12B 109.5
C10 C12 H12C 109.5
H12A C12 H12B 109.5
H12A C12 H12C 109.5
H12B C12 H12C 109.5
H3A O3 H3B 108(2)
loop_
_geom_bond_atom_site_label_1
_geom_bond_atom_site_label_2
_geom_bond_distance
O1 C7 1.256(2)
O2 C8 1.2519(19)
N1 N2 1.4092(18)
N1 C1 1.453(2)
N1 C8 1.343(2)
N2 C7 1.321(2)
N3 C7 1.407(2)
N3 C8 1.367(2)
N3 C9 1.451(2)
N4 H4A 0.98(2)
N4 H4B 0.97(2)
N4 C4 1.5171(19)
N4 C10 1.505(2)
C1 H1 1.0000
C1 C2 1.497(3)
C1 C6 1.500(2)
C2 H2 0.9500
C2 C3 1.322(2)
C3 H3 0.9500
C3 C4 1.501(2)
C4 H4 1.0000
C4 C5 1.501(2)
C5 H5 0.9500
C5 C6 1.322(2)
C6 H6 0.9500
C9 H9A 0.9800
C9 H9B 0.9800
C9 H9C 0.9800
C10 H10 1.0000
C10 C11 1.515(3)
C10 C12 1.521(2)
C11 H11A 0.9800
C11 H11B 0.9800
C11 H11C 0.9800
C12 H12A 0.9800
C12 H12B 0.9800
C12 H12C 0.9800
O3 H3A 0.88(2)
O3 H3B 0.84(3)
loop_
_geom_hbond_atom_site_label_D
_geom_hbond_atom_site_label_H
_geom_hbond_atom_site_label_A
_geom_hbond_distance_DH
_geom_hbond_distance_HA
_geom_hbond_distance_DA
_geom_hbond_angle_DHA
_geom_hbond_site_symmetry_A
N4 H4A O3 0.98(2) 1.70(2) 2.6723(18) 171.5(17) .
N4 H4B O2 0.97(2) 1.84(2) 2.8041(18) 178.0(17) 1_545
O3 H3A N2 0.88(2) 1.92(3) 2.7897(19) 170(2) .
O3 H3B O1 0.84(3) 1.84(3) 2.6345(17) 157(2) 2_766
loop_
_geom_torsion_atom_site_label_1
_geom_torsion_atom_site_label_2
_geom_torsion_atom_site_label_3
_geom_torsion_atom_site_label_4
_geom_torsion
N1 N2 C7 O1 -178.37(17)
N1 N2 C7 N3 0.40(18)
N1 C1 C2 C3 -127.82(17)
N1 C1 C6 C5 129.24(17)
N2 N1 C1 C2 74.82(19)
N2 N1 C1 C6 -50.7(2)
N2 N1 C8 O2 -177.08(15)
N2 N1 C8 N3 2.56(18)
N4 C4 C5 C6 -121.96(17)
C1 N1 N2 C7 -177.69(15)
C1 N1 C8 O2 -1.6(3)
C1 N1 C8 N3 178.05(15)
C1 C2 C3 C4 0.2(3)
C2 C1 C6 C5 4.7(2)
C2 C3 C4 N4 121.32(17)
C2 C3 C4 C5 2.2(2)
C3 C4 C5 C6 -1.0(2)
C4 N4 C10 C11 59.05(19)
C4 N4 C10 C12 -177.46(14)
C4 C5 C6 C1 -2.6(3)
C6 C1 C2 C3 -3.6(2)
C7 N3 C8 O2 177.44(16)
C7 N3 C8 N1 -2.20(17)
C8 N1 N2 C7 -1.90(19)
C8 N1 C1 C2 -100.37(19)
C8 N1 C1 C6 134.13(17)
C8 N3 C7 O1 -179.98(15)
C8 N3 C7 N2 1.14(18)
C9 N3 C7 O1 -1.6(2)
C9 N3 C7 N2 179.53(15)
C9 N3 C8 O2 -0.9(3)
C9 N3 C8 N1 179.45(15)
C10 N4 C4 C3 58.08(18)
C10 N4 C4 C5 -178.83(13)
