#------------------------------------------------------------------------------
#$Date: 2019-11-26 10:44:34 +0200 (Tue, 26 Nov 2019) $
#$Revision: 243255 $
#$URL: file:///home/coder/svn-repositories/cod/cif/4/13/34/4133486.cif $
#------------------------------------------------------------------------------
#
# This file is available in the Crystallography Open Database (COD),
# http://www.crystallography.net/
#
# All data on this site have been placed in the public domain by the
# contributors.
#
data_4133486
loop_
_publ_author_name
'Liu, Jie'
'Wei, Yongliang'
'Tang, Pingping'
_publ_section_title
;
 Cobalt-Catalyzed Trifluoromethoxylation of Epoxides.
;
_journal_issue                   45
_journal_name_full               'Journal of the American Chemical Society'
_journal_page_first              15194
_journal_page_last               15199
_journal_paper_doi               10.1021/jacs.8b10298
_journal_volume                  140
_journal_year                    2018
_chemical_formula_sum            'C11 H11 F3 O2'
_chemical_formula_weight         232.20
_space_group_crystal_system      triclinic
_space_group_IT_number           2
_space_group_name_Hall           '-P 1'
_space_group_name_H-M_alt        'P -1'
_atom_sites_solution_hydrogens   geom
_audit_creation_method           SHELXL-2018/3
_cell_angle_alpha                109.16(3)
_cell_angle_beta                 95.29(3)
_cell_angle_gamma                92.72(3)
_cell_formula_units_Z            2
_cell_length_a                   5.0280(10)
_cell_length_b                   10.144(2)
_cell_length_c                   10.796(2)
_cell_measurement_reflns_used    1305
_cell_measurement_temperature    113(2)
_cell_measurement_theta_max      27.8864
_cell_measurement_theta_min      2.0102
_cell_volume                     516.2(2)
_computing_cell_refinement       crystalclear
_computing_data_collection       crystalclear
_computing_data_reduction        crystalclear
_computing_molecular_graphics    'Bruker SHELXTL'
_computing_publication_material  'Bruker SHELXTL'
_computing_structure_refinement  'SHELXL-97 (Sheldrick, 1997)'
_computing_structure_solution    'SHELXS-97 (Sheldrick, 1990)'
_diffrn_ambient_temperature      113(2)
_diffrn_measured_fraction_theta_full 0.997
_diffrn_measured_fraction_theta_max 0.989
_diffrn_measurement_device_type  'rigaku saturn'
_diffrn_measurement_method       '\w scans'
_diffrn_radiation_type           MoK\a
_diffrn_radiation_wavelength     0.71073
_diffrn_reflns_av_R_equivalents  0.0565
_diffrn_reflns_av_unetI/netI     0.0780
_diffrn_reflns_Laue_measured_fraction_full 0.997
_diffrn_reflns_Laue_measured_fraction_max 0.989
_diffrn_reflns_limit_h_max       6
_diffrn_reflns_limit_h_min       -6
_diffrn_reflns_limit_k_max       13
_diffrn_reflns_limit_k_min       -13
_diffrn_reflns_limit_l_max       14
_diffrn_reflns_limit_l_min       -14
_diffrn_reflns_number            5757
_diffrn_reflns_point_group_measured_fraction_full 0.997
_diffrn_reflns_point_group_measured_fraction_max 0.989
_diffrn_reflns_theta_full        25.242
_diffrn_reflns_theta_max         27.853
_diffrn_reflns_theta_min         2.010
_diffrn_standards_decay_%        0
_diffrn_standards_interval_count 0
_diffrn_standards_interval_time  0
_diffrn_standards_number         0
_exptl_absorpt_coefficient_mu    0.137
_exptl_absorpt_correction_T_max  0.998
_exptl_absorpt_correction_T_min  0.997
_exptl_absorpt_correction_type   multi-scan
_exptl_crystal_colour            colourless
_exptl_crystal_density_diffrn    1.494
_exptl_crystal_description       block
_exptl_crystal_F_000             240
_exptl_crystal_size_max          0.240
_exptl_crystal_size_mid          0.020
_exptl_crystal_size_min          0.018
_refine_diff_density_max         0.296
_refine_diff_density_min         -0.352
_refine_diff_density_rms         0.060
_refine_ls_extinction_method     none
_refine_ls_goodness_of_fit_ref   0.995
_refine_ls_hydrogen_treatment    constr
_refine_ls_matrix_type           full
_refine_ls_number_parameters     146
_refine_ls_number_reflns         2442
_refine_ls_number_restraints     0
_refine_ls_restrained_S_all      0.995
_refine_ls_R_factor_all          0.0981
_refine_ls_R_factor_gt           0.0533
_refine_ls_shift/su_max          0.000
_refine_ls_shift/su_mean         0.000
_refine_ls_structure_factor_coef Fsqd
_refine_ls_weighting_details
'w=1/[\s^2^(Fo^2^)+(0.0499P)^2^] where P=(Fo^2^+2Fc^2^)/3'
_refine_ls_weighting_scheme      calc
_refine_ls_wR_factor_gt          0.1077
_refine_ls_wR_factor_ref         0.1246
_reflns_Friedel_coverage         0.000
_reflns_number_gt                1420
_reflns_number_total             2442
_reflns_threshold_expression     'I > 2\s(I)'
_cod_data_source_file            ja8b10298_si_002.cif
_cod_data_source_block           shelxl
_cod_depositor_comments
;
The following automatic conversions were performed:

data item '_exptl_absorpt_correction_type' value 'MULTI-SCAN' was
changed to 'multi-scan' in accordance with the
/home/saulius/struct/COD-crude-data/automatic-downloads/DataCite-retrospective/ACS/depositions/lib/dictionaries/cif_core.dic
dictionary named 'cif_core.dic' version 2.4.2 last updated on
2011-04-26.

Automatic conversion script
Id: cif_fix_values 6909 2019-04-08 15:41:33Z antanas 
;
_cod_original_cell_volume        516.1(2)
_cod_database_code               4133486
_shelx_shelxl_version_number     2018/3
_shelx_space_group_comment
;
The symmetry employed for this shelxl refinement is uniquely defined
by the following loop, which should always be used as a source of
symmetry information in preference to the above space-group names.
They are only intended as comments.
;
_shelx_estimated_absorpt_t_min   0.968
_shelx_estimated_absorpt_t_max   0.997
_shelx_res_file
;
TITL shelxl in P-1
    shelxl.res
    created by SHELXL-2018/3 at 16:37:42 on 18-Oct-2018
CELL 0.71073   5.0280  10.1437  10.7957 109.158  95.286  92.724
ZERR    2.00   0.0010   0.0020   0.0022   0.030   0.030   0.030
LATT 1
SFAC C  H  O  F
UNIT 22 22 4 6
ACTA
CONF
HTAB
SIZE 0.24 0.02 0.0.2
TEMP -160
L.S. 4
BOND $H
FMAP 2
PLAN 20
WGHT    0.049900
FVAR       1.31336
MOLE 1
F1    4    0.936907    0.104146    0.934383    11.00000    0.07017    0.06135 =
         0.04675    0.03707    0.03051    0.03601
F2    4    1.278414    0.019736    0.837879    11.00000    0.03679    0.04560 =
         0.06243    0.03309    0.00822    0.02100
F3    4    0.877733   -0.055120    0.743311    11.00000    0.04522    0.02743 =
         0.07562    0.02333    0.00539    0.00267
O1    3    0.758264    0.068182    0.506497    11.00000    0.02710    0.01918 =
         0.03100    0.00303    0.00580    0.00423
AFIX 147
H1    2    0.641542    0.018898    0.526319    11.00000   -1.50000
AFIX   0
O2    3    1.052451    0.157922    0.761467    11.00000    0.02107    0.02303 =
         0.03493    0.01642    0.00615    0.00864
C1    1    0.766874    0.209735    0.593030    11.00000    0.01573    0.01490 =
         0.02504    0.00367    0.00458    0.00168
AFIX  13
H1A   2    0.919697    0.265315    0.575473    11.00000   -1.20000
AFIX   0
C2    1    0.505472    0.271194    0.564999    11.00000    0.01545    0.02005 =
         0.02460    0.00653    0.00039    0.00318
AFIX  23
H2A   2    0.494469    0.276854    0.474872    11.00000   -1.20000
H2B   2    0.352457    0.207534    0.567859    11.00000   -1.20000
AFIX   0
C3    1    0.482125    0.416268    0.663218    11.00000    0.01701    0.02004 =
         0.02812    0.01111    0.00859    0.00419
C4    1    0.303465    0.504261    0.628482    11.00000    0.02159    0.02597 =
         0.02941    0.01364    0.00369    0.00469
AFIX  43
H4    2    0.205514    0.473903    0.543109    11.00000   -1.20000
AFIX   0
C5    1    0.268454    0.634958    0.717413    11.00000    0.03265    0.02872 =
         0.04295    0.02031    0.01304    0.01527
AFIX  43
H5    2    0.146595    0.693374    0.693087    11.00000   -1.20000
AFIX   0
C6    1    0.411938    0.679790    0.841726    11.00000    0.04408    0.02347 =
         0.03663    0.00859    0.01513    0.01495
AFIX  43
H6    2    0.389124    0.769214    0.902866    11.00000   -1.20000
AFIX   0
C7    1    0.589647    0.593546    0.876894    11.00000    0.03407    0.02766 =
         0.02695    0.00777    0.00622    0.00788
AFIX  43
H7    2    0.686975    0.624909    0.962429    11.00000   -1.20000
AFIX   0
C8    1    0.627611    0.461618    0.788700    11.00000    0.02012    0.02026 =
         0.02785    0.00990    0.00955    0.00496
C9    1    0.834799    0.373815    0.828311    11.00000    0.02609    0.02246 =
         0.02159    0.00662    0.00268    0.00702
AFIX  23
H9A   2    0.818744    0.377611    0.920109    11.00000   -1.20000
H9B   2    1.016424    0.414519    0.826013    11.00000   -1.20000
AFIX   0
C10   1    0.802154    0.221211    0.738108    11.00000    0.01801    0.02082 =
         0.02969    0.01185    0.00923    0.01055
AFIX  13
H10   2    0.646217    0.170487    0.758926    11.00000   -1.20000
AFIX   0
C11   1    1.033676    0.058659    0.817895    11.00000    0.03345    0.02768 =
         0.03747    0.01754    0.00931    0.01305
HKLF 4




REM  shelxl in P-1
REM wR2 = 0.1246, GooF = S = 0.995, Restrained GooF = 0.995 for all data
REM R1 = 0.0533 for 1420 Fo > 4sig(Fo) and 0.0981 for all 2442 data
REM 146 parameters refined using 0 restraints

END

WGHT      0.0634      0.0000

REM Instructions for potential hydrogen bonds
EQIV $1 -x+1, -y, -z+1
HTAB O1 O1_$1
HTAB C2 O1_$1

REM Highest difference peak  0.296,  deepest hole -0.352,  1-sigma level  0.060
Q1    1   0.4948  0.3585  0.6195  11.00000  0.05    0.30
Q2    1   0.5661  0.5170  0.8273  11.00000  0.05    0.24
Q3    1   0.7062  0.0455  0.4985  11.00000  0.05    0.23
Q4    1   0.7778  0.2997  0.7854  11.00000  0.05    0.23
Q5    1   0.9509  0.0701  0.5459  11.00000  0.05    0.23
Q6    1   0.9963  0.2339  0.8012  11.00000  0.05    0.22
Q7    1   0.9272  0.0076  0.5105  11.00000  0.05    0.21
Q8    1   0.5090  0.4350  0.7418  11.00000  0.05    0.21
Q9    1   0.5893  0.6064  0.9100  11.00000  0.05    0.21
Q10   1   0.7760  0.1402  0.5442  11.00000  0.05    0.21
Q11   1   0.7570  0.3987  0.8046  11.00000  0.05    0.21
Q12   1   0.6099  0.4590  0.7288  11.00000  0.05    0.20
Q13   1   1.0480  0.0675  0.6902  11.00000  0.05    0.20
Q14   1   0.5681  0.4366  0.7960  11.00000  0.05    0.19
Q15   1   0.6473  0.2345  0.5790  11.00000  0.05    0.19
Q16   1   0.6245  0.2775  0.6024  11.00000  0.05    0.19
Q17   1   1.2980 -0.0640  0.7538  11.00000  0.05    0.19
Q18   1   1.1123  0.1064  0.6344  11.00000  0.05    0.18
Q19   1   0.9638  0.2269  0.8925  11.00000  0.05    0.18
Q20   1   0.1816  0.7417  0.6814  11.00000  0.05    0.18
;
_shelx_res_checksum              13366
_shelx_hkl_file
;
   0   0   1   11.81    2.77
   0   0  -1   -3.72    2.53
   0   0   1   -1.06    1.74
   0   0  -1    9.70    2.25
   0   0  -1    2.12    1.52
   0   0   1    8.70    6.13
   0   0  -2 3074.85   55.04
   0   0   2 3180.69   57.12
   0   0   2 3098.68   53.71
   0   0   2 3117.15   53.13
   0   0  -2 3258.76   55.57
   0   0  -3 2744.49   53.31
   0   0   3 2781.42   51.76
   0   0   3 2587.99   47.96
   0   0  -3 2721.89   48.89
   0   0   3 2723.48   47.84
   0   0  -3 2795.41   49.93
   0   0  -4  155.95   13.29
   0   0   4  137.50   10.55
   0   0   4  141.35    7.71
   0   0  -4  139.16    8.39
   0   0  -5   20.53    9.88
   0   0   5   25.38    8.95
   0   0   5   26.21    7.60
   0   0  -6    9.84    9.33
   0   0   6    7.21    6.96
   0   0   6   21.10    6.26
   0   0  -7   30.20   15.08
   0   0   7    7.34    8.03
   0   0   7    0.34    5.43
   0   0  -8    3.46    9.80
   0   0   8    6.02    9.86
   0   0   8    7.09    3.91
   0   0  -9  174.61   19.75
   0   0   9  165.09   17.73
   0   0   9  181.64   15.55
   0   0 -10   20.34   24.31
   0   0  10   42.45   10.59
   0   0  10   24.00   18.36
   0   0 -11    3.64    3.86
   0   0  11    4.33    9.30
   0   0  11    5.60    6.82
   0   0 -12   48.12   29.91
   0   0  12   65.45   17.67
   0   0 -13    8.38   14.25
   0   0  13   19.38   14.05
   0   1 -13    5.34   12.03
   0  -1  13    8.16   11.56
   0   1 -12   44.13   49.20
   0  -1  12   69.00   19.56
   0   1 -11   21.28   17.99
   0  -1  11   43.41   13.18
   0  -1  11   27.64   15.10
   0   1 -10    3.87    5.79
   0  -1  10   -3.94   10.04
   0  -1  10    6.69    7.04
   0   1  -9   60.18   29.76
   0  -1   9   81.34   14.85
   0  -1   9   75.27    8.56
   0   1  -8   21.69   10.87
   0  -1   8   27.19    8.55
   0  -1   8   18.43    8.08
   0   1  -7    9.53    7.53
   0  -1   7   21.04    8.37
   0  -1   7   13.47    9.67
   0   1  -6  742.78   28.00
   0  -1   6  636.89   23.71
   0  -1   6  730.21   25.47
   0   1  -5 1324.38   42.03
   0  -1   5 1185.36   37.50
   0  -1   5 1352.14   37.27
   0   1  -5 1302.02   36.59
   0   1  -4 4144.46  116.07
   0  -1   4 3784.71  101.15
   0  -1   4 3712.57   67.94
   0  -1   4 3835.65   99.31
   0   1  -4 3738.85   64.41
   0   1  -3 1954.82   55.25
   0  -1   3 2107.32   41.61
   0  -1   3 1920.49   37.51
   0   1  -3 1945.21   36.84
   0  -1   3 1977.54   34.94
   0   1  -3 2165.97   38.11
   0   1  -2  737.38   17.50
   0  -1   2  773.54   17.84
   0  -1   2  785.66   17.34
   0   1  -2  802.20   16.92
   0  -1   2  777.51   14.73
   0   1  -2  806.89   14.90
   0   1   1 2213.63   40.10
   0  -1  -1 2178.76   41.04
   0   1   1 2253.67   42.73
   0  -1  -2   39.43   10.36
   0   1   2   48.25    7.58
   0   1   2   46.18    5.00
   0   1   2   50.65    8.49
   0  -1  -2   39.04    6.73
   0  -1  -3  312.05   15.42
   0   1   3  309.36   12.97
   0  -1  -3  305.52    9.83
   0   1   3  301.22   11.78
   0   1   3  327.98   13.64
   0  -1  -3  314.59   14.88
   0  -1  -4  287.58   14.86
   0   1   4  266.33   12.05
   0   1   4  287.07   13.37
   0  -1  -5  217.04   16.63
   0   1   5  189.14   12.07
   0   1   5  215.60   21.73
   0  -1  -6   30.34   11.91
   0   1   6   15.07    6.92
   0   1   6   10.17    5.52
   0  -1  -7   13.60   10.25
   0   1   7   30.76    8.57
   0   1   7   28.06    8.23
   0  -1  -8    4.77   10.79
   0   1   8    8.77    9.27
   0   1   8   -1.26    6.51
   0  -1  -9  242.40   22.12
   0   1   9  248.80   21.82
   0   1   9  287.98   16.61
   0  -1 -10   10.77   13.09
   0   1  10    9.15   10.15
   0   1  10    7.37    5.70
   0  -1 -11   65.04   61.60
   0   1  11   83.79   12.54
   0   1  11   98.03   10.55
   0  -1 -12   26.08   48.04
   0   1  12   55.67   15.17
   0   1  12   66.38   10.60
   0   2 -13    3.11    5.80
   0  -2  13    2.13    5.11
   0   2 -12   10.79   36.88
   0  -2  12   -5.93   10.98
   0   2 -11    8.27   10.41
   0  -2  11    6.65   11.15
   0  -2  11    1.98    3.78
   0   2 -10   35.92   27.09
   0  -2  10   47.02   10.95
   0  -2  10   28.48   18.71
   0   2  -9   88.54   12.92
   0  -2   9   84.28   13.38
   0  -2   9   83.91    8.58
   0   2  -8    6.07    5.57
   0  -2   8    7.54    8.59
   0  -2   8    5.77    4.01
   0   2  -7  155.98   13.38
   0  -2   7  197.84   32.44
   0  -2   7  172.29    9.75
   0   2  -6 1172.80   35.88
   0  -2   6 1152.90   35.24
   0  -2   6 1163.69   29.40
   0   2  -5  466.09   21.75
   0  -2   5  464.17   19.24
   0  -2   5  468.85   14.78
   0   2  -5  498.95   15.73
   0   2  -4  162.80   15.15
   0  -2   4  143.70   17.30
   0  -2   4  148.11    8.27
   0  -2   4  177.37    6.96
   0   2  -4  153.34    9.68
   0  -2   3 1310.71   28.54
   0   2  -3 1308.94   26.81
   0  -2   3 1337.84   28.35
   0   2  -3 1345.75   24.70
   0   2  -2 2391.71   42.29
   0  -2   2 2477.39   44.50
   0  -2   2 2344.18   42.08
   0   2  -2 2339.06   41.81
   0   2  -2 2489.92   44.53
   0  -2   1  266.21    9.15
   0   2  -1  273.19   12.65
   0  -2   1  256.60    6.75
   0   2  -1  261.46    6.76
   0  -2   1  241.46    8.52
   0   2  -1  264.49   14.43
   0  -2   0 1624.66   32.16
   0   2   0 1511.24   28.80
   0  -2   0 1638.02   28.97
   0   2   0 1582.30   27.72
   0  -2   0 1522.75   34.73
   0   2   0 1438.94   36.29
   0  -2  -1 1940.10   41.77
   0   2   1 1997.93   38.24
   0   2   1 1967.03   34.19
   0   2   1 1797.16   41.64
   0  -2  -1 2060.79   45.56
   0  -2  -2  131.97   11.64
   0   2   2  112.64   15.63
   0   2   2  135.40   11.61
   0  -2  -2  121.31   16.48
   0  -2  -3   53.05   11.83
   0   2   3   45.99    6.74
   0   2   3   35.75    7.89
   0  -2  -4   10.53    9.30
   0   2   4   21.80    8.18
   0   2   4    5.59    7.75
   0  -2  -5   71.88   35.30
   0   2   5   78.09    9.04
   0   2   5   80.77   11.79
   0  -2  -6  406.66   30.76
   0   2   6  317.12   19.50
   0   2   6  327.57   30.59
   0  -2  -7  605.69   32.19
   0   2   7  558.46   25.82
   0   2   7  571.30   23.28
   0  -2  -8   85.81   16.10
   0   2   8   68.74   10.80
   0   2   8   79.90   26.82
   0  -2  -9   -1.49   11.91
   0   2   9   -1.18   10.35
   0   2   9    8.23    6.67
   0  -2 -10   -3.93   13.38
   0   2  10    7.92   10.99
   0   2  10    3.39    3.44
   0  -2 -11   13.51   13.02
   0   2  11   11.17    9.68
   0   2  11    7.02    6.01
   0  -2 -12   37.16   49.38
   0   2  12   74.51   16.73
   0   2  12   19.60   22.15
   0   3 -14   -0.48    8.54
   0  -3  14   12.31   15.54
   0   3 -13   36.59   14.42
   0  -3  13   24.59   10.28
   0   3 -12   93.38   14.66
   0  -3  12   73.33   14.70
   0   3 -11   59.79   39.85
   0  -3  11   60.99   42.04
   0  -3  11   59.66    8.52
   0   3 -10   30.43   30.26
   0  -3  10   67.24   20.92
   0  -3  10   58.68   17.13
   0   3  -9    9.80    8.24
   0  -3   9   44.69   12.20
   0  -3   9   23.09   15.32
   0   3  -8   18.86    8.55
   0  -3   8    4.23    9.49
   0  -3   8   17.40   10.04
   0   3  -7   63.57   12.36
   0  -3   7   75.54   13.72
   0  -3   7   81.27    7.35
   0   3  -6  108.51   12.36
   0  -3   6  114.02   38.22
   0  -3   5  111.89   10.08
   0   3  -5   99.85    5.32
   0  -3   4  140.28    8.00
   0  -3   4  147.92   10.02
   0   3  -4  129.66    5.72
   0  -3   3 2710.61   49.80
   0   3  -3 2750.80   49.70
   0  -3   3 2679.59   49.34
   0   3  -3 2701.27   49.61
   0   3  -3 2766.12   50.30
   0  -3   2 2230.76   41.95
   0  -3   2 2236.46   40.19
   0   3  -2 2242.96   40.27
   0   3  -2 2147.68   46.12
   0  -3   2 2377.06   43.59
   0  -3   1  165.31   13.69
   0   3  -1  163.72   11.49
   0  -3   1  146.96    5.63
   0   3  -1  162.94    5.95
   0   3  -1  156.62   19.73
   0  -3   1  139.85   14.03
   0  -3   0  229.84   11.21
   0   3   0  222.35    9.59
   0  -3   0  247.45    6.88
   0   3   0  256.24    7.74
   0   3   0  232.20   24.33
   0  -3   0  233.86   18.66
   0  -3  -1  323.45   15.15
   0   3   1  326.06    8.91
   0   3   1  247.56   20.26
   0  -3  -2  725.76   23.22
   0   3   2  658.28   14.38
   0   3   2  749.89   28.50
   0  -3  -3  367.35   19.23
   0   3   3  456.72   16.95
   0   3   3  490.75   24.98
   0  -3  -4   34.14   11.18
   0   3   4   43.19    7.43
   0   3   4   35.83    8.83
   0  -3  -5  556.81   30.83
   0   3   5  548.37   27.11
   0   3   5  671.28   33.09
   0  -3  -6 1383.30   52.49
   0   3   6 1285.66   43.38
   0   3   6 1469.09   49.59
   0  -3  -7 1367.45   92.50
   0   3   7 1275.87   83.11
   0   3   7 1459.46   94.24
   0  -3  -8  293.85   22.59
   0   3   8  235.16   16.40
   0   3   8  275.36   17.51
   0  -3  -9   86.35   15.57
   0   3   9   85.91   14.96
   0   3   9   76.79   32.89
   0  -3 -10   30.70   14.81
   0   3  10   39.67   11.89
   0   3  10   46.67   11.41
   0  -3 -11   12.10   11.91
   0   3  11    5.31    9.11
   0   3  11   -0.21    7.27
   0  -4  14    2.95    9.12
   0   4 -13   18.07   13.71
   0  -4  13    8.40   11.54
   0   4 -12   18.17    8.65
   0  -4  12   11.65   10.97
   0   4 -11   -0.61    9.75
   0  -4  11    0.49    9.23
   0   4 -10   76.02   16.53
   0  -4  10   62.06   11.94
   0   4  -9  106.18   15.53
   0  -4   9   88.40   13.34
   0  -4   8   23.52    9.25
   0  -4   7   68.65   13.20
   0  -4   7   57.12   29.03
   0  -4   6   47.92   20.03
   0  -4   6   40.47   14.29
   0   4  -6   52.02    9.88
   0  -4   5 1902.90   53.01
   0  -4   5 1898.79   53.90
   0   4  -5 2050.56   56.73
   0  -4   4   51.49    6.00
   0  -4   4   64.34    6.65
   0   4  -4   61.97    9.24
   0  -4   3 3238.80   60.59
   0  -4   3 3134.29   57.78
   0   4  -3 3260.64   63.47
   0  -4   2  549.32   17.98
   0  -4   2  495.40   12.29
   0   4  -2  499.16   12.60
   0   4  -2  512.09   32.39
   0  -4   1   45.47    7.22
   0  -4   1   52.45   10.75
   0   4  -1   42.92    4.08
   0   4  -1   44.31   29.63
   0  -4   0    7.00    8.99
   0  -4   0    1.25    1.98
   0   4   0    1.36    2.64
   0   4   0  -14.17   19.66
   0  -4  -1 3895.75   63.16
   0  -4  -2  465.29   22.64
   0   4   2  377.79   25.91
   0  -4  -3  601.37   27.50
   0   4   3  620.48   20.69
   0   4   3  618.51   31.64
   0  -4  -4   31.70    9.85
   0   4   4   46.83    8.99
   0   4   4   39.28   12.40
   0  -4  -5   27.28   10.65
   0   4   5   21.00   11.30
   0   4   5   18.15    9.56
   0  -4  -6   58.44   14.28
   0   4   6   51.62   11.29
   0   4   6   49.44   15.34
   0  -4  -7  147.95   21.46
   0   4   7  154.15   15.02
   0   4   7  138.93   60.35
   0  -4  -8    0.19   10.95
   0   4   8   16.61   11.83
   0   4   8   -1.79    7.95
   0  -4  -9    1.48   12.30
   0   4   9   -0.15    7.02
   0   4   9    9.23   12.60
   0  -4 -10   22.49   15.27
   0   4  10    1.14    6.99
   0   4  10   -0.63    7.55
   0  -4 -11   18.82   12.09
   0   4  11    3.06    7.91
   0   4  11   14.00   13.84
   0  -5  14    6.64    9.16
   0  -5  14   18.42   11.25
   0  -5  13   16.33   11.48
   0  -5  13   -3.97    9.99
   0  -5  12    3.30    5.97
   0  -5  12   -1.40    5.50
   0  -5  11   15.83    7.55
   0  -5  11    7.14    8.38
   0  -5  10    1.28    7.26
   0  -5  10    8.79    7.22
   0  -5   9  188.90   33.98
   0  -5   9  200.84   52.45
   0   5  -9  263.96   21.72
   0  -5   8    1.44    5.13
   0  -5   8    5.76    7.26
   0   5  -8    2.25    5.86
   0  -5   7    4.14    4.74
   0  -5   7    7.20    6.63
   0   5  -7   -1.13    6.30
   0  -5   6  150.09   11.31
   0  -5   6  158.11   12.88
   0   5  -6  129.35   10.76
   0  -5   5  384.29   15.41
   0  -5   5  390.09   16.77
   0   5  -5  338.16   19.42
   0  -5   4   62.07   24.40
   0  -5   4   54.99    5.55
   0   5  -4   70.22   17.51
   0  -5   3  457.30   31.76
   0  -5   3  443.81   15.30
   0   5  -3  417.00   28.94
   0  -5   2  665.24   24.37
   0  -5   2  600.66   18.47
   0   5  -2  645.45   34.48
   0  -5   1    4.33    7.77
   0  -5   1   13.58    6.00
   0   5  -1    5.12    2.62
   0   5  -1   25.59   17.97
   0  -5   0   62.16   11.40
   0  -5   0   60.70    6.31
   0   5   0   77.81   29.25
   0  -5  -1  144.08   14.25
   0   5   1  116.44   21.13
   0  -5  -2  488.72   24.59
   0   5   2  428.37   28.00
   0  -5  -3   85.05   12.11
   0   5   3  107.11   20.82
   0  -5  -4  219.99   17.13
   0   5   4  267.48   15.29
   0   5   4  268.09   20.53
   0  -5  -5   17.91   12.11
   0   5   5   19.24    7.34
   0   5   5    9.76   10.04
   0  -5  -6    8.07   14.05
   0   5   6   11.36    7.67
   0   5   6   19.18   10.94
   0  -5  -7  255.69   50.16
   0   5   7  312.96   25.63
   0   5   7  339.94   25.25
   0  -5  -8   21.92   13.09
   0   5   8    6.13    7.86
   0   5   8    6.52    6.30
   0  -5  -9    4.55   14.40
   0   5   9    1.73    7.31
   0   5   9    9.40    7.51
   0  -5 -10   12.06   12.61
   0   5  10   17.95   12.21
   0   5  10    2.32    7.23
   0  -6  14    0.20    5.03
   0  -6  13    8.19    5.97
   0  -6  13    6.75    8.15
   0  -6  12   17.45    6.53
   0  -6  12    6.07   12.44
   0  -6  11   18.73   11.26
   0  -6  11   16.32    9.72
   0   6 -11    8.90    6.80
   0  -6  10   17.17   13.61
   0  -6  10   25.21    8.99
   0   6 -10   20.65    9.10
   0  -6   9    7.19    6.15
   0  -6   9   13.95    9.01
   0   6  -9   12.82    8.13
   0  -6   8   49.49   21.92
   0  -6   8   42.32    9.36
   0   6  -8   48.20   10.51
   0  -6   7   45.20    9.76
   0  -6   7   31.90   16.75
   0   6  -7   17.70   10.74
   0  -6   6   23.23    7.74
   0  -6   6   12.63    4.92
   0   6  -6   23.75   12.52
   0  -6   5 3005.28   49.94
   0  -6   5 2954.58   30.43
   0   6  -5 2809.72  113.88
   0  -6   4  263.27   15.51
   0  -6   4  276.26   11.78
   0   6  -4  288.45   32.77
   0  -6   3  268.28   35.24
   0  -6   3  186.07    8.59
   0   6  -3  221.30   31.16
   0  -6   2  673.23   39.07
   0  -6   2  636.26   20.72
   0   6  -2  729.10   40.30
   0  -6   1   83.81   12.01
   0  -6   1   82.07    7.11
   0   6  -1   69.13   20.06
   0  -6   0  125.51   13.84
   0  -6   0  138.59    7.21
   0   6   0  124.11   22.26
   0  -6  -1   27.41   12.30
   0   6   1   44.51   26.82
   0  -6  -2  131.82   15.28
   0   6   2  125.40   18.34
   0  -6  -3   48.92   14.87
   0   6   3   54.83   20.75
   0  -6  -4  234.56   26.77
   0   6   4  208.45   17.58
   0   6   4  211.39   24.43
   0  -6  -5   15.37   12.86
   0   6   5    8.42    9.13
   0   6   5   16.43   10.58
   0  -6  -6   -3.06   12.33
   0   6   6   33.70    7.28
   0   6   6    0.77    8.56
   0  -6  -7   31.87   20.10
   0   6   7   25.29    6.39
   0   6   7   43.19   17.84
   0  -6  -8   84.72   19.08
   0   6   8   75.48   16.14
   0   6   8   55.06   39.37
   0  -6  -9    3.66   11.08
   0   6   9    7.16    7.66
   0   6   9    4.23    6.82
   0  -7  13    7.33    7.10
   0  -7  13   12.77   10.09
   0  -7  12    0.53    6.47
   0  -7  12   12.97   10.13
   0  -7  11  362.14   28.89
   0  -7  11  397.65   22.50
   0  -7  10  275.55   28.49
   0  -7  10  259.79   20.91
   0   7 -10  254.63   20.92
   0  -7   9  434.82   22.20
   0  -7   9  416.37   22.33
   0   7  -9  398.49   25.62
   0  -7   8   10.02    7.75
   0  -7   8   14.92    8.95
   0   7  -8   26.42   16.30
   0  -7   7   13.94    6.83
   0  -7   7   16.70    6.35
   0   7  -7   12.69   12.41
   0  -7   6   33.70   10.25
   0  -7   6   23.35    6.97
   0   7  -6   54.11   24.12
   0  -7   5  101.87   10.30
   0  -7   5  121.70   10.74
   0   7  -5   96.11   19.26
   0  -7   4   11.36    7.99
   0  -7   4   13.66    5.43
   0   7  -4   10.37   22.22
   0  -7   3   60.03   19.89
   0  -7   3   66.29    7.04
   0   7  -3   91.29   22.36
   0  -7   2   16.16   11.60
   0  -7   2   26.63    3.71
   0   7  -2   37.62   22.27
   0  -7   1  115.14   14.76
   0  -7   1  103.07    7.73
   0   7  -1   87.77   31.26
   0  -7   0  294.46   20.07
   0  -7   0  288.28   11.67
   0   7   0  237.96   25.38
   0  -7  -1  103.32   26.07
   0   7   1  117.16   27.43
   0  -7  -2   16.91   12.93
   0   7   2   23.79   15.15
   0  -7  -3   14.65   14.09
   0   7   3   22.32   16.39
   0  -7  -4  120.46   15.70
   0   7   4  103.09   10.34
   0   7   4  149.86   20.96
   0  -7  -5    6.03   11.11
   0   7   5    7.26    7.20
   0   7   5    6.91    9.88
   0  -7  -6    7.43   13.23
   0   7   6    1.35    4.87
   0   7   6    7.74   10.10
   0  -7  -7   29.66   16.19
   0   7   7    3.69    5.97
   0   7   7   25.55   16.09
   0  -7  -8   40.47   25.06
   0   7   8   53.84   12.18
   0   7   8   40.83   31.30
   0  -8  13    3.53    6.92
   0  -8  13    4.06    8.47
   0  -8  12   66.32   27.65
   0  -8  12   49.07   11.60
   0  -8  11  184.19   13.29
   0  -8  11  193.48   16.55
   0  -8  10   26.58    8.37
   0  -8  10   26.53   17.35
   0   8 -10   29.80   12.13
   0  -8   9   61.03   10.21
   0  -8   9   73.96   10.04
   0   8  -9   68.92   17.25
   0  -8   8   39.46   26.87
   0  -8   8   37.67   15.43
   0   8  -8   60.90   19.65
   0  -8   7   47.92   10.39
   0  -8   7   33.30    7.02
   0   8  -7    8.67   15.69
   0  -8   6   10.96    6.79
   0  -8   6   -0.94    5.58
   0   8  -6    4.49   17.95
   0  -8   5  200.35   18.02
   0  -8   5  214.02   13.14
   0   8  -5  181.98   25.80
   0  -8   4   42.10   23.81
   0  -8   4   33.50   18.22
   0   8  -4   25.78   20.94
   0  -8   3  209.37   25.23
   0  -8   3  195.38   10.04
   0   8  -3  182.15   35.92
   0  -8   2   35.97   10.51
   0  -8   2   47.99   19.48
   0   8  -2   50.24   25.36
   0  -8   1    9.07   10.27
   0  -8   1   11.85    4.40
   0   8  -1    7.82   27.37
   0  -8   0   36.44   12.09
   0  -8   0   29.98   11.22
   0   8   0   25.61   20.18
   0  -8  -1   31.88    9.22
   0   8   1   24.81   17.18
   0  -8  -2    1.27   14.89
   0   8   2   -0.31   15.29
   0  -8  -3    4.99    9.22
   0   8   3    9.32    4.69
   0   8   3   15.92   16.32
   0  -8  -4   81.01   20.91
   0   8   4   59.99    8.05
   0   8   4   59.64   20.18
   0  -8  -5   13.82   13.58
   0   8   5    4.83    4.93
   0   8   5   -1.13   11.20
   0  -8  -6   23.41   14.57
   0   8   6   16.91    8.12
   0   8   6    4.88    9.71
   0  -8  -7   82.49   24.85
   0   8   7   96.44   18.53
   0   8   7   44.21   13.44
   0  -9  12   -1.75    7.80
   0  -9  12    3.04    8.63
   0  -9  11    2.29    4.79
   0  -9  11   -3.45    7.49
   0  -9  10    6.50    5.66
   0  -9  10   18.90    7.89
   0   9 -10   21.17   13.87
   0  -9   9   42.78   10.11
   0  -9   9   54.33   10.17
   0   9  -9   40.37   14.64
   0  -9   8  107.41   42.70
   0  -9   8  126.41   13.03
   0   9  -8  112.75   23.42
   0  -9   7   -0.58    9.79
   0  -9   7    4.25    6.56
   0   9  -7  -12.64   19.01
   0  -9   6   11.93    7.33
   0  -9   6    5.11    5.20
   0   9  -6    9.14   22.25
   0  -9   5   31.71    9.78
   0  -9   5   24.46   13.21
   0   9  -5   55.09   31.56
   0  -9   4   58.56   24.11
   0  -9   4   50.83    6.78
   0   9  -4   63.26   19.70
   0  -9   3   64.65   19.31
   0  -9   3   54.52   13.99
   0   9  -3   74.77   27.22
   0  -9   2  161.94   17.89
   0  -9   2  123.02    7.80
   0   9  -2  157.19   36.30
   0  -9   1    6.16   11.64
   0  -9   1   11.52    5.21
   0   9  -1   21.28   19.16
   0  -9   0  160.80   22.55
   0   9   0  128.51   33.13
   0  -9  -1  126.69   20.03
   0   9   1  113.53   24.02
   0  -9  -2  196.24   28.57
   0   9   2  185.55   27.29
   0  -9  -3   19.51   14.11
   0   9   3   11.28    6.32
   0   9   3    7.83   15.32
   0  -9  -4  162.27   24.75
   0   9   4  137.39   11.61
   0   9   4  119.20   16.49
   0  -9  -5    1.28   12.64
   0   9   5    4.20   11.38
   0  -9  -6    9.32   12.58
   0   9   6   -1.37   10.04
   0 -10  12    6.17    7.27
   0 -10  12    2.12    7.06
   0 -10  11    2.24    7.02
   0 -10  11   -4.63    6.54
   0 -10  10    5.13    4.98
   0 -10  10    2.16    7.15
   0 -10   9   18.61   20.79
   0 -10   9   37.42    9.50
   0  10  -9   40.20   17.91
   0 -10   8   38.54   20.74
   0 -10   8   58.31   10.38
   0  10  -8   47.57   24.15
   0 -10   7   38.25   16.68
   0 -10   7   17.06   10.92
   0  10  -7   42.31   24.87
   0 -10   6   21.65   17.18
   0 -10   6   19.38   11.07
   0  10  -6   27.05   21.13
   0 -10   5    2.07    4.62
   0 -10   5    2.89    5.84
   0  10  -5  -13.33   21.11
   0 -10   4 1287.98   46.15
   0 -10   4 1153.92   58.32
   0  10  -4 1214.47   84.57
   0 -10   3  135.03   23.54
   0 -10   3  100.18    8.71
   0  10  -3   85.97   34.80
   0 -10   2  385.13   36.61
   0 -10   2  352.81   19.28
   0  10  -2  361.34   36.20
   0 -10   1   -3.12   15.15
   0 -10   1    0.34    2.19
   0  10  -1   11.95   18.75
   0 -10   0    9.15   12.99
   0  10   0   19.90   18.63
   0 -10  -1   25.24   14.11
   0  10   1    2.09   20.78
   0 -10  -2  -15.94   14.12
   0  10   2   18.63   18.72
   0 -10  -3    9.44   15.06
   0  10   3    6.78   15.98
   0 -10  -4   15.28   14.22
   0  10   4    4.67   12.08
   0 -10  -5  -15.04   13.61
   0  10   5   10.38   10.85
   0 -11  11   -2.31    8.12
   0 -11  11   14.58    6.44
   0 -11  10   50.95   28.10
   0 -11  10   62.88   36.38
   0 -11   9   10.02    6.80
   0 -11   9   21.17    6.84
   0  11  -9  -10.97   17.92
   0 -11   8  451.42   24.40
   0 -11   8  478.30   18.38
   0  11  -8  394.90   52.66
   0 -11   7   -6.57   10.71
   0 -11   7    0.86    4.73
   0  11  -7    4.37   17.40
   0 -11   6   14.46    8.57
   0 -11   6    4.49    5.45
   0  11  -6   11.00   20.15
   0 -11   5   -4.13   11.41
   0 -11   5    3.95    5.43
   0  11  -5    2.95   17.20
   0 -11   4   36.60   13.38
   0 -11   4   29.65   25.58
   0  11  -4   44.93   21.53
   0 -11   3   39.78   14.49
   0 -11   3   14.55    5.20
   0  11  -3   30.08   21.69
   0 -11   2   11.69   14.09
   0  11  -2   38.88   21.50
   0 -11   1   10.63   11.13
   0  11  -1   21.66   20.66
   0 -11   0   33.02   24.05
   0  11   0   41.44   21.56
   0 -11  -1   25.44   16.84
   0  11   1   12.30   16.47
   0 -11  -2   28.00   15.47
   0  11   2   18.38   17.32
   0 -11  -3   14.39   18.41
   0  11   3   16.27   23.11
   0 -12  10   16.03   19.75
   0 -12  10   13.16   12.96
   0 -12   9   16.18   16.73
   0 -12   9   19.51    8.05
   0  12  -9   23.32   17.43
   0 -12   8    7.35    9.02
   0 -12   8    5.79    5.57
   0  12  -8   27.15   24.58
   0 -12   7   43.76   17.26
   0 -12   7   19.04   16.62
   0  12  -7   24.57   18.81
   0 -12   6   55.85   13.89
   0  12  -6   47.96   20.15
   0 -12   5   16.62   13.49
   0  12  -5   21.20   16.57
   0 -12   4   21.86   13.71
   0  12  -4   22.17   17.02
   0 -12   3   28.27   13.45
   0  12  -3   51.84   25.50
   0 -12   2   12.10   11.12
   0  12  -2  -11.66   17.94
   0 -12   1    5.30    9.95
   0  12  -1   16.23   30.77
   0 -12   0   24.84   17.50
   0  12   0   18.66   19.25
   0 -12  -1    1.58   14.46
   0  12   1   12.05   17.07
   0 -13   7    6.05    6.14
   0  13  -7   17.95   17.23
   0 -13   6    9.75   13.13
   0  13  -6   36.29   23.27
   0 -13   5   13.37   12.24
   0  13  -5   26.72   23.49
   0 -13   4   14.28   12.70
   0  13  -4   13.92   17.83
   0 -13   3    5.16    5.19
   0  13  -3   -4.16   14.79
   0 -13   2    6.82   12.66
   0  13  -2   32.70   23.91
   1 -13   2   10.36   14.24
  -1  13  -2   20.62   23.10
   1 -13   3    9.98   15.86
  -1  13  -3   24.00   21.01
   1 -13   4   11.59   14.07
  -1  13  -4   10.60   15.73
   1 -13   5   -5.24   11.23
  -1  13  -5   10.78   14.76
   1 -13   6    0.60   10.58
  -1  13  -6    2.94   11.20
   1 -13   7  142.72   45.92
   1 -12  -1  197.72   27.15
  -1  12   1  235.24   26.67
   1 -12   0   17.35   14.43
  -1  12   0   16.90   19.60
   1 -12   1   77.81   42.32
  -1  12  -1  121.13   26.89
   1 -12   2   18.71   14.60
  -1  12  -2   23.28   17.48
  -1  12  -3  130.62   28.25
   1 -12   4  107.55   22.53
  -1  12  -4   69.54   20.24
   1 -12   5   10.80   10.51
  -1  12  -5   11.74   20.24
   1 -12   6   40.50   12.39
  -1  12  -6   19.12   13.50
   1 -12   7   16.17   11.97
  -1  12  -7    9.09   12.37
   1 -12   8   33.98   20.97
   1 -12   9    4.45    8.44
   1 -11  -3   10.60   12.98
  -1  11   3   26.63   12.65
   1 -11  -2   55.89   19.64
  -1  11   2   40.04   17.68
   1 -11  -1   -3.28   15.10
  -1  11   1    6.69    9.63
   1 -11   0    9.03   10.69
  -1  11   0   11.04   17.02
   1 -11   1   71.93   17.29
  -1  11  -1   39.16   26.69
   1 -11   2   99.12   20.14
  -1  11  -2  117.10   27.61
   1 -11   3  212.70   33.01
  -1  11  -3  241.20   29.27
   1 -11   4  154.32   77.06
  -1  11  -4  161.70   23.60
   1 -11   5   10.14   16.12
  -1  11  -5   15.02   13.63
   1 -11   6   90.45   33.44
  -1  11  -6   67.88   14.59
   1 -11   7   93.81   37.97
  -1  11  -7   75.81   21.81
   1 -11   8   22.76   11.84
   1 -11   8   28.53    7.08
   1 -11   9    2.27    5.41
   1 -11   9    4.89    5.18
   1 -11  10   -0.82    7.44
   1 -11  10   -1.88    4.90
   1 -11  11    7.86    7.54
   1 -11  11    1.32    4.62
   1 -10  -5    9.78   12.15
  -1  10   5   23.22   18.33
   1 -10  -4   18.23   15.33
  -1  10   4    0.88   10.90
   1 -10  -3    0.17   14.00
  -1  10   3    6.92   10.73
   1 -10  -2   84.51   20.51
  -1  10   2   75.87   16.67
   1 -10  -1   -2.60   13.64
  -1  10   1   10.86   12.76
   1 -10   0   17.01   14.40
  -1  10   0    0.62   16.52
   1 -10   1    6.71   13.36
  -1  10  -1   12.60   19.67
   1 -10   2   57.66   16.07
  -1  10  -2   94.62   25.92
   1 -10   3  131.54   38.65
  -1  10  -3  168.90   24.91
   1 -10   4    6.39    9.16
   1 -10   4    6.83    4.07
  -1  10  -4   23.81   16.50
   1 -10   5  178.50   20.22
   1 -10   5  172.76   11.50
  -1  10  -5  152.79   23.66
   1 -10   6  303.94   19.92
   1 -10   6  299.53   11.93
  -1  10  -6  298.39   26.57
   1 -10   7    2.29    5.47
   1 -10   7   -0.16    2.99
  -1  10  -7   -1.31   10.66
   1 -10   8  294.83   26.65
   1 -10   8  253.53   19.99
  -1  10  -8  233.77   29.45
   1 -10   9    5.93    4.82
   1 -10   9    4.15    6.09
   1 -10  10    3.70    3.50
   1 -10  10    8.70    8.33
   1 -10  11    4.33    7.63
   1 -10  11    7.40    6.81
   1  -9  -6   27.80   12.79
  -1   9   6    7.70    7.63
   1  -9  -5    6.12   11.92
  -1   9   5   -4.77   11.04
   1  -9  -4   12.15   16.05
  -1   9   4    3.13    6.02
   1  -9  -3    3.19   12.77
  -1   9   3   14.85   13.40
   1  -9  -2   22.39   16.52
  -1   9   2    9.28    6.81
   1  -9  -1   17.51   13.43
  -1   9   1   29.84   14.47
   1  -9   0   29.59   20.28
  -1   9   0   12.90   16.12
   1  -9   1   59.12   22.48
  -1   9  -1   47.67   18.60
   1  -9   2 1816.86   40.93
   1  -9   2 1629.09   48.52
   1  -9   3   29.25   14.05
   1  -9   3   22.09   10.59
  -1   9  -3   30.03   15.17
   1  -9   4  365.80   27.96
   1  -9   4  369.44   14.71
  -1   9  -4  397.25   34.36
   1  -9   5  114.69   20.95
   1  -9   5   98.00    7.32
  -1   9  -5  102.11   20.64
   1  -9   6  101.38   36.59
   1  -9   6   96.89    8.27
  -1   9  -6  117.62   25.10
   1  -9   7   63.25   12.57
   1  -9   7   42.45    7.36
  -1   9  -7   63.86   20.40
   1  -9   8   -3.42    8.28
   1  -9   8    9.54    5.59
  -1   9  -8   10.58    9.91
   1  -9   9   17.54    9.80
   1  -9   9   11.70    6.68
   1  -9  10   13.90   12.65
   1  -9  10    8.78    6.41
   1  -9  11   12.01    5.56
   1  -9  11   27.58    9.16
   1  -9  12    3.77    8.30
   1  -9  12   -0.93    8.33
   1  -8  -7   27.63   13.54
  -1   8   7    7.69    9.92
   1  -8  -6    8.01   13.71
  -1   8   6    7.81   13.82
   1  -8  -5   13.49   13.12
  -1   8   5    7.18   10.13
   1  -8  -4   40.77   15.89
  -1   8   4   57.63   19.79
   1  -8  -3  115.64   22.36
  -1   8   3   93.14    9.50
  -1   8   3   55.36   13.50
   1  -8  -2   69.32   14.01
  -1   8   2   66.33    6.63
  -1   8   2   80.09   14.88
   1  -8  -1    0.18   12.68
  -1   8   1    3.32    3.12
  -1   8   1   -3.96   14.47
   1  -8   0  573.86   44.21
  -1   8   0  613.72   49.82
   1  -8   1  266.48   28.11
   1  -8   1  257.09    9.12
  -1   8  -1  324.85   31.28
   1  -8   2  590.44   51.08
   1  -8   2  488.93   15.21
  -1   8  -2  537.61   35.46
   1  -8   3    3.32    6.19
   1  -8   3    2.31    1.95
  -1   8  -3    9.30   14.48
   1  -8   4   24.88    9.02
   1  -8   4   17.52    6.94
  -1   8  -4   21.01   13.95
   1  -8   5   30.81   10.18
   1  -8   5   17.64    5.73
  -1   8  -5   31.51   12.24
   1  -8   6    8.21    9.23
   1  -8   6    9.28    7.21
  -1   8  -6   -7.00   12.07
   1  -8   7   -1.41    7.73
   1  -8   7   -0.14    3.09
  -1   8  -7    3.53   11.95
   1  -8   8   27.65    7.42
  -1   8  -8   18.54   14.48
   1  -8   9   45.98   17.92
   1  -8   9   47.25    8.91
   1  -8  10  130.03   43.57
   1  -8  10  128.13   14.20
   1  -8  11   63.84   35.62
   1  -8  11   67.62   15.93
   1  -8  12   29.83   14.22
   1  -8  12   16.60    7.95
   1  -8  13    3.28    7.10
   1  -8  13    6.35   12.20
   1  -7  -8    4.61   10.56
  -1   7   8    0.87    5.21
   1  -7  -7    3.32   12.68
  -1   7   7    5.44    5.92
  -1   7   7    3.93   10.57
   1  -7  -6   29.97   12.41
  -1   7   6   13.09    7.66
  -1   7   6   20.01   13.78
   1  -7  -5   63.74   12.56
  -1   7   5   61.22    9.95
  -1   7   5   53.30   15.58
   1  -7  -4   30.03   13.81
  -1   7   4   46.91    7.79
  -1   7   4   30.50   21.39
   1  -7  -3   27.63   19.57
  -1   7   3   15.72    4.15
  -1   7   3   14.33    9.83
   1  -7  -2  212.68   26.93
  -1   7   2  197.51    9.43
  -1   7   2  180.09   15.72
   1  -7  -1   61.61   15.87
  -1   7   1   43.96    3.10
  -1   7   1   43.08   16.63
   1  -7   0   45.19   10.63
  -1   7   0   50.00    3.34
  -1   7   0   43.43   22.07
   1  -7   1  470.65   25.54
   1  -7   1  437.17   13.73
  -1   7  -1  421.27   13.42
  -1   7  -1  484.67   32.72
   1  -7   2  117.96   14.31
   1  -7   2  119.98    6.62
  -1   7  -2  123.69    9.05
  -1   7  -2  126.05   18.66
   1  -7   3    5.26   10.05
   1  -7   3    4.27    1.98
  -1   7  -3    4.58   14.87
   1  -7   4   54.09    8.80
   1  -7   4   54.28    5.62
  -1   7  -4   67.57   19.05
   1  -7   5  202.30   17.34
   1  -7   5  191.12   11.45
  -1   7  -5  141.01   19.60
   1  -7   6   37.25   16.82
   1  -7   6   35.97    6.91
  -1   7  -6    9.68   10.09
   1  -7   7    9.90    9.10
   1  -7   7    3.48    6.07
  -1   7  -7   11.62   13.20
   1  -7   8   90.55   28.98
   1  -7   8   89.11   11.00
  -1   7  -8   86.97   15.97
   1  -7   9   60.57   25.08
   1  -7   9   54.43   22.96
   1  -7  10   67.43   31.86
   1  -7  10   60.92   10.39
   1  -7  11   11.40   13.72
   1  -7  11   17.00   10.44
   1  -7  12    9.90    8.97
   1  -7  12   13.05   10.46
   1  -7  13  116.87   41.43
   1  -7  13  145.15   16.70
   1  -6  -9   49.66   15.10
  -1   6   9   72.83   16.59
  -1   6   9   43.01   27.78
   1  -6  -8    7.62   10.23
  -1   6   8    1.48    6.44
  -1   6   8    9.42    8.06
   1  -6  -7    4.36   11.61
  -1   6   7    5.67    5.97
  -1   6   7    0.12    5.56
   1  -6  -6    0.88   10.37
  -1   6   6    7.76    7.74
  -1   6   6   11.25    8.96
   1  -6  -5    0.98   10.97
  -1   6   5    2.86    5.40
  -1   6   5   23.29   11.68
   1  -6  -4  100.63   15.61
  -1   6   4  102.85   10.47
  -1   6   4  105.12   13.62
   1  -6  -3    1.93    9.12
  -1   6   3    9.63    4.36
  -1   6   3    6.20    8.88
   1  -6  -2   94.47   43.59
  -1   6   2  106.18    5.34
  -1   6   2   97.74    8.00
  -1   6   2   98.59   18.12
   1  -6  -1  235.03   31.42
  -1   6   1  219.22    9.43
  -1   6   1  208.08   21.76
   1  -6   0    6.71    4.17
  -1   6   0   10.30    1.83
  -1   6   0   12.98   11.57
   1  -6   1  965.19   49.53
   1  -6   1  851.33   21.23
  -1   6  -1  804.08   20.79
  -1   6  -1  875.86   36.24
   1  -6   2   12.53   10.15
   1  -6   2    7.23    2.56
  -1   6  -2    9.69    2.87
  -1   6  -2   14.79   20.19
   1  -6   3    4.67    9.38
   1  -6   3    2.65    4.09
  -1   6  -3   10.54   13.89
   1  -6   4   35.89    8.85
   1  -6   4   42.86   14.93
  -1   6  -4   30.45   17.47
   1  -6   5  157.87   14.20
   1  -6   5  149.20   11.37
  -1   6  -5  138.85   17.31
   1  -6   6    0.29    7.55
   1  -6   6   -0.94    6.32
  -1   6  -6    1.22    8.60
   1  -6   7  141.22   25.64
   1  -6   7  121.54   17.17
  -1   6  -7  121.57   14.23
   1  -6   8   70.78   10.50
   1  -6   8   59.08   32.02
  -1   6  -8   58.08   10.34
   1  -6   9 1403.20   70.64
   1  -6   9 1333.91   50.49
   1  -6  10  282.89   29.84
   1  -6  10  257.71   22.56
   1  -6  11  126.03   16.25
   1  -6  11  124.51   36.30
   1  -6  12  120.41   21.29
   1  -6  12   59.62   33.06
   1  -6  13    3.54    5.92
   1  -6  13   -4.36   10.35
   1  -5 -10   67.88   19.05
  -1   5  10   59.33   13.61
   1  -5  -9   57.41   16.80
  -1   5   9   27.40   10.03
  -1   5   9   16.76   14.92
   1  -5  -8    5.40    9.01
  -1   5   8   -0.60    5.40
  -1   5   8    9.05    9.14
   1  -5  -7   76.08   17.71
  -1   5   7   91.64   12.47
  -1   5   7   56.79   28.25
   1  -5  -6    8.85   10.48
  -1   5   6    8.38    8.22
  -1   5   6   11.45    9.23
   1  -5  -5   11.22    9.38
  -1   5   5   -2.25    4.67
  -1   5   5    6.32    6.76
   1  -5  -4    6.76    9.96
  -1   5   4   16.81    4.00
  -1   5   4   17.53   10.80
   1  -5  -3   69.42   13.43
  -1   5   3   59.79    5.11
  -1   5   3   59.76   10.54
   1  -5  -2  922.03   35.06
  -1   5   2 1013.39   24.31
  -1   5   2  893.76   22.98
  -1   5   2  867.77   29.37
   1  -5  -1  221.73   15.65
  -1   5   1  232.83    8.56
  -1   5   1  189.84    6.57
  -1   5   1  237.95   16.22
   1  -5   0    5.61    8.26
  -1   5   0    5.77    2.83
  -1   5   0   10.55    9.92
   1  -5   1  735.65   27.46
   1  -5   1  669.10   18.23
  -1   5  -1  669.74   18.70
  -1   5  -1  669.02   29.40
   1  -5   2  259.23   16.14
   1  -5   2  240.75    8.62
  -1   5  -2  240.62    8.90
  -1   5  -2  204.42   18.27
   1  -5   3 1239.64   38.82
   1  -5   3 1171.35   33.27
  -1   5  -3 1181.81   33.64
  -1   5  -3 1084.74   40.21
   1  -5   4   20.54    8.83
   1  -5   4   28.17    4.70
  -1   5  -4   29.01   11.52
   1  -5   4   25.03    4.43
   1  -5   5 1311.38   36.95
   1  -5   5 1306.86   35.50
  -1   5  -5 1307.46   42.90
   1  -5   6   11.89    6.48
   1  -5   6   12.81    7.45
  -1   5  -6    7.51    3.56
  -1   5  -6   27.05    9.88
   1  -5   7  960.15   34.75
   1  -5   7  824.66   39.57
  -1   5  -7  843.92   24.16
  -1   5  -7  786.47   28.41
   1  -5   8   86.44   11.54
   1  -5   8   75.73   22.24
  -1   5  -8   98.97   12.45
   1  -5   9   34.97   14.33
   1  -5   9   37.74   15.62
  -1   5  -9    6.48    3.92
   1  -5  10   -1.24    9.59
   1  -5  11   10.16   10.76
   1  -5  12   12.18    8.69
   1  -5  13    5.21    8.68
   1  -4 -11    2.95    9.80
  -1   4  11    5.39   10.54
  -1   4  11    6.16    9.53
   1  -4 -10    0.34   10.66
  -1   4  10    8.21    7.60
  -1   4  10   -0.86    8.83
   1  -4  -9   13.21   10.58
  -1   4   9    8.00    7.02
  -1   4   9   34.07   15.65
   1  -4  -8   11.28   13.77
  -1   4   8    9.97    6.93
  -1   4   8    4.62    5.99
   1  -4  -7  252.72   21.49
  -1   4   7  224.93   17.33
  -1   4   7  254.75   20.37
   1  -4  -6   -2.67    8.64
  -1   4   6    2.30    5.91
  -1   4   6    2.73    7.89
   1  -4  -5   87.45   11.30
  -1   4   5   90.83    9.07
  -1   4   5  114.31   12.13
   1  -4  -4    1.26    5.09
  -1   4   4    6.15    4.63
  -1   4   4   -2.78    9.64
   1  -4  -3   19.54    9.07
  -1   4   3   13.94    3.73
  -1   4   3   18.75   10.52
   1  -4  -2 1668.25   59.41
  -1   4   2 1623.77   42.52
  -1   4   2 1728.23   45.92
  -1   4   2 1674.75   51.25
   1  -4  -1   10.01    7.68
  -1   4   1    7.78    2.69
  -1   4   1    5.13    2.25
  -1   4   1    1.45    7.84
   1  -4   0  381.29   16.64
  -1   4   0  344.40    9.35
  -1   4   0  356.27   20.28
   1  -4   1   64.45   15.11
   1  -4   1   58.70    3.17
  -1   4  -1   54.18    3.21
  -1   4  -1   65.66    9.36
   1  -4   2  479.71   21.77
   1  -4   2  444.81   13.72
  -1   4  -2  423.33   13.28
  -1   4  -2  420.50   18.88
   1  -4   2  399.51   19.13
   1  -4   3 1004.60   30.64
   1  -4   3  973.07   28.36
  -1   4  -3  980.18   28.35
  -1   4  -3  852.22   29.89
   1  -4   3  921.32   27.95
   1  -4   4  334.15   14.95
   1  -4   4  338.04   14.97
  -1   4  -4  332.19   17.31
   1  -4   5   17.00   11.12
   1  -4   5   20.28    6.55
  -1   4  -5   16.08    6.22
  -1   4  -5   21.35    7.10
   1  -4   6   55.99   14.91
  -1   4  -6   50.36    2.81
  -1   4  -6   48.47    7.10
  -1   4  -7  102.38   18.85
   1  -4   7   92.66   12.61
  -1   4  -7   84.85    6.00
  -1   4  -7   80.35    6.33
  -1   4  -8   97.41   17.29
   1  -4   8   86.87   28.14
  -1   4  -8   90.56    5.63
  -1   4  -8   93.02    6.58
  -1   4  -9  171.60   26.16
   1  -4   9  182.95   19.96
  -1   4  -9  210.53   14.94
  -1   4 -10    5.06   16.90
   1  -4  10    5.13   11.16
  -1   4 -11    8.63   10.79
   1  -4  11   -2.90   10.40
  -1   4 -12   -1.76   11.86
   1  -4  12    0.06   11.33
  -1   4 -13   38.93   13.92
   1  -4  13   25.53   13.03
  -1   3  12   -0.16    6.87
   1  -3 -11   18.51   10.03
  -1   3  11   19.51   11.51
  -1   3  11    4.47    9.10
   1  -3 -10    7.68   10.91
  -1   3  10   -1.98    7.33
  -1   3  10    6.01    9.86
   1  -3  -9   14.33   11.00
  -1   3   9    6.62   11.04
  -1   3   9    7.99    8.15
   1  -3  -8   23.19   12.94
  -1   3   8   11.28   12.04
  -1   3   8    5.94    8.96
   1  -3  -7   87.67   18.60
  -1   3   7   89.38   12.32
  -1   3   7   81.08   30.63
   1  -3  -6   17.41   14.20
  -1   3   6    8.54    6.64
  -1   3   6    3.97    7.43
   1  -3  -5  284.41   20.13
  -1   3   5  276.82   16.33
  -1   3   5  281.16   17.65
   1  -3  -4  124.39   11.23
  -1   3   4  127.07    8.76
  -1   3   4  158.78   12.03
   1  -3  -3 1858.94   56.10
  -1   3   3 1813.86   49.17
  -1   3   3 1844.86   54.44
   1  -3  -2  213.68   13.55
  -1   3   2  195.90    7.54
  -1   3   2  189.88   12.64
   1  -3  -1  210.02   12.13
  -1   3   1  208.22    4.48
  -1   3   1  225.05    5.26
  -1   3   1  211.30   10.18
   1  -3   0   87.66   16.24
  -1   3   0   69.57    7.29
   1  -3   0   67.48   11.31
   1  -3   1  388.49   13.34
   1  -3   1  352.52    7.55
  -1   3  -1  353.14    7.86
  -1   3  -1  387.82   14.56
   1  -3   1  327.32   16.49
   1  -3   2 1632.47   32.61
   1  -3   2 1577.71   29.76
  -1   3  -2 1531.67   28.20
  -1   3  -2 1577.58   31.82
   1  -3   2 1481.30   32.55
   1  -3   3  466.87   14.23
  -1   3  -3  493.24   13.21
  -1   3  -3  455.49   12.81
   1  -3   3  476.09   10.68
  -1   3  -4  227.97   17.00
   1  -3   4  191.77   11.48
  -1   3  -4  202.62    6.02
  -1   3  -4  220.42   11.21
  -1   3  -5    4.32    8.85
   1  -3   5    6.95    7.18
  -1   3  -5   12.99    3.17
  -1   3  -5   14.55    3.95
  -1   3  -6  167.07   17.73
   1  -3   6  180.14   16.13
  -1   3  -6  169.08    5.64
  -1   3  -6  206.51    6.94
  -1   3  -7  142.70   17.59
   1  -3   7  190.20   17.02
  -1   3  -7  176.50    9.20
  -1   3  -8  115.23   19.95
   1  -3   8   89.59   11.72
  -1   3  -8  118.83    7.84
  -1   3  -9   26.24   23.43
   1  -3   9   16.04   12.04
  -1   3 -10    9.11    7.79
   1  -3  10    9.59   11.23
  -1   3 -11   16.98   12.69
   1  -3  11   19.23   10.18
  -1   3 -12   11.25   18.19
   1  -3  12   18.19   14.86
  -1   3 -13   32.97   38.72
   1  -3  13    7.65   13.80
  -1   2  12    4.58    8.52
  -1   2  12    6.77    5.42
   1  -2 -11   55.19   13.58
  -1   2  11   36.80    9.35
  -1   2  11   30.86   26.65
   1  -2 -10    5.34   10.75
  -1   2  10   -4.88    6.92
  -1   2  10    2.48    4.61
   1  -2  -9   75.24   12.11
  -1   2   9   95.20   15.27
  -1   2   9  112.27   12.33
   1  -2  -8 1044.34   70.99
  -1   2   8  978.17   64.83
  -1   2   8 1094.38   72.10
   1  -2  -7  404.07   23.87
  -1   2   7  363.44   19.05
  -1   2   7  408.72   29.11
   1  -2  -6  102.16   44.83
  -1   2   6  102.98   10.03
  -1   2   6  113.73   17.64
   1  -2  -5 1521.02   43.10
  -1   2   5 1406.09   38.15
  -1   2   5 1498.74   41.43
   1  -2  -4  590.24   22.71
  -1   2   4  586.68   20.29
  -1   2   4  610.01   22.40
   1  -2  -3  833.72   27.48
  -1   2   3  776.97   24.48
  -1   2   3  779.07   23.22
   1  -2  -3  784.47   22.86
  -1   2   3  716.79   23.87
   1  -2  -2  894.82   28.60
  -1   2   2  933.54   20.68
  -1   2   2  901.67   17.87
   1  -2  -2  885.57   17.38
  -1   2   2  967.29   23.13
   1  -2  -1  177.14   15.57
  -1   2   1  185.00    6.82
  -1   2   1  183.49    4.27
   1  -2  -1  161.40    4.20
   1  -2  -1  177.15    8.42
  -1   2   1  174.18   10.55
   1  -2   0  558.39   14.47
  -1   2   0  522.23   12.47
   1  -2   0  466.51   13.70
  -1   2   0  492.94   13.31
   1  -2   1  303.90   14.01
   1  -2   1  293.12   10.13
   1  -2   1  292.82    7.93
  -1   2  -1  288.99   11.08
   1  -2   1  276.10   10.51
   1  -2   2 1434.12   34.54
  -1   2  -2 1404.94   33.09
   1  -2   2 1408.88   27.48
  -1   2  -2 1358.89   25.41
  -1   2  -2 1452.91   25.08
   1  -2   2 1408.85   27.86
  -1   2  -3    0.43    3.84
   1  -2   3   -5.57    6.75
  -1   2  -3    1.59    3.83
  -1   2  -4  352.10   17.22
   1  -2   4  347.90   15.93
  -1   2  -5  484.40   24.55
   1  -2   5  499.53   21.55
  -1   2  -5  475.94   14.60
  -1   2  -6  223.68   15.87
   1  -2   6  239.47   16.96
   1  -2   6  213.40    6.92
  -1   2  -6  215.65   10.16
  -1   2  -7  197.96   39.67
   1  -2   7  195.06   17.48
   1  -2   7  192.29    8.93
  -1   2  -7  172.45   11.12
  -1   2  -8   61.86   36.33
   1  -2   8   61.80   14.02
   1  -2   8   56.85    3.92
  -1   2  -8   56.56    8.34
  -1   2  -9   -3.04   10.86
   1  -2   9    2.48    9.53
   1  -2   9    1.95    2.72
  -1   2 -10  125.69   33.96
   1  -2  10  129.27   22.16
  -1   2 -11   60.28   44.47
   1  -2  11  100.92   15.99
  -1   2 -12   12.84   11.41
   1  -2  12   23.18   13.43
  -1   2 -13   18.23   22.61
   1  -2  13   23.95   13.95
  -1   1  13    2.04    2.44
   1  -1 -12   39.53   42.74
  -1   1  12   91.40   15.70
  -1   1  12   86.02   15.22
   1  -1 -11   -0.23    6.11
  -1   1  11    5.91    6.90
  -1   1  11    2.55    4.93
   1  -1 -10  232.54   19.83
  -1   1  10  245.47   21.14
  -1   1  10  221.44   17.04
   1  -1  -9  437.10   26.51
  -1   1   9  414.29   23.54
  -1   1   9  469.95   22.75
   1  -1  -8   20.07    9.18
  -1   1   8   16.26    7.87
  -1   1   8   13.18    6.38
   1  -1  -7  693.38   29.27
  -1   1   7  676.58   27.41
  -1   1   7  716.15   41.00
   1  -1  -6   21.01    7.38
  -1   1   6   12.12    6.75
  -1   1   6   19.94    9.73
   1  -1  -5  503.45   28.13
  -1   1   5  468.87   17.88
  -1   1   5  481.92   26.92
   1  -1  -4  778.12   25.63
  -1   1   4  728.22   23.33
  -1   1   4  813.17   25.59
  -1   1   4  784.72   25.62
   1  -1  -3   18.47    5.68
  -1   1   3   15.13    3.52
  -1   1   3   33.50   11.03
   1  -1  -3   24.29    4.74
  -1   1   3   11.41    6.17
   1  -1  -2  688.92   15.30
  -1   1   2  699.37   14.46
  -1   1   2  780.10   17.67
   1  -1  -2  718.28   15.28
  -1   1   2  729.91   17.14
   1  -1  -2  807.02   19.18
   1  -1  -1 2643.42   45.49
  -1   1   1 2690.35   45.09
   1  -1  -1 2830.64   48.18
   1  -1   0 1025.67   21.75
   1  -1   0  970.79   18.91
  -1   1   0  943.58   16.60
   1  -1   0  973.50   18.74
  -1   1  -1   -0.84    6.52
   1  -1   1    3.52    3.43
  -1   1  -1    3.51    1.83
   1  -1   1    3.07    2.30
   1  -1   2  226.66   13.08
  -1   1  -2  194.58   14.78
   1  -1   2  214.27    9.36
   1  -1   2  203.38    3.94
   1  -1   2  221.59    5.09
  -1   1  -3   60.15   33.02
   1  -1   3   43.83    8.88
   1  -1   3   53.87    2.52
  -1   1  -3   59.00    2.77
  -1   1  -4  563.82   23.08
   1  -1   4  584.09   21.37
   1  -1   4  592.29   16.47
  -1   1  -4  650.58   21.76
  -1   1  -5  412.54   20.79
   1  -1   5  426.67   19.51
   1  -1   5  448.24   13.70
  -1   1  -5  411.85   17.40
  -1   1  -6   59.52   31.14
   1  -1   6   35.41   11.42
   1  -1   6   67.57    4.87
  -1   1  -6   53.27    9.11
  -1   1  -7    0.15    6.09
   1  -1   7    2.41    9.77
   1  -1   7   -1.03    2.68
  -1   1  -8    5.46    8.46
   1  -1   8    0.27    8.78
   1  -1   8    6.59    3.70
  -1   1  -9   19.98   20.05
   1  -1   9   32.22   13.62
   1  -1   9   16.71    4.67
  -1   1 -10   15.60   21.09
   1  -1  10   12.79   13.08
   1  -1  10    8.74    7.85
  -1   1 -11    7.36   14.43
   1  -1  11    8.34   12.19
  -1   1 -12   -1.47   11.93
   1  -1  12    5.35   10.97
  -1   1 -13    7.20    7.99
   1  -1  13   13.11   11.38
  -1   0  13   30.82   29.17
   1   0 -12   11.12    8.36
  -1   0  12   12.11    8.51
  -1   0  12   25.87    9.72
   1   0 -11    8.46    7.47
  -1   0  11    8.12   10.50
  -1   0  11    8.71    9.20
   1   0 -10    1.42    4.87
  -1   0  10    3.89    5.97
  -1   0  10    5.08    7.88
   1   0  -9  222.67   20.11
  -1   0   9  237.13   21.10
  -1   0   9  245.89   19.55
   1   0  -8   32.60   14.36
  -1   0   8   18.66    9.93
  -1   0   8   27.68   10.15
   1   0  -7  442.96   24.14
  -1   0   7  445.90   23.64
  -1   0   7  422.27   20.42
   1   0  -6  336.14   16.97
  -1   0   6  295.36   14.52
  -1   0   6  326.08   15.29
   1   0  -5 1026.10   32.23
  -1   0   5 1087.13   32.66
  -1   0   5 1058.21   32.86
  -1   0   5 1066.20   32.37
   1   0  -4 1306.24   27.36
  -1   0   4 1337.20   27.26
  -1   0   4 1381.58   29.16
  -1   0   4 1376.58   29.04
   1   0  -3    4.58    3.15
  -1   0   3    9.65    4.08
  -1   0   3    5.15    5.82
   1   0  -3    9.71    5.07
  -1   0   3    6.91    5.13
   1   0  -2  297.55    6.44
  -1   0   2  318.30    6.31
   1   0  -2  309.13    8.74
  -1   0   2  312.95    8.80
  -1   0   2  309.61   10.92
   1   0  -2  299.77    8.81
   1   0  -1 1298.51   22.81
  -1   0   1 1253.82   22.67
   1   0  -1 1237.60   22.44
   1   0  -1 1258.07   23.23
  -1   0   1 1254.33   23.97
  -1   0   0   88.63    8.11
   1   0   0   75.18    4.52
   1   0   0   94.90    4.06
  -1   0   0   88.05    3.79
  -1   0   0   97.63    4.34
   1   0   0   91.36    3.52
   1   0   1  362.63   11.52
  -1   0  -1  390.34   13.53
   1   0   1  373.91    9.36
   1   0   2  567.97   16.12
  -1   0  -2  607.26   21.19
   1   0   2  578.62   15.80
  -1   0  -3    3.82    9.83
   1   0   3   11.92    6.00
   1   0   3    4.23    5.12
  -1   0  -3    9.41    7.56
  -1   0  -4 1055.70   35.98
   1   0   4 1148.59   35.08
   1   0   4 1084.73   31.21
  -1   0  -4 1169.62   37.81
  -1   0  -5  662.03   28.46
   1   0   5  692.02   26.83
   1   0   5  718.70   20.69
  -1   0  -5  678.65   27.92
  -1   0  -6  350.98   25.84
   1   0   6  381.39   25.04
   1   0   6  319.75   14.67
  -1   0  -7    0.18   12.12
   1   0   7    2.16    8.88
   1   0   7    0.84    2.61
  -1   0  -8    1.73   13.44
   1   0   8    1.24    8.83
   1   0   8    4.45    3.80
  -1   0  -9   80.36   34.53
   1   0   9   42.84   11.80
   1   0   9   81.18   14.81
  -1   0 -10    9.61   15.86
   1   0  10   12.38   11.68
   1   0  10    2.09    2.17
  -1   0 -11   -0.73   13.27
   1   0  11    1.06   11.48
  -1   0 -12   13.51   13.14
   1   0  12   12.07   11.28
  -1  -1  13   20.33   17.88
  -1  -1  13   17.40   24.59
   1   1 -12   26.95   23.45
  -1  -1  12   35.28   27.38
  -1  -1  12   68.27    8.66
   1   1 -11    2.72    5.85
  -1  -1  11    0.00    9.01
  -1  -1  11    7.08    8.44
   1   1 -10    9.07    7.86
  -1  -1  10   -2.72    7.46
  -1  -1  10    0.54    5.46
   1   1  -9   35.72   35.49
  -1  -1   9   64.85   13.31
  -1  -1   9   63.39   20.20
   1   1  -8   47.74   21.80
  -1  -1   8   46.94   13.48
  -1  -1   8   51.70    6.56
   1   1  -7  236.08   21.01
  -1  -1   7  274.72   18.02
  -1  -1   7  256.23   14.90
   1   1  -6  450.02   20.03
  -1  -1   6  483.42   19.05
  -1  -1   6  463.61   17.03
   1   1  -5  247.53   11.13
  -1  -1   5  257.66   10.75
  -1  -1   5  265.46   13.63
  -1  -1   5  265.69   12.24
   1   1  -4 1408.09   28.13
  -1  -1   4 1416.27   27.67
  -1  -1   4 1471.82   30.56
  -1  -1   4 1555.49   31.18
  -1  -1   3    1.35    1.81
  -1  -1   3    1.11    1.19
  -1  -1   3   -0.61    6.28
   1   1  -3    1.74    4.64
  -1  -1   3   -2.94    4.34
   1   1  -3    1.41    3.04
  -1  -1   1  679.06   14.44
   1   1  -1  673.89   13.83
  -1  -1   1  763.47   16.98
   1   1  -1  689.21   15.34
   1   1  -1  750.70   16.16
   1   1   1  568.80   16.45
  -1  -1  -1  581.35   16.65
  -1  -1  -1  622.67   14.62
   1   1   1  594.39   13.38
   1   1   1  607.69   20.02
  -1  -1  -2 2613.62   59.70
   1   1   2 2702.39   56.17
  -1  -1  -3   37.49    9.07
   1   1   3   37.92   13.79
  -1  -1  -3   38.30   12.17
  -1  -1  -4  180.17   17.87
   1   1   4  202.50   12.88
   1   1   4  203.17   14.38
  -1  -1  -5  332.55   19.17
   1   1   5  331.75   17.13
   1   1   5  324.03   15.76
  -1  -1  -6   -2.56   11.09
   1   1   6    4.28    8.48
   1   1   6    1.95    5.26
  -1  -1  -7    0.78   12.11
   1   1   7    8.80    9.52
   1   1   7    4.86    3.51
  -1  -1  -8   26.20   15.97
   1   1   8    8.37   10.27
   1   1   8   19.48    7.39
  -1  -1  -9   51.51   16.39
   1   1   9   30.57   10.90
   1   1   9   32.96   16.21
  -1  -1 -10    3.26   15.14
   1   1  10    0.95    9.73
   1   1  10    5.24    4.13
  -1  -1 -11   16.38   18.81
   1   1  11   25.31   16.71
  -1  -1 -12   -0.63   11.11
   1   1  12    5.58   11.27
  -1  -2  13   16.96   16.19
  -1  -2  13   14.98   19.22
   1   2 -12    7.72    6.91
  -1  -2  12    7.36    6.39
  -1  -2  12    7.86    7.82
   1   2 -11   29.26   16.17
  -1  -2  11   17.83   14.77
  -1  -2  11   28.43   19.42
   1   2 -10   10.04    9.82
  -1  -2  10   22.36   15.25
  -1  -2  10   16.87    9.73
   1   2  -9    3.87    3.55
  -1  -2   9    5.68    8.01
  -1  -2   9    4.68    4.71
   1   2  -8    6.32    6.37
  -1  -2   8    5.03    7.54
  -1  -2   8    4.91    5.35
   1   2  -7   21.61   10.60
  -1  -2   7   23.89    7.23
  -1  -2   7   26.29   16.26
   1   2  -6  834.46   25.44
  -1  -2   6  867.81   27.24
  -1  -2   6  882.48   25.11
  -1  -2   5  243.97   10.72
  -1  -2   5  268.92    9.81
  -1  -2   5  245.74   13.88
  -1  -2   5  274.37   13.03
  -1  -2   4    8.10    5.65
  -1  -2   4    3.06    2.38
  -1  -2   4    5.66    6.13
  -1  -2   4    6.66    6.25
  -1  -2   3  817.49   16.40
   1   2  -3  845.86   16.42
  -1  -2   3  885.26   19.73
  -1  -2   2 8001.93  203.88
   1   2  -2 7489.72  190.15
  -1  -2   2 8111.83  206.78
   1   2  -2 7885.21  200.85
  -1  -2   1 1609.02   31.87
   1   2  -1 1586.71   31.05
  -1  -2   1 1553.37   29.45
   1   2  -1 1588.20   29.66
  -1  -2   0   15.61    8.73
   1   2   0   15.39    8.21
   1   2   0   16.29    3.58
  -1  -2   0   16.26    5.62
   1   2   0    7.43   13.40
  -1  -2   0   26.83   10.00
  -1  -2  -1   24.27    9.78
  -1  -2  -1   38.40    4.62
   1   2   1   37.28   16.60
  -1  -2  -1   44.29    7.52
  -1  -2  -2  844.18   25.17
   1   2   2  821.55   33.65
  -1  -2  -3   38.85   10.79
   1   2   3   33.64   14.22
  -1  -2  -4    8.00   11.15
   1   2   4   10.89    5.48
   1   2   4    1.29   10.22
  -1  -2  -5   56.97   15.15
   1   2   5   58.99    8.24
   1   2   5   63.24    9.92
  -1  -2  -6  205.78   19.38
   1   2   6  156.75   20.01
   1   2   6  128.10   13.38
  -1  -2  -7    2.35   12.37
   1   2   7   -1.26    9.63
   1   2   7    5.14    6.69
  -1  -2  -8   -5.25   13.85
   1   2   8    5.48    9.08
   1   2   8    9.81    6.38
  -1  -2  -9    4.59   14.51
   1   2   9   11.23    9.84
   1   2   9    6.32    5.50
  -1  -2 -10   -9.13   17.01
   1   2  10    3.68   10.86
   1   2  10    2.86    2.32
  -1  -2 -11   86.35   18.00
   1   2  11   77.24   18.18
  -1  -2 -12    5.74   18.51
   1   2  12   24.14   15.01
  -1  -3  14   15.34    9.75
  -1  -3  13   14.82   10.18
  -1  -3  13    4.74    6.15
   1   3 -12   16.92    7.07
  -1  -3  12    6.32    9.27
  -1  -3  12   12.37   10.61
   1   3 -11   49.87   12.12
  -1  -3  11   47.40   11.74
  -1  -3  11   31.96   28.36
   1   3 -10  294.52   22.06
  -1  -3  10  311.12   18.98
  -1  -3  10  336.85   17.24
   1   3  -9   70.68   11.07
  -1  -3   9   98.16   20.44
  -1  -3   9   93.57   24.96
  -1  -3   8  578.00   24.20
  -1  -3   8  589.60   22.79
  -1  -3   7 1143.73   45.69
  -1  -3   7 1088.71   45.20
  -1  -3   7 1190.99   47.79
  -1  -3   6  897.41   24.36
  -1  -3   6  886.77   29.04
  -1  -3   5   53.58    5.10
  -1  -3   5   64.77    8.10
  -1  -3   5   64.01    8.22
  -1  -3   4  533.34   16.74
   1   3  -4  527.39   16.78
  -1  -3   4  525.05   22.37
  -1  -3   3  984.20   21.16
   1   3  -3 1036.58   20.93
  -1  -3   3 1006.71   22.74
  -1  -3   2  358.29   12.42
   1   3  -2  367.46   10.91
  -1  -3   2  350.56   11.05
   1   3  -2  410.98   14.58
  -1  -3   1  720.28   20.57
   1   3  -1  722.49   18.12
  -1  -3   1  808.62   18.27
   1   3  -1  762.05   23.06
  -1  -3   0  327.01   15.65
  -1  -3   0  349.91   10.97
   1   3   0  356.41   18.50
  -1  -3  -1   -2.02    9.88
  -1  -3  -1    2.13    2.38
   1   3   1   -0.74   18.03
  -1  -3  -2 2011.63   60.34
   1   3   2 1930.53   65.23
  -1  -3  -3  133.65   14.99
   1   3   3  140.46   21.84
  -1  -3  -4   26.55   15.98
   1   3   4   19.70   15.41
  -1  -3  -5    2.28   10.80
   1   3   5   15.88    7.47
   1   3   5   11.68   12.99
  -1  -3  -6  113.05   15.62
   1   3   6  113.63   15.13
   1   3   6  105.98   11.86
  -1  -3  -7   57.76   14.81
   1   3   7   80.58   15.84
   1   3   7   85.24   13.49
  -1  -3  -8   39.09   14.74
   1   3   8    7.09    9.78
   1   3   8   20.46   14.50
  -1  -3  -9  133.95   22.10
   1   3   9  134.15   20.06
   1   3   9  125.48   14.70
  -1  -3 -10   41.50   18.06
   1   3  10   82.79   17.86
   1   3  10   65.54   20.34
  -1  -3 -11   11.13   13.57
   1   3  11   -7.49    8.52
  -1  -4  14   13.62   12.41
  -1  -4  13    8.57    8.40
  -1  -4  12    3.50    6.12
  -1  -4  12    3.87    9.11
  -1  -4  11    3.73    3.34
  -1  -4  11    9.10   10.93
  -1  -4  10  317.93   16.35
  -1  -4  10  287.03   17.91
  -1  -4   9   79.02   12.95
  -1  -4   9   71.20   12.30
  -1  -4   8  206.19   15.34
  -1  -4   8  213.93   33.87
  -1  -4   7 1172.86   46.20
  -1  -4   7 1166.64   49.77
  -1  -4   6   58.49   19.00
  -1  -4   6   79.61   21.57
  -1  -4   5  215.98   13.42
  -1  -4   5  200.22   13.35
  -1  -4   4   19.68    7.98
  -1  -4   4   15.80    5.16
   1   4  -4   24.96   11.97
  -1  -4   3 1625.86   46.60
  -1  -4   3 1770.97   49.58
   1   4  -3 1712.22   50.25
  -1  -4   2   38.64    9.89
  -1  -4   2   41.39    5.34
   1   4  -2   17.67   12.50
  -1  -4   1  127.42   13.12
  -1  -4   1  125.79    7.87
   1   4  -1  141.80   23.76
  -1  -4   0  601.11   23.66
  -1  -4   0  622.20   20.04
   1   4   0  665.31   34.51
  -1  -4  -1  101.70   11.37
  -1  -4  -1  111.15    8.39
   1   4   1  103.09   28.07
  -1  -4  -2 1389.21   43.40
   1   4   2 1430.27   56.54
  -1  -4  -3  374.74   21.90
   1   4   3  385.84   29.82
  -1  -4  -4   52.68   17.89
   1   4   4   41.78   16.10
  -1  -4  -5 1845.55   61.90
   1   4   5 2076.33   60.98
   1   4   5 2193.21   72.88
  -1  -4  -6  542.96   44.74
   1   4   6  651.58   45.61
   1   4   6  548.99   53.34
  -1  -4  -7  242.53   25.38
   1   4   7  270.49   20.47
   1   4   7  234.03   19.08
  -1  -4  -8   13.45   12.30
   1   4   8   25.21   11.43
   1   4   8   25.13    8.52
  -1  -4  -9   10.43   15.86
   1   4   9   -2.73   10.12
   1   4   9    5.40    6.75
  -1  -4 -10   26.44   15.88
   1   4  10    6.62    8.31
   1   4  10    5.51    5.77
  -1  -5  14    8.90    9.12
  -1  -5  13    7.03   10.06
  -1  -5  12    3.03    3.66
  -1  -5  12   -2.29    9.25
  -1  -5  11   77.27   14.49
  -1  -5  11  113.94   12.51
  -1  -5  10  169.84   11.81
  -1  -5  10  176.16   16.61
  -1  -5   9  197.64   17.55
  -1  -5   9  230.66   22.91
  -1  -5   8  177.42   10.79
  -1  -5   8  142.68   12.26
  -1  -5   7  609.45   22.80
  -1  -5   7  631.75   25.98
  -1  -5   6    5.44    5.84
  -1  -5   6    5.04    6.25
   1   5  -6   -6.43   11.83
  -1  -5   5  711.19   23.86
  -1  -5   5  634.70   21.84
   1   5  -5  653.09   25.10
  -1  -5   4   79.49    8.10
  -1  -5   4   93.94    9.35
   1   5  -4   79.16   10.33
  -1  -5   3  307.32   15.89
  -1  -5   3  347.10   15.13
   1   5  -3  317.48   19.12
  -1  -5   2    3.64    7.25
  -1  -5   2    5.30    5.10
   1   5  -2    9.82   17.60
  -1  -5   1   16.11    7.63
  -1  -5   1   16.01    6.05
   1   5  -1   17.34   23.97
  -1  -5   0   84.66   13.49
  -1  -5   0  102.94    6.65
   1   5   0   97.83   26.38
  -1  -5  -1 2144.14   61.36
  -1  -5  -1 2250.21   54.50
   1   5   1 2259.72   79.03
  -1  -5  -2  390.57   25.17
   1   5   2  351.22   34.25
  -1  -5  -3   58.11   16.90
   1   5   3   21.79   15.29
  -1  -5  -4  224.47   23.90
   1   5   4  219.20   21.11
  -1  -5  -5   -2.20   13.55
   1   5   5   16.94   10.13
   1   5   5   12.17   15.51
  -1  -5  -6   12.94   14.20
   1   5   6   50.89   13.57
   1   5   6   37.84   10.17
  -1  -5  -7    8.69   11.99
   1   5   7   12.93    9.72
   1   5   7    5.31    9.14
  -1  -5  -8    5.10   14.20
   1   5   8   10.24    8.47
   1   5   8    5.38    9.41
  -1  -5  -9   21.06   14.85
   1   5   9    1.67    8.81
   1   5   9    3.54    7.32
  -1  -5 -10   -3.38   13.92
   1   5  10   14.45    9.23
   1   5  10    4.61    5.58
  -1  -6  13   49.72   16.01
  -1  -6  12    2.69    3.91
  -1  -6  12   30.98    9.82
  -1  -6  11   46.56    8.09
  -1  -6  11   74.54   12.31
  -1  -6  10   42.71    8.14
  -1  -6  10   27.20   10.06
   1   6 -10   66.48   15.30
  -1  -6   9   71.70    8.05
  -1  -6   9   77.56   37.32
   1   6  -9  100.58   17.75
  -1  -6   8   15.02    8.32
  -1  -6   8   18.46    8.05
   1   6  -8   46.80   15.72
  -1  -6   7   10.71    5.78
  -1  -6   7   19.61    9.19
   1   6  -7   22.10    9.02
  -1  -6   6    8.10    7.56
  -1  -6   6   -0.87    5.89
   1   6  -6   12.70   11.03
  -1  -6   5    3.00    3.98
  -1  -6   5   -0.65    6.38
   1   6  -5    6.24   12.41
  -1  -6   4  579.17   28.65
  -1  -6   4  570.32   26.45
   1   6  -4  449.22   32.40
  -1  -6   3   26.47    7.73
  -1  -6   3   34.94   10.94
   1   6  -3   31.69   23.85
  -1  -6   2    5.28    8.15
  -1  -6   2   -1.06    5.54
   1   6  -2   19.24   23.23
  -1  -6   1 1954.14   78.77
  -1  -6   1 1995.32   75.66
   1   6  -1 2153.20  100.34
  -1  -6   0   14.90   10.16
  -1  -6   0   12.53    6.14
   1   6   0   22.26   27.57
  -1  -6  -1    1.99   11.19
  -1  -6  -1   -2.48    4.28
   1   6   1    3.90   22.72
  -1  -6  -2   50.25   10.81
   1   6   2   61.61   25.55
  -1  -6  -3   32.35   10.94
   1   6   3   31.34   15.69
  -1  -6  -4   30.44   14.30
   1   6   4   36.75   17.22
  -1  -6  -5   60.10   21.76
   1   6   5   59.06   11.94
   1   6   5   36.47   15.90
  -1  -6  -6   27.97   14.24
   1   6   6   29.87   10.29
   1   6   6   31.97   12.60
  -1  -6  -7   15.76   14.03
   1   6   7    9.36    9.35
   1   6   7    0.30    9.84
  -1  -6  -8   14.47   13.27
   1   6   8   23.49   11.36
   1   6   8   20.81   10.15
  -1  -6  -9   10.45   13.55
   1   6   9    7.86    8.04
   1   6   9    3.79    5.64
  -1  -7  13   48.70   40.31
  -1  -7  12   74.24   12.62
  -1  -7  12   55.63   39.63
   1   7 -12   81.78   17.38
  -1  -7  11   14.43    7.18
  -1  -7  11   11.57    9.84
   1   7 -11   17.67    9.47
  -1  -7  10   23.53   16.04
  -1  -7  10   24.52    8.57
   1   7 -10    5.46    9.52
  -1  -7   9    7.64    6.52
  -1  -7   9   16.27    7.57
   1   7  -9    9.98   11.26
  -1  -7   8   12.37   10.64
  -1  -7   8    9.67    7.68
   1   7  -8    9.61   12.16
  -1  -7   7  180.35   17.33
  -1  -7   7  151.94   15.36
   1   7  -7  156.18   21.96
  -1  -7   6    3.70    4.68
  -1  -7   6    1.97    7.56
   1   7  -6    5.83   14.33
  -1  -7   5   14.92    9.38
  -1  -7   5   23.02   12.62
   1   7  -5   19.45   19.06
  -1  -7   4  263.61   15.72
  -1  -7   4  298.14   21.78
   1   7  -4  267.50   34.54
  -1  -7   3  132.95   16.33
  -1  -7   3  127.25   13.99
   1   7  -3   98.90   25.47
  -1  -7   2  204.25   18.30
  -1  -7   2  183.12    9.78
   1   7  -2  155.90   35.27
  -1  -7   1   97.98   15.57
  -1  -7   1  103.06    8.01
   1   7  -1  107.35   31.54
  -1  -7   0  425.08   28.06
  -1  -7   0  383.15   16.99
   1   7   0  341.35   42.05
  -1  -7  -1   27.65   15.75
  -1  -7  -1   24.27    9.88
   1   7   1   22.25   23.47
  -1  -7  -2   -4.46   10.53
   1   7   2   10.88   19.68
  -1  -7  -3   -0.86   12.44
   1   7   3    0.13   16.73
  -1  -7  -4   54.54   15.12
   1   7   4   18.64   14.79
  -1  -7  -5   11.07   13.38
   1   7   5    5.19    8.91
   1   7   5   -3.24   14.16
  -1  -7  -6   27.62   20.92
   1   7   6    1.80    6.27
   1   7   6   16.90   12.02
  -1  -7  -7    3.85   13.63
   1   7   7    3.74    7.64
   1   7   7    8.77    9.22
  -1  -7  -8   71.71   19.60
   1   7   8   72.43   15.61
   1   7   8   62.28   12.48
  -1  -8  13   17.08   10.11
  -1  -8  12   -0.03    5.56
  -1  -8  12   -0.25    3.90
   1   8 -12   -2.27   12.31
  -1  -8  11  249.79   15.69
  -1  -8  11  291.12   21.87
   1   8 -11  330.65   24.30
  -1  -8  10    8.75    5.80
  -1  -8  10   17.55    7.96
   1   8 -10   12.95   11.66
  -1  -8   9    4.20    3.60
  -1  -8   9    2.40    6.93
   1   8  -9   10.71   14.21
  -1  -8   8   22.28   13.55
  -1  -8   8   33.53   10.91
   1   8  -8    6.63   18.43
  -1  -8   7  102.45   37.24
  -1  -8   7   90.98   12.86
   1   8  -7   54.18   15.50
  -1  -8   6   74.67   26.96
  -1  -8   6   63.70   26.05
   1   8  -6   57.52   21.09
  -1  -8   5   74.87   10.60
  -1  -8   5   85.87   10.71
   1   8  -5   76.45   29.36
  -1  -8   4   24.44   13.20
  -1  -8   4    8.02    5.46
   1   8  -4   -1.65   25.79
  -1  -8   3  348.68   24.08
  -1  -8   3  357.50   16.14
   1   8  -3  374.46   54.06
  -1  -8   2  237.85   22.34
  -1  -8   2  229.81   12.63
   1   8  -2  201.20   32.63
  -1  -8   1    5.96   12.18
  -1  -8   1   13.47    5.26
   1   8  -1  -12.20   21.82
  -1  -8   0  598.88   46.09
  -1  -8   0  559.84   37.29
   1   8   0  643.30   60.70
  -1  -8  -1   83.10   19.26
   1   8   1   59.11   33.69
  -1  -8  -2   36.90   14.04
   1   8   2   17.46   21.22
  -1  -8  -3   18.94   14.21
   1   8   3   32.19   23.09
  -1  -8  -4   25.66   20.40
   1   8   4   27.47   15.42
  -1  -8  -5    5.95   13.13
   1   8   5    8.52    8.55
   1   8   5    4.93   21.35
  -1  -8  -6   78.40   19.88
   1   8   6   74.76   13.35
   1   8   6   65.04   23.36
  -1  -8  -7   84.69   18.06
   1   8   7   41.43   38.52
   1   8   7  104.60   18.27
  -1  -9  12  107.50   20.20
  -1  -9  12  154.45   26.35
  -1  -9  11   33.13   23.19
  -1  -9  11   64.91   14.42
   1   9 -11   54.02   18.24
  -1  -9  10    6.00    6.48
  -1  -9  10   -2.72    8.93
   1   9 -10  -12.66   14.25
  -1  -9   9    1.62    6.09
  -1  -9   9    8.07   12.00
   1   9  -9   -2.88   15.21
  -1  -9   8    4.45    8.27
  -1  -9   8    5.97    7.37
   1   9  -8   56.45   26.65
  -1  -9   7   41.15   20.24
  -1  -9   7   34.99   18.68
   1   9  -7   34.17   20.60
  -1  -9   6   -5.58    8.66
  -1  -9   6    4.23    4.79
   1   9  -6    8.40   19.76
  -1  -9   5   23.31   10.03
  -1  -9   5    7.88    7.48
   1   9  -5    4.32   21.67
  -1  -9   4   95.71   15.00
  -1  -9   4  112.57   11.40
   1   9  -4   71.14   24.71
  -1  -9   3  341.94   26.74
  -1  -9   3  339.09   17.04
   1   9  -3  299.44   35.88
  -1  -9   2   37.82   14.71
  -1  -9   2   45.17   18.53
   1   9  -2   45.22   27.02
  -1  -9   1    0.83    6.38
  -1  -9   1    2.82    2.97
   1   9  -1    4.89   24.01
  -1  -9   0   40.37   20.53
  -1  -9   0   28.31   20.01
   1   9   0   28.16   26.09
  -1  -9  -1    6.35   15.46
   1   9   1   23.29   27.22
  -1  -9  -2   32.46   16.26
   1   9   2   30.98   18.68
  -1  -9  -3   -0.60   13.43
   1   9   3   13.05   18.10
  -1  -9  -4   12.69   14.63
   1   9   4    6.50    4.96
   1   9   4   14.12   16.07
  -1  -9  -5   35.31   15.62
   1   9   5   32.45    9.96
   1   9   5   27.95   13.71
  -1  -9  -6   20.64   13.91
   1   9   6   10.40    5.93
   1   9   6   22.74   12.27
  -1 -10  12    8.20    6.70
  -1 -10  12    2.67    9.07
  -1 -10  11    2.35    3.88
  -1 -10  11    5.38    8.02
   1  10 -11   28.90   31.37
  -1 -10  10    7.24    7.76
  -1 -10  10   10.93    8.96
   1  10 -10  -18.79   18.63
  -1 -10   9    5.59   11.48
  -1 -10   9    6.92    7.52
   1  10  -9    8.95   20.35
  -1 -10   8   19.10    8.07
  -1 -10   8   24.00    7.97
   1  10  -8   22.07   20.34
  -1 -10   7    6.09    4.64
  -1 -10   7    5.35    7.21
   1  10  -7   -4.77   20.11
  -1 -10   6  162.99   20.58
  -1 -10   6  177.27   13.15
   1  10  -6  111.75   23.69
  -1 -10   5   13.93   12.55
  -1 -10   5    5.23    5.87
   1  10  -5   29.35   27.09
  -1 -10   4   36.08   13.26
  -1 -10   4   27.22   20.67
   1  10  -4    7.39   25.07
  -1 -10   3   68.91   41.87
  -1 -10   3   80.97   12.87
   1  10  -3  104.94   29.66
  -1 -10   2   36.52   13.22
  -1 -10   2   37.27    7.36
   1  10  -2   33.25   21.82
  -1 -10   1    4.51   13.16
  -1 -10   1    2.52    3.07
   1  10  -1    8.46   27.48
  -1 -10   0  183.89   27.65
  -1 -10   0  128.00   13.72
   1  10   0  147.27   43.89
  -1 -10  -1    2.60   13.65
   1  10   1   16.96   20.58
  -1 -10  -2   26.97   14.66
   1  10   2   73.22   21.25
  -1 -10  -3   58.42   17.88
   1  10   3   36.10   25.73
  -1 -10  -4   13.44   14.62
   1  10   4   10.05    5.72
   1  10   4   33.32   23.07
  -1 -11  11    6.06   10.90
  -1 -11  11    0.87    7.19
   1  11 -11   30.08   31.65
  -1 -11  10    7.59    8.79
  -1 -11  10   21.66   20.22
   1  11 -10   26.04   28.81
  -1 -11   9    8.79   10.52
  -1 -11   9    6.57    6.69
   1  11  -9    4.22   22.67
  -1 -11   8   19.14    8.76
  -1 -11   8   13.81   13.74
   1  11  -8   13.35   22.68
  -1 -11   7   12.58    9.81
  -1 -11   7   20.22   12.60
   1  11  -7   30.18   19.38
  -1 -11   6   87.74   18.23
  -1 -11   6   76.23   31.01
   1  11  -6   86.46   30.20
  -1 -11   5   21.25   13.30
  -1 -11   5   19.34   13.05
   1  11  -5   26.87   26.63
  -1 -11   4  359.95   26.40
  -1 -11   4  358.77   14.88
   1  11  -4  351.31   45.32
  -1 -11   3   29.97   26.96
  -1 -11   3   58.79   12.02
   1  11  -3   52.47   24.85
  -1 -11   2    3.01    6.81
  -1 -11   2    2.26    2.11
   1  11  -2   18.38   23.92
  -1 -11   1   21.81   14.30
  -1 -11   1    4.95    3.76
   1  11  -1   25.85   23.64
  -1 -11   0    4.50   13.14
   1  11   0    1.40   18.33
  -1 -11  -1   21.44   13.54
   1  11   1   24.10   22.92
  -1 -11  -2   38.47   17.13
   1  11   2   58.79   23.77
  -1 -12   9   16.85    9.28
  -1 -12   9    9.18   11.12
   1  12  -9   12.75   24.03
  -1 -12   8   -3.82   10.21
  -1 -12   8    4.57    6.11
   1  12  -8   43.29   33.26
  -1 -12   7   23.54   12.95
  -1 -12   7   12.47    6.81
   1  12  -7   19.84   22.18
  -1 -12   6  373.44   32.19
  -1 -12   6  368.54   16.05
   1  12  -6  301.87   50.88
  -1 -12   5    5.26   11.00
  -1 -12   5    6.49    5.73
   1  12  -5   -9.65   20.22
  -1 -12   4   18.58   21.38
  -1 -12   4   14.00   10.39
   1  12  -4   55.16   29.48
  -1 -12   3   17.04   17.72
  -1 -12   3   13.82   10.17
   1  12  -3   22.16   23.83
  -1 -12   2    2.37   15.35
  -1 -12   2   -1.66    3.57
   1  12  -2    2.40   23.40
  -1 -12   1    2.84   11.40
   1  12  -1   24.65   20.94
  -1 -12   0   33.25   14.06
   1  12   0   42.61   27.07
  -1 -13   6   -0.01    9.78
   1  13  -6   17.93   19.97
  -1 -13   5   18.27   11.15
   1  13  -5   22.40   18.61
  -1 -13   4    2.58   11.72
   1  13  -4   30.70   28.96
   2 -12   0   14.85   12.11
  -2  12   0   23.26   12.19
   2 -12   1   11.38   13.76
  -2  12  -1    5.97    9.11
   2 -12   2   12.15   14.22
  -2  12  -2    8.51   10.19
   2 -12   3    2.26   12.43
  -2  12  -3   11.87   11.56
   2 -12   4    9.87   13.10
  -2  12  -4   19.48   10.31
   2 -12   5   65.65   39.55
  -2  12  -5   57.20   26.60
   2 -12   6   12.16   12.33
   2 -12   7    8.67   10.75
   2 -12   8   16.86   13.76
   2 -11  -3   57.98   20.58
  -2  11   3   43.46   37.21
   2 -11  -2  124.54   24.93
  -2  11   2  187.21   33.53
  -2  11   1  749.35   33.61
   2 -11   0   75.78   17.92
  -2  11   0   87.45   49.70
   2 -11   1   49.31   20.30
  -2  11  -1   48.77   12.46
   2 -11   2   83.09   16.84
  -2  11  -2  114.63   16.09
   2 -11   3    0.01   10.81
  -2  11  -3    2.20    9.87
   2 -11   4   74.97   38.06
  -2  11  -4   73.20   35.05
   2 -11   5    6.30    5.46
  -2  11  -5    4.62    8.35
   2 -11   6    9.33   10.31
   2 -11   7   42.68   26.14
   2 -11   8   23.35   12.06
   2 -11   9   55.49   36.71
   2 -11  10    5.35    8.65
   2 -10  -4   -8.68   12.04
  -2  10   4    6.85    5.02
   2 -10  -3   -0.76   12.11
  -2  10   3    6.98    9.51
   2 -10  -2   63.97   23.90
  -2  10   2   22.02   12.37
   2 -10  -1   20.31   13.66
   2 -10   0  115.60   19.71
  -2  10   0   76.97   21.42
   2 -10   1   98.83   30.75
  -2  10  -1  110.88   17.77
   2 -10   2  109.91   44.99
  -2  10  -2  136.06   18.27
   2 -10   3   17.27   13.22
  -2  10  -3   21.27    8.59
   2 -10   4   62.44   27.51
  -2  10  -4   80.39   15.50
   2 -10   5   59.24   17.34
  -2  10  -5   60.44    9.91
   2 -10   6   -4.69   11.13
  -2  10  -6   14.65    7.87
   2 -10   7   40.37   11.52
   2 -10   8   22.85   17.65
   2 -10   9    6.80    9.20
   2 -10   9    0.30    5.55
   2 -10  10    1.28   10.13
   2 -10  10    6.28    5.47
   2 -10  11    3.61    6.30
   2 -10  11    5.10    5.65
   2  -9  -6   13.62    9.64
  -2   9   6    2.56   11.51
   2  -9  -5    0.66   10.58
  -2   9   5    9.37    8.87
   2  -9  -4    7.51   13.17
  -2   9   4    3.81    4.81
   2  -9  -3   20.52   18.48
  -2   9   3   61.67   29.24
   2  -9  -2   45.42   24.30
  -2   9   2   73.78   17.89
   2  -9  -1    7.80   11.70
  -2   9   1    9.91   11.48
   2  -9   0    2.61    9.83
  -2   9   0    3.66   10.89
   2  -9   1    3.85   10.18
  -2   9  -1    6.74   10.59
   2  -9   2   69.53   21.06
  -2   9  -2   70.59   15.88
   2  -9   3   27.76   18.73
  -2   9  -3   23.55    8.50
   2  -9   4    9.30   15.79
  -2   9  -4   10.89    7.60
   2  -9   5  607.48   64.48
  -2   9  -5  588.25   25.24
   2  -9   6   21.57   10.72
   2  -9   6   18.52    5.45
  -2   9  -6    9.86    5.57
   2  -9   7   49.17   11.63
   2  -9   7   27.40   20.07
   2  -9   8   17.04   14.92
   2  -9   8    2.65    6.44
   2  -9   9   10.51    8.78
   2  -9   9    3.22    4.03
   2  -9  10   17.73   14.08
   2  -9  10    6.40    6.16
   2  -9  11   17.32   14.73
   2  -9  11   12.82   10.49
   2  -8  -7    7.82   10.98
   2  -8  -6   14.12   10.80
  -2   8   6    5.57   12.86
   2  -8  -5    8.10   11.23
  -2   8   5    7.50    9.31
   2  -8  -4   44.46   17.33
  -2   8   4   42.85   20.59
   2  -8  -3    6.04    8.86
  -2   8   3    5.96    4.96
   2  -8  -2   25.06   11.97
  -2   8   2   23.17    9.64
   2  -8  -1   18.55   16.51
  -2   8   1   10.96   10.23
   2  -8   0   31.92   22.00
  -2   8   0   31.17   12.19
   2  -8   1  334.30   29.13
  -2   8  -1  370.71   30.56
   2  -8   2  990.63   81.13
  -2   8  -2  918.64   62.73
   2  -8   3   14.70   11.54
   2  -8   3   28.52    3.06
  -2   8  -3   33.37    7.87
   2  -8   4  738.56   52.77
   2  -8   4  668.91   42.09
  -2   8  -4  713.32   48.13
   2  -8   5  144.42   28.53
   2  -8   5  157.48    9.03
  -2   8  -5  129.72   33.06
   2  -8   6  795.23   33.84
   2  -8   6  706.97   24.68
  -2   8  -6  740.70   26.76
   2  -8   7   42.12   11.03
   2  -8   7   46.36    8.24
   2  -8   8   39.21   38.45
   2  -8   8   55.82    8.18
   2  -8   9    3.44    8.12
   2  -8   9    6.37    6.47
   2  -8  10    9.37   10.67
   2  -8  10    6.95    8.62
   2  -8  11   12.08    9.96
   2  -8  11   12.90    7.73
   2  -8  12    8.61    8.42
   2  -8  12    5.21    7.20
   2  -7  -8   19.39   12.70
  -2   7   8    5.58    7.36
   2  -7  -7    4.53   14.07
  -2   7   7   -5.10    9.68
   2  -7  -6   18.08    9.53
  -2   7   6    6.98    8.19
   2  -7  -5   26.86   10.39
  -2   7   5   30.45   14.14
   2  -7  -4   33.74   12.22
  -2   7   4   33.50   19.49
   2  -7  -3   25.24   10.14
  -2   7   3   36.37   17.00
   2  -7  -2   49.28   16.37
  -2   7   2   36.51   10.75
   2  -7  -1  818.41   33.96
  -2   7   1  850.47   35.18
   2  -7   0 2706.93   81.52
  -2   7   0 2756.45   39.74
   2  -7   1   91.30   30.79
  -2   7  -1   91.83   10.57
   2  -7   2  105.10   33.46
  -2   7  -2   87.03   11.32
   2  -7   3   14.59    8.13
   2  -7   3   10.13    2.36
  -2   7  -3   14.53    6.09
   2  -7   4  288.32   18.93
   2  -7   4  276.08   11.35
  -2   7  -4  282.51   13.86
   2  -7   5   23.69    7.96
   2  -7   5   10.25    3.72
  -2   7  -5   24.29    7.38
   2  -7   6  326.81   25.60
   2  -7   6  296.86   22.50
  -2   7  -6  303.94   20.99
   2  -7   7  108.11   14.99
   2  -7   7   44.59   27.61
   2  -7   8  235.75   30.40
   2  -7   8  187.97   13.97
   2  -7   9    5.38    7.72
   2  -7   9    8.20    7.05
   2  -7  10   32.93   17.52
   2  -7  10   47.47   14.68
   2  -7  11   66.33   40.96
   2  -7  11   84.45   15.68
   2  -7  12    3.62    7.37
   2  -7  12   -0.77    8.86
   2  -6  -9    1.52    7.80
  -2   6   9   14.02   10.72
   2  -6  -8   59.02   12.19
  -2   6   8   43.97   15.92
   2  -6  -7    7.51   10.41
  -2   6   7    1.21    5.51
   2  -6  -6   62.67   10.80
  -2   6   6   71.44   11.66
   2  -6  -5  685.25   32.74
  -2   6   5  831.13   26.96
  -2   6   5  659.76   30.44
   2  -6  -4  323.61   23.41
  -2   6   4  330.02   13.10
  -2   6   4  279.84   40.59
   2  -6  -3    3.86    6.70
  -2   6   3    3.04    1.52
  -2   6   3   13.62    5.76
   2  -6  -2  118.05   18.76
  -2   6   2  113.32   12.85
   2  -6  -1  309.65   17.79
  -2   6   1  340.28   18.79
   2  -6   0  424.97   28.77
  -2   6   0  430.90   24.51
   2  -6   1   65.87   22.23
  -2   6  -1   59.61    9.87
   2  -6   2    1.39    6.68
   2  -6   2    2.82    1.55
  -2   6  -2    2.64    5.84
   2  -6   3   97.57   11.80
   2  -6   3   82.91    5.84
  -2   6  -3   91.96    8.70
   2  -6   4  949.22   34.55
   2  -6   4  924.76   28.94
  -2   6  -4  939.46   29.34
   2  -6   5  124.42   12.97
   2  -6   5  111.24    9.10
  -2   6  -5  119.41    6.79
   2  -6   5  108.66    7.37
   2  -6   6   86.88   30.35
   2  -6   6   75.17   18.84
  -2   6  -6   82.11    4.14
   2  -6   7  210.30   19.68
   2  -6   7  182.15   17.84
   2  -6   8   96.60   12.55
   2  -6   8   79.62   13.47
   2  -6   9   -5.16    8.21
   2  -6   9   10.20   11.58
   2  -6  10   28.84   14.48
   2  -6  10   18.38    9.09
   2  -6  11  250.15   31.32
   2  -6  11  180.07   35.39
   2  -6  12    2.06    7.32
   2  -6  12    7.43    9.24
  -2   5  10   23.53   10.53
   2  -5  -9    2.63    8.27
  -2   5   9    4.77    3.53
  -2   5   9    7.69    9.68
   2  -5  -8   24.87   12.31
  -2   5   8   12.04   11.11
  -2   5   8    8.08    8.72
   2  -5  -7   15.09   13.44
  -2   5   7    5.51    5.41
  -2   5   7   -2.22    8.91
   2  -5  -6  116.89   15.37
  -2   5   6  135.83   23.90
  -2   5   6  102.91   46.66
   2  -5  -5   97.04   14.38
  -2   5   5  133.07   11.02
  -2   5   5  113.73   13.16
   2  -5  -4   34.96   19.81
  -2   5   4   37.25    3.62
  -2   5   4   40.89   18.55
   2  -5  -3   19.80    8.67
  -2   5   3   12.87    3.53
  -2   5   3   21.84    2.57
  -2   5   3   21.23   10.24
   2  -5  -2   82.42   11.80
  -2   5   2   97.40   27.13
   2  -5  -1  362.04   30.85
  -2   5   1  345.32   18.33
   2  -5   0  132.97   11.01
  -2   5   0  143.55   10.81
   2  -5   1    3.41    7.87
  -2   5  -1    1.26    3.99
   2  -5   2   46.83   14.82
   2  -5   2   39.78    5.12
  -2   5  -2   41.35   20.08
   2  -5   3   70.12   20.18
   2  -5   3   51.54    4.79
  -2   5  -3   58.86    7.91
   2  -5   4  485.87   25.70
   2  -5   4  455.21   21.27
  -2   5  -4  491.51   20.61
   2  -5   5   92.96   36.67
   2  -5   5   85.45    9.36
  -2   5  -5   92.03    4.90
   2  -5   6   32.29   13.26
   2  -5   6   30.27   10.66
   2  -5   7 1176.27   40.76
   2  -5   7  989.85   35.10
   2  -5   8   58.76   11.16
  -2   5  -9  387.09   33.09
   2  -5   9  368.77   23.38
  -2   5 -10    7.50   12.79
   2  -5  10   11.71   10.13
  -2   5 -11   20.44   14.28
   2  -5  11   17.73   12.35
  -2   5 -12  165.52   29.19
   2  -5  12  175.21   22.97
  -2   5 -13   32.68   16.36
   2  -5  13   21.51   11.32
  -2   4  11   26.53    7.54
  -2   4  11   25.21   28.57
  -2   4  10   -4.08    6.38
  -2   4  10    8.01    8.43
   2  -4  -9    9.76    7.80
  -2   4   9    8.91    6.87
  -2   4   9    1.29   10.18
   2  -4  -8   16.15   10.68
  -2   4   8   14.15   15.15
  -2   4   8   26.04   12.88
   2  -4  -7    2.10    8.78
  -2   4   7    7.95    6.78
  -2   4   7    2.40    5.84
   2  -4  -6   -2.89    7.42
  -2   4   6   -1.02    4.44
  -2   4   6   -0.68    9.10
   2  -4  -5    0.18    7.08
  -2   4   5   -0.26    3.25
  -2   4   5   -0.39    5.12
   2  -4  -4   14.13    8.20
  -2   4   4    5.16    2.70
  -2   4   4    2.92    6.85
   2  -4  -3   18.41    7.54
  -2   4   3    4.96    3.37
  -2   4   3    2.76    7.09
   2  -4  -2   89.01    7.85
  -2   4   2   93.67    2.24
  -2   4   2   87.22    7.11
   2  -4  -1   80.29   27.58
  -2   4   1   63.71   18.92
   2  -4   0  200.25   10.02
  -2   4   0  188.55    9.25
   2  -4   1  291.03   13.37
   2  -4   1  268.32    7.82
   2  -4   1  261.52    8.32
  -2   4  -1  273.05   12.03
   2  -4   2  132.50   18.10
   2  -4   2  132.22    6.55
  -2   4  -2  124.03    5.91
   2  -4   2   96.67    9.64
   2  -4   3   58.13   23.30
   2  -4   3   44.84    6.28
  -2   4  -3   46.55    3.45
   2  -4   4  145.80   15.95
   2  -4   4  139.23   10.07
  -2   4  -4  133.15    4.40
  -2   4  -5  333.31   27.38
   2  -4   5  329.09   17.82
  -2   4  -6   15.11   12.12
   2  -4   6   27.81    9.57
  -2   4  -7 1246.74   49.37
   2  -4   7 1284.96   43.49
  -2   4  -8   97.96   20.29
   2  -4   8   81.91   15.71
  -2   4  -9   12.29   14.57
   2  -4   9   -6.91    9.69
  -2   4 -10   18.20   13.19
   2  -4  10    8.45    9.45
  -2   4 -11   11.18   14.41
   2  -4  11    1.97   11.68
  -2   4 -12   42.45   16.11
   2  -4  12   42.50   13.42
  -2   4 -13   16.22   22.22
   2  -4  13    2.83   11.84
  -2   3  11   11.77    7.16
  -2   3  11    8.19    5.43
  -2   3  10    1.96    6.18
  -2   3  10   10.56    7.82
   2  -3  -9    0.25    7.35
  -2   3   9    5.23    7.81
  -2   3   9   -1.46    8.70
   2  -3  -8   42.29    8.44
  -2   3   8   29.81   15.22
  -2   3   8   44.45   14.68
   2  -3  -7    8.73    7.52
  -2   3   7   13.05    9.40
  -2   3   7   10.50   10.16
   2  -3  -6   12.16    6.77
  -2   3   6   10.90    6.39
  -2   3   6   -1.90    8.43
   2  -3  -5  309.92   16.06
  -2   3   5  340.58   14.39
  -2   3   5  354.24   19.68
   2  -3  -4   74.51    9.51
  -2   3   4   69.74   13.18
  -2   3   4   81.27   10.33
   2  -3  -3  127.26   10.24
  -2   3   3  122.62    4.54
   2  -3  -3  117.37    4.85
  -2   3   3  124.23   11.09
   2  -3  -2    5.26    3.71
  -2   3   2   -1.14    1.15
   2  -3  -2    1.27    1.48
  -2   3   2   -5.76    5.02
   2  -3  -1   58.65    6.05
  -2   3   1   54.73    2.92
   2  -3  -1   53.40    4.77
  -2   3   1   56.43    5.92
   2  -3   0  133.54    7.65
   2  -3   0  125.38    4.31
  -2   3   0  128.21    7.68
   2  -3   1 6229.49   37.26
   2  -3   2  585.60   22.79
   2  -3   2  521.44   15.44
   2  -3   2  613.00   19.02
  -2   3  -2  573.34   17.58
   2  -3   2  606.49   20.19
  -2   3  -3 2169.64   36.84
   2  -3   3 2158.36   58.99
  -2   3  -3 2151.88   55.43
  -2   3  -4   72.36   11.78
   2  -3   4   77.38    8.13
  -2   3  -5   86.54   15.12
   2  -3   5  104.68   12.77
  -2   3  -6  556.45   33.40
   2  -3   6  512.61   22.56
  -2   3  -7    8.88    9.03
   2  -3   7    9.45    9.75
  -2   3  -8    5.08   10.35
   2  -3   8    7.57    9.29
  -2   3  -9   20.62   20.21
   2  -3   9   26.44    9.65
  -2   3 -10   21.85   20.07
   2  -3  10   13.03   10.46
  -2   3 -11   48.97   26.58
   2  -3  11   40.33   13.60
  -2   3 -12    4.38   10.64
   2  -3  12   11.18   12.52
  -2   2  12    7.79    7.97
  -2   2  12   -1.30    6.87
  -2   2  11   14.06    8.07
  -2   2  11    5.32    4.11
  -2   2  10    6.51    7.14
  -2   2  10    4.71    8.93
   2  -2  -9   68.13   11.71
  -2   2   9   50.55   23.29
  -2   2   9   38.03   26.97
   2  -2  -8    4.12    5.67
  -2   2   8    3.61    7.33
  -2   2   8    5.29    8.08
   2  -2  -7   11.02    6.95
  -2   2   7   -2.99    6.30
  -2   2   7   -0.72    7.90
   2  -2  -6    3.44    5.95
  -2   2   6    1.59    5.21
  -2   2   6    4.16    6.57
   2  -2  -5   45.28    7.35
  -2   2   5   46.05    6.47
  -2   2   5   60.93   23.16
   2  -2  -4   82.33    7.81
  -2   2   4   86.22    4.64
  -2   2   4   88.63    6.24
  -2   2   4   94.06   10.07
   2  -2  -3  267.90   12.09
  -2   2   3  278.36    9.63
  -2   2   3  262.28    9.34
   2  -2  -3  236.34    9.54
  -2   2   3  284.20   14.84
   2  -2  -2   93.80    5.98
  -2   2   2   83.87    4.50
  -2   2   2   77.12    3.90
   2  -2  -2   90.05    8.60
  -2   2   2   84.39   21.14
   2  -2  -1  190.02   10.60
   2  -2  -1  215.82    9.40
  -2   2   1  197.32    6.75
   2  -2  -1  180.56    6.32
  -2   2   1  187.96   10.28
   2  -2   0   32.54   20.50
   2  -2   0   45.80    4.55
  -2   2   0   39.42    2.80
   2  -2   0   43.37    4.17
  -2   2   0   56.53   10.73
  -2   2  -1   21.54    7.30
   2  -2   1   25.24    3.37
  -2   2  -1   25.22    5.01
   2  -2   1   25.60    3.07
  -2   2  -2 2865.51   42.41
  -2   2  -3  374.82   19.62
   2  -2   3  384.64   14.85
   2  -2   3  409.67   11.69
  -2   2  -4    8.28    9.28
   2  -2   4    0.94    6.72
  -2   2  -5   43.38   27.25
   2  -2   5   31.81   10.35
  -2   2  -6  375.65   24.30
   2  -2   6  401.43   23.21
  -2   2  -7   76.41   43.80
   2  -2   7  109.22   15.92
  -2   2  -8   26.94   27.11
   2  -2   8   18.16   11.06
  -2   2  -9    2.58    7.62
   2  -2   9    2.19   11.74
  -2   2 -10   18.25   14.67
   2  -2  10   19.49   11.26
  -2   2 -11   21.01   13.50
   2  -2  11   24.90   16.33
  -2   2 -12   13.66   21.32
   2  -2  12    8.91   13.73
  -2   1  12   21.76    9.44
  -2   1  12   55.44   34.56
  -2   1  11   14.50   12.28
  -2   1  11   12.13    8.23
  -2   1  10   31.84   12.70
  -2   1  10   19.00   38.14
   2  -1  -9    9.81    6.16
  -2   1   9   16.67   10.52
  -2   1   9    7.21    7.94
   2  -1  -8  123.66   11.85
  -2   1   8  138.26   13.82
  -2   1   8  126.99   13.64
   2  -1  -7   20.70    5.88
  -2   1   7   39.03    8.03
  -2   1   7   23.88   13.27
   2  -1  -6  281.86   14.62
  -2   1   6  258.84   20.35
  -2   1   6  309.89   17.36
  -2   1   6  284.54   16.11
   2  -1  -5 1744.78   42.86
  -2   1   5 1722.21   40.34
  -2   1   5 1786.42   45.03
  -2   1   5 1669.47   44.19
   2  -1  -4  913.55   23.94
  -2   1   4  847.42   20.33
  -2   1   4  870.18   23.41
  -2   1   4  868.68   26.22
   2  -1  -3   63.01    4.80
  -2   1   3   71.18    3.32
  -2   1   3   60.35    4.19
  -2   1   3   59.72    6.70
   2  -1  -2  296.81   11.11
   2  -1  -2  292.68    9.52
  -2   1   2  285.25   10.50
   2  -1  -2  299.14   10.65
  -2   1   2  311.28   12.52
   2  -1  -1 1112.81   23.39
   2  -1  -1 1089.61   20.85
  -2   1   1 1207.41   22.93
   2  -1  -1 1185.75   22.46
  -2   1   1 1162.04   24.88
  -2   1   0   92.20    9.46
   2  -1   0   85.59    6.58
  -2   1   0   70.32    4.01
   2  -1   0   80.80    4.63
  -2   1   0   71.69   12.00
   2  -1   0   88.00    5.47
  -2   1  -1   85.04   14.50
   2  -1   1  100.97    5.74
  -2   1  -1   99.99    4.57
   2  -1   1   90.46    4.13
  -2   1  -2 1278.94   53.98
   2  -1   2 1171.54   31.45
  -2   1  -3  451.96   20.89
   2  -1   3  413.20   12.06
   2  -1   3  425.13   15.30
  -2   1  -4    7.47    6.78
   2  -1   4    0.85    7.05
   2  -1   4    3.36    1.76
   2  -1   4    1.77    3.01
  -2   1  -5  103.82   16.02
   2  -1   5  109.12   11.55
   2  -1   5  101.64    5.64
  -2   1  -6  223.13   18.98
   2  -1   6  206.98   15.55
   2  -1   6  204.10    7.53
  -2   1  -7   12.33   16.22
   2  -1   7   13.69   13.87
   2  -1   7    5.38    2.06
  -2   1  -7   11.10    3.06
  -2   1  -8   41.47   31.35
   2  -1   8   45.22   17.32
  -2   1  -9    5.32   10.54
   2  -1   9    3.95   11.48
  -2   1 -10   43.36   35.64
   2  -1  10   68.62   14.11
  -2   1 -11   11.19   13.67
   2  -1  11    9.80   12.26
  -2   1 -12   30.49   28.50
   2  -1  12   49.57   18.14
  -2   0  13   26.18    9.60
  -2   0  13   22.69    7.20
  -2   0  12    5.66    7.74
  -2   0  12   -0.75    7.07
  -2   0  11  107.52   11.95
  -2   0  11  117.58   11.94
  -2   0  10  596.29   35.77
  -2   0  10  560.12   32.67
   2   0  -9  348.70   27.65
  -2   0   9  428.08   21.78
  -2   0   9  386.96   21.47
   2   0  -8   -0.42    3.30
  -2   0   8   -4.45    6.60
  -2   0   8    1.66    2.98
   2   0  -7   13.95    7.11
  -2   0   7   19.96    3.28
  -2   0   7   22.32    5.96
  -2   0   7   19.12   12.62
   2   0  -6  134.23    8.42
  -2   0   6  144.64    7.55
  -2   0   6  143.62   20.58
  -2   0   6  141.96   10.46
   2   0  -5   15.12    8.41
  -2   0   5   24.22    3.55
  -2   0   5   23.79    7.76
  -2   0   5   28.59   15.49
  -2   0   4   24.66    5.50
  -2   0   4   21.12    6.40
  -2   0   3  345.18   12.56
  -2   0   3  347.32   15.12
   2   0  -2    5.35    1.83
   2   0  -2    6.27    2.39
  -2   0   2   10.06    3.35
  -2   0   2    7.94    6.31
  -2   0   1 2077.89   38.98
   2   0  -1 2089.82   38.51
  -2   0   1 2058.95   38.65
  -2   0   1 2078.19   39.51
  -2   0   0  106.37    9.38
   2   0   0  104.69    6.59
  -2   0   0  101.77    5.72
   2   0   0   98.39    4.89
  -2   0  -1   11.18    9.41
  -2   0  -1    4.70    3.25
   2   0   1    7.01    3.66
  -2   0  -2    3.27    9.19
   2   0   2    1.59    2.10
   2   0   2    3.44    4.64
  -2   0  -3    8.81    9.56
   2   0   3   -2.84    7.50
  -2   0  -4  124.93   17.86
   2   0   4  122.46   11.65
   2   0   4   81.45   10.51
  -2   0  -5   28.89   14.28
   2   0   5   22.24   10.41
   2   0   5   21.75    6.41
  -2   0  -5   23.44    5.29
  -2   0  -6   51.86   15.69
   2   0   6   58.60   13.15
   2   0   6   40.88    5.39
  -2   0  -6   44.02    5.73
  -2   0  -7   29.21   15.36
   2   0   7   31.74    9.74
   2   0   7   18.46   13.87
  -2   0  -8  384.46   32.30
   2   0   8  420.22   28.74
   2   0   8  383.74   15.35
  -2   0  -9  209.77   27.56
   2   0   9  171.07   18.90
  -2   0 -10   13.04   14.64
   2   0  10    6.39   11.59
  -2   0 -11   34.07   32.99
   2   0  11    7.33   12.73
  -2   0 -12  -10.49   15.82
   2   0  12   -5.26   12.63
  -2  -1  13    3.33    7.68
  -2  -1  13    3.39    3.17
  -2  -1  12   91.42   15.46
  -2  -1  12   44.41   33.06
  -2  -1  11  184.58   19.06
  -2  -1  11  178.16   17.25
  -2  -1  10   11.93    8.91
  -2  -1  10    9.78    5.81
   2   1  -9   12.89    7.88
  -2  -1   9   29.89    7.84
  -2  -1   9   19.53    8.33
   2   1  -8   15.41    9.86
  -2  -1   8   34.99    8.62
  -2  -1   8   35.63    9.82
   2   1  -7  210.15    9.74
  -2  -1   7  238.91   10.11
  -2  -1   7  249.82   14.12
  -2  -1   7  251.73   15.65
  -2  -1   6  663.11   25.37
  -2  -1   6  741.62   28.46
  -2  -1   6  758.51   32.17
  -2  -1   6  668.45   29.85
  -2  -1   5   73.40    6.70
  -2  -1   5   68.43    7.68
  -2  -1   4   75.74    5.87
  -2  -1   4   78.16   11.27
  -2  -1   3  711.13   22.58
  -2  -1   3  741.09   25.69
  -2  -1   2  548.35   16.34
   2   1  -2  587.03   17.44
  -2  -1   2  599.98   18.87
  -2  -1   2  665.08   19.85
  -2  -1   1  557.39   15.26
   2   1  -1  573.28   15.18
  -2  -1   1  591.27   15.95
  -2  -1   0   29.88    8.40
   2   1   0   17.73    5.58
  -2  -1   0   19.04   10.21
  -2  -1  -1   65.01    8.40
  -2  -1  -1   52.64    5.99
   2   1   1   53.65    6.79
  -2  -1  -2  214.83   13.55
   2   1   2  194.43   14.74
  -2  -1  -3  373.46   22.05
   2   1   3  358.18   22.02
  -2  -1  -4    8.94   12.49
   2   1   4    2.32   11.77
  -2  -1  -5   12.83   12.86
   2   1   5    5.95    7.74
   2   1   5   -0.15    8.09
  -2  -1  -6   60.97   14.55
   2   1   6   44.53   11.41
   2   1   6   47.73    7.87
  -2  -1  -7   53.78   17.22
   2   1   7   51.10   14.26
   2   1   7   29.06   12.15
  -2  -1  -8   74.00   18.22
   2   1   8   80.70   13.01
   2   1   8   61.27   13.94
  -2  -1  -9    4.69   16.08
   2   1   9   14.88   13.73
  -2  -1 -10   10.39   14.00
   2   1  10    6.64   11.92
  -2  -1 -11    6.19   13.57
   2   1  11   12.25   10.77
  -2  -2  13    3.85    7.81
  -2  -2  13    2.06    6.65
  -2  -2  12    1.48    5.67
  -2  -2  12    3.12    3.65
  -2  -2  11   -0.82    9.05
  -2  -2  11    0.20    4.37
  -2  -2  10    4.08    5.03
  -2  -2  10   12.89    7.36
  -2  -2  10    7.23    9.17
  -2  -2   9    1.78    2.31
  -2  -2   9    3.31    8.15
  -2  -2   9    5.69    8.45
  -2  -2   8   91.27    6.64
  -2  -2   8   75.60    9.86
  -2  -2   8   83.35   28.38
  -2  -2   7   46.85    4.27
  -2  -2   7   42.64    5.44
  -2  -2   7   54.19   25.34
  -2  -2   7   37.51   24.56
  -2  -2   6  439.74   17.56
  -2  -2   6  474.11   18.18
  -2  -2   6  463.42   21.91
  -2  -2   6  461.26   23.26
  -2  -2   5   15.27    4.98
  -2  -2   5   18.82    8.04
  -2  -2   4  100.77    4.08
  -2  -2   4  119.08    9.28
  -2  -2   4  147.34   14.08
  -2  -2   3  592.14   17.62
   2   2  -3  548.04   15.58
  -2  -2   3  546.38   18.32
  -2  -2   2 1115.75   32.35
   2   2  -2 1143.81   32.36
  -2  -2   2 1198.10   35.20
  -2  -2   1  134.36    9.03
   2   2  -1  143.52    9.02
  -2  -2   1  139.27    9.19
  -2  -2   0  721.02   24.90
  -2  -2   0  699.98   22.56
   2   2   0  750.57   26.36
  -2  -2  -1   45.09   10.21
  -2  -2  -1   42.90   12.36
   2   2   1   38.24    8.78
  -2  -2  -2 1396.53   40.84
   2   2   2 1258.88   39.22
  -2  -2  -3  475.67   23.70
   2   2   3  398.86   26.03
  -2  -2  -4  171.77   16.04
   2   2   4  202.97   25.20
  -2  -2  -5    3.67   11.57
   2   2   5    0.81    7.07
   2   2   5    9.21    9.56
  -2  -2  -6   25.87   18.07
   2   2   6    2.59    7.17
   2   2   6    1.31    8.29
  -2  -2  -7   10.93   15.15
   2   2   7    0.64    8.73
   2   2   7    8.77    6.37
  -2  -2  -8   25.39   14.89
   2   2   8   31.73   11.85
   2   2   8   36.44   10.26
  -2  -2  -9   21.36   15.65
   2   2   9   19.68   17.38
   2   2   9    4.54    5.23
  -2  -2 -10   46.70   18.40
   2   2  10   10.62   10.73
  -2  -2 -11   -1.99    9.31
   2   2  11   -4.64   12.04
  -2  -3  13    7.19    9.25
  -2  -3  13    2.18    7.31
  -2  -3  12    5.51    9.22
  -2  -3  12    6.40    9.38
  -2  -3  11   -1.00    7.04
  -2  -3  11    3.43    5.15
  -2  -3  10   27.86   13.17
  -2  -3  10   30.22    7.92
  -2  -3  10   37.08   23.53
  -2  -3   9   44.29   11.74
  -2  -3   9   58.77   18.62
  -2  -3   9   44.88   25.65
  -2  -3   8   25.45    5.85
  -2  -3   8   22.46   12.48
  -2  -3   8   21.60   15.54
  -2  -3   7    2.07    2.17
  -2  -3   7    7.46    3.54
  -2  -3   7    8.83    7.95
  -2  -3   7    7.55    9.99
  -2  -3   6   21.59   12.97
  -2  -3   6   37.74   12.69
  -2  -3   6   44.69    9.74
  -2  -3   5    1.31    2.45
  -2  -3   5   10.56    3.51
  -2  -3   5    8.32    6.37
   2   3  -4 5062.12   23.60
  -2  -3   3   79.15    7.34
   2   3  -3   69.85    5.15
  -2  -3   3   93.98    8.43
  -2  -3   2 3749.02   33.27
  -2  -3   1   20.92    6.35
  -2  -3   1   27.84   12.94
   2   3  -1   22.81    8.67
  -2  -3   0  137.67   12.75
  -2  -3   0  140.81    8.53
   2   3   0  134.12   16.22
  -2  -3  -1   28.21    9.43
  -2  -3  -1   44.32   25.70
   2   3   1   34.64   18.31
  -2  -3  -2   65.47   27.93
  -2  -3  -2   76.80   10.02
   2   3   2   57.66   15.09
  -2  -3  -3  149.63   16.25
   2   3   3  127.43   22.59
  -2  -3  -4   21.71   11.66
   2   3   4    3.59   16.66
  -2  -3  -5    2.43   10.82
   2   3   5    6.36   12.40
  -2  -3  -6   85.08   14.96
   2   3   6   80.12   13.51
   2   3   6   87.37   14.48
  -2  -3  -7   21.76   13.75
   2   3   7    4.24    8.27
   2   3   7   14.49    7.70
  -2  -3  -8   -9.02   14.98
   2   3   8    7.63   10.76
   2   3   8    4.26    5.75
  -2  -3  -9    5.23   16.99
   2   3   9   15.27   16.26
   2   3   9    3.85    3.50
  -2  -3 -10    6.60   16.60
   2   3  10   15.79   12.13
  -2  -4  13   21.53   15.62
  -2  -4  12   60.52   34.22
  -2  -4  11    2.74    5.71
  -2  -4  10  238.13   14.62
  -2  -4  10  251.18   20.76
  -2  -4   9  752.72   36.38
  -2  -4   9  826.14   34.69
  -2  -4   8  388.00   17.34
  -2  -4   8  400.45   21.60
  -2  -4   7  153.63   14.68
  -2  -4   7  177.75   14.64
  -2  -4   6   16.23    9.76
  -2  -4   6   30.47    6.09
  -2  -4   6   27.98    7.64
  -2  -4   5  115.37    8.51
   2   4  -5  120.77    8.39
  -2  -4   5  138.73   13.14
  -2  -4   4  165.31    9.39
  -2  -4   4  166.45   11.11
  -2  -4   3  222.09   12.80
  -2  -4   3  228.65   15.32
   2   4  -3  251.52   17.03
  -2  -4   2  155.33   11.16
  -2  -4   2  166.41    9.83
   2   4  -2  157.25   19.03
  -2  -4   1    6.99    8.25
  -2  -4   1   -0.02    3.12
   2   4  -1   13.41   15.31
  -2  -4   0  666.33   25.64
  -2  -4   0  711.88   22.31
   2   4   0  674.72   35.69
  -2  -4  -1  125.76   11.51
  -2  -4  -1  135.82   21.87
   2   4   1   81.91   23.21
  -2  -4  -2  216.43   17.29
  -2  -4  -2  243.88   15.17
   2   4   2  311.05   36.88
  -2  -4  -3   20.39   11.17
   2   4   3   14.51   18.13
  -2  -4  -4   20.08   10.45
   2   4   4    0.84   14.61
  -2  -4  -5   34.07   17.09
   2   4   5   13.13   12.93
  -2  -4  -6   35.33   18.78
   2   4   6    7.20    7.66
   2   4   6    7.76   11.85
  -2  -4  -7   -3.17   12.37
   2   4   7    6.96    7.97
   2   4   7   12.37    9.60
  -2  -4  -8    8.20   13.90
   2   4   8   11.50   10.28
   2   4   8    3.88    7.76
  -2  -4  -9   29.76   16.54
   2   4   9   25.11   11.07
   2   4   9   28.54    7.66
  -2  -4 -10   16.72   14.99
   2   4  10   15.28   13.03
  -2  -5  13   31.48    9.59
  -2  -5  12   10.25    9.43
  -2  -5  11   16.10    9.79
  -2  -5  10    9.78    5.38
  -2  -5  10    4.02    9.69
  -2  -5   9  206.23   16.53
  -2  -5   9  206.99   16.28
  -2  -5   8  526.92   35.45
  -2  -5   8  524.27   37.10
  -2  -5   7  190.11    9.93
  -2  -5   7  189.90   12.64
  -2  -5   6   37.03   16.69
  -2  -5   6   51.77    8.25
  -2  -5   5   -1.45    5.13
  -2  -5   5    4.90    4.63
   2   5  -5    2.90   13.11
  -2  -5   4   38.57   14.27
  -2  -5   4   51.39   22.41
   2   5  -4   58.38   13.12
  -2  -5   3   96.04   14.32
  -2  -5   3  113.01   13.64
   2   5  -3  116.48   25.12
  -2  -5   2   37.96   11.23
  -2  -5   2   31.18   11.17
   2   5  -2   23.63   27.13
  -2  -5   1   22.60    9.61
  -2  -5   1   12.88    7.79
   2   5  -1   41.63   20.12
  -2  -5   0  267.29   18.57
  -2  -5   0  287.80   16.66
   2   5   0  261.49   34.08
  -2  -5  -1  203.61   19.24
  -2  -5  -1  187.20   12.10
   2   5   1  228.07   27.94
  -2  -5  -2  112.19   18.86
   2   5   2   51.32   21.60
  -2  -5  -3  323.06   21.40
   2   5   3  324.54   37.02
  -2  -5  -4    3.30    9.91
   2   5   4   21.99   16.46
  -2  -5  -5  293.34   27.76
   2   5   5  225.08   26.37
  -2  -5  -6   35.33   14.75
   2   5   6   49.94   13.27
   2   5   6   40.11   19.22
  -2  -5  -7    9.88   11.91
   2   5   7   31.05   13.46
   2   5   7    6.66    8.60
  -2  -5  -8   53.06   21.22
   2   5   8   52.70   14.47
   2   5   8   37.27   13.12
  -2  -5  -9   -0.61   13.79
   2   5   9    7.76    8.70
   2   5   9   13.66    7.27
  -2  -6  13   11.27   11.24
  -2  -6  12    3.31    9.02
  -2  -6  11   91.55   14.86
  -2  -6  10   18.04    8.66
  -2  -6  10   11.00    8.64
  -2  -6   9   10.84    7.51
  -2  -6   9    2.65    8.49
  -2  -6   8  447.04   20.30
  -2  -6   8  452.43   22.89
   2   6  -8  600.79   34.83
  -2  -6   7    5.51    5.00
  -2  -6   7    0.67    8.30
   2   6  -7    0.08   12.83
  -2  -6   6   -2.63    5.25
  -2  -6   6    0.99    7.84
   2   6  -6    2.59   15.27
  -2  -6   5   66.46    7.67
  -2  -6   5   97.74   12.34
   2   6  -5   99.30   22.00
  -2  -6   4    0.76    5.56
  -2  -6   4    5.51    6.97
   2   6  -4    4.48   14.03
  -2  -6   3    7.41    5.73
  -2  -6   3    6.88    7.14
   2   6  -3   16.57   19.00
  -2  -6   2    8.84    9.26
  -2  -6   2    8.48    4.14
   2   6  -2    5.38   23.04
  -2  -6   1   29.79   12.21
  -2  -6   1   30.47   11.60
   2   6  -1   33.22   25.03
  -2  -6   0   16.11   11.49
  -2  -6   0    6.63    3.76
   2   6   0   12.16   22.33
  -2  -6  -1   46.09   13.31
  -2  -6  -1   44.64   16.98
   2   6   1   26.07   23.38
  -2  -6  -2    2.29   11.93
   2   6   2   -5.42   22.01
  -2  -6  -3  683.68   36.45
   2   6   3  606.73   52.18
  -2  -6  -4  252.44   28.76
   2   6   4  201.43   24.08
  -2  -6  -5   14.08   14.03
   2   6   5   41.68   15.49
  -2  -6  -6    4.42   12.14
   2   6   6   14.85    8.60
   2   6   6   23.92   14.61
  -2  -6  -7    1.50   12.98
   2   6   7    7.04    8.26
   2   6   7    2.78    9.49
  -2  -6  -8   -5.40   13.01
   2   6   8   13.93    8.48
   2   6   8    4.82    8.76
  -2  -7  13   47.42   12.51
   2   7 -13  100.94   16.83
  -2  -7  12    4.71    9.68
   2   7 -12    8.22   13.60
  -2  -7  11   58.05   14.89
   2   7 -11   52.53   19.09
  -2  -7  10    9.59    5.45
  -2  -7  10   18.85    8.30
   2   7 -10   18.33   12.18
  -2  -7   9   46.51   22.67
  -2  -7   9   75.76   15.85
   2   7  -9   83.54   15.18
  -2  -7   8   75.73   25.98
  -2  -7   8  107.45   18.07
   2   7  -8  106.18   14.85
  -2  -7   7  427.85   25.42
  -2  -7   7  500.92   25.17
   2   7  -7  465.91   28.51
  -2  -7   6   10.49    9.11
  -2  -7   6   11.75    7.03
   2   7  -6   13.25   16.53
  -2  -7   5  276.80   18.57
  -2  -7   5  281.90   16.69
   2   7  -5  296.14   25.37
  -2  -7   4   18.34    9.10
  -2  -7   4   13.11    7.38
   2   7  -4   29.96   21.26
  -2  -7   3  635.60   41.26
  -2  -7   3  732.37   25.93
   2   7  -3  585.84   38.90
  -2  -7   2  174.20   20.99
  -2  -7   2  148.58   12.65
   2   7  -2  141.48   25.62
  -2  -7   1 1157.43   43.77
  -2  -7   1 1164.32   38.39
   2   7  -1 1132.84   61.57
  -2  -7   0   31.66   17.18
  -2  -7   0   16.05   15.74
   2   7   0   30.47   27.83
  -2  -7  -1  150.32   22.37
  -2  -7  -1  123.19   16.85
   2   7   1  110.06   26.51
  -2  -7  -2  129.75   19.53
   2   7   2  136.15   31.51
  -2  -7  -3   -3.56   12.96
   2   7   3   -2.88   18.45
  -2  -7  -4    7.94   14.56
   2   7   4    0.94   15.21
  -2  -7  -5   15.63   13.49
   2   7   5   -9.25   15.49
  -2  -7  -6   11.62   18.67
   2   7   6    1.73    7.21
   2   7   6   12.91   14.90
  -2  -7  -7   15.47   13.16
   2   7   7   29.73    9.67
   2   7   7   34.24   10.54
  -2  -8  12   33.56   12.40
   2   8 -12   63.56   23.45
  -2  -8  11   15.11   13.27
   2   8 -11   20.24   14.73
  -2  -8  10    1.79    4.67
  -2  -8  10   -2.36    9.43
   2   8 -10    5.55   11.94
  -2  -8   9    6.81    4.68
  -2  -8   9   16.85    9.06
   2   8  -9    4.03   13.17
  -2  -8   8   11.52    9.10
  -2  -8   8    2.48    5.03
   2   8  -8    9.33   15.32
  -2  -8   7   47.04    8.65
  -2  -8   7   46.73   10.56
   2   8  -7   60.91   16.11
  -2  -8   6   59.26   22.88
  -2  -8   6   61.99   23.10
   2   8  -6   49.00   24.53
  -2  -8   5  273.74   25.87
  -2  -8   5  227.25   14.54
   2   8  -5  221.73   36.36
  -2  -8   4   -4.07    9.49
  -2  -8   4   -0.13    8.03
   2   8  -4   -6.25   22.94
  -2  -8   3   -0.01    4.41
  -2  -8   3    7.71    7.38
   2   8  -3  -20.69   24.37
  -2  -8   2  772.73   36.27
  -2  -8   2  788.36   33.28
   2   8  -2  731.23   50.44
  -2  -8   1  109.86   15.13
  -2  -8   1  124.13   12.48
   2   8  -1   99.42   29.91
  -2  -8   0   26.11   14.77
  -2  -8   0   27.93   10.47
   2   8   0   63.43   28.89
  -2  -8  -1   -5.80   10.79
  -2  -8  -1    4.85    4.12
   2   8   1    3.42   24.29
  -2  -8  -2   14.92   12.23
   2   8   2    9.32   20.43
  -2  -8  -3   32.43   14.72
   2   8   3   47.16   25.99
  -2  -8  -4    0.45   12.84
   2   8   4   31.92   18.80
  -2  -8  -5   21.71   16.47
   2   8   5   15.63    9.58
   2   8   5   10.18   14.32
  -2  -8  -6    0.95   14.79
   2   8   6    1.63    7.42
   2   8   6    9.35   12.58
  -2  -9  12   12.77   12.50
   2   9 -12   35.52   14.92
  -2  -9  11   43.12   10.58
   2   9 -11   31.21   18.21
  -2  -9  10    2.17    6.39
  -2  -9  10    0.10    8.83
   2   9 -10    6.34   14.03
  -2  -9   9  114.47   11.81
  -2  -9   9   93.98   47.74
   2   9  -9  114.33   22.93
  -2  -9   8   10.73    7.44
  -2  -9   8    5.35    7.76
   2   9  -8    6.69   21.83
  -2  -9   7   35.24   14.53
  -2  -9   7   32.81   21.45
   2   9  -7   25.89   25.15
  -2  -9   6  217.33   22.21
  -2  -9   6  197.35   43.97
   2   9  -6  202.05   33.49
  -2  -9   5  224.67   29.00
  -2  -9   5  217.12   18.54
   2   9  -5  175.73   25.40
  -2  -9   4   19.81   14.09
  -2  -9   4    8.31    8.19
   2   9  -4  -13.84   21.93
  -2  -9   3   14.44   12.58
  -2  -9   3    8.33    5.57
   2   9  -3    4.77   27.28
  -2  -9   2  268.22   27.58
  -2  -9   2  233.82   15.82
   2   9  -2  231.64   39.95
  -2  -9   1   -1.51   12.74
  -2  -9   1    4.27    3.10
   2   9  -1    4.80   25.08
  -2  -9   0   94.33   19.78
  -2  -9   0   58.59   30.01
   2   9   0  103.07   24.79
  -2  -9  -1   12.47   11.49
   2   9   1   10.65   22.66
  -2  -9  -2    9.96   13.84
  -2  -9  -3   14.04   16.30
   2   9   3   12.31   17.35
  -2  -9  -4   26.25   14.63
   2   9   4   17.36   16.43
  -2  -9  -5   -0.26   15.40
   2   9   5    2.33    6.46
   2   9   5    0.73   13.93
  -2 -10  11   34.75   12.17
   2  10 -11   27.72   23.85
  -2 -10  10    1.66    6.47
  -2 -10  10   12.31    9.37
   2  10 -10    3.15   20.22
  -2 -10   9    6.20    7.63
  -2 -10   9    8.23    9.00
   2  10  -9    5.11   18.68
  -2 -10   8   63.49   15.52
  -2 -10   8   42.35   21.69
   2  10  -8   41.86   23.42
  -2 -10   7   21.02    8.95
  -2 -10   7   17.10    9.42
   2  10  -7   16.18   24.31
  -2 -10   6   10.01   12.20
  -2 -10   6   12.52    7.86
   2  10  -6    9.46   26.56
  -2 -10   5   22.22   10.04
  -2 -10   5   35.30   12.90
   2  10  -5   59.62   31.10
  -2 -10   4   16.30    9.64
  -2 -10   4    6.50    6.48
   2  10  -4    8.21   22.00
  -2 -10   3   20.66   12.86
  -2 -10   3   11.50    5.58
   2  10  -3   10.44   29.25
  -2 -10   2   11.83   13.27
  -2 -10   2    6.18    5.54
   2  10  -2  -10.85   28.60
  -2 -10   1   71.74   15.57
  -2 -10   1   68.43    8.10
   2  10  -1   28.03   23.91
  -2 -10   0   -7.83   12.50
  -2 -10   0    2.29    4.78
  -2 -10  -1   47.10   18.06
   2  10   1   83.39   28.39
  -2 -10  -2    7.69   12.45
   2  10   2    5.36   21.17
  -2 -10  -3   15.21   12.63
   2  10   3    4.05   16.62
  -2 -11  10    6.69    7.68
   2  11 -10   35.29   25.31
  -2 -11   9   51.29   17.23
  -2 -11   9   27.84   28.37
   2  11  -9   47.74   26.97
  -2 -11   8   49.49   12.47
  -2 -11   8   37.84   24.31
   2  11  -8   25.01   24.42
  -2 -11   7   20.02   13.82
  -2 -11   7   11.00   12.22
   2  11  -7    0.13   21.07
  -2 -11   6  165.45   24.38
  -2 -11   6  141.35   18.65
   2  11  -6  111.90   34.64
  -2 -11   5   11.59    9.76
  -2 -11   5    7.20    7.23
   2  11  -5  -21.64   28.37
  -2 -11   4   -5.77   10.32
  -2 -11   4    0.45    4.69
   2  11  -4    2.35   25.70
  -2 -11   3   -5.34   11.41
  -2 -11   3    2.38    6.89
   2  11  -3   -2.30   20.43
  -2 -11   2   34.47   16.75
  -2 -11   2   11.29    8.44
   2  11  -2   30.34   21.45
  -2 -11   1    9.13   11.55
  -2 -11   1    0.37    2.67
   2  11  -1   30.53   26.28
  -2 -11   0    7.53   13.99
   2  11   0   83.62   36.64
  -2 -11  -1   23.98   14.69
   2  11   1   48.90   26.23
  -2 -12   8   25.18   13.88
  -2 -12   8   34.61    9.80
   2  12  -8   10.87   26.81
  -2 -12   7   25.83   12.30
  -2 -12   7   54.37   10.61
   2  12  -7   52.73   25.03
  -2 -12   6   33.13   12.81
  -2 -12   6   19.47   20.07
   2  12  -6   16.74   23.50
  -2 -12   5   33.76   16.03
  -2 -12   5   16.15   14.96
   2  12  -5   27.44   27.20
  -2 -12   4   11.90   15.00
  -2 -12   4    1.62    3.62
   2  12  -4   25.15   24.85
  -2 -12   3   10.05   11.07
  -2 -12   3   -2.42    4.74
   2  12  -3   10.42   21.26
  -2 -12   2   44.52   16.13
  -2 -12   2   21.02   16.19
   2  12  -2   56.31   32.40
   3 -12   2   17.90   11.09
  -3  12  -2    0.29    8.35
   3 -12   3   26.19   25.80
  -3  12  -3   16.43   24.16
   3 -12   4   30.41   20.19
   3 -12   5  131.94   26.28
   3 -11  -1    9.79   11.04
  -3  11   1    3.31    9.94
   3 -11   0   44.04   13.63
  -3  11   0   86.30   19.80
   3 -11   1   25.32   14.01
  -3  11  -1    9.61   13.64
   3 -11   2   17.56   14.79
  -3  11  -2   17.18   12.26
   3 -11   3  100.73   59.06
  -3  11  -3   73.66   50.29
   3 -11   4    8.12   10.65
  -3  11  -4    9.70    7.72
   3 -11   5    9.48   10.98
   3 -11   6   38.68   15.19
   3 -11   7   14.29   11.41
   3 -11   8   23.05   16.16
   3 -10  -3  252.16   40.64
  -3  10   3  309.25   23.03
   3 -10  -2   89.07   69.39
  -3  10   2   96.85   57.71
   3 -10  -1    7.30   11.82
  -3  10   1   16.18   10.51
   3 -10   0   94.04   18.12
  -3  10   0   58.42   27.83
   3 -10   1    5.96    8.96
  -3  10  -1    4.42   10.12
   3 -10   2   12.13   10.08
  -3  10  -2   16.18   10.12
   3 -10   3   10.22   15.80
  -3  10  -3   10.82   11.24
   3 -10   4   -1.92   11.18
  -3  10  -4    1.80    3.35
   3 -10   5   17.87   22.44
   3 -10   6   72.75   17.64
   3 -10   7   27.38   10.51
   3 -10   8    1.05   11.77
   3 -10   9   19.27   18.08
   3  -9  -5    2.81    8.69
  -3   9   5    5.93   10.73
   3  -9  -4   14.45   15.87
  -3   9   4    5.76   11.93
   3  -9  -3   11.88    9.75
  -3   9   3    4.09    7.36
   3  -9  -2   21.52   12.14
  -3   9   2   16.38   10.04
   3  -9  -1   13.36   11.18
  -3   9   1   12.69    7.38
   3  -9   0   10.48    5.84
  -3   9   0   16.80    8.29
   3  -9   1    3.29    5.02
  -3   9  -1    0.99    3.37
   3  -9   2   15.99    7.77
  -3   9  -2   29.60   12.33
   3  -9   3   41.10   17.38
  -3   9  -3   29.05   16.65
   3  -9   4   33.47   15.61
  -3   9  -4   18.27    8.33
   3  -9   5    6.71   12.49
   3  -9   6  141.74   15.54
   3  -9   7    2.32    6.10
   3  -9   8    2.21   10.21
   3  -9   9   -0.25   10.79
   3  -9  10   41.34   27.28
   3  -8  -6   12.74    8.58
  -3   8   6   15.45   10.10
   3  -8  -5   70.54   16.34
  -3   8   5   42.04   22.30
   3  -8  -4   -0.79    8.95
  -3   8   4    9.41    8.59
   3  -8  -3   24.22   16.05
  -3   8   3   21.30    9.43
   3  -8  -2    2.98    4.77
  -3   8   2    6.15    9.56
   3  -8  -1  299.07   28.28
  -3   8   1  276.73   19.83
   3  -8   0   30.13   13.11
  -3   8   0   24.45   14.36
   3  -8   1   63.55   18.62
  -3   8  -1   57.62   19.84
   3  -8   2   72.23   30.44
  -3   8  -2   62.37   26.44
   3  -8   3  138.89   13.10
  -3   8  -3  142.35   13.03
   3  -8   4   67.55   29.64
  -3   8  -4   55.76   16.01
   3  -8   5   28.55   13.50
   3  -8   6   66.44   11.11
   3  -8   7  106.71   36.01
   3  -8   7  134.52   12.80
   3  -8   8   18.49    9.55
   3  -8   8   17.00   11.01
   3  -8   9    5.94    7.84
   3  -8   9    3.95    6.64
   3  -8  10   47.10   25.89
   3  -8  10   45.44   10.83
   3  -8  11    3.99    5.31
   3  -8  11   12.29    6.92
  -3   7   8   10.53   11.63
  -3   7   7    2.18   10.36
   3  -7  -6   88.79   17.38
  -3   7   6  103.14   24.17
   3  -7  -5    3.30    8.69
  -3   7   5   10.00    8.93
   3  -7  -4    7.79    7.45
  -3   7   4    1.25    6.40
   3  -7  -3   16.35    8.44
  -3   7   3    6.85    6.22
   3  -7  -2   14.83    9.42
  -3   7   2   16.24   15.15
   3  -7  -1  225.42   16.36
  -3   7   1  231.13   15.84
   3  -7   0   -7.99    7.51
  -3   7   0   -0.93    6.24
   3  -7   1   99.01   12.01
  -3   7  -1   75.18    8.55
   3  -7   2  103.18   13.04
  -3   7  -2  104.04   27.71
   3  -7   3    0.99    8.39
  -3   7  -3    3.17    3.62
   3  -7   4 1406.76   50.40
   3  -7   4 1245.58   39.14
  -3   7  -4 1375.10   43.52
   3  -7   5   25.54   14.14
   3  -7   5   14.69    4.43
  -3   7  -5   13.42    6.37
   3  -7   6  171.61   13.76
   3  -7   6  187.50   12.10
   3  -7   7  126.75   20.87
   3  -7   7  113.22   11.32
   3  -7   8    3.96    9.19
   3  -7   8    7.30    7.41
   3  -7   9   17.89   13.64
   3  -7   9   12.67    7.93
   3  -7  10    2.56    6.07
   3  -7  10    8.50    8.63
   3  -7  11    6.30    8.05
   3  -7  11    5.51    4.34
  -3   6   8   13.69   11.46
  -3   6   7   36.06   11.13
   3  -6  -6   36.37   10.94
  -3   6   6   46.10   25.63
   3  -6  -5   29.68    8.27
  -3   6   5   40.40   19.65
   3  -6  -4   18.27    8.72
  -3   6   4    9.28    7.56
   3  -6  -3   21.70    6.80
  -3   6   3   15.80    6.66
   3  -6  -2  388.13   35.61
  -3   6   2  359.04   26.33
   3  -6  -1  319.87   28.71
  -3   6   1  339.93   26.25
   3  -6   0 1661.92   51.07
  -3   6   0 1466.00   45.23
   3  -6   1   26.18   10.04
  -3   6  -1   33.20   12.28
   3  -6   2    2.65    7.25
   3  -6   2    0.65    1.01
  -3   6  -2   -2.50    3.84
   3  -6   3   -3.96    7.68
   3  -6   3    2.33    3.67
  -3   6  -3    4.39    3.53
   3  -6   4  305.48   25.18
   3  -6   4  298.25   21.35
  -3   6  -4  337.65   22.17
   3  -6   5   79.96   30.69
   3  -6   5   80.07   10.48
  -3   6  -5   61.51    3.30
   3  -6   6   53.20   14.80
   3  -6   6   19.76   10.13
   3  -6   7   80.53   37.78
   3  -6   7   90.53   12.45
   3  -6   8   14.49   10.23
   3  -6   8    3.74    7.45
   3  -6   9    5.30    8.99
   3  -6   9   -2.12    7.05
   3  -6  10    3.33    3.12
   3  -6  10   18.10   10.20
   3  -6  11    1.69    4.05
   3  -6  11   22.49   10.22
  -3   5   9    7.13    8.22
  -3   5   8   17.89    9.36
  -3   5   7  186.62   51.79
   3  -5  -6    2.35    6.44
  -3   5   6   13.30   10.87
   3  -5  -5  529.74   24.88
  -3   5   5  546.75   27.19
   3  -5  -4   89.66   12.76
  -3   5   4   71.16   28.31
   3  -5  -3  399.63   30.16
  -3   5   3  384.17   28.62
   3  -5  -2 1327.53   54.73
  -3   5   2 1435.83   44.71
   3  -5  -1   -0.64    7.12
  -3   5   1    1.63    3.13
   3  -5   0   22.99    6.72
  -3   5   0   28.47    8.44
   3  -5   1  170.57   11.95
   3  -5   1  151.05    5.07
   3  -5   1  154.09    5.83
  -3   5  -1  163.42   10.17
   3  -5   2  175.70   17.25
   3  -5   2  155.31    6.28
   3  -5   2  159.17    8.39
  -3   5  -2  189.43   10.16
   3  -5   3   -0.72    7.01
   3  -5   3    6.41    4.24
  -3   5  -3   -1.05    2.44
   3  -5   4  423.87   20.57
   3  -5   4  386.16   16.10
  -3   5  -4  405.30   13.03
   3  -5   5  233.31   35.49
   3  -5   5  207.04   17.52
   3  -5   6  124.46   13.45
   3  -5   6  128.43   12.13
   3  -5   7   79.25   35.41
   3  -5   7   46.19    9.74
  -3   5  -8   50.82   18.44
   3  -5   8   46.85   10.52
  -3   5  -9   20.89   13.20
   3  -5   9   -0.80    9.22
  -3   5 -10   78.77   22.69
   3  -5  10   28.16   11.60
  -3   5 -11   46.00   21.91
   3  -5  11   50.24   16.15
  -3   4  10   22.72   18.51
  -3   4   9    7.38    6.91
  -3   4   8    2.20    3.23
  -3   4   8   -0.77    7.91
  -3   4   7   60.59    5.96
  -3   4   7   46.83   29.16
   3  -4  -6  553.32   23.01
  -3   4   6  591.36   19.99
  -3   4   6  610.90   40.11
   3  -4  -5  101.48   11.77
  -3   4   5   95.32    6.36
  -3   4   5   96.15   30.80
   3  -4  -4    5.84    4.85
  -3   4   4    6.68    2.52
  -3   4   4    8.63   13.75
   3  -4  -3  239.37   15.05
  -3   4   3  220.85    7.67
  -3   4   3  237.72   16.60
   3  -4  -2    3.76    4.38
  -3   4   2    0.83    1.42
   3  -4  -2    2.71    1.72
  -3   4   2    7.06    7.18
   3  -4  -1   41.37   16.13
   3  -4  -1   30.46    5.08
  -3   4   1   29.70   16.91
   3  -4   0   61.36    8.34
   3  -4   0   62.48    2.81
  -3   4   0   78.63    7.52
   3  -4   1  536.87   24.90
   3  -4   1  506.59   19.88
   3  -4   1  542.33   21.86
  -3   4  -1  543.91   23.44
   3  -4   2    2.15    6.17
   3  -4   2    6.71    4.63
  -3   4  -2    0.64    2.11
   3  -4   3    5.22    4.26
  -3   4  -3    0.98    1.89
   3  -4   3    6.65    4.80
   3  -4   4  142.24   15.74
   3  -4   4  133.95   11.39
  -3   4  -5  182.08   24.09
   3  -4   5  202.05   15.65
  -3   4  -6  290.33   31.38
   3  -4   6  266.00   22.58
  -3   4  -7  322.25   28.19
   3  -4   7  296.87   19.16
  -3   4  -8   10.23   13.38
   3  -4   8    7.76    8.25
  -3   4  -9  103.09   24.16
   3  -4   9  112.81   18.04
  -3   4 -10  247.01   35.42
   3  -4  10  116.73   23.57
  -3   4 -11   79.18   20.48
   3  -4  11   57.71   15.78
  -3   3  11    6.30    8.86
  -3   3  10   17.65   12.65
  -3   3  10   24.52    9.63
  -3   3   9    1.05    3.29
  -3   3   9    4.47    4.94
  -3   3   8  223.75   11.10
  -3   3   8  215.20   16.27
  -3   3   7   17.14    5.64
  -3   3   7   16.58   13.29
   3  -3  -6   78.46    9.37
  -3   3   6   71.19    6.90
  -3   3   6   60.67   26.37
   3  -3  -5   25.40   12.07
  -3   3   5   34.06    4.14
  -3   3   5   28.92   12.19
   3  -3  -4   37.96    6.89
  -3   3   4   34.73   11.25
  -3   3   4   31.50   16.15
   3  -3  -3  558.99   20.25
  -3   3   3  558.78   18.24
  -3   3   3  613.30   23.70
   3  -3  -2    5.16    3.98
  -3   3   2    2.70    1.67
   3  -3  -2    1.53    1.78
  -3   3   2   -0.88    3.65
   3  -3  -1  369.97   24.07
  -3   3   1  334.45   13.75
   3  -3  -1  318.48   13.07
  -3   3   1  336.09   17.10
   3  -3   0    5.16    4.49
   3  -3   0    4.79    1.53
  -3   3   0    5.32    3.98
   3  -3   1 1057.54   42.94
  -3   3  -1 1053.38   40.91
   3  -3   2    3.97    6.97
  -3   3  -2    6.40    7.41
  -3   3  -3   44.09   16.25
   3  -3   3   43.38    7.43
   3  -3   3   33.80    3.49
  -3   3  -4  249.18   20.96
   3  -3   4  239.98   15.23
   3  -3   4  230.11    8.63
   3  -3   4  234.36    8.07
  -3   3  -5 1229.02   49.34
   3  -3   5 1230.03   39.50
  -3   3  -6  270.84   48.06
   3  -3   6  309.01   25.10
  -3   3  -7  289.38   23.29
   3  -3   7  331.62   23.11
  -3   3  -8   14.69    7.35
   3  -3   8    2.87    9.30
  -3   3  -9   16.09   17.05
   3  -3   9   12.02   10.84
  -3   3 -10   -9.70   12.38
   3  -3  10   -0.22   11.51
  -3   3 -11    8.75   16.80
   3  -3  11    2.23   10.68
  -3   2  11   35.08   27.22
  -3   2  11   41.32   13.39
  -3   2  10    6.08    4.60
  -3   2  10    2.07    6.75
  -3   2   9    7.77    5.35
  -3   2   9   -2.17    8.20
  -3   2   8  116.57   11.84
  -3   2   8   81.16   18.44
  -3   2   7    9.25    4.32
  -3   2   7    6.18    7.91
   3  -2  -6   23.84   11.48
  -3   2   6   37.91    5.06
  -3   2   6   25.98   12.25
   3  -2  -5  349.85   13.37
  -3   2   5  409.60   12.93
  -3   2   5  381.50   13.87
  -3   2   5  366.01   18.65
   3  -2  -4    1.34    2.24
   3  -2  -4    1.68    3.21
  -3   2   4    3.47    2.69
  -3   2   4    0.43    6.58
   3  -2  -3  542.89   24.13
   3  -2  -3  623.37   25.21
  -3   2   3  622.20   24.68
  -3   2   3  645.83   29.11
   3  -2  -2   20.91   13.67
   3  -2  -2   29.91    5.05
  -3   2   2   35.17   11.87
  -3   2   2   29.48   15.38
   3  -2  -1 1019.73   26.48
  -3   2   1 1044.98   26.18
  -3   2   1 1039.81   29.20
   3  -2   0  788.72   22.24
  -3   2   0  713.42   19.99
  -3   2   0  711.33   20.82
  -3   2  -1 4556.09   52.60
  -3   2  -1 4448.30  101.65
  -3   2  -2  457.46   26.18
  -3   2  -3  262.40   19.58
   3  -2   3  226.99   10.21
  -3   2  -4  230.48   32.41
   3  -2   4  241.83   14.27
   3  -2   4  242.72    8.07
   3  -2   4  273.31   11.71
  -3   2  -5  362.18   30.39
   3  -2   5  350.25   19.58
  -3   2  -6   16.28   15.18
   3  -2   6   20.84   13.26
  -3   2  -7    7.84   10.51
   3  -2   7    7.90    9.60
  -3   2  -8   21.15   22.43
   3  -2   8   12.83    8.99
  -3   2  -9   24.20   23.26
   3  -2   9   35.79   14.62
  -3   2 -10    6.05    9.31
   3  -2  10   12.34   12.92
  -3   2 -11   38.03   39.01
   3  -2  11   30.06   18.73
  -3   1  12    2.06    4.62
  -3   1  12    4.77    7.71
  -3   1  11   29.85   23.78
  -3   1  11   24.91   26.75
  -3   1  10    6.74    5.09
  -3   1  10    3.10    4.65
  -3   1   9    4.17    6.18
  -3   1   9    7.49    7.60
  -3   1   8    3.90    5.95
  -3   1   8    1.75    8.71
  -3   1   7   77.42    9.90
  -3   1   7   61.17   25.92
  -3   1   6   81.75    6.93
  -3   1   6   62.65   27.32
   3  -1  -5    1.53    0.91
  -3   1   5    0.95    3.97
  -3   1   5   -0.24    6.08
   3  -1  -4  171.80    7.73
   3  -1  -4  185.61    8.45
  -3   1   4  176.24    9.94
  -3   1   4  174.75   14.17
   3  -1  -3   76.89    4.38
   3  -1  -3   70.31    6.61
  -3   1   3   75.12    5.15
  -3   1   3   76.17    8.03
   3  -1  -2   62.04    4.91
   3  -1  -2   76.92    5.12
  -3   1   2   87.56    6.34
  -3   1   2   69.16    9.66
   3  -1  -1  136.47    7.24
  -3   1   1  130.19    7.11
  -3   1   1  128.02    7.45
  -3   1   0  561.89   23.95
  -3   1   0  483.93   18.99
  -3   1   0  603.60   20.06
  -3   1  -1    7.59    9.33
  -3   1  -1    1.84    4.19
  -3   1  -2  722.47   44.57
  -3   1  -3   -0.08    9.52
   3  -1   3    3.15    2.12
   3  -1   3    0.04    4.28
  -3   1  -4   15.30   14.98
   3  -1   4   15.48    6.69
  -3   1  -5   11.37   16.40
   3  -1   5   10.24    8.17
   3  -1   5   -0.02    3.12
  -3   1  -6    1.98    7.88
   3  -1   6    9.19    9.05
   3  -1   6    2.98    2.44
  -3   1  -7    7.99   14.27
   3  -1   7   10.65    9.37
  -3   1  -8    2.58    8.14
   3  -1   8    7.85   10.28
  -3   1  -9    6.86    9.96
   3  -1   9    2.98   10.51
  -3   1 -10   -6.04   14.51
   3  -1  10    5.21   11.81
  -3   1 -11   -0.70   13.41
   3  -1  11   22.04   11.72
  -3   0  12   25.36   44.97
  -3   0  12   16.28   19.71
  -3   0  11    6.24    7.63
  -3   0  11    7.62    7.73
  -3   0  10    5.90    6.86
  -3   0  10    5.03    7.10
  -3   0   9   13.62    6.96
  -3   0   9    9.82    9.76
  -3   0   8    2.72    7.22
  -3   0   8   -3.79    7.70
  -3   0   7   98.42    9.97
  -3   0   7  117.46   17.27
  -3   0   6   -4.94    5.47
  -3   0   6   10.41    6.36
  -3   0   5  100.25    8.02
  -3   0   5   99.15   27.15
  -3   0   4   62.24    7.47
  -3   0   4   68.27   12.61
   3   0  -3    4.17    2.07
   3   0  -3    5.38    2.44
  -3   0   3    7.61    5.32
  -3   0   3    5.98    4.29
   3   0  -2   77.32    5.76
  -3   0   2  102.00    8.27
  -3   0   2   94.60    7.95
  -3   0   1  598.65   25.26
  -3   0   1  614.97   30.23
  -3   0   1  745.42   23.95
  -3   0   0    1.75    6.45
  -3   0   0    3.93    5.39
  -3   0  -1   44.27   20.91
  -3   0  -1   38.96   18.30
  -3   0  -2  235.32   17.25
   3   0   2  267.41   14.34
  -3   0  -3   64.70   36.99
   3   0   3   68.89   10.52
  -3   0  -4  122.22   16.53
   3   0   4  121.22   15.59
  -3   0  -5   57.87   41.56
   3   0   5   64.34    8.79
   3   0   5   63.55   10.67
  -3   0  -6   11.92    8.72
   3   0   6   29.56   11.84
   3   0   6   29.27    8.62
  -3   0  -7   65.85   49.43
   3   0   7   71.59   16.57
  -3   0  -8   15.11   19.77
   3   0   8   12.19    9.78
  -3   0  -9   -3.42   12.90
   3   0   9    4.25   11.25
  -3   0 -10   13.21   10.31
   3   0  10   41.36   16.70
  -3   0 -11    4.06    9.57
   3   0  11   24.89   13.24
  -3  -1  12   69.21   15.13
  -3  -1  12   46.41   32.50
  -3  -1  11  114.32   16.04
  -3  -1  11  120.41   18.99
  -3  -1  10  137.97   13.81
  -3  -1  10  114.49   23.52
  -3  -1   9    2.45    7.23
  -3  -1   9   10.59    9.60
  -3  -1   8  110.35   11.76
  -3  -1   8  115.15   43.37
  -3  -1   7   35.50    6.26
  -3  -1   7   49.80   27.40
  -3  -1   6  190.15   13.75
  -3  -1   6  171.08   14.69
  -3  -1   5    3.07    5.14
  -3  -1   5    4.02    3.86
  -3  -1   4  220.74   13.52
  -3  -1   4  226.78   15.29
   3   1  -3    3.42    1.31
  -3  -1   3   -0.55    3.09
  -3  -1   3    6.77    6.73
  -3  -1   2  196.45   10.55
   3   1  -2  219.80    9.30
  -3  -1   2  235.86   10.91
  -3  -1   1  643.88   21.81
  -3  -1   1  598.17   19.82
  -3  -1   0  174.70   14.18
  -3  -1   0  143.41    8.78
  -3  -1  -1  275.69   18.10
  -3  -1  -1  207.11   13.61
   3   1   1  275.42   13.74
  -3  -1  -2   88.01   12.19
   3   1   2   69.24    9.40
  -3  -1  -3  207.69   17.07
   3   1   3  221.77   20.62
  -3  -1  -4  281.75   36.83
   3   1   4  204.47   21.03
  -3  -1  -5   39.50   14.03
   3   1   5   26.76   13.25
  -3  -1  -6  376.25   28.44
   3   1   6  320.06   21.74
   3   1   6  307.57   19.18
  -3  -1  -7   34.54   21.62
   3   1   7   16.98    9.79
  -3  -1  -8  379.01   72.97
   3   1   8  315.07   29.14
  -3  -1  -9    3.63   12.19
   3   1   9   11.63   11.41
  -3  -1 -10   -4.27   15.48
   3   1  10   13.27   14.46
  -3  -2  13   21.23    8.33
  -3  -2  13    0.85   14.35
  -3  -2  12  123.06   19.37
  -3  -2  12  124.57   16.73
  -3  -2  11  110.60   13.11
  -3  -2  11   70.14   48.45
  -3  -2  10    4.04    9.31
  -3  -2  10    6.08    4.96
  -3  -2   9    5.63    8.10
  -3  -2   9    6.41    7.36
  -3  -2   8   42.36   10.37
  -3  -2   8   29.68   23.86
  -3  -2   7   90.87   11.76
  -3  -2   7   62.13   27.84
  -3  -2   6   -4.75    5.72
  -3  -2   6    2.39    5.39
  -3  -2   5    2.80    4.12
  -3  -2   5    6.44    7.51
  -3  -2   4  879.15   36.09
  -3  -2   3   27.89    4.49
   3   2  -3   29.73    3.36
  -3  -2   3   39.10    6.70
  -3  -2   2   86.60    7.51
   3   2  -2   86.44    6.72
  -3  -2   2   87.14    7.00
  -3  -2   1  263.37   13.99
  -3  -2   1  265.76   12.59
  -3  -2   0   61.54   10.35
  -3  -2   0   48.72   18.11
   3   2   0   53.14   10.59
  -3  -2  -1   22.68   13.04
  -3  -2  -1   19.91   14.84
   3   2   1   36.39   15.82
  -3  -2  -2    5.16   11.69
  -3  -2  -2   11.31    7.03
   3   2   2   25.97   16.38
  -3  -2  -3    4.07   13.09
   3   2   3    5.10   14.86
  -3  -2  -4  144.57   22.77
   3   2   4   96.88   18.70
  -3  -2  -5   17.72   13.87
   3   2   5    0.64   11.47
  -3  -2  -6   13.49   15.29
   3   2   6   10.66    9.83
   3   2   6   -0.60    7.28
  -3  -2  -7  193.55   47.90
   3   2   7  227.68   20.13
   3   2   7  222.42   16.14
  -3  -2  -8   44.29   16.47
   3   2   8   66.51   16.36
  -3  -2  -9   15.79   15.22
   3   2   9   -2.82   10.69
  -3  -2 -10    7.49   11.81
   3   2  10    9.09   11.67
  -3  -3  13   61.31   12.18
  -3  -3  13   85.62   16.52
  -3  -3  12    6.64    7.00
  -3  -3  12    8.16    7.68
  -3  -3  11    2.96    7.64
  -3  -3  11    8.76    9.65
  -3  -3  10   21.83   12.10
  -3  -3  10   11.65    9.33
  -3  -3   9    6.74    7.83
  -3  -3   9   12.95    8.31
  -3  -3   8  113.57   13.92
  -3  -3   8  109.28   14.19
  -3  -3   7   14.13    7.15
  -3  -3   6  147.06   13.85
  -3  -3   5    5.96    7.33
  -3  -3   4   18.22    5.24
   3   3  -4   11.32    2.28
  -3  -3   4   16.52    6.73
  -3  -3   3   14.17    6.76
   3   3  -3    5.57    3.77
  -3  -3   3    6.78    3.87
  -3  -3   2    2.42    6.13
  -3  -3   2    0.89    2.17
   3   3  -2    1.37   13.74
  -3  -3   1  179.33   14.95
  -3  -3   1  150.08   10.68
   3   3  -1  204.29   20.00
  -3  -3   0  518.57   30.07
  -3  -3   0  466.02   22.19
   3   3   0  504.49   29.02
  -3  -3  -1   61.88   11.84
  -3  -3  -1   55.13   27.43
   3   3   1   62.36   22.76
  -3  -3  -2   99.37   13.42
  -3  -3  -2   60.26    9.08
   3   3   2   67.27   16.88
  -3  -3  -3  105.55   16.52
   3   3   3   55.43   19.47
  -3  -3  -4  131.99   18.83
   3   3   4  120.46   22.16
  -3  -3  -5   60.08   14.38
   3   3   5   69.54   18.02
  -3  -3  -6   19.98   16.02
   3   3   6    4.57    9.85
   3   3   6    2.15    9.22
  -3  -3  -7   25.20   16.05
   3   3   7   13.19   10.69
   3   3   7   44.16   13.65
  -3  -3  -8   39.68   15.56
   3   3   8   30.10   12.68
  -3  -3  -9   12.62   16.58
   3   3   9    0.66    4.40
  -3  -4  13   14.10    8.59
  -3  -4  12    3.57    8.35
  -3  -4  11    7.65    8.44
  -3  -4  10    3.79    7.13
  -3  -4   9    1.16    6.42
  -3  -4   8  101.18   11.49
  -3  -4   7   14.54    7.94
  -3  -4   6  338.00   12.30
  -3  -4   6  347.28   17.21
  -3  -4   5   81.17    7.72
  -3  -4   5   82.74    9.17
  -3  -4   4 2723.26   29.88
  -3  -4   4 2652.00   88.09
  -3  -4   3   22.64    6.79
  -3  -4   3   20.67    7.18
   3   4  -3   37.03   21.79
  -3  -4   2   15.63    9.42
  -3  -4   2    9.62    7.57
   3   4  -2    6.12   12.02
  -3  -4   1   41.97   12.03
  -3  -4   1   36.85   17.28
   3   4  -1   51.75   16.63
  -3  -4   0   32.98    9.20
  -3  -4   0   31.34    9.78
   3   4   0   10.92   18.93
  -3  -4  -1  171.91   17.82
  -3  -4  -1  140.10    9.64
   3   4   1  150.34   25.19
  -3  -4  -2   44.69   15.90
  -3  -4  -2   47.02    9.80
   3   4   2   48.58   17.24
  -3  -4  -3   17.96   12.07
   3   4   3   33.31   18.23
  -3  -4  -4   63.36   12.85
   3   4   4   71.37   17.77
  -3  -4  -5   45.28   17.13
   3   4   5   28.65   19.18
  -3  -4  -6    5.88   15.06
   3   4   6    5.48    8.65
   3   4   6    3.97   11.91
  -3  -4  -7   -7.80   13.57
   3   4   7   13.17   10.00
   3   4   7    5.17    9.11
  -3  -4  -8   39.47   21.39
   3   4   8   14.44    9.92
  -3  -5  13   31.12   12.89
  -3  -5  12   24.31    9.90
  -3  -5  11   20.04    9.93
  -3  -5  10   44.57   13.67
  -3  -5   9  284.85   21.52
  -3  -5   8   20.34    8.68
  -3  -5   7   99.21    8.03
  -3  -5   7   89.72   34.55
  -3  -5   6  491.38   33.46
  -3  -5   6  497.88   35.41
  -3  -5   5   14.67    5.48
  -3  -5   5    3.36    6.78
   3   5  -5   20.24   15.10
  -3  -5   4   12.03    6.93
  -3  -5   4   28.87    7.32
   3   5  -4   17.24   13.48
  -3  -5   3    9.71    6.52
  -3  -5   3   12.28    7.36
   3   5  -3   14.94   14.78
  -3  -5   2    2.87    7.62
  -3  -5   2    6.41    4.13
   3   5  -2    0.32   14.61
  -3  -5   1   15.76    9.87
  -3  -5   1    4.32    5.45
   3   5  -1    6.40   16.63
  -3  -5   0  130.73   17.32
  -3  -5   0  114.65   10.65
   3   5   0  118.46   22.70
  -3  -5  -1   63.07   16.28
  -3  -5  -1   95.25   26.12
   3   5   1   76.47   26.06
  -3  -5  -2    3.15   11.55
  -3  -5  -2   15.85   10.39
   3   5   2   45.09   31.08
  -3  -5  -3   27.75   12.00
   3   5   3   42.14   26.48
  -3  -5  -4   10.16   11.32
   3   5   4    7.07   16.39
  -3  -5  -5   10.97   13.06
   3   5   5    6.11   12.96
  -3  -5  -6    0.83   12.88
   3   5   6    3.19    9.51
   3   5   6    9.58   11.72
  -3  -5  -7   17.02   12.90
   3   5   7    5.50    9.70
   3   5   7   14.71   11.95
  -3  -5  -8   10.31   16.01
   3   5   8    1.47    9.15
  -3  -6  12   19.44    9.29
  -3  -6  11   45.26   10.97
  -3  -6  10  301.36   22.47
  -3  -6   9   48.85   15.99
  -3  -6   8   30.75   15.50
   3   6  -8   51.64   15.25
  -3  -6   7   22.45    7.68
  -3  -6   7    8.76    8.82
   3   6  -7   15.86   13.89
  -3  -6   6  104.49   12.02
  -3  -6   6  110.79   14.38
   3   6  -6  189.20   28.52
  -3  -6   5   12.36    8.67
  -3  -6   5   16.21    8.13
   3   6  -5   17.59   14.10
  -3  -6   4   20.94    9.47
  -3  -6   4   18.04    7.82
   3   6  -4    9.36   14.62
  -3  -6   3    4.48    7.29
  -3  -6   3   11.48    6.86
   3   6  -3   13.80   17.68
  -3  -6   2   41.85    9.41
  -3  -6   2   41.28   13.83
   3   6  -2   42.97   23.70
  -3  -6   1    8.52   13.27
  -3  -6   1    3.61    7.33
   3   6  -1    5.69   22.81
  -3  -6   0    5.44    9.13
  -3  -6   0    6.63    6.60
   3   6   0   16.51   23.95
  -3  -6  -1   15.13   11.23
  -3  -6  -1    8.11    4.97
   3   6   1   35.50   25.18
  -3  -6  -2   -0.52   11.62
   3   6   2   14.05   20.29
  -3  -6  -3   65.13   12.93
   3   6   3   46.78   26.75
  -3  -6  -4   17.03   16.25
   3   6   4    8.96   17.81
  -3  -6  -5    7.18   12.16
   3   6   5    2.37   12.92
  -3  -6  -6   12.05   12.07
   3   6   6   -1.50    9.49
   3   6   6   -6.33   13.37
  -3  -6  -7   10.70   13.62
   3   6   7   18.36    9.27
   3   6   7   18.90   11.05
  -3  -7  12    4.65    9.93
   3   7 -12    9.63   15.62
  -3  -7  11    6.80   10.61
   3   7 -11    5.14   14.97
  -3  -7  10    9.10   10.30
   3   7 -10   -9.16   16.10
  -3  -7   9   32.53   19.45
   3   7  -9   84.75   19.13
  -3  -7   8  122.62   12.44
   3   7  -8  115.75   16.05
  -3  -7   7   91.95   12.30
  -3  -7   7  109.03   12.45
   3   7  -7  129.42   23.30
  -3  -7   6   14.63    8.13
  -3  -7   6    5.63   10.05
   3   7  -6    6.67   17.05
  -3  -7   5   36.97   12.13
  -3  -7   5   31.44   14.50
   3   7  -5   53.53   25.27
  -3  -7   4   -1.73    7.83
  -3  -7   4    1.55    4.11
   3   7  -4    8.85   17.58
  -3  -7   3   16.43    9.84
  -3  -7   3    6.57    6.25
   3   7  -3   11.69   21.57
  -3  -7   2   66.07   12.99
  -3  -7   2   65.90   20.61
   3   7  -2   48.73   25.51
  -3  -7   1   30.34   16.35
  -3  -7   1   28.51   19.15
   3   7  -1   23.70   35.20
  -3  -7   0   15.38   17.19
  -3  -7   0    6.91    9.21
   3   7   0   36.51   22.59
  -3  -7  -1  325.57   26.84
  -3  -7  -1  371.79   24.07
   3   7   1  336.11   45.08
  -3  -7  -2   29.82   18.44
   3   7   2   55.74   22.31
  -3  -7  -3  215.15   19.85
   3   7   3  195.47   28.88
  -3  -7  -4   35.26   17.64
   3   7   4   15.11   17.42
  -3  -7  -5   -8.75   11.80
   3   7   5   -4.32   14.04
  -3  -7  -6    6.20   12.13
   3   7   6    4.63   10.17
   3   7   6    3.99   12.07
  -3  -8  12    1.13    9.73
  -3  -8  11    7.97    6.83
   3   8 -11   16.09   15.51
  -3  -8  10    1.32    4.96
   3   8 -10   12.26   13.53
  -3  -8   9  231.57   16.56
   3   8  -9  228.13   27.50
  -3  -8   8   16.56   13.96
   3   8  -8   16.90   16.66
  -3  -8   7  276.75   17.68
  -3  -8   7  267.53   20.02
   3   8  -7  238.76   26.58
  -3  -8   6   -1.57    7.54
  -3  -8   6   12.37    9.18
   3   8  -6  -12.32   19.30
  -3  -8   5  123.18   15.82
  -3  -8   5  136.76   16.34
   3   8  -5   69.45   24.16
  -3  -8   4   27.88    9.44
  -3  -8   4   23.33   14.49
   3   8  -4   45.68   37.02
  -3  -8   3  421.62   32.65
  -3  -8   3  448.12   26.89
   3   8  -3  422.39   44.32
  -3  -8   2    9.72   10.77
  -3  -8   2    5.32    4.52
   3   8  -2   24.27   24.10
  -3  -8   1   62.21   13.62
  -3  -8   1   43.98   21.78
   3   8  -1   18.08   25.49
  -3  -8   0   11.80   13.18
  -3  -8   0    2.99    3.40
   3   8   0    5.04   22.37
  -3  -8  -1  140.98   22.94
  -3  -8  -1  113.37   15.99
   3   8   1   56.10   34.07
  -3  -8  -2   20.32   12.24
   3   8   2   60.03   25.60
  -3  -8  -3   12.40   13.39
   3   8   3    7.72   20.24
  -3  -8  -4   18.71   12.47
   3   8   4   10.12   13.60
  -3  -9  11   19.32    8.68
   3   9 -11   52.15   26.59
  -3  -9  10   15.83   11.70
   3   9 -10   -3.47   16.47
  -3  -9   9   -0.42    9.59
   3   9  -9   -5.08   16.20
  -3  -9   8   51.73   23.08
   3   9  -8   37.29   20.32
  -3  -9   7   61.16   12.37
  -3  -9   7   57.85   14.60
   3   9  -7    9.33   23.64
  -3  -9   6   11.26    8.54
  -3  -9   6   36.49    9.42
   3   9  -6   43.75   32.95
  -3  -9   5    9.49   11.04
  -3  -9   5   12.20    7.39
   3   9  -5   29.54   27.69
  -3  -9   4   30.26   11.18
  -3  -9   4   16.16    8.58
   3   9  -4   37.57   28.06
  -3  -9   3   85.27   17.33
  -3  -9   3   55.78   24.60
   3   9  -3   58.22   24.69
  -3  -9   2  121.18   18.84
  -3  -9   2  119.77   37.59
   3   9  -2   72.69   25.76
  -3  -9   1   54.97   13.08
  -3  -9   1   51.87   26.34
   3   9  -1   60.16   27.28
  -3  -9   0   39.17   18.11
  -3  -9   0   22.54   14.79
   3   9   0   16.61   26.88
  -3  -9  -1    2.61   10.81
   3   9   1    1.40   20.84
  -3  -9  -2    7.42   11.36
   3   9   2   25.57   23.35
  -3  -9  -3   16.13   12.99
   3   9   3   35.53   18.30
  -3 -10  10    8.38    7.11
   3  10 -10    3.66   19.93
  -3 -10   9   10.36    7.04
   3  10  -9    2.88   19.29
  -3 -10   8   10.03    9.50
   3  10  -8   17.65   24.78
  -3 -10   7    2.98    8.89
  -3 -10   7    6.20   10.14
   3  10  -7   -9.97   29.83
  -3 -10   6   55.24   16.39
  -3 -10   6   35.80   13.91
   3  10  -6   24.85   34.16
  -3 -10   5   40.17   11.63
  -3 -10   5   23.04   16.97
   3  10  -5   28.54   22.42
  -3 -10   4   53.65   17.22
  -3 -10   4   33.05   24.02
   3  10  -4   14.57   23.27
  -3 -10   3   45.88   12.98
  -3 -10   3   42.38   28.10
   3  10  -3   16.33   26.10
  -3 -10   2   33.34   14.75
  -3 -10   2   18.08   13.16
   3  10  -2  -18.58   27.73
  -3 -10   1    0.53   10.50
  -3 -10   1    5.27    3.38
   3  10  -1   26.75   27.28
  -3 -10   0    2.70    9.05
  -3 -10   0   -1.63    5.39
   3  10   0   -5.25   24.41
  -3 -10  -1    7.10   11.03
   3  10   1    6.05   19.83
  -3 -11   8   31.25   32.18
   3  11  -8   94.21   40.05
  -3 -11   7   27.01    9.64
  -3 -11   7   29.82    9.14
   3  11  -7   64.21   45.04
  -3 -11   6   -0.26    8.58
  -3 -11   6   -2.69    7.24
   3  11  -6    9.20   27.75
  -3 -11   5    7.67   10.08
  -3 -11   5    4.29    5.07
   3  11  -5   10.83   24.76
  -3 -11   4   68.38   19.05
  -3 -11   4   30.26   17.86
   3  11  -4   47.64   29.47
  -3 -11   3   27.73   11.84
  -3 -11   3   12.10   11.56
   3  11  -3   17.08   32.39
  -3 -11   2   44.04   16.77
  -3 -11   2   32.95   25.36
   3  11  -2   40.49   29.54
  -3 -11   1   41.06   13.46
  -3 -11   1   29.15   24.70
   3  11  -1   53.57   24.21
   4 -10  -1   55.26   15.43
  -4  10   1   41.84   36.16
   4 -10   0    8.45    7.45
  -4  10   0    1.13    8.36
   4 -10   1  191.08   30.59
  -4  10  -1  200.92   32.14
   4 -10   2  153.25   25.39
  -4  10  -2  156.63   29.31
   4 -10   3  126.03   54.95
   4 -10   4    4.05    5.68
   4 -10   5   31.56   20.20
   4 -10   6   27.63   20.87
   4 -10   7    7.02   10.33
  -4   9   3   47.92   21.77
   4  -9  -2   -1.11    8.40
  -4   9   2    7.36    7.78
   4  -9  -1   25.27   20.49
  -4   9   1   41.19   12.26
   4  -9   0    6.21    8.07
  -4   9   0    6.29    6.70
   4  -9   1   85.01   40.48
  -4   9  -1  104.30   14.57
   4  -9   2  130.69   56.97
  -4   9  -2  196.19   23.98
   4  -9   3   16.08    8.89
   4  -9   4    5.04    9.48
   4  -9   5   13.06    8.96
   4  -9   6   54.42   12.14
   4  -9   7   -1.34    9.42
   4  -9   8   10.42    8.68
  -4   8   5   36.36   25.59
  -4   8   4   14.66    8.72
   4  -8  -3    2.80    7.37
  -4   8   3    0.15    8.10
   4  -8  -2   21.18    9.29
  -4   8   2   15.17   10.58
   4  -8  -1   74.56   43.83
  -4   8   1  122.90   13.04
   4  -8   0    8.42    6.98
  -4   8   0   19.12    7.24
   4  -8   1    5.34    5.59
  -4   8  -1   10.05    6.01
   4  -8   2  100.13   32.16
  -4   8  -2  174.17   15.17
   4  -8   3    8.60    7.77
  -4   8  -3    7.18    5.92
   4  -8   4   25.82   14.85
   4  -8   5    3.74    5.52
   4  -8   6   40.54   20.18
   4  -8   7    3.26    6.46
   4  -8   8   18.76   10.08
   4  -8   9    8.15    8.28
  -4   7   6    3.08    6.54
  -4   7   5    8.85   14.54
   4  -7  -4   18.56   12.71
  -4   7   4   28.44   14.77
   4  -7  -3   -0.14    6.79
  -4   7   3   13.27   11.01
   4  -7  -2   49.65   11.32
  -4   7   2   44.05   28.86
   4  -7  -1  302.84   46.88
  -4   7   1  363.53   18.56
   4  -7   0   84.18   39.68
  -4   7   0   62.77   28.41
   4  -7   1    4.73    6.41
  -4   7  -1    5.04    2.73
   4  -7   2   14.53    8.31
  -4   7  -2   17.66    8.68
   4  -7   3    0.70    6.92
  -4   7  -3   -1.45    3.07
   4  -7   4   25.28   12.25
   4  -7   5   46.06   17.52
   4  -7   6    8.17    4.95
   4  -7   7   -2.63   10.42
   4  -7   8  282.24   48.01
   4  -7   9    5.99   12.35
   4  -7   9   19.18   10.31
  -4   6   7    6.70    9.67
  -4   6   6   24.13   26.26
  -4   6   5    1.65    8.82
   4  -6  -4   70.09   37.97
  -4   6   4  115.96   17.49
   4  -6  -3   24.58   10.34
  -4   6   3    1.05    6.23
   4  -6  -2    1.18    4.37
  -4   6   2   -1.15    6.85
   4  -6  -1  146.50   14.16
  -4   6   1  160.98   14.55
   4  -6   0   43.99   23.65
  -4   6   0   36.50   17.85
   4  -6   1  102.42   13.82
  -4   6  -1   99.80    8.44
   4  -6   2  195.13   15.67
  -4   6  -2  203.19   12.88
   4  -6   3   -3.11    6.37
  -4   6  -3    0.36    3.18
   4  -6   4   24.72   11.00
   4  -6   5   44.84   14.12
   4  -6   5   46.93    8.18
   4  -6   6   -6.62    8.02
   4  -6   6    2.94    5.73
   4  -6   7   13.70   10.51
   4  -6   7   23.93    7.67
   4  -6   8    0.89    9.92
   4  -6   8    5.04    7.11
   4  -6   9   32.55   10.66
   4  -6   9   32.82   13.45
   4  -6  10    2.96    8.65
   4  -6  10    4.94    7.80
  -4   5   8   11.80    8.67
  -4   5   7   24.46   19.22
  -4   5   6    5.37    9.72
  -4   5   5    4.37    4.20
   4  -5  -4    8.14    6.45
  -4   5   4    4.22    4.13
   4  -5  -3   33.55    6.67
  -4   5   3   18.37   17.01
   4  -5  -2  567.20   22.74
  -4   5   2  639.66   26.91
   4  -5  -1    3.75    4.29
  -4   5   1    2.00    6.03
   4  -5   0   30.46   10.85
  -4   5   0   30.71   12.59
   4  -5   1    7.52    5.79
  -4   5  -1    4.90    6.05
   4  -5   2   48.90   19.03
   4  -5   2   55.93    6.95
  -4   5  -2   41.13   19.14
   4  -5   3   26.79    8.22
   4  -5   3   21.91    6.84
  -4   5  -3   18.26   13.06
   4  -5   4   10.30    8.27
   4  -5   4    9.47    5.07
   4  -5   5   15.43   13.78
   4  -5   5   11.76    6.47
   4  -5   6   10.58    7.71
   4  -5   6   18.48   10.78
   4  -5   7    3.21    7.13
   4  -5   7   -0.93    8.05
   4  -5   8    4.81    7.85
  -4   5  -9   37.97   14.91
   4  -5   9   33.29   10.08
  -4   5 -10   29.24   20.97
   4  -5  10    6.82    7.56
  -4   4   9  -10.98    9.84
  -4   4   8    9.06    9.00
  -4   4   7  150.35   13.44
  -4   4   6   50.03    9.73
  -4   4   5   52.61   27.14
   4  -4  -4  877.99   30.60
  -4   4   4  880.96   24.41
   4  -4  -3  742.17   28.02
  -4   4   3  756.37   39.79
   4  -4  -2  305.18   16.65
  -4   4   2  278.41   10.45
  -4   4   2  293.99   15.39
   4  -4  -1   42.46    6.94
  -4   4   1   39.63   22.37
   4  -4   0   40.32   13.00
  -4   4   0   33.52   18.36
   4  -4   1    7.23    5.51
  -4   4  -1    3.55    4.44
   4  -4   2   24.92    7.86
   4  -4   2   31.33    6.63
  -4   4  -2   16.70   11.96
   4  -4   3    6.36   10.38
   4  -4   3    3.98    5.06
   4  -4   4   24.40   19.88
   4  -4   4   33.91    8.82
  -4   4  -5   -6.60   13.05
   4  -4   5   -0.61    6.00
  -4   4  -6  273.21   25.35
   4  -4   6  267.02   20.89
  -4   4  -7   18.95   12.03
   4  -4   7   22.94    8.52
  -4   4  -8   16.94   12.90
   4  -4   8    5.39    9.88
  -4   4  -9    9.51   12.31
   4  -4   9    7.83   10.00
  -4   4 -10    5.27   13.49
   4  -4  10   14.87    9.85
  -4   3  10   29.96   11.26
  -4   3   9  109.83   15.96
  -4   3   8   99.49   15.97
  -4   3   7   80.07   12.60
  -4   3   6  161.67    7.76
  -4   3   6  151.67   12.34
  -4   3   5    5.27    4.53
  -4   3   5    7.20    3.91
   4  -3  -4   94.96    7.94
  -4   3   4   98.62    6.37
  -4   3   4  111.69   14.01
   4  -3  -3  434.61   28.99
  -4   3   3  389.44   25.35
  -4   3   3  446.84   31.35
   4  -3  -2   69.32   11.77
  -4   3   2   60.53   10.16
  -4   3   2   66.74    8.32
   4  -3  -1   46.52    5.09
  -4   3   1   43.07   15.32
  -4   3   1   62.37    9.19
   4  -3   0   19.62    8.00
  -4   3   0   15.90    9.02
   4  -3   1   49.32   17.80
  -4   3  -1   54.31    5.19
   4  -3   2    8.99    7.01
  -4   3  -2    5.17    5.34
  -4   3  -3   38.03   13.17
   4  -3   3   38.18    8.47
  -4   3  -4   25.83   14.34
   4  -3   4    4.98    5.49
  -4   3  -5   17.07   13.15
   4  -3   5   25.77   11.45
  -4   3  -6   89.90   15.60
   4  -3   6   80.49   26.91
  -4   3  -7   16.64   13.39
   4  -3   7   20.09    9.55
  -4   3  -8   17.77   12.91
   4  -3   8   -3.53    9.79
  -4   3  -9  116.90   20.70
   4  -3   9  115.52   19.98
  -4   3 -10   -0.21   12.89
   4  -3  10    9.65   10.30
  -4   2  10    7.32    5.74
  -4   2   9    5.09    5.69
  -4   2   9    9.34   15.37
  -4   2   8  165.12   11.43
  -4   2   8  107.53   54.63
  -4   2   7   48.63   21.14
  -4   2   7   70.30   33.51
  -4   2   6  181.92   12.62
  -4   2   6  187.19   15.49
  -4   2   5  230.89   12.16
  -4   2   5  227.23   39.57
  -4   2   4    1.37    3.07
  -4   2   4    1.62    3.48
   4  -2  -3  403.42   26.45
  -4   2   3  375.86   24.96
  -4   2   3  415.80   29.57
   4  -2  -2  115.35    6.83
  -4   2   2  126.29    6.65
  -4   2   2  128.67   28.04
   4  -2  -1   16.51    5.97
  -4   2   1   17.41    9.72
  -4   2   1   23.31    9.05
   4  -2   0   18.35    4.89
  -4   2   0   16.70    8.00
  -4   2   0   17.18    6.06
  -4   2  -1   96.64   11.92
  -4   2  -2    7.20    8.57
  -4   2  -3   78.81   47.21
   4  -2   3  135.58   12.27
  -4   2  -4    1.22    7.07
   4  -2   4    6.46    7.81
   4  -2   4    1.99    4.66
  -4   2  -5  547.69   34.09
   4  -2   5  567.16   25.90
  -4   2  -6  114.71   47.99
   4  -2   6  134.80   15.66
  -4   2  -7    9.31    9.32
   4  -2   7   10.68    9.70
  -4   2  -8   18.68   17.95
   4  -2   8   19.36   11.48
  -4   2  -9   -3.17   10.71
   4  -2   9    5.98   11.35
  -4   2 -10    5.54    9.82
   4  -2  10   -3.98   10.42
  -4   1  11   14.80    5.85
  -4   1  11   12.19   18.33
  -4   1  10    2.70    5.57
  -4   1  10    4.53    7.75
  -4   1   9   25.74   17.89
  -4   1   9   39.72    9.50
  -4   1   8   19.22    6.00
  -4   1   8   24.27    9.46
  -4   1   7    8.69    5.22
  -4   1   7   14.45    8.91
  -4   1   6   36.16   16.70
  -4   1   6   33.19   17.96
  -4   1   5  245.45   13.22
  -4   1   5  222.23   14.33
  -4   1   4   36.02   15.79
  -4   1   4   40.24   18.76
   4  -1  -3  161.58    7.54
  -4   1   3  146.33    9.13
  -4   1   3  145.95   12.55
   4  -1  -2  179.06   10.86
  -4   1   2  176.56    9.45
  -4   1   2  202.06   11.78
   4  -1  -1   69.55    5.93
  -4   1   1   62.28    6.02
  -4   1   1   77.42    8.23
  -4   1   0  413.95   18.80
  -4   1   0  437.11   18.52
  -4   1  -1    5.03    8.42
  -4   1  -2    8.14    9.59
   4  -1   2   11.23    7.75
  -4   1  -3 1566.71   49.67
   4  -1   3 1539.57   96.46
  -4   1  -4    7.14   12.38
   4  -1   4   22.97    6.91
  -4   1  -5   60.14   42.00
   4  -1   5   59.09   12.98
  -4   1  -6   33.78   25.86
   4  -1   6   32.46   12.27
  -4   1  -7   10.91   26.10
   4  -1   7   22.82   10.23
  -4   1  -8    6.09    8.41
   4  -1   8   -0.27   10.16
  -4   1  -9   -1.87    7.05
   4  -1   9   24.94   10.70
  -4   0  11    1.35    6.30
  -4   0  11    4.26    8.74
  -4   0  10   12.86    6.58
  -4   0  10    6.71   10.78
  -4   0   9   79.05   10.39
  -4   0   9   81.59   10.74
  -4   0   8   46.21    8.63
  -4   0   8   36.10   29.50
  -4   0   7   71.97   30.77
  -4   0   7   77.00   41.24
  -4   0   6   24.42   11.30
  -4   0   6   25.09   13.74
  -4   0   5    5.33    5.82
  -4   0   5    1.93    7.47
  -4   0   4  123.48   11.24
  -4   0   4  120.83   22.84
   4   0  -3   94.98    4.94
  -4   0   3   97.53    8.23
  -4   0   3  102.16   11.41
  -4   0   2   74.79    7.16
  -4   0   2   92.49   11.44
  -4   0   1 1248.62   39.50
  -4   0   1 1336.71   39.64
  -4   0   0  190.62   12.34
  -4   0   0  205.28   23.17
  -4   0  -1   13.89   14.77
  -4   0  -1   12.68    7.50
  -4   0  -2   95.05   15.52
   4   0   2  121.52   13.95
  -4   0  -3   37.35   17.52
   4   0   3   46.03   12.16
  -4   0  -4   98.05   50.29
   4   0   4  107.61   11.10
  -4   0  -5   -5.87   13.69
   4   0   5   -6.75    8.60
  -4   0  -6    6.66   11.97
   4   0   6   10.13   10.28
  -4   0  -7   12.00    9.38
   4   0   7   -4.75    9.65
  -4   0  -8    6.03   10.92
   4   0   8   12.38   10.97
  -4   0  -9   15.40   14.82
   4   0   9    9.31    9.74
  -4  -1  11   -0.13    7.37
  -4  -1  11    4.15    5.86
  -4  -1  10    3.43    6.16
  -4  -1  10   -6.16    9.17
  -4  -1   9   -0.12    5.77
  -4  -1   9   -0.49    7.44
  -4  -1   8   41.56    7.76
  -4  -1   8   15.13   12.73
  -4  -1   7   92.54   13.04
  -4  -1   7   85.08   12.37
  -4  -1   6  152.22   13.25
  -4  -1   6  184.66   32.98
  -4  -1   5    5.15    5.14
  -4  -1   5    5.84    6.88
  -4  -1   4   58.09    8.32
  -4  -1   4   78.94   16.15
  -4  -1   3  133.11    9.93
  -4  -1   2  253.64   16.94
  -4  -1   2  279.65   18.86
  -4  -1   1   43.01   15.55
  -4  -1   1   41.09   13.67
  -4  -1   0   10.40    8.21
  -4  -1   0   11.23    7.06
  -4  -1  -1  292.67   18.98
  -4  -1  -1  224.30   12.38
   4   1   1  338.64   20.03
  -4  -1  -2   99.64   41.66
   4   1   2  106.54   16.74
  -4  -1  -3  112.77   60.23
   4   1   3  142.94   16.96
  -4  -1  -4  196.63   19.50
   4   1   4  157.16   18.02
  -4  -1  -5   13.20   12.56
  -4  -1  -6   19.48   18.29
   4   1   6   26.31   12.91
  -4  -1  -7   23.89   25.47
   4   1   7   29.45   15.18
  -4  -1  -8    6.63    9.32
   4   1   8   18.48   13.88
  -4  -1  -9    3.30    8.32
   4   1   9    5.83    5.55
  -4  -2  11    1.93    3.91
  -4  -2  11   -0.64    9.97
  -4  -2  10   40.28   10.69
  -4  -2  10   30.83   31.45
  -4  -2   9  103.39   14.00
  -4  -2   9   69.30   54.31
  -4  -2   8  169.25   11.94
  -4  -2   8  242.32   16.21
  -4  -2   7   65.67   10.72
  -4  -2   7   88.88   18.79
  -4  -2   6  293.62   19.53
  -4  -2   5    3.37    5.85
  -4  -2   4    2.31    5.71
  -4  -2   3    0.27    2.15
  -4  -2   3    2.78    3.75
  -4  -2   2   38.44   17.23
  -4  -2   2   43.85   12.62
  -4  -2   1   -0.87    4.42
  -4  -2   1   -0.36    5.53
   4   2  -1    0.82   12.92
  -4  -2   0  126.38   13.44
  -4  -2   0  101.98   11.29
   4   2   0  168.30   20.00
  -4  -2  -1  299.77   27.93
  -4  -2  -1  218.52   19.89
   4   2   1  272.89   27.88
  -4  -2  -2  256.61   24.05
   4   2   2  206.03   21.22
  -4  -2  -3   49.58   14.76
   4   2   3   17.91   14.21
  -4  -2  -4  218.04   29.70
   4   2   4  164.57   25.74
  -4  -2  -5   29.44   16.20
   4   2   5   44.72   15.63
  -4  -2  -6  339.99   31.01
   4   2   6  317.55   22.13
  -4  -2  -7    4.35   11.81
   4   2   7    2.82   10.04
  -4  -2  -8   -5.79   13.26
   4   2   8   18.00   14.60
  -4  -3  11    2.39    7.17
  -4  -3  10    9.14    7.63
  -4  -3   9    2.08    7.87
  -4  -3   8    6.56   12.70
  -4  -3   7  191.73   18.25
  -4  -3   6   11.43    6.98
  -4  -3   5    4.25    6.38
  -4  -3   4   19.86    8.70
  -4  -3   3   14.77    4.57
  -4  -3   3    9.35    8.78
  -4  -3   2   92.02   10.37
  -4  -3   2   89.57   10.82
   4   3  -2  169.40   22.57
  -4  -3   1   11.55    7.07
  -4  -3   1    5.88    7.30
   4   3  -1   -0.54   14.40
  -4  -3   0   43.41   11.36
  -4  -3   0   38.76   21.30
   4   3   0   41.70   11.32
  -4  -3  -1   12.32   13.46
  -4  -3  -1    1.54    3.32
   4   3   1   10.03   14.83
  -4  -3  -2  123.35   18.23
   4   3   2  100.89   20.39
  -4  -3  -3    7.58   15.53
   4   3   3   21.72   14.59
  -4  -3  -4   34.19   16.92
   4   3   4   23.73   12.96
  -4  -3  -5  130.25   19.88
   4   3   5   88.87   24.77
  -4  -3  -6   19.95   16.03
   4   3   6   20.50    9.55
  -4  -3  -7   46.48   22.29
   4   3   7   48.01   17.68
  -4  -3  -8    0.07    7.71
   4   3   8    6.91   11.03
  -4  -4  11    8.99    6.95
  -4  -4  10   16.99    7.63
  -4  -4   9   19.31    8.41
  -4  -4   8    4.78    4.00
  -4  -4   7    3.07    6.40
  -4  -4   6  285.68   19.09
  -4  -4   5    0.38    3.40
  -4  -4   4   18.25    5.62
  -4  -4   4   25.35    9.01
   4   4  -4   34.96   17.54
  -4  -4   3    9.12    6.43
  -4  -4   3   -0.63    6.34
   4   4  -3   -1.36   14.67
  -4  -4   2    3.23    7.76
  -4  -4   2    5.05    6.20
   4   4  -2   18.87   21.70
  -4  -4   1   52.22    9.53
  -4  -4   1   69.64   17.42
   4   4  -1   55.63   16.70
  -4  -4   0    6.99   11.64
  -4  -4   0    5.46    4.29
   4   4   0    1.41   17.77
  -4  -4  -1   29.38   13.78
  -4  -4  -1    7.78    7.37
   4   4   1    3.49   18.62
  -4  -4  -2   13.39   14.08
   4   4   2   18.66   20.55
  -4  -4  -3    7.65   14.73
   4   4   3    1.22   18.16
  -4  -4  -4   13.33   14.19
   4   4   4    3.55   16.05
  -4  -4  -5   56.85   16.64
   4   4   5   47.55   19.41
  -4  -4  -6   43.47   17.42
   4   4   6   39.57   13.89
  -4  -4  -7   46.11   14.41
   4   4   7   35.76   13.67
  -4  -5  11   20.73   12.70
  -4  -5  10    5.66    9.30
  -4  -5   9   11.18    8.12
  -4  -5   8  106.47   42.73
  -4  -5   7    5.76    3.37
  -4  -5   6  112.30   13.76
  -4  -5   5   -3.44    7.15
   4   5  -5    6.69   15.16
  -4  -5   4   15.44    8.99
  -4  -5   4    2.62    3.98
   4   5  -4   -2.56   17.51
  -4  -5   3   24.73    8.17
  -4  -5   3   32.66   18.25
   4   5  -3   32.98   15.77
  -4  -5   2  255.15   17.22
  -4  -5   2  221.92   14.29
   4   5  -2  216.32   23.44
  -4  -5   1  180.37   19.43
  -4  -5   1  171.37   13.49
   4   5  -1  155.15   21.82
  -4  -5   0   26.30   12.39
  -4  -5   0   18.29    8.78
   4   5   0    3.21   18.15
  -4  -5  -1  225.29   22.26
  -4  -5  -1  176.05   14.78
   4   5   1  178.23   25.24
  -4  -5  -2   12.19   13.01
   4   5   2   19.76   17.94
  -4  -5  -3   18.49   14.42
   4   5   3   34.60   24.25
  -4  -5  -4   23.29   12.61
   4   5   4   33.80   21.41
  -4  -5  -5   49.45   17.03
   4   5   5   33.53   19.44
  -4  -5  -6   26.28   14.62
   4   5   6   36.35   11.19
  -4  -6  11    4.38    8.17
  -4  -6  10    1.11    8.12
  -4  -6   9    7.88    6.14
  -4  -6   8  138.01   13.17
   4   6  -8  192.94   29.76
  -4  -6   7   75.43   25.25
   4   6  -7  139.88   30.60
  -4  -6   6  342.73   19.84
   4   6  -6  449.77   30.63
  -4  -6   5   29.25    9.93
   4   6  -5    7.08   16.29
  -4  -6   4    2.81    6.92
  -4  -6   4    3.26    6.20
   4   6  -4    7.74   17.57
  -4  -6   3   42.24   23.80
  -4  -6   3   38.66   18.15
   4   6  -3   48.73   18.31
  -4  -6   2   -2.67    7.84
  -4  -6   2   -0.10    3.72
   4   6  -2    6.95   17.24
  -4  -6   1    8.10    9.98
  -4  -6   1   17.13    8.15
   4   6  -1   29.64   20.22
  -4  -6   0   87.45   15.85
  -4  -6   0   68.45   33.66
   4   6   0   78.49   30.21
  -4  -6  -1  200.17   27.15
  -4  -6  -1  135.35   26.62
   4   6   1  158.51   33.94
  -4  -6  -2   19.16   11.64
   4   6   2   45.14   23.32
  -4  -6  -3   19.68   16.68
   4   6   3   34.43   20.15
  -4  -6  -4   -2.84    9.88
   4   6   4   22.60   17.43
  -4  -6  -5   17.07   13.69
   4   6   5   -1.10   11.43
  -4  -7  11   46.61   11.49
  -4  -7  10   32.19   14.29
   4   7 -10   58.98   29.34
  -4  -7   9   15.84   17.28
   4   7  -9   19.21   18.95
  -4  -7   8   32.69   19.06
   4   7  -8   29.31   17.31
  -4  -7   7    6.71    8.97
   4   7  -7   31.52   17.52
  -4  -7   6    9.95    8.77
   4   7  -6   26.00   17.37
  -4  -7   5    0.58    5.68
  -4  -7   5    3.23    4.45
   4   7  -5    4.01   15.74
  -4  -7   4    3.48    7.35
  -4  -7   4   -2.69    6.58
   4   7  -4    6.91   17.16
  -4  -7   3   51.99    9.78
  -4  -7   3   55.52   12.18
   4   7  -3   55.29   22.85
  -4  -7   2   82.80   12.29
  -4  -7   2   84.82   11.31
   4   7  -2   78.25   22.86
  -4  -7   1    8.45   10.17
  -4  -7   1    6.47    7.71
   4   7  -1   30.27   34.50
  -4  -7   0   37.34   12.10
  -4  -7   0   18.61   11.64
   4   7   0   17.17   28.58
  -4  -7  -1    9.57    9.42
  -4  -7  -1   10.64    7.46
   4   7   1   15.73   26.00
  -4  -7  -2    6.94   12.01
   4   7   2   35.59   22.66
  -4  -7  -3    2.92   10.25
   4   7   3   -5.09   16.09
  -4  -7  -4    9.51   10.86
   4   7   4   13.22   16.21
  -4  -8  10    7.55    7.07
   4   8 -10    5.09   17.71
  -4  -8   9   13.98   14.72
   4   8  -9   16.33   20.30
  -4  -8   8   47.52   13.47
   4   8  -8   16.66   16.01
  -4  -8   7   18.94   10.51
   4   8  -7    9.21   14.98
  -4  -8   6   16.85   11.68
   4   8  -6    7.86   19.43
  -4  -8   5   38.30   27.66
   4   8  -5   16.49   21.29
  -4  -8   4    7.22    8.10
  -4  -8   4    4.66    5.84
   4   8  -4    4.70   22.09
  -4  -8   3   34.55    9.74
  -4  -8   3   30.85   12.76
   4   8  -3   25.64   26.69
  -4  -8   2   38.79   11.78
  -4  -8   2   30.83   19.19
   4   8  -2   15.23   27.81
  -4  -8   1   92.45   17.23
  -4  -8   1   48.32   31.93
   4   8  -1   48.20   25.18
  -4  -8   0   -0.37   10.27
  -4  -8   0    4.79    7.62
   4   8   0   13.39   27.92
  -4  -8  -1  134.07   28.00
   4   8   1   40.31   25.09
  -4  -8  -2   13.79   11.31
   4   8   2    5.41   20.43
  -4  -9   9   33.48   12.66
  -4  -9   8   13.69    9.23
   4   9  -8    6.28   20.41
  -4  -9   7   53.82   12.10
   4   9  -7   52.27   22.83
  -4  -9   6   -1.26    7.37
   4   9  -6    9.26   24.51
  -4  -9   5    9.54    9.17
   4   9  -5   -1.10   29.46
  -4  -9   4    8.98   12.08
  -4  -9   4    8.14   11.87
   4   9  -4   -2.19   28.37
  -4  -9   3   20.20    9.65
  -4  -9   3   24.89   14.02
   4   9  -3   26.73   27.77
  -4  -9   2    8.13   13.51
  -4  -9   2    8.35    4.52
   4   9  -2   18.74   30.02
  -4  -9   1  131.00   31.30
  -4  -9   1   58.75   37.59
   4   9  -1   95.06   28.02
  -4  -9   0   -0.69   10.72
  -4  -9   0   10.34    8.01
   4   9   0   24.69   24.04
  -4 -10   6   -2.95    7.46
   4  10  -6   10.44   30.54
  -4 -10   5  128.49   14.92
   4  10  -5  106.49   40.16
  -4 -10   4   11.71    8.52
  -4 -10   4    8.51    6.69
   4  10  -4    6.58   29.91
  -4 -10   3   14.85    9.15
  -4 -10   3    3.24    5.62
   4  10  -3   26.16   24.39
   5  -9   1  191.26   33.06
   5  -9   2   18.14   10.26
   5  -9   3    9.73    7.40
  -5   8   2   10.42    7.32
  -5   8   1   72.57   15.35
   5  -8   0    9.70    7.25
  -5   8   0    7.17    7.73
   5  -8   1   84.33   38.90
   5  -8   2   16.45   10.99
   5  -8   3   11.32    9.01
   5  -8   4   -1.96    7.80
   5  -8   5   23.37   21.82
   5  -8   6   88.08   15.53
  -5   7   4    7.05    7.02
  -5   7   3    7.27    6.56
  -5   7   2    4.22    6.75
   5  -7  -1   34.29   21.55
  -5   7   1   24.07   16.82
   5  -7   0    3.72    3.56
  -5   7   0    5.07    7.60
   5  -7   1   10.61   12.12
  -5   7  -1   11.75   10.37
   5  -7   2    1.61    3.01
   5  -7   3    6.75    7.50
   5  -7   4   -2.59    7.53
   5  -7   5    5.08    3.52
   5  -7   6   18.17   11.88
   5  -7   7   32.47   21.05
  -5   6   5    5.02    4.81
  -5   6   4    7.68    7.05
  -5   6   3    3.66    5.24
  -5   6   2    7.01    7.52
   5  -6  -1   37.06   16.73
  -5   6   1   58.86    8.86
   5  -6   0   20.58    9.80
  -5   6   0   21.43   12.92
   5  -6   1   15.00   13.41
  -5   6  -1   27.04   11.89
   5  -6   2  119.84   12.53
   5  -6   3    3.71    7.15
   5  -6   4   39.80   10.67
   5  -6   5    3.23    5.83
   5  -6   6   50.88   12.47
   5  -6   7    3.31    5.29
  -5   5   6   11.11    7.35
  -5   5   5    8.90    7.80
  -5   5   4  105.50   15.52
  -5   5   3    9.93    8.61
  -5   5   2   -0.78    5.51
   5  -5  -1   -1.55    5.19
  -5   5   1    9.50    5.35
   5  -5   0   23.27    5.65
  -5   5   0    5.80    5.57
   5  -5   1    3.88    6.01
  -5   5  -1    5.29    7.92
   5  -5   2    4.46    3.60
  -5   5  -2    2.83    4.55
   5  -5   3   85.57    9.90
   5  -5   4   10.33    8.00
   5  -5   5   -2.68    7.92
   5  -5   6   95.18   18.38
   5  -5   7   88.40   57.01
   5  -5   7  122.03   21.72
   5  -5   8    3.03    6.68
  -5   4   7    9.62   10.43
  -5   4   6   31.50   19.30
  -5   4   5    2.19    4.96
  -5   4   4   13.64   12.75
  -5   4   3    6.10    5.96
  -5   4   2   45.63   30.23
   5  -4  -1   14.70    4.86
  -5   4   1   18.04   17.44
   5  -4   0  149.44    8.82
  -5   4   0  162.99   18.19
   5  -4   1    4.72    6.09
  -5   4  -1    2.11    3.11
   5  -4   2   17.58    8.36
   5  -4   2   17.95    4.51
   5  -4   3  163.30   28.97
   5  -4   3  194.28   18.26
   5  -4   4   34.62   16.38
   5  -4   4   39.92   10.53
   5  -4   5    8.53    9.26
   5  -4   5   15.67    9.56
   5  -4   6    5.61    9.22
  -5   4  -7   34.48   17.22
   5  -4   7   17.94    9.11
  -5   4  -8   26.29   13.86
   5  -4   8   16.92    8.33
  -5   3   8   88.86   11.05
  -5   3   7    6.27    7.39
  -5   3   6   98.64   14.86
  -5   3   5  407.37   20.10
  -5   3   4  471.93   20.80
  -5   3   3   73.16    9.66
  -5   3   2   13.26   10.23
  -5   3   2   21.98   13.98
   5  -3  -1    5.52    4.11
  -5   3   1    0.95    5.50
   5  -3   0    5.23    4.08
  -5   3   0    5.93    6.35
   5  -3   1   41.08   18.76
   5  -3   2    7.83    6.12
   5  -3   3   29.26   17.97
   5  -3   3   41.06    8.49
  -5   3  -4   50.09   17.93
   5  -3   4   63.99   12.68
  -5   3  -5    2.00   10.20
   5  -3   5   -2.42    6.88
  -5   3  -6   32.83   18.62
   5  -3   6   18.51    8.39
  -5   3  -7    8.59   10.85
   5  -3   7   -0.73    7.34
  -5   3  -8   21.19   14.72
   5  -3   8   12.85    8.16
  -5   2   9  225.00   18.15
  -5   2   8   14.70    9.88
  -5   2   7    4.12    3.86
  -5   2   6   90.15   11.34
  -5   2   5    1.14    2.13
  -5   2   5    5.31    8.02
  -5   2   4  138.22    7.32
  -5   2   4  160.64   16.85
  -5   2   3    3.95    3.14
  -5   2   3   14.03   17.65
  -5   2   2    6.58    6.32
  -5   2   2    6.61    6.79
   5  -2  -1    3.82    3.54
  -5   2   1    2.35    3.91
  -5   2   1    1.42    6.62
   5  -2   0  136.43   12.14
   5  -2   1   11.88    9.63
  -5   2  -2    6.47    8.10
  -5   2  -3   12.53    9.35
  -5   2  -4    3.41    9.28
   5  -2   4   -0.26    6.52
  -5   2  -5    9.57   10.01
   5  -2   5   -2.13    7.27
  -5   2  -6    5.90   10.82
   5  -2   6   -1.62    9.47
  -5   2  -7   12.96    9.22
   5  -2   7   52.54   14.74
  -5   2  -8   -7.91   12.69
   5  -2   8    5.94    9.65
  -5   1   9    4.73   10.12
  -5   1   8   11.24    8.08
  -5   1   8    6.39    3.09
  -5   1   7   43.92    9.00
  -5   1   7   31.68   27.60
  -5   1   6   49.19    6.28
  -5   1   6   25.52   20.00
  -5   1   5   35.94   19.33
  -5   1   5   45.71   37.17
  -5   1   4   15.60   10.39
  -5   1   4   22.06   14.13
  -5   1   3    7.64    3.84
  -5   1   3   19.02   16.79
  -5   1   2   74.84    7.25
   5  -1  -1   12.12    7.16
  -5   1   1   10.65    6.32
  -5   1   0   10.27    4.63
  -5   1  -1   21.43    8.58
  -5   1  -2    4.39    8.35
   5  -1   2    1.20    6.90
  -5   1  -3   92.16   13.21
  -5   1  -4   10.31   10.06
  -5   1  -5    7.26    6.82
   5  -1   5    8.36    8.99
  -5   1  -6    4.93   10.14
   5  -1   6   -0.25    7.68
  -5   1  -7   25.75   19.38
   5  -1   7   28.17   11.79
  -5   0   9   16.04    9.45
  -5   0   9   10.92   18.46
  -5   0   8    6.05    5.58
  -5   0   8    3.89    9.31
  -5   0   7    4.35    4.64
  -5   0   7   -2.40    7.96
  -5   0   6    0.83    4.84
  -5   0   6    0.61    4.42
  -5   0   5   10.49    3.16
  -5   0   5   17.84   12.71
  -5   0   4   39.77   20.87
  -5   0   4   93.41   17.80
  -5   0   3   55.23    6.93
  -5   0   2   75.23    9.38
  -5   0   1   56.12    7.76
  -5   0   1   83.85   10.36
  -5   0   0    6.06    6.27
  -5   0   0   10.02    5.63
  -5   0  -1  354.93   25.40
   5   0   1  484.75   30.49
  -5   0  -2   20.96   18.32
   5   0   2   19.00    8.34
  -5   0  -3  457.74   24.36
  -5   0  -4    1.16    6.07
  -5   0  -5    2.75   13.15
   5   0   5    7.83    9.14
  -5   0  -6    4.87    5.74
   5   0   6    2.09    8.44
  -5   0  -7    7.13    9.57
   5   0   7    0.51    9.85
  -5  -1  10   25.91   25.07
  -5  -1  10   29.98   31.02
  -5  -1   9   32.01   27.03
  -5  -1   9   45.48   28.06
  -5  -1   8   19.16   15.12
  -5  -1   8   21.33   10.68
  -5  -1   7   75.75   11.90
  -5  -1   7   85.99   13.79
  -5  -1   6    9.07    7.93
  -5  -1   5   28.88   17.63
  -5  -1   4    5.60    4.34
  -5  -1   3  568.77   31.74
  -5  -1   2   80.07   10.61
  -5  -1   2   92.23   22.63
  -5  -1   1  229.06   17.25
  -5  -1   1  249.14   30.16
  -5  -1   0   -1.69    6.25
  -5  -1   0    3.61    3.11
   5   1   0    2.25   12.06
  -5  -1  -1   70.78   50.56
   5   1   1  106.65   13.55
  -5  -1  -2  135.39   32.40
   5   1   2  156.88   13.99
  -5  -1  -3    6.54    8.95
   5   1   3   -3.71   11.95
  -5  -1  -4   16.82   14.78
  -5  -1  -5    5.79   10.98
  -5  -1  -6    1.04    6.09
   5   1   6   -3.59    8.63
  -5  -1  -7   23.63   26.15
   5   1   7   38.74   10.62
  -5  -2  10    0.72    4.09
  -5  -2   9   23.70   22.65
  -5  -2   8   54.00   33.42
  -5  -2   7   23.77    6.68
  -5  -2   6    7.39    5.47
  -5  -2   5    2.66    5.72
  -5  -2   4   18.98   11.25
  -5  -2   3   62.98   23.29
  -5  -2   2  248.21   16.48
  -5  -2   2  262.73   19.76
  -5  -2   1  136.86   15.04
  -5  -2   1  149.38   14.62
   5   2  -1  214.61   22.81
  -5  -2   0    6.93    9.01
  -5  -2   0    7.40    8.21
   5   2   0    5.62   11.77
  -5  -2  -1   24.00   16.24
  -5  -2  -1   45.44   13.17
   5   2   1   32.95   13.09
  -5  -2  -2   54.26   33.29
   5   2   2   60.15   14.52
  -5  -2  -3    6.56    8.98
   5   2   3   15.07   13.36
  -5  -2  -4   14.05   13.00
  -5  -2  -5    6.10    6.92
  -5  -2  -6   20.71   11.23
   5   2   6    3.23    9.45
  -5  -3  10   14.11   16.82
  -5  -3   9    7.66    8.27
  -5  -3   8   13.33    6.56
  -5  -3   7  169.42   21.94
  -5  -3   6   14.60   10.38
  -5  -3   5   60.26   14.94
  -5  -3   4  106.08   10.85
  -5  -3   3   -2.62    7.40
   5   3  -3   12.35   15.91
  -5  -3   2   17.94   21.33
  -5  -3   2   50.02   11.07
   5   3  -2   67.70   19.50
  -5  -3   1    1.58    4.49
  -5  -3   1    5.01    5.78
   5   3  -1   14.52   13.18
  -5  -3   0   29.62   19.12
  -5  -3   0   32.68   24.82
   5   3   0   38.80   13.00
  -5  -3  -1    5.09    5.41
  -5  -3  -1    2.94    6.11
   5   3   1   12.60   14.54
  -5  -3  -2   43.96   31.47
   5   3   2   28.94   16.62
  -5  -3  -3   15.95   13.52
   5   3   3   30.57   15.78
  -5  -3  -4   15.31   10.56
  -5  -3  -5   41.07   33.54
  -5  -4  10   25.30    7.98
  -5  -4   9   -0.07    4.62
  -5  -4   8  124.80   18.12
  -5  -4   7  102.30   17.20
  -5  -4   6   12.44    7.27
  -5  -4   5   49.81   23.02
  -5  -4   4   54.69   30.29
   5   4  -4   77.98   17.23
  -5  -4   3   17.27   10.23
   5   4  -3   13.84   18.36
  -5  -4   2   91.04   11.04
  -5  -4   2  105.77   13.27
   5   4  -2  133.01   24.12
  -5  -4   1    8.58    8.75
  -5  -4   1    5.83    5.39
   5   4  -1   35.10   15.17
  -5  -4   0   11.70    8.54
  -5  -4   0   17.70   12.45
   5   4   0    3.53   17.51
  -5  -4  -1   20.27   10.01
  -5  -4  -1   31.54   10.57
   5   4   1   29.50   16.14
  -5  -4  -2   24.42   17.39
   5   4   2   -2.10   16.86
  -5  -4  -3   10.91   12.59
   5   4   3    8.62   15.16
  -5  -4  -4  217.97   38.95
  -5  -5   9   33.09    8.66
  -5  -5   8  109.99   21.58
  -5  -5   7   -1.16    7.19
   5   5  -7   -2.09   20.14
  -5  -5   6  197.92   24.50
   5   5  -6  266.71   38.32
  -5  -5   5    5.68    5.12
   5   5  -5    8.32   19.31
  -5  -5   4   -1.59    6.94
   5   5  -4    1.77   17.33
  -5  -5   3   49.39   25.38
   5   5  -3   44.09   18.69
  -5  -5   2    7.16    7.52
  -5  -5   2    2.95    5.05
   5   5  -2   -4.51   20.23
  -5  -5   1  133.27   14.24
  -5  -5   1   65.30   39.39
   5   5  -1  146.42   29.67
  -5  -5   0   46.56   13.05
  -5  -5   0   43.07   21.50
   5   5   0   55.64   25.59
  -5  -5  -1   11.32   11.07
  -5  -5  -1    4.09    6.78
   5   5   1    1.66   19.59
  -5  -5  -2   31.61   18.15
   5   5   2   23.04   20.90
  -5  -5  -3   86.96   21.01
   5   5   3   20.55   16.40
  -5  -6   9   14.47    8.20
   5   6  -9   25.49   27.67
  -5  -6   8   18.40   15.78
   5   6  -8   24.75   24.80
  -5  -6   7   10.48    8.22
   5   6  -7    3.41   20.82
  -5  -6   6    1.74    2.99
   5   6  -6   15.13   17.90
  -5  -6   5   70.90   38.18
   5   6  -5  126.24   25.57
  -5  -6   4   79.89   13.98
   5   6  -4   65.12   21.97
   5   6  -3   33.18   20.19
  -5  -6   2   -2.11    8.24
  -5  -6   2    7.84    4.81
   5   6  -2   20.68   23.29
  -5  -6   1  189.35   24.67
  -5  -6   1  148.29   18.57
   5   6  -1  140.38   25.73
  -5  -6   0   11.26    9.96
  -5  -6   0    4.36    7.25
   5   6   0   38.16   25.09
  -5  -6  -1    8.22   12.10
   5   6   1   -5.76   19.01
  -5  -6  -2    7.18   12.01
   5   6   2   13.44   18.58
  -5  -7   8  143.08   15.61
  -5  -7   7   15.81   10.02
   5   7  -7   19.17   24.05
  -5  -7   6    6.20    4.51
   5   7  -6   -1.30   20.19
  -5  -7   5   30.21   28.71
   5   7  -5   31.02   22.04
  -5  -7   4    5.52    5.44
   5   7  -4   11.24   22.51
  -5  -7   3    5.75    5.92
   5   7  -3  -11.39   21.58
  -5  -7   2   33.39   29.42
   5   7  -2   73.17   27.45
  -5  -7   1   -1.46    9.00
  -5  -7   1   -1.44    8.00
   5   7  -1   21.87   23.36
  -5  -7   0   11.57   10.14
  -5  -7   0   21.48   18.97
   5   7   0   39.75   22.94
  -5  -8   6    5.55    5.05
  -5  -8   5   -1.25    8.04
   5   8  -5  -16.28   24.18
  -5  -8   4    3.75    8.41
   5   8  -4   19.87   25.23
  -5  -8   3   -0.70    7.90
   5   8  -3   46.17   25.43
  -5  -8   2    5.29    7.61
  -6   5   3    4.42    7.15
  -6   5   2    9.98   12.28
  -6   5   1   24.83   27.37
   6  -5   2   57.10    8.68
   6  -5   3    2.36    5.19
  -6   4   4   33.70   32.84
  -6   4   3   -2.67    7.21
  -6   4   2    3.92    4.96
  -6   4   1    7.79    6.37
   6  -4   2    7.44    4.90
   6  -4   3   11.13    5.35
   6  -4   4   81.73    9.79
  -6   3   5    3.70    3.73
  -6   3   4   -2.26    7.01
  -6   3   3    9.27   12.94
  -6   3   2    8.47   13.80
   6  -3   2    7.34    4.37
   6  -3   3    6.32    6.22
   6  -3   4    4.17    3.12
  -6   2   6   29.20   35.61
  -6   2   5    9.99   16.25
  -6   2   4   18.43   17.49
  -6   2   3   27.33   11.23
   6  -2   2   32.41   22.14
  -6   2  -3   13.30   11.57
  -6   2  -4   -0.76   10.68
   6  -2   4   15.36    9.97
  -6   1   6  128.84   14.48
  -6   1   5   15.71    9.15
  -6   1   4    0.26    2.26
  -6   1   3    4.27    4.02
  -6   1   2    2.38    3.98
  -6   1   1    8.83    4.65
  -6   1  -2   34.03   12.79
  -6   1  -3   19.97   12.54
  -6   1  -4   15.13   14.79
   6  -1   4    5.74    7.38
  -6   0   6    9.03    9.97
  -6   0   5   -0.11    4.13
  -6   0   4    2.63    5.79
  -6   0   3   53.38   20.05
  -6   0   2   24.71   14.25
  -6   0   1    6.06    6.09
   6   0   0    7.19    9.80
  -6   0  -1   39.50   12.79
  -6   0  -2    1.66    9.86
  -6   0  -3    3.79    6.22
  -6   0  -4   20.34   14.99
  -6  -1   7   17.23   19.53
  -6  -1   6    9.90    7.78
  -6  -1   5    4.22    5.08
  -6  -1   4   -1.31    5.49
  -6  -1   3   39.96   23.46
  -6  -1   2    2.26    3.05
  -6  -1   1   59.50   29.27
   6   1  -1  106.74   22.72
   6   1   0   14.23   10.07
  -6  -1  -2    6.52    8.37
  -6  -1  -3    2.36    7.40
  -6  -2   7   34.34   21.12
  -6  -2   6    3.11    4.41
  -6  -2   5   20.59    8.05
  -6  -2   4   39.64   21.05
  -6  -2   3   42.13   25.18
   6   2  -3  141.40   25.14
  -6  -2   2    1.55    5.13
   6   2  -2    4.69   15.18
  -6  -2   1   37.64   25.30
   6   2  -1   66.14   16.23
  -6  -2   0    5.17    8.14
   6   2   0   -4.77   11.35
   6   2   1   59.68   16.62
  -6  -2  -2    1.54    7.01
  -6  -3   6   10.21   11.21
  -6  -3   5   59.35   15.80
  -6  -3   4    7.72    4.69
   6   3  -4    8.80   15.86
  -6  -3   3    2.13    4.04
   6   3  -3   25.24   14.14
  -6  -3   2   14.68    7.57
   6   3  -2   14.70   14.50
  -6  -3   1   22.79   12.33
   6   3  -1   39.32   15.15
  -6  -3   0    4.84    7.39
   6   3   0   12.38   14.23
   6   3   1   30.32   16.68
  -6  -4   6    8.39    8.11
  -6  -4   5   26.41   15.78
   6   4  -5   66.00   25.03
  -6  -4   4   18.11   13.24
   6   4  -4   53.74   16.66
  -6  -4   3    0.51    4.91
   6   4  -3   34.73   16.18
  -6  -4   2    3.78    4.34
   6   4  -2   33.22   15.52
  -6  -4   1    7.39    5.75
   6   4  -1   15.33   14.42
  -6  -4   0   10.98    6.65
   6   4   0    0.39   17.50
  -6  -5   3    5.68    7.15
   0   0   0    0.00    0.00
;
_shelx_hkl_checksum              59032
loop_
_space_group_symop_operation_xyz
'x, y, z'
'-x, -y, -z'
loop_
_atom_site_label
_atom_site_type_symbol
_atom_site_fract_x
_atom_site_fract_y
_atom_site_fract_z
_atom_site_U_iso_or_equiv
_atom_site_adp_type
_atom_site_occupancy
_atom_site_site_symmetry_order
_atom_site_calc_flag
_atom_site_refinement_flags_posn
_atom_site_refinement_flags_adp
F1 F 0.9369(3) 0.10415(16) 0.93438(14) 0.0521(5) Uani 1 1 d . .
F2 F 1.2784(3) 0.01974(14) 0.83788(14) 0.0438(4) Uani 1 1 d . .
F3 F 0.8777(3) -0.05512(14) 0.74331(16) 0.0480(4) Uani 1 1 d . .
O1 O 0.7583(3) 0.06818(14) 0.50650(15) 0.0268(4) Uani 1 1 d . .
H1 H 0.641542 0.018898 0.526319 0.040 Uiso 1 1 calc R U
O2 O 1.0525(3) 0.15792(15) 0.76147(14) 0.0243(4) Uani 1 1 d . .
C1 C 0.7669(4) 0.2097(2) 0.59303(19) 0.0191(4) Uani 1 1 d . .
H1A H 0.919697 0.265315 0.575473 0.023 Uiso 1 1 calc R U
C2 C 0.5055(4) 0.2712(2) 0.5650(2) 0.0203(5) Uani 1 1 d . .
H2A H 0.494469 0.276854 0.474872 0.024 Uiso 1 1 calc R U
H2B H 0.352457 0.207534 0.567859 0.024 Uiso 1 1 calc R U
C3 C 0.4821(4) 0.4163(2) 0.6632(2) 0.0205(5) Uani 1 1 d . .
C4 C 0.3035(4) 0.5043(2) 0.6285(2) 0.0244(5) Uani 1 1 d . .
H4 H 0.205514 0.473903 0.543109 0.029 Uiso 1 1 calc R U
C5 C 0.2685(5) 0.6350(2) 0.7174(2) 0.0317(6) Uani 1 1 d . .
H5 H 0.146595 0.693374 0.693087 0.038 Uiso 1 1 calc R U
C6 C 0.4119(5) 0.6798(2) 0.8417(2) 0.0340(6) Uani 1 1 d . .
H6 H 0.389124 0.769214 0.902866 0.041 Uiso 1 1 calc R U
C7 C 0.5896(5) 0.5935(2) 0.8769(2) 0.0295(5) Uani 1 1 d . .
H7 H 0.686975 0.624909 0.962429 0.035 Uiso 1 1 calc R U
C8 C 0.6276(4) 0.4616(2) 0.7887(2) 0.0217(5) Uani 1 1 d . .
C9 C 0.8348(4) 0.3738(2) 0.8283(2) 0.0234(5) Uani 1 1 d . .
H9A H 0.818744 0.377611 0.920109 0.028 Uiso 1 1 calc R U
H9B H 1.016424 0.414519 0.826013 0.028 Uiso 1 1 calc R U
C10 C 0.8022(4) 0.2212(2) 0.7381(2) 0.0213(5) Uani 1 1 d . .
H10 H 0.646217 0.170487 0.758926 0.026 Uiso 1 1 calc R U
C11 C 1.0337(5) 0.0587(2) 0.8179(2) 0.0305(6) Uani 1 1 d . .
loop_
_atom_site_aniso_label
_atom_site_aniso_U_11
_atom_site_aniso_U_22
_atom_site_aniso_U_33
_atom_site_aniso_U_23
_atom_site_aniso_U_13
_atom_site_aniso_U_12
F1 0.0702(11) 0.0614(11) 0.0468(9) 0.0371(8) 0.0305(8) 0.0360(9)
F2 0.0368(8) 0.0456(9) 0.0624(10) 0.0331(8) 0.0082(7) 0.0210(7)
F3 0.0452(9) 0.0274(8) 0.0756(11) 0.0233(8) 0.0054(8) 0.0027(7)
O1 0.0271(9) 0.0192(8) 0.0310(9) 0.0030(7) 0.0058(7) 0.0042(6)
O2 0.0211(8) 0.0230(8) 0.0349(9) 0.0164(7) 0.0062(7) 0.0086(6)
C1 0.0157(10) 0.0149(10) 0.0250(11) 0.0037(9) 0.0046(9) 0.0017(8)
C2 0.0154(10) 0.0200(11) 0.0246(11) 0.0065(9) 0.0004(9) 0.0032(8)
C3 0.0170(10) 0.0200(11) 0.0281(12) 0.0111(9) 0.0086(9) 0.0042(8)
C4 0.0216(11) 0.0260(12) 0.0294(12) 0.0136(10) 0.0037(9) 0.0047(9)
C5 0.0326(13) 0.0287(13) 0.0429(15) 0.0203(12) 0.0130(11) 0.0153(11)
C6 0.0441(15) 0.0235(13) 0.0366(14) 0.0086(11) 0.0151(12) 0.0149(11)
C7 0.0341(13) 0.0277(13) 0.0269(12) 0.0078(10) 0.0062(10) 0.0079(10)
C8 0.0201(11) 0.0203(11) 0.0279(12) 0.0099(9) 0.0095(9) 0.0050(9)
C9 0.0261(12) 0.0225(12) 0.0216(11) 0.0066(9) 0.0027(9) 0.0070(9)
C10 0.0180(11) 0.0208(11) 0.0297(12) 0.0119(9) 0.0092(9) 0.0106(9)
C11 0.0334(13) 0.0277(13) 0.0375(14) 0.0175(11) 0.0093(11) 0.0130(11)
loop_
_atom_type_symbol
_atom_type_description
_atom_type_scat_dispersion_real
_atom_type_scat_dispersion_imag
_atom_type_scat_source
C C 0.0033 0.0016 'International Tables Vol C Tables 4.2.6.8 and 6.1.1.4'
H H 0.0000 0.0000 'International Tables Vol C Tables 4.2.6.8 and 6.1.1.4'
O O 0.0106 0.0060 'International Tables Vol C Tables 4.2.6.8 and 6.1.1.4'
F F 0.0171 0.0103 'International Tables Vol C Tables 4.2.6.8 and 6.1.1.4'
loop_
_geom_angle_atom_site_label_1
_geom_angle_atom_site_label_2
_geom_angle_atom_site_label_3
_geom_angle
C1 O1 H1 109.5
C11 O2 C10 116.42(16)
O1 C1 C10 112.40(16)
O1 C1 C2 108.96(16)
C10 C1 C2 108.69(15)
O1 C1 H1A 108.9
C10 C1 H1A 108.9
C2 C1 H1A 108.9
C3 C2 C1 112.76(17)
C3 C2 H2A 109.0
C1 C2 H2A 109.0
C3 C2 H2B 109.0
C1 C2 H2B 109.0
H2A C2 H2B 107.8
C8 C3 C4 119.48(18)
C8 C3 C2 121.32(17)
C4 C3 C2 119.15(19)
C5 C4 C3 120.8(2)
C5 C4 H4 119.6
C3 C4 H4 119.6
C6 C5 C4 119.7(2)
C6 C5 H5 120.1
C4 C5 H5 120.1
C5 C6 C7 119.9(2)
C5 C6 H6 120.1
C7 C6 H6 120.1
C6 C7 C8 121.2(2)
C6 C7 H7 119.4
C8 C7 H7 119.4
C7 C8 C3 118.86(18)
C7 C8 C9 119.6(2)
C3 C8 C9 121.48(18)
C8 C9 C10 112.62(18)
C8 C9 H9A 109.1
C10 C9 H9A 109.1
C8 C9 H9B 109.1
C10 C9 H9B 109.1
H9A C9 H9B 107.8
O2 C10 C1 107.47(14)
O2 C10 C9 107.25(17)
C1 C10 C9 111.38(16)
O2 C10 H10 110.2
C1 C10 H10 110.2
C9 C10 H10 110.2
F2 C11 F3 107.90(17)
F2 C11 F1 107.97(19)
F3 C11 F1 107.0(2)
F2 C11 O2 108.06(19)
F3 C11 O2 113.2(2)
F1 C11 O2 112.58(18)
loop_
_geom_bond_atom_site_label_1
_geom_bond_atom_site_label_2
_geom_bond_distance
F1 C11 1.336(2)
F2 C11 1.330(2)
F3 C11 1.335(3)
O1 C1 1.429(2)
O1 H1 0.8400
O2 C11 1.341(2)
O2 C10 1.478(2)
C1 C10 1.525(3)
C1 C2 1.528(3)
C1 H1A 1.0000
C2 C3 1.523(3)
C2 H2A 0.9900
C2 H2B 0.9900
C3 C8 1.399(3)
C3 C4 1.406(3)
C4 C5 1.389(3)
C4 H4 0.9500
C5 C6 1.385(3)
C5 H5 0.9500
C6 C7 1.392(3)
C6 H6 0.9500
C7 C8 1.398(3)
C7 H7 0.9500
C8 C9 1.522(3)
C9 C10 1.526(3)
C9 H9A 0.9900
C9 H9B 0.9900
C10 H10 1.0000
loop_
_geom_torsion_atom_site_label_1
_geom_torsion_atom_site_label_2
_geom_torsion_atom_site_label_3
_geom_torsion_atom_site_label_4
_geom_torsion
O1 C1 C2 C3 173.29(15)
C10 C1 C2 C3 50.5(2)
C1 C2 C3 C8 -22.7(3)
C1 C2 C3 C4 159.61(18)
C8 C3 C4 C5 -0.5(3)
C2 C3 C4 C5 177.32(19)
C3 C4 C5 C6 0.3(3)
C4 C5 C6 C7 -0.2(3)
C5 C6 C7 C8 0.2(3)
C6 C7 C8 C3 -0.3(3)
C6 C7 C8 C9 176.7(2)
C4 C3 C8 C7 0.4(3)
C2 C3 C8 C7 -177.28(19)
C4 C3 C8 C9 -176.52(18)
C2 C3 C8 C9 5.8(3)
C7 C8 C9 C10 165.36(18)
C3 C8 C9 C10 -17.7(3)
C11 O2 C10 C1 -127.1(2)
C11 O2 C10 C9 113.0(2)
O1 C1 C10 O2 57.9(2)
C2 C1 C10 O2 178.61(15)
O1 C1 C10 C9 175.12(15)
C2 C1 C10 C9 -64.2(2)
C8 C9 C10 O2 164.28(15)
C8 C9 C10 C1 46.9(2)
C10 O2 C11 F2 -176.57(16)
C10 O2 C11 F3 64.0(2)
C10 O2 C11 F1 -57.4(3)
