#------------------------------------------------------------------------------
#$Date: 2019-11-26 10:30:32 +0200 (Tue, 26 Nov 2019) $
#$Revision: 243237 $
#$URL: file:///home/coder/svn-repositories/cod/cif/4/13/34/4133463.cif $
#------------------------------------------------------------------------------
#
# This file is available in the Crystallography Open Database (COD),
# http://www.crystallography.net/
#
# All data on this site have been placed in the public domain by the
# contributors.
#
data_4133463
loop_
_publ_author_name
'Baxter, Amanda F.'
'Martin, Igor'
'Christe, Karl O.'
'Haiges, Ralf'
_publ_section_title
;
 Formamidinium Nitroformate: An Insensitive RDX Alternative.
;
_journal_issue                   44
_journal_name_full               'Journal of the American Chemical Society'
_journal_page_first              15089
_journal_page_last               15098
_journal_paper_doi               10.1021/jacs.8b10200
_journal_volume                  140
_journal_year                    2018
_chemical_formula_moiety         'C N3 O6, C H6 N'
_chemical_formula_sum            'C2 H6 N4 O6'
_chemical_formula_weight         182.09
_chemical_name_systematic        'methylammonium nitroformate'
_space_group_crystal_system      orthorhombic
_space_group_IT_number           62
_space_group_name_Hall           '-P 2ac 2n'
_space_group_name_H-M_alt        'P n m a'
_symmetry_Int_Tables_number      62
_audit_creation_date             2018-08-20
_audit_creation_method
;
Olex2 1.2
(compiled 2018.05.29 svn.r3510 for OlexSys, GUI svn.r5506)
;
_cell_angle_alpha                90
_cell_angle_beta                 90
_cell_angle_gamma                90
_cell_formula_units_Z            4
_cell_length_a                   8.226(2)
_cell_length_b                   8.403(2)
_cell_length_c                   10.367(3)
_cell_measurement_reflns_used    5183
_cell_measurement_temperature    100(1)
_cell_measurement_theta_max      29.756
_cell_measurement_theta_min      3.120
_cell_volume                     716.6(3)
_computing_cell_refinement       'SAINT v8.37A (Bruker, 2015)'
_computing_data_reduction        'SAINT v8.37A (Bruker, 2015)'
_computing_molecular_graphics    'Olex2 (Dolomanov et al., 2009)'
_computing_publication_material  'Olex2 (Dolomanov et al., 2009)'
_computing_structure_refinement  'olex2.refine (Bourhis et al., 2015)'
_computing_structure_solution    'ShelXT (Sheldrick, 2015)'
_diffrn_ambient_temperature      99.99
_diffrn_detector_area_resol_mean 8.3333
_diffrn_measured_fraction_theta_full 0.9983
_diffrn_measured_fraction_theta_max 0.9983
_diffrn_measurement_device_type  'Bruker APEX II CCD'
_diffrn_measurement_method       'omega- and phi-scans'
_diffrn_radiation_type           'Mo K\a'
_diffrn_radiation_wavelength     0.71073
_diffrn_reflns_av_R_equivalents  0.0403
_diffrn_reflns_av_unetI/netI     0.0146
_diffrn_reflns_limit_h_max       11
_diffrn_reflns_limit_h_min       -11
_diffrn_reflns_limit_k_max       11
_diffrn_reflns_limit_k_min       -11
_diffrn_reflns_limit_l_max       14
_diffrn_reflns_limit_l_min       -14
_diffrn_reflns_number            16233
_diffrn_reflns_theta_full        30.4997
_diffrn_reflns_theta_max         30.50
_diffrn_reflns_theta_min         3.12
_exptl_absorpt_coefficient_mu    0.167
_exptl_absorpt_correction_T_max  0.7461
_exptl_absorpt_correction_T_min  0.6248
_exptl_absorpt_correction_type   multi-scan
_exptl_absorpt_process_details
'SADABS-2016/2 (Bruker,2016/2) was used for absorption correction. wR2(int) was 0.0632 before and 0.0496 after correction. The Ratio of minimum to maximum transmission is 0.8374. The \l/2 correction factor is Not present.'
_exptl_crystal_colour            'clear light yellow'
_exptl_crystal_colour_lustre     clear
_exptl_crystal_colour_modifier   light
_exptl_crystal_colour_primary    yellow
_exptl_crystal_density_diffrn    1.6876
_exptl_crystal_description       prism
_exptl_crystal_F_000             376.3019
_exptl_crystal_size_max          0.418
_exptl_crystal_size_mid          0.286
_exptl_crystal_size_min          0.194
_refine_diff_density_max         0.2813
_refine_diff_density_min         -0.2654
_refine_diff_density_rms         0.0515
_refine_ls_d_res_high            0.7002
_refine_ls_d_res_low             6.5278
_refine_ls_goodness_of_fit_ref   1.0816
_refine_ls_hydrogen_treatment    refall
_refine_ls_matrix_type           full
_refine_ls_number_constraints    1
_refine_ls_number_parameters     106
_refine_ls_number_reflns         1158
_refine_ls_number_restraints     0
_refine_ls_restrained_S_all      1.0816
_refine_ls_R_factor_all          0.0429
_refine_ls_R_factor_gt           0.0350
_refine_ls_shift/su_max          0.0023
_refine_ls_shift/su_mean         0.0005
_refine_ls_structure_factor_coef Fsqd
_refine_ls_weighting_details
'w=1/[\s^2^(Fo^2^)+(0.0446P)^2^+0.2260P] where P=(Fo^2^+2Fc^2^)/3'
_refine_ls_weighting_scheme      calc
_refine_ls_wR_factor_gt          0.0915
_refine_ls_wR_factor_ref         0.0975
_reflns_Friedel_coverage         0.0
_reflns_limit_h_max              11
_reflns_limit_h_min              0
_reflns_limit_k_max              11
_reflns_limit_k_min              0
_reflns_limit_l_max              14
_reflns_limit_l_min              0
_reflns_number_gt                979
_reflns_number_total             1158
_reflns_threshold_expression     I>=2u(I)
_iucr_refine_instructions_details
;
TITL mo_im26_0m_a.res in Pnma
REM Old TITL mo_IM26_0m in Pnma
REM SHELXT solution in Pnma
REM R1 0.230, Rweak 0.011, Alpha 0.031, Orientation as input
REM Formula found by SHELXT: C4 N3 O2A
CELL 0.71073 8.2265 8.4027 10.367 90 90 90
ZERR 4 0.0022 0.0022 0.0027 0 0 0
LATT 1
SYMM 0.5-X,-Y,0.5+Z
SYMM -X,0.5+Y,-Z
SYMM 0.5+X,0.5-Y,0.5-Z
SFAC C H N O
UNIT 8 24 16 24

L.S. 10
PLAN  20
SIZE 0.194 0.286 0.418
TEMP -173.16
BOND $H
LIST 6
fmap 2
ACTA 
WGHT 0.044625 0.226026
FVAR 1.080237 0.499403
REM <olex2.extras>
REM <HklSrc "%./mo_Comp4.hkl">
REM </olex2.extras>

PART 1
O1    4     0.78702  0.59583  0.52454  21.00000  0.02240  0.03441  0.02545 =
 -0.00195 -0.00194 -0.00774 
O2    4     0.61825  0.50424  0.37758  21.00000  0.03260  0.01751  0.03667 =
 -0.01064 -0.00422 -0.00504 

PART 0
N1    3     1.10913  0.75000  0.55636  10.50000  0.01633  0.03292  0.01953 =
 -0.00000 -0.00099  0.00000 

N2    3     0.67964  0.60533  0.43493  11.00000  0.01559  0.03606  0.02847 =
 -0.00737  0.00007 -0.00433 
C2    1     0.61373  0.75000  0.40411  10.50000  0.01403  0.04551  0.02174 =
 -0.00000 -0.00206  0.00000 

C1    1     1.09178  0.75000  0.69891  10.50000  0.02849  0.03690  0.01981 =
 -0.00000  0.00307 -0.00000 

PART -1
N3    3     0.48092  0.72738  0.31148  10.50000  0.01698  0.03160  0.01848 =
 -0.00030 -0.00038 -0.00493 
O4    4     0.35460  0.79765  0.34145  10.50000  0.01643  0.11104  0.03346 =
 -0.01509 -0.00385  0.01266 
O3    4     0.50219  0.66190  0.20882  10.50000  0.04643  0.04663  0.01671 =
 -0.00499 -0.00267 -0.00093 

PART 0
H1a   2     1.01840  0.75000  0.51647  10.50000  0.03512 
H1b   2     1.16382  0.83522  0.53000  11.00000  0.05005 
H1c   2     1.03083  0.84435  0.72562  11.00000  0.05630 
H1d   2     1.19682  0.75000  0.73949  10.50000  0.05142 

PART 2
O2A   4     0.61472  0.46352  0.39917 -21.00000  0.02034  0.01478  0.04002 =
 -0.00945 -0.00072 -0.00539 
O1A   4     0.81009  0.59360  0.49199 -21.00000  0.02470  0.02332  0.04939 =
 0.00832 -0.01820 -0.00570 
HKLF 4

END
Q1 1 0.566667 0.75 0.35 11 0.05 0.28
Q2 1 0.5 0.75 0.225 11 0.05 0.28
Q3 1 0.633333 0.6875 0.425 11 0.05 0.22
Q4 1 0.7 0.5625 0.5 11 0.05 0.2
Q5 1 1.1 0.75 0.625 11 0.05 0.19
Q6 1 0.333333 0.84375 0.35 11 0.05 0.18
Q7 1 1 0.75 0.75 11 0.05 0.15
Q8 1 0.833333 0.53125 0.5 11 0.05 0.14
Q9 1 0.8 0.6875 0.55 11 0.05 0.14
Q10 1 1.2 0.84375 0.75 11 0.05 0.14
Q11 1 0.6 0.65625 0.2 11 0.05 0.13
Q12 1 1.066667 0.75 0.85 11 0.05 0.12
Q13 1 0.566667 0.4375 0.4 11 0.05 0.12
Q14 1 0.533333 0.65625 0.1 11 0.05 0.11
Q15 1 0.6 0.75 0.55 11 0.05 0.11
Q16 1 0.733333 0.5 0.325 11 0.05 0.11
Q17 1 0.4 0.5 0.4 11 0.05 0.11
Q18 1 0.833333 0.6875 0.45 11 0.05 0.11
Q19 1 0.333333 0.75 0.425 11 0.05 0.11
Q20 1 1.1 0.90625 0.725 11 0.05 0.1

  REM The information below was added by Olex2.
  REM
  REM R1 = 0.0350 for 979 Fo > 4sig(Fo) and 0.0429 for all 1158 data
  REM 106 parameters refined using 0 restraints
  REM Highest difference peak 0.2813, deepest hole -0.2654
  REM Mean Shift 0.0005, Max Shift 0.0023.

  REM +++ Tabular Listing of Refinement Information +++
  REM R1_all = 0.0429
  REM R1_gt = 0.0350
  REM wR_ref = 0.0975
  REM GOOF = 1.0816
  REM Shift_max = 0.0023
  REM Shift_mean = 0.0005
  REM Reflections_all = 1158
  REM Reflections_gt = 979
  REM Parameters = 106
  REM Hole = -0.2654
  REM Peak = 0.2813
  REM Flack = n/a

  
;
_cod_data_source_file            Comp4.cif
_cod_data_source_block           mo_Comp4
_cod_database_code               4133463
_olex2_refinement_description
;
1. Others
 Sof(O2A)=Sof(O1A)=1-FVAR(1)
 Sof(O1)=Sof(O2)=FVAR(1)
 Fixed Sof: N3(0.5) O4(0.5) O3(0.5)
;
_iucr_refine_fcf_details
;
data_mo_Comp4
_computing_structure_refinement   'olex2.refine (Bourhis et al., 2015)'
_shelx_refln_list_code            4
loop_
  _space_group_symop_id
  _space_group_symop_operation_xyz
  1  x,y,z
  2  x+1/2,-y+1/2,-z+1/2
  3  -x,y+1/2,-z
  4  -x+1/2,-y,z+1/2
  5  -x,-y,-z
  6  -x-1/2,y-1/2,z-1/2
  7  x,-y-1/2,z
  8  x-1/2,y,-z-1/2

_space_group_crystal_system       orthorhombic
_space_group_IT_number            62
_space_group_name_H-M_alt         'P n m a'
_space_group_name_Hall            '-P 2ac 2n'
_symmetry_space_group_name_H-M    'P n m a'
_symmetry_space_group_name_Hall   '-P 2ac 2n'
_symmetry_Int_Tables_number       62
_cell_length_a                    8.226(2)
_cell_length_b                    8.403(2)
_cell_length_c                    10.367(3)
_cell_angle_alpha                 90
_cell_angle_beta                  90
_cell_angle_gamma                 90
_cell_volume                      716.6(3)
loop_
  _refln_index_h
  _refln_index_k
  _refln_index_l
  _refln_F_squared_calc
  _refln_F_squared_meas
  _refln_F_squared_sigma
  _refln_F_squared_weight
  _refln_observed_status
0 0 2 2847.930 2754.470 43.615 0.010 o
0 0 4 2.483 3.959 0.529 186.282 o
0 0 6 1.100 0.488 0.696 262.271 o
0 0 8 355.682 349.956 6.437 0.487 o
0 0 10 178.772 180.044 3.575 1.541 o
0 0 12 33.823 37.717 2.030 12.446 o
0 0 14 8.959 7.222 1.449 43.710 o
0 1 1 2584.670 2585.480 41.400 0.012 o
0 1 3 22.420 22.230 0.461 28.857 o
0 1 5 596.211 616.291 5.722 0.202 o
0 1 7 0.457 0.309 0.416 680.470 o
0 1 9 178.538 190.207 2.550 1.585 o
0 1 11 12.170 15.855 0.867 43.664 o
0 1 13 3.584 3.033 0.856 118.487 o
0 2 0 1745.360 1533.320 34.124 0.025 o
0 2 2 2867.750 2955.940 31.576 0.010 o
0 2 4 282.285 269.068 2.600 0.809 o
0 2 6 146.914 135.216 1.550 2.394 o
0 2 8 900.545 877.882 9.708 0.096 o
0 2 10 7.533 4.233 0.690 89.756 o
0 2 12 0.402 1.453 1.206 111.151 o
0 2 14 1.442 2.466 0.982 131.540 o
0 3 1 30.401 48.940 0.721 15.774 o
0 3 3 33.769 26.863 0.538 19.274 o
0 3 5 934.043 965.736 9.586 0.087 o
0 3 7 76.591 70.902 1.150 6.162 o
0 3 9 11.117 9.470 0.719 57.755 o
0 3 11 104.456 100.344 1.973 3.736 o
0 3 13 260.139 262.261 5.295 0.812 o
0 4 0 419.306 503.083 7.331 0.327 o
0 4 2 863.445 862.201 7.932 0.104 o
0 4 4 1915.960 2048.250 21.078 0.021 o
0 4 6 25.014 23.465 0.700 25.015 o
0 4 8 0.130 0.810 0.589 422.123 o
0 4 10 43.183 44.814 1.693 10.911 o
0 4 12 18.645 22.182 1.200 26.955 o
0 5 1 272.975 262.180 2.674 0.850 o
0 5 3 35.265 37.458 0.826 15.849 o
0 5 5 188.799 198.361 2.857 1.446 o
0 5 7 1.163 1.868 0.735 210.204 o
0 5 9 55.211 61.229 1.690 8.099 o
0 5 11 4.073 2.844 0.879 111.023 o
0 5 13 47.354 60.020 2.090 8.472 o
0 6 0 847.138 864.156 12.278 0.101 o
0 6 2 920.761 1007.900 10.053 0.086 o
0 6 4 377.681 362.804 4.528 0.474 o
0 6 6 4.313 3.561 0.776 116.292 o
0 6 8 174.019 169.691 2.791 1.703 o
0 6 10 1.500 0.540 0.966 150.322 o
0 6 12 12.301 11.126 1.179 41.403 o
0 7 1 2.116 3.105 0.661 180.289 o
0 7 3 331.939 314.960 4.041 0.598 o
0 7 5 3.225 4.121 0.706 136.893 o
0 7 7 150.170 153.193 2.642 2.085 o
0 7 9 50.248 53.178 2.012 8.664 o
0 7 11 20.731 19.620 1.790 20.929 o
0 8 0 462.144 456.208 8.311 0.304 o
0 8 2 17.821 15.567 1.406 28.161 o
0 8 4 30.396 32.258 1.159 17.592 o
0 8 6 22.866 18.465 1.034 26.496 o
0 8 8 7.955 11.727 1.015 55.063 o
0 8 10 2.552 4.426 1.685 50.493 o
0 9 1 18.036 13.628 1.325 29.883 o
0 9 3 30.552 45.668 1.966 12.517 o
0 9 5 18.264 20.679 1.609 23.700 o
0 9 7 2.353 1.363 1.074 111.531 o
0 9 9 6.700 3.183 1.435 53.634 o
0 10 0 15.927 16.286 1.608 26.863 o
0 10 2 82.712 107.529 2.707 4.071 o
0 10 4 4.911 4.224 0.909 93.700 o
0 10 6 25.226 21.134 1.415 21.178 o
0 10 8 33.443 33.738 2.313 11.908 o
0 11 1 0.745 -1.063 0.813 233.431 o
0 11 3 2.017 0.685 1.348 82.981 o
0 11 5 4.889 4.439 1.227 68.896 o
1 0 1 836.552 808.518 7.600 0.112 o
1 0 2 4748.790 4305.350 46.618 0.004 o
1 0 3 1820.640 1650.320 14.436 0.027 o
1 0 4 3029.540 2809.170 25.409 0.010 o
1 0 5 2996.280 3095.990 28.013 0.009 o
1 0 6 9.343 9.384 0.375 74.345 o
1 0 7 147.421 153.714 1.927 2.202 o
1 0 8 548.075 547.048 6.201 0.238 o
1 0 9 22.276 27.269 0.871 24.712 o
1 0 10 47.225 42.956 1.664 10.444 o
1 0 11 90.846 92.761 1.775 4.461 o
1 0 12 20.728 22.753 1.012 26.673 o
1 0 13 0.550 0.506 0.818 228.621 o
1 0 14 57.968 57.814 2.152 7.404 o
1 1 1 694.197 714.749 4.857 0.156 o
1 1 2 3523.210 3286.400 34.820 0.007 o
1 1 3 2095.490 2122.770 13.761 0.019 o
1 1 4 32.685 36.409 0.460 17.760 o
1 1 5 58.547 62.714 0.640 8.558 o
1 1 6 146.658 153.188 1.223 2.280 o
1 1 7 0.511 1.082 0.276 767.083 o
1 1 8 53.418 51.386 0.809 9.973 o
1 1 9 50.626 45.822 0.821 10.922 o
1 1 10 142.211 132.813 1.521 2.500 o
1 1 11 11.042 12.296 0.590 56.463 o
1 1 12 5.908 5.365 0.575 106.849 o
1 1 13 5.125 6.449 0.656 103.250 o
1 1 14 10.889 10.752 0.811 54.045 o
1 2 1 795.641 767.295 5.048 0.126 o
1 2 2 623.907 660.874 4.623 0.186 o
1 2 3 1.378 1.056 0.197 548.550 o
1 2 4 53.883 56.377 0.607 9.663 o
1 2 5 156.482 147.529 1.088 2.182 o
1 2 6 441.257 429.714 2.889 0.370 o
1 2 7 143.131 156.212 1.328 2.304 o
1 2 8 6.653 7.014 0.438 99.571 o
1 2 9 36.842 44.600 0.810 14.265 o
1 2 10 1.153 0.589 0.464 415.413 o
1 2 11 72.180 76.175 1.211 6.264 o
1 2 12 3.293 1.570 0.562 191.243 o
1 2 13 8.793 10.332 0.731 64.280 o
1 2 14 0.594 1.097 0.782 230.210 o
1 3 1 4710.790 4804.540 45.429 0.004 o
1 3 2 1404.600 1479.020 10.053 0.040 o
1 3 3 1041.560 1074.080 7.828 0.072 o
1 3 4 160.824 140.693 1.189 2.162 o
1 3 5 777.859 796.711 5.516 0.126 o
1 3 6 69.489 68.150 0.873 6.986 o
1 3 7 0.197 -0.314 0.307 1454.720 o
1 3 8 48.983 42.937 0.913 11.403 o
1 3 9 119.496 115.198 1.346 3.211 o
1 3 10 12.604 13.334 0.591 50.441 o
1 3 11 25.706 24.667 1.023 22.419 o
1 3 12 48.583 48.257 1.542 10.029 o
1 3 13 1.887 3.181 0.732 168.788 o
1 3 14 6.335 5.774 1.104 67.317 o
1 4 1 220.616 252.129 1.932 1.113 o
1 4 2 227.857 257.859 1.939 1.062 o
1 4 3 574.307 602.866 4.393 0.218 o
1 4 4 0.450 1.646 0.258 695.655 o
1 4 5 0.599 2.321 0.350 462.770 o
1 4 6 29.671 35.922 0.581 18.971 o
1 4 7 76.824 83.039 0.975 5.794 o
1 4 8 5.899 6.922 0.468 105.865 o
1 4 9 227.159 224.109 2.410 1.138 o
1 4 10 87.733 95.440 1.460 4.658 o
1 4 11 25.374 26.776 0.856 22.857 o
1 4 12 67.494 72.919 1.490 6.581 o
1 4 13 8.203 7.768 0.944 63.560 o
1 5 1 63.018 62.126 0.683 8.038 o
1 5 2 199.372 220.950 1.710 1.342 o
1 5 3 28.268 23.431 0.443 23.660 o
1 5 4 229.553 222.231 1.843 1.147 o
1 5 5 16.811 18.421 0.469 38.113 o
1 5 6 311.513 287.476 2.533 0.699 o
1 5 7 64.124 68.563 1.048 7.375 o
1 5 8 11.642 12.052 0.732 51.999 o
1 5 9 4.874 9.042 0.657 93.814 o
1 5 10 0.041 1.260 0.610 381.341 o
1 5 11 0.002 -1.316 0.810 275.098 o
1 5 12 0.978 2.641 1.059 122.711 o
1 5 13 0.200 -0.534 0.842 244.639 o
1 6 1 80.298 81.337 0.953 5.631 o
1 6 2 15.345 21.401 0.550 37.423 o
1 6 3 40.340 36.688 0.665 14.649 o
1 6 4 52.641 52.675 0.829 9.976 o
1 6 5 19.322 19.869 0.600 32.694 o
1 6 6 118.815 116.466 1.343 3.213 o
1 6 7 90.685 86.651 1.256 4.796 o
1 6 8 13.288 12.986 0.634 48.448 o
1 6 9 0.004 -0.235 0.650 426.715 o
1 6 10 75.959 75.049 1.635 5.796 o
1 6 11 9.738 10.739 0.870 55.853 o
1 6 12 18.121 13.977 1.011 33.686 o
1 7 1 583.222 593.259 5.014 0.214 o
1 7 2 389.236 390.407 3.425 0.449 o
1 7 3 146.019 146.451 1.533 2.318 o
1 7 4 25.585 27.889 0.874 22.294 o
1 7 5 12.968 11.799 0.626 50.888 o
1 7 6 97.980 88.044 1.433 4.375 o
1 7 7 0.011 -0.036 0.556 580.357 o
1 7 8 80.471 83.271 1.462 5.356 o
1 7 9 7.880 7.433 0.775 73.255 o
1 7 10 10.612 10.813 0.936 51.374 o
1 7 11 18.979 18.847 0.975 30.397 o
1 8 1 8.437 6.537 0.499 84.674 o
1 8 2 123.396 114.931 1.433 3.101 o
1 8 3 18.356 17.832 0.798 33.429 o
1 8 4 13.242 12.236 0.647 49.249 o
1 8 5 23.665 24.860 0.830 24.811 o
1 8 6 0.065 -0.335 0.565 549.352 o
1 8 7 5.802 7.398 0.714 89.409 o
1 8 8 7.053 5.589 0.726 86.138 o
1 8 9 13.913 11.888 0.893 43.646 o
1 8 10 2.471 4.802 0.879 118.227 o
1 9 1 143.890 167.675 1.946 2.151 o
1 9 2 2.645 1.715 0.550 214.727 o
1 9 3 47.560 44.360 0.951 11.494 o
1 9 4 2.779 2.631 0.540 195.557 o
1 9 5 15.437 16.717 0.840 37.700 o
1 9 6 13.734 11.173 0.734 47.783 o
1 9 7 2.038 0.204 0.699 221.481 o
1 9 8 1.425 2.001 0.802 178.250 o
1 9 9 0.083 -0.314 0.906 216.685 o
1 10 1 4.657 3.294 0.613 132.788 o
1 10 2 0.088 0.339 0.585 473.830 o
1 10 3 12.524 13.067 0.746 48.190 o
1 10 4 0.194 0.363 0.604 428.404 o
1 10 5 1.381 1.230 0.654 246.774 o
1 10 6 4.806 3.668 0.732 114.697 o
1 10 7 8.792 11.907 0.897 56.123 o
1 10 8 0.136 -0.506 1.492 80.460 o
1 11 1 15.868 16.425 0.834 37.350 o
1 11 2 3.466 4.145 0.738 128.416 o
1 11 3 4.884 2.794 0.749 117.172 o
1 11 4 2.937 1.118 0.789 155.694 o
1 11 5 5.272 5.011 0.891 89.499 o
2 0 0 56.469 67.083 0.972 8.334 o
2 0 1 17.453 22.724 0.457 34.177 o
2 0 2 8256.430 7953.730 80.257 0.001 o
2 0 3 4488.940 4349.210 46.858 0.004 o
2 0 4 171.286 186.478 1.874 1.716 o
2 0 5 97.203 84.412 1.028 4.601 o
2 0 6 12.553 10.251 0.410 58.124 o
2 0 7 1221.170 1204.570 12.493 0.054 o
2 0 8 163.322 160.321 2.214 1.921 o
2 0 9 15.822 18.443 0.785 36.539 o
2 0 10 194.325 187.614 2.719 1.454 o
2 0 11 21.545 19.505 0.905 28.219 o
2 0 12 64.499 70.853 1.994 6.482 o
2 0 13 18.448 18.790 1.163 28.981 o
2 0 14 0.619 0.348 0.989 164.462 o
2 1 0 1199.470 1000.860 9.079 0.062 o
2 1 1 420.746 418.928 2.891 0.397 o
2 1 2 321.754 253.964 1.803 0.725 o
2 1 3 660.501 614.768 4.071 0.182 o
2 1 4 8.239 7.393 0.251 90.903 o
2 1 5 9.188 8.870 0.255 79.170 o
2 1 6 1044.290 1069.530 7.213 0.072 o
2 1 7 56.268 56.000 0.760 9.236 o
2 1 8 296.045 281.579 2.426 0.751 o
2 1 9 16.839 15.370 0.528 40.094 o
2 1 10 2.972 1.393 0.487 225.417 o
2 1 11 132.230 127.697 1.595 2.732 o
2 1 12 22.294 25.815 0.819 25.548 o
2 1 13 3.858 4.299 0.678 129.382 o
2 1 14 4.996 4.177 0.818 101.477 o
2 2 0 2584.350 2600.870 32.326 0.012 o
2 2 1 3734.570 3742.320 32.154 0.006 o
2 2 2 5.765 7.137 0.218 117.981 o
2 2 3 968.934 967.447 6.909 0.085 o
2 2 4 341.569 339.838 2.436 0.574 o
2 2 5 19.966 21.880 0.390 31.952 o
2 2 6 66.754 67.790 0.670 7.350 o
2 2 7 47.129 46.725 0.644 11.705 o
2 2 8 151.909 146.177 1.419 2.238 o
2 2 9 0.737 1.306 0.436 449.994 o
2 2 10 56.522 57.751 1.005 8.885 o
2 2 11 0.337 1.077 0.526 441.554 o
2 2 12 12.893 13.186 0.759 46.953 o
2 2 13 50.071 44.510 1.168 10.695 o
2 2 14 0.001 -0.537 0.770 304.464 o
2 3 0 1367.180 1457.830 14.304 0.041 o
2 3 1 121.246 114.857 0.937 3.223 o
2 3 2 464.633 511.768 3.508 0.311 o
2 3 3 26.425 31.532 0.478 22.136 o
2 3 4 144.737 131.064 1.059 2.511 o
2 3 5 1.576 1.241 0.243 457.968 o
2 3 6 9.181 11.457 0.366 70.097 o
2 3 7 2.071 1.274 0.352 335.405 o
2 3 8 22.389 24.588 0.582 27.249 o
2 3 9 116.985 116.276 1.399 3.256 o
2 3 10 165.686 160.818 1.771 1.926 o
2 3 11 29.825 28.371 0.856 19.901 o
2 3 12 3.792 6.034 0.757 110.193 o
2 3 13 1.583 1.362 0.753 198.087 o
2 3 14 13.227 13.347 1.509 32.111 o
2 4 0 1739.000 1828.860 17.962 0.026 o
2 4 1 5.306 1.998 0.229 174.094 o
2 4 2 867.769 856.570 5.797 0.105 o
2 4 3 44.644 45.961 0.552 12.423 o
2 4 4 49.221 46.898 0.597 11.305 o
2 4 5 457.257 446.722 3.345 0.345 o
2 4 6 25.407 20.900 0.484 26.665 o
2 4 7 628.358 629.908 4.901 0.189 o
2 4 8 42.590 44.290 0.987 12.512 o
2 4 9 26.597 28.170 0.773 22.054 o
2 4 10 5.809 5.758 0.653 100.198 o
2 4 11 79.484 87.404 1.682 5.188 o
2 4 12 4.461 6.511 0.803 97.107 o
2 4 13 70.027 68.768 1.933 6.204 o
2 5 0 5.083 11.370 0.439 94.201 o
2 5 1 17.441 17.863 0.352 38.327 o
2 5 2 15.590 13.241 0.343 46.310 o
2 5 3 9.642 12.497 0.387 65.281 o
2 5 4 13.567 7.808 0.359 59.592 o
2 5 5 14.952 16.646 0.472 42.921 o
2 5 6 0.273 1.342 0.380 629.058 o
2 5 7 0.300 0.181 0.418 772.303 o
2 5 8 43.100 39.671 0.972 12.966 o
2 5 9 0.006 -0.368 0.603 495.417 o
2 5 10 3.913 2.590 0.753 131.249 o
2 5 11 10.500 14.548 0.920 47.496 o
2 5 12 10.369 11.484 1.007 49.201 o
2 5 13 16.727 14.121 1.560 27.708 o
2 6 0 401.877 413.520 4.999 0.406 o
2 6 1 105.589 95.363 1.063 4.013 o
2 6 2 154.051 169.685 1.586 2.029 o
2 6 3 0.002 0.436 0.364 1093.050 o
2 6 4 126.947 137.053 1.396 2.770 o
2 6 5 39.272 36.202 0.707 14.981 o
2 6 6 0.243 0.118 0.437 764.342 o
2 6 7 0.003 -0.659 0.475 799.234 o
2 6 8 12.075 14.362 0.710 48.391 o
2 6 9 3.862 2.472 0.647 149.363 o
2 6 10 0.066 1.582 0.729 273.145 o
2 6 11 26.768 20.883 1.016 22.972 o
2 6 12 3.490 3.201 0.954 106.256 o
2 7 0 476.621 482.602 6.239 0.299 o
2 7 1 16.319 15.834 0.575 40.124 o
2 7 2 16.002 16.213 0.577 40.325 o
2 7 3 3.201 3.149 0.431 195.185 o
2 7 4 129.827 139.851 1.798 2.632 o
2 7 5 16.217 18.589 0.629 37.514 o
2 7 6 284.468 273.813 2.628 0.794 o
2 7 7 0.044 -0.859 0.547 590.418 o
2 7 8 125.334 126.322 1.900 2.847 o
2 7 9 19.287 18.099 0.862 31.567 o
2 7 10 2.126 1.981 0.773 168.056 o
2 7 11 6.911 8.554 0.921 68.291 o
2 8 0 0.574 1.854 0.621 294.361 o
2 8 1 7.026 5.461 0.510 99.549 o
2 8 2 7.155 7.733 0.534 87.998 o
2 8 3 57.047 48.293 0.958 9.515 o
2 8 4 0.505 0.537 0.516 470.996 o
2 8 5 22.793 25.191 0.906 24.880 o
2 8 6 3.014 2.588 0.571 182.234 o
2 8 7 50.873 51.364 1.186 9.965 o
2 8 8 0.275 -0.205 0.635 406.667 o
2 8 9 7.130 6.196 0.805 79.190 o
2 8 10 0.703 0.696 0.859 201.220 o
2 9 0 56.077 46.959 2.743 7.194 o
2 9 1 0.376 1.536 0.530 397.294 o
2 9 2 6.266 4.827 0.591 104.794 o
2 9 3 0.353 0.063 0.637 389.807 o
2 9 4 24.891 24.708 0.794 24.186 o
2 9 5 0.050 -0.317 0.558 566.205 o
2 9 6 17.448 16.123 0.769 36.052 o
2 9 7 0.098 0.610 0.647 377.017 o
2 9 8 2.260 2.423 0.752 164.414 o
2 9 9 0.216 0.703 1.093 141.077 o
2 10 0 136.584 160.774 3.320 2.116 o
2 10 1 18.556 24.779 1.032 27.478 o
2 10 2 27.402 28.045 0.874 21.192 o
2 10 3 7.368 7.292 0.672 81.435 o
2 10 4 26.558 28.379 0.931 21.314 o
2 10 5 6.111 3.386 0.664 108.110 o
2 10 6 1.527 0.522 0.668 251.658 o
2 10 7 14.746 14.538 0.889 39.830 o
2 11 0 17.156 13.386 1.289 31.371 o
2 11 1 1.956 2.648 0.780 162.554 o
2 11 2 0.118 -0.251 0.703 352.705 o
2 11 3 0.605 -0.304 0.676 329.576 o
2 11 4 0.269 -0.410 0.670 369.386 o
2 11 5 0.840 0.946 0.957 162.094 o
3 0 1 580.340 536.244 4.953 0.229 o
3 0 2 2210.720 2306.930 22.557 0.016 o
3 0 3 2409.090 2474.390 23.248 0.014 o
3 0 4 737.990 780.170 7.191 0.134 o
3 0 5 1427.860 1420.980 12.974 0.040 o
3 0 6 0.403 0.435 0.322 915.366 o
3 0 7 354.007 377.841 3.988 0.504 o
3 0 8 69.151 62.882 1.267 7.025 o
3 0 9 2.035 2.370 0.682 188.183 o
3 0 10 76.063 79.171 1.727 5.603 o
3 0 11 26.632 22.906 1.101 21.937 o
3 0 12 49.385 45.540 1.699 9.836 o
3 0 13 37.354 38.421 1.584 13.031 o
3 0 14 2.082 2.062 1.348 78.740 o
3 1 1 1482.840 1421.010 9.120 0.039 o
3 1 2 1490.530 1479.370 9.865 0.037 o
3 1 3 0.122 0.533 0.222 1672.820 o
3 1 4 233.125 231.643 1.717 1.106 o
3 1 5 523.625 515.078 3.421 0.270 o
3 1 6 136.358 139.325 1.109 2.587 o
3 1 7 35.562 37.470 0.649 16.113 o
3 1 8 0.174 0.516 0.380 861.722 o
3 1 9 61.125 56.532 0.954 8.422 o
3 1 10 0.500 0.938 0.515 438.814 o
3 1 11 2.890 2.993 0.602 173.577 o
3 1 12 70.899 69.517 1.392 6.513 o
3 1 13 10.154 12.964 0.859 51.767 o
3 1 14 0.662 1.828 1.000 145.673 o
3 2 1 75.435 67.559 0.662 6.581 o
3 2 2 126.337 124.468 1.024 2.965 o
3 2 3 55.376 51.956 0.603 9.776 o
3 2 4 47.804 51.368 0.584 11.156 o
3 2 5 162.192 167.690 1.351 1.954 o
3 2 6 382.567 363.346 2.701 0.483 o
3 2 7 100.896 93.928 1.017 4.234 o
3 2 8 11.891 11.235 0.461 57.860 o
3 2 9 12.243 14.001 0.587 50.585 o
3 2 10 36.647 37.120 1.086 14.814 o
3 2 11 0.182 0.505 0.595 430.441 o
3 2 12 10.184 11.440 0.760 56.504 o
3 2 13 30.784 33.231 1.142 17.314 o
3 2 14 7.631 6.913 1.524 44.051 o
3 3 1 393.183 434.694 4.093 0.412 o
3 3 2 9.389 5.174 0.275 90.008 o
3 3 3 442.062 469.372 3.390 0.348 o
3 3 4 24.866 27.351 0.482 24.564 o
3 3 5 114.896 106.054 1.004 3.524 o
3 3 6 290.404 281.099 2.227 0.771 o
3 3 7 44.864 43.712 0.781 12.371 o
3 3 8 3.290 4.251 0.486 167.519 o
3 3 9 91.839 98.501 1.459 4.406 o
3 3 10 16.952 17.632 0.731 36.093 o
3 3 11 24.203 25.725 0.855 23.987 o
3 3 12 1.538 2.453 0.759 180.892 o
3 3 13 11.447 11.974 0.890 48.989 o
3 4 1 25.135 21.634 0.385 26.926 o
3 4 2 939.598 1002.420 6.904 0.086 o
3 4 3 64.243 58.729 0.672 8.097 o
3 4 4 123.915 132.858 1.210 2.904 o
3 4 5 39.775 39.636 0.626 14.435 o
3 4 6 20.280 22.234 0.557 30.549 o
3 4 7 701.648 695.145 5.822 0.155 o
3 4 8 132.631 133.236 1.649 2.661 o
3 4 9 168.619 171.814 2.253 1.793 o
3 4 10 4.824 4.106 0.776 107.500 o
3 4 11 3.418 3.120 0.782 130.552 o
3 4 12 0.390 0.135 0.809 249.916 o
3 4 13 0.001 1.206 1.015 161.211 o
3 5 1 158.174 145.549 1.211 2.164 o
3 5 2 77.704 76.966 0.845 5.988 o
3 5 3 1.532 1.065 0.295 449.650 o
3 5 4 65.476 64.419 0.810 7.584 o
3 5 5 13.420 12.116 0.476 51.659 o
3 5 6 42.088 44.514 0.806 12.896 o
3 5 7 55.837 54.098 0.999 9.232 o
3 5 8 39.899 39.081 0.988 13.834 o
3 5 9 6.320 7.330 0.712 86.050 o
3 5 10 0.530 1.502 0.771 229.034 o
3 5 11 0.092 -0.060 0.805 272.989 o
3 5 12 11.695 10.451 0.991 47.723 o
3 6 1 150.369 152.728 1.569 2.200 o
3 6 2 0.689 1.849 0.372 470.494 o
3 6 3 20.042 23.945 0.575 29.806 o
3 6 4 12.424 10.093 0.517 56.987 o
3 6 5 283.456 281.189 2.620 0.786 o
3 6 6 151.435 143.257 1.562 2.256 o
3 6 7 22.988 20.300 0.703 27.970 o
3 6 8 1.003 0.652 0.615 311.246 o
3 6 9 53.928 49.039 1.236 9.612 o
3 6 10 3.679 2.317 0.842 123.887 o
3 6 11 0.183 -1.099 0.836 248.593 o
3 6 12 1.695 3.397 1.615 57.709 o
3 7 1 58.503 64.280 1.058 8.193 o
3 7 2 102.470 99.023 1.284 4.015 o
3 7 3 46.544 52.631 0.943 10.905 o
3 7 4 390.605 365.879 3.208 0.466 o
3 7 5 192.566 196.878 2.031 1.470 o
3 7 6 0.435 0.763 0.513 467.552 o
3 7 7 0.473 0.081 0.568 451.700 o
3 7 8 5.769 7.611 0.724 88.240 o
3 7 9 24.513 25.606 1.011 22.933 o
3 7 10 9.302 7.312 0.951 60.109 o
3 7 11 14.106 12.491 1.328 34.772 o
3 8 1 15.264 12.623 0.598 44.937 o
3 8 2 88.917 91.349 1.346 4.739 o
3 8 3 1.020 0.337 0.506 414.214 o
3 8 4 2.640 2.678 0.551 197.029 o
3 8 5 50.990 44.852 1.357 10.222 o
3 8 6 0.197 -0.104 0.552 539.765 o
3 8 7 0.715 -0.341 0.662 330.694 o
3 8 8 0.535 0.138 0.684 323.426 o
3 8 9 2.264 0.996 0.794 171.488 o
3 8 10 5.063 4.004 1.746 43.462 o
3 9 1 0.355 0.208 0.591 431.758 o
3 9 2 2.537 1.552 0.564 218.417 o
3 9 3 17.036 20.588 0.835 32.990 o
3 9 4 0.685 2.807 0.625 254.887 o
3 9 5 1.578 1.731 0.594 248.711 o
3 9 6 0.170 0.652 0.642 371.053 o
3 9 7 28.694 32.284 1.171 18.235 o
3 9 8 0.248 -1.065 0.866 229.584 o
3 9 9 0.321 0.292 1.781 55.706 o
3 10 1 0.016 0.273 0.666 387.453 o
3 10 2 8.833 6.805 0.695 73.451 o
3 10 3 9.081 4.711 0.684 78.320 o
3 10 4 6.479 8.010 0.724 82.070 o
3 10 5 22.171 28.719 1.033 23.300 o
3 10 6 11.111 7.596 0.798 58.643 o
3 10 7 9.432 9.271 1.241 47.103 o
3 11 1 1.947 1.624 0.796 171.170 o
3 11 2 0.006 1.224 0.783 255.606 o
3 11 3 2.235 2.393 0.751 165.520 o
3 11 4 5.170 9.000 1.160 62.602 o
4 0 0 1987.900 2098.860 26.917 0.019 o
4 0 1 181.366 173.328 1.708 1.690 o
4 0 2 546.118 566.531 5.486 0.237 o
4 0 3 179.120 189.148 2.094 1.614 o
4 0 4 2314.790 2284.010 22.814 0.016 o
4 0 5 716.299 668.859 6.780 0.153 o
4 0 6 368.922 388.835 4.098 0.472 o
4 0 7 247.979 242.529 2.875 0.979 o
4 0 8 12.589 10.684 0.724 51.467 o
4 0 9 57.820 63.259 1.501 7.919 o
4 0 10 33.111 37.940 1.530 14.352 o
4 0 11 5.829 4.926 1.007 77.725 o
4 0 12 11.105 8.224 1.176 46.556 o
4 0 13 33.760 26.936 2.448 11.977 o
4 1 0 293.977 335.157 3.198 0.673 o
4 1 1 202.376 198.798 1.414 1.411 o
4 1 2 12.344 17.184 0.323 49.538 o
4 1 3 314.056 340.686 2.408 0.631 o
4 1 4 67.693 70.546 0.712 7.111 o
4 1 5 102.530 96.177 0.870 4.150 o
4 1 6 217.648 217.039 1.735 1.235 o
4 1 7 87.862 81.741 0.986 5.156 o
4 1 8 56.132 58.251 0.977 8.928 o
4 1 9 152.313 142.259 1.775 2.230 o
4 1 10 11.980 10.493 0.678 54.451 o
4 1 11 35.487 39.355 1.033 14.965 o
4 1 12 1.166 3.435 0.744 181.455 o
4 1 13 88.420 86.450 1.891 4.662 o
4 2 0 53.878 52.000 0.778 9.878 o
4 2 1 48.092 44.311 0.527 11.862 o
4 2 2 176.220 187.661 1.415 1.685 o
4 2 3 29.337 28.040 0.454 21.499 o
4 2 4 102.154 90.186 0.842 4.293 o
4 2 5 0.693 1.417 0.284 615.275 o
4 2 6 0.795 1.005 0.326 596.175 o
4 2 7 1.975 1.819 0.439 284.637 o
4 2 8 55.858 55.355 1.097 9.048 o
4 2 9 36.466 39.017 0.930 14.964 o
4 2 10 69.054 66.863 1.469 6.717 o
4 2 11 24.027 24.912 0.951 23.832 o
4 2 12 14.201 16.539 0.862 39.475 o
4 2 13 1.508 3.592 0.803 156.725 o
4 3 0 63.459 67.122 0.963 7.566 o
4 3 1 24.163 24.484 0.587 25.797 o
4 3 2 33.079 33.110 0.505 18.223 o
4 3 3 29.464 31.585 0.655 19.939 o
4 3 4 406.957 418.401 3.226 0.411 o
4 3 5 177.574 170.583 1.582 1.749 o
4 3 6 445.788 451.893 3.693 0.351 o
4 3 7 465.929 447.857 3.789 0.335 o
4 3 8 286.222 277.872 2.788 0.779 o
4 3 9 0.486 1.468 0.671 284.148 o
4 3 10 43.518 44.093 1.130 12.075 o
4 3 11 3.026 3.510 0.746 139.204 o
4 3 12 0.441 0.913 0.812 227.143 o
4 3 13 30.327 31.869 1.550 16.032 o
4 4 0 1688.360 1678.590 17.295 0.029 o
4 4 1 13.696 16.674 0.364 46.534 o
4 4 2 69.574 82.989 0.877 6.356 o
4 4 3 397.732 409.674 3.416 0.426 o
4 4 4 106.009 121.288 1.213 3.531 o
4 4 5 73.207 76.986 0.966 6.272 o
4 4 6 61.716 58.750 0.916 8.246 o
4 4 7 22.823 24.011 0.627 26.904 o
4 4 8 35.889 36.380 0.879 15.697 o
4 4 9 4.627 6.612 0.690 104.577 o
4 4 10 17.053 18.562 0.903 33.475 o
4 4 11 24.008 25.286 1.057 23.075 o
4 4 12 27.170 25.376 1.136 20.762 o
4 4 13 0.227 0.306 2.220 36.235 o
4 5 0 102.912 109.577 1.516 3.758 o
4 5 1 35.065 36.147 0.676 16.480 o
4 5 2 44.825 42.377 0.733 12.597 o
4 5 3 70.215 69.379 0.905 6.852 o
4 5 4 2.087 1.808 0.361 306.871 o
4 5 5 11.326 10.194 0.508 60.791 o
4 5 6 0.693 1.295 0.465 430.282 o
4 5 7 22.062 22.280 0.701 27.925 o
4 5 8 3.492 5.116 0.648 132.507 o
4 5 9 18.549 20.358 0.896 30.814 o
4 5 10 0.077 1.398 0.806 235.389 o
4 5 11 3.733 5.989 0.918 95.220 o
4 5 12 0.396 -0.234 0.928 195.996 o
4 6 0 2.369 1.122 0.561 236.580 o
4 6 1 91.465 90.592 1.073 4.715 o
4 6 2 5.597 7.877 0.454 104.852 o
4 6 3 62.030 60.304 0.947 8.098 o
4 6 4 38.258 34.583 0.770 15.449 o
4 6 5 53.450 53.771 1.089 9.507 o
4 6 6 69.808 71.498 1.347 6.550 o
4 6 7 52.416 54.623 1.132 9.548 o
4 6 8 97.854 97.470 1.732 4.096 o
4 6 9 10.556 11.213 0.891 52.204 o
4 6 10 0.451 0.023 0.815 245.881 o
4 6 11 0.016 -0.018 0.883 231.002 o
4 7 0 24.263 27.890 1.237 21.059 o
4 7 1 6.741 5.696 0.568 97.712 o
4 7 2 20.844 18.997 0.638 31.183 o
4 7 3 77.514 71.872 1.113 6.078 o
4 7 4 49.608 45.337 0.913 11.050 o
4 7 5 11.241 10.063 0.633 58.515 o
4 7 6 55.413 53.137 1.114 9.244 o
4 7 7 59.880 61.247 1.261 8.037 o
4 7 8 45.980 46.605 1.294 11.041 o
4 7 9 1.046 1.109 0.794 206.864 o
4 7 10 28.394 29.344 1.251 18.631 o
4 8 0 103.845 105.360 2.346 3.558 o
4 8 1 19.072 18.224 0.784 32.471 o
4 8 2 1.953 1.784 0.538 248.966 o
4 8 3 4.512 3.413 0.568 139.606 o
4 8 4 26.251 27.936 0.796 22.232 o
4 8 5 14.636 15.617 0.784 40.670 o
4 8 6 20.283 18.398 0.839 30.540 o
4 8 7 19.901 20.599 0.935 28.990 o
4 8 8 0.159 0.532 0.876 217.312 o
4 8 9 10.774 11.835 1.102 45.437 o
4 9 0 3.982 2.320 0.950 106.189 o
4 9 1 24.455 28.340 0.902 22.715 o
4 9 2 16.704 14.801 0.717 38.769 o
4 9 3 9.047 8.817 0.702 67.411 o
4 9 4 10.680 11.706 0.772 54.267 o
4 9 5 13.158 16.888 0.886 40.577 o
4 9 6 15.886 14.457 0.985 36.679 o
4 9 7 6.309 6.305 0.834 82.092 o
4 9 8 20.696 15.171 1.528 24.736 o
4 10 0 13.867 17.303 1.300 32.659 o
4 10 1 0.041 -0.328 0.676 389.877 o
4 10 2 22.430 22.579 0.955 25.814 o
4 10 3 19.962 18.698 0.857 30.562 o
4 10 4 3.926 2.740 0.710 136.148 o
4 10 5 14.352 9.700 0.860 45.624 o
4 10 6 4.625 -0.620 1.148 88.824 o
4 11 0 18.326 19.104 1.717 23.054 o
4 11 1 3.134 3.838 1.113 89.271 o
4 11 2 1.419 -1.090 1.205 108.391 o
4 11 3 1.551 -1.460 1.457 76.594 o
5 0 1 496.594 502.852 4.568 0.287 o
5 0 2 434.440 454.542 4.483 0.356 o
5 0 3 19.676 24.655 0.575 29.812 o
5 0 4 744.381 783.871 7.901 0.131 o
5 0 5 0.015 0.684 0.437 738.111 o
5 0 6 88.298 95.837 1.507 4.606 o
5 0 7 462.735 443.699 5.187 0.332 o
5 0 8 27.568 32.306 1.071 19.165 o
5 0 9 722.425 705.917 9.693 0.141 o
5 0 10 1.936 1.934 0.939 136.218 o
5 0 11 18.412 18.754 1.300 27.538 o
5 0 12 11.688 11.253 1.279 40.053 o
5 0 13 0.657 -0.121 1.293 101.995 o
5 1 1 0.578 0.649 0.203 1016.060 o
5 1 2 36.759 42.734 0.534 15.013 o
5 1 3 7.379 7.216 0.306 97.325 o
5 1 4 37.032 36.005 0.571 15.989 o
5 1 5 0.044 0.685 0.333 1068.800 o
5 1 6 11.226 10.726 0.431 61.687 o
5 1 7 124.765 132.414 1.437 2.862 o
5 1 8 72.017 73.068 1.196 6.403 o
5 1 9 8.098 9.358 0.656 72.254 o
5 1 10 4.990 4.307 0.645 117.536 o
5 1 11 20.402 24.966 0.989 26.221 o
5 1 12 1.073 1.651 0.938 154.582 o
5 1 13 8.253 12.694 1.492 39.154 o
5 2 1 633.125 616.625 4.236 0.191 o
5 2 2 193.661 203.095 1.535 1.457 o
5 2 3 32.413 32.105 0.518 18.721 o
5 2 4 0.807 1.890 0.336 476.227 o
5 2 5 20.136 16.921 0.472 34.375 o
5 2 6 46.346 45.572 0.829 11.781 o
5 2 7 0.958 1.461 0.497 358.630 o
5 2 8 22.918 24.798 0.695 26.152 o
5 2 9 0.237 1.753 0.561 373.310 o
5 2 10 9.606 11.368 0.744 58.967 o
5 2 11 0.034 1.131 0.668 336.543 o
5 2 12 4.320 6.027 0.793 101.377 o
5 2 13 41.666 41.920 2.367 9.760 o
5 3 1 33.672 34.916 0.493 17.606 o
5 3 2 652.307 667.806 4.895 0.175 o
5 3 3 23.258 21.575 0.456 28.389 o
5 3 4 825.539 829.042 6.508 0.114 o
5 3 5 6.511 8.246 0.462 94.278 o
5 3 6 120.117 114.610 1.331 3.205 o
5 3 7 0.013 -0.876 0.448 893.708 o
5 3 8 16.665 16.495 0.671 38.003 o
5 3 9 59.616 58.622 1.406 8.074 o
5 3 10 9.409 10.956 1.011 52.179 o
5 3 11 34.225 34.817 1.117 15.865 o
5 3 12 3.645 2.545 0.854 121.097 o
5 4 1 0.001 1.146 0.291 1051.890 o
5 4 2 4.330 3.119 0.346 174.093 o
5 4 3 40.614 36.649 0.723 14.479 o
5 4 4 39.482 40.418 0.738 14.233 o
5 4 5 1170.420 1142.200 9.387 0.060 o
5 4 6 65.671 64.655 1.063 7.405 o
5 4 7 0.018 0.520 0.479 665.445 o
5 4 8 23.733 24.566 0.776 25.170 o
5 4 9 3.761 3.599 0.673 137.040 o
5 4 10 1.233 1.541 0.731 215.243 o
5 4 11 0.316 -0.117 0.752 294.384 o
5 4 12 10.013 10.255 1.137 47.835 o
5 5 1 2.696 3.347 0.406 215.026 o
5 5 2 0.342 1.087 0.397 619.385 o
5 5 3 3.167 2.505 0.398 214.784 o
5 5 4 75.298 74.555 1.053 6.168 o
5 5 5 46.900 48.706 0.986 11.150 o
5 5 6 1.440 1.593 0.493 309.016 o
5 5 7 2.094 2.018 0.543 234.288 o
5 5 8 3.589 4.117 0.657 137.760 o
5 5 9 0.135 1.400 0.709 286.919 o
5 5 10 5.125 4.920 0.846 94.610 o
5 5 11 4.837 5.835 1.154 70.750 o
5 6 1 26.335 32.086 0.751 21.158 o
5 6 2 13.281 11.821 0.544 51.418 o
5 6 3 289.929 285.946 2.935 0.754 o
5 6 4 35.723 31.012 1.008 16.337 o
5 6 5 3.939 4.154 0.542 146.626 o
5 6 6 65.469 64.033 1.212 7.353 o
5 6 7 178.427 180.999 2.259 1.648 o
5 6 8 3.546 3.794 0.696 135.702 o
5 6 9 27.579 25.014 1.080 20.937 o
5 6 10 6.728 4.372 0.927 79.456 o
5 6 11 24.756 21.316 1.843 18.351 o
5 7 1 54.240 46.424 1.318 9.652 o
5 7 2 7.563 9.251 0.597 77.716 o
5 7 3 10.300 13.030 0.652 56.305 o
5 7 4 6.754 5.392 0.591 97.503 o
5 7 5 10.568 10.336 0.686 59.020 o
5 7 6 26.427 28.434 0.944 21.309 o
5 7 7 19.979 19.665 0.854 30.073 o
5 7 8 32.197 32.710 1.323 16.199 o
5 7 9 0.101 0.422 0.810 257.157 o
5 7 10 0.271 -2.786 1.043 160.014 o
5 8 1 8.330 9.260 0.706 69.485 o
5 8 2 36.498 33.475 1.085 15.431 o
5 8 3 0.709 0.942 0.584 347.022 o
5 8 4 4.691 3.503 0.642 127.211 o
5 8 5 26.262 23.849 1.188 21.363 o
5 8 6 0.000 -0.215 0.767 307.159 o
5 8 7 63.128 67.477 1.689 7.015 o
5 8 8 0.123 0.012 0.859 238.332 o
5 8 9 35.628 40.273 3.288 8.225 o
5 9 1 3.254 4.392 0.671 139.243 o
5 9 2 9.649 11.549 0.790 57.189 o
5 9 3 8.557 6.310 0.709 75.613 o
5 9 4 3.912 2.417 0.709 139.240 o
5 9 5 2.755 2.760 0.735 153.225 o
5 9 6 37.157 36.560 1.835 12.509 o
5 9 7 0.021 -0.513 1.180 129.454 o
5 10 1 10.048 9.416 0.836 58.006 o
5 10 2 1.334 3.046 0.794 169.095 o
5 10 3 5.879 6.661 0.782 87.109 o
5 10 4 2.202 1.365 0.790 169.577 o
5 10 5 36.122 28.870 1.896 13.406 o
6 0 0 629.067 648.168 9.291 0.175 o
6 0 1 36.497 31.737 0.883 16.280 o
6 0 2 0.121 -0.276 0.397 1029.070 o
6 0 3 0.534 0.188 0.520 494.614 o
6 0 4 56.910 61.128 1.253 8.393 o
6 0 5 236.880 221.413 2.854 1.079 o
6 0 6 50.794 46.621 1.185 10.365 o
6 0 7 488.297 479.858 6.294 0.292 o
6 0 8 56.411 58.110 1.621 8.223 o
6 0 9 46.985 50.193 1.741 9.770 o
6 0 10 10.160 10.377 1.149 47.015 o
6 0 11 63.494 55.441 2.466 6.644 o
6 0 12 3.328 3.257 1.171 84.395 o
6 1 0 225.745 226.114 2.501 1.137 o
6 1 1 770.860 777.493 5.795 0.129 o
6 1 2 131.996 134.202 1.255 2.710 o
6 1 3 7.764 8.724 0.383 85.877 o
6 1 4 83.112 85.721 0.988 5.313 o
6 1 5 27.802 26.963 0.615 22.285 o
6 1 6 0.392 0.081 0.424 738.017 o
6 1 7 242.990 230.129 2.402 1.043 o
6 1 8 2.287 4.512 0.557 178.315 o
6 1 9 52.379 55.900 1.337 9.216 o
6 1 10 39.047 39.305 1.120 13.740 o
6 1 11 0.253 0.105 0.757 292.101 o
6 1 12 4.338 6.781 0.875 91.080 o
6 2 0 10.422 11.719 0.511 61.262 o
6 2 1 83.047 82.979 0.886 5.429 o
6 2 2 136.800 147.796 1.393 2.475 o
6 2 3 119.044 119.993 1.200 3.181 o
6 2 4 52.504 47.671 0.774 10.467 o
6 2 5 29.108 31.416 0.676 20.101 o
6 2 6 41.710 36.206 0.759 14.164 o
6 2 7 13.828 15.927 0.655 43.708 o
6 2 8 13.836 14.837 0.679 44.459 o
6 2 9 17.819 18.860 0.826 33.178 o
6 2 10 2.233 2.305 0.686 182.222 o
6 2 11 2.082 1.690 0.895 144.487 o
6 2 12 0.722 1.488 0.925 167.515 o
6 3 0 126.623 124.810 1.630 2.878 o
6 3 1 31.898 32.717 0.590 18.662 o
6 3 2 21.610 21.935 0.499 29.631 o
6 3 3 237.310 242.860 2.166 1.046 o
6 3 4 217.664 216.795 2.115 1.223 o
6 3 5 178.149 186.560 1.860 1.649 o
6 3 6 367.012 365.677 3.311 0.500 o
6 3 7 25.203 26.647 0.736 23.585 o
6 3 8 202.732 196.827 2.304 1.380 o
6 3 9 5.729 6.230 0.922 80.201 o
6 3 10 3.813 5.756 0.772 109.899 o
6 3 11 7.183 7.932 0.941 67.512 o
6 3 12 0.896 1.738 1.605 63.480 o
6 4 0 542.915 529.943 5.764 0.247 o
6 4 1 162.995 161.163 1.586 1.969 o
6 4 2 91.203 99.002 1.193 4.500 o
6 4 3 187.117 191.532 1.936 1.541 o
6 4 4 0.347 -0.157 0.423 781.446 o
6 4 5 3.409 2.561 0.467 191.384 o
6 4 6 126.915 125.315 1.480 2.888 o
6 4 7 28.465 24.745 0.724 22.156 o
6 4 8 44.877 45.910 1.058 11.722 o
6 4 9 3.065 2.303 0.705 157.316 o
6 4 10 4.032 5.438 0.873 99.247 o
6 4 11 31.770 37.883 1.549 14.668 o
6 5 0 91.432 89.198 1.681 4.551 o
6 5 1 9.402 8.488 0.477 73.788 o
6 5 2 0.000 0.517 0.422 830.796 o
6 5 3 0.613 0.811 0.461 492.165 o
6 5 4 8.139 7.835 0.537 80.874 o
6 5 5 0.382 0.081 0.484 605.587 o
6 5 6 3.635 2.860 0.537 168.166 o
6 5 7 28.635 28.623 0.835 20.527 o
6 5 8 34.968 39.041 1.073 15.068 o
6 5 9 0.734 0.689 0.752 247.925 o
6 5 10 0.018 -0.599 0.852 248.014 o
6 5 11 0.102 -0.403 1.496 80.161 o
6 6 0 3.203 3.403 0.695 145.264 o
6 6 1 12.907 15.136 0.594 47.424 o
6 6 2 71.137 68.456 1.209 6.650 o
6 6 3 85.613 90.552 1.349 4.922 o
6 6 4 1.550 0.684 0.536 313.853 o
6 6 5 35.179 35.740 0.943 15.885 o
6 6 6 0.477 1.386 0.614 325.890 o
6 6 7 4.494 3.698 0.640 128.909 o
6 6 8 7.875 9.037 0.779 69.212 o
6 6 9 31.840 33.777 1.357 16.008 o
6 6 10 6.524 6.026 1.142 64.025 o
6 7 0 299.266 289.724 5.338 0.669 o
6 7 1 16.273 16.941 0.771 37.143 o
6 7 2 45.464 38.269 1.017 12.493 o
6 7 3 31.626 28.529 1.096 18.102 o
6 7 4 1.320 0.842 0.589 295.209 o
6 7 5 45.724 46.799 1.187 11.254 o
6 7 6 1.361 2.598 0.666 212.330 o
6 7 7 49.182 54.149 1.604 9.404 o
6 7 8 1.817 2.713 0.830 153.569 o
6 7 9 0.244 0.942 1.095 138.159 o
6 8 0 17.526 20.431 1.399 26.496 o
6 8 1 7.549 7.281 0.790 74.632 o
6 8 2 0.840 0.337 0.722 267.780 o
6 8 3 0.000 -0.462 0.618 473.745 o
6 8 4 0.338 0.232 0.658 360.007 o
6 8 5 40.981 38.905 1.137 13.252 o
6 8 6 2.866 4.436 0.873 116.504 o
6 8 7 11.028 11.349 0.988 48.295 o
6 8 8 0.165 0.720 1.549 72.915 o
6 9 0 0.004 1.796 1.132 127.499 o
6 9 1 4.776 5.421 0.873 93.102 o
6 9 2 8.824 8.887 0.900 60.917 o
6 9 3 1.906 3.934 0.776 150.674 o
6 9 4 4.269 4.147 0.836 106.932 o
6 9 5 0.025 1.338 0.776 255.717 o
6 9 6 3.641 4.544 1.366 64.773 o
6 10 0 41.839 37.003 2.109 10.778 o
6 10 1 0.491 1.662 1.003 149.816 o
6 10 2 14.925 15.206 1.614 28.017 o
6 10 3 6.821 3.661 1.812 38.823 o
7 0 1 474.627 463.029 5.652 0.312 o
7 0 2 336.617 316.679 3.833 0.590 o
7 0 3 24.619 26.517 0.854 23.440 o
7 0 4 79.541 75.213 1.469 5.653 o
7 0 5 34.689 28.926 0.925 17.372 o
7 0 6 59.564 55.310 1.428 8.244 o
7 0 7 109.144 96.986 2.051 3.617 o
7 0 8 72.526 66.826 1.852 6.160 o
7 0 9 0.182 0.539 0.960 182.596 o
7 0 10 2.659 3.252 1.054 101.891 o
7 0 11 27.621 21.755 1.456 19.565 o
7 1 1 153.178 158.299 1.589 2.118 o
7 1 2 31.844 30.710 0.629 19.059 o
7 1 3 153.989 141.566 1.461 2.238 o
7 1 4 18.136 15.400 0.526 37.954 o
7 1 5 0.190 0.283 0.421 795.317 o
7 1 6 56.994 57.304 1.072 8.793 o
7 1 7 48.201 43.723 1.085 11.236 o
7 1 8 18.592 16.427 0.723 34.755 o
7 1 9 37.954 38.737 1.432 13.289 o
7 1 10 35.600 35.172 1.121 15.343 o
7 1 11 30.307 29.142 1.104 18.505 o
7 2 1 1.957 2.385 0.406 278.561 o
7 2 2 37.479 38.721 0.737 15.097 o
7 2 3 121.643 123.713 1.380 3.044 o
7 2 4 0.508 0.686 0.427 580.934 o
7 2 5 15.585 15.373 0.620 41.336 o
7 2 6 252.469 252.610 2.615 0.946 o
7 2 7 2.695 2.610 0.543 198.066 o
7 2 8 0.518 0.268 0.582 412.849 o
7 2 9 28.049 24.543 0.987 21.281 o
7 2 10 43.666 45.544 1.569 11.029 o
7 2 11 11.750 12.212 0.999 45.495 o
7 3 1 377.056 375.703 3.251 0.478 o
7 3 2 112.146 111.632 1.307 3.475 o
7 3 3 9.197 12.906 0.568 62.352 o
7 3 4 13.771 13.557 0.617 46.907 o
7 3 5 26.198 24.261 0.804 23.395 o
7 3 6 8.800 8.631 0.608 72.314 o
7 3 7 4.173 5.177 0.617 125.490 o
7 3 8 21.288 20.404 0.840 28.548 o
7 3 9 3.567 4.830 0.781 117.030 o
7 3 10 3.333 3.641 0.825 122.038 o
7 3 11 51.192 56.322 2.066 8.288 o
7 4 1 0.045 1.170 0.475 563.562 o
7 4 2 797.447 795.798 6.894 0.121 o
7 4 3 258.626 245.810 2.474 0.939 o
7 4 4 161.039 164.920 1.869 1.950 o
7 4 5 2.468 2.377 0.531 213.876 o
7 4 6 38.843 37.328 0.920 14.525 o
7 4 7 23.631 22.626 0.812 25.788 o
7 4 8 23.665 25.775 1.252 21.876 o
7 4 9 0.610 1.177 0.783 227.353 o
7 4 10 16.009 17.115 1.090 33.304 o
7 5 1 25.333 27.524 0.810 22.869 o
7 5 2 0.093 -0.390 0.497 691.869 o
7 5 3 24.020 24.624 0.745 25.098 o
7 5 4 13.181 12.929 0.630 48.841 o
7 5 5 1.902 1.692 0.572 241.643 o
7 5 6 2.378 2.057 0.636 194.745 o
7 5 7 6.630 6.422 0.737 85.566 o
7 5 8 0.671 2.241 0.780 205.157 o
7 5 9 0.276 0.098 0.809 256.880 o
7 5 10 0.323 1.420 1.395 85.971 o
7 6 1 32.964 28.214 0.941 18.175 o
7 6 2 0.102 0.234 0.593 470.187 o
7 6 3 2.981 3.890 0.605 159.922 o
7 6 4 24.128 25.279 0.833 24.311 o
7 6 5 79.745 80.217 1.506 5.468 o
7 6 6 16.672 17.532 0.836 35.389 o
7 6 7 3.146 2.465 0.716 151.810 o
7 6 8 5.107 5.057 0.819 96.475 o
7 6 9 11.886 11.012 1.308 39.287 o
7 7 1 41.603 40.227 1.387 12.378 o
7 7 2 1.143 1.146 0.659 259.993 o
7 7 3 54.099 53.117 1.300 9.216 o
7 7 4 0.407 0.253 0.643 366.005 o
7 7 5 23.525 21.302 0.907 25.786 o
7 7 6 7.367 7.359 0.769 76.446 o
7 7 7 12.023 12.520 0.876 47.325 o
7 7 8 21.320 19.943 1.256 25.230 o
7 8 1 5.357 4.663 0.885 90.562 o
7 8 2 28.207 30.089 1.185 18.864 o
7 8 3 2.305 1.936 0.727 175.291 o
7 8 4 3.996 5.667 0.761 109.512 o
7 8 5 2.558 2.498 0.782 150.857 o
7 8 6 0.090 0.108 0.927 204.964 o
7 9 1 1.519 1.676 0.896 155.453 o
7 9 2 0.023 -0.741 0.832 259.904 o
7 9 3 6.196 6.721 1.031 69.931 o
7 9 4 9.658 9.531 1.347 43.308 o
8 0 0 119.734 117.752 3.082 2.795 o
8 0 1 66.501 63.203 1.741 6.861 o
8 0 2 235.046 231.800 3.442 1.040 o
8 0 3 19.522 17.005 1.065 29.847 o
8 0 4 257.260 252.953 3.292 0.908 o
8 0 5 59.525 55.588 1.359 8.306 o
8 0 6 6.090 8.154 0.870 75.920 o
8 0 7 0.926 1.186 0.845 191.212 o
8 0 8 0.941 1.216 1.001 146.099 o
8 0 9 27.767 24.404 1.399 19.231 o
8 0 10 30.204 31.438 2.306 12.810 o
8 1 0 165.077 167.480 2.705 1.814 o
8 1 1 51.780 55.626 1.085 9.621 o
8 1 2 103.532 102.558 1.414 3.882 o
8 1 3 96.027 103.494 1.402 4.147 o
8 1 4 41.135 37.530 0.784 14.097 o
8 1 5 114.996 111.321 1.396 3.381 o
8 1 6 10.219 12.077 0.662 57.872 o
8 1 7 0.741 0.941 0.561 362.652 o
8 1 8 54.408 54.419 1.236 9.160 o
8 1 9 9.001 10.705 0.838 59.268 o
8 1 10 1.884 1.514 0.775 179.751 o
8 2 0 117.435 124.703 2.085 3.009 o
8 2 1 1.350 2.639 0.491 278.254 o
8 2 2 14.102 12.649 0.612 47.269 o
8 2 3 14.435 16.767 0.701 41.152 o
8 2 4 52.535 55.734 1.082 9.505 o
8 2 5 60.776 55.557 1.086 8.417 o
8 2 6 2.888 2.602 0.559 188.414 o
8 2 7 0.207 0.068 0.589 471.414 o
8 2 8 71.007 69.781 1.504 6.419 o
8 2 9 0.980 0.273 0.777 233.612 o
8 2 10 0.541 1.026 0.853 203.660 o
8 3 0 720.848 714.755 8.578 0.143 o
8 3 1 92.637 95.762 1.347 4.465 o
8 3 2 23.723 24.709 0.854 24.688 o
8 3 3 114.705 114.619 1.544 3.315 o
8 3 4 2.169 1.271 0.570 239.581 o
8 3 5 7.438 7.449 0.623 82.837 o
8 3 6 2.698 0.949 0.619 207.586 o
8 3 7 2.560 1.538 0.658 191.179 o
8 3 8 57.397 65.343 2.196 7.064 o
8 3 9 42.843 44.204 1.353 11.770 o
8 3 10 5.336 6.336 1.117 69.675 o
8 4 0 626.098 621.078 8.596 0.182 o
8 4 1 18.155 17.929 0.688 34.674 o
8 4 2 182.610 176.916 2.126 1.636 o
8 4 3 16.796 14.017 0.666 39.864 o
8 4 4 30.846 31.313 0.933 18.451 o
8 4 5 32.198 32.021 0.893 17.853 o
8 4 6 37.099 38.570 1.046 14.564 o
8 4 7 36.382 37.607 1.473 13.706 o
8 4 8 3.676 3.730 0.787 121.879 o
8 4 9 19.963 21.751 1.435 23.938 o
8 5 0 130.775 132.948 2.575 2.552 o
8 5 1 3.458 4.173 0.638 142.246 o
8 5 2 2.351 1.518 0.619 210.011 o
8 5 3 1.654 2.037 0.591 238.225 o
8 5 4 0.057 0.418 0.602 448.843 o
8 5 5 8.349 8.248 0.763 69.481 o
8 5 6 0.174 0.349 0.698 334.680 o
8 5 7 0.361 0.650 0.955 177.902 o
8 5 8 37.626 37.031 1.508 13.360 o
8 6 0 106.115 115.730 3.007 3.139 o
8 6 1 2.119 2.566 0.662 187.941 o
8 6 2 12.966 15.356 0.915 41.764 o
8 6 3 0.817 0.550 0.646 310.219 o
8 6 4 6.105 4.460 0.722 98.256 o
8 6 5 0.252 0.102 0.696 340.666 o
8 6 6 11.492 12.208 0.891 48.578 o
8 6 7 3.189 1.113 0.865 136.384 o
8 7 0 7.330 8.278 1.399 47.517 o
8 7 1 0.984 0.564 0.875 188.630 o
8 7 2 22.413 23.020 1.097 24.638 o
8 7 3 2.341 3.578 0.783 144.404 o
8 7 4 10.692 14.059 0.916 47.693 o
8 7 5 33.369 33.709 1.734 14.108 o
8 7 6 6.772 9.307 1.126 58.163 o
8 8 0 6.797 6.360 1.476 47.923 o
8 8 1 0.984 1.826 0.978 145.010 o
8 8 2 1.411 0.684 0.949 154.653 o
8 8 3 0.500 -0.019 0.816 243.795 o
8 8 4 1.867 0.530 1.120 114.357 o
9 0 1 28.276 30.763 1.186 18.681 o
9 0 2 123.746 119.400 2.309 2.879 o
9 0 3 80.868 71.887 1.833 5.468 o
9 0 4 27.759 30.455 1.786 15.986 o
9 0 5 105.130 100.520 2.369 3.585 o
9 0 6 76.951 69.918 3.204 4.728 o
9 0 7 43.535 42.474 1.856 10.679 o
9 0 8 1.524 0.925 0.926 155.599 o
9 0 9 102.757 110.471 3.552 3.087 o
9 1 1 104.510 105.461 1.646 3.741 o
9 1 2 11.791 11.459 0.654 54.092 o
9 1 3 2.182 1.908 0.569 224.451 o
9 1 4 15.713 17.913 0.767 37.296 o
9 1 5 16.364 17.130 0.792 36.618 o
9 1 6 12.883 12.783 0.844 45.787 o
9 1 7 5.764 6.389 0.729 92.559 o
9 1 8 0.463 0.319 0.687 318.746 o
9 1 9 14.694 14.352 1.654 27.985 o
9 2 1 35.260 36.272 0.888 15.905 o
9 2 2 73.728 75.545 1.430 6.052 o
9 2 3 10.248 12.299 0.689 56.758 o
9 2 4 90.341 88.912 1.499 4.675 o
9 2 5 3.847 4.692 0.636 131.721 o
9 2 6 5.069 5.769 0.672 105.890 o
9 2 7 0.008 0.840 0.710 317.741 o
9 2 8 2.332 3.681 0.795 141.477 o
9 2 9 0.026 0.261 1.098 147.032 o
9 3 1 128.255 133.265 1.818 2.725 o
9 3 2 134.759 138.701 1.853 2.542 o
9 3 3 100.371 104.582 1.662 3.894 o
9 3 4 66.767 70.717 1.486 6.734 o
9 3 5 0.008 0.841 0.654 366.977 o
9 3 6 8.658 7.996 0.756 68.934 o
9 3 7 7.144 5.814 0.791 81.040 o
9 3 8 89.136 90.348 2.435 4.288 o
9 4 1 114.549 110.989 1.774 3.323 o
9 4 2 0.321 0.674 0.652 344.267 o
9 4 3 3.568 3.512 0.666 142.182 o
9 4 4 75.785 79.441 1.571 5.703 o
9 4 5 40.508 40.094 1.118 13.265 o
9 4 6 9.385 10.236 0.828 59.091 o
9 4 7 5.151 4.811 0.817 97.268 o
9 4 8 0.580 0.741 1.236 108.037 o
9 5 1 2.873 2.259 0.664 170.616 o
9 5 2 24.868 24.031 0.984 23.370 o
9 5 3 0.723 1.456 0.703 252.712 o
9 5 4 3.681 2.445 0.830 124.740 o
9 5 5 0.295 1.053 0.772 250.959 o
9 5 6 43.244 40.235 1.305 12.205 o
9 5 7 3.380 3.221 0.987 103.377 o
9 6 1 49.231 47.350 1.314 10.373 o
9 6 2 20.189 24.201 1.038 26.311 o
9 6 3 7.215 7.207 0.893 71.379 o
9 6 4 0.384 -0.215 0.877 218.488 o
9 6 5 2.398 1.494 0.893 141.043 o
9 7 1 23.958 22.192 1.281 22.553 o
9 7 2 30.230 30.447 1.323 17.325 o
9 7 3 26.247 24.287 1.645 18.442 o
9 7 4 5.212 -2.571 4.713 7.846 o
10 0 0 376.588 375.533 7.486 0.427 o
10 0 1 0.614 0.360 0.910 190.692 o
10 0 2 77.258 74.090 1.975 5.527 o
10 0 3 2.441 4.204 0.900 119.457 o
10 0 4 24.543 27.354 1.603 18.774 o
10 0 5 18.555 18.432 1.246 28.144 o
10 0 6 24.176 22.597 1.914 17.849 o
10 0 7 56.094 59.340 3.488 5.717 o
10 1 0 49.989 54.353 1.639 9.224 o
10 1 1 5.971 5.965 0.672 96.485 o
10 1 2 6.621 10.131 0.734 74.623 o
10 1 3 1.671 1.813 0.638 225.585 o
10 1 4 0.852 0.909 0.665 281.762 o
10 1 5 0.666 -0.134 0.671 327.541 o
10 1 6 9.155 9.030 1.060 53.961 o
10 1 7 26.760 25.039 1.522 18.819 o
10 2 0 0.033 0.458 0.842 241.464 o
10 2 1 23.318 25.160 0.880 24.668 o
10 2 2 5.033 6.064 0.686 103.658 o
10 2 3 3.418 3.630 0.682 141.396 o
10 2 4 8.228 9.122 0.764 68.034 o
10 2 5 2.815 3.112 0.705 154.047 o
10 2 6 13.820 13.472 0.918 41.883 o
10 2 7 7.757 7.670 1.223 53.762 o
10 3 0 89.088 85.589 2.270 4.470 o
10 3 1 7.935 8.807 0.768 69.937 o
10 3 2 127.605 128.172 2.025 2.758 o
10 3 3 0.001 -0.721 0.647 431.850 o
10 3 4 11.315 11.172 0.866 50.899 o
10 3 5 0.707 0.586 0.750 252.908 o
10 3 6 114.315 117.234 2.374 3.106 o
10 4 0 12.927 14.909 1.220 36.658 o
10 4 1 15.886 16.152 0.885 36.849 o
10 4 2 2.769 2.245 0.800 145.696 o
10 4 3 67.367 67.885 1.816 6.534 o
10 4 4 22.943 23.290 0.995 24.880 o
10 4 5 0.019 0.347 0.722 328.021 o
10 4 6 27.691 28.687 2.281 13.790 o
10 5 0 0.362 1.518 0.997 155.094 o
10 5 1 9.778 9.489 0.908 56.473 o
10 5 2 23.939 19.060 1.043 25.368 o
10 5 3 0.186 -0.125 0.817 259.942 o
10 5 4 0.067 -0.050 1.071 156.040 o
10 6 1 5.172 3.599 3.514 13.444 o
10 6 2 36.493 33.927 2.348 11.225 o
11 0 1 3.030 5.104 0.985 98.233 o
11 0 2 72.911 75.206 2.291 5.523 o
11 0 3 43.406 43.415 1.694 10.994 o
11 0 4 38.248 40.140 1.675 12.371 o
11 0 5 37.577 38.906 4.456 5.766 o
11 1 1 0.485 1.462 0.683 277.753 o
11 1 2 4.271 4.696 0.720 116.247 o
11 1 3 0.564 1.249 0.701 269.016 o
11 1 4 18.686 18.075 1.086 29.926 o
11 1 5 6.647 4.119 2.160 29.888 o
11 2 1 9.467 9.114 0.839 60.389 o
11 2 2 0.083 2.234 0.730 252.532 o
11 2 3 5.614 5.433 0.798 92.488 o
11 2 4 33.808 35.410 1.550 14.439 o
11 3 1 4.665 3.283 0.789 112.364 o
11 3 2 7.258 7.912 0.982 65.342 o
11 3 3 21.279 17.608 1.459 24.209 o
11 4 1 40.030 45.367 2.674 8.996 o
;
_olex2_submission_special_instructions 'No special instructions were received'
loop_
_space_group_symop_id
_space_group_symop_operation_xyz
1 x,y,z
2 x+1/2,-y+1/2,-z+1/2
3 -x,y+1/2,-z
4 -x+1/2,-y,z+1/2
5 -x,-y,-z
6 -x-1/2,y-1/2,z-1/2
7 x,-y-1/2,z
8 x-1/2,y,-z-1/2
loop_
_atom_site_label
_atom_site_type_symbol
_atom_site_fract_x
_atom_site_fract_y
_atom_site_fract_z
_atom_site_U_iso_or_equiv
_atom_site_adp_type
_atom_site_occupancy
_atom_site_site_symmetry_order
_atom_site_refinement_flags_posn
_atom_site_refinement_flags_adp
_atom_site_refinement_flags_occupancy
_atom_site_disorder_group
O1 O 0.7870(9) 0.5958(8) 0.5245(8) 0.0274(7) Uani 0.50(4) 1 . . . 1
O2 O 0.6182(8) 0.5042(16) 0.3776(9) 0.0289(10) Uani 0.50(4) 1 . . . 1
N1 N 1.10913(15) 0.75 0.55636(11) 0.0229(3) Uani 1.000000 2 S T P .
N2 N 0.67964(10) 0.60533(11) 0.43493(8) 0.0267(2) Uani 1.000000 1 . . . .
C2 C 0.61373(16) 0.75 0.40411(14) 0.0271(3) Uani 1.000000 2 S T P .
C1 C 1.0918(2) 0.75 0.69891(14) 0.0284(3) Uani 1.000000 2 S T P .
N3 N 0.48092(17) 0.7274(6) 0.31148(14) 0.0224(10) Uani 0.500000 1 . . . -1
O4 O 0.35460(18) 0.7977(3) 0.34145(16) 0.0536(9) Uani 0.500000 1 . . . -1
O3 O 0.5022(2) 0.6619(2) 0.20882(14) 0.0366(4) Uani 0.500000 1 . . . -1
H1a H 1.018(3) 0.75 0.516(2) 0.035(5) Uiso 1.000000 2 S T P .
H1b H 1.164(2) 0.835(2) 0.5300(16) 0.050(5) Uiso 1.000000 1 . . . .
H1c H 1.031(2) 0.8444(19) 0.7256(17) 0.056(5) Uiso 1.000000 1 . . . .
H1d H 1.197(3) 0.75 0.739(3) 0.051(6) Uiso 1.000000 2 S T P .
O2A O 0.6147(6) 0.4635(14) 0.3992(9) 0.0250(11) Uani 0.50(4) 1 . . . 2
O1A O 0.8101(13) 0.5936(8) 0.4920(17) 0.0325(17) Uani 0.50(4) 1 . . . 2
loop_
_atom_site_aniso_label
_atom_site_aniso_U_11
_atom_site_aniso_U_22
_atom_site_aniso_U_33
_atom_site_aniso_U_12
_atom_site_aniso_U_13
_atom_site_aniso_U_23
O1 0.0224(13) 0.0344(14) 0.0254(17) -0.0077(10) -0.0019(12) -0.0019(12)
O2 0.0326(12) 0.018(2) 0.0367(19) -0.0050(14) -0.0042(11) -0.0106(16)
N1 0.0163(5) 0.0329(6) 0.0195(5) -0.000000 -0.0010(4) 0.000000
N2 0.0156(4) 0.0361(5) 0.0285(4) -0.0043(3) 0.0001(3) -0.0074(4)
C2 0.0140(6) 0.0455(9) 0.0217(6) -0.000000 -0.0021(5) 0.000000
C1 0.0285(7) 0.0369(8) 0.0198(6) -0.000000 0.0031(5) 0.000000
N3 0.0170(5) 0.032(3) 0.0185(6) -0.0049(7) -0.0004(4) -0.0003(7)
O4 0.0164(6) 0.111(3) 0.0335(7) 0.0127(9) -0.0038(5) -0.0151(10)
O3 0.0464(9) 0.0466(10) 0.0167(6) -0.0009(8) -0.0027(6) -0.0050(6)
O2A 0.0203(10) 0.015(2) 0.0400(19) -0.0054(12) -0.0007(10) -0.0094(16)
O1A 0.025(2) 0.0233(11) 0.049(4) -0.0057(12) -0.018(2) 0.0083(18)
loop_
_atom_type_symbol
_atom_type_scat_dispersion_real
_atom_type_scat_dispersion_imag
_atom_type_scat_Cromer_Mann_a1
_atom_type_scat_Cromer_Mann_a2
_atom_type_scat_Cromer_Mann_a3
_atom_type_scat_Cromer_Mann_a4
_atom_type_scat_Cromer_Mann_b1
_atom_type_scat_Cromer_Mann_b2
_atom_type_scat_Cromer_Mann_b3
_atom_type_scat_Cromer_Mann_b4
_atom_type_scat_Cromer_Mann_c
_atom_type_scat_source
_atom_type_scat_dispersion_source
H 0.00000 0.00000 0.49300 0.32291 0.14019 0.04081 10.51090 26.12570 3.14236
57.79970 0.0030380000826
'International Tables Volume C Table 6.1.1.4 (pp. 500-502)'
'Henke, Gullikson and Davis, At. Data and Nucl. Data Tables, 1993, 54, 2'
C 0.00347 0.00161 2.31000 1.02000 1.58860 0.86500 20.84390 10.20750 0.56870
51.65120 0.215599998832
'International Tables Volume C Table 6.1.1.4 (pp. 500-502)'
'Henke, Gullikson and Davis, At. Data and Nucl. Data Tables, 1993, 54, 2'
O 0.01158 0.00611 3.04850 2.28680 1.54630 0.86700 13.27710 5.70110 0.32390
32.90890 0.250800013542
'International Tables Volume C Table 6.1.1.4 (pp. 500-502)'
'Henke, Gullikson and Davis, At. Data and Nucl. Data Tables, 1993, 54, 2'
N 0.00653 0.00323 12.21260 3.13220 2.01250 1.16630 0.00570 9.89330 28.99750
0.58260 -11.5290002823
'International Tables Volume C Table 6.1.1.4 (pp. 500-502)'
'Henke, Gullikson and Davis, At. Data and Nucl. Data Tables, 1993, 54, 2'
loop_
_geom_angle_atom_site_label_1
_geom_angle_atom_site_label_2
_geom_angle_atom_site_label_3
_geom_angle
_geom_angle_site_symmetry_1
_geom_angle_site_symmetry_3
H1a N1 C1 113.5(14) . .
H1b N1 C1 110.8(11) 7_575 .
H1b N1 C1 110.8(11) . .
H1b N1 H1a 107.1(13) 7_575 .
H1b N1 H1a 107.1(13) . .
H1b N1 H1b 107(2) 7_575 .
O2 N2 O1 128.9(7) . .
O1A N2 O2A 113.9(6) . .
N2 C2 N2 125.26(12) 7_575 .
N3 C2 N2 109.44(19) . .
N3 C2 N2 109.44(19) 7_575 7_575
N3 C2 N2 124.3(2) . 7_575
N3 C2 N2 124.3(2) 7_575 .
N3 C2 N3 14.9(4) 7_575 .
H1c C1 N1 109.3(10) 7_575 .
H1c C1 N1 109.3(10) . .
H1c C1 H1c 108(2) 7_575 .
H1d C1 N1 110.4(16) . .
H1d C1 H1c 109.7(12) . .
H1d C1 H1c 109.7(12) . 7_575
O4 N3 C2 113.6(2) . 7_575
O3 N3 C2 121.78(18) . 7_575
O3 N3 O4 124.06(17) . .
loop_
_geom_bond_atom_site_label_1
_geom_bond_atom_site_label_2
_geom_bond_distance
_geom_bond_site_symmetry_2
O1 N2 1.284(6) .
O2 N2 1.153(8) .
N1 C1 1.4847(19) .
N1 H1a 0.85(2) .
N1 H1b 0.889(18) 7_575
N1 H1b 0.889(18) .
N2 C2 1.3688(12) .
N2 O2A 1.357(9) .
N2 O1A 1.229(5) .
C2 N3 1.467(2) .
C2 N3 1.467(2) 7_575
C1 H1c 0.978(17) .
C1 H1c 0.978(17) 7_575
C1 H1d 0.96(3) .
N3 O4 1.235(3) .
N3 O3 1.211(3) .
loop_
_refln_index_h
_refln_index_k
_refln_index_l
_refln_F_squared_meas
_refln_F_squared_sigma
1 0 0 -0.3 0.6
1 0 0 0.5 0.4
1 0 0 1.2 0.4
1 0 0 -0.1 0.4
1 0 0 0.2 0.4
-1 0 0 0.1 0.4
-1 0 0 0 0.4
2 0 0 81.79 3.6
2 0 0 77.19 3.2
2 0 0 81.49 3.2
-2 0 0 77.19 3.2
2 0 0 74.09 3.2
-2 0 0 71.69 3.3
-2 0 0 82.59 2.9
2 0 0 78.29 3
-3 0 0 0.7 1
3 0 0 0.3 1
-3 0 0 0 1
-3 0 0 1.6 0.6
3 0 0 0.4 1
3 0 0 1.5 1
3 0 0 -0.8 1.4
3 0 0 0 0.8
4 0 0 2448.26 83.19
4 0 0 2535.05 83.49
-4 0 0 2336.17 82.99
-4 0 0 2427.16 82.79
4 0 0 2370.46 82.99
-4 0 0 2419.46 83.39
4 0 0 2588.94 82.89
-5 0 0 0.8 1.3
5 0 0 0 1.4
5 0 0 -0.2 1
-5 0 0 -0.4 1.4
-5 0 0 1 0.9
5 0 0 -0.8 1.8
5 0 0 0.3 1.3
6 0 0 734.03 26.7
6 0 0 788.72 27.2
-6 0 0 745.53 26
6 0 0 747.83 26.4
-6 0 0 754.22 27
6 0 0 766.82 26.1
7 0 0 2.2 2.5
7 0 0 1.1 2
7 0 0 -0.9 1.8
-7 0 0 0.2 2
8 0 0 133.29 7.8
-8 0 0 133.69 7.3
8 0 0 141.19 7.1
8 0 0 139.89 6.7
9 0 0 -0.2 3
9 0 0 2 2.4
-9 0 0 -0.9 2.4
10 0 0 438.46 16.8
-10 0 0 437.16 17.9
10 0 0 454.85 18.2
-10 0 0 423.16 17.1
11 0 0 -3.6 3.6
11 0 0 -3.3 2.7
-11 0 0 6.2 3.2
-11 0 0 -2.8 2.9
0 -1 0 0.6 0.4
0 -1 0 0.8 0.3
0 -1 0 1.3 0.4
0 1 0 0.4 0.5
0 1 0 1 0.5
0 1 0 1.3 0.4
0 1 0 1 0.4
0 1 0 0.6 0.4
1 -1 0 1.5 0.8
1 1 0 1.2 0.8
1 1 0 2.6 0.6
1 1 0 2.4 0.5
1 1 0 2.7 0.5
-1 1 0 1.7 0.6
-1 -1 0 1.6 0.6
-1 1 0 1.1 0.8
-1 1 0 1 0.6
1 1 0 2.3 0.8
-1 1 0 1.2 0.8
1 -1 0 2.3 0.9
1 -1 0 0.9 0.8
1 1 0 1.7 0.8
2 1 0 1142.99 39.5
2 -1 0 1102.19 39.8
2 1 0 1216.28 39.5
-2 -1 0 1169.98 39.8
2 1 0 1152.28 39.7
-2 1 0 1056.99 39.7
-2 1 0 1173.78 39.5
2 1 0 1231.08 39.8
-2 1 0 1192.08 39.8
-2 1 0 1197.18 39.6
2 -1 0 1138.29 39.6
2 1 0 1226.48 39.4
-2 -1 0 1170.48 39.6
2 -1 0 1154.18 39.7
3 1 0 2.4 1.5
-3 -1 0 -1 0.7
-3 1 0 1 1.1
-3 1 0 0 0.8
3 -1 0 -0.5 1
3 1 0 0.7 1.1
3 1 0 -0.1 1
3 -1 0 0.3 1
3 1 0 0.2 0.6
3 1 0 -0.5 0.8
3 -1 0 0.3 1.5
-3 -1 0 0.9 1.1
3 -1 0 -0.1 1.1
-3 1 0 -0.1 1
-4 -1 0 371.36 14.2
-4 1 0 397.16 14
4 -1 0 407.46 13.8
4 1 0 408.36 13.8
4 -1 0 375.06 14.4
4 -1 0 379.56 14
4 1 0 387.66 14.1
4 1 0 382.56 13.5
4 1 0 387.06 13.8
4 -1 0 391.46 14
-4 -1 0 384.56 13.6
-4 1 0 402.26 13.6
-4 1 0 387.16 14.3
4 1 0 407.76 14.5
5 -1 0 -0.8 1.7
5 -1 0 3.4 1.5
-5 -1 0 0.1 1.4
-5 1 0 1.1 1
5 1 0 0.9 0.8
-5 -1 0 0.9 0.9
5 1 0 1.2 1.4
-5 1 0 3.7 1.5
5 1 0 0.2 1.2
5 1 0 0.7 1.1
5 -1 0 0.6 1.4
5 1 0 -0.5 1.8
-5 1 0 -0.4 1.3
5 -1 0 -0.3 1.1
6 -1 0 262.27 10.2
6 -1 0 263.27 10.2
6 -1 0 270.67 10.9
6 1 0 272.67 10.9
6 1 0 252.37 10.3
6 1 0 261.77 9.9
-6 1 0 272.27 9.5
-6 -1 0 263.97 10.6
6 1 0 259.47 9.4
-6 1 0 263.07 10.6
-6 -1 0 255.87 9.5
6 -1 0 268.97 9.8
-7 -1 0 2.3 2.1
7 -1 0 1.7 1.4
7 -1 0 2.3 2.6
7 -1 0 2.2 2.1
-7 1 0 -0.1 2
7 1 0 0.1 2.5
7 1 0 4.2 2.2
7 1 0 0.1 1.7
8 1 0 219.08 9.7
8 -1 0 203.98 9.8
8 1 0 192.48 8.9
-8 1 0 194.68 8.5
8 -1 0 186.38 8.5
-8 -1 0 186.58 9
-8 1 0 197.18 9.2
8 1 0 186.68 8.2
9 1 0 2.7 2.3
9 1 0 4.7 2.6
-9 -1 0 4.4 2.7
9 -1 0 -0.9 3.1
9 1 0 1.2 2.9
-9 1 0 -1.4 2.2
-9 1 0 2.1 2.5
9 -1 0 1.9 2.5
-10 1 0 69.89 5.5
10 1 0 57.29 5.6
10 1 0 61.69 5
10 -1 0 61.19 5.9
-10 1 0 58.89 5.4
-10 -1 0 71.99 6.3
10 -1 0 64.59 4.9
10 1 0 61.29 5.1
11 1 0 2.3 2.7
11 -1 0 2.8 3.7
-11 1 0 3.5 3.2
11 1 0 -1.9 3.5
11 -1 0 2.2 2.9
-11 -1 0 5.3 3.2
-11 1 0 0.3 2.8
0 2 0 1964.1 60.59
0 2 0 1755.72 60.29
0 2 0 1703.53 60.39
0 -2 0 1795.22 60.39
0 2 0 1622.34 60.29
0 2 0 1856.51 60.39
1 -2 0 1.7 0.9
-1 -2 0 1.5 0.7
-1 2 0 0 0.9
1 2 0 1 0.8
1 -2 0 2.1 0.9
-1 2 0 0.4 0.9
-1 2 0 1.6 0.8
1 2 0 0.4 1
1 -2 0 2.4 1
-1 2 0 1.3 1
1 2 0 2.4 0.7
1 2 0 1.7 1
2 2 0 2957.9 102.39
-2 2 0 2964.1 102.59
-2 2 0 3044.4 102.59
-2 -2 0 3077.49 102.39
-2 2 0 2904.81 102.39
2 2 0 3219.58 102.49
2 2 0 3172.48 102.39
2 -2 0 3142.19 102.69
2 -2 0 3107.09 102.39
2 2 0 3270.67 102.49
2 2 0 3024.6 102.29
2 2 0 2621.34 102.49
-2 2 0 2827.42 102.29
3 2 0 1.5 1.5
3 2 0 0.8 1.7
-3 -2 0 -0.2 1.3
-3 2 0 0.1 1.4
3 -2 0 3.4 1.8
-3 2 0 1.4 1.5
-3 -2 0 1 1.1
3 2 0 2.3 1.1
-3 2 0 1.5 1.1
-3 2 0 1.1 1.2
3 2 0 0.6 0.7
3 -2 0 2.7 1.5
3 2 0 0.9 1
3 -2 0 -0.5 1.4
4 2 0 64.79 4
4 -2 0 66.39 3.7
4 2 0 60.79 2.5
4 2 0 62.69 3.6
-4 2 0 58.29 3
4 2 0 58.89 2.9
4 2 0 60.89 3
4 -2 0 63.39 3.4
-4 -2 0 62.19 3
-4 2 0 57.19 3.2
-4 2 0 60.49 3.8
-4 -2 0 58.99 3.7
4 -2 0 52.69 4
5 -2 0 -0.2 1.3
5 2 0 -0.3 1.2
-5 -2 0 1.1 1
-5 -2 0 0 1.4
5 2 0 1.4 1.1
-5 2 0 1.6 1.4
5 -2 0 0.1 1.9
-5 2 0 1.4 1.1
-5 2 0 0.6 1.6
5 2 0 0 1.7
5 -2 0 0.1 1.6
-5 2 0 -1.8 1.5
5 2 0 0.3 1.5
6 -2 0 13.5 1.9
-6 -2 0 12 1.5
-6 2 0 16 1.6
6 2 0 14.1 2.7
6 -2 0 16.5 2.4
-6 2 0 13.2 2.4
6 2 0 11.5 2.2
-6 2 0 14.2 2.1
6 -2 0 11.9 2.6
6 2 0 12.7 1.8
-6 -2 0 11.9 2.3
-6 2 0 14.5 2.7
-7 2 0 0.6 2.2
-7 -2 0 -0.6 2.1
7 2 0 2.6 2.5
-7 2 0 -2.1 1.8
7 2 0 0 2.1
7 2 0 -0.1 1.6
7 -2 0 -2.9 2.4
7 -2 0 2.3 1.6
7 -2 0 -0.3 2.1
8 -2 0 140.69 7.2
8 2 0 140.19 7.4
8 -2 0 137.29 6.4
8 -2 0 156.58 8.4
8 2 0 151.28 8
8 2 0 154.88 6.6
-8 2 0 140.69 7.8
-8 2 0 149.09 7
-8 -2 0 138.49 7.6
9 2 0 0.5 2.8
-9 2 0 3.1 2.3
-9 2 0 1.2 2.6
9 2 0 0.8 2.6
-9 -2 0 2.2 2.6
9 -2 0 2.8 3.2
9 2 0 0.2 2.1
9 -2 0 5.8 2.7
-10 2 0 0.8 2.7
10 -2 0 -2.7 2.6
10 -2 0 0 3.3
-10 -2 0 0.7 2.8
10 2 0 5.1 3.4
10 2 0 1.7 2.8
10 2 0 -2.4 2.2
-10 2 0 3 3
-11 -2 0 2.4 3
11 2 0 -2 2.4
11 -2 0 -1.6 2.9
11 2 0 0.4 3.6
11 2 0 -1.8 3
11 -2 0 -1.4 3.7
-11 2 0 -1.1 3
0 3 0 -1.5 1.1
0 3 0 0.5 0.9
0 3 0 -0.2 1
0 -3 0 -0.6 1
0 3 0 0.3 0.9
0 3 0 -1.3 1.2
-1 -3 0 1.6 0.9
-1 3 0 2 1.1
-1 3 0 1.6 1
1 3 0 0.6 0.8
1 -3 0 -0.7 1
-1 3 0 -0.1 1.1
-1 3 0 0.3 1.1
1 -3 0 -0.5 1.1
-1 3 0 -2.1 1.2
1 -3 0 0.6 1
1 3 0 0.7 0.9
1 3 0 0.2 1.2
1 3 0 0.2 0.8
1 3 0 2.1 1.2
2 3 0 1712.43 57.79
-2 3 0 1733.43 58.09
2 3 0 1656.43 57.49
2 3 0 1805.22 58.19
2 3 0 1741.03 57.99
-2 -3 0 1709.23 57.89
2 -3 0 1645.24 57.79
-2 -3 0 1681.93 57.59
-2 3 0 1562.04 57.79
2 -3 0 1669.63 57.79
-2 3 0 1726.73 57.89
-2 3 0 1748.13 57.59
3 3 0 2.6 1.7
-3 -3 0 0.5 0.9
3 3 0 -0.6 1.6
-3 3 0 1.3 1.6
-3 3 0 3.1 1.7
3 -3 0 -0.5 1.8
3 3 0 0.7 1.6
-3 -3 0 0 1.2
-3 3 0 1.1 1.2
3 -3 0 0.4 1.5
3 -3 0 3.5 1.6
3 3 0 0.8 0.9
-3 3 0 0.6 1.3
4 3 0 83.19 4.2
-4 -3 0 76.29 3.7
4 3 0 85.89 4.3
4 -3 0 75.49 4
4 -3 0 72.89 4.5
4 3 0 80.19 3.3
4 3 0 80.99 3.4
-4 -3 0 72.29 4.2
4 -3 0 79.19 4.1
-4 3 0 78.89 3.6
-4 3 0 77.19 4.4
-4 3 0 73.79 3.7
-5 3 0 0.7 1.7
5 -3 0 -0.3 2
5 -3 0 -1.4 1.5
-5 -3 0 -0.6 1.4
-5 3 0 0.5 1.7
5 -3 0 2.5 1.7
-5 3 0 -0.9 1.2
5 3 0 0.8 1.7
5 3 0 -0.1 1.2
-5 3 0 0.5 1.4
5 3 0 0.1 1.8
-5 -3 0 0.8 1.3
5 3 0 0 1
-6 3 0 141.49 5.9
6 3 0 141.69 6.9
6 3 0 146.79 6
6 3 0 147.69 7.1
-6 -3 0 147.79 6.1
-6 3 0 147.79 6.8
-6 -3 0 130.49 6.9
6 -3 0 148.99 6.5
-6 3 0 151.48 7.2
-6 3 0 153.98 6.3
6 -3 0 145.79 6.7
6 -3 0 139.09 7.2
-7 3 0 3.4 2
7 -3 0 -0.2 1.8
7 -3 0 -3.4 2.5
7 3 0 -1.9 2
7 3 0 -0.9 2.3
7 -3 0 1.4 2.3
7 3 0 0.1 1.6
-7 -3 0 -3.4 2
-7 3 0 -2.5 2.2
8 3 0 846.92 30.5
8 3 0 849.12 29.2
8 -3 0 847.12 29.9
-8 -3 0 836.52 30.5
8 -3 0 855.61 30.7
8 -3 0 814.62 29.4
-8 3 0 801.02 29.5
8 3 0 850.91 30.2
-8 3 0 801.72 30.5
9 3 0 0.4 2.6
-9 3 0 0.6 2.7
9 -3 0 3.8 3.3
9 3 0 -0.8 2.9
9 -3 0 0.3 2.6
9 3 0 0 1.9
-9 -3 0 0.9 2.6
10 -3 0 100.29 8.2
10 -3 0 99.29 6.8
-10 3 0 85.29 7.2
-10 -3 0 107.89 7.4
10 3 0 101.69 7.6
10 3 0 98.19 5.7
10 3 0 104.89 7
-11 -3 0 2.7 3.2
11 3 0 -2 3.2
11 3 0 -0.4 2.3
-11 3 0 -3.2 3.1
11 -3 0 -2.6 3.8
11 3 0 -4.9 2.9
0 4 0 611.04 20.4
0 4 0 605.64 20.9
0 4 0 561.84 20.3
0 4 0 553.54 20.2
0 -4 0 594.24 20.6
0 4 0 593.34 20.6
-1 4 0 0.5 1.5
-1 4 0 -0.7 1.4
1 4 0 0.1 1
1 4 0 0.2 1.5
1 4 0 -0.9 1.2
-1 4 0 0.5 1.8
1 -4 0 0.4 1.2
-1 4 0 -0.7 1.5
1 -4 0 -0.1 1.4
-1 -4 0 0.5 1.4
1 4 0 -2.5 1.6
1 4 0 2.3 1.2
1 -4 0 1.5 1.6
-1 4 0 0.9 1.3
-2 -4 0 2175.78 72.69
2 -4 0 2124.59 72.49
2 -4 0 2071.49 72.69
-2 4 0 2138.09 72.99
2 -4 0 2063.39 72.49
2 4 0 2168.68 72.39
2 4 0 2184.88 72.69
2 4 0 2212.88 72.99
-2 4 0 2094.19 72.59
-2 4 0 2045.8 72.59
-2 4 0 2178.28 72.29
-2 -4 0 2136.99 72.39
-3 4 0 0.2 1.4
-3 4 0 -0.5 1.5
3 -4 0 -1 1.4
3 -4 0 -0.2 1.5
-3 4 0 -1.4 1
3 4 0 -2.3 1.4
-3 -4 0 0.3 1
3 4 0 1.4 1.6
3 -4 0 -0.3 1.6
-3 -4 0 -0.2 1.3
3 4 0 -0.4 1.3
-3 4 0 3.7 1.4
4 -4 0 1995.9 66.89
4 -4 0 2094.89 66.99
4 4 0 1966.3 67.09
4 4 0 1917.51 66.89
-4 -4 0 1988.5 66.79
-4 4 0 1969.1 66.89
-4 4 0 1974.2 66.49
4 4 0 1993.4 67.29
-4 4 0 1908.61 66.69
4 -4 0 1798.02 66.99
-4 4 0 1912.11 67.29
5 4 0 -0.9 1.7
5 -4 0 1.6 2
-5 4 0 2.1 1.5
-5 4 0 1.9 1.9
5 -4 0 -1.2 2
5 4 0 2.5 1.9
5 4 0 -1.4 1.1
5 4 0 0.3 1.1
-5 4 0 2.6 2
-5 4 0 2.3 1.5
5 -4 0 -1.1 1.7
-5 -4 0 0.1 1.6
-5 -4 0 -2.2 1.3
6 4 0 619.24 22.6
6 -4 0 605.04 22.7
6 4 0 624.24 21.6
-6 -4 0 629.54 22
6 -4 0 611.64 22.2
-6 4 0 613.84 22.4
-6 4 0 624.54 21.9
6 4 0 617.14 22.6
-6 4 0 600.54 22.8
-6 -4 0 627.74 22.8
-6 4 0 625.44 21.9
7 -4 0 2.6 2.8
-7 -4 0 0 1.6
7 -4 0 2.7 2.4
-7 -4 0 0.1 2.2
7 4 0 2.2 2.3
7 4 0 4 1.6
-7 4 0 2.3 2.5
7 -4 0 0.7 2
7 4 0 0.7 2.3
8 4 0 741.33 25.4
8 4 0 737.53 26.8
-8 -4 0 737.03 27
8 -4 0 720.33 26.1
8 4 0 730.73 26.7
8 -4 0 723.03 27
-8 4 0 677.33 26.9
9 4 0 -3.3 2.4
-9 4 0 1 2.8
9 4 0 -2.8 2.7
9 -4 0 -5.2 3.2
-9 -4 0 3 2.9
9 4 0 -2.2 1.8
-10 -4 0 19.7 3.9
-10 4 0 16.3 3.7
10 -4 0 19.5 4.4
10 4 0 17.1 2.6
10 4 0 18.9 3.7
10 4 0 12.3 3.5
11 4 0 -2.1 3.3
11 -4 0 1.2 4
0 5 0 -0.4 1.6
0 5 0 1.1 1.3
0 5 0 0.2 1.2
0 5 0 -0.3 1.5
0 -5 0 0.9 1.4
0 5 0 0 1.2
-1 5 0 -1.9 1.5
-1 5 0 0.4 1.4
1 5 0 -2.3 1.5
-1 5 0 -1.2 1.3
1 -5 0 -0.3 1
1 5 0 0.7 1.4
1 -5 0 -0.7 1.5
1 5 0 -1.4 1.1
-1 5 0 2 1.7
1 5 0 1.5 1.2
-1 -5 0 -1.3 1.3
-1 5 0 1.6 1.3
-2 5 0 14.7 1.6
2 -5 0 11.4 1.6
2 -5 0 13.4 1.8
2 -5 0 12.1 2
-2 5 0 12.4 1.8
2 5 0 15.1 1.4
-2 5 0 12.4 2
2 5 0 10.7 2
-2 5 0 12 2.2
-2 -5 0 14.9 1.6
-2 -5 0 12.1 1.9
2 5 0 13.1 1.9
-3 5 0 1.5 1.5
-3 5 0 -1.9 1.6
-3 -5 0 -1 1.5
-3 5 0 0.5 1.2
3 5 0 0 1.7
3 -5 0 0.2 1.6
3 5 0 -0.7 1.6
-3 5 0 -1.5 1.6
3 -5 0 -0.9 1.5
3 -5 0 -1 1.5
-3 -5 0 0 1.1
3 5 0 0.7 1.2
-4 5 0 129.99 5.8
-4 5 0 136.09 6.2
4 -5 0 116.99 6
4 5 0 132.49 6.4
4 5 0 125.69 5.7
-4 -5 0 140.49 5.9
4 5 0 128.19 6.2
-4 5 0 126.39 5.3
-4 5 0 123.79 6.4
-4 -5 0 127.19 5.1
4 -5 0 115.99 6
-5 5 0 0.7 2.1
5 5 0 -0.4 2.1
5 5 0 -0.5 1.8
-5 5 0 1.4 1.8
5 -5 0 -1.1 2.2
-5 5 0 1.8 1.7
-5 -5 0 0.7 1.7
-5 5 0 -0.8 1.9
5 -5 0 1 2
-6 5 0 103.79 6
6 5 0 106.29 5.8
-6 -5 0 108.69 6.2
-6 5 0 96.99 6.5
6 -5 0 105.69 6.2
6 5 0 102.99 6
-6 5 0 97.29 5.2
6 -5 0 107.09 6
-6 -5 0 107.19 5.4
7 -5 0 2.7 2.8
7 5 0 -1.1 2.5
-7 5 0 4.4 2.7
-7 -5 0 -1.4 1.8
7 5 0 2.1 2.3
7 -5 0 1.4 2.3
-7 -5 0 0.7 2.2
8 -5 0 156.58 7.8
-8 5 0 147.89 8.7
8 5 0 154.98 8.1
8 5 0 167.98 8.3
-8 -5 0 157.28 8.4
8 -5 0 153.58 8.6
8 5 0 148.89 6.5
9 5 0 0.8 2.8
-9 5 0 0.5 3
9 -5 0 2.3 3.4
9 5 0 -1 2.7
9 5 0 -0.9 1.8
9 -5 0 1.8 2.4
-9 -5 0 0.5 2.8
10 -5 0 4.8 3.7
-10 5 0 0.9 3.4
10 5 0 1.5 3
10 5 0 -0.7 1.9
10 5 0 7.3 3.4
-10 -5 0 -0.7 3.1
0 6 0 935.11 35.1
0 6 0 1035.6 34.7
0 6 0 1034.3 35.3
0 -6 0 1015.2 35.1
0 6 0 997.7 34.8
0 6 0 1025.6 35.6
-1 -6 0 -0.8 1.7
1 6 0 -0.6 1.2
-1 6 0 -0.8 1.4
1 -6 0 -0.3 1.7
-1 6 0 -1.3 2
1 6 0 -2.2 1.7
1 6 0 2.7 1.7
1 6 0 -0.9 1.3
-1 6 0 0.1 1.8
-1 6 0 -0.6 1.4
-1 -6 0 -2.1 1.4
-2 -6 0 500.95 17.7
-2 6 0 481.45 17.4
2 6 0 486.45 17.5
-2 6 0 480.45 17
-2 6 0 492.35 18.1
-2 6 0 482.95 17.6
-2 -6 0 490.35 17.3
2 6 0 451.65 18
2 -6 0 473.05 17
3 6 0 1.1 1.5
3 -6 0 1.4 1.8
3 -6 0 1 2
3 6 0 0.2 1.9
-3 -6 0 0.8 1.5
-3 6 0 -1.9 1.5
-3 6 0 0.2 1.9
-3 6 0 -0.5 1.8
3 6 0 -2.3 1.9
-3 6 0 -0.7 2
-3 -6 0 0.4 1.9
4 -6 0 1.7 2.2
-4 6 0 1.9 1.9
4 6 0 0.4 2
4 6 0 0.7 1.6
-4 6 0 0.5 2
-4 6 0 2.9 2.2
-4 -6 0 0.1 1.9
4 6 0 2.5 2.1
4 -6 0 1.5 2
5 6 0 3.4 2.2
5 6 0 -0.1 2.2
5 -6 0 0.8 2.2
-5 -6 0 0.1 1.9
-5 6 0 -4.8 2.2
5 -6 0 0.2 2.3
-5 6 0 -2.3 2.2
5 6 0 2.4 1.9
-5 6 0 0.7 2
6 -6 0 1.5 2.4
6 6 0 4.1 2.2
-6 6 0 4.8 2.8
6 -6 0 3 2.7
6 6 0 8.1 2.5
-6 6 0 3.4 2.6
-6 -6 0 2.7 2
-6 6 0 7.4 2.8
-6 -6 0 1.4 2.3
-7 -6 0 2.4 2.4
-7 -6 0 -0.9 2
7 -6 0 1.6 2.5
7 -6 0 -1.9 2.6
-7 6 0 -0.1 2.6
7 6 0 1.3 2.3
7 6 0 -0.8 2.5
-8 6 0 119.09 8.1
-8 -6 0 136.79 7.9
8 -6 0 134.39 8.1
8 6 0 147.99 7.8
8 -6 0 132.99 7.4
-9 6 0 0.8 3.2
9 6 0 1.3 3
9 -6 0 1.3 2.6
9 -6 0 -2.9 3.3
-9 -6 0 1.6 2.8
0 7 0 0 1.6
0 -7 0 -2.2 2
0 7 0 -0.8 2.1
0 7 0 2.5 1.9
-1 7 0 -5.9 2.4
-1 7 0 -0.7 1.7
-1 7 0 -1.8 2
-1 -7 0 0.7 2.1
1 7 0 0.4 1.5
-1 -7 0 0.2 1.8
1 7 0 -4.2 2.1
1 7 0 -1.8 1.8
1 -7 0 0.6 2.1
-1 7 0 -0.1 1.7
2 7 0 565.14 21.1
-2 -7 0 578.14 20.7
-2 7 0 565.24 20.6
-2 7 0 537.75 21
-2 -7 0 579.34 20.2
-2 7 0 553.34 20.2
2 -7 0 569.64 20.6
2 7 0 553.44 20.4
3 7 0 -4.7 2.1
3 -7 0 -1.1 2.2
-3 7 0 2.8 2.2
-3 7 0 4.1 2.1
-3 -7 0 -0.5 2.1
-3 -7 0 -0.6 1.6
3 7 0 -0.8 2
-3 7 0 1.5 2.4
4 7 0 37.4 3.5
4 -7 0 30 3.6
4 7 0 25.8 3.3
-4 -7 0 37.7 3.4
-4 7 0 29.7 3.4
-4 7 0 30.9 3.3
-4 7 0 33.5 3.8
5 -7 0 -0.1 2.6
-5 7 0 -3.1 2.3
-5 7 0 0.9 2.4
-5 -7 0 -1.3 2.1
5 7 0 -2.2 2.2
-5 7 0 -2.3 2.1
5 7 0 -1.8 2.2
-6 7 0 325.47 14.4
6 7 0 340.07 13.8
-6 -7 0 346.57 13.5
-6 -7 0 345.17 14.2
-6 7 0 331.17 13.8
-7 -7 0 2.5 2.6
7 -7 0 1.4 2.8
-7 7 0 -1.9 2.8
7 7 0 -0.2 2.6
-7 -7 0 -0.8 2.3
8 -7 0 8.7 3.1
-8 7 0 8.6 3.5
8 7 0 11.3 3.3
-8 -7 0 9.8 3.2
9 -7 0 -4.4 2.7
9 7 0 3.8 3.2
-9 -7 0 -0.9 2.8
-9 7 0 -6.1 3.1
0 -8 0 551.24 19.7
0 8 0 498.15 19.2
0 8 0 518.35 19
0 -8 0 561.34 20
0 8 0 531.45 20.3
1 8 0 -5 2.3
-1 8 0 3.9 2
1 8 0 -2.2 1.9
-1 8 0 -4.4 2.5
-1 -8 0 -1.4 2.1
1 -8 0 -0.1 2.3
1 8 0 -2.1 1.5
-1 -8 0 -1.7 2.3
-2 8 0 2.2 2.7
2 8 0 1.3 2.5
2 -8 0 4.4 2.6
2 8 0 1.3 1.5
-2 8 0 3.7 2.5
-2 8 0 0.5 2
2 8 0 5.5 2.3
-2 -8 0 -0.5 2.3
-2 -8 0 2.1 2.1
3 8 0 0.1 2.1
-3 8 0 4 2.5
3 -8 0 2.8 2.6
3 8 0 -1.1 2.4
-3 -8 0 -0.1 2.2
-3 8 0 0.5 2.6
-3 8 0 -1.2 2.2
-3 -8 0 -0.5 2.3
4 8 0 115.49 7.2
4 -8 0 115.39 7
4 8 0 126.89 6.6
-4 8 0 113.39 6.6
-4 -8 0 132.89 6.9
-4 8 0 125.69 6.9
-4 8 0 128.69 7.6
5 -8 0 -0.7 2.8
5 8 0 -0.7 2.4
-5 8 0 -1.4 2.5
-5 -8 0 1.3 2.4
-5 8 0 -5.4 2.1
-5 8 0 -1.6 2.9
5 8 0 -1.8 2.3
-6 8 0 26.4 3.7
6 -8 0 20.9 3.8
-6 -8 0 24.6 3.4
6 8 0 26.1 3.6
-6 8 0 18.5 3.8
-7 -8 0 0.2 2.6
7 8 0 1.1 2.7
-7 8 0 0.8 3.1
-7 -8 0 0.1 2.7
7 -8 0 0.8 3.1
8 -8 0 8.6 3.5
-8 8 0 4.1 3.6
8 8 0 8.6 3.3
-8 -8 0 8.2 3.4
0 -9 0 0.2 2.5
0 9 0 -6.5 2.4
0 9 0 -1.5 1.8
0 -9 0 -3.6 2.5
1 -9 0 0 2.6
1 9 0 0.3 1.7
-1 -9 0 -0.7 2.5
-1 -9 0 -0.8 2.3
-1 9 0 -2 2
1 9 0 -3.8 2.6
-1 9 0 -2.1 2.7
1 -9 0 2 2.7
-2 9 0 47.8 4.9
2 9 0 43.1 3.8
-2 -9 0 50.79 4.6
2 9 0 48.3 4.7
-2 -9 0 62.89 4.5
-2 9 0 63.39 4.8
2 -9 0 63.79 4.9
3 9 0 -4 2.1
-3 -9 0 1.3 2.6
3 9 0 -3.1 2.5
-3 9 0 0.2 2.2
3 -9 0 4.4 3.1
-3 9 0 -4.7 2.5
-4 9 0 5 2.7
4 9 0 1.4 2.8
4 -9 0 4.5 3
-4 9 0 0.9 3
-4 -9 0 2.4 2.7
4 9 0 2.1 2.3
5 -9 0 -3.1 3
-5 -9 0 -2.6 2.5
5 9 0 -0.8 2.6
-5 9 0 -2.4 2.9
-5 9 0 -0.5 3
5 9 0 -0.3 2.4
-6 9 0 4.3 3
6 -9 0 4.3 3.4
6 9 0 -3.4 2.4
-6 -9 0 2 2.7
-6 9 0 5.3 3.4
-7 -9 0 -0.6 2.9
-7 9 0 0.8 3.5
7 9 0 0 2.7
-7 -9 0 -2.6 2.8
7 -9 0 0.4 3.4
0 10 0 19.2 2.5
0 -10 0 18 3.5
0 -10 0 23.9 3.9
0 10 0 12.1 3.5
1 10 0 -5 2.7
-1 10 0 -3.9 2.8
-1 -10 0 1.5 2.6
1 -10 0 1.7 3
1 -10 0 5 3
-1 10 0 -1.7 2
-1 -10 0 -2.3 2.7
1 10 0 -1.7 1.8
2 10 0 186.58 10
2 -10 0 191.28 9.5
-2 10 0 173.98 8.5
-2 -10 0 207.08 9.8
2 -10 0 186.78 9.5
-2 10 0 180.38 9.9
-3 10 0 -3.5 3
-3 10 0 2.1 2.5
3 -10 0 -3.1 3.1
3 10 0 -5.1 2.7
-3 -10 0 -1.1 2.7
3 -10 0 -2.6 2.8
4 10 0 18.6 3.8
-4 10 0 22 3.4
-4 10 0 14.2 3.7
4 -10 0 25.3 4.2
-4 -10 0 20.4 3.7
4 -10 0 24.3 3.8
4 10 0 13 3.1
-5 10 0 -2.8 3.1
5 10 0 0 2.9
-5 -10 0 -1.1 2.8
5 -10 0 -6.6 3.2
-5 10 0 -2.8 2.6
5 10 0 1.6 2.5
5 -10 0 2.6 2.9
-6 10 0 49.2 8.8
-6 10 0 45 4.8
6 -10 0 42.3 8.4
6 10 0 40.4 4.5
-6 -10 0 42.5 4.7
0 -11 0 1.1 3.3
0 11 0 -7.3 2.9
0 11 0 -2.4 2.1
0 -11 0 -0.5 3
1 -11 0 0.4 3.2
-1 -11 0 4.2 3.4
1 11 0 -2.4 3.2
-1 -11 0 3.8 3
-1 11 0 -6 3.1
1 11 0 -3.3 1.8
-1 11 0 -0.8 2.1
1 -11 0 2.9 3.4
2 11 0 13.1 3.8
2 -11 0 12.9 3.8
-2 11 0 16.4 2.9
2 -11 0 17.2 4
-2 11 0 14.6 4
-2 -11 0 17.9 4.1
-3 11 0 -0.8 3.3
-3 -11 0 0.6 3.2
3 -11 0 -0.2 3.3
3 -11 0 -1.3 3.4
-3 11 0 0.2 2.5
3 11 0 2.6 3.3
-4 11 0 18 3.7
4 -11 0 26.8 4.4
-4 -11 0 24.8 4.3
4 -11 0 18 5.1
4 11 0 20.8 5.6
0 0 1 1.9 0.3
0 0 1 1.3 0.4
0 0 -1 2.9 0.4
0 0 -1 1.7 0.5
0 0 1 1.8 0.3
0 0 1 1.5 0.3
0 0 -1 1.6 0.3
-1 0 1 920.41 32
-1 0 -1 972.2 32
-1 0 1 909.41 32
-1 0 -1 937.71 32
-1 0 1 931.91 31.9
1 0 -1 953.3 32.1
1 0 1 913.51 32
1 0 1 949.31 31.9
-1 0 -1 908.21 31.9
1 0 -1 990.9 32
-1 0 1 969.6 32
1 0 1 890.61 31.9
1 0 1 1003.5 32
2 0 -1 25.6 1.9
-2 0 -1 28.3 1.9
2 0 1 26.4 1.8
2 0 -1 28 1.4
2 0 1 23.4 1.7
-2 0 1 24.1 1.9
2 0 -1 30.1 2.4
-2 0 -1 25.5 1.7
2 0 1 28 1.7
2 0 -1 28.3 1.8
2 0 1 24.6 2.1
-2 0 1 22.5 1.8
2 0 1 28.8 1.7
-2 0 1 25.5 1.6
3 0 1 636.04 21.5
3 0 1 656.13 21.7
3 0 1 638.44 21.5
-3 0 -1 634.94 21.6
3 0 -1 640.34 21.9
-3 0 -1 618.24 21.8
-3 0 1 636.44 21.8
3 0 -1 633.14 21.3
3 0 1 622.44 21.5
-3 0 1 603.44 21.5
-3 0 1 602.84 21.6
3 0 1 603.34 21.9
3 0 -1 633.94 21.6
3 0 -1 593.84 21.6
4 0 -1 188.08 7.7
4 0 1 210.48 7.5
-4 0 -1 199.18 8
4 0 -1 210.88 8.4
4 0 1 198.18 8.3
4 0 1 191.88 7.8
4 0 1 202.28 7.6
-4 0 1 204.78 7.8
4 0 -1 207.58 7.3
-4 0 -1 198.68 7.1
-4 0 1 199.28 7.4
-4 0 1 216.78 8.1
4 0 -1 198.68 7.8
4 0 1 197.88 7.6
-4 0 -1 207.08 7.7
5 0 -1 578.94 20.6
-5 0 -1 568.34 20.6
5 0 -1 610.74 20.2
5 0 1 594.24 21.2
5 0 1 575.34 20.5
-5 0 -1 590.14 21
5 0 1 599.94 20.4
-5 0 -1 584.84 20
5 0 1 584.34 20.8
-5 0 1 602.64 21
5 0 1 582.04 20.5
5 0 -1 626.14 21.3
-5 0 1 579.94 20.7
-5 0 1 572.24 20.3
5 0 -1 546.05 20.7
-6 0 1 42.2 3.6
-6 0 1 34.9 2.5
6 0 -1 37 2.3
6 0 1 33.3 3.3
6 0 -1 38.3 3
6 0 1 41.7 2.7
6 0 1 38.8 2.7
6 0 -1 34.1 3.3
-6 0 -1 41.3 3.7
6 0 -1 34.2 2.7
6 0 1 30 2.9
7 0 1 550.64 20.4
7 0 -1 533.05 20.3
7 0 -1 549.35 19.5
-7 0 1 534.25 20.1
7 0 1 550.54 19.8
7 0 -1 513.05 19.6
-7 0 -1 545.05 20.1
7 0 1 552.64 19.4
7 0 1 532.35 19
8 0 -1 69.79 4.9
-8 0 1 68.99 5.5
-8 0 -1 73.39 5.6
8 0 1 73.19 4.8
8 0 1 74.29 5.9
8 0 -1 74.19 5.1
8 0 -1 84.39 6.3
-9 0 1 33.5 4
9 0 1 38 3.5
9 0 -1 34.2 3.5
9 0 -1 30.3 3.6
-9 0 -1 41 4
-9 0 -1 31.2 4
9 0 -1 36.2 4.6
9 0 1 41.9 4.6
10 0 -1 0.1 2.6
-10 0 -1 1.3 3
10 0 1 4.2 2.6
10 0 -1 -0.5 3.3
-10 0 1 -4 2.5
-10 0 -1 1.5 2.7
10 0 1 0.5 3.3
11 0 -1 4.9 3
11 0 1 9.3 2.9
-11 0 1 4.3 3.3
-11 0 1 9.1 3.2
11 0 -1 2.7 3.7
-11 0 -1 3.4 3.1
-11 0 -1 6.7 3.2
11 0 1 6.4 4
0 -1 1 2795.62 101.59
0 -1 1 3178.28 101.99
0 1 1 3185.58 102.09
0 1 1 3195.08 101.59
0 1 1 2762.12 101.39
0 1 1 2963.2 101.89
0 -1 -1 3101.79 102.19
0 1 1 3166.78 101.59
0 -1 1 2853.91 102.09
0 1 -1 2963.1 102.09
0 1 -1 3059.09 101.79
0 1 -1 2597.34 101.39
0 1 1 3241.28 101.59
1 -1 1 791.52 28.2
1 1 -1 840.32 28.3
1 -1 1 748.83 28.3
1 -1 1 857.11 28.4
1 1 -1 847.02 28.4
-1 1 1 856.81 28.4
-1 1 1 819.22 28.3
1 1 -1 845.72 28.4
1 1 -1 819.22 28.3
-1 1 1 813.12 28.3
1 1 -1 791.72 28.4
-1 1 -1 839.82 28.4
1 1 1 887.51 28.3
1 -1 -1 833.02 28.5
1 -1 -1 788.12 28.3
1 1 1 872.11 28.4
-1 -1 1 814.42 28.3
-1 -1 1 814.72 28.1
-1 -1 1 845.52 28.4
1 1 1 890.91 28.4
-1 1 -1 838.72 28.3
1 -1 -1 806.52 28.3
1 1 1 830.02 28.4
-1 1 -1 823.42 28.4
1 1 1 902.21 28.3
-2 1 1 507.45 17
2 -1 1 486.05 16.9
2 1 -1 513.25 17
-2 -1 -1 479.45 16.9
2 1 -1 498.25 16.8
-2 1 1 482.15 16.8
2 1 -1 499.75 17
2 -1 1 468.15 16.9
-2 1 1 480.75 16.9
2 -1 1 486.85 17
-2 -1 -1 487.95 16.7
2 1 -1 504.15 16.8
2 -1 -1 439.06 17
2 1 1 507.15 17.1
-2 -1 1 488.65 16.8
-2 -1 1 506.35 17
2 1 1 518.35 16.7
2 -1 -1 471.55 16.7
-2 1 -1 449.36 16.6
-2 1 -1 494.55 17
2 -1 -1 458.25 16.8
2 1 1 492.65 16.9
2 1 1 500.85 16.7
-2 -1 1 491.75 16.8
-2 1 -1 491.75 16.9
3 1 -1 1672.63 56.39
3 -1 1 1504.25 56.49
-3 1 1 1680.03 56.49
-3 1 1 1679.23 56.19
-3 -1 -1 1618.64 56.49
3 1 -1 1678.53 56.29
-3 -1 -1 1610.64 56.09
3 1 -1 1568.84 56.19
3 1 -1 1783.52 56.59
3 -1 1 1616.94 56.29
-3 1 1 1620.54 56.39
3 -1 1 1686.73 56.29
-3 1 -1 1675.83 55.99
-3 1 -1 1787.32 56.39
3 -1 -1 1558.84 56.19
3 1 1 1631.54 56.39
-3 1 -1 1719.33 56.49
3 1 1 1689.53 56.09
3 -1 -1 1607.94 56.29
-3 -1 1 1661.53 56.19
-3 -1 1 1640.44 56.29
3 1 1 1631.44 56.09
-3 1 -1 1660.83 56.29
3 1 1 1727.83 56.09
3 -1 -1 1580.44 56.19
3 1 1 1756.72 56.59
3 -1 -1 1639.74 56.59
-3 -1 1 1673.63 56.49
4 -1 1 233.08 8.6
4 1 -1 233.08 8.6
-4 1 1 230.88 8.8
4 -1 1 213.38 9.2
4 -1 1 239.98 8.7
-4 1 1 230.18 8.5
-4 1 1 226.48 9
-4 -1 -1 226.28 8.2
4 1 -1 231.28 8.6
4 1 -1 227.28 8.9
4 1 -1 246.98 9.3
-4 -1 -1 224.48 9
-4 -1 1 243.88 9.1
4 -1 -1 220.38 9.3
4 1 1 242.98 8.3
4 -1 -1 229.38 8.6
-4 1 -1 233.28 8.8
-4 -1 1 229.98 8.5
-4 1 -1 235.98 8.8
4 1 1 234.58 9.3
4 1 1 234.58 8.5
4 -1 -1 226.58 8.5
4 1 1 231.98 8.9
-4 -1 1 221.78 8.6
-4 1 -1 233.68 8.1
4 1 1 239.48 8.5
4 -1 -1 233.98 8.8
-4 1 -1 232.28 9
-5 1 1 2.6 1.5
5 1 -1 1.5 1.9
5 -1 1 -2.3 1.7
5 1 -1 2.6 1.4
5 1 -1 0.8 1.1
-5 -1 -1 0.9 1.5
5 -1 1 0.8 1.4
-5 1 1 -2.5 1.4
5 -1 1 0.9 1.2
5 1 -1 1.2 1.5
-5 1 1 2 1.1
-5 -1 -1 0.8 0.8
-5 1 -1 3.1 1.6
-5 -1 1 1.4 1
5 -1 -1 -2.9 1.8
5 -1 -1 1.7 1.5
-5 1 -1 -0.5 1.5
5 1 1 -0.7 1.5
-5 1 -1 -2.3 1.3
-5 -1 1 -1.2 1.3
5 -1 -1 1.8 1.3
5 1 1 1.6 1.8
-5 -1 1 -0.4 1.4
5 1 1 0.6 0.9
5 -1 -1 1.5 1.1
-5 1 -1 2.5 0.7
5 1 1 0.8 1
5 1 1 1.3 1.2
-6 1 1 870.71 32
6 1 -1 905.91 32.2
-6 1 1 918.11 31.3
6 -1 1 887.21 31.6
-6 -1 -1 861.11 31
-6 -1 -1 921.51 32.1
6 -1 1 947.11 31.4
6 1 -1 882.11 31.8
6 -1 1 903.41 32.3
6 1 -1 902.81 31.5
6 -1 -1 938.11 31.3
-6 1 -1 892.71 32.1
6 -1 -1 938.31 32.3
6 1 1 923.81 31.1
-6 1 -1 945.91 31.8
6 1 1 886.11 31.9
6 -1 -1 909.11 31.6
6 1 1 908.81 31.4
6 -1 -1 891.51 31.6
-6 -1 1 888.71 31.3
6 1 1 938.61 32.3
-6 -1 1 885.11 32
7 -1 1 179.68 8.8
7 1 -1 186.38 8.9
-7 -1 -1 178.98 8.4
7 -1 1 177.48 7.9
7 -1 1 190.98 7.5
7 1 -1 187.08 8.1
7 1 -1 195.28 7.8
-7 1 1 173.28 8.3
7 -1 -1 187.48 8
-7 1 -1 188.08 8.1
-7 -1 1 179.98 8.4
-7 -1 1 188.48 7.3
7 1 1 183.08 8.7
7 1 1 182.78 8.1
-7 1 -1 179.28 8.5
7 -1 -1 187.28 7.9
7 1 1 187.68 7.6
7 -1 -1 187.58 8.8
7 -1 -1 181.68 7.3
-8 1 1 57.59 5.2
8 1 -1 63.69 5.9
8 1 -1 67.39 4.5
8 -1 1 68.59 4.9
8 -1 1 63.99 5.7
-8 -1 -1 70.09 5.3
8 1 -1 65.39 5
8 1 1 68.09 5.7
8 -1 -1 71.19 6
8 1 1 54.39 4.5
-8 1 -1 59.49 4.7
-8 -1 1 61.79 5.2
8 -1 -1 72.09 4.9
8 1 1 64.09 4.4
-8 1 -1 62.39 5.3
8 -1 -1 66.49 4.9
9 1 -1 127.19 7
-9 1 1 106.29 7.3
9 -1 1 125.09 6.7
9 -1 1 123.19 8
9 1 -1 121.59 6.4
9 1 -1 127.19 8
-9 -1 -1 126.19 7.5
9 1 1 131.09 6.4
-9 -1 1 120.89 7.2
9 -1 -1 126.79 6.9
9 -1 -1 117.49 7.8
-9 1 -1 114.59 7.4
9 1 1 123.19 8
-9 1 -1 124.49 6.9
10 1 -1 5.6 2.7
-10 1 1 9.4 2.9
-10 -1 -1 10.1 3.2
-10 1 1 8.3 3.1
10 1 -1 11.4 3.7
10 1 -1 6 2.9
10 -1 1 9.4 2.9
10 -1 1 8.8 3.6
10 -1 -1 8 3.7
10 -1 -1 1.2 2.7
10 1 1 3.1 2.5
-10 1 -1 9.5 3
-10 -1 1 6.3 3
10 1 1 3.6 3.5
-10 1 -1 5.4 3.1
11 1 -1 -3.6 2.6
-11 -1 -1 0.8 3
11 -1 1 2.8 3.8
-11 1 1 -0.9 2.9
11 1 -1 0.1 3.6
11 -1 1 6.8 3
11 1 -1 -2 2.9
-11 -1 -1 8.4 3.5
11 -1 -1 4.2 3.8
-11 1 -1 -2.9 2.8
-11 1 -1 7.6 3.3
11 1 1 3.8 3.6
11 1 1 1.7 2.5
-11 -1 1 2.6 3.2
11 -1 -1 0 2.9
0 -2 -1 0 1
0 2 1 0.3 0.7
0 -2 1 0.8 0.8
0 -2 -1 2.7 1
0 2 -1 0.6 0.9
0 2 1 0.9 0.7
0 -2 1 0.8 0.9
0 2 1 2 0.9
0 2 1 0.8 0.7
0 -2 1 0.1 0.9
0 2 -1 -0.4 1
0 2 -1 0.8 1
0 2 1 0.9 1
0 2 -1 0.5 0.9
1 2 -1 869.51 30.4
-1 2 1 897.91 30.5
1 2 -1 935.41 30.4
-1 2 1 862.81 30.6
1 2 -1 861.11 30.4
-1 2 1 874.01 30.5
1 2 -1 833.32 30.7
1 -2 1 848.82 30.4
-1 2 1 937.01 30.7
1 -2 1 932.11 30.5
1 2 -1 957.1 30.7
1 -2 1 832.62 30.5
-1 2 -1 936.31 30.5
1 2 1 900.81 30.5
1 -2 -1 935.71 30.6
1 2 1 893.81 30.5
-1 2 -1 869.91 30.5
-1 -2 1 918.01 30.4
-1 -2 1 907.61 30.5
1 2 1 941.81 30.7
1 -2 -1 887.51 30.6
1 -2 -1 864.11 30.4
-1 2 -1 878.41 30.7
-1 2 -1 846.62 30.5
1 2 1 915.11 30.5
1 2 1 912.61 30.5
-1 -2 1 889.41 30.6
2 -2 1 4544.35 147.09
2 2 -1 4672.93 147.79
2 2 -1 4298.87 147.39
-2 2 1 4244.08 147.19
2 -2 1 4249.88 147.19
-2 2 1 4749.72 148.09
2 2 -1 4450.85 147.59
-2 2 1 4193.68 147.09
2 2 -1 4420.96 147.19
2 2 -1 4625.74 148.49
2 -2 1 3786.52 147.09
-2 2 1 3703.83 147.09
2 2 1 4409.56 147.09
-2 2 -1 4497.95 148.39
2 2 1 4305.17 147.39
-2 2 -1 4426.76 147.29
-2 2 -1 4204.88 147.19
2 2 1 4380.56 147.19
2 -2 -1 4176.18 147.49
2 -2 -1 4228.58 147.69
2 2 1 4817.22 148.39
-2 2 -1 4289.57 147.09
-2 -2 1 4365.06 147.59
2 2 1 4539.05 147.29
2 -2 -1 4260.97 147.09
3 2 -1 81.89 4.2
-3 2 1 76.89 3.7
3 -2 1 77.29 4
3 2 -1 79.99 4.2
3 -2 1 77.49 3.9
-3 2 1 73.69 3.4
3 2 -1 79.89 3.5
3 2 -1 79.79 3.6
3 -2 1 74.49 4.2
-3 2 1 90.29 4.3
-3 2 1 73.69 3.9
-3 -2 -1 77.19 4
-3 -2 -1 75.39 3.5
-3 -2 1 79.19 3.7
3 2 1 83.69 4.1
3 -2 -1 74.29 3.9
3 -2 -1 80.29 4.6
-3 2 -1 72.29 3.3
3 2 1 78.79 4.2
-3 2 -1 85.49 3.8
-3 2 -1 81.59 4.3
3 -2 -1 82.09 4
-3 -2 1 79.29 4.1
-3 2 -1 80.69 4
3 2 1 78.39 3.3
4 2 -1 51.59 3.6
-4 -2 -1 55.29 2.6
4 2 -1 53.79 2.8
4 2 -1 59.49 3.7
4 -2 1 47.1 3.4
-4 2 1 53.29 2.9
-4 2 1 46.7 3.2
-4 -2 -1 51.39 3.4
4 2 -1 49.3 2.9
4 -2 1 51.39 3.2
-4 2 1 52.99 3.6
4 -2 1 46 3.8
-4 2 -1 47.5 3.6
4 2 1 55.39 3.9
4 -2 -1 45.1 3.9
4 -2 -1 54.29 3.4
-4 2 -1 50.09 2.5
4 2 1 49.9 3.3
4 -2 -1 46.3 3.1
4 2 1 52.99 2.5
4 2 1 55.89 2.5
-4 -2 1 49.8 3.5
-4 2 -1 52.49 3.2
-4 -2 1 49.6 2.8
-4 2 -1 46.8 3.3
4 2 1 55.79 2.7
5 2 -1 724.73 24.9
5 -2 1 718.03 25.6
-5 -2 -1 689.23 24.8
-5 2 1 711.93 24.9
5 2 -1 706.33 25.4
5 2 -1 734.03 25.6
-5 -2 -1 712.73 25.5
5 2 -1 686.43 24.9
5 -2 1 703.53 25.2
-5 2 1 758.22 25.7
5 -2 1 761.52 25.2
-5 2 1 697.43 25.3
-5 -2 1 718.93 25
5 2 1 712.03 24.8
5 2 1 717.93 24.8
5 2 1 722.53 24.7
5 -2 -1 727.23 25
5 -2 -1 714.43 25.7
-5 -2 1 730.33 25.6
-5 2 -1 753.32 25.2
-5 2 -1 753.12 25.3
5 -2 -1 697.13 25.2
5 2 1 766.12 25.7
-5 2 -1 675.63 24.6
-5 2 -1 701.13 25.6
5 2 1 701.23 25.3
-6 -2 -1 95.69 5.4
6 2 -1 103.19 5.3
-6 2 1 95.09 5.5
6 -2 1 103.99 5.8
6 -2 1 89.59 5.1
-6 2 1 91.79 4.6
-6 2 1 99.39 4.5
6 2 -1 100.49 4.7
6 2 -1 99.59 5.8
-6 -2 -1 91.19 4.1
-6 2 1 99.39 5.3
6 -2 1 95.29 4.8
6 -2 -1 100.89 4.6
6 2 1 96.39 4
-6 -2 1 101.49 4.5
-6 2 -1 100.69 5.6
-6 -2 1 92.99 5.4
6 2 1 104.59 5.8
6 2 1 93.09 4.4
-6 2 -1 104.99 5
6 -2 -1 86.29 5.8
6 -2 -1 89.99 5.1
6 2 1 88.29 5.1
7 2 -1 2.7 1.9
7 -2 1 5.2 2.8
7 -2 1 4.9 1.7
-7 2 1 3.7 1.9
-7 -2 -1 1.3 2.2
7 2 -1 5.2 2.7
7 2 -1 2.8 2.2
-7 2 1 1.8 2.3
7 -2 1 -3.5 2.1
7 -2 -1 2.2 2.1
-7 -2 1 3.1 1.5
7 2 1 2.1 2.5
7 2 1 2.8 1.8
-7 2 -1 2.3 2.1
7 2 1 2.6 2.3
7 -2 -1 2.7 1.6
-7 -2 1 3.6 2.3
-7 2 -1 2.8 2.3
7 -2 -1 5.5 2.8
-8 -2 -1 5.6 2.5
8 2 -1 4.9 2.9
8 2 -1 5.9 2.1
-8 2 1 3.4 2.1
8 2 -1 1.8 2.4
8 -2 1 1.2 2.3
-8 2 1 4.1 2.5
8 -2 1 2.8 1.8
8 -2 1 3.6 3.1
8 -2 -1 1 2.9
-8 2 -1 0.6 2.4
8 -2 -1 2.1 2.4
8 2 1 0.9 1.9
-8 2 -1 4 2.4
8 2 1 2.2 2.4
-8 -2 1 5 2.4
8 2 1 3.9 2.9
-9 -2 -1 46 4.4
9 -2 1 37.9 4.6
9 2 -1 46.5 4.2
9 -2 1 38.2 3.9
9 2 -1 40.8 3.5
9 2 -1 43.6 4.7
-9 2 1 37.7 4.2
-9 2 1 41.6 3.7
9 -2 -1 45.1 5
-9 2 -1 38.2 4.3
9 2 1 40.3 4.2
9 2 1 43.9 3.4
-9 -2 1 43.4 4.4
9 2 1 39.6 4.6
-9 2 -1 50.09 4.2
9 -2 -1 40.7 4.1
10 -2 1 26.9 4.5
-10 2 1 31.7 4.2
10 2 -1 27.3 3.9
10 2 -1 27.8 4.5
-10 -2 -1 30.3 4.2
10 2 -1 27.4 3.3
10 -2 1 36.2 3.9
-10 2 -1 24.6 4.1
10 2 1 29 4
10 -2 -1 26.5 3.7
-10 2 -1 29.3 3.8
10 -2 -1 26.2 4.7
10 2 1 33.1 4.5
10 2 1 31.6 3.3
-10 -2 1 27.2 4
11 2 -1 7.7 3.9
-11 -2 -1 11.9 3.5
11 2 -1 7.2 3.4
11 2 -1 16.6 3.1
-11 2 1 12.8 3.8
11 -2 1 13.6 3.3
11 -2 1 9.9 4.3
-11 -2 1 10.1 3.6
11 -2 -1 7 3.3
11 2 1 9.3 2.9
11 -2 -1 11 4.3
-11 2 -1 6.9 3.5
11 2 1 6.5 3.9
0 -3 -1 57.29 2.9
0 3 1 63.19 3.1
0 -3 -1 54.29 2.8
0 3 1 56.59 2.6
0 3 -1 55.39 2.8
0 -3 1 54.59 2.8
0 3 -1 46.8 3.3
0 3 1 62.79 2.6
0 3 1 59.89 2.5
0 -3 1 54.99 2.8
0 -3 1 58.29 3
0 3 1 57.19 3.3
0 3 -1 59.19 3
0 3 -1 52.69 2.8
-1 -3 -1 5569.64 188.58
1 3 -1 5746.23 188.98
1 3 -1 6135.79 190.48
1 3 -1 4983.6 188.78
1 -3 1 5631.54 188.38
-1 3 1 5999.9 190.18
1 -3 1 5598.04 189.28
-1 3 1 6305.67 190.68
-1 3 1 4964.6 188.48
1 3 -1 5748.12 189.68
1 -3 1 5379.36 188.58
-1 3 1 5356.46 188.48
-1 3 -1 5643.84 189.58
-1 3 -1 4782.22 188.78
1 3 1 6097.19 189.18
1 -3 -1 5648.73 189.18
-1 3 -1 5492.05 189.08
1 3 1 5883.61 189.58
1 3 1 5788.22 189.38
-1 -3 1 5489.45 188.98
1 -3 -1 5523.35 189.28
-1 3 -1 5334.07 188.58
1 3 1 5591.74 188.78
-1 -3 1 5640.14 189.58
1 -3 -1 5318.27 188.48
2 3 -1 138.29 5.3
2 -3 1 129.79 5.5
2 3 -1 140.69 5.9
2 3 -1 134.89 5.1
2 3 -1 131.19 5.2
-2 3 1 138.39 5.5
2 -3 1 122.59 5.4
-2 3 1 129.69 5.5
2 3 -1 127.19 5.8
-2 3 1 137.19 5.9
-2 3 1 132.89 4.9
-2 3 -1 140.29 5.6
-2 3 -1 133.99 5.4
2 -3 -1 131.59 5.7
2 3 1 139.89 5.5
-2 -3 1 134.29 5
2 -3 -1 123.99 5.7
2 -3 -1 135.69 5.5
2 3 1 137.49 5.5
-2 -3 1 133.49 5.5
2 3 1 139.79 5.6
2 3 1 136.49 5.2
2 3 1 132.39 5.8
-2 3 -1 125.59 5.8
-2 3 -1 137.59 5.4
3 3 -1 548.45 17.9
3 -3 1 529.75 18
3 3 -1 528.35 18.1
-3 3 1 546.55 18.2
-3 -3 -1 513.55 17.8
3 3 -1 499.85 17.5
3 3 -1 478.45 18.1
-3 3 1 474.05 17.8
3 3 -1 515.75 17.6
3 -3 1 515.05 17.9
3 -3 1 467.05 17.9
-3 3 1 509.95 17.4
-3 3 -1 435.86 17.6
3 -3 -1 498.15 17.9
3 -3 -1 445.76 18
-3 3 -1 514.35 17.7
-3 3 -1 514.05 18.2
3 3 1 526.25 17.5
-3 -3 1 506.05 17.9
3 3 1 529.25 18
3 3 1 543.35 18.2
3 -3 -1 492.85 17.9
3 3 1 499.55 17.9
-4 -3 -1 21.7 2.3
-4 3 1 31.6 2.7
-4 3 1 24.7 2.2
-4 3 1 25.3 2
4 3 -1 32.2 2.6
4 3 -1 29.8 2.3
4 -3 1 26.6 2.4
4 -3 1 32.4 2.5
4 -3 1 29.2 2.7
4 3 -1 30.3 2.5
-4 3 1 25 2.1
4 3 -1 31.5 2
-4 -3 -1 29.3 2.2
-4 3 -1 21.1 2.4
4 3 1 34.1 2.6
-4 -3 1 23.9 2.3
4 -3 -1 30.4 2.4
-4 -3 1 30.4 2.5
4 -3 -1 26 2.2
4 3 1 37.5 3.1
-4 3 -1 25.5 2.3
4 -3 -1 22.6 2.6
4 3 1 27.8 1.9
-4 3 -1 29.4 2.6
-4 3 -1 31.7 2.2
5 3 -1 41.7 2.7
-5 -3 -1 41.1 2.6
-5 3 1 45.3 3.8
5 -3 1 41.8 3.9
5 3 -1 42.2 3.6
5 3 -1 37.1 2.7
5 -3 1 46.8 3.5
-5 -3 -1 38.3 3.4
-5 3 1 37.7 3
-5 3 1 38.1 2.6
-5 3 1 40.1 2.9
5 -3 1 44.2 3.3
5 3 -1 42.3 3.7
5 -3 -1 40.3 3.3
5 3 1 41.5 2.4
5 3 1 33.3 2.9
-5 3 -1 44 3.2
5 -3 -1 36.1 2.9
5 3 1 41.8 2.3
-5 3 -1 41.1 3
-5 3 -1 41.1 3.8
-5 3 -1 37.5 2.5
-5 -3 1 40.8 2.8
-5 -3 1 44.7 3.5
5 -3 -1 40.2 3.5
5 3 1 47.7 3.8
5 3 1 39.4 2.3
6 3 -1 39.8 3
-6 -3 -1 35 2.7
-6 3 1 41.8 3.1
6 -3 1 33.5 2.9
-6 3 1 38.3 3.1
-6 3 1 39.7 3.5
-6 -3 -1 40.7 3.5
6 3 -1 44.8 3.8
6 -3 1 37.3 3.7
6 -3 1 39.8 3.2
-6 3 1 34.3 3.5
6 3 -1 39.5 3.5
6 3 1 37.5 3.5
6 3 1 39.5 2.7
-6 -3 1 35.8 3.3
6 -3 -1 37.8 3.3
6 -3 -1 45 4.1
6 3 1 36.8 3.2
6 -3 -1 31.4 2.8
-6 -3 1 39.4 3
-6 3 -1 38.6 3.4
-6 3 -1 34.8 3.5
-7 3 1 418.66 17
-7 3 1 434.16 16
7 3 -1 441.06 15.9
7 -3 1 454.75 16.5
7 -3 1 416.66 17
-7 -3 -1 439.16 16.9
7 3 -1 438.86 16.8
7 -3 1 440.36 16.2
7 3 -1 445.26 16.9
7 3 1 445.56 15.7
-7 -3 1 442.86 16
7 3 1 445.06 16.7
-7 -3 1 445.76 16.9
7 -3 -1 432.06 17.2
-7 3 -1 430.06 17
-7 3 -1 439.86 16.3
7 3 1 431.16 16.9
7 -3 -1 445.36 16.5
7 -3 -1 435.86 16.1
8 3 -1 114.19 6.7
8 3 -1 113.59 7.1
8 -3 1 123.79 7.6
8 -3 1 118.29 6.5
-8 -3 -1 119.59 6.9
8 -3 1 105.69 5.8
8 3 -1 101.39 5.6
-8 3 1 111.39 7
-8 3 -1 119.69 6.1
8 -3 -1 109.69 5.8
-8 3 -1 108.29 7.1
8 3 1 107.59 5.4
8 -3 -1 107.89 6.4
8 -3 -1 123.09 7.5
8 3 1 109.99 7
8 3 1 105.69 6.5
-8 -3 1 106.29 6.8
9 3 -1 147.99 7.2
9 3 -1 156.78 8.2
-9 -3 -1 144.59 8.5
9 -3 1 174.38 9.2
9 3 -1 158.68 8.7
-9 3 1 152.28 8.7
9 -3 1 155.78 8
9 3 1 158.68 8.3
9 -3 -1 149.88 8
9 3 1 156.18 8.7
-9 3 -1 147.29 7.6
-9 -3 1 168.18 8.7
9 -3 -1 163.58 9.2
9 3 1 156.58 6.9
-9 3 -1 144.69 8.6
-10 -3 -1 13.6 3.4
10 3 -1 13.3 2.8
10 3 -1 8.9 3.2
10 -3 1 6.3 3.8
10 3 -1 9.2 3.6
10 -3 1 11 3.1
-10 3 1 5.5 3.2
-10 -3 1 8.2 3.3
10 3 1 14.1 3.5
10 3 1 10.9 3.7
10 -3 -1 8.3 3.8
10 3 1 8.4 2.3
-10 3 -1 11.8 3.5
-11 -3 -1 5.6 3.3
11 -3 1 7.1 4.2
-11 3 1 8.6 4
11 3 -1 3.5 3.3
11 3 -1 7.1 2.8
11 3 -1 2.2 3.6
11 -3 1 2.2 3
-11 -3 1 4.1 3.5
11 -3 -1 2.5 4.1
11 3 1 -1.7 3.1
-11 3 -1 2.2 3.4
11 3 1 -0.8 3.5
11 3 1 7.1 2.6
0 -4 1 -1.3 1.5
0 4 1 0.4 1.3
0 4 -1 -0.5 1.5
0 4 1 1.6 1.3
0 -4 1 2 1.5
0 4 1 0.6 1.2
0 4 -1 0.7 1.4
0 4 1 -0.8 1.8
0 4 -1 -3.2 1.7
0 4 -1 2.3 1.4
0 -4 -1 0.6 1.6
0 4 1 -2.2 1.5
0 -4 -1 -1.3 1.4
1 -4 1 291.07 10.7
-1 4 1 290.47 10.6
-1 4 1 280.37 10.9
1 4 -1 299.87 10.9
-1 -4 -1 296.17 10.8
1 4 -1 274.87 11.1
1 4 -1 299.27 10.5
-1 4 1 277.77 10.3
-1 4 1 312.87 10.6
1 -4 1 284.07 10.9
-1 4 1 304.07 11.3
1 4 -1 301.47 10.6
-1 4 -1 298.47 10.9
-1 4 -1 287.57 10.7
-1 4 -1 296.27 10.8
1 4 1 304.67 11.2
-1 4 -1 294.07 11.3
-1 -4 1 293.57 10.9
1 4 1 300.97 10.9
1 -4 -1 270.67 10.9
1 4 1 300.57 10.7
1 -4 -1 295.37 10.7
-1 -4 1 304.37 10.7
2 4 -1 4.2 1.2
-2 4 1 1.4 1.8
2 -4 1 5.2 1.4
-2 -4 -1 1.7 1.3
-2 4 1 2 1
2 4 -1 0.7 1.5
-2 4 1 3 1.4
-2 4 1 1.4 1.6
2 4 -1 1.8 1.1
-2 4 1 3.3 1.5
2 4 -1 2 1
2 -4 1 4.3 1.5
2 4 -1 4.4 1.7
2 -4 1 3.3 1.6
-2 -4 1 3.5 1.6
2 4 1 1.4 1.3
2 4 1 3.2 1.6
2 4 1 2.9 1.5
-2 4 -1 2.1 1.4
-2 4 -1 2 1.4
-2 4 -1 0.8 1.5
2 -4 -1 -0.1 1.4
2 4 1 4.4 1.6
2 -4 -1 0.1 1.6
-2 4 -1 1.6 1.5
-2 -4 1 2.3 1.2
2 -4 -1 -0.8 1.6
3 4 -1 26.9 2.4
3 -4 1 22.5 2.3
3 -4 1 25.2 2.3
3 4 -1 26.6 1.9
-3 4 1 23.2 2.1
3 4 -1 27.7 2.4
3 4 -1 28.7 2.1
-3 4 1 21.3 2.1
-3 4 1 26.9 1.8
3 -4 1 23.6 2.2
-3 -4 -1 25 2.2
-3 4 1 23.8 2.4
3 4 -1 28.5 2.5
3 -4 -1 23.1 2.4
3 4 1 26.8 2.2
3 -4 -1 22.7 2.1
-3 4 -1 27.9 2
3 4 1 28.7 2.3
-3 4 -1 26.2 2.1
-3 4 -1 24.7 2.2
-3 -4 1 22.3 1.8
-3 -4 1 23.7 2.2
-3 4 -1 18.4 2.2
3 -4 -1 23.6 2.4
3 4 1 27.5 2.5
-4 4 1 20.3 2.1
4 4 -1 20.7 2.2
-4 -4 -1 20.1 2
4 -4 1 20.9 2.2
4 4 -1 18.4 2.4
4 -4 1 19 2.3
4 -4 1 23.3 2.4
4 4 -1 18.4 2.3
4 4 -1 22.8 1.7
4 4 -1 19.5 1.7
-4 4 1 16.9 2.3
-4 4 1 16.5 2.1
-4 4 1 20.2 1.6
4 4 1 22 2.4
4 4 1 24.5 2.3
4 4 1 18.3 2.2
-4 4 -1 17.7 2.1
-4 4 -1 17.2 2.3
4 -4 -1 16.8 2.3
4 -4 -1 14.8 2
-4 4 -1 17.8 1.9
4 -4 -1 18.4 2.3
-4 -4 1 18 2
-4 4 -1 17.6 1.9
5 -4 1 1.1 1.8
5 -4 1 -0.9 2
5 -4 1 1.7 2.1
-5 4 1 2.5 1.6
-5 4 1 0.5 1.3
-5 -4 -1 -0.3 1.6
5 4 -1 1.3 1.3
5 4 -1 1.5 1.8
-5 -4 -1 -0.2 1.4
-5 4 1 0.7 1.8
5 4 -1 1.4 2
-5 4 1 1.6 2
5 -4 -1 3.5 2.4
-5 4 -1 0.4 2
5 -4 -1 4.8 2
-5 -4 1 4.3 1.8
5 4 1 0.9 1.9
5 -4 -1 1.3 1.9
-5 -4 1 -0.3 1.5
5 4 1 0.2 1.8
-5 4 -1 2.5 1.6
5 4 1 1.9 1.1
-5 4 -1 2.3 2
-5 4 -1 0.9 1.4
6 -4 1 188.28 8.7
-6 4 1 198.18 8.4
6 4 -1 193.28 7.4
6 -4 1 183.68 8.2
6 4 -1 177.58 8.4
6 -4 1 190.48 8.1
6 4 -1 188.28 8.4
-6 -4 -1 189.38 7.6
-6 4 1 191.18 8.8
-6 -4 -1 188.58 8.6
-6 4 1 192.08 7.8
6 4 1 184.18 8.4
-6 4 -1 183.48 8.8
-6 4 -1 186.48 9.1
-6 4 -1 193.88 7.9
-6 -4 1 190.38 8.6
6 4 1 186.18 8.3
6 -4 -1 177.18 8.9
6 -4 -1 179.38 8.1
-6 -4 1 191.58 7.8
7 -4 1 2.4 3
7 -4 1 2.6 2.2
-7 -4 -1 -2.1 2.1
-7 4 1 -2 2.4
7 4 -1 3 1.7
7 -4 1 0.5 2.4
7 4 -1 1.2 2.4
7 4 -1 -0.2 2.3
-7 -4 1 -0.3 1.7
7 -4 -1 2.1 2.1
7 -4 -1 6.3 3
-7 4 -1 1.7 2.1
-7 4 -1 4.2 2.5
7 4 1 1.2 2.4
-7 -4 1 -0.1 2.1
7 4 1 3.1 2.3
8 -4 1 26.8 4
-8 -4 -1 16.9 3.2
-8 4 1 23.9 3.7
8 -4 1 19.2 2.8
8 4 -1 21.9 3.4
8 4 -1 22 3.4
8 -4 1 22.6 3.2
8 4 -1 18.2 2.4
8 4 1 19.2 3.3
8 -4 -1 20.5 3.8
8 -4 -1 20.8 2.8
-8 4 -1 18.1 3.4
8 4 1 22.9 3.3
8 4 1 21.9 2.3
-8 -4 1 19.2 3.3
9 4 -1 125.39 7.7
9 4 -1 130.19 6.2
9 -4 1 140.19 8.4
9 4 -1 124.29 7.9
-9 4 1 122.69 8
9 -4 1 116.49 6.7
-9 -4 -1 139.89 8.1
-9 4 -1 116.79 7.8
9 -4 -1 135.89 8.5
9 4 1 133.99 6
9 4 1 129.89 7.9
9 4 1 131.99 7.5
-9 -4 1 134.19 8.1
10 4 -1 20.8 2.9
10 -4 1 14.9 4.1
-10 -4 -1 21.2 4
-10 4 1 16.7 3.9
10 4 -1 13.2 3.5
10 4 -1 22.4 4
-10 4 -1 21.9 4.1
10 4 1 17.2 3.7
10 4 1 17.2 2.5
10 4 1 13.7 3.5
-10 -4 1 22.6 4
10 -4 -1 20.9 4.5
11 4 -1 53.49 5.8
11 -4 1 54.79 6.4
11 -4 -1 56.09 7.5
11 4 1 48.6 5.7
0 5 1 300.27 11.5
0 5 1 307.27 11
0 5 -1 296.97 11
0 5 1 319.17 11.8
0 5 -1 308.97 11.3
0 -5 1 314.67 11.3
0 5 -1 301.07 11.8
0 -5 -1 304.07 11.3
0 5 1 319.37 10.9
0 5 1 306.77 10.9
0 -5 1 320.47 11.5
0 5 -1 276.17 11.1
0 -5 -1 298.07 11
1 5 -1 75.39 4
-1 -5 -1 69.99 3.8
1 5 -1 75.69 4.4
1 5 -1 74.59 3.5
-1 5 1 67.99 3.3
-1 5 1 72.79 4.4
1 5 -1 72.39 3.5
-1 5 1 69.29 3.5
1 -5 1 72.59 4
-1 5 1 67.99 3.5
-1 5 1 72.79 3.9
1 -5 1 68.09 3.7
1 -5 -1 70.59 3.6
-1 -5 1 78.19 4
-1 5 -1 69.49 3.7
-1 -5 1 73.99 3.7
1 5 1 71.79 4.3
-1 5 -1 72.89 3.8
1 5 1 80.29 4.1
1 5 1 74.39 3.7
-1 5 -1 68.19 4.4
-1 5 -1 71.89 3.8
1 -5 -1 78.19 4.2
2 -5 1 21 2.1
2 5 -1 22.1 2.3
2 5 -1 23.7 1.8
-2 5 1 22.6 1.6
-2 5 1 20.2 2.2
-2 5 1 16.8 1.9
-2 -5 -1 19 1.9
-2 5 1 22.9 2.6
2 5 -1 18.9 2.4
-2 5 1 19.1 2.4
2 5 -1 22.6 1.7
2 -5 1 24.2 2
2 -5 1 12.7 2
2 -5 -1 20.5 2.1
2 -5 -1 21.2 2.4
-2 -5 1 22.4 1.9
-2 5 -1 16.8 2.4
-2 5 -1 20.7 2.2
-2 -5 1 16.9 2.2
2 -5 -1 21.2 2
2 5 1 21.1 1.8
2 5 1 22.3 2.1
-2 5 -1 22.2 2.2
2 5 1 16.7 2.3
-2 5 -1 20.6 2
3 5 -1 172.18 7.3
3 5 -1 166.58 6.5
3 -5 1 161.18 6.8
3 5 -1 178.68 7.6
-3 5 1 163.98 7.5
-3 5 1 161.28 7
-3 5 1 160.48 6.3
-3 -5 -1 174.88 7.2
-3 5 1 175.68 7.2
3 5 -1 171.38 6.6
3 -5 1 165.88 7.1
3 5 -1 168.48 6.4
3 -5 1 160.48 7.1
-3 -5 -1 174.38 6.7
3 -5 -1 180.48 7.4
3 5 1 184.38 7.5
-3 5 -1 154.48 6.9
-3 5 -1 169.78 7.1
-3 -5 1 173.88 7.2
-3 5 -1 162.68 7.4
3 5 1 171.68 6.8
3 -5 -1 154.18 7.1
3 5 1 182.98 7.1
-3 5 -1 181.18 6.8
-3 -5 1 170.68 6.5
4 5 -1 44.6 3.2
-4 5 1 38.3 3.4
4 5 -1 38.9 2.6
4 -5 1 46.6 3.7
4 -5 1 39.7 3.5
4 5 -1 40.4 2.7
-4 -5 -1 43.9 2.8
-4 5 1 41.4 3.2
4 -5 1 44.2 3.4
4 5 -1 34.5 3.2
4 5 -1 39.4 3.4
-4 -5 -1 49.1 3.5
-4 5 1 50.09 3.6
-4 -5 1 43.7 3.5
-4 5 -1 41 3.2
4 -5 -1 47 3.9
-4 5 -1 36.6 2.9
-4 5 -1 42.7 3.2
4 5 1 34.4 3.2
-4 5 -1 43.5 4
4 -5 -1 36.4 3.2
4 5 1 50.59 3.4
4 5 1 42.1 3.6
-5 5 1 4.6 2.1
5 5 -1 5.3 2
-5 5 1 4.6 2
5 -5 1 3.4 2.3
-5 -5 -1 5.1 1.9
5 5 -1 2 2.2
-5 5 1 1.7 2.2
5 5 -1 3.8 1.4
5 -5 1 0.9 2.1
5 -5 -1 4.4 2.2
5 -5 -1 8.2 2.5
-5 -5 1 2.2 1.8
-5 5 -1 2.6 2.2
-5 5 -1 4.9 2.3
5 5 1 5 2.2
5 5 1 3.5 2
-5 5 -1 3.7 1.8
-5 5 -1 4.7 1.9
-6 -5 -1 10.9 2.5
-6 5 1 6.9 2.8
-6 -5 -1 9.3 2.1
-6 5 1 10.3 2.7
6 5 -1 10.5 2.4
6 -5 1 12.4 2.9
6 -5 1 8.9 2.4
6 5 -1 12.8 2.8
6 5 -1 8.4 1.7
-6 5 1 10.1 2.2
-6 5 -1 9.3 2.2
-6 -5 1 8.6 2.5
6 -5 -1 8.7 2.5
6 5 1 8.7 2.5
-6 5 -1 10.9 2.8
-6 -5 1 10.4 2.2
-6 5 -1 10 2.5
6 -5 -1 11.3 3.1
6 5 1 10.1 2.6
7 5 -1 31 3.5
-7 5 1 35.6 4.1
7 5 -1 34.3 2.7
7 -5 1 33.1 4
7 -5 1 32.5 3.5
7 5 -1 29.7 3.6
-7 -5 -1 31.5 3.5
7 -5 -1 29.3 3.4
7 -5 -1 29 4
-7 5 -1 27.4 3.9
-7 -5 1 29.6 3.7
7 5 1 34.2 3.7
7 5 1 35.4 3.7
-7 -5 1 32.8 3.1
8 -5 1 1.6 2.4
8 5 -1 4.9 2.7
-8 5 1 4.2 3
8 -5 1 6 3.2
8 5 -1 7.4 3
8 5 -1 5.6 2
-8 -5 -1 4.3 2.8
8 -5 -1 -1.8 2.2
8 5 1 8.3 2.8
8 -5 -1 7.4 3.3
-8 5 -1 6.9 3.1
8 5 1 5.8 2.8
-8 -5 1 5.6 2.7
-9 -5 -1 5.9 3
-9 5 1 7.3 3.3
9 -5 1 3.3 3.3
9 5 -1 2.4 2.8
9 5 -1 2.1 2.9
9 5 -1 3.8 2
9 -5 1 -0.8 2.4
9 5 1 -2.6 2.8
9 -5 -1 -0.5 2.5
9 -5 -1 3.4 3.5
-9 -5 1 1.2 2.8
-9 5 -1 3.8 3.2
9 5 1 7.2 3.1
10 -5 1 13.6 4
10 5 -1 12 2.5
-10 -5 -1 11.1 3.8
10 5 -1 10.6 3.6
10 5 -1 9.5 3.4
-10 5 1 9.6 3.7
10 5 1 9.6 3.4
10 5 1 9.9 3.6
-10 5 -1 10.2 3.8
10 -5 -1 11.9 4.2
-10 -5 1 12.6 3.7
0 6 1 -0.3 1.4
0 6 1 2.4 1.3
0 -6 1 0.1 1.6
0 -6 -1 -2.6 1.3
0 6 -1 -0.1 1.6
0 6 1 -4.3 1.8
0 6 -1 -2.1 1.9
0 6 1 -0.6 1.7
0 6 1 0.6 1.3
0 -6 1 -2.8 1.6
0 6 -1 0.1 1.4
0 -6 -1 0.4 1.7
-1 6 1 90.69 5
-1 -6 -1 96.09 4.8
-1 6 1 86.99 4.2
1 6 -1 97.19 5.4
-1 6 1 96.59 4.5
1 6 -1 93.29 4.4
1 6 -1 97.39 4.9
-1 6 1 95.99 5.4
1 -6 1 96.29 5
1 6 1 99.89 5.2
-1 6 -1 94.19 4.7
-1 6 -1 99.89 4.7
-1 6 -1 97.79 5.6
1 -6 -1 90.89 5.1
1 -6 -1 90.79 4.3
-1 -6 1 96.99 5
1 6 1 88.09 5.3
1 6 1 98.09 4.7
-1 -6 1 97.09 4.7
2 -6 1 110.69 5.7
-2 6 1 106.49 4.7
2 6 -1 105.69 4.8
2 6 -1 121.39 6.1
-2 -6 -1 107.79 5.1
-2 6 1 111.29 5.2
2 6 -1 106.59 5.6
-2 6 1 112.99 6.1
-2 6 1 99.99 5.5
-2 6 -1 114.79 6.1
2 -6 -1 111.99 5.7
-2 -6 1 118.59 5.6
-2 6 -1 111.19 5.4
-2 6 -1 109.29 5.5
2 6 1 107.29 5.9
2 -6 -1 113.79 5.1
-2 -6 1 116.59 5.1
2 6 1 113.49 5.3
-2 6 -1 114.79 5.1
-3 -6 -1 196.98 7.8
-3 -6 -1 177.98 7.2
-3 6 1 162.48 8.1
-3 6 1 184.68 7.6
3 6 -1 170.78 6.8
3 6 -1 166.58 7.8
-3 6 1 173.08 7.8
3 -6 1 189.68 7.9
3 6 -1 169.68 8.1
-3 -6 1 187.28 7.8
3 6 1 186.48 8.2
-3 6 -1 183.88 7.8
-3 6 -1 184.08 7.3
3 -6 -1 163.88 7.5
-3 6 -1 186.28 8.3
-3 6 -1 177.18 7.6
3 6 1 176.78 7.6
-3 -6 1 177.88 7.1
3 -6 -1 160.08 7.9
3 6 1 180.18 7.2
4 -6 1 102.49 5.3
4 6 -1 111.29 6.1
4 6 -1 108.09 4.7
-4 6 1 105.09 6.2
4 6 -1 92.99 5.7
-4 6 1 98.69 5.8
-4 -6 -1 111.49 5.6
-4 6 1 108.59 5.7
4 -6 1 104.69 5.9
-4 -6 -1 102.59 4.9
-4 -6 1 103.79 5.6
-4 6 -1 105.29 6.2
4 -6 -1 108.79 6
-4 6 -1 104.99 5.2
4 6 1 112.49 5.3
-4 6 -1 108.19 5.9
4 6 1 109.29 6
-4 6 -1 104.49 5.4
4 6 1 110.89 5.7
4 -6 -1 95.69 5.7
5 6 -1 35 3.6
5 -6 1 31.1 3.3
5 6 -1 34.2 3.6
-5 6 1 28.2 3.5
5 6 -1 39.1 2.9
-5 -6 -1 44.5 3.5
-5 6 1 42.6 3.7
5 -6 1 39.3 3.7
-5 6 1 36.9 3.3
5 -6 -1 38.3 3.7
5 6 1 34.7 3.2
5 6 1 31.4 3.4
5 -6 -1 34.8 3.6
-5 6 -1 34.4 3.5
-5 6 -1 39.8 3.2
-5 6 -1 39 3.9
5 6 1 40.7 3.6
-5 -6 1 42.4 3.5
6 -6 1 16.4 3
-6 6 1 19.3 2.7
-6 -6 -1 16.1 2.6
6 -6 1 14.8 3
-6 6 1 15.9 3.2
6 6 -1 19.5 3.2
6 6 -1 18.7 2
-6 -6 -1 15.3 2.9
-6 6 1 22.9 3.2
6 6 1 15.9 3
6 -6 -1 15.6 3.2
6 -6 -1 19.2 3.1
-6 6 -1 15.7 3.3
-6 -6 1 19.4 3.1
-6 6 -1 22.8 3.1
-6 -6 1 12.6 2.5
6 6 1 14.6 2.7
7 -6 1 34.4 3.7
-7 -6 -1 26.8 3.6
-7 6 1 31.4 4.1
7 -6 1 32.1 4
7 6 -1 36 3.9
7 6 1 32 3.6
-7 -6 1 33.3 4
7 -6 -1 30.2 3.6
-7 6 -1 32.3 4.1
7 6 1 36.5 3.9
-7 -6 1 33.6 3.3
7 -6 -1 35.2 4.2
-8 6 1 1.4 3
8 6 -1 2.7 1.8
8 6 -1 4.3 2.9
8 -6 1 3 3.1
-8 -6 -1 4 2.7
8 -6 1 -0.2 2.7
8 6 1 4.7 2.7
-8 -6 1 1.1 2.6
8 6 1 -1 2.6
8 -6 -1 6.5 3.4
8 -6 -1 7.9 2.8
-8 6 -1 2.7 3
-9 -6 -1 59.89 5.5
9 -6 1 62.69 5.1
9 6 -1 54.49 3.9
9 6 -1 49.2 5
-9 6 1 51.79 5.5
-9 -6 1 55.29 5.3
9 6 1 51.29 5.4
9 -6 -1 51.99 5.5
9 6 1 61.59 5.4
-9 6 -1 57.49 5.7
9 -6 -1 50.49 4.6
10 -6 -1 4.2 4.1
0 7 -1 4.4 2.1
0 7 -1 0.5 2.3
0 7 1 4 2.2
0 7 1 -0.8 2.3
0 -7 1 2.9 2
0 7 1 -0.2 1.6
0 7 -1 4.5 1.8
0 -7 -1 6.1 2.2
0 7 1 5.9 1.7
0 -7 1 7.9 2.2
1 7 -1 687.13 24.7
-1 7 1 693.03 24.3
1 7 -1 720.23 25.4
1 7 -1 679.03 24.2
-1 -7 -1 703.73 24.7
-1 7 1 647.44 25.3
1 -7 1 678.13 24.9
-1 7 1 701.33 25
1 -7 1 690.33 24.8
-1 7 -1 662.93 25.4
-1 -7 1 705.43 24.6
1 -7 -1 706.43 24.9
1 7 1 710.73 25
-1 -7 1 693.23 25
-1 7 -1 670.23 24.5
-1 7 -1 714.63 24.5
1 7 1 692.53 25.3
1 7 1 695.03 24.5
2 7 -1 16.6 2.6
2 7 -1 26 3.3
-2 7 1 17.7 2.7
2 7 -1 21.2 2.2
-2 -7 -1 18 2.4
2 -7 1 12.6 2.6
-2 -7 -1 20.8 2.9
-2 7 1 22.9 2.5
-2 7 1 13.7 2.9
2 7 1 17.9 2.5
2 -7 -1 16.2 2.8
-2 7 -1 17.1 2.5
2 7 1 17 3
-2 -7 1 20.5 2.9
-2 -7 1 15.8 2.4
-2 7 -1 16 3.1
-2 7 -1 16.5 2.4
-3 7 1 74.59 5.2
-3 7 1 69.19 5.7
-3 -7 -1 79.69 4.5
-3 7 1 70.89 4.9
3 7 -1 75.19 5.4
3 -7 1 79.99 5.3
3 7 -1 68.19 3.8
3 7 -1 73.89 4.9
-3 -7 -1 79.99 5.1
-3 7 -1 66.89 5.5
3 7 1 76.29 4.7
-3 -7 1 74.29 4.3
-3 -7 1 76.39 5.1
3 -7 -1 79.89 5.4
-3 7 -1 73.79 5.1
3 7 1 80.59 5.4
-4 7 1 6.8 2.4
-4 7 1 9.1 2.4
-4 -7 -1 7.9 2.4
4 7 -1 5.1 2.5
4 -7 1 7.5 2.7
4 7 -1 7 2.6
-4 7 1 9.3 2.7
-4 7 -1 2.5 2.6
4 7 1 9 2.6
4 7 1 5.8 2.3
-4 -7 1 7 2.4
-4 7 -1 7.9 2.5
4 -7 -1 4.2 2.6
-4 7 -1 2.9 2.2
-5 -7 -1 58.79 4.6
-5 7 1 54.09 4.2
-5 7 1 51.99 4.7
5 7 -1 45.8 4.3
5 -7 1 48.6 4.3
-5 7 1 45.1 4
5 7 -1 59.99 4.6
-5 7 -1 40.8 4.4
5 -7 -1 53.59 4.5
-5 7 -1 61.59 4.5
-5 7 -1 52.19 4.1
5 7 1 60.39 4.7
5 7 1 56.09 5.1
-5 -7 1 64.59 4.8
-6 7 1 18.4 3.5
-6 7 1 18.5 3.2
6 7 -1 18 3.2
-6 7 1 17.1 2.9
6 -7 1 25.6 3.6
-6 -7 -1 19.6 3.2
-6 -7 -1 24.5 3.1
-6 -7 1 14.4 3.1
6 -7 -1 20.1 3.5
-6 -7 1 20.3 3
6 7 1 22.2 3.3
-6 7 -1 16.2 3.5
-6 7 -1 17 3.3
-7 -7 -1 51.39 4.9
7 -7 1 45.5 4.4
7 7 -1 51.99 4.7
-7 7 1 39.5 4.6
7 7 1 52.99 4.6
-7 7 -1 44.2 4.9
7 -7 -1 40.6 4.5
-7 -7 1 42.2 4.5
-7 -7 1 49.9 4.2
8 7 -1 1 2.9
8 -7 1 1.6 2.9
-8 -7 -1 1.1 2.8
-8 7 1 1 3.2
-8 7 -1 -1.4 3.1
8 -7 -1 0.4 2.8
-8 -7 1 -0.6 2.7
8 7 1 2.1 2.8
-9 -7 -1 29.4 4.4
9 7 -1 30.1 4.4
-9 7 1 27.8 4.8
9 -7 1 22.6 3.8
-9 -7 1 19.4 3.9
-9 7 -1 26.3 4.8
9 7 1 26.9 4.2
9 -7 -1 24.2 3.9
0 8 -1 1.8 1.9
0 8 1 -7.5 2.3
0 -8 1 0.1 2.2
0 8 -1 0.7 2.1
0 8 1 -2.8 2.2
0 -8 -1 -0.6 2.2
0 -8 1 2.6 2.5
0 8 1 -0.5 1.6
0 8 -1 -4.6 2.5
-1 8 1 8.4 2.8
1 -8 1 12.9 2.8
-1 8 1 4 1.9
1 8 -1 6.1 2.3
-1 8 1 8.3 2.7
1 8 -1 4.2 2.7
1 -8 1 5.9 2.5
-1 -8 -1 7.3 2.4
1 8 -1 7.2 1.9
1 8 1 11.2 2.2
-1 8 -1 5.4 2.2
-1 -8 1 8.1 2.5
-1 -8 1 10.8 2.5
1 -8 -1 5.3 2.7
-1 8 -1 10.1 3
1 8 1 2.4 2.5
-1 8 -1 7.2 2.2
2 -8 1 4.6 2.5
2 -8 1 6.5 2.7
2 8 -1 2.3 2.8
2 8 -1 7.4 1.9
-2 8 1 9.4 2.8
2 8 -1 5.4 2.4
-2 -8 -1 8.8 2.3
-2 8 1 7.4 2.2
-2 8 1 7.6 2.6
-2 -8 -1 3.8 2.5
-2 8 -1 4.1 2.8
-2 -8 1 8.1 2.3
2 8 1 7.4 2.2
2 -8 -1 6.7 2.8
2 8 1 3.7 2.7
-2 8 -1 1.4 2.2
-2 -8 1 10.7 2.9
3 -8 1 12.1 2.8
3 8 -1 16.9 2
3 8 -1 10.3 2.9
3 -8 1 15 3.2
-3 8 1 15.7 3
3 8 -1 12.4 2.7
-3 8 1 13.9 3.1
-3 8 1 14.3 2.7
-3 -8 -1 14.5 2.5
-3 -8 -1 19.8 3.1
3 8 1 13.8 3
-3 8 -1 6.7 2.9
-3 -8 1 14.3 2.9
-3 8 -1 16.6 2.9
3 -8 -1 16.8 3.3
3 8 1 13.7 2.6
-4 8 1 24.4 3.3
4 -8 1 15.9 3.3
-4 8 1 26.2 3.3
4 8 -1 20.3 3.4
-4 8 1 22.4 3.7
-4 -8 -1 18.3 3.1
4 8 -1 22.7 3.1
4 8 1 22.1 3
-4 -8 1 23.2 3.3
-4 8 -1 20.1 3.1
4 8 1 17.3 3.3
4 -8 -1 19.3 3.6
-4 8 -1 18.9 3.6
5 8 -1 11.1 3.1
-5 8 1 12.7 2.9
-5 8 1 11.2 2.9
5 -8 1 10.2 3.1
-5 8 1 9.5 3.2
5 8 -1 10.2 2.8
-5 -8 -1 11.2 2.8
5 -8 -1 7 3.2
5 8 1 12.8 2.8
5 8 1 10 2.9
-5 8 -1 3.3 3
-5 8 -1 16.6 3.3
-5 -8 1 9.4 2.8
6 -8 1 6.7 3.2
-6 -8 -1 10.9 2.8
6 8 -1 8.8 3
-6 8 1 8.2 3.2
-6 8 1 6.5 2.9
-6 8 1 6.3 3.1
6 -8 -1 9.4 3.4
6 8 1 9.1 2.9
-6 8 -1 9.7 3.1
-6 8 -1 8.2 3.3
-6 -8 1 8.6 2.9
7 -8 1 5.8 3.2
7 8 -1 3.2 2.9
-7 8 1 6.3 3.4
-7 -8 -1 4.1 3
7 -8 -1 6.8 3.4
7 8 1 4.3 2.8
-7 8 -1 4.3 3.3
-7 -8 1 6.6 3.2
-7 -8 1 7.9 2.9
8 -8 1 1.9 3.4
8 8 -1 4.5 3.3
-8 -8 -1 1.5 3.1
-8 8 1 3.9 3.6
-8 8 -1 -0.2 3.5
8 8 1 2.5 3
-8 -8 1 3.1 3
8 -8 -1 -0.1 3.1
0 9 1 13.3 3.4
0 -9 1 17.8 3.1
0 9 1 20.2 2.4
0 9 -1 15.7 2.4
0 9 -1 4.7 3.1
0 -9 -1 11 2.9
0 -9 1 17.3 3.3
1 9 -1 176.48 8.6
1 9 -1 182.28 8.1
-1 9 1 190.58 9.8
-1 9 1 205.68 8.3
1 -9 1 208.78 9.5
-1 -9 -1 204.28 9.3
-1 9 1 190.68 9.2
1 9 -1 196.68 9.8
-1 -9 -1 195.58 9
1 -9 1 197.68 9.1
-1 9 -1 189.58 9.9
1 -9 -1 186.28 9.1
-1 -9 1 203.58 8.8
1 9 1 196.48 9.7
-1 -9 1 203.08 9.4
-1 9 -1 199.38 8.5
-2 9 1 2.6 2.7
2 -9 1 2.7 2.7
2 9 -1 -1.5 2.8
2 9 -1 2.1 1.9
-2 -9 -1 2.6 2.7
-2 -9 -1 -0.7 2.3
2 9 -1 0.1 2.2
-2 9 1 0.6 2.1
2 -9 1 3.1 2.7
-2 9 1 1.7 2.8
-2 -9 1 2.1 2.7
2 -9 -1 5.8 3
-2 -9 1 3.9 2.3
-2 9 -1 1.7 2.2
-2 9 -1 0.9 2.8
2 9 1 1.9 2.7
3 9 -1 4.3 2.5
-3 9 1 -0.2 2.6
3 -9 1 2.4 2.9
3 -9 1 2.8 2.7
-3 9 1 1.6 2.4
-3 -9 -1 0.9 2.7
-3 9 1 -1.3 2.7
3 9 -1 -2.5 2.5
3 -9 -1 -0.8 3
-3 -9 1 -0.9 2.6
-3 9 -1 -1 2.4
-3 9 -1 0.4 2.9
3 9 1 -2.3 2.4
3 9 1 0.3 2.2
4 -9 1 40.2 4
-4 9 1 33 3.9
-4 9 1 35 3.8
4 9 -1 30.4 4.1
-4 9 1 30.5 4.1
4 9 -1 28.5 3.5
-4 -9 -1 36.1 4
4 -9 1 33.2 4.2
-4 9 -1 34.6 3.8
4 9 1 28 3.4
4 -9 -1 38.1 4.4
-4 -9 1 31.8 4
4 9 1 35.2 4.2
-4 9 -1 24.6 4.1
5 9 -1 6.2 3
-5 9 1 6.2 2.9
-5 9 1 6.5 3.3
5 -9 1 -0.4 2.5
5 9 -1 5.9 2.7
-5 -9 -1 5.6 3
-5 9 1 2.8 2.8
5 -9 1 3.9 3.3
-5 9 -1 1.5 2.8
-5 -9 1 7 3
5 9 1 2.3 2.7
5 9 1 4.1 2.6
-5 9 -1 12.6 3.6
5 -9 -1 10.4 3.5
6 9 -1 4.3 3
-6 9 1 7.5 3.2
6 -9 1 4 3.5
-6 -9 -1 9.4 3
-6 9 1 4.1 3.5
-6 -9 1 5.6 3
-6 9 -1 10.6 3.4
6 9 1 4.5 2.8
6 -9 -1 6.9 3.6
-6 9 -1 6.2 3.6
-7 9 1 4.2 3.6
7 9 -1 4.4 3
7 -9 1 5.2 3.5
-7 -9 -1 2.3 3
-7 9 -1 2.6 3.6
-7 -9 1 -2.7 2.8
7 -9 -1 2.2 3.5
7 9 1 0.3 2.7
-7 -9 1 0.6 3
0 -10 -1 2.6 2.9
0 10 1 -1.5 2.8
0 10 1 -1.1 1.8
0 -10 1 0.3 2.7
0 10 -1 -2.8 2.8
0 -10 1 -2.8 2.8
0 -10 -1 -3.3 2.7
0 10 -1 -3.1 2
-1 10 1 3.1 2
1 -10 1 9.7 3.2
-1 -10 -1 0.9 3
1 -10 1 -2.2 2.9
1 10 -1 5.5 2.1
-1 10 1 2.6 3
-1 -10 -1 6.1 2.9
1 10 -1 3.5 3
-1 -10 1 -0.4 2.9
-1 10 -1 4.6 3.2
-1 10 -1 2.3 2.3
1 -10 -1 2.3 3
1 10 1 7.4 3.1
-1 -10 1 9.9 3
1 -10 -1 2.5 3.3
-2 -10 -1 32.6 3.8
2 10 -1 24.4 4.1
2 10 -1 29.7 2.7
-2 10 1 25.9 4.2
-2 -10 -1 37.2 4.3
2 -10 1 31.9 4.2
-2 10 1 27.3 3.2
2 -10 1 24.9 3.8
2 -10 -1 35.1 4.5
-2 -10 1 32.1 4.2
-2 10 -1 24.5 4.1
2 10 1 22.6 3.9
-2 10 -1 23.7 3.2
3 -10 1 -0.1 3.2
-3 -10 -1 2.2 3
-3 10 1 2.2 3.1
3 10 -1 3.1 3
-3 10 1 3.9 2.9
3 -10 1 -0.8 2.9
3 10 -1 -1.5 2.3
-3 10 1 1.1 2.3
-3 -10 1 1.4 3
-3 10 -1 -1.9 3
3 10 1 -3 2.7
3 -10 -1 -1.9 3.2
-3 10 -1 0 2.5
4 -10 1 1 3.4
-4 10 1 -1.3 2.6
-4 -10 -1 -3 2.7
4 10 -1 1 2.9
4 -10 1 -0.8 2.8
-4 10 1 -1 2.7
-4 10 1 1 3.1
4 10 -1 -2.5 2.4
-4 -10 1 2 3
-4 10 -1 -1.6 3
4 -10 -1 0.3 3.4
-4 10 -1 1.9 2.7
4 10 1 -0.9 2.8
5 10 -1 14 3.3
-5 10 1 6.8 3.3
-5 -10 -1 8.6 3.3
5 -10 1 9 3.7
-5 10 1 7.9 3.5
5 10 -1 14.3 3.8
-5 10 1 10.4 3.3
-5 10 -1 11.9 3.3
-5 -10 1 13.1 3.5
5 10 1 8.7 3.3
-5 10 -1 12.6 4
5 10 1 9.5 3.7
5 -10 -1 13.9 4.1
6 10 -1 0.8 2.8
-6 -10 -1 4.1 3.1
-6 10 1 0.9 3.2
-6 10 1 2.2 5.9
-6 -10 1 2 3.1
6 10 1 0.4 2.6
6 -10 -1 4.7 6.6
-6 10 -1 2.4 3.2
0 11 -1 -1.5 3.1
0 11 -1 -1.6 2.1
0 11 1 -0.8 3.1
0 -11 -1 -2.9 3
0 -11 -1 0.2 3.1
0 11 1 -1.7 2
0 -11 1 2.3 3.3
0 -11 1 -3.1 2.9
1 11 -1 13.2 3.9
1 11 -1 17.9 2.7
-1 11 1 16.5 2.7
-1 -11 -1 21.6 3.9
-1 11 1 17.6 4
-1 -11 -1 19.3 4.2
1 -11 1 23.8 4.2
1 -11 1 19.8 3.9
-1 11 -1 14.2 3.9
1 11 1 12.9 3.8
1 -11 -1 25.5 4.4
-1 11 -1 18.7 3
1 -11 -1 19.9 4.1
-1 -11 1 24.9 4.4
-2 -11 -1 3 3.2
2 11 -1 0.7 3.3
2 -11 1 3.9 3.5
-2 11 1 3.2 2.4
-2 11 1 3.5 3.4
2 -11 1 -2.9 3.2
2 11 1 -1.8 3
-2 11 -1 1.1 3.5
2 -11 -1 7.8 3.5
-2 11 -1 4.7 2.7
2 -11 -1 5.6 3.5
-2 -11 1 9.1 3.4
3 11 -1 0.5 3.2
3 -11 1 5.9 3.4
-3 -11 -1 0.7 3.2
-3 11 1 5.4 2.8
3 -11 1 4.2 3.7
-3 11 1 1.2 3.4
-3 11 -1 2.3 3.5
3 -11 -1 1.9 3.2
3 11 1 -3.1 3
-3 -11 1 2.8 3.4
3 -11 -1 0.5 3.6
-3 11 -1 0.9 2.7
-4 -11 -1 0 3.1
4 -11 1 8.8 3.5
4 -11 1 3.2 5.1
-4 11 1 6.2 3
-4 11 -1 4.8 3
-4 -11 1 6.2 4.1
4 11 1 2.3 3.4
0 0 2 3447.95 108.89
0 0 2 3099.09 108.79
0 0 -2 3157.08 108.69
0 0 -2 3072.49 109.39
0 0 2 3305.77 108.79
0 0 -2 3170.68 108.49
1 0 2 5316.47 169.88
-1 0 2 5182.78 169.98
-1 0 2 5057.49 169.88
1 0 2 4801.72 169.98
1 0 -2 5260.27 169.78
-1 0 -2 4857.91 170.18
1 0 -2 4961.1 169.78
1 0 2 5453.35 169.88
1 0 2 5149.48 169.68
-1 0 -2 5044.9 169.68
1 0 -2 4947 170.88
-1 0 2 4715.13 169.88
-1 0 2 4795.82 169.48
1 0 2 4640.14 170.28
2 0 2 8929.81 313.27
2 0 -2 9475.95 313.87
2 0 2 9411.16 313.37
2 0 2 9074.29 313.77
-2 0 2 9268.57 314.27
-2 0 -2 9004.8 314.17
2 0 -2 9700.23 314.47
-2 0 -2 9513.55 314.27
-2 0 2 9358.26 314.37
2 0 -2 8958.4 313.57
2 0 2 8494.95 314.07
-2 0 2 9999 314.17
3 0 -2 2542.85 91.19
-3 0 2 2785.82 91.29
3 0 2 2705.43 91.09
3 0 2 2711.53 90.99
-3 0 2 2677.33 91.19
3 0 2 2621.64 90.99
3 0 -2 2769.62 90.89
3 0 2 2645.14 91.39
3 0 -2 2829.92 91.49
-3 0 -2 2761.02 91.29
-3 0 -2 2681.83 91.29
-3 0 2 2538.35 91.09
-4 0 2 678.03 23.3
4 0 -2 651.03 23
4 0 -2 651.13 23
4 0 -2 666.23 22.6
4 0 2 676.03 22.9
-4 0 -2 637.64 23.2
-4 0 2 670.03 23.1
4 0 -2 687.63 23.6
4 0 2 649.54 22.9
-4 0 2 651.33 22.9
-4 0 -2 668.23 23.2
4 0 2 652.73 22.9
4 0 2 652.03 23.5
5 0 -2 500.25 18.8
5 0 -2 533.75 18.3
5 0 -2 521.85 18.8
-5 0 2 521.35 18.6
-5 0 2 511.45 18.8
-5 0 2 544.05 19.2
5 0 2 547.85 19.4
5 0 2 498.65 18.6
5 0 -2 574.04 19.5
-5 0 -2 535.15 19
-5 0 -2 523.85 19.1
5 0 2 541.35 18.6
5 0 2 537.35 18.6
6 0 2 0.1 1.6
-6 0 2 2.3 1.7
6 0 2 0.5 2.1
-6 0 -2 0.1 1.7
6 0 -2 0.7 1.7
-6 0 -2 -1.4 1.9
6 0 -2 -4.3 2.2
6 0 2 -0.4 1.3
6 0 -2 -1.3 1.7
-6 0 2 -0.4 1.3
6 0 -2 -0.3 1
-7 0 -2 371.26 14.3
7 0 -2 389.86 14.9
7 0 -2 343.17 13.9
7 0 2 367.26 14.8
-7 0 -2 368.56 14.5
-7 0 2 370.06 13.5
7 0 2 363.06 13.5
7 0 2 370.56 13.7
7 0 -2 379.16 14.1
-7 0 2 372.36 14.5
8 0 -2 266.97 11.8
-8 0 -2 264.67 11.2
8 0 2 285.27 12.2
8 0 -2 265.37 11.1
-8 0 2 260.27 11.5
8 0 -2 282.07 11
-8 0 -2 278.07 11.6
8 0 2 261.37 10.7
-9 0 -2 135.19 7.4
9 0 2 143.99 7
-9 0 2 145.59 7.9
9 0 2 143.89 8.5
9 0 -2 141.29 7.2
9 0 -2 134.49 8.4
9 0 -2 135.89 7.2
-9 0 -2 132.79 7.8
10 0 -2 88.89 6.1
-10 0 2 78.29 6.6
10 0 2 91.39 7.2
10 0 -2 83.89 6.1
10 0 2 87.49 5.8
-10 0 -2 78.09 6.8
10 0 -2 98.79 7.8
-10 0 -2 85.19 6.4
11 0 -2 89.79 6.6
-11 0 -2 89.29 7.2
11 0 -2 86.59 8.4
11 0 2 97.69 8
-11 0 -2 83.79 6.7
-11 0 2 87.99 7.3
11 0 2 81.59 6.1
0 1 2 0 0.7
0 1 -2 1.3 0.9
0 1 -2 0.7 1.1
0 -1 2 1.2 1
0 -1 -2 1.3 0.8
0 1 2 0.5 0.9
0 -1 2 -1.1 0.8
0 -1 2 -1.2 0.8
0 1 2 0.4 0.8
0 1 2 -0.3 0.8
0 1 2 -0.6 0.7
0 1 -2 -0.7 1.1
0 1 -2 0.2 0.8
0 -1 -2 -0.3 1.3
-1 1 2 3686.13 129.39
1 -1 2 3447.05 129.19
1 1 -2 3745.53 129.19
-1 1 2 4253.47 129.89
1 1 -2 4227.68 129.49
1 1 -2 4028.1 129.89
-1 1 2 3747.92 129.49
1 1 -2 3935.31 129.69
-1 1 2 3809.62 128.99
1 -1 2 3677.03 129.49
1 -1 2 3937.11 129.49
-1 -1 -2 3621.94 129.39
1 -1 2 3228.28 128.99
-1 -1 2 3872.01 128.99
1 1 2 4036.6 129.39
1 -1 -2 3737.43 128.99
1 -1 -2 4061.69 130.19
-1 1 -2 3702.83 128.99
-1 -1 2 3523.15 129.09
1 1 2 4076.29 130.19
-1 1 -2 3978.6 129.39
1 1 2 3712.23 129.29
1 -1 -2 3548.34 128.99
-1 1 -2 3873.11 129.39
-1 -1 2 4048.89 129.69
-2 -1 -2 280.47 10.5
2 -1 2 295.77 10.5
-2 1 2 298.17 10.6
2 -1 2 291.47 10.5
2 1 -2 302.97 10.7
2 -1 2 301.37 10.7
2 -1 2 282.07 10.2
2 1 -2 293.27 10.5
-2 1 2 284.97 10.5
-2 1 2 301.67 10.5
2 1 -2 307.97 10.6
2 -1 -2 291.07 10.4
2 1 2 295.37 10.7
2 -1 -2 299.97 10.8
2 -1 -2 273.47 10.3
2 -1 -2 297.97 10.5
-2 1 -2 299.67 10.5
-2 -1 2 301.27 10.5
-2 -1 2 302.87 10.5
-2 -1 2 297.47 10.6
-2 1 -2 295.37 10.5
2 1 2 300.27 10.3
-2 1 -2 298.87 10.6
2 1 2 301.47 10.4
2 1 2 310.37 10.6
3 1 -2 1766.52 58.79
-3 -1 -2 1615.34 58.29
-3 1 2 1793.62 58.89
3 -1 2 1618.44 58.89
3 -1 2 1839.02 58.69
-3 1 2 1728.03 58.69
3 1 -2 1678.13 58.59
3 1 -2 1833.72 58.99
-3 -1 -2 1676.53 58.79
-3 1 2 1622.34 58.59
3 -1 2 1631.04 58.59
-3 1 -2 1751.62 58.79
-3 1 -2 1744.43 58.79
3 -1 -2 1793.42 59.09
3 1 2 1749.43 58.79
-3 -1 2 1701.93 58.69
-3 -1 2 1705.43 58.69
3 1 2 1783.52 58.39
3 1 2 1746.73 58.59
3 1 2 1739.83 58.99
-3 1 -2 1714.33 58.69
3 -1 -2 1640.44 58.49
3 -1 -2 1690.13 58.69
3 -1 -2 1721.73 58.49
-3 -1 2 1783.22 58.89
3 1 2 1759.52 58.39
4 1 -2 17.3 2.1
4 1 -2 22.3 2.5
4 -1 2 21.9 1.9
4 -1 2 17.9 1.9
4 1 -2 22 1.9
-4 1 2 24.3 1.9
-4 -1 -2 20.1 2
-4 1 2 19.2 2.1
-4 1 2 14.7 1.9
4 -1 2 19.7 2.5
-4 -1 -2 17.5 1.3
-4 -1 2 22.1 2.2
-4 1 -2 21.3 2.2
4 1 2 21.1 1.7
4 -1 -2 21 2.1
-4 -1 2 22.4 1.9
4 1 2 19.6 2.4
4 1 2 21.5 2.2
4 1 2 20 1.5
-4 1 -2 21.1 2
4 1 2 21 1.7
4 -1 -2 21.6 2.7
4 -1 -2 19 1.7
4 -1 -2 18.3 1.8
-4 1 -2 20 2.1
-4 -1 2 13.2 1.7
-5 1 2 50.69 3.6
-5 1 2 54.09 2.9
5 -1 2 53.49 3.8
5 1 -2 47.7 3.4
-5 1 2 51.39 3.4
5 1 -2 52.59 3.9
-5 -1 -2 50.29 3.5
5 -1 2 50.19 3.1
-5 -1 -2 45.1 2.1
5 1 -2 52.49 3.2
5 -1 2 55.69 3.4
5 1 2 47.7 2.9
5 1 2 49.1 4
-5 1 -2 44.9 3.5
-5 1 -2 52.39 3.3
5 -1 -2 51.39 3.5
5 -1 -2 43.7 4
-5 -1 2 48.3 2.8
5 1 2 46.5 2.7
-5 -1 2 47.1 3.1
5 -1 -2 53.39 3.1
5 1 2 44.8 3.3
-5 1 -2 55.49 3.5
5 1 2 49.99 2.8
-5 -1 2 51.99 3.6
5 -1 -2 49.1 2.8
6 -1 2 161.48 7.5
-6 1 2 151.98 7.1
6 -1 2 156.58 6.8
6 1 -2 157.98 7
6 -1 2 160.28 6.5
6 1 -2 162.08 6.8
6 1 -2 146.19 7.5
-6 1 2 149.39 7
-6 1 2 156.58 6.4
-6 -1 -2 152.18 7.1
-6 -1 2 153.78 6.4
-6 1 -2 149.88 7.1
6 -1 -2 162.48 6.7
-6 1 -2 160.48 6.9
6 1 2 160.78 6.2
-6 -1 2 158.78 7.2
6 1 2 162.28 7.6
6 1 2 148.89 7
6 1 2 155.58 6.4
6 -1 -2 158.68 6.9
6 -1 -2 157.98 6.2
6 -1 -2 154.98 7.7
7 -1 2 41.4 3.3
7 -1 2 35.4 2.8
-7 1 2 40.3 3.6
7 -1 2 32.3 3.8
-7 -1 -2 38.6 3.6
-7 1 2 34.5 2.7
7 1 -2 41.2 3.5
7 1 -2 34.3 3.1
7 1 -2 35.9 3.8
-7 -1 2 29.3 3.3
7 -1 -2 31.4 3.1
-7 -1 2 38.5 3.1
7 1 2 34.6 2.9
7 -1 -2 41 3.3
-7 1 -2 34.6 3.4
-7 1 -2 29.8 3.4
7 1 2 37.5 3.9
7 1 2 33.2 2.8
7 -1 -2 33.9 4.1
7 1 2 35 3.4
8 -1 2 121.89 6.3
8 -1 2 112.99 5.6
8 1 -2 127.49 6.2
-8 -1 -2 119.19 6.8
8 1 -2 115.69 6.5
-8 1 2 117.49 7
8 -1 2 115.89 7.5
8 1 -2 124.29 7.5
8 1 2 129.69 5.9
-8 1 -2 118.99 6.6
8 -1 -2 122.69 6.2
8 -1 -2 126.99 6.4
-8 1 -2 115.89 7
8 -1 -2 116.79 7.3
8 1 2 105.59 7.1
-8 -1 2 112.89 6.8
-9 -1 -2 14.4 3.2
9 1 -2 13.1 3
9 -1 2 12.5 3.7
9 1 -2 11.8 2.6
9 -1 2 13.6 2.8
-9 1 2 12.1 3.1
9 1 -2 11.3 3.6
-9 -1 -2 9.5 3.1
9 -1 -2 9.3 3.4
9 -1 -2 12.8 2.9
9 -1 -2 11.7 2.9
-9 1 -2 17.4 3.2
9 1 2 18.9 2.7
-9 -1 2 6.7 2.8
-9 1 -2 15.3 3.1
9 1 2 12.4 3.5
10 1 -2 9.6 3.7
10 1 -2 8.7 2.9
-10 1 2 9.9 3.3
10 -1 2 12.5 3.8
10 1 -2 12.3 3.3
-10 -1 -2 11.1 3.3
10 -1 2 12.9 3
-10 -1 -2 12.3 3.7
-10 -1 2 10.2 3.2
-10 1 -2 11 3.3
10 1 2 9.7 3.7
-10 1 -2 17.4 3.5
10 -1 -2 12.8 4
10 -1 -2 11.6 3.2
10 1 2 11.9 2.7
11 1 -2 3.9 3.1
-11 1 2 5.2 3.2
11 1 -2 8.3 3
11 -1 2 6.3 2.9
-11 -1 -2 10.6 3.7
-11 -1 -2 10.1 3.3
11 -1 2 1.8 3.8
11 1 -2 4.8 3.8
-11 1 -2 6.4 3.2
11 1 2 6.6 3.8
11 1 2 1.9 2.5
11 -1 -2 4.7 4
-11 1 -2 6.2 3.3
11 -1 -2 1.7 3.1
-11 -1 2 4.7 3.2
0 2 -2 3438.76 116.29
0 2 2 3472.95 116.39
0 2 2 3384.56 116.29
0 2 -2 3518.35 116.39
0 -2 2 3266.87 116.19
0 2 -2 3324.27 116.39
0 2 2 3588.54 116.29
0 -2 2 2905.51 116.49
0 -2 2 3406.86 116.29
0 2 2 3418.96 116.09
0 -2 -2 3632.94 116.39
0 2 2 3631.74 116.69
0 2 2 3505.25 116.09
0 2 -2 3655.93 116.99
-1 2 2 755.22 26.3
1 -2 2 704.53 26.3
1 2 -2 794.42 26.3
-1 2 2 804.92 26.5
1 2 -2 737.03 26.4
-1 2 2 783.42 26.5
1 -2 2 756.22 26.3
1 2 -2 789.32 26.6
1 2 -2 809.42 26.6
1 -2 2 772.92 26.5
-1 2 2 766.82 26.3
-1 2 -2 773.72 26.5
1 2 2 789.32 26.4
1 2 2 814.22 26.4
-1 2 -2 772.62 26.5
1 -2 -2 733.63 26.3
1 -2 -2 738.93 26.6
-1 -2 2 783.42 26.5
-1 -2 2 766.72 26.2
1 2 2 778.12 26.4
1 2 2 792.92 26.6
-1 -2 2 727.63 26.4
1 2 2 807.32 26.5
-1 2 -2 732.33 26.4
2 -2 2 9 1.5
-2 2 2 8.7 1.4
2 -2 2 7.6 1.4
2 -2 2 9.4 1.5
-2 2 2 12.1 1.5
2 2 -2 9.7 1.4
-2 2 2 7.8 1.4
2 2 -2 6.7 1.3
2 2 -2 10.7 1.5
2 2 -2 7.1 1.5
2 2 -2 8.4 1.5
2 -2 2 9.1 1
2 2 2 6.6 1.3
2 2 2 5.7 1.5
2 2 2 7.5 1.2
2 2 2 9.3 1.4
-2 2 -2 8.5 1.5
-2 2 -2 6.3 1.3
-2 -2 2 7.4 1.2
-2 -2 2 8.3 0.7
2 -2 -2 9.6 1.4
2 2 2 7 1.2
-2 -2 2 7.5 1.3
2 -2 -2 4.4 1.7
-2 2 -2 7.3 1.5
2 -2 -2 8.4 1.4
3 -2 2 158.08 6.1
-3 2 2 142.49 5.9
-3 2 2 133.49 6
3 -2 2 139.39 5.3
3 2 -2 154.48 6.2
3 2 -2 148.09 5.8
-3 2 2 152.58 6.2
3 -2 2 135.49 6.1
-3 -2 -2 143.69 6
3 -2 2 139.49 6
3 2 -2 142.59 6.3
3 2 -2 147.09 5.7
3 2 2 150.68 6.1
-3 2 -2 149.88 6.1
3 2 2 150.48 5.7
-3 2 -2 143.69 6.2
-3 -2 2 146.89 5.9
3 2 2 148.69 6.3
3 -2 -2 139.59 6.5
-3 -2 2 151.88 6.2
3 -2 -2 133.99 6
-3 -2 2 146.29 5.9
3 -2 -2 140.79 5.4
3 -2 -2 139.49 5.9
-3 2 -2 147.99 6
4 -2 2 212.68 8.4
4 -2 2 209.38 7.7
4 2 -2 233.28 8.8
-4 2 2 221.58 8.7
4 2 -2 219.18 8.3
4 -2 2 204.98 8.6
-4 -2 -2 205.78 7.9
4 2 -2 219.98 8.7
-4 -2 -2 208.88 8.5
-4 2 2 228.58 8.3
4 -2 2 214.38 8.4
-4 2 2 225.38 8.5
4 2 -2 212.88 8.2
4 2 2 223.98 8.8
4 2 2 225.08 8
-4 2 -2 230.08 8.5
4 -2 -2 227.38 8.1
4 -2 -2 212.58 8.3
-4 2 -2 223.38 8.8
-4 2 -2 229.28 8.5
4 2 2 223.28 8.6
-4 -2 2 212.38 8.2
-4 -2 2 225.78 8.7
-4 -2 2 217.08 8.3
4 -2 -2 204.68 8.5
4 -2 -2 218.98 9.1
5 -2 2 221.28 8.2
-5 2 2 236.78 9
5 -2 2 250.37 9.1
-5 2 2 226.58 9.2
-5 -2 -2 227.18 9.4
5 -2 2 223.88 9.1
5 2 -2 234.58 9.4
5 -2 2 233.88 9.6
-5 -2 -2 213.48 8.5
5 2 -2 225.68 8.9
-5 2 2 239.48 9.5
5 2 -2 237.08 9.6
5 2 2 245.98 8.6
-5 2 -2 236.48 9.5
-5 -2 2 243.68 9
5 2 2 236.48 9.7
5 2 2 248.58 8.7
5 -2 -2 252.57 8.9
5 2 2 233.28 9.3
5 -2 -2 229.88 9.9
5 -2 -2 221.88 8.9
5 -2 -2 250.17 9.3
-5 2 -2 246.78 9.3
-5 2 -2 247.88 9.3
5 2 2 242.08 8.7
-5 -2 2 248.18 9.6
-6 -2 -2 170.18 7.7
-6 2 2 173.98 7
6 2 -2 169.58 7.7
6 2 -2 182.28 7.2
6 -2 2 167.78 8.1
6 2 -2 173.88 7.9
-6 2 2 165.98 7.8
6 -2 2 170.88 7.2
6 -2 2 165.18 7.4
6 -2 -2 161.58 7.1
6 2 2 171.58 6.7
6 -2 -2 170.98 8.3
-6 2 -2 175.28 7.5
-6 -2 2 168.18 7
6 2 2 177.28 6.8
-6 2 -2 175.58 7.9
6 -2 -2 173.98 7.5
6 2 2 182.88 8.1
6 2 2 175.78 7.6
6 -2 -2 172.08 7
-6 -2 2 174.58 7.8
7 2 -2 52.59 4.4
7 2 -2 44.5 3.8
7 -2 2 46 3.7
-7 2 2 48.7 4.1
-7 2 2 44.9 3.4
7 -2 2 46.3 4.2
7 -2 2 50.79 3.7
7 2 -2 50.49 3.5
-7 -2 -2 49.8 4.1
-7 2 -2 35.8 3.7
7 2 2 47.2 4.3
7 2 2 44 3.4
-7 -2 2 39.7 3.2
7 -2 -2 44.2 4.4
-7 2 -2 44.7 3.7
7 -2 -2 41.6 3.4
7 -2 -2 43.3 3.6
7 2 2 45 3.8
-7 -2 2 37.8 3.7
-8 2 2 9.8 2.8
8 2 -2 13 3.2
8 -2 2 15.7 2.8
8 -2 2 14.8 2.3
8 2 -2 16.6 3
8 -2 2 15.9 3.5
-8 -2 -2 14.1 2.9
8 2 -2 18.6 2.7
8 -2 -2 13.4 3
-8 2 -2 11 2.8
8 -2 -2 11.2 3.4
-8 2 -2 15.5 2.8
8 2 2 15.3 2.2
8 2 2 14.9 3.1
-8 -2 2 12.2 2.9
8 2 2 17.4 3.4
9 2 -2 78.69 5.5
9 -2 2 94.09 5.9
9 2 -2 93.19 6.3
-9 2 2 89.29 6.5
9 2 -2 85.99 7
9 -2 2 88.79 7.3
-9 -2 -2 93.59 6.4
-9 2 -2 84.99 6.5
-9 2 -2 82.59 5.8
9 -2 -2 84.19 6
-9 -2 2 88.29 6.5
9 -2 -2 86.69 6.9
9 2 2 89.59 5.1
9 2 2 94.09 7
10 -2 2 4 3.8
-10 2 2 7.4 3.1
-10 -2 -2 7.2 3.2
10 2 -2 6.4 3
10 -2 2 9.4 3
10 2 -2 5.5 3.6
-10 -2 -2 5.4 3.4
10 2 -2 7.8 2.7
10 2 2 5.9 2.3
10 -2 -2 10.7 3.8
-10 2 -2 10 3.3
10 2 2 9.5 3.6
10 -2 -2 4.8 3
-10 -2 2 2.6 2.9
-10 2 -2 9.9 3
11 2 -2 1 2.8
11 -2 2 3.1 3
-11 2 2 -0.5 3.1
-11 -2 -2 7 3.6
11 2 -2 -0.2 3.5
11 2 -2 2.6 3.1
-11 -2 -2 3.2 3.2
11 -2 2 -1.8 3.4
-11 2 -2 2.6 3.4
-11 -2 2 3.5 3.1
11 2 2 4.3 2.5
-11 2 -2 2 3.1
11 2 2 3.5 3.7
11 -2 -2 7.1 4.1
0 -3 2 -0.2 1.3
0 3 -2 -1.9 1.2
0 3 2 0.7 1.3
0 3 -2 -2.7 1.4
0 3 2 -1 0.8
0 3 2 -0.4 0.9
0 3 -2 -1.6 1.4
0 -3 -2 -3.9 1.4
0 -3 2 0.6 1.1
0 3 2 1.1 0.8
0 3 2 -5.5 1.3
0 -3 2 -1.6 1.2
1 3 -2 1771.22 58.79
1 3 -2 1652.33 58.59
-1 3 2 1718.23 58.49
1 -3 2 1683.93 58.69
-1 3 2 1796.92 58.49
1 3 -2 1714.03 58.59
1 -3 2 1600.24 58.29
1 3 -2 1608.14 58.29
1 3 -2 1794.52 58.89
-1 3 2 1812.72 58.79
1 -3 2 1668.03 58.69
-1 3 2 1697.93 58.79
1 3 2 1833.02 58.79
-1 -3 2 1744.83 58.79
1 -3 -2 1751.42 58.79
-1 -3 2 1766.62 58.49
1 3 2 1705.23 58.69
-1 3 -2 1707.93 58.69
1 -3 -2 1669.93 58.69
1 3 2 1796.52 58.69
-1 3 -2 1642.34 58.89
-1 3 -2 1796.02 58.69
1 3 2 1795.52 58.79
-1 -3 2 1685.73 58.59
1 3 2 1677.53 58.49
2 3 -2 586.34 20.7
2 -3 2 610.54 20.9
2 -3 2 583.84 20.7
-2 3 2 597.14 20.9
2 3 -2 607.74 20.7
2 3 -2 568.84 21.1
-2 3 2 623.14 20.8
2 3 -2 580.14 20.7
2 3 -2 628.04 21.1
2 -3 2 543.65 20.9
-2 3 2 605.04 21.1
2 -3 2 580.74 20.7
2 -3 -2 594.84 21
-2 -3 2 579.04 20.8
2 -3 -2 598.14 21.1
2 3 2 591.24 20.9
2 3 2 605.04 20.7
-2 -3 2 599.44 20.4
2 3 2 634.14 20.9
-2 3 -2 590.14 21
2 3 2 622.44 21
-2 3 -2 594.74 20.9
2 -3 -2 588.54 20.8
-2 3 -2 591.34 21.1
-2 -3 2 583.84 20.9
2 3 2 623.04 20.9
3 -3 2 4.2 1.6
3 3 -2 6.3 1.3
-3 3 2 6.4 1.6
3 -3 2 5.1 1.2
3 3 -2 9 2
3 -3 2 6 1.8
3 3 -2 8.6 1.5
3 3 -2 5.9 1.6
-3 3 2 5.1 1.7
-3 3 2 7.3 1.7
3 -3 2 5.7 1.6
3 3 -2 4 1.6
3 3 2 4.3 1.6
3 -3 -2 5.3 1.7
3 -3 -2 4.6 2
-3 3 -2 5.4 1.6
3 3 2 6.6 1.7
3 3 2 5.6 1.4
3 3 2 6.3 1.2
-3 -3 2 5 1.5
-3 3 -2 5.1 1.7
3 3 2 5.8 1.8
3 -3 -2 5.9 1.6
-3 3 -2 7.4 1.7
-4 3 2 36.8 2.9
-4 -3 -2 33.1 3
4 3 -2 38.6 3.2
4 3 -2 37.9 2.5
-4 3 2 36.3 2.1
4 -3 2 40.3 3.2
4 -3 2 32.9 3.1
4 -3 2 41.1 3.1
-4 3 2 40.8 3.4
-4 -3 -2 37.7 2.4
-4 3 2 41.6 3.1
4 3 -2 39.3 3.2
4 3 -2 38.3 2.6
4 -3 -2 31.7 3.1
4 3 2 43.2 2.4
-4 3 -2 38 3
4 3 2 41.3 3.4
-4 -3 2 41.1 2.8
-4 -3 2 36 3.2
4 3 2 42.8 3
-4 3 -2 35.9 3.3
4 -3 -2 41.3 2.9
4 -3 -2 39.3 3.1
-4 3 -2 36.8 2.8
-5 -3 -2 791.02 26.9
-5 3 2 750.42 26.8
-5 3 2 794.22 27.8
5 3 -2 770.12 27.5
-5 3 2 766.02 27.4
5 3 -2 790.02 27.1
5 3 -2 795.02 27.6
5 -3 2 697.03 27.5
5 -3 2 819.62 27.4
-5 -3 -2 784.82 27.7
5 -3 2 755.22 27.3
-5 3 2 790.32 27.2
5 -3 -2 704.13 27.7
-5 3 -2 793.92 27.3
-5 3 -2 763.42 27.4
5 3 2 827.02 27.8
-5 -3 2 778.82 27.7
-5 -3 2 807.72 27.3
5 3 2 809.12 26.9
5 -3 -2 785.42 27.4
-5 3 -2 787.72 27.8
5 3 2 766.12 27.5
5 -3 -2 768.02 27.2
-6 3 2 26.5 2.6
6 -3 2 23.8 2.6
-6 3 2 26.1 3.1
-6 3 2 26.1 2.2
6 3 -2 28.4 3.1
6 -3 2 23.8 3.3
6 3 -2 20.3 2.3
6 -3 2 27.8 3
-6 -3 -2 24.1 2.9
-6 3 2 22.3 3
-6 -3 -2 24.2 2.1
6 3 -2 25.2 3
-6 3 -2 28.5 3.2
6 3 2 27 3.2
6 3 2 26 2.9
-6 -3 2 23.3 2.9
6 -3 -2 28.6 3
6 3 2 26.6 2.2
6 -3 -2 29 3.6
-6 -3 2 25.8 2.4
6 -3 -2 22.3 2.5
-6 3 -2 28.7 2.9
-7 3 2 139.79 6.1
7 -3 2 128.39 7.3
7 3 -2 128.39 6.9
-7 -3 -2 127.19 7
7 3 -2 127.49 7.1
-7 3 2 129.09 7.1
7 -3 2 126.99 6.3
7 -3 2 139.39 6.8
7 3 -2 127.89 6.1
-7 -3 2 130.89 7
-7 3 -2 129.19 6.6
-7 3 -2 132.49 7.2
7 3 2 122.39 7.1
7 -3 -2 121.79 6.1
7 -3 -2 119.89 6.6
7 -3 -2 130.49 7.8
7 3 2 137.09 6.9
-7 -3 2 132.39 6
7 3 2 136.29 5.6
8 -3 2 24.7 2.9
8 -3 2 25.6 3.9
8 -3 2 35.9 3.6
8 3 -2 23.5 2.9
8 3 -2 25.4 3.8
-8 -3 -2 34 3.8
-8 3 2 24.8 3.7
8 3 -2 34.5 3.9
8 3 2 26.4 3.5
8 3 2 28.8 3.9
8 3 2 33.1 2.6
-8 3 -2 20.8 3.5
8 -3 -2 31.9 4.1
-8 3 -2 29.3 3.4
-8 -3 2 28.9 3.7
8 -3 -2 23.5 4
-9 -3 -2 183.18 8.9
9 -3 2 149.99 7.5
9 3 -2 147.89 8.8
-9 3 2 161.78 8.9
9 3 -2 169.38 7.6
9 -3 2 160.98 9.1
9 -3 2 155.98 8.1
9 3 -2 166.78 8.6
9 3 2 159.98 8.4
-9 -3 2 152.68 8.7
9 -3 -2 172.48 9.5
-9 3 -2 147.09 7.9
-9 3 -2 166.88 8.9
9 3 2 164.78 9
9 3 2 165.48 7
10 -3 2 145.99 9.4
10 -3 2 144.49 8.1
10 3 -2 142.99 8.9
-10 -3 -2 151.38 8.8
10 3 -2 158.38 7.5
-10 3 2 137.69 8.8
10 3 -2 153.48 8.5
-10 -3 2 156.88 8.9
-10 3 -2 150.18 9
10 3 2 148.89 6.9
10 -3 -2 145.49 9.6
10 3 2 149.69 9
-10 3 -2 152.58 8.7
11 -3 2 11.5 4.1
-11 -3 -2 11.9 4.7
11 -3 2 3.2 3.1
-11 -3 -2 11.7 3.7
11 3 -2 11.8 3.1
11 3 -2 7.7 3.5
11 3 -2 9 3.8
11 3 2 8.5 3.9
-11 -3 2 7.3 5.2
-11 3 -2 12.3 3.9
11 -3 -2 6.3 4.2
0 4 -2 1019.3 34.7
0 4 2 1024.5 34.3
0 4 2 1108.59 35
0 -4 2 971.8 34.7
0 4 -2 1006.5 35
0 4 -2 997.6 34.6
0 4 2 979.9 34.3
0 4 2 955.8 34.7
0 -4 -2 998.1 34.6
0 4 -2 1008.9 34.8
0 -4 2 967.3 34.6
0 4 2 1015.7 34.3
0 -4 -2 993.4 34.7
0 -4 2 1022.8 34.6
1 4 -2 291.97 10.8
-1 4 2 306.27 10.8
1 4 -2 297.17 11.4
-1 4 2 309.17 10.8
1 4 -2 300.17 10.9
-1 4 2 311.47 11.4
-1 -4 -2 299.77 11.1
1 -4 2 280.87 11.1
-1 -4 -2 298.97 11
-1 4 2 305.57 11.2
1 -4 2 297.17 11.1
1 4 -2 310.27 11.3
1 -4 2 304.67 11.1
1 4 2 312.47 11.3
1 -4 -2 305.07 11.2
-1 4 -2 285.07 11.4
-1 -4 2 303.47 10.9
-1 4 -2 301.27 11.1
-1 -4 2 297.87 11.2
1 4 2 333.47 11.2
1 4 2 298.47 10.8
1 -4 -2 289.77 11.2
-1 4 -2 276.67 11
-1 -4 2 295.67 10.8
2 4 -2 1001.9 34.1
-2 4 2 1047.1 34.8
2 4 -2 974.3 34.8
-2 4 2 993.6 34.4
2 4 -2 1029.7 34.3
2 4 -2 989.1 34.3
2 4 -2 1066.19 34.8
2 -4 2 970 34.5
-2 4 2 968.2 34.6
2 -4 2 1001.5 34.5
2 -4 2 959.7 34.2
-2 4 2 980.6 34.3
2 -4 2 975.3 34.6
2 4 2 1004.7 34.5
-2 4 -2 991.5 34.8
2 4 2 1048.7 34.8
-2 4 -2 954.6 34.5
2 4 2 1021.3 34.4
2 4 2 1013.4 34.5
-2 -4 2 1018.4 34.1
-2 4 -2 1030.7 34.5
2 4 2 1025.2 34.4
2 -4 -2 965.4 34.6
2 -4 -2 966.9 34.3
2 -4 -2 957.7 34.6
-2 -4 2 1010.3 34.6
3 -4 2 1169.08 40.4
3 -4 2 1100.09 40.2
3 -4 2 1102.69 40.1
3 -4 2 1152.88 40.1
3 4 -2 1122.69 40.6
-3 4 2 1104.79 40.2
3 4 -2 1115.89 40
3 4 -2 1170.28 40
3 4 -2 1245.58 40.6
-3 4 2 1155.38 40.3
3 4 -2 1183.58 40.1
-3 4 2 1198.38 40.6
3 4 2 1240.88 40.3
3 -4 -2 1182.28 40.4
3 4 2 1185.08 40.6
-3 4 -2 1211.08 40.4
-3 -4 2 1199.88 40.4
3 4 2 1178.78 40.3
3 4 2 1179.38 40
-3 4 -2 1200.08 40.2
3 -4 -2 1104.79 40.5
-3 4 -2 1177.78 40.6
3 4 2 1171.88 40.3
3 -4 -2 1168.58 40.2
-3 -4 2 1189.88 39.7
-4 -4 -2 93.09 4.5
-4 4 2 98.49 5
-4 4 2 100.79 5.3
4 4 -2 99.09 4.4
-4 4 2 100.09 4.8
4 -4 2 97.59 4.9
4 4 -2 95.89 5.1
4 -4 2 94.69 4.9
4 4 -2 103.09 4.8
-4 4 2 96.99 3.8
4 -4 2 87.99 4.8
4 4 -2 94.79 5.1
4 4 2 96.29 5
4 4 2 103.69 4.9
-4 4 -2 96.49 4.7
4 -4 -2 88.99 4.9
4 -4 -2 92.29 5.4
4 4 2 99.69 4.3
4 -4 -2 98.69 4.9
-4 -4 2 101.59 4.8
-4 4 -2 91.29 5.2
-4 4 -2 92.69 5
-5 -4 -2 3.3 1.8
5 -4 2 7.7 2
5 4 -2 4.4 2
-5 4 2 3.2 1.8
-5 4 2 2.8 2
-5 -4 -2 4.5 1.5
5 -4 2 3.3 2.2
5 4 -2 4.3 2.3
5 4 -2 5.5 1.6
-5 4 2 2.8 2
5 -4 2 2.1 2.1
5 4 2 4.5 2
-5 4 -2 2.7 2
-5 -4 2 0.6 1.8
5 -4 -2 0.7 1.9
5 4 2 2.3 2.1
-5 4 -2 3.7 1.9
5 -4 -2 5 2
5 4 2 3.7 1.4
-5 -4 2 3.4 1.7
-5 4 -2 1.6 2.1
5 -4 -2 6.9 2.6
-6 4 2 120.79 6.6
6 -4 2 104.59 6.4
6 4 -2 111.79 5.3
-6 4 2 120.99 5.7
6 -4 2 118.39 6.1
6 4 -2 123.19 6.5
-6 -4 -2 111.79 6.2
-6 -4 -2 110.99 5.2
6 4 -2 117.19 6.3
6 -4 2 116.19 5.9
-6 4 2 123.39 6.2
-6 4 -2 113.09 5.8
6 4 2 112.99 6.4
6 4 2 120.09 6.2
-6 -4 2 119.69 5.7
6 -4 -2 123.99 7
-6 4 -2 102.79 6.4
6 -4 -2 110.39 6
-6 -4 2 110.29 6.3
7 4 -2 937.01 33.3
-7 -4 -2 950.8 33.5
7 4 -2 950.9 33.4
-7 4 2 947.31 33.2
7 4 -2 906.41 32.4
-7 4 2 897.61 33.5
7 -4 2 942.11 33.4
7 -4 2 902.61 32.8
7 -4 2 947.71 33
-7 4 -2 905.11 32.8
7 4 2 934.31 33.4
-7 -4 2 912.61 32.6
7 4 2 918.51 33.2
-7 -4 2 932.01 33.5
7 -4 -2 972.1 32.8
7 -4 -2 913.71 33.7
-7 4 -2 908.91 33.5
8 4 -2 207.58 8.6
-8 4 2 195.88 10.1
8 4 -2 203.28 9.7
8 -4 2 199.68 9.3
-8 -4 -2 225.38 10
8 4 -2 208.28 9.8
8 -4 2 203.38 9.1
8 -4 2 200.48 10.1
8 -4 -2 197.58 8.9
8 4 2 207.18 9.6
8 -4 -2 209.18 10.5
-8 4 -2 202.68 9.1
8 4 2 215.98 9.9
-8 4 -2 204.98 10
-8 -4 2 215.28 10.1
9 4 -2 -1.9 2.7
9 -4 2 1.7 2.3
9 4 -2 1.6 2.9
9 -4 2 -0.5 2.9
9 -4 2 0.1 3.3
9 4 -2 1.5 2.2
-9 4 2 1.6 2.9
-9 -4 -2 4.6 3
-9 -4 2 -1.4 2.7
9 4 2 2.8 2.9
9 -4 -2 -3.3 3.1
-9 4 -2 -0.8 2.7
9 4 2 3.8 2.7
-10 4 2 3.7 3.2
10 4 -2 2.4 3.1
-10 -4 -2 2.1 3.1
10 4 -2 2.9 2.3
10 -4 2 2.6 3.8
10 4 -2 1.2 3.2
10 4 2 5 3.3
10 4 2 4.4 3.1
-10 -4 2 0.8 2.9
10 -4 -2 0.9 3.7
-10 4 -2 2.7 3.2
0 -5 -2 -1.9 1.5
0 5 2 -2.7 1.6
0 -5 2 1.3 1.5
0 5 2 0.9 1.1
0 5 2 1.9 1.6
0 5 2 -1 1.1
0 5 -2 -0.8 1.4
0 -5 2 3.4 1.6
0 5 -2 -1.9 1.3
0 5 2 -0.7 1
0 -5 -2 -0.4 1.4
0 5 -2 -4 1.6
0 -5 2 1.4 1.4
0 5 -2 -1.2 1.6
1 5 -2 266.17 10
1 -5 2 241.48 9.8
-1 -5 -2 261.47 9.8
1 5 -2 246.08 9.5
-1 5 2 264.97 9.5
-1 5 2 247.18 9.4
-1 -5 -2 256.77 9.7
-1 5 2 240.78 9.1
-1 5 2 257.57 10.1
1 5 -2 264.37 10.3
-1 5 2 260.27 10
1 -5 2 260.77 9.7
1 -5 2 249.38 9.8
1 5 -2 259.17 9.5
-1 5 -2 255.27 10.2
1 -5 -2 256.87 9.9
-1 5 -2 259.97 9.8
-1 -5 2 259.37 9.6
1 5 2 261.57 9.5
-1 5 -2 263.47 9.8
-1 -5 2 266.27 10
1 -5 -2 257.87 9.8
1 5 2 275.07 10
1 5 2 254.87 10.1
2 5 -2 16.9 2.3
-2 -5 -2 18.1 1.9
2 -5 2 14.6 2
2 -5 2 14.4 1.4
-2 5 2 14 1.8
2 -5 2 11.7 1.9
2 5 -2 16 1.7
-2 5 2 17 2.3
2 -5 2 17.7 2
-2 5 2 10.9 2
2 5 -2 14.1 1.6
2 5 -2 15.8 2.2
-2 5 -2 14 2.3
2 5 2 17.4 1.9
-2 5 -2 16.1 2
-2 5 -2 15.7 2.1
2 5 2 17.3 1.9
2 -5 -2 14.9 2.1
-2 -5 2 13.9 2
2 -5 -2 15.2 2.1
-2 -5 2 17 1.6
2 5 2 15.6 2
2 5 2 12.4 2.1
-3 -5 -2 89.19 4.3
3 -5 2 88.39 4.3
3 -5 2 93.69 4.7
-3 5 2 89.99 5
3 5 -2 83.09 5
3 -5 2 88.29 4.8
3 5 -2 93.59 5.2
-3 5 2 91.39 4.6
3 5 -2 85.29 4.2
-3 5 2 84.19 4.7
3 -5 2 85.09 4.4
3 5 -2 92.79 4.1
-3 5 -2 94.19 4.6
3 5 2 91.49 4.5
3 5 2 90.89 5
-3 -5 2 93.19 4.8
-3 5 -2 93.39 5.1
3 -5 -2 84.59 4.9
3 5 2 93.09 4.6
3 -5 -2 82.49 4.9
-3 -5 2 94.49 3.9
-3 5 -2 87.19 5.1
4 5 -2 49.8 4
4 5 -2 48.1 4.2
-4 -5 -2 47.5 3.5
-4 5 2 47.7 3.7
4 -5 2 49.4 4
4 5 -2 50.79 3.2
-4 5 2 48.1 4.2
4 -5 2 43.4 3.7
4 -5 2 50.59 4
-4 5 2 57.99 4
4 5 -2 50.99 3.4
-4 -5 2 48 3.7
4 -5 -2 47.2 4.5
-4 5 -2 44.9 3.8
-4 5 -2 45.5 3.6
4 -5 -2 53.59 4.3
-4 5 -2 51.79 3.7
4 5 2 48.2 3.8
4 5 2 51.19 4.1
4 5 2 51.69 3.9
5 -5 2 1.4 2.2
5 5 -2 2.9 1.6
5 5 -2 -0.5 1.8
-5 -5 -2 0.5 1.9
-5 5 2 2.7 2.2
5 5 -2 1.8 2.4
-5 -5 -2 -0.3 1.6
-5 5 2 1.4 2.3
-5 5 2 5.9 2.1
5 -5 2 3.3 2.3
5 -5 2 -0.3 2.1
-5 5 -2 -1.1 2
5 -5 -2 0.8 2.2
5 5 2 1.6 2
-5 5 -2 0.2 2.2
5 5 2 3.3 2
5 -5 -2 1.8 2.5
-5 5 -2 -1.8 1.9
-5 -5 2 1.5 1.9
6 5 -2 -1.8 1.5
6 5 -2 3.3 2.5
-6 5 2 1.9 2.5
6 -5 2 -0.2 2.2
-6 -5 -2 0.2 1.7
-6 -5 -2 1 2.1
-6 5 2 2.6 2.4
6 5 -2 0.5 2
-6 5 2 3.5 2.1
6 -5 2 1.3 2.4
-6 5 -2 -0.9 2
-6 -5 2 -0.7 1.8
6 5 2 0.7 2.2
6 -5 -2 2.9 2.9
6 -5 -2 2.5 2.3
-6 5 -2 -1.6 2.4
-6 -5 2 0.6 2
6 5 2 -2 2
7 -5 2 0.4 2.6
7 5 -2 -1.2 1.7
7 5 -2 -1.1 2.2
7 5 -2 0.5 2.5
7 -5 2 1.7 2.2
-7 5 2 -1.2 2.6
-7 -5 -2 -1.8 2.1
-7 -5 2 -0.6 2.2
7 -5 -2 -2.2 3
7 5 2 2.4 2.4
-7 5 -2 -2.9 2.5
-7 -5 2 -2.9 1.8
7 5 2 -1 2.3
7 -5 -2 3.2 2.4
-7 5 -2 0.6 2.2
8 5 -2 0.9 2.6
-8 -5 -2 0.8 2.6
8 -5 2 3.7 2.5
8 5 -2 1.4 1.9
8 5 -2 0.3 2.7
8 -5 2 1.9 3
-8 5 2 2.9 2.9
8 -5 -2 0.1 2.4
8 5 2 1.5 2.6
8 -5 -2 3 3.3
8 5 2 1.6 2.6
-8 5 -2 1.1 2.9
-8 -5 2 4.4 2.7
9 5 -2 28.3 4.1
9 -5 2 24.6 3.4
9 5 -2 23.2 2.8
9 5 -2 28 4.2
-9 -5 -2 28.3 4.2
-9 5 2 23.9 4.2
9 -5 2 40 5
9 -5 -2 29.5 4.7
9 5 2 23.9 3.9
-9 -5 2 32.9 4.4
-9 5 -2 30.3 4.5
9 5 2 28.2 4
-10 5 2 23.6 4.3
10 -5 2 20.4 4.5
10 5 -2 20 4
10 5 -2 17.4 3.8
-10 -5 -2 25.9 4.4
10 5 -2 24.7 3
10 5 2 20.6 4
10 5 2 21 4.1
-10 -5 2 20.5 4.2
-10 5 -2 27.4 4.6
10 -5 -2 18.1 4.4
0 6 -2 1162.18 40.7
0 -6 2 1149.89 40.9
0 6 2 1182.28 40.1
0 6 2 1139.89 40.8
0 -6 -2 1155.18 40.4
0 6 2 1066.29 40.2
0 6 2 1230.58 41.2
0 6 2 1268.67 40.2
0 6 -2 1179.18 40.5
0 6 -2 1211.58 41.3
0 -6 -2 1171.28 40.8
0 -6 2 1175.18 40.6
1 -6 2 25 2.5
1 6 -2 21.3 2.8
-1 6 2 25 2.1
-1 6 2 17.9 2.6
-1 -6 -2 22.7 2.3
-1 6 2 28.2 2.1
-1 -6 -2 20.8 2.4
-1 6 2 19.2 2.5
1 -6 2 25.5 2.6
1 6 -2 27.7 2.8
1 6 -2 25.5 2.3
-1 6 -2 26.5 2.5
1 6 2 21.2 2.7
1 -6 -2 23.4 2.4
-1 6 -2 26.7 2.6
1 -6 -2 33.4 3
-1 -6 2 27.6 2.4
-1 -6 2 27.9 2.8
-1 6 -2 18.5 2.8
1 6 2 25.8 2.6
1 6 2 24.6 2.2
2 6 -2 182.48 8.7
-2 6 2 189.98 7.9
-2 6 2 187.28 8.4
-2 6 2 191.38 8.7
-2 -6 -2 189.88 7.9
2 -6 2 201.48 8.4
-2 -6 -2 200.68 8.1
2 -6 2 207.68 8.3
2 6 -2 205.18 8.5
2 6 -2 202.88 7.8
-2 6 -2 201.78 8.1
-2 6 -2 193.48 8.2
-2 -6 2 207.18 7.8
-2 6 -2 204.88 8.9
-2 -6 2 190.48 8.4
2 6 2 200.78 8
2 6 2 191.18 8.3
2 -6 -2 188.98 8.1
2 -6 -2 206.28 8.6
2 6 2 210.48 8.8
-3 -6 -2 -0.6 1.6
3 -6 2 1.2 2
3 -6 2 1.2 1.8
3 6 -2 1.6 1.5
-3 6 2 2.2 2.1
-3 6 2 2.4 1.8
3 6 -2 2.1 2.2
-3 6 2 -0.3 2
3 6 -2 3.5 2.2
3 -6 -2 4.2 2.2
-3 -6 2 4.6 2.1
3 6 2 1.6 1.7
-3 6 -2 3.3 1.9
-3 6 -2 7 2.2
3 -6 -2 3.3 2.2
3 6 2 2.6 1.8
-3 6 -2 -0.9 2.2
3 6 2 -0.2 1.9
-3 -6 2 3.3 1.5
4 6 -2 8.6 2.5
-4 -6 -2 5.4 1.8
4 -6 2 12.2 2.1
4 -6 2 9.2 2.6
-4 -6 -2 8.3 2.2
-4 6 2 6.5 2.4
-4 6 2 10.5 2.4
-4 6 2 8.2 2.3
4 6 -2 7.2 1.8
4 6 -2 9.2 2.5
4 6 2 8.2 2.3
-4 6 -2 7.2 2.3
4 -6 -2 12 2.8
4 6 2 8.4 2.1
-4 6 -2 7.7 2.5
-4 6 -2 15.6 2.8
-4 -6 2 8.7 2.4
4 -6 -2 7.5 2.6
4 6 2 9.5 2.4
5 -6 2 11.6 2.8
5 6 -2 14.9 2
5 -6 2 10.5 2.1
-5 6 2 15.1 3.1
-5 6 2 13.9 2.7
5 6 -2 13.7 3
5 6 -2 14.4 2.9
-5 -6 -2 16.4 2.6
-5 6 2 15.2 2.6
5 -6 -2 15 2.9
-5 6 -2 12.5 3
5 6 2 9.5 2.4
-5 -6 2 18.8 2.8
5 6 2 13.2 2.5
-5 6 -2 12.7 2.8
-5 6 -2 10.4 2.4
5 -6 -2 12.6 2.9
-6 6 2 64.99 5.9
-6 -6 -2 78.89 4.8
-6 -6 -2 75.29 5.7
-6 6 2 83.69 5.2
6 -6 2 72.99 5.7
-6 6 2 87.59 5.8
6 6 -2 86.69 5.7
6 6 -2 76.09 4.4
-6 -6 2 85.59 5.3
6 -6 -2 86.09 6.2
6 6 2 83.19 5.4
-6 -6 2 75.29 5.8
-6 6 -2 75.79 6.1
6 6 2 78.49 5.2
6 -6 -2 81.59 5.8
7 6 -2 -2.5 1.6
-7 6 2 2 2.8
7 6 -2 3.1 2.9
-7 -6 -2 1.1 2.5
7 -6 2 2.5 2.6
7 6 2 1.1 2.4
7 -6 -2 -1.6 2.5
-7 -6 2 1.2 2.4
-7 6 -2 0.4 2.8
7 6 2 0 2.4
-7 -6 2 -1.2 2.1
7 -6 -2 -0.5 3
8 -6 2 24.5 3.5
8 6 -2 15.6 2.4
-8 6 2 15.9 3.7
-8 -6 -2 21.3 3.6
8 6 -2 18.6 3.5
-8 6 -2 15.9 3.7
8 6 2 12.7 3.2
8 -6 -2 12.6 3.8
-8 -6 2 16.6 3.5
8 6 2 14.4 3.1
8 -6 -2 22.7 3.4
9 6 -2 29.5 4.4
-9 -6 -2 34.9 4.6
9 6 -2 26.5 2.9
9 -6 2 24.5 3.7
-9 6 2 28.2 4.5
9 6 2 32.3 4.3
9 -6 -2 24.1 4.5
-9 6 -2 31.9 4.7
9 -6 -2 25.7 3.7
9 6 2 28.8 4
-9 -6 2 25.2 4.2
-10 -6 -2 36.4 8
10 -6 2 45.9 4.6
10 -6 -2 33 5.4
10 6 2 36.7 4.9
0 7 -2 1 1.8
0 -7 2 1.8 2
0 7 2 0.6 1.4
0 7 2 -0.7 2.1
0 7 2 -5.5 2.1
0 -7 2 -1.1 2
0 7 -2 -2.2 2.3
0 7 -2 -2.1 2
0 -7 -2 -0.4 2.1
1 -7 2 479.95 17
-1 7 2 445.26 17.1
-1 -7 -2 451.65 16.8
1 7 -2 440.26 17.5
-1 7 2 437.56 17.4
1 7 -2 443.76 16.9
1 7 -2 471.15 16.5
1 -7 2 431.56 17
-1 7 2 455.25 16.3
-1 7 -2 459.35 16.7
1 7 2 453.85 17.4
-1 -7 2 460.55 16.7
-1 7 -2 471.45 16.7
1 7 2 452.95 17.1
-1 -7 2 459.25 17.2
1 7 2 461.85 16.4
1 -7 -2 465.65 17.1
-1 7 -2 448.76 17.6
-2 -7 -2 18.5 2.5
2 -7 2 15 2.7
2 -7 2 19.8 2.8
-2 7 2 22.1 2.4
-2 7 2 18.1 2.7
2 7 -2 13.6 3.1
2 7 -2 23.6 2.4
-2 7 2 16.1 2.9
2 7 -2 22.1 2.9
-2 7 -2 12.4 2.9
2 7 2 15.7 3
2 7 2 14.4 2.6
-2 -7 2 16.2 2.7
2 7 2 21.3 2.4
-2 7 -2 19.8 2.8
2 -7 -2 17.9 3
-2 7 -2 17.5 2.7
-2 -7 2 21 2.4
3 7 -2 110.09 5.3
3 -7 2 106.49 5.9
3 7 -2 120.69 6.9
-3 -7 -2 122.19 6.3
-3 7 2 108.09 6.7
-3 -7 -2 121.59 5.7
3 -7 2 122.49 6.6
-3 7 2 116.09 5.9
-3 7 2 112.29 6.2
3 7 -2 118.59 6.3
-3 7 -2 112.69 6.2
3 7 2 110.99 5.8
3 -7 -2 109.09 6.4
-3 -7 2 128.69 6.4
3 7 2 109.99 6.5
-3 7 -2 116.29 6.9
-3 7 -2 116.19 5.8
4 7 -2 22.9 3.1
-4 -7 -2 24.8 3.1
4 -7 2 20.9 2.8
-4 7 2 12.9 3
4 -7 2 24.4 3.3
4 7 -2 26.6 3.5
-4 7 2 18.9 2.9
-4 7 2 21.8 3.1
-4 -7 -2 21.7 2.5
4 7 -2 26.9 2.3
4 7 2 21 2.8
4 7 2 20.3 3.1
-4 -7 2 22 3.1
-4 7 -2 20.7 3.5
4 -7 -2 16.4 3.3
-4 7 -2 21.2 3.1
-5 7 2 10.3 2.7
5 7 -2 11.9 2.9
5 7 -2 10.5 2.9
-5 7 2 11.2 3.1
5 7 -2 9.3 1.9
5 -7 2 10.6 2.4
-5 -7 -2 10.3 2.6
5 -7 2 11 3
-5 7 2 7.5 2.7
5 -7 -2 7.3 2.9
5 7 2 13.1 2.5
5 7 2 14.9 2.9
-5 7 -2 12.1 3.2
-5 -7 2 10.4 2.8
-5 7 -2 8.7 3
-6 7 2 36.7 4
-6 -7 -2 44.4 3.9
-6 7 2 44.2 4.6
6 -7 2 36.1 4
6 7 -2 47.1 4.4
-6 7 2 48.8 4.2
6 7 -2 49.99 3.6
-6 -7 -2 49.7 4.6
-6 -7 2 50.39 4.7
6 -7 -2 41.2 4.2
-6 7 -2 42.1 4.7
-6 -7 2 46.4 4.1
6 7 2 38.9 3.8
-7 7 2 1 2.9
7 7 -2 0.2 2.7
7 -7 2 3.3 2.9
-7 -7 -2 -0.2 2.5
-7 7 2 -0.2 3.1
7 7 -2 2.8 1.8
7 7 2 3.1 2.5
-7 7 -2 3 3.1
-7 -7 2 -0.3 2.3
7 -7 -2 1.4 2.9
-7 -7 2 0.4 2.4
8 7 -2 21.4 3.8
-8 -7 -2 27.4 4
8 -7 2 22.9 3.8
8 7 -2 27.9 2.8
-8 7 2 34 4.7
8 7 2 25.9 3.8
8 -7 -2 30 4.1
-8 -7 2 27.2 4.3
-8 7 -2 22.2 4.3
-9 -7 -2 33.5 4.8
9 7 -2 31.9 3.2
9 -7 2 40.1 4.7
-9 7 2 29.5 5.1
9 7 -2 35.3 5.3
9 -7 -2 34.4 4.5
-9 -7 2 34.2 5.7
9 7 2 38.8 4.6
-9 7 -2 43.1 5.6
0 8 2 8.6 2.9
0 8 -2 19.5 2.5
0 -8 2 13.6 2.9
0 8 -2 8.2 3.1
0 8 2 18.8 2.1
0 -8 -2 25.9 3.1
0 8 2 18.1 2.9
0 -8 2 21.5 2.9
0 8 -2 13.6 2.6
-1 8 2 129.29 7.4
-1 -8 -2 134.99 6.8
-1 8 2 135.29 6
1 8 -2 142.59 6.3
1 -8 2 132.69 7
1 -8 2 137.49 7.1
-1 8 2 117.29 6.9
1 8 -2 137.69 7.7
1 8 -2 123.69 6.7
-1 8 -2 128.39 6.6
1 8 2 138.19 7
1 8 2 131.99 7.3
-1 8 -2 132.39 7.7
-1 8 -2 127.19 6.5
1 -8 -2 144.39 7.2
-1 -8 2 143.59 6.6
-1 -8 2 136.39 7.2
2 8 -2 5.2 2.9
2 -8 2 10.8 2.7
-2 8 2 10.4 2.9
-2 -8 -2 9.3 2.5
2 8 -2 9.8 2
-2 8 2 5.7 2.1
-2 8 2 3.7 2.5
2 8 -2 4.6 2.5
2 -8 2 12 2.9
2 8 2 6.7 2.8
-2 8 -2 10.2 2.6
-2 -8 2 10.6 2.4
-2 8 -2 8.5 3.1
-2 8 -2 10.3 2.6
2 8 2 10.8 2.3
2 -8 -2 9.3 3
-2 -8 2 10.5 2.8
-3 8 2 111.49 6
-3 8 2 103.29 6.8
-3 8 2 106.49 6.5
3 8 -2 102.79 6.1
-3 -8 -2 107.09 6.3
3 -8 2 107.49 6.7
3 8 -2 108.29 5.2
3 8 -2 112.49 7
3 -8 2 99.69 6
-3 -8 -2 109.29 5.8
3 8 2 101.19 5.7
-3 8 -2 99.89 6.9
-3 -8 2 109.69 6.4
-3 8 -2 107.49 6.4
3 8 2 114.49 6.8
3 -8 -2 102.09 6.9
4 8 -2 0.7 2.7
-4 8 2 3.7 2.6
-4 8 2 4.3 2.9
4 -8 2 1.9 2.3
-4 8 2 3 2.3
4 -8 2 4 2.8
4 8 -2 4.4 1.7
-4 -8 -2 1.1 2.5
4 8 -2 -0.8 2.3
4 8 2 4 2.5
4 8 2 0.7 2.2
-4 8 -2 3 2.6
4 -8 -2 -2.4 2.8
-4 8 -2 1.7 2.8
-4 -8 2 1.2 2.5
-5 8 2 48 4.3
5 -8 2 35.5 4.3
-5 8 2 44.2 4.1
-5 8 2 37.7 4.4
5 8 -2 41.7 2.9
-5 -8 -2 41.5 4
5 8 -2 35.7 4.2
5 8 -2 29.9 3.7
5 8 2 33 4
-5 8 -2 34.5 4
-5 -8 2 42.6 4.1
-5 8 -2 44.5 4.8
5 -8 -2 34.1 4.2
5 8 2 36.3 3.7
-6 8 2 2 2.7
-6 8 2 1.3 2.6
-6 -8 -2 3.2 2.5
-6 8 2 1.1 2.8
6 -8 2 3.7 3
6 8 -2 -2.2 2.5
6 -8 -2 0.3 3.2
6 8 2 0.1 2.4
-6 -8 2 -2.9 2.4
-6 8 -2 -2.1 2.9
-7 8 2 39.2 4.5
7 8 -2 35.6 4.5
7 -8 2 33.7 4.5
-7 8 2 42 5
-7 -8 -2 37.4 4.5
-7 8 -2 34.4 4.8
7 -8 -2 32.4 4.2
7 8 2 28.7 3.8
-7 -8 2 28.6 4.1
-7 -8 2 38.6 4.2
-8 -8 -2 -0.1 2.8
8 8 -2 4.6 3.3
8 -8 2 -0.5 3.2
-8 8 2 -2.2 3.2
-8 -8 2 -1.2 3.1
8 -8 -2 -1.1 3.1
8 8 2 3.1 2.9
-8 8 -2 4.4 3.7
0 9 2 -2.8 2.3
0 9 -2 -0.7 2.2
0 -9 2 2.1 2.7
0 9 2 -2.8 2.5
0 9 -2 -2 2.8
0 -9 2 -0.8 2.4
0 9 -2 -2.8 2
0 9 2 -0.1 1.6
0 -9 -2 -1.2 2.5
1 9 -2 0.8 2
-1 9 2 3.3 1.9
-1 9 2 -2.5 2.6
1 9 -2 -0.3 2.8
-1 -9 -2 3 2.6
1 -9 2 2.5 2.8
-1 9 2 2.1 2.5
1 -9 2 0.3 2.6
1 9 -2 5.4 2.5
-1 9 -2 5.4 2.5
-1 9 -2 7.3 3.2
-1 -9 2 1.6 2.6
1 9 2 -2.2 2.4
-1 -9 2 0.5 2.4
1 -9 -2 3.9 2.8
2 -9 2 8.2 3
2 9 -2 6.7 2.1
-2 9 2 8.9 2.9
-2 9 2 -0.8 2.7
-2 -9 -2 5.5 2.8
2 -9 2 5.7 2.8
-2 -9 -2 5.4 2.6
2 9 -2 3.3 2.5
-2 9 2 7.2 2.2
2 9 -2 4.3 2.9
-2 9 -2 4.1 3
-2 9 -2 9.2 2.6
2 9 2 3.7 2.7
2 -9 -2 6.4 3.1
-2 -9 2 5.4 2.9
-3 9 2 0.9 2.6
-3 9 2 0 2.5
3 9 -2 -1 2.4
3 -9 2 7.1 2.8
-3 9 2 2 2.3
3 9 -2 -0.4 2.8
-3 -9 -2 2.8 2.5
3 -9 2 3.1 3
-3 -9 -2 -0.5 2.5
3 9 -2 1.7 1.8
-3 9 -2 1.9 2.9
-3 9 -2 4 2.6
3 9 2 6.4 2.8
3 -9 -2 -1.7 3
-3 -9 2 1.5 2.7
-4 9 2 14.8 3
4 9 -2 18.6 2.3
4 9 -2 16.8 3.5
4 -9 2 18.4 3.6
4 9 -2 11.6 3.1
-4 9 2 12.7 3.4
4 -9 2 15.1 3.3
-4 -9 -2 20.7 3.5
-4 9 2 18.8 3.5
4 -9 -2 21 3.8
4 9 2 11.6 2.8
4 9 2 16.5 3.3
-4 -9 2 22.4 3.6
-4 9 -2 14.9 3.7
-4 9 -2 19.1 3.4
-5 9 2 14.3 3.7
-5 9 2 12.1 3.1
5 -9 2 11.3 3.6
-5 -9 -2 17.5 3.4
5 9 -2 9.2 3.4
-5 9 2 14.4 3.3
5 9 -2 9.4 3
5 -9 -2 15.7 3.8
-5 9 -2 12.7 3.7
-5 -9 2 16 3.3
5 9 2 13.4 3.2
5 9 2 10.4 2.8
-5 9 -2 15.2 3.4
6 9 -2 6.4 2.9
-6 -9 -2 10.1 3.1
-6 9 2 10.9 3.3
-6 9 2 6 3.5
-6 9 2 16.4 3.6
6 -9 2 5.4 3.4
6 9 2 10 2.8
-6 9 -2 8.9 3.8
-6 -9 2 12.9 3.4
6 -9 -2 14 4
-7 9 2 -4.1 3.2
7 9 -2 0.5 2.9
-7 -9 -2 3.5 3
-7 9 2 -0.8 3.1
7 -9 2 -3.1 3.5
-7 -9 2 -2.5 2.9
7 9 2 3.1 2.7
-7 9 -2 -4.6 3.3
7 -9 -2 -0.7 3.5
-7 -9 2 -1.2 2.9
0 -10 2 121.09 7.6
0 -10 2 139.79 7.4
0 10 -2 123.89 8.1
0 10 -2 120.29 6.5
0 10 2 110.59 7.6
0 -10 -2 136.99 7.6
0 10 2 123.19 5.8
-1 10 2 0.9 1.9
1 10 -2 -3.9 2.9
1 -10 2 2.1 3
-1 10 2 -0.7 3
-1 -10 -2 -0.9 2.8
1 -10 2 2 3
-1 10 2 -2.3 2.5
1 10 -2 1.7 2.1
-1 -10 -2 0.9 2.7
1 10 2 0.8 2.9
-1 -10 2 4 3
-1 10 -2 1.1 2.4
-1 10 -2 0.1 3.1
-1 -10 2 1 2.7
1 -10 -2 -1.2 2.9
2 10 -2 33 3
-2 10 2 32.8 3.3
-2 10 2 26.5 4
-2 10 2 36.1 4.5
2 10 -2 30.3 3.6
-2 -10 -2 35.9 3.9
2 -10 2 40.2 4.4
-2 -10 -2 29.7 4.2
2 10 -2 33.7 4.6
2 -10 2 32.1 4.2
2 -10 -2 34.9 4.4
-2 10 -2 28.1 4.5
-2 10 -2 29.7 3.6
2 10 2 26 3.9
-2 -10 2 38.9 4.6
3 -10 2 6.9 3.2
3 -10 2 4.4 3.3
3 10 -2 6.1 2.8
3 10 -2 8.9 2.1
-3 10 2 4.1 3.2
-3 10 2 12.5 3.2
3 10 -2 10.9 3.6
-3 -10 -2 6.9 3.2
-3 10 2 8.5 2.7
3 -10 -2 8.9 3.7
3 10 2 5.9 3.1
-3 10 -2 9.2 3.5
-3 10 -2 5.8 2.8
-3 -10 2 10.8 3.5
4 10 -2 21.6 3.5
4 -10 2 26.1 4.3
-4 10 2 23.7 4.1
4 10 -2 26.6 4.3
-4 10 2 28.8 4.1
4 -10 2 23.6 3.9
-4 10 2 27.3 3.6
-4 -10 -2 31.7 4.2
-4 10 -2 27.9 4.5
-4 -10 2 31 4.3
4 -10 -2 28.1 4.4
-4 10 -2 25.8 3.8
4 10 2 18 3.7
5 10 -2 6.1 3.5
5 -10 2 7 3.6
5 10 -2 1.3 2.8
-5 10 2 0.4 2.9
-5 -10 -2 2.2 3
-5 10 2 6.3 3.2
-5 10 2 1.8 3.2
5 10 2 4.5 3
5 -10 -2 3 3.9
-5 10 -2 0.4 3.4
-5 -10 2 8.7 3.3
-5 10 -2 2.1 3.2
-6 -10 -2 14.6 3.6
-6 10 2 19.5 3.8
6 10 -2 18.4 3.7
-6 -10 2 18 4
0 11 -2 3.4 2.4
0 -11 -2 -2.2 3.1
0 -11 2 -2.9 3
0 -11 -2 3.2 3.3
0 -11 2 -0.2 3.2
0 11 -2 3.9 3.4
0 11 2 3.7 3.2
1 11 -2 5.7 2.5
-1 -11 -2 6.5 3.6
-1 11 2 5.2 2.2
-1 11 2 4.6 3.4
1 11 -2 0.3 3.5
-1 -11 -2 6.4 3.2
1 -11 2 9.2 3.5
1 -11 2 1.3 3.3
-1 -11 2 9.7 3.7
1 11 2 0.5 3.1
-1 11 -2 0 3.4
1 -11 -2 4.5 3.5
-1 11 -2 8.7 2.9
2 -11 2 2.4 3.2
2 11 -2 -0.3 1.9
2 11 -2 0.6 3.4
-2 11 2 -0.1 3.2
-2 -11 -2 -0.6 3.3
2 -11 2 -3.3 3.3
-2 11 2 0.5 2.1
-2 11 -2 0.4 2.6
2 -11 -2 0.3 3.7
-2 11 -2 -2.7 3.4
2 11 2 -0.1 3
-2 -11 2 -1.3 3.2
3 11 -2 3.2 3.5
-3 11 2 -0.6 3.2
3 -11 2 -2.5 3.4
-3 11 2 3.6 2.6
-3 11 2 3 3.1
3 -11 2 4.1 3.4
-3 -11 -2 4.1 3.3
3 -11 -2 -0.5 3.6
-3 11 -2 0.3 3.4
3 11 2 -1.5 2.9
-3 11 -2 -0.8 2.7
-3 -11 2 5.1 3.5
-4 -11 -2 -3.2 3.1
4 -11 2 1.8 3.4
-4 11 2 0.2 3.3
4 11 2 1.2 3.4
-4 11 -2 -5.2 2.7
0 0 3 -0.1 0.9
0 0 3 1.6 0.8
0 0 -3 -2.4 1.4
0 0 3 0.3 1.1
0 0 3 0.6 0.9
0 0 -3 0.9 0.9
0 0 -3 0.1 1
1 0 -3 1956.5 65.29
-1 0 3 1867.51 65.19
1 0 3 1849.21 65.39
-1 0 3 1914.21 65.09
-1 0 -3 1883.81 64.99
1 0 -3 1873.81 65.29
1 0 3 1915.21 65.19
1 0 -3 1955.2 65.49
-1 0 -3 1916.31 65.19
1 0 3 1924.81 65.29
-1 0 3 1945.61 65.29
1 0 3 1969.2 65.19
1 0 3 1960.6 65.19
-1 0 -3 1951.4 65.29
-1 0 3 1991.1 65.29
-2 0 -3 5152.38 171.78
2 0 -3 4981.9 171.58
2 0 3 5013.7 171.18
-2 0 3 5414.06 171.78
2 0 3 5168.68 171.48
2 0 -3 4709.53 171.18
2 0 -3 5272.27 172.18
-2 0 3 4926.21 171.18
2 0 3 5260.97 171.58
2 0 3 4775.32 171.28
-2 0 3 5281.67 171.88
-2 0 -3 5016.7 172.08
2 0 3 5288.17 171.38
-2 0 3 4654.73 171.08
-3 0 3 2701.93 97.79
3 0 -3 2845.72 98.19
3 0 -3 2900.31 97.49
3 0 3 3064.19 97.69
-3 0 -3 2944.01 97.79
3 0 -3 3006.6 97.79
-3 0 -3 2962.9 97.89
3 0 -3 2789.62 97.79
-3 0 3 2929.81 97.89
3 0 3 2854.91 98.09
3 0 3 2797.62 97.59
-3 0 3 2761.82 97.79
3 0 3 2931.61 97.79
4 0 3 219.08 8.9
4 0 -3 229.98 9.1
4 0 3 215.68 8.2
4 0 3 221.88 8.2
4 0 3 219.18 8.3
4 0 -3 214.48 7.9
-4 0 3 223.48 8.4
-4 0 3 220.98 8.6
4 0 -3 228.38 8.5
-4 0 -3 214.98 8.5
-4 0 -3 219.88 8.7
-4 0 3 221.78 8.5
5 0 -3 28.7 2
-5 0 3 30.2 2.4
-5 0 3 24.1 2.5
5 0 3 24.2 2.8
-5 0 -3 31.5 2.8
-5 0 3 27.2 2.2
5 0 3 30.4 2.2
5 0 -3 26.9 2.4
5 0 3 29.5 2.2
5 0 -3 27.6 3.1
5 0 3 31 2.4
5 0 -3 29.3 2.5
-5 0 -3 30.1 2.6
6 0 3 2.3 1.7
-6 0 -3 0.8 2.1
6 0 3 -1.2 1.4
-6 0 -3 3.4 1.9
6 0 -3 -0.4 2.3
6 0 -3 -1.9 1.8
6 0 3 -3.1 2.2
6 0 -3 -1.6 1.7
-6 0 3 1.8 1.8
-6 0 3 1.7 1.5
-7 0 3 33.5 2.8
7 0 -3 31.1 3.1
7 0 -3 34.9 4
7 0 3 31.5 3.9
7 0 3 28.4 2.8
7 0 3 29.9 2.6
-7 0 -3 28.8 3.3
-7 0 -3 35.1 3.6
7 0 -3 30.7 3.2
-7 0 3 26.5 3.1
8 0 3 14.8 2.3
8 0 -3 15.2 2.8
8 0 -3 21.5 3
8 0 -3 25 3.9
-8 0 3 25.8 3.3
-8 0 -3 23.1 3.4
8 0 3 19.7 2.7
-8 0 -3 16.7 3
8 0 3 17.2 3.5
9 0 -3 81.49 6.7
9 0 3 84.59 7
-9 0 -3 81.69 6.4
-9 0 3 82.19 6.1
-9 0 -3 77.49 5.9
9 0 -3 81.99 5.7
9 0 3 93.99 5.4
9 0 -3 82.99 5.7
10 0 -3 3.3 2.7
-10 0 -3 3 2.8
10 0 -3 8 3.7
10 0 3 1 2.4
-10 0 3 9 3.2
10 0 3 8.2 3.7
-10 0 -3 5.5 3.2
10 0 -3 4.1 2.8
-11 0 -3 55.79 5.7
11 0 -3 49.7 4.8
-11 0 3 46.5 5.4
11 0 3 53.99 6
-11 0 -3 48.7 5.1
11 0 3 55.29 4.5
11 0 -3 39.5 5.6
0 1 3 26.3 1.8
0 -1 3 26.3 1.8
0 1 3 27 2
0 -1 3 28.4 2
0 1 -3 23.2 1.6
0 1 3 22.7 1.4
0 -1 3 29.3 1.8
0 -1 -3 26.3 2.1
0 1 3 28.9 1.8
0 1 -3 23.1 2
0 -1 -3 23.6 1.6
0 1 -3 28.8 2
0 1 3 26.1 1.7
0 1 -3 23.9 2.1
-1 1 3 2382.16 83.69
-1 1 3 2611.04 84.09
1 1 -3 2579.24 83.89
1 -1 3 2482.45 83.79
1 1 -3 2439.96 83.89
1 1 -3 2380.76 83.69
-1 1 3 2478.45 83.79
1 -1 3 2375.16 83.79
1 -1 3 2234.78 83.59
-1 1 3 2364.96 83.69
1 -1 3 2372.76 83.69
-1 -1 -3 2401.26 83.69
-1 1 3 2474.35 83.79
1 1 -3 2440.76 83.79
-1 -1 3 2371.46 83.79
-1 -1 3 2417.66 83.79
1 -1 -3 2467.35 83.99
1 1 3 2537.05 83.59
-1 1 -3 2580.64 83.69
-1 1 -3 2501.25 83.89
1 1 3 2524.75 83.69
-1 1 -3 2590.74 83.79
1 -1 -3 2457.35 83.69
1 1 3 2724.63 83.69
-1 -1 3 2397.96 83.59
1 1 3 2584.14 83.79
1 -1 -3 2427.66 83.59
1 1 3 2639.84 83.99
2 1 -3 732.23 24.8
-2 1 3 628.24 24.7
-2 1 3 718.83 24.7
2 1 -3 735.53 24.7
-2 1 3 710.03 24.6
-2 -1 -3 712.93 24.8
-2 -1 -3 692.03 24.6
2 -1 3 752.22 24.8
2 1 -3 740.73 24.9
2 -1 3 671.23 24.8
-2 1 3 724.03 24.7
2 -1 3 706.13 24.4
2 1 3 744.93 24.7
2 1 3 750.92 24.4
2 1 3 735.03 25
2 1 3 728.33 24.4
2 -1 -3 676.13 25
-2 -1 3 734.23 24.8
2 1 3 739.03 24.5
-2 -1 3 719.93 24.7
2 -1 -3 698.43 24.7
-2 1 -3 735.83 24.8
2 -1 -3 688.33 24.5
-2 1 -3 693.13 24.6
-2 1 -3 741.03 24.7
-2 -1 3 728.63 24.8
-2 -1 3 702.13 24.4
3 -1 3 0.4 1.5
3 -1 3 1.1 1.5
3 1 -3 -0.6 1.9
3 -1 3 0.1 1.7
-3 1 3 1.1 1.4
-3 1 3 0.9 1.4
-3 -1 -3 -1.3 1.2
-3 -1 -3 1.4 1.8
3 1 -3 1.1 1.5
-3 1 3 -0.2 1.7
3 1 -3 -0.4 1.7
3 1 3 -0.7 1.3
-3 1 -3 0.6 1.4
3 -1 -3 2.2 1.3
-3 -1 3 -0.9 1.4
-3 -1 3 -0.2 0.8
3 -1 -3 2.4 2.1
-3 -1 3 2 1.3
-3 -1 3 2.4 1.6
3 -1 -3 0.9 1.7
3 1 3 0.3 0.9
3 -1 -3 1.7 1.3
-3 1 -3 0.2 1.4
-3 1 -3 -1.3 1.8
3 1 3 0.8 0.9
3 1 3 1.8 1.2
3 1 3 1.8 1.8
4 -1 3 416.86 14.3
4 1 -3 402.26 14.8
-4 1 3 401.76 14.3
-4 -1 -3 387.36 14.5
4 -1 3 385.16 14.2
-4 -1 -3 365.86 13.6
-4 1 3 390.56 14.4
4 1 -3 404.26 14.3
4 -1 3 397.86 14.7
-4 -1 -3 383.86 14.4
-4 1 3 407.86 14.5
4 1 -3 397.46 14.5
-4 -1 3 410.66 14.5
4 -1 -3 399.76 14.9
-4 1 -3 408.56 14.5
4 -1 -3 419.26 14.4
4 1 3 407.96 13.9
4 1 3 395.96 14.1
-4 -1 3 383.86 14.2
-4 1 -3 384.86 14.2
4 -1 -3 394.86 14.1
4 1 3 394.46 13.9
-4 -1 3 396.06 14.3
4 -1 -3 384.26 14
4 1 3 405.16 14.7
-4 1 -3 406.16 14.5
5 -1 3 8.2 1.6
-5 1 3 8.6 1.7
-5 -1 -3 8.1 2.1
-5 -1 -3 7.4 1.7
5 -1 3 9.2 2.2
-5 1 3 11.2 2
5 1 -3 6.6 2.2
5 1 -3 9 1.9
5 1 -3 7.8 1.8
-5 1 3 8.6 1.9
5 -1 3 8.2 1.8
5 -1 -3 6.2 2.3
-5 -1 3 7.5 1.5
-5 1 -3 8.2 2
-5 -1 3 9 1.9
5 1 3 8.5 1.3
-5 -1 3 7.4 1.7
5 -1 -3 7.7 1.4
5 1 3 10.3 1.5
5 1 3 8.9 2.2
-5 1 -3 9.7 1.9
5 1 3 7.2 1.4
5 -1 -3 8.9 2
5 -1 -3 7.5 1.6
6 1 -3 10.5 2.1
-6 1 3 13.6 2.3
-6 1 3 8.8 2.1
6 -1 3 10.2 2.6
6 -1 3 11.3 1.9
-6 1 3 9.4 1.8
6 -1 3 10.7 2.1
6 1 -3 7.9 2.6
6 1 -3 6.6 2.2
-6 -1 -3 8.7 2.5
-6 -1 -3 10.1 2.1
6 -1 -3 8 1.9
6 -1 -3 7.2 2.2
-6 -1 3 8.7 2.1
6 1 3 9.3 1.7
6 -1 -3 7.9 2.7
6 1 3 11.3 2.8
6 1 3 10.2 1.7
-6 1 -3 13.1 2.3
6 -1 -3 10.4 1.6
-6 -1 3 12.6 2
-6 1 -3 10.5 2.4
-7 -1 -3 167.28 7.9
7 1 -3 166.38 8.4
-7 1 3 163.58 7.1
-7 -1 -3 154.58 7.9
7 -1 3 167.58 8.3
-7 1 3 155.08 7.9
7 1 -3 168.48 7.7
7 -1 3 161.38 7.1
7 1 -3 167.38 7.5
7 -1 3 168.98 7.4
-7 1 -3 167.58 7.7
7 1 3 166.88 8.3
-7 -1 3 167.78 7.9
7 -1 -3 179.58 7.8
7 -1 -3 155.28 7.3
-7 1 -3 173.48 8
7 -1 -3 161.28 8.5
-7 -1 3 162.78 7.1
7 1 3 162.58 6.9
7 1 3 164.88 6.8
-8 -1 -3 109.39 6.8
8 1 -3 115.09 7.5
-8 1 3 113.49 7
8 1 -3 135.79 6.6
8 1 -3 128.69 6.7
8 -1 3 120.29 7.4
8 -1 3 115.19 6.3
-8 -1 -3 124.59 7
8 -1 3 120.09 5.9
-8 1 -3 122.89 7.1
8 1 3 122.89 7.4
8 -1 -3 118.99 6.6
-8 1 -3 120.39 6.8
8 -1 -3 119.69 6.2
-8 -1 3 124.99 6.9
8 1 3 119.49 5.9
8 -1 -3 114.89 7.6
9 1 -3 1.6 3
-9 1 3 3.3 2.6
-9 -1 -3 0.1 2.5
9 1 -3 3.2 2.6
9 1 -3 -1 2.4
9 -1 3 2.7 2.4
9 -1 3 5.3 3.3
-9 -1 -3 -0.3 2.9
9 1 3 1.3 2.2
-9 1 -3 2.1 2.7
9 -1 -3 2.1 3.2
-9 1 -3 7 2.9
9 -1 -3 5 2.5
9 1 3 1.9 3.1
-9 -1 3 1.4 2.5
9 -1 -3 1.1 2.5
10 1 -3 4.9 2.7
-10 1 3 0.7 2.8
10 -1 3 3.8 3.6
10 -1 3 1.8 2.6
10 1 -3 0.8 2.6
-10 -1 -3 -1.5 3
10 1 -3 1.5 3.5
-10 -1 -3 2.2 2.9
10 1 3 -0.2 3.3
-10 1 -3 4.5 3
-10 1 -3 5 3.1
-10 -1 3 1.8 2.7
10 1 3 2.9 2.3
10 -1 -3 0.7 2.7
10 -1 -3 3 3.4
11 -1 3 2.4 3.8
-11 -1 -3 1.1 3.1
11 1 -3 1.7 3
11 1 -3 4.6 3
11 1 -3 0.8 3.7
-11 -1 -3 4.7 3.5
-11 1 3 0.8 3.1
11 -1 3 0.1 2.7
11 1 3 -1.7 2.4
-11 1 -3 4.6 3.2
11 -1 -3 0.1 3.2
11 -1 -3 -2.3 3.6
-11 -1 3 -0.7 3.2
11 1 3 1.2 3.7
-11 1 -3 5.7 3.4
0 2 -3 -1.1 1.2
0 2 -3 0.5 1.2
0 2 3 -2.9 0.9
0 2 3 0.5 1.1
0 2 -3 -3 1
0 -2 3 0.3 1
0 2 3 0.8 0.9
0 2 3 -0.8 1.1
0 2 3 0.3 0.8
0 -2 3 -0.2 1
0 -2 -3 -5.5 1.5
0 -2 3 -0.2 1.1
0 -2 -3 1.4 0.8
-1 2 3 1 1.1
1 2 -3 0.1 1.3
1 2 -3 1.1 1.4
-1 2 3 2.1 1.3
-1 -2 -3 3.1 1.1
1 2 -3 1.8 1.2
-1 2 3 0.8 1.1
1 -2 3 0.5 1.2
1 -2 3 0.5 1.3
1 2 -3 0.8 1.3
1 -2 3 0.4 1.1
-1 2 3 1.1 1
-1 2 3 2.4 1.1
1 -2 3 1.6 1
1 2 3 1.7 1.1
-1 2 -3 -0.5 1.3
1 2 3 2.1 1.5
-1 -2 3 2.3 1
-1 2 -3 0.1 1.2
1 -2 -3 1.2 1.6
-1 2 -3 -2.5 1.2
1 2 3 0.7 1.2
-1 -2 3 3.9 1.2
1 2 3 1.8 1
1 -2 -3 1.9 1.1
-1 -2 3 1.1 1.3
-2 2 3 1164.88 38.7
2 2 -3 1073.69 38.6
-2 2 3 1114.29 38.6
2 2 -3 1188.28 38.7
2 -2 3 1091.69 38.4
2 2 -3 1156.68 38.8
2 2 -3 1073.89 38.8
-2 2 3 1151.88 38.7
2 -2 3 1089.39 38.7
2 -2 3 1159.28 38.7
2 -2 -3 1167.18 39.1
2 2 3 1140.59 38.6
2 2 3 1183.58 38.6
-2 2 -3 1082.79 38.7
2 2 3 1176.28 38.5
-2 2 -3 1149.98 38.7
2 -2 -3 1070.69 38.6
-2 -2 3 1112.29 38.7
-2 2 -3 1119.59 38.7
2 2 3 1170.88 38.9
-2 -2 3 1077.49 38.6
-2 -2 3 1147.79 38.3
2 -2 -3 1070.49 38.6
-3 2 3 64.79 3.7
3 -2 3 54.59 2.7
3 -2 3 57.49 3.7
3 2 -3 66.39 3.9
3 2 -3 66.09 4
3 2 -3 61.29 3.5
-3 2 3 61.19 3.4
3 -2 3 64.99 3.6
3 -2 3 61.39 3.6
-3 2 3 59.29 3.5
-3 -2 -3 57.09 3.3
-3 2 -3 61.69 3.6
3 2 3 59.79 3.5
-3 -2 3 60.59 3.6
3 -2 -3 59.59 4.3
3 2 3 60.09 2.9
-3 2 -3 55.29 3.8
-3 -2 3 64.19 3.5
-3 2 -3 54.49 3.7
-3 -2 3 68.69 3.5
3 -2 -3 65.09 3.7
3 2 3 62.89 3.3
3 -2 -3 54.29 2.7
3 -2 -3 53.89 3.4
3 2 3 64.59 4
-4 2 3 33.9 2.6
4 2 -3 33 2.8
-4 2 3 31.2 2.6
4 2 -3 30.6 2.3
4 -2 3 30.7 2.4
-4 2 3 37.6 3
4 2 -3 32.8 2.8
4 -2 3 29.5 2.4
4 -2 3 33.1 2.8
-4 -2 -3 30.9 2.7
-4 -2 -3 33.5 2
-4 2 -3 33.1 2.7
4 -2 -3 26.2 2.9
-4 2 -3 34.3 2.6
-4 -2 3 31.7 3
-4 2 -3 35.1 2.7
-4 -2 3 30.1 2.6
4 2 3 35.3 2.9
4 -2 -3 32.8 2.7
4 2 3 36.7 2.4
4 -2 -3 27 2.4
-4 -2 3 35.7 2.9
4 -2 -3 33.4 2.2
4 2 3 34.1 2.9
5 2 -3 38.7 2.8
-5 2 3 31.4 2.9
-5 2 3 36.9 3
5 -2 3 43.7 3.3
5 -2 3 40.4 3.8
-5 -2 -3 36.1 3.3
5 2 -3 39.9 3.3
-5 2 3 41.5 3.1
-5 -2 -3 35.5 2
5 -2 3 39.3 2.8
5 2 -3 37.5 3.3
5 -2 -3 38.1 2.6
5 -2 -3 42.9 3.2
-5 2 -3 37.5 3.1
-5 -2 3 38.2 2.9
5 -2 -3 35.8 3
5 -2 -3 33.6 3.5
-5 2 -3 33 3
-5 2 -3 43.1 3.6
5 2 3 36.2 2.6
-5 -2 3 41 3.4
5 2 3 31.3 2.8
5 2 3 37.2 2.4
5 2 3 30.3 3.1
6 2 -3 135.89 6.3
6 2 -3 145.69 7.1
6 -2 3 141.89 7.2
-6 2 3 137.29 6.7
-6 2 3 134.69 6.2
6 -2 3 128.39 6.5
6 2 -3 141.69 6.9
-6 2 3 140.59 6.9
-6 -2 -3 141.59 6.8
6 -2 3 147.79 6.4
-6 -2 3 138.59 6.9
6 2 3 150.38 5.7
6 2 3 140.19 7.3
6 -2 -3 142.19 6.7
6 2 3 128.19 6.6
6 -2 -3 152.88 7.7
-6 -2 3 143.29 6.2
-6 2 -3 141.19 6.7
-6 2 -3 134.39 7
6 -2 -3 125.09 6
6 2 3 139.39 5.8
6 -2 -3 145.19 6.1
7 -2 3 149.59 6.9
7 -2 3 137.49 6.6
-7 -2 -3 133.79 7.2
7 2 -3 156.88 6.8
7 2 -3 146.49 7.2
-7 2 3 137.09 7.3
7 2 -3 142.09 7.6
-7 2 3 146.09 6.5
7 -2 3 147.29 7.8
7 -2 -3 147.79 6.5
-7 2 -3 148.19 7.2
-7 -2 3 145.69 6.5
-7 -2 3 151.18 7.4
7 -2 -3 135.49 7.1
7 2 3 138.49 7.8
-7 2 -3 146.29 7.6
7 2 3 142.99 6.1
7 -2 -3 143.19 8.2
7 -2 -3 141.29 6.3
8 -2 3 13.9 3.4
8 -2 3 16.3 2.5
8 2 -3 16.2 3.4
8 2 -3 21.2 3
-8 -2 -3 17 3.1
8 -2 3 24.7 3.1
-8 2 3 29.4 3.6
8 2 -3 18.7 3.3
-8 2 -3 19 3.2
8 -2 -3 15.8 3.8
-8 2 -3 13 3
8 2 3 17.9 3.6
8 2 3 18 2.3
8 -2 -3 21.2 3.1
-8 -2 3 19.8 2.6
-8 -2 3 21.9 3.3
9 -2 3 13.3 3.9
-9 2 3 9.4 3.1
-9 -2 -3 16.6 3.5
9 2 -3 14.3 3.6
9 -2 3 18.1 3
9 2 -3 14.6 3.2
9 -2 3 7.7 3.5
-9 -2 -3 13.9 3.2
9 2 -3 15.3 2.9
-9 2 -3 11.2 3.1
-9 2 -3 13.6 3.2
9 -2 -3 11.4 3.2
9 -2 -3 11.9 3.8
9 2 3 17.2 3.7
-9 -2 3 14.6 3.2
9 2 3 16.3 2.4
10 2 -3 5.3 3
-10 2 3 3.9 3
10 -2 3 7.7 2.9
-10 -2 -3 4.3 3
10 -2 3 0.5 3.4
-10 -2 -3 3.5 3.3
10 2 -3 0.6 3.3
10 2 -3 3.3 2.6
10 -2 -3 1.9 3.4
-10 2 -3 10.7 3.2
10 2 3 3.7 2.2
-10 -2 3 1 2.8
10 2 3 5.8 3.4
-10 2 -3 6.4 3.1
11 -2 3 5 3.1
11 2 -3 7.8 3.3
11 2 -3 5.4 4
-11 2 3 9.5 3.6
11 2 -3 6 3.1
11 -2 3 6.3 4
-11 -2 -3 5 3.7
-11 -2 -3 7.4 3.5
-11 -2 3 5.3 3.7
-11 2 -3 7.6 3.4
-11 2 -3 4.5 3.4
11 2 3 6.5 2.7
11 2 3 9.1 4.1
11 -2 -3 3.1 4.3
0 3 -3 28.6 2.4
0 3 3 33.7 2.2
0 3 -3 34.9 2.4
0 -3 -3 30 2.1
0 3 3 33.8 2.1
0 3 3 31.4 2.3
0 -3 -3 31.2 2.8
0 3 3 34.8 2.9
0 -3 3 28.6 2.1
0 3 3 33.3 2.4
0 3 -3 28.7 2.5
0 3 -3 27.3 2.4
0 -3 3 31.2 2.4
0 -3 3 29.7 2.3
-1 3 3 1236.28 42.7
1 -3 3 1264.07 42.9
-1 3 3 1347.77 42.7
-1 3 3 1252.07 42.9
1 3 -3 1288.87 42.6
-1 3 3 1162.58 42.9
1 -3 3 1260.27 42.9
1 3 -3 1300.87 43.1
1 -3 3 1274.37 42.8
1 3 -3 1198.08 42.8
1 3 -3 1217.58 43
1 -3 3 1247.78 42.6
-1 3 -3 1181.28 43
-1 3 -3 1296.67 42.9
1 -3 -3 1292.77 43.1
1 3 3 1244.08 42.9
1 3 3 1150.28 42.6
-1 3 -3 1256.17 43
1 3 3 1300.27 42.9
-1 -3 3 1229.58 42.6
-1 -3 3 1235.18 42.8
1 3 3 1297.77 42.9
2 -3 3 32.6 2.7
2 3 -3 39.8 2.8
2 -3 3 35.8 2.5
-2 3 3 42.9 3.2
2 -3 3 37.5 3
2 3 -3 35.3 2.4
-2 3 3 35.5 2.8
2 3 -3 35.4 3.2
-2 3 3 33.9 2.8
2 3 -3 40.8 3.5
-2 3 3 37.5 2.9
-2 3 -3 34.2 2.6
2 3 3 39 2.7
-2 -3 3 42.2 2.2
2 3 3 36.7 2.8
-2 -3 3 37.7 2.9
2 -3 -3 32.1 2.5
2 3 3 35.4 2.8
-2 -3 3 39.1 2.8
2 3 3 39.7 2.8
2 -3 -3 37.2 3.1
-2 3 -3 28.8 2.5
-2 3 -3 37 3.2
2 3 3 33.3 3.3
2 -3 -3 36 2.9
3 -3 3 525.05 19
3 3 -3 573.34 19.4
3 3 -3 528.85 19.2
-3 3 3 561.14 19.6
-3 3 3 552.84 19.3
3 3 -3 552.74 19.2
-3 3 3 526.95 19.4
3 3 -3 512.35 19.6
3 3 -3 575.94 19.7
3 -3 3 528.65 19.3
3 -3 3 535.35 19.3
3 3 3 585.34 19.2
3 -3 -3 550.24 19.3
-3 3 -3 550.64 19.5
-3 -3 3 538.45 19.4
3 3 3 554.84 19.2
-3 -3 3 527.05 19.2
3 3 3 544.85 19.4
3 -3 -3 521.55 19.7
3 3 3 554.24 19.6
-3 3 -3 575.24 19.4
3 3 3 564.44 19.4
-3 3 -3 543.65 19.4
3 -3 -3 546.65 19.4
4 -3 3 33.3 2.1
4 3 -3 34.8 2.8
-4 3 3 39 2.8
-4 3 3 42.5 3.5
4 -3 3 42.6 3.3
4 3 -3 37.2 3.1
4 -3 3 29.5 2.6
-4 3 3 38.9 3.1
-4 3 3 32.6 1.9
4 3 -3 37.5 3.3
-4 -3 -3 35.1 3
4 -3 3 32 3.1
-4 -3 3 41.3 2.9
-4 3 -3 41.8 3.3
-4 3 -3 45.7 3.1
-4 3 -3 31.5 2.8
4 -3 -3 37.5 2.7
4 -3 -3 38.2 3.4
4 3 3 41.5 3.5
4 -3 -3 31.4 2.7
4 3 3 40.7 3.2
4 3 3 35.5 2.5
-4 -3 3 35.7 3.3
-5 3 3 23 2.5
-5 3 3 23.1 2
-5 3 3 31.4 2.9
5 3 -3 26.1 2.9
5 3 -3 26.3 2.8
5 -3 3 25.3 2.7
5 3 -3 29.3 2.5
-5 3 3 27.8 2.8
5 -3 3 21.5 2.8
-5 -3 -3 27.1 2
5 -3 3 21.3 2.4
-5 -3 -3 21.3 2.4
-5 -3 3 24.2 2.4
5 -3 -3 24.7 2.5
-5 3 -3 26.5 2.8
5 -3 -3 24.4 3.3
-5 -3 3 21.7 2.6
5 3 3 28.2 2.1
5 3 3 18 2.5
5 -3 -3 25.4 2.7
-5 3 -3 24.3 2.8
-5 3 -3 26.1 2.6
5 3 3 25.5 3
-6 3 3 267.57 10.9
-6 3 3 283.97 11.7
-6 -3 -3 295.77 11.5
6 3 -3 283.27 11.5
6 -3 3 293.57 11.7
6 -3 3 269.87 11
-6 3 3 280.57 11.3
6 3 -3 283.27 10.9
6 3 -3 282.27 11.5
6 -3 3 306.07 11.3
6 -3 -3 293.57 11
6 3 3 279.87 11.3
6 3 3 269.87 11.6
6 -3 -3 276.77 11.2
-6 3 -3 288.27 11.7
-6 -3 3 296.67 11
6 3 3 279.27 10.5
6 -3 -3 284.57 12.1
-6 -3 3 276.97 11.5
-6 3 -3 271.17 11.2
7 3 -3 8.8 2.8
7 -3 3 16.3 3.2
7 3 -3 17.8 2.5
-7 -3 -3 9.8 2.5
-7 3 3 14.6 2.4
7 -3 3 9.3 2.4
7 -3 3 13.3 2.7
-7 3 3 14.9 3
7 3 -3 16.1 3.1
7 3 3 14.5 2.7
-7 3 -3 11.3 2.8
-7 3 -3 18.3 3
-7 -3 3 16.5 2.3
7 3 3 16 3.2
-7 -3 3 19.1 2.9
7 -3 -3 15.7 3.6
7 -3 -3 15.7 2.4
8 3 -3 128.69 7.7
-8 -3 -3 136.79 7.5
-8 3 3 121.69 7.5
8 -3 3 136.49 7.9
8 -3 3 131.89 6.7
8 3 -3 146.79 7.6
8 3 -3 138.19 6.7
8 -3 3 143.69 7.1
-8 3 -3 129.09 7.6
-8 -3 3 140.29 7.5
-8 -3 3 123.59 6.4
8 -3 -3 130.79 8.4
8 3 3 142.39 7.9
8 3 3 124.19 7.2
-8 3 -3 134.09 7.2
8 3 3 130.29 5.8
9 -3 3 118.49 7.1
9 3 -3 125.09 6.6
9 -3 3 125.99 8.2
9 -3 3 111.69 6.4
-9 3 3 116.59 7.7
9 3 -3 122.29 7.3
-9 -3 -3 119.79 7.5
9 3 -3 122.09 7.8
-9 3 -3 120.39 7.1
9 3 3 127.49 8
-9 -3 3 122.69 7.5
-9 3 -3 122.99 7.8
9 3 3 128.49 5.7
9 -3 -3 121.69 8.6
10 -3 3 -0.6 2.8
10 3 -3 -2.7 3.1
10 3 -3 -5.4 2.3
10 3 -3 -4.7 2.8
-10 -3 -3 1.5 3.3
10 -3 3 -0.1 3.4
-10 3 3 -0.4 3
-10 -3 -3 2.2 3
-10 3 -3 -2.8 2.7
10 3 3 0.3 2
-10 -3 3 0.2 2.8
10 -3 -3 -0.4 3.6
-10 3 -3 3.6 3.1
10 3 3 -0.8 3
11 3 -3 18.9 3.9
11 -3 3 22.2 3.8
-11 -3 -3 20 4.1
11 3 -3 22.5 4.5
11 -3 3 24.4 4.9
-11 3 -3 12.7 4.1
0 -4 3 0.4 1.4
0 -4 3 -0.8 1.5
0 4 3 -0.7 0.9
0 -4 -3 -3.1 1.8
0 -4 3 -0.4 1.5
0 4 -3 1.1 1.5
0 4 3 -0.4 1.4
0 4 3 2.9 1
0 4 -3 -3.3 1.6
0 4 -3 -1.5 1.7
0 4 3 -4.7 1.5
0 4 3 1.4 1.1
-1 4 3 660.43 24.6
-1 4 3 721.83 24.3
1 -4 3 725.03 24.6
1 -4 3 652.43 24.5
-1 4 3 723.33 24.7
1 4 -3 678.43 24.4
-1 -4 -3 702.13 24.7
-1 4 3 703.63 24.2
1 4 -3 708.53 24.8
1 4 -3 677.73 24.8
1 -4 3 689.23 24.5
1 4 3 686.93 24.6
1 -4 -3 707.13 24.8
-1 -4 3 687.83 24.5
1 4 3 679.03 24.3
-1 -4 3 715.63 24.3
-1 4 -3 696.23 24.9
-1 -4 3 727.13 24.7
1 -4 -3 723.03 24.7
1 4 3 741.83 24.6
1 4 3 722.93 24.7
-1 4 -3 711.73 24.7
-1 4 -3 722.63 24.6
2 4 -3 50.59 3.6
2 4 -3 47.6 2.9
-2 4 3 47.7 3.1
2 4 -3 50.49 3.2
2 -4 3 53.19 3.4
2 -4 3 52.29 3.2
2 4 -3 53.89 3.8
-2 4 3 57.79 3.6
2 4 -3 52.19 2.8
-2 4 3 62.49 3.2
2 -4 3 52.59 2.9
-2 4 3 54.79 3.5
2 4 3 54.09 3.5
-2 -4 3 53.09 3.4
-2 -4 3 54.09 3.2
-2 4 -3 56.29 3.6
-2 4 -3 54.19 3.8
2 -4 -3 60.39 3.7
-2 4 -3 56.19 3.6
2 4 3 57.69 3.3
2 -4 -3 49.1 3.8
-2 -4 3 50.29 2.7
2 -4 -3 50.19 3.1
2 4 3 53.49 3.4
2 4 3 53.19 3.2
2 4 3 56.79 3.1
-3 4 3 69.59 3.8
-3 4 3 60.89 3.8
3 -4 3 63.79 3.5
3 4 -3 74.59 4.4
3 -4 3 70.79 4
-3 4 3 64.69 4.1
3 4 -3 69.59 4.2
3 -4 3 67.29 4
3 4 -3 59.29 3.5
3 4 -3 71.09 3.6
3 -4 3 70.09 3.7
3 4 3 71.49 4
-3 4 -3 69.09 4.2
3 4 3 67.89 3.8
3 -4 -3 63.59 4.1
3 -4 -3 66.49 4.5
-3 -4 3 68.39 2.9
-3 4 -3 71.29 4.2
-3 4 -3 66.49 3.9
3 4 3 73.19 3.7
-3 -4 3 70.69 3.9
3 4 3 74.59 3.7
3 -4 -3 68.79 3.8
3 4 3 68.49 4
-4 4 3 511.15 17.4
4 -4 3 461.65 17.3
4 -4 3 473.75 16.9
-4 4 3 467.05 17.4
4 -4 3 468.65 17.4
4 -4 3 450.65 17.3
4 4 -3 474.35 17
4 4 -3 498.95 17.3
-4 4 3 473.95 17.6
4 4 -3 489.45 17.7
4 4 3 486.55 17.5
-4 4 -3 460.15 17.6
-4 4 -3 478.15 17.3
-4 4 -3 476.95 17.5
4 4 3 479.85 17.4
-4 -4 3 478.65 17.4
4 -4 -3 461.95 17.8
4 4 3 499.85 17
4 -4 -3 481.65 17.4
5 -4 3 32.3 3.1
-5 -4 -3 45.6 3.8
5 4 -3 44.4 3.8
-5 4 3 41.9 3.6
-5 4 3 41.2 3.5
5 -4 3 34.6 3.4
-5 -4 -3 44.2 3.1
-5 4 3 50.29 3.9
5 4 -3 39.9 3.3
5 -4 3 40.3 3.5
5 4 -3 45.9 3.7
-5 4 -3 45.4 3.8
5 4 3 37.1 3.4
-5 -4 3 45.2 4
5 4 3 44.7 3.1
5 4 3 43.3 3.5
-5 4 -3 38.3 3.3
-5 -4 3 39.4 3.2
5 -4 -3 46.4 4.2
5 -4 -3 50.29 3.6
-5 4 -3 46.8 3.9
-6 4 3 219.58 9.2
6 4 -3 225.38 9.6
-6 -4 -3 229.28 9.7
6 4 -3 232.58 9.9
6 -4 3 225.08 9.8
6 4 -3 221.08 9
6 -4 3 230.08 9.5
6 -4 3 229.18 9.5
-6 4 3 217.28 9.9
-6 4 3 230.18 9.6
6 -4 -3 218.48 9.3
-6 4 -3 216.78 9.9
6 4 3 214.08 9.5
6 -4 -3 229.18 10.4
-6 -4 3 219.38 9.1
-6 -4 3 218.48 9.8
-6 4 -3 228.48 9.4
6 4 3 217.48 9.7
7 -4 3 289.57 12.2
7 -4 3 287.47 11.7
7 4 -3 286.67 12
7 4 -3 284.07 11.2
7 -4 3 284.37 11.6
7 4 -3 276.27 12
-7 -4 -3 297.67 12.2
-7 4 3 284.07 12.3
-7 4 3 295.17 11.5
7 -4 -3 271.57 11.4
-7 -4 3 288.87 11.4
-7 4 -3 290.27 11.7
7 4 3 290.57 11.9
7 4 3 287.87 12.2
-7 -4 3 290.07 12.3
7 -4 -3 303.97 12.9
-7 4 -3 266.37 12.2
8 4 -3 17.9 3.3
-8 -4 -3 13.1 3.1
-8 4 3 17.6 3.5
8 4 -3 15.9 3.4
8 4 -3 16 2.7
8 -4 3 13.5 3.5
8 -4 3 20.8 3
8 -4 3 17.8 3.1
8 4 3 6.2 2.8
-8 -4 3 8.8 2.9
8 -4 -3 13.9 2.7
8 4 3 16.2 3.3
-8 4 -3 16.5 3.1
-8 4 -3 20.3 3.5
8 -4 -3 18 4.1
-8 -4 3 19 2.7
9 -4 3 3.1 2.7
-9 -4 -3 7.7 3.2
9 4 -3 5.2 3.1
9 -4 3 6.6 2.5
9 -4 3 0.2 3.2
9 4 -3 8.4 3.3
-9 4 3 1.8 2.9
9 4 -3 4.8 2.4
9 4 3 1.1 2.7
-9 -4 3 1 2.8
-9 4 -3 5 3.1
9 -4 -3 4.7 3.8
9 4 3 2.5 2.9
-9 4 -3 5.9 2.9
10 4 -3 70.39 6.8
10 4 -3 73.99 6.2
-10 -4 -3 76.09 7
10 -4 3 83.69 7.5
10 4 -3 88.49 5.6
-10 4 3 78.89 6.7
-10 4 -3 68.69 6.2
10 -4 -3 80.69 7.8
10 4 3 82.69 7
-10 -4 3 83.49 7.1
0 -5 3 45.3 3.1
0 5 3 45.2 2.5
0 -5 3 41.9 3.2
0 -5 3 39.9 3.2
0 5 -3 40.2 3.5
0 -5 -3 47.2 3.5
0 5 3 48.4 3.4
0 5 -3 44 3.2
0 -5 -3 37.6 3
0 5 -3 36.6 3.1
0 5 3 47.5 2.4
0 5 3 44.4 3.5
-1 -5 -3 30.7 2.7
-1 5 3 26.2 2.5
-1 5 3 28.7 2.1
1 -5 3 32.6 2.5
-1 -5 -3 30.9 2.5
-1 5 3 27.3 2
1 -5 3 25.1 2.4
1 -5 3 27.8 2.4
1 5 -3 23.4 2.6
-1 5 3 26.6 2.5
1 5 -3 31.2 2.4
1 5 -3 25.8 2.7
-1 5 -3 26 2.8
-1 5 -3 26.2 2.6
1 5 3 24.8 2.4
-1 -5 3 26.9 2.5
1 5 3 25 2.5
1 -5 -3 28.6 2.7
1 5 3 28 2.2
-1 -5 3 24.5 2.1
-1 5 -3 24.2 2.3
1 -5 -3 27 2.5
-2 5 3 18.2 2.4
2 5 -3 13.2 2.2
-2 5 3 12 2.1
-2 5 3 14.5 1.8
2 -5 3 13.1 2.2
2 -5 3 14.8 1.4
2 -5 3 16.3 2.2
2 -5 3 12.2 1.9
2 5 -3 14.3 2.4
2 5 -3 13.1 1.9
2 5 3 18.3 2.1
2 -5 -3 13 2.2
-2 5 -3 16.3 2.3
2 5 3 10.5 1.7
-2 -5 3 13.1 1.6
2 5 3 13.6 2.1
-2 -5 3 17.7 2.3
-2 5 -3 13.6 2.3
-2 5 -3 17.9 2.3
2 -5 -3 14.7 2.3
3 -5 3 2.2 1.5
-3 5 3 1.4 1.8
-3 5 3 1.2 1.7
-3 5 3 2.3 1.8
3 -5 3 1.4 1.4
3 -5 3 0.4 1.7
3 5 -3 1.4 2.1
3 -5 3 2.5 1.9
3 5 -3 -0.4 1.9
3 5 -3 1.7 1.3
3 5 -3 0.5 1.5
-3 -5 3 -0.2 1.7
3 -5 -3 1.7 2.1
-3 -5 3 2.3 1.1
-3 5 -3 0.9 2
-3 5 -3 1.9 2
3 5 3 0.6 1.6
3 5 3 0.7 1.7
-3 5 -3 0.1 1.8
3 5 3 0.6 1.7
3 5 3 2.8 1.7
3 -5 -3 -0.3 1.9
3 5 3 2 1.5
4 -5 3 74.09 5
-4 5 3 83.79 5.2
4 5 -3 76.19 4.3
-4 5 3 81.89 4.9
4 5 -3 71.59 5.2
4 -5 3 83.59 4.9
4 -5 3 81.29 4.2
4 -5 3 75.39 4.6
-4 5 3 84.79 4.8
4 5 -3 88.29 5.2
4 5 -3 82.29 4.4
4 5 3 84.79 4.9
4 -5 -3 81.79 5.5
4 5 3 76.49 4.9
-4 5 -3 75.99 5.4
-4 5 -3 77.39 5.1
4 5 3 85.59 4.8
4 -5 -3 75.49 5.1
-4 -5 3 86.29 4.9
-4 5 -3 77.99 4.8
4 5 3 87.29 4.3
-5 5 3 2.7 2.1
5 5 -3 4.9 1.8
-5 -5 -3 3 1.8
5 -5 3 5.8 2.3
-5 -5 -3 4 2.1
5 5 -3 -0.4 1.9
5 5 -3 5.3 2.5
-5 5 3 2.7 2.2
5 -5 3 1.9 2.2
-5 5 3 2.2 2.3
5 -5 3 2.1 2.2
5 -5 -3 1 2.8
-5 -5 3 4.2 2.1
5 -5 -3 2 2.3
5 5 3 3.9 1.7
5 5 3 5.3 2.2
-5 -5 3 1.9 2
-5 5 -3 -0.8 2.1
-5 5 -3 2.3 2.3
-5 5 -3 2.5 2.4
5 5 3 4.7 2.2
6 -5 3 -1.6 3
-6 5 3 2.3 2.5
6 5 -3 -2.8 2.4
-6 5 3 -0.4 2.4
6 -5 3 3 2.3
6 -5 3 6.8 2.6
-6 -5 -3 -0.5 2.1
6 5 -3 -2 2.1
-6 5 3 1.8 2.1
6 5 -3 1.6 1.9
6 -5 -3 -0.6 2.8
6 5 3 0.7 2.1
6 5 3 -0.2 2.2
-6 5 -3 3.6 2.5
-6 -5 3 0.6 2.1
6 -5 -3 2.4 2.5
-6 -5 3 1.9 2.1
-6 5 -3 0.7 2.2
-7 5 3 27.2 3.8
7 -5 3 33.7 3.5
-7 5 3 32 3.3
7 5 -3 31.2 3
7 -5 3 28.2 3.7
7 5 -3 24.8 3.3
-7 -5 -3 28 3.4
7 5 -3 25.6 3.6
-7 5 -3 30.4 4
7 5 3 23.6 3.4
7 5 3 29.1 3.5
-7 -5 3 28.2 3.2
-7 -5 3 28.6 3.6
-7 5 -3 27.5 3.3
7 -5 -3 31 3.4
7 -5 -3 24.7 4.2
-8 -5 -3 6.6 2.8
8 -5 3 2 2.4
8 5 -3 6 2.8
8 5 -3 -0.8 2
-8 5 3 3.8 2.9
8 5 -3 2 2.9
8 -5 3 1.5 2.9
-8 -5 3 1.1 2.6
-8 5 -3 -2 3.5
-8 5 -3 4.6 3
8 -5 -3 2.9 2.5
-8 -5 3 5.1 2.3
8 -5 -3 2.3 3.5
8 5 3 0.7 2.6
8 5 3 0.2 2.6
-9 5 3 1 3
9 5 -3 2.4 2.3
-9 -5 -3 -0.7 2.7
9 5 -3 3.6 3.1
9 5 -3 4.7 2.9
9 -5 3 4.4 3.4
9 -5 3 0.3 2.5
-9 5 -3 4.6 3.2
-9 -5 3 2.6 2.9
9 5 3 3.5 2.7
9 5 3 -3.8 2.6
9 -5 -3 -1.3 3.6
10 5 -3 3.8 3.3
-10 5 3 2.6 3.3
10 5 -3 -4.9 2.2
10 -5 3 3 3.6
-10 -5 -3 1.4 3.1
10 -5 3 -2.4 2.6
-10 -5 3 -1.7 3.1
-10 5 -3 3.8 3.4
10 5 3 -3.8 2.8
10 -5 -3 0.9 3.8
0 -6 -3 -2.5 1.8
0 6 3 2.7 2
0 -6 -3 -0.9 1.8
0 6 -3 -1 2
0 -6 3 2.2 1.9
0 6 -3 -0.3 1.7
0 -6 3 0.7 1.8
0 6 3 -0.1 1.2
0 6 -3 -0.9 1.9
0 6 3 1.7 1.9
0 6 3 1.8 1.2
1 -6 3 44.4 3.8
1 -6 3 37.4 3.2
-1 6 3 44.6 4.1
-1 6 3 40.8 3
-1 -6 -3 44.9 3.7
1 6 -3 32.1 3.3
1 6 -3 43.9 3.1
-1 6 3 39.1 3.3
1 6 -3 42.4 3.5
-1 -6 -3 45.9 3.8
1 -6 -3 42.6 3.4
-1 6 -3 48 4.5
1 6 3 46.3 3.7
1 -6 -3 39 3.3
-1 6 -3 45.2 3.3
1 6 3 42.9 3.9
-1 6 -3 44.2 3.9
1 6 3 42.1 2.9
-1 -6 3 45.3 3.5
-1 -6 3 46.4 3.4
-2 -6 -3 2.6 2
-2 -6 -3 2.9 1.9
2 6 -3 -1.1 2
-2 6 3 1.4 2
2 -6 3 0.7 2
-2 6 3 3.3 1.7
2 6 -3 -1.4 2.1
-2 6 3 0.9 2.1
2 -6 3 -0.1 1.8
2 6 -3 -1 1.7
2 6 3 0.9 1.6
2 -6 -3 -0.9 2.1
2 6 3 1 1.9
-2 6 -3 -1 1.9
2 -6 -3 1 2.1
-2 6 -3 -0.6 2.2
-2 -6 3 0.9 1.5
-2 -6 3 0.5 2
-2 6 -3 -0.8 2
2 6 3 0.3 1.9
-3 6 3 23.7 2.6
-3 6 3 28.7 3.1
3 6 -3 28.6 2.5
3 6 -3 29.2 3.3
-3 -6 -3 26.1 2.7
3 -6 3 31.1 2.8
3 6 -3 30.5 3.3
3 -6 3 27.6 3.1
-3 6 3 26.5 3
-3 6 -3 25.3 3.2
3 6 3 26.9 2.8
3 6 3 30.7 2.7
-3 6 -3 22.6 2.8
-3 -6 3 33.3 3.2
3 -6 -3 30.3 3.3
3 -6 -3 28.2 3.1
3 6 3 29.4 2.9
-3 6 -3 26.5 2.9
3 6 3 23.6 2.8
4 6 -3 65.09 5.2
-4 6 3 76.59 4.9
-4 -6 -3 74.09 4.3
-4 6 3 70.39 4.8
4 -6 3 71.79 4.3
4 -6 3 71.19 5
4 6 -3 68.29 4.1
-4 6 3 68.19 5.2
-4 -6 -3 72.19 4.7
4 6 -3 70.89 5.1
-4 6 -3 69.99 5.4
-4 -6 3 73.79 4.9
4 6 3 70.29 4.9
-4 6 -3 65.19 4.8
-4 6 -3 77.09 5.3
4 6 3 66.29 4.5
4 6 3 75.49 4.8
4 -6 -3 60.79 5.3
4 -6 -3 63.39 4.8
5 6 -3 328.77 13.4
-5 6 3 332.67 13.2
-5 -6 -3 349.27 13
5 -6 3 326.97 13.3
-5 6 3 334.17 13.1
-5 6 3 339.77 13.7
5 6 -3 323.57 12.5
5 6 3 314.87 13.1
5 -6 -3 338.37 13.7
5 -6 -3 360.66 13.6
-5 6 -3 342.57 13.9
5 6 3 331.87 13.1
-5 6 -3 329.47 13.4
-5 -6 3 327.87 13.2
-5 6 -3 323.07 13
-6 -6 -3 108.89 6.5
-6 6 3 118.99 6.6
6 -6 3 104.19 6.4
6 6 -3 93.99 6.4
-6 6 3 106.49 6.1
6 6 -3 105.59 5.3
-6 -6 -3 106.59 5.6
-6 6 3 96.19 6.8
-6 6 -3 96.49 6
6 6 3 111.29 6.3
-6 -6 3 112.69 6.1
6 -6 -3 103.69 6.5
-6 -6 3 112.19 6.7
6 6 3 96.09 6.1
6 -6 -3 105.99 7.1
-6 6 -3 105.89 7.1
-7 6 3 5.4 2.8
-7 6 3 7.3 3
7 6 -3 7.9 3
7 -6 3 0.8 2.7
-7 -6 -3 3.6 2.5
-7 6 3 2.3 2.4
7 6 -3 6.1 2.2
7 -6 -3 8.5 2.8
7 6 3 4.2 2.5
-7 6 -3 3.7 2.9
7 -6 -3 1.1 3.3
-7 -6 3 2 2.5
7 6 3 6.7 2.6
-7 -6 3 4.2 2.4
8 6 -3 2 2
8 6 -3 2.6 3.1
-8 6 3 0.4 2.9
-8 -6 -3 2.9 2.6
8 -6 3 -2 2.5
8 6 3 -3.2 2.5
8 -6 -3 6.1 3.8
8 -6 -3 0.7 2.6
-8 6 -3 -0.7 2.9
-8 -6 3 -0.2 2.6
8 6 3 -0.9 2.6
-8 -6 3 1.6 2.3
-9 -6 -3 7.9 3.3
-9 6 3 5.5 3.5
9 6 -3 8.8 3.4
9 -6 3 8.9 3.2
9 6 -3 10.7 2.6
9 6 3 5.3 3.1
9 6 3 11.3 3.4
9 -6 -3 6.1 3.8
-9 -6 3 9.3 3.4
-9 6 -3 8.1 3.8
0 7 3 360.76 14.4
0 -7 -3 361.36 14.1
0 7 3 381.06 14.2
0 -7 3 372.16 13.9
0 -7 3 370.96 14.2
0 7 -3 363.16 13.8
0 7 -3 359.06 14.1
0 -7 -3 349.07 13.9
0 7 -3 389.56 14.8
1 7 -3 168.88 8.5
1 7 -3 176.48 7.4
1 7 -3 162.68 7.8
1 -7 3 170.88 7.8
-1 7 3 160.08 8.2
-1 -7 -3 163.98 7.6
-1 7 3 172.88 7
1 -7 3 174.68 7.9
-1 -7 -3 179.48 7.8
-1 7 3 171.98 7.9
-1 -7 3 169.98 7.4
1 7 3 172.58 7.8
1 7 3 170.08 8.1
-1 7 -3 174.08 7.7
1 -7 -3 181.78 8
1 -7 -3 165.98 7.6
-1 7 -3 174.78 7.7
-1 7 -3 151.88 8.4
-1 -7 3 175.18 8
2 -7 3 2.8 2.3
-2 7 3 3.8 1.9
2 7 -3 0.1 2.5
-2 -7 -3 6.4 2.3
-2 7 3 3.5 2.4
-2 -7 -3 5.8 2.4
-2 7 3 4 2.4
2 7 -3 3.4 2
2 -7 3 6.6 2.5
2 7 -3 3 2.4
-2 -7 3 3 2.5
2 7 3 3.1 2.2
-2 7 -3 -0.7 2.2
2 -7 -3 4.5 2.4
2 -7 -3 0.6 2.2
2 7 3 4.5 1.8
-2 7 -3 9 2.4
-2 7 -3 0.5 2.5
2 7 3 0.5 2.3
-2 -7 3 6.9 2
-3 7 3 65.09 4.5
3 -7 3 57.29 4.3
-3 7 3 68.59 5.3
3 -7 3 51.79 4.3
3 7 -3 61.39 5.3
3 7 -3 53.99 4
3 7 -3 59.69 4.9
-3 -7 -3 57.59 4.4
-3 -7 -3 68.49 5.6
-3 7 3 70.59 5.1
-3 7 -3 55.09 4.6
-3 7 -3 60.79 5.5
3 -7 -3 59.79 4.7
3 -7 -3 55.19 4.9
-3 7 -3 63.49 5.1
3 7 3 57.89 5
3 7 3 69.39 4.2
-3 -7 3 67.89 4.8
3 7 3 61.39 4.6
-4 7 3 81.99 5.4
-4 7 3 81.39 6
-4 -7 -3 89.89 5.5
-4 -7 -3 84.79 5
4 -7 3 80.09 5.1
4 7 -3 79.09 4.6
-4 7 3 71.69 5.4
4 7 -3 85.49 5.8
4 7 -3 80.89 6
4 -7 3 86.79 5.7
-4 7 -3 83.59 6.3
-4 7 -3 77.09 5.2
4 -7 -3 77.19 5.9
4 7 3 90.79 5.7
-4 -7 3 84.09 5.6
4 7 3 84.29 5
4 -7 -3 85.89 6.1
-4 7 -3 101.89 5.9
5 -7 3 18.8 3.3
5 7 -3 14.9 2.3
-5 7 3 9.9 2.9
5 7 -3 16.5 3.1
-5 7 3 12.4 2.9
5 7 -3 18.7 3.3
-5 7 3 13.1 2.8
-5 -7 -3 18.9 2.9
5 -7 -3 12.9 3.3
-5 -7 3 16.6 3
5 -7 -3 12.6 3.3
-5 7 -3 14.3 3
5 7 3 14.5 2.8
5 7 3 15.5 2.7
-5 7 -3 13.1 3.2
6 7 -3 34.9 4
-6 7 3 38.3 3.9
-6 -7 -3 28.5 3.7
-6 7 3 25.3 3.9
6 -7 3 30.4 3.9
-6 7 3 38.8 4
-6 -7 -3 32.7 3.4
6 7 -3 39.4 3.1
-6 -7 3 28.5 3.7
6 -7 -3 31.3 4
6 7 3 33.2 3.6
-6 -7 3 39.7 3.9
6 -7 -3 26.8 4
-6 7 -3 23 3.9
-7 7 3 59.39 5
-7 7 3 55.79 5.3
7 7 -3 55.89 5
-7 -7 -3 61.99 5.8
7 -7 3 67.09 5.4
7 7 -3 61.79 4.3
-7 -7 3 50.09 4.9
7 -7 -3 62.69 6.5
-7 -7 3 68.89 5.5
-7 7 -3 71.29 6.1
7 -7 -3 65.39 5.2
7 7 3 63.19 5.1
-8 7 3 5.5 3.3
8 7 -3 7.6 2.2
-8 -7 -3 3.3 2.8
8 -7 3 6.6 3.1
8 7 -3 2.2 3.2
8 -7 -3 4.5 3.1
-8 7 -3 1.2 3.3
-8 -7 3 7.8 3.2
-8 -7 3 1.3 2.6
8 7 3 0.6 2.8
-9 -7 -3 26.7 4.4
-9 7 3 25.8 7.4
9 -7 3 28.8 4.3
-9 7 -3 28.4 5.1
9 7 3 30.7 4.5
9 -7 -3 27.8 4.1
0 8 -3 -0.6 2
0 -8 3 0.3 2.3
0 8 3 -0.5 2.3
0 -8 3 0.4 2.4
0 8 -3 1.5 2.5
0 8 -3 1 2.7
0 -8 -3 0.1 2.4
0 8 3 -2.3 2.3
-1 8 3 24 2.4
1 8 -3 20.9 3.6
1 8 -3 24.8 2.8
-1 8 3 19.5 3.2
1 8 -3 15.4 3
1 -8 3 16.2 3.1
-1 -8 -3 23.5 3.2
1 -8 3 23.4 3.2
-1 8 3 17.5 3.3
-1 -8 3 23.8 3.3
1 8 3 20.6 3
1 -8 -3 23.7 3.4
-1 8 -3 25.8 3.1
1 8 3 10.8 2.9
-1 -8 3 17.5 2.7
-1 8 -3 14.8 3.4
-1 8 -3 15.1 2.9
2 8 -3 56.99 4.3
-2 8 3 54.09 4.5
-2 8 3 55.69 4.2
-2 8 3 45.8 4.3
2 -8 3 58.69 4.6
-2 -8 -3 61.49 4.7
2 -8 3 56.89 4.4
2 8 -3 57.19 4.9
2 8 -3 59.89 5.1
-2 -8 3 59.89 4.7
-2 -8 3 60.59 6.1
-2 8 -3 68.89 5
2 8 3 50.19 4.4
-2 8 -3 56.39 5.1
-2 8 -3 47.9 4.1
2 -8 -3 60.89 4.8
2 8 3 47.8 4.2
3 8 -3 -2.2 2.4
3 -8 3 -0.6 2.3
3 -8 3 -2.8 2.6
3 8 -3 0.1 1.9
-3 8 3 4.7 2.2
-3 8 3 1.2 2.5
-3 -8 -3 2.6 2.2
-3 8 3 3.5 2.5
3 8 -3 -0.8 2.7
3 8 3 0.1 2.3
3 8 3 0.9 2
-3 8 -3 -0.8 2.7
-3 8 -3 0.7 2.4
3 -8 -3 -3.2 2.7
-3 -8 3 4.1 2.7
-3 8 -3 -2 2.3
4 8 -3 5.1 2.9
4 8 -3 4.4 1.9
4 8 -3 4.2 2.6
-4 8 3 -0.1 2.6
-4 -8 -3 2 2.5
-4 8 3 5.6 2.7
4 -8 3 7.1 3
4 -8 3 2.1 2.4
-4 8 3 5.5 2.5
4 8 3 5.6 2.3
-4 8 -3 2.9 2.9
4 -8 -3 5 3.2
4 8 3 3.9 2.5
-4 -8 3 8.9 2.8
-4 8 -3 -1.9 2.6
-5 -8 -3 0.5 2.4
5 8 -3 -0.3 1.8
-5 8 3 1.7 2.6
5 8 -3 2.5 2.8
-5 8 3 0.7 2.5
-5 8 3 1.1 2.9
5 -8 3 -1.4 2.8
5 8 -3 1.6 2.7
5 -8 -3 0.3 3.1
-5 8 -3 4 2.9
5 8 3 0.2 2.5
-5 8 -3 3.8 3
-5 -8 3 2.2 2.6
5 8 3 -0.1 2.2
6 8 -3 -2.3 1.7
-6 8 3 3.5 2.7
-6 8 3 0 2.7
-6 8 3 -2 2.6
-6 -8 -3 1.7 2.5
6 8 -3 -1.1 2.6
-6 -8 -3 -1.1 2.4
6 -8 3 -0.9 2.9
6 8 3 -1.9 2.3
6 -8 -3 0.3 3.1
-6 8 -3 0.6 3.1
-6 -8 3 -1.7 2.5
-7 8 3 1.8 3
-7 8 3 0.6 3.1
7 8 -3 1.4 3
7 8 -3 -0.6 1.9
7 -8 3 2.7 3.2
-7 -8 -3 1.9 2.8
-7 8 -3 3.3 3.4
-7 -8 3 1.8 2.7
7 -8 -3 2.9 3.2
-7 -8 3 8.6 3.1
7 8 3 2.5 2.7
8 8 -3 -1.7 2.1
-8 8 3 -0.2 3.3
-8 -8 -3 1.1 2.9
8 8 -3 0.1 3.5
8 -8 3 -2.3 3.2
8 -8 -3 0.3 3.3
-8 8 -3 4.4 3.7
-8 -8 3 -3.6 2.7
-8 -8 3 0.5 3.9
8 8 3 3 2.9
0 9 -3 43.5 4.1
0 9 3 45 4.6
0 9 -3 46.8 5
0 -9 3 58.09 4.5
0 9 3 51.59 4.6
0 9 -3 59.39 4.7
0 -9 3 63.99 5
0 -9 -3 53.99 4.7
-1 -9 -3 54.59 4.5
1 -9 3 57.09 4.8
-1 9 3 40.6 4.2
-1 9 3 51.89 3.8
1 9 -3 54.99 4.5
1 -9 3 57.19 4.6
-1 9 3 46.4 4.6
1 9 -3 49.9 4.4
1 9 -3 50.49 5
-1 9 -3 49.1 4.9
-1 9 -3 55.89 4.2
1 9 3 39.7 4.1
-1 -9 3 54.39 4.2
-1 9 -3 49.5 4.2
1 9 3 48 4.6
-1 -9 3 57.99 4.8
1 -9 -3 56.89 4.9
2 -9 3 2.9 2.8
-2 9 3 -1.7 2.5
2 9 -3 -0.3 1.9
2 9 -3 -3.4 2.6
-2 9 3 -1.6 2
2 9 -3 -2.6 2.4
-2 9 3 0.9 2.6
-2 -9 -3 -3.3 2.3
2 -9 3 -3.8 2.4
-2 9 -3 3.1 3
-2 -9 3 5.5 2.9
2 -9 -3 2.4 3
-2 9 -3 1.4 2.4
2 9 3 4.6 2.6
3 9 -3 20.9 2.7
3 9 -3 28.6 4.1
-3 9 3 23.1 3.6
3 9 -3 18.1 3.3
3 -9 3 31.7 4
-3 9 3 25.1 3.1
-3 -9 -3 27.7 3.9
-3 -9 -3 17.9 3.2
-3 9 3 17.5 3.5
3 -9 3 21.8 3.5
3 -9 -3 29.3 4.3
-3 9 -3 24.4 3.4
-3 -9 3 24.4 3.8
-3 9 -3 28.3 4.2
3 9 3 21.5 3.4
-4 9 3 5.9 3.1
4 9 -3 11.2 3.4
-4 9 3 13.1 3.3
-4 9 3 12.6 2.9
4 -9 3 10.6 2.9
4 9 -3 8.3 2.9
4 -9 3 10.7 3.4
4 9 -3 9.3 2.2
-4 -9 -3 9.1 3.1
-4 9 -3 6 3.4
4 9 3 11.8 3.1
-4 -9 3 12.5 3.3
-4 9 -3 9.9 3.1
4 -9 -3 11.1 3.8
-5 -9 -3 6.1 3
-5 9 3 8.1 3.1
5 -9 3 5.2 3.4
5 9 -3 6.5 2.1
5 9 -3 9.2 3.3
5 9 -3 8.6 3.1
-5 9 3 6.6 2.9
-5 9 3 8.3 3.4
5 -9 -3 9.4 3.7
5 9 3 14.4 4.8
-5 9 -3 4.2 3.4
-5 -9 3 7 3.1
5 9 3 7 2.9
-5 9 -3 5.6 3.1
-6 9 3 5.4 3
-6 -9 -3 7.5 3.4
-6 9 3 2.1 2.9
6 -9 3 1.7 3.5
-6 9 3 4 3.4
6 9 -3 2.3 3
6 9 -3 3.6 2
6 9 3 9 2.9
-6 9 -3 3.6 3.5
6 -9 -3 8.1 3.8
-6 -9 3 3.9 3.1
7 -9 3 -2.2 6.1
-7 9 3 12.4 3.5
-7 -9 -3 8.9 3.3
-7 9 3 8.8 3.9
7 9 -3 6.2 3.4
7 -9 -3 12.8 4.1
-7 9 -3 5.1 4
-7 -9 3 8.9 3.2
7 9 3 5.3 2.9
0 10 -3 -0.1 2.4
0 -10 3 -1.5 2.7
0 -10 3 2.7 3.1
0 10 3 -1.2 2.5
0 -10 -3 0.5 2.9
0 10 -3 -2.5 3
0 10 3 -0.3 2.7
1 10 -3 11.8 3
-1 10 3 17.2 3.5
1 10 -3 15.9 3.9
1 -10 3 16.3 3.6
-1 10 3 14.2 3.4
1 10 -3 15.1 2.8
1 -10 3 14.4 3.4
-1 10 3 17.6 2.4
-1 -10 -3 12.8 3.4
1 -10 -3 12.6 3.6
-1 10 -3 7.1 3.6
-1 10 -3 17.1 3
1 10 3 13.6 3.4
-1 -10 3 19.3 3.7
-2 10 3 8.9 2.3
2 -10 3 13 3.4
2 10 -3 4.5 3.4
-2 10 3 5.6 3
2 10 -3 6.2 2.9
2 -10 3 3.8 3.2
-2 -10 -3 7.7 3.3
-2 -10 -3 12.6 3.2
2 10 -3 8.2 2.3
-2 10 3 9.4 3.3
-2 10 -3 6.7 3.4
2 10 3 5.8 2.9
-2 10 -3 10.6 3
-2 -10 3 15 3.7
2 -10 -3 5.8 3.6
3 10 -3 2 3.3
3 10 -3 7.7 2.2
-3 10 3 3.4 3.1
3 10 -3 2.7 2.8
-3 -10 -3 8.6 3.2
-3 10 3 6.7 2.5
3 -10 3 4.2 3.3
3 -10 3 7.2 3.1
-3 10 3 7.6 3.2
-3 10 -3 2.3 2.8
-3 10 -3 9.4 3.7
-3 -10 3 6.4 3.3
3 -10 -3 5.8 3.8
3 10 3 2.8 2.8
4 -10 3 24.2 4.6
-4 10 3 13.8 3.6
4 -10 3 15.6 4
-4 10 3 20.7 3.8
4 10 -3 20.2 4.2
-4 10 3 23 3.4
-4 -10 -3 24.2 4
4 10 -3 22.6 2.6
4 10 -3 19.1 3.5
4 -10 -3 21.2 4.3
-4 10 -3 26.9 4.5
-4 -10 3 25.1 4
-4 10 -3 24.5 3.9
4 10 3 18.7 3.6
5 -10 3 6.2 3.8
5 10 -3 8.2 3.6
5 10 -3 8.6 3.2
-5 10 3 13 3.8
-5 10 3 5.4 3
-5 10 3 6.2 3.3
-5 -10 -3 11.6 3.5
5 10 -3 7.3 2.2
-5 -10 3 8.5 3.5
5 10 3 9.5 3.3
-5 10 -3 9 3.6
5 -10 -3 1.2 3.8
-5 10 -3 5.7 3.6
-6 10 3 3.9 3.3
-6 10 3 3.9 3.3
6 10 -3 5.4 5
0 -11 3 1.5 3.3
0 11 -3 -9.2 3.2
0 -11 -3 5.2 3.4
0 11 -3 3.8 2.6
0 11 3 0.3 3.1
0 -11 3 3.3 4
1 -11 3 4.4 3.4
1 11 -3 0.9 3.5
-1 11 3 8.3 3.3
1 -11 3 3.2 3.2
-1 -11 -3 10.2 3.5
-1 11 3 1.6 3.1
-1 -11 -3 -1.6 3
1 11 -3 -2.9 2.2
-1 11 3 2.2 2.1
-1 11 -3 3.5 2.8
-1 -11 3 9.2 3.6
-1 11 -3 0 3.5
1 -11 -3 8.3 3.6
1 11 3 3.6 3.2
-2 11 3 -2.2 3
2 11 -3 -1.9 2.2
-2 11 3 -3.8 2.8
-2 -11 -3 -1.6 4
2 11 -3 1.8 3.5
-2 11 3 3.7 2.3
2 -11 3 -0.4 3.1
-2 -11 -3 0.5 3.2
2 -11 3 -1.3 3.2
-2 11 -3 -0.4 3.5
-2 -11 3 0.5 3.3
-2 11 -3 -1 2.5
2 11 3 -1.4 2.8
2 -11 -3 3.1 3.8
3 -11 3 3.2 3.6
3 11 -3 -0.9 3.6
-3 11 3 0.6 3.1
3 11 -3 5.5 2.6
-3 11 3 -1.6 3
3 11 -3 0.7 3.3
-3 -11 -3 6.9 3.4
3 -11 3 6.2 3.4
-3 11 3 3.8 2.9
3 11 3 4.2 3.2
-3 -11 3 7 4.3
-3 11 -3 1.8 3
3 -11 -3 3.4 4.2
-3 11 -3 -1.1 3.5
4 11 -3 -4.6 2.7
-4 11 -3 0.2 3
4 11 3 -0.3 3.2
0 0 4 4.1 1.2
0 0 4 2.8 1.2
0 0 -4 2.8 1.8
0 0 4 7.2 1.2
0 0 -4 3.7 1.2
0 0 -4 4 1.3
-1 0 4 3224.38 110.99
-1 0 4 3191.98 110.89
1 0 -4 3304.97 110.89
-1 0 -4 3186.38 110.79
1 0 4 3418.46 110.99
-1 0 4 3106.49 110.79
1 0 4 3297.27 111.19
1 0 4 3400.76 110.99
1 0 -4 3309.37 110.89
1 0 4 3354.76 110.79
1 0 -4 3284.37 111.19
-1 0 4 3152.28 110.99
1 0 4 3334.77 110.79
-1 0 -4 3293.47 110.99
-2 0 -4 216.18 8.4
-2 0 4 219.18 8
2 0 4 227.18 8
2 0 4 218.28 7.8
-2 0 4 218.78 8.2
-2 0 -4 209.48 7.8
2 0 -4 228.58 9
2 0 -4 208.48 8.3
-2 0 4 223.08 8.3
2 0 4 215.38 8
2 0 4 195.78 8.5
-2 0 4 208.98 8
2 0 4 233.78 8.3
2 0 -4 219.28 8.2
-3 0 4 880.01 31.1
-3 0 -4 913.41 31.6
3 0 4 879.01 31.2
3 0 -4 954.7 31.9
-3 0 4 902.51 31.5
-3 0 -4 945.01 31.3
3 0 4 903.31 31.4
3 0 4 901.91 30.9
3 0 -4 938.61 31.5
-3 0 4 853.01 31.4
3 0 4 962.5 31.8
-3 0 4 907.01 31.4
3 0 4 888.41 31.2
3 0 -4 906.51 31.4
-4 0 4 2618.34 90.59
-4 0 -4 2705.83 90.59
4 0 -4 2545.55 90.49
-4 0 -4 2740.23 90.69
4 0 4 2724.43 90.49
4 0 4 2461.35 90.29
4 0 -4 2648.24 90.49
4 0 -4 2875.41 91.09
4 0 4 2557.24 90.89
4 0 4 2781.42 90.29
4 0 -4 2649.93 90.09
-4 0 4 2735.63 90.69
-4 0 4 2548.65 90.49
-5 0 4 904.91 31.9
5 0 4 926.11 31.8
5 0 -4 975 32
-5 0 -4 921.81 32.1
-5 0 -4 917.21 32
5 0 -4 931.41 32.5
-5 0 4 860.51 31.8
5 0 4 897.31 31.6
5 0 -4 891.31 31.8
-5 0 4 939.71 32.1
5 0 -4 889.51 31.3
5 0 4 914.71 32.4
-6 0 -4 72.49 4.7
6 0 4 67.49 4.1
-6 0 -4 71.89 4.8
6 0 -4 66.69 5.6
-6 0 4 73.29 4.7
6 0 -4 63.39 4.4
6 0 -4 75.59 4.7
6 0 4 78.69 5.6
-6 0 4 75.69 4.2
6 0 4 68.09 4.2
-7 0 -4 86.49 5.8
7 0 4 88.59 4.8
7 0 -4 81.29 5.4
-7 0 4 86.19 4.8
7 0 -4 85.89 6.3
-7 0 4 90.09 5.6
7 0 4 87.49 6.4
-7 0 -4 94.89 5.6
7 0 4 84.79 4.9
7 0 -4 91.29 5.4
8 0 4 282.97 11.4
8 0 -4 299.07 11.9
8 0 4 314.97 11.6
8 0 -4 304.17 12.1
-8 0 4 295.97 11.6
8 0 4 287.77 12.9
-8 0 4 291.17 12.4
8 0 -4 284.87 13
-8 0 -4 294.07 12.4
-8 0 -4 290.57 12.5
9 0 -4 27 4.4
9 0 4 32.6 4.5
-9 0 -4 39 4.1
-9 0 4 31.2 4
9 0 -4 41.7 3.9
-9 0 -4 41.1 4.3
9 0 4 27.2 3.1
9 0 -4 40.3 4.1
10 0 -4 32.5 4
10 0 -4 41.4 5.3
-10 0 -4 29.1 4.2
10 0 4 35.2 3.6
-10 0 4 32.4 4.2
-10 0 -4 22.4 4
10 0 4 26 4.7
11 0 -4 48.5 4.8
-11 0 4 40.7 5.2
-11 0 -4 46.4 5.1
11 0 4 47.6 6.2
-11 0 -4 39.3 5
11 0 4 53.79 4.4
11 0 -4 45.2 6.3
0 1 -4 -2.6 1.4
0 -1 4 1 1.2
0 -1 -4 -2.3 1.9
0 1 -4 3.3 1.3
0 1 -4 -0.4 0.8
0 -1 4 0.3 1.1
0 -1 4 -0.3 1.1
0 -1 -4 -2.7 1.1
0 1 4 0.1 1.1
0 1 4 -0.6 1.1
0 1 4 -0.3 1.2
0 1 -4 -6.9 1.7
0 1 4 2.3 1.1
1 -1 4 40.2 3.2
-1 1 4 44.6 3.6
-1 1 4 43.2 2.8
1 -1 4 44.7 2.9
1 -1 4 40.3 2.4
-1 -1 -4 36.4 2.9
1 1 -4 40.1 3.5
1 1 -4 45.4 2.9
-1 1 4 47.7 2.9
-1 1 4 44.3 2.3
1 -1 4 46 2.9
-1 1 4 38.5 2.8
1 1 -4 43.5 3.1
1 1 4 45.6 2.9
-1 1 -4 42 2.3
-1 1 -4 40 2.7
1 1 4 42.7 2.5
1 -1 -4 41.4 3.8
1 1 4 42 2.4
1 1 4 42.7 2.5
-1 -1 4 38.7 2.5
-1 1 -4 43.2 3.3
1 1 4 45.1 3.6
-1 -1 4 46.1 2.9
1 -1 -4 41.1 2.8
1 -1 -4 38.6 2.4
-1 -1 4 42.5 2.7
2 1 -4 6.3 2.2
-2 1 4 9.5 1.6
2 1 -4 6.9 1.8
2 -1 4 7.1 1.7
-2 -1 -4 10.4 1.9
2 1 -4 9.2 1.8
-2 -1 -4 9 1.1
-2 1 4 11.6 1.7
2 -1 4 7.5 1.9
2 -1 4 10.1 1.2
2 -1 4 9.7 1.6
-2 1 4 8 1.4
-2 1 4 8.7 1.8
-2 1 -4 5.9 1.6
2 1 4 6 1.6
2 -1 -4 9.7 1.8
-2 1 -4 8.1 1.3
2 1 4 9.6 1.4
2 1 4 8.1 1.2
-2 -1 4 7.7 1.6
2 1 4 7.3 1.2
2 -1 -4 9.9 1.5
-2 1 -4 8.7 2
2 1 4 9.4 2.1
-2 -1 4 8.7 1.3
-2 -1 4 4.7 1.6
2 -1 -4 6.4 2.4
-2 -1 4 8.1 1.5
-3 -1 -4 259.07 9.8
-3 1 4 274.47 10.1
3 -1 4 264.27 9.4
3 -1 4 281.57 10.1
3 -1 4 261.57 10.4
-3 1 4 272.07 10.1
-3 -1 -4 265.77 10.2
3 1 -4 270.27 10.2
3 1 -4 271.37 10.5
-3 1 4 284.77 10.1
3 1 4 257.97 9.6
3 1 4 265.47 9.6
3 1 4 255.97 10
-3 -1 4 265.27 10.1
3 -1 -4 262.67 9.8
-3 1 -4 268.57 10
3 -1 -4 269.17 10.1
3 -1 -4 278.47 10.7
3 1 4 273.87 9.5
3 1 4 285.17 10.5
-3 -1 4 271.87 10.1
-3 1 -4 272.07 10
-3 -1 4 271.07 9.5
-3 1 -4 283.07 10.3
-3 -1 4 271.67 10.1
4 -1 4 74.29 4.1
-4 1 4 89.79 4.2
4 -1 4 83.89 4.2
4 1 -4 81.89 4.3
-4 1 4 87.59 4.3
4 -1 4 77.89 4.6
-4 1 4 87.69 4.3
4 1 -4 84.69 4.9
-4 -1 -4 77.79 4
-4 -1 -4 82.09 4.5
4 -1 4 76.09 3.8
4 1 -4 84.69 4.5
-4 1 -4 82.39 4.5
4 -1 -4 77.79 3.8
-4 -1 4 85.99 4.3
-4 1 -4 83.19 4.2
-4 1 -4 86.69 4.1
4 1 4 81.49 4
4 1 4 77.29 3.2
4 -1 -4 80.99 4.3
-4 -1 4 80.09 4.1
4 1 4 80.59 3.5
4 -1 -4 85.09 3.9
4 1 4 80.29 4.7
4 -1 -4 92.89 5.1
5 -1 4 39.8 3.3
-5 1 4 44.1 3.6
5 -1 4 36.2 3.4
5 -1 4 47.9 3.4
-5 1 4 57.49 3.7
-5 1 4 42.3 3.3
5 1 -4 40.5 3.6
-5 -1 -4 42.6 3.3
5 1 -4 40.9 3.2
-5 -1 -4 45.2 3.7
5 1 -4 41.6 3
5 -1 -4 36.1 3
5 -1 -4 35.7 2.8
5 1 4 44.2 3.1
-5 -1 4 39.8 3.4
-5 1 -4 43.6 3.6
5 1 4 41.8 2.8
5 1 4 41 2.5
-5 -1 4 40.8 3.3
5 1 4 43.9 4.1
5 -1 -4 42.2 3.7
-5 -1 4 38 3.2
5 -1 -4 38.3 3
-5 1 -4 45 3.8
-6 1 4 95.79 5.6
-6 1 4 99.79 5
6 -1 4 91.99 5.1
6 -1 4 102.99 6.2
6 1 -4 100.19 6.2
-6 1 4 97.49 5.6
-6 -1 -4 104.99 5.5
6 1 -4 99.99 5.5
-6 -1 -4 99.59 5.7
6 1 -4 99.59 5.5
6 -1 4 99.49 5.2
6 1 4 106.19 4.7
6 -1 -4 99.09 5.5
-6 1 -4 94.29 5.6
6 1 4 104.69 6.1
6 -1 -4 110.89 6.7
-6 1 -4 97.39 5.7
-6 -1 4 100.19 5.1
6 1 4 101.09 4.9
-6 -1 4 96.19 5.4
6 -1 -4 94.59 5
6 -1 -4 103.39 4.6
-7 -1 -4 16 2.8
7 -1 4 17.7 2.3
-7 -1 -4 18.9 3
7 1 -4 17.2 3
-7 1 4 17.8 2.5
7 1 -4 20.1 2.8
7 1 -4 18.2 3.4
-7 1 4 17.6 2.9
7 -1 4 16 2.5
7 -1 4 20.8 3.4
7 -1 -4 20.9 3.5
-7 1 -4 17.8 3.1
-7 1 -4 17 2.9
7 1 4 18.1 2.2
-7 -1 4 16.2 2.8
7 -1 -4 15.6 2.4
7 1 4 19.1 2.3
-7 -1 4 18.8 2.5
7 1 4 16 3.3
7 -1 -4 19.2 2.8
8 -1 4 38.3 3.3
8 1 -4 49.5 4.3
-8 1 4 43.7 4.3
8 -1 4 46.1 3.7
8 -1 4 43.1 4.6
8 1 -4 42.3 3.9
8 1 -4 43.2 4.6
-8 -1 -4 44.6 4.4
-8 1 4 43.6 3.5
-8 -1 -4 44.9 4.2
8 1 4 41 4.6
8 -1 -4 43.9 3.6
8 -1 -4 44.6 4.1
-8 1 -4 47.4 4.4
8 -1 -4 43.2 4.7
-8 1 -4 47.5 4.3
8 1 4 45.5 3.3
-8 -1 4 34.4 3.3
-8 -1 4 46.8 4.3
-9 1 4 19 3.4
9 1 -4 13.1 3.6
-9 -1 -4 22.7 3.5
9 1 -4 18.1 3.4
9 -1 4 20.8 4
9 1 -4 22.4 3.4
-9 -1 -4 18.2 3.6
9 -1 4 23.2 3.1
-9 -1 4 18 3.3
9 1 4 22.8 2.7
9 -1 -4 23.2 3.4
-9 1 -4 18.9 3.5
-9 1 -4 24.4 3.7
9 -1 -4 22.7 4.3
9 1 4 17.7 4
10 1 -4 0.1 3.3
-10 -1 -4 -0.8 2.6
-10 1 4 2.9 2.9
-10 -1 -4 2.4 3.2
10 -1 4 -2.6 2.5
10 -1 4 -2.4 3.5
10 1 -4 1.5 2.7
10 1 -4 2.6 2.7
-10 1 -4 4.2 3
10 1 4 -0.4 3.4
10 1 4 5.8 2.4
-10 -1 4 4 2.9
10 -1 -4 -6.1 3.3
-10 1 -4 1.8 3.1
-11 -1 -4 21.1 4
11 -1 4 21.7 5.2
-11 1 4 18.9 4.2
-11 -1 -4 18 4.4
11 -1 4 19.3 3.4
11 1 -4 20.2 3.7
11 1 -4 13.3 4.8
11 -1 -4 33.8 8.6
-11 -1 4 15.9 4.8
11 1 4 27.6 5.1
-11 1 -4 20.7 4
-11 1 -4 25 4.3
0 2 4 321.07 11.1
0 2 -4 309.47 11.6
0 -2 4 315.57 11.4
0 2 4 310.17 11.1
0 2 -4 308.27 11.5
0 2 4 302.07 11.4
0 -2 -4 307.77 11.1
0 -2 4 319.17 11.3
0 2 4 299.87 11.1
0 -2 4 296.37 11.3
0 2 -4 325.37 11.4
0 -2 -4 333.37 12
0 2 4 318.57 11.4
0 2 -4 326.37 11.3
1 -2 4 59.99 3.6
1 -2 4 63.49 3.8
-1 2 4 70.79 3.4
1 2 -4 67.39 3.7
1 2 -4 69.89 3.5
1 2 -4 62.49 4.1
-1 2 4 64.59 3.8
-1 -2 -4 62.59 3.5
1 -2 4 67.79 3.3
-1 2 4 62.39 3.4
-1 2 4 67.59 3.3
-1 2 4 64.49 3.7
1 -2 4 66.19 3.7
1 2 4 65.39 3.3
1 2 4 63.29 3.1
-1 2 -4 67.79 3.5
-1 2 -4 65.69 4.1
-1 -2 4 61.89 3.7
-1 -2 4 72.69 3.3
1 -2 -4 62.09 4.4
1 -2 -4 62.39 3.4
1 -2 -4 61.29 2.9
1 2 4 69.19 3.7
-1 -2 4 69.99 3.6
-1 2 -4 67.89 3.7
2 2 -4 427.86 14.4
2 -2 4 367.46 14.1
-2 2 4 369.86 14.2
-2 2 4 390.46 14.1
-2 -2 -4 399.26 14.2
2 2 -4 399.96 14.2
2 2 -4 398.26 14.4
-2 2 4 402.56 14.1
2 -2 4 398.66 14.2
2 2 -4 404.26 14.3
2 -2 4 390.76 13.9
2 -2 4 393.46 14.3
-2 2 4 378.96 14.2
-2 -2 4 392.96 14.2
-2 2 -4 390.56 14.2
2 2 4 425.66 14.6
2 -2 -4 392.46 14.2
-2 2 -4 417.46 14.5
-2 -2 4 381.46 13.8
2 2 4 391.66 14.2
-2 -2 4 382.46 14.3
-2 2 -4 403.96 14.2
2 -2 -4 409.26 14.9
2 2 4 405.76 14
2 -2 -4 391.76 13.7
-3 -2 -4 59.69 3.2
3 2 -4 65.79 4
3 -2 4 60.39 3.7
3 2 -4 62.49 3.8
3 2 -4 60.59 3.6
3 -2 4 56.39 2.7
-3 2 4 57.09 3.4
3 -2 4 63.69 3.7
-3 2 4 60.89 3.5
-3 -2 -4 60.89 3.8
-3 2 4 58.99 3.5
-3 2 -4 59.59 3.9
-3 -2 4 59.99 3.4
3 2 4 65.69 2.9
3 -2 -4 52.19 4.3
-3 -2 4 59.39 3.5
-3 2 -4 62.79 3.6
3 -2 -4 58.19 3.5
3 -2 -4 56.89 2.7
-3 -2 4 55.69 2.6
3 2 4 59.09 4
-3 -2 4 61.39 3.5
-3 2 -4 61.99 3.5
3 2 4 63.29 3.4
3 -2 -4 56.19 3.5
4 2 -4 111.19 5.2
4 -2 4 100.79 5.3
4 -2 4 109.79 5
4 -2 4 105.39 5
4 2 -4 107.19 5
-4 -2 -4 105.29 4.8
-4 2 4 99.29 5
-4 2 4 111.09 5.1
-4 -2 -4 107.09 5.2
4 2 -4 110.79 5.5
4 -2 4 100.29 3.9
-4 2 4 103.49 4.9
4 2 4 105.99 4.2
4 2 4 111.89 4.7
-4 2 -4 107.39 5
4 -2 -4 96.09 5.6
-4 -2 4 104.39 4.9
4 -2 -4 100.59 4.7
4 2 4 97.99 5.4
4 -2 -4 95.49 4.3
4 -2 -4 100.69 5
-4 -2 4 109.39 5
-4 -2 4 113.49 5.1
-4 2 -4 105.49 5.3
-4 2 -4 109.09 5
5 2 -4 3.1 2.2
5 -2 4 3.9 1.9
5 2 -4 2.4 2.1
-5 2 4 3.5 1.8
5 -2 4 0.1 2
-5 2 4 0.3 1.8
5 2 -4 3.5 1.9
-5 -2 -4 1.6 1.6
-5 -2 -4 5.1 2.2
-5 2 4 1.9 1.6
5 -2 4 1.9 1.7
-5 2 -4 0 1.8
-5 -2 4 2 1.8
5 2 4 1.7 1.5
5 -2 -4 0.9 1.3
-5 -2 4 3 1.6
5 -2 -4 1.5 2.4
5 -2 -4 1.2 1.8
5 -2 -4 3.4 1.6
-5 2 -4 3.3 2.1
5 2 4 3.4 2.3
-6 -2 -4 51.59 4.3
-6 -2 -4 58.29 4.7
6 2 -4 64.19 4.3
6 -2 4 53.39 4.1
6 -2 4 54.19 5
6 2 -4 56.29 4.7
6 2 -4 54.29 4.9
6 -2 4 53.89 4.3
-6 2 4 60.89 4.4
-6 2 4 58.19 4
-6 2 4 49.4 4.4
6 -2 -4 60.09 4.5
6 -2 -4 54.19 4.7
-6 -2 4 55.09 3.8
6 -2 -4 53.89 3.8
-6 -2 4 56.59 4.5
6 2 4 51.99 5
6 2 4 57.99 3.6
-6 2 -4 52.29 4.7
-6 2 -4 52.19 4.7
6 -2 -4 57.19 3.6
6 2 4 52.39 3.2
7 2 -4 0.8 2.3
7 -2 4 1.1 1.9
7 -2 4 1.4 2.8
-7 -2 -4 1.6 2.1
7 -2 4 1.8 2.3
7 2 -4 -0.4 2.7
-7 -2 -4 -1.4 2.5
-7 2 4 3 2
7 2 -4 -0.1 2.2
-7 2 4 1 2.2
-7 -2 4 2.8 2.3
-7 -2 4 -1.7 1.8
7 2 4 -0.5 1.5
7 2 4 0.1 1.6
7 -2 -4 0.5 2.6
7 2 4 4.5 2.8
7 -2 -4 1.3 2.9
-7 2 -4 -1.5 2.4
-7 2 -4 2.7 2.5
-8 -2 -4 68.09 5.4
8 -2 4 67.99 5.1
8 2 -4 64.39 5
-8 -2 -4 58.99 5
8 2 -4 74.99 6.1
8 -2 4 62.09 5.5
-8 2 4 57.59 5.4
8 -2 4 58.89 4.6
8 2 -4 66.19 5.1
-8 2 4 66.19 5.4
-8 2 -4 72.49 5.6
8 -2 -4 69.99 6
-8 -2 4 66.09 4.6
-8 -2 4 62.79 5.3
8 2 4 60.79 4
-8 2 -4 67.09 5.8
8 2 4 65.19 6.2
9 -2 4 110.89 7.6
9 2 -4 92.49 6.6
-9 -2 -4 102.89 7.2
9 -2 4 95.69 5.8
-9 -2 -4 106.99 7
9 -2 4 115.09 6.5
9 2 -4 111.29 6.4
9 2 -4 91.89 7.2
-9 2 4 96.49 6.9
9 2 4 104.79 5.4
9 -2 -4 108.89 8.2
-9 2 -4 98.09 7.2
-9 2 -4 104.09 6.8
-9 -2 4 99.99 6.8
9 2 4 113.29 7.7
-10 2 4 7.8 3.4
10 -2 4 11.7 3.9
10 2 -4 15.4 3.5
10 2 -4 7.7 3.7
10 2 -4 12.3 3.1
-10 -2 -4 6.9 3.5
10 -2 4 7.8 3
-10 -2 -4 16.6 3.6
-10 2 -4 12.6 3.6
10 -2 -4 9.6 4
-10 -2 4 11.1 3.4
10 2 4 2.6 3.4
10 2 4 7.4 2.2
-10 2 -4 15.1 3.7
11 -2 4 40.5 4.4
-11 -2 -4 40 5.1
11 2 -4 38 6
11 -2 4 55.99 9.2
11 2 -4 41.2 4.8
11 2 -4 41.1 4.3
-11 2 -4 40.2 4.9
-11 2 -4 41.4 5.2
0 3 -4 -0.5 1.8
0 -3 -4 0.3 1.1
0 -3 4 -0.3 1.5
0 3 4 -2.6 1.3
0 3 -4 -2.6 1.5
0 3 4 0.7 1.5
0 -3 4 1.3 1.4
0 -3 4 0.8 1.3
0 -3 -4 -4.1 2.1
0 3 4 0.7 1.6
0 3 -4 -2.1 1.6
0 3 4 1.5 1.1
0 3 4 1.8 1.2
0 3 -4 -3.5 1.5
-1 3 4 157.08 6.7
1 -3 4 166.28 6.7
-1 -3 -4 162.08 7.1
-1 3 4 159.58 6.3
-1 3 4 162.88 6.7
-1 3 4 157.98 6.3
1 3 -4 163.18 7
-1 3 4 174.28 6.6
1 3 -4 163.38 6.7
1 3 -4 163.58 6.7
-1 -3 -4 153.88 6.3
1 -3 4 155.68 6.5
1 -3 4 171.68 6.7
-1 3 -4 175.28 7
1 -3 -4 170.48 7.3
-1 -3 4 170.68 6.6
1 3 4 175.08 6.5
-1 -3 4 160.38 6.6
1 3 4 174.28 6.8
-1 3 -4 153.78 6.7
1 3 4 159.98 6.5
-1 3 -4 168.18 6.8
-1 -3 4 155.08 6.3
2 3 -4 160.48 6.3
-2 3 4 162.88 6.4
2 3 -4 147.19 6.3
2 -3 4 152.08 6
-2 3 4 145.89 6.1
2 3 -4 162.18 6.5
2 -3 4 149.09 6.3
-2 3 4 152.98 6.1
-2 3 4 147.39 6.3
2 -3 4 159.28 6.2
2 3 -4 146.19 6.6
-2 -3 -4 153.48 6.2
2 -3 4 141.69 6.3
2 3 4 161.98 6.2
-2 3 -4 157.88 6.4
2 -3 -4 141.89 6.1
-2 -3 4 150.58 6.3
-2 3 -4 154.58 6.4
-2 3 -4 150.88 6.5
2 3 4 155.78 6.2
2 -3 -4 150.98 7
-2 -3 4 144.49 5.8
2 3 4 146.99 6.3
2 3 4 160.18 6.7
-2 -3 4 156.78 6.3
2 -3 -4 158.98 6.4
-3 3 4 33.9 3
3 3 -4 30.5 2.4
3 -3 4 31.6 2.9
3 -3 4 33.5 2.7
-3 3 4 28.2 2.5
3 3 -4 32.4 3
-3 3 4 30 2.4
3 -3 4 30.4 2.2
3 3 -4 34.8 2.9
3 -3 -4 27.3 2.4
-3 3 -4 28.4 2.6
-3 -3 4 33.8 2.5
-3 3 -4 35.7 2.7
3 3 4 30.4 2.7
3 3 4 34.4 2.8
3 -3 -4 39.9 3.1
-3 3 -4 28 2.5
-3 -3 4 34.5 2.9
3 -3 -4 32.6 3.2
-3 -3 4 32.3 1.8
3 3 4 29.5 2.4
-4 3 4 474.25 17.6
4 -3 4 481.15 17.7
-4 3 4 468.45 17.6
-4 -3 -4 492.45 17.6
4 3 -4 516.95 17.9
4 3 -4 485.95 17.5
-4 3 4 503.75 17.9
4 -3 4 472.75 17.7
4 3 -4 506.95 17.9
4 -3 4 472.85 16.9
4 -3 4 464.95 17.6
4 3 4 503.45 17.4
4 -3 -4 477.85 17.6
4 -3 -4 496.85 18.2
-4 -3 4 487.25 17.8
-4 3 -4 502.45 17.8
-4 3 -4 485.85 17.7
4 3 4 502.75 18
-4 -3 4 479.05 17.6
4 3 4 503.95 17.2
-4 3 -4 484.15 17.8
4 -3 -4 471.35 17.6
5 -3 4 980.9 33.9
-5 3 4 957.3 33.9
-5 3 4 930.81 34.1
5 -3 4 1006.8 34.2
-5 3 4 928.51 33.8
5 3 -4 959.9 33.7
-5 -3 -4 954 33.3
5 3 -4 972.1 34.1
5 -3 4 937.31 33.8
-5 -3 -4 972.7 34
5 3 -4 949.21 34.1
5 3 4 968.9 34.3
5 -3 -4 966.6 34.5
5 -3 -4 957.9 33.7
-5 -3 4 956.1 34.1
5 -3 -4 997.3 34.3
-5 3 -4 979 34.1
-5 -3 4 999.5 33.9
5 3 4 981.9 33.5
-5 3 -4 984.1 34
6 3 -4 259.77 10.8
6 -3 4 247.18 10.2
-6 3 4 250.67 10.7
6 -3 4 259.67 10.9
-6 3 4 259.67 10.1
6 3 -4 254.47 10.1
6 -3 4 254.67 10.3
-6 3 4 267.87 10.5
6 3 -4 256.17 10.7
-6 -3 -4 252.77 10.5
6 3 4 240.48 10.7
6 -3 -4 228.58 10
6 3 4 253.87 9.8
-6 -3 4 260.17 10.2
-6 3 -4 239.78 10.5
-6 3 -4 249.48 10.7
6 -3 -4 261.07 11.5
-6 -3 4 254.57 10.7
7 -3 4 13.7 2.9
-7 3 4 15.7 2.6
7 -3 4 10.9 2.5
7 3 -4 17.6 2.7
7 -3 4 16.3 3.3
7 3 -4 16.9 3.2
7 3 -4 17.2 3.2
-7 -3 -4 18.8 2.9
-7 3 4 14 3
7 3 4 17.3 3.3
-7 3 -4 11.2 2.8
-7 3 -4 21.8 3.3
7 -3 -4 18.1 3.7
-7 -3 4 12.8 2.8
7 -3 -4 16.6 2.5
-7 -3 4 11.6 2.4
8 -3 4 1.3 3
8 -3 4 1.9 2.2
-8 -3 -4 1 2.8
8 3 -4 1.5 2.7
-8 3 4 2 2.8
8 -3 4 -1.1 2.5
8 3 -4 -0.2 2.7
-8 -3 -4 -1.4 2.3
8 3 -4 4.8 2.4
8 -3 -4 -1.8 3.3
-8 3 -4 2.4 2.6
-8 -3 4 2.9 2.5
-8 3 -4 0.3 2.6
8 3 4 3.7 2.9
-8 -3 4 3.9 2.1
9 3 -4 81.99 5.7
-9 -3 -4 75.09 6.3
-9 -3 -4 104.39 7.2
9 -3 4 90.09 6.3
9 -3 4 85.09 7.1
9 3 -4 79.59 6.5
9 -3 4 72.19 5.5
9 3 -4 77.99 6.7
-9 3 4 76.09 6.5
-9 3 -4 78.69 6.7
9 3 4 83.29 6.7
-9 3 -4 81.19 6.3
9 -3 -4 80.99 7.7
-9 -3 4 87.29 6.6
10 -3 4 11.3 4.1
10 3 -4 11.9 3.2
10 3 -4 16 3.7
-10 3 4 16.7 3.8
-10 -3 -4 7.4 3.7
10 -3 4 15 3.4
-10 -3 -4 14.1 3.4
10 3 -4 9.9 3.8
-10 -3 4 13.6 3.5
-10 3 -4 15.3 3.7
10 3 4 11.9 3.8
-10 3 -4 7.8 3.4
10 -3 -4 13.7 4.3
0 -4 -4 2180.28 80.69
0 4 4 2386.76 80.79
0 4 4 2427.36 81.39
0 4 -4 2426.86 80.79
0 -4 4 2427.16 81.29
0 4 4 2524.95 81.29
0 -4 4 2294.77 81.09
0 4 -4 2312.57 81.39
0 -4 4 2446.16 81.29
0 4 4 2491.35 80.79
0 4 4 2286.47 81.29
0 4 -4 2442.46 81.49
0 4 -4 2228.78 81.19
0 -4 -4 2525.15 81.59
1 4 -4 1.4 1.5
1 4 -4 0.6 1.6
-1 4 4 2.7 1.2
-1 4 4 2.7 1.2
1 -4 4 3.3 1.5
-1 -4 -4 -1.3 1.9
1 -4 4 0.7 1.5
1 4 -4 2.7 1.8
1 -4 4 3.7 1.7
1 4 -4 3.3 1.2
-1 4 4 2 1.4
-1 4 4 1.6 1.6
1 4 4 0.9 1.4
1 4 4 1.1 1.4
1 -4 -4 -1.1 1.8
1 -4 -4 0.3 1.5
-1 -4 4 3.9 1.3
1 4 4 2.3 1.6
-1 4 -4 2 1.7
-1 4 -4 1.1 1.2
-1 4 -4 0.8 1.6
-1 -4 4 3.5 1.5
-1 -4 4 2.9 1.5
-1 4 -4 3.5 1.7
-2 4 4 57.29 3.4
-2 4 4 54.39 3.1
2 4 -4 55.99 4
2 -4 4 56.49 3.3
-2 4 4 56.29 3.7
2 4 -4 55.39 3.1
2 4 -4 56.49 3.8
-2 4 4 50.69 3.6
2 -4 4 55.69 3.6
2 -4 4 49.8 3.6
2 -4 4 51.69 3
2 4 -4 51.79 3.4
2 4 4 53.49 3.2
-2 -4 4 55.79 2.9
-2 -4 4 54.29 3.4
2 4 4 52.89 3.5
2 4 4 56.89 3.5
2 4 4 61.79 3.4
-2 4 -4 51.19 3.9
-2 4 -4 53.89 3.7
2 -4 -4 50.69 3.8
2 4 4 59.39 3.9
2 -4 -4 52.19 4.1
-2 -4 4 54.09 3.4
-2 4 -4 55.59 3.9
3 -4 4 141.89 6.1
-3 4 4 155.68 6.6
3 -4 4 153.88 6.7
-3 4 4 158.28 6.8
3 4 -4 156.78 6.4
3 4 -4 160.18 6.5
3 -4 4 153.28 6.4
3 4 -4 153.38 7
-3 4 4 157.78 6.9
3 4 -4 154.78 6.9
-3 4 -4 153.08 6.8
-3 -4 4 148.19 5.7
3 -4 -4 140.89 7.2
3 4 4 163.88 6.4
-3 -4 4 145.39 6.6
-3 4 -4 151.78 6.8
3 4 4 159.48 6.5
3 4 4 160.18 7
3 -4 -4 156.18 6.8
3 4 4 158.68 6.7
-3 4 -4 164.68 6.9
3 4 4 159.88 6.6
4 4 -4 136.09 6.2
4 -4 4 130.29 6.5
-4 -4 -4 147.39 6.5
4 -4 4 140.19 6.5
4 -4 4 137.49 5.7
-4 4 4 137.59 6.6
-4 4 4 138.69 6.7
4 4 -4 132.39 6.8
4 4 -4 142.49 6.4
-4 4 4 145.09 6.5
4 -4 4 135.49 6.4
4 4 4 138.79 6.8
-4 4 -4 140.39 6.7
4 -4 -4 147.39 7.3
4 4 4 146.59 6
-4 -4 4 144.89 6.5
-4 4 -4 137.19 6.7
4 4 4 142.59 6.1
4 -4 -4 151.38 6.7
4 4 4 151.18 6.4
-4 4 -4 144.89 6.7
5 -4 4 41.3 3.7
-5 -4 -4 45.1 3.3
5 4 -4 47.1 3.7
5 -4 4 42.7 3.6
5 -4 4 42.7 3.5
-5 4 4 45.6 4.3
5 4 -4 47.8 4
-5 4 4 49.7 3.7
-5 4 4 55.29 4.3
5 4 -4 41.9 4.1
-5 -4 -4 46.8 4
5 -4 -4 50.79 4.5
-5 4 -4 52.09 3.9
-5 4 -4 50.79 4.5
-5 -4 4 47 4.1
5 -4 -4 49 3.7
5 4 4 47.5 4
5 4 4 41.9 3.7
-5 -4 4 46.3 3.9
5 4 4 50.79 3.4
6 -4 4 0.1 2.1
-6 -4 -4 -0.3 1.9
6 4 -4 1.6 2.6
-6 4 4 -3.1 2.3
6 -4 4 -1.7 2.5
-6 4 4 0.3 2.1
6 -4 4 2.6 2.4
6 4 -4 0.5 1.9
6 4 -4 -0.5 2.2
-6 4 4 -0.7 2.2
-6 4 -4 -0.7 2.2
6 -4 -4 -2.3 2.1
-6 -4 4 -0.5 1.9
6 -4 -4 0.9 3
-6 4 -4 2.3 2.5
6 4 4 1.7 2.2
6 4 4 -1.1 2.3
6 4 4 0.7 1.6
-6 -4 4 -2.6 2
7 4 -4 197.98 9.1
-7 -4 -4 194.98 9.1
-7 4 4 189.68 8.5
7 4 -4 197.58 9.2
7 -4 4 195.48 9.3
7 4 -4 186.78 8.3
7 -4 4 204.78 8.9
7 -4 4 187.28 8.8
-7 4 4 184.38 9.2
7 4 4 208.68 9
7 4 4 190.98 9.4
7 -4 -4 205.18 10.1
-7 4 -4 187.48 9.4
7 -4 -4 187.48 8.6
-7 4 -4 176.38 8.8
-7 -4 4 197.88 9.3
-7 -4 4 178.98 8.4
-8 -4 -4 42.7 4.3
8 4 -4 35.2 4.2
-8 4 4 35.1 4.2
8 4 -4 35.4 4.2
8 -4 4 38.9 3.8
8 -4 4 30 4.2
8 4 -4 40.7 3.7
8 -4 4 32 3.7
-8 4 -4 36.6 4.1
8 4 4 35 4.2
8 -4 -4 34.5 4.9
-8 -4 4 38.1 4.2
-8 -4 4 34.2 3.5
-8 4 -4 39.3 4.4
-9 -4 -4 93.39 7.1
-9 4 4 88.09 7
9 -4 4 94.19 6.5
9 -4 4 97.79 7.4
-9 -4 -4 97.79 7
9 4 -4 98.69 6
9 4 -4 101.19 7.1
9 -4 4 81.49 6.1
9 4 -4 84.79 6.9
9 4 4 94.29 7
9 -4 -4 89.49 8.1
-9 -4 4 100.89 7.1
-9 4 -4 88.49 7
-9 4 -4 83.69 6.5
-10 4 4 29.6 4.6
10 4 -4 24.4 4.5
10 4 -4 28.5 3.7
10 4 -4 19.5 4.1
-10 -4 -4 28.5 4.6
10 -4 4 32.3 4.2
10 -4 4 24.7 3.9
10 -4 4 19.7 4.4
-10 -4 -4 32.1 4.5
-10 4 -4 33.2 5
10 -4 -4 29.4 5.1
-10 4 -4 22.3 4.3
10 4 4 27.4 4.5
-10 -4 4 22.6 4.1
0 5 4 -4.4 1.6
0 5 -4 -4.9 1.7
0 -5 -4 -0.4 1.6
0 -5 4 1.4 1.8
0 -5 4 0.4 1.5
0 -5 -4 -6 2
0 -5 4 1 1.7
0 5 4 1 1.6
0 -5 -4 0.8 1
0 5 -4 -1.7 1.9
0 5 -4 -0.8 1.6
1 5 -4 247.88 10.5
1 -5 4 256.27 10.1
-1 5 4 264.37 10.2
1 -5 4 260.77 10
-1 5 4 252.47 9.5
1 5 -4 266.67 10
-1 5 4 258.77 9.6
1 -5 4 257.37 10.1
-1 5 4 252.97 10.2
1 5 -4 239.68 10.2
-1 -5 -4 266.97 10.3
1 5 4 257.77 10.1
1 5 4 266.87 9.6
1 5 4 279.77 10.2
-1 5 -4 252.77 10.5
1 -5 -4 256.87 10.3
-1 -5 4 261.17 10.2
-1 -5 4 260.97 9.8
1 5 4 254.47 10.1
1 -5 -4 261.87 10.3
-1 5 -4 269.67 10.3
-1 5 -4 252.37 10.1
2 5 -4 8.2 2.2
-2 5 4 8.4 2
2 -5 4 7.7 1.5
2 5 -4 10.1 2
2 -5 4 8.7 2
2 -5 4 11.5 2.1
-2 5 4 12.8 1.8
2 5 -4 3.9 2.2
2 -5 4 9.6 1.9
-2 5 4 10.7 2.2
-2 -5 -4 10.3 2.4
2 5 4 9.5 1.9
2 5 4 10 1.7
-2 -5 4 8.2 1.5
-2 -5 4 7.4 1.9
2 -5 -4 8.2 2.5
-2 5 -4 7.3 2.2
-2 5 -4 5.6 2.1
2 5 4 9.4 1.9
2 5 4 9.8 2
-2 5 -4 7.3 2.1
2 -5 -4 7.8 2.2
-3 5 4 74.49 4.4
3 5 -4 84.09 4.3
3 -5 4 72.59 4
3 5 -4 72.29 4.9
-3 5 4 78.29 4.7
3 -5 4 72.39 4.1
3 5 -4 68.99 4
-3 5 4 70.79 4.7
3 -5 4 67.89 4.7
3 5 -4 76.39 5
3 -5 4 80.29 4.7
3 -5 -4 76.19 5.2
3 5 4 80.29 4.4
-3 -5 4 78.19 4.6
-3 5 -4 73.39 5.2
3 5 4 75.89 4.7
3 5 4 79.19 4.3
-3 -5 4 73.19 3.8
3 5 4 85.19 4.7
-3 5 -4 69.79 4.9
3 5 4 71.89 4.3
3 -5 -4 69.89 4.8
-3 5 -4 71.79 4.9
-4 5 4 -0.2 2
4 -5 4 4.4 1.6
4 -5 4 5.3 2
4 -5 4 2.1 2.1
-4 5 4 2.7 2.1
4 5 -4 1.8 1.8
4 5 -4 -0.8 2
4 5 -4 2.2 2.3
4 -5 4 3.6 2.1
-4 5 4 0.5 2
4 5 -4 2.7 1.7
4 5 4 2.8 1.7
-4 5 -4 3.7 2.2
4 5 4 6.1 2
-4 5 -4 -1.7 2.1
4 5 4 1.3 1.9
4 5 4 2.7 1.8
4 -5 -4 1.3 2.3
-4 -5 4 2.4 1.9
4 5 4 0.3 1.8
-4 5 -4 0.6 2.3
4 -5 -4 1.6 2.6
-5 5 4 93.39 5.6
-5 5 4 86.39 5.7
5 5 -4 87.29 5.1
-5 -5 -4 83.59 5.3
-5 5 4 89.19 5.5
5 -5 4 89.09 5.4
-5 -5 -4 93.99 4.8
5 5 -4 82.39 5.7
5 -5 4 88.69 5.3
5 5 -4 87.29 4.9
5 -5 4 93.89 5.7
5 5 4 79.89 5.5
-5 5 -4 88.19 5.5
-5 5 -4 82.99 5.8
5 5 4 82.79 5.1
5 -5 -4 79.49 6.1
-5 -5 4 86.89 5.5
5 5 4 87.69 4.7
-5 -5 4 83.09 5.2
6 -5 4 8.4 2.8
-6 5 4 8.8 2.9
6 5 -4 4.8 2.8
6 5 -4 6.3 2.5
6 -5 4 8.2 2.6
-6 -5 -4 10.4 2.6
-6 5 4 9.9 2.6
6 -5 4 11.4 2.8
6 5 -4 9.7 2.2
-6 5 4 11.1 2.8
-6 5 -4 7.4 2.8
-6 -5 4 8.6 2.4
-6 5 -4 5.3 2.5
-6 -5 4 9.9 2.6
6 5 4 8.9 2.7
6 -5 -4 10.9 2.9
6 -5 -4 12 3.5
6 5 4 10.1 2.5
7 5 -4 10.3 2.9
7 -5 4 8.9 2.8
7 -5 4 14.4 3.2
-7 5 4 14.6 3.2
-7 5 4 15.8 3.1
7 5 -4 13.6 2.6
-7 5 4 16.2 2.9
7 5 -4 14.6 3.2
-7 -5 -4 13.6 2.8
-7 -5 4 18.5 2.9
-7 5 -4 16 3.2
7 -5 -4 14.4 3.7
7 -5 -4 13.3 3
7 5 4 13.2 3.1
7 5 4 21.7 3.2
-7 5 -4 16.2 3.2
-7 -5 4 14.3 3
8 -5 4 3.2 2.6
-8 -5 -4 -0.2 2.5
8 -5 4 0 2.9
-8 5 4 -1.8 2.7
8 5 -4 -1.3 2.8
8 5 -4 0 2.2
8 -5 -4 -1.6 3.5
8 5 4 0.8 2.5
-8 5 -4 -2.9 2.7
8 5 4 6 3
8 -5 -4 0.9 2.4
-8 5 -4 2.1 2.8
-8 -5 4 0.1 2.6
-8 -5 4 1.4 2.3
9 5 -4 1.7 2.4
9 5 -4 7.1 3.3
9 -5 4 3.2 2.8
9 -5 4 3.9 3.4
-9 5 4 -0.1 3.1
-9 -5 -4 6.8 3.2
9 5 4 4.7 3.1
9 -5 -4 -3.2 3.7
-9 5 -4 -1.4 3.2
-9 -5 4 5.4 3
10 5 -4 -4.1 5.4
10 -5 4 -0.5 2.7
-10 -5 -4 1.6 2.9
10 -5 4 -3.4 4.6
-10 5 4 1.4 4.1
-10 5 -4 2.8 3.5
10 -5 -4 -2.6 3.8
10 5 4 1.8 3.3
0 6 -4 412.16 16.2
0 6 4 421.16 15.8
0 -6 -4 425.56 15.9
0 -6 -4 441.46 15.9
0 -6 4 413.36 15.6
0 6 4 432.36 15.9
0 6 -4 423.46 15.6
0 -6 4 438.06 15.9
0 6 -4 399.26 15.9
1 -6 4 62.59 4.4
1 6 -4 62.19 4.6
-1 -6 -4 55.09 4.5
1 6 -4 57.99 5
1 6 -4 67.29 4.3
-1 6 4 52.49 4.5
1 -6 4 62.69 4.2
-1 6 4 53.89 4.4
-1 -6 -4 67.39 4.4
-1 6 4 65.59 3.5
-1 6 -4 58.19 5.1
-1 6 -4 60.59 4.7
1 6 4 55.29 4.3
1 6 4 55.49 4.3
1 6 4 62.29 3.4
-1 6 -4 65.19 4.5
1 -6 -4 64.89 4.6
-1 -6 4 62.79 4.5
1 -6 -4 64.89 4.7
-1 -6 4 61.69 3.9
2 6 -4 168.18 7.9
-2 -6 -4 155.78 7.4
-2 -6 -4 157.58 7.2
-2 6 4 145.29 7.2
2 6 -4 161.28 7.6
2 6 -4 160.78 7
-2 6 4 166.48 6.8
2 -6 4 159.88 7.1
-2 6 4 156.48 7.6
2 -6 4 163.98 7.4
2 6 4 158.48 6.7
2 -6 -4 166.78 7.6
-2 6 -4 165.78 7.4
-2 6 -4 147.69 7.7
2 -6 -4 167.48 7.8
-2 6 -4 153.98 7.4
2 6 4 159.98 7.4
2 6 4 155.68 7.1
-2 -6 4 162.28 6.6
-2 -6 4 160.98 7.3
3 -6 4 13.3 2.7
-3 6 4 7.2 2.3
-3 6 4 12.3 2.3
3 6 -4 4.7 2.5
3 6 -4 12 2.2
3 -6 4 10 2.2
-3 6 4 13.4 2.7
3 6 -4 8.3 2.6
-3 6 -4 12.3 2.8
-3 6 -4 10.7 2.8
3 -6 -4 10.8 2.8
-3 -6 4 17.3 2.7
3 6 4 12.1 2.3
3 -6 -4 11.7 2.8
-3 6 -4 14.2 2.6
3 6 4 9.9 2.1
3 6 4 13 2.5
4 6 -4 37.3 3.8
4 6 -4 34.5 3.8
-4 6 4 37.2 3.6
4 -6 4 31 3.5
-4 6 4 40.9 3.5
-4 6 4 46.1 4.1
4 -6 4 39.6 3.1
4 6 -4 40.9 3.2
4 6 4 42.6 3.5
4 -6 -4 35.2 3.7
4 6 4 43.9 3.4
4 -6 -4 42.8 4.2
-4 6 -4 41.2 3.8
4 6 4 45.1 3.3
-4 6 -4 30.3 3.7
-4 6 -4 40.7 3.7
4 6 4 37 3.4
-4 -6 4 46.7 3.8
4 6 4 44.7 3.8
5 -6 4 31.7 3.5
-5 6 4 34.9 3.6
5 6 -4 39.4 3.3
-5 6 4 39.8 3.6
-5 -6 -4 29.1 3.3
-5 6 4 41.8 4
-5 -6 -4 43.5 3.6
5 6 -4 34.6 3.8
5 -6 -4 29.2 3.6
-5 -6 4 42 3.6
5 6 4 34.6 3
5 6 4 25.2 3.3
-5 6 -4 37.1 3.7
5 -6 -4 41.1 4.3
5 6 4 37.6 3.5
-5 6 -4 30.1 3.7
-6 6 4 2.6 2.5
6 6 -4 -1 2.8
-6 6 4 0.4 2.5
6 6 -4 3 2
6 -6 4 -1.3 2.5
-6 -6 -4 1.3 2.3
-6 6 4 -1.9 2.3
6 6 4 3.3 2.4
6 -6 -4 0.3 2.6
-6 6 -4 1 2.4
-6 -6 4 1.2 2.3
-6 6 -4 3.1 2.7
6 -6 -4 -3.5 2.9
6 6 4 2.6 2.4
-6 -6 4 -0.2 2.2
7 6 -4 31.4 3.2
-7 6 4 30 4
-7 6 4 28.4 3.6
7 -6 4 28.1 3.7
-7 -6 -4 27.8 3.7
7 6 -4 22.6 3.7
-7 6 4 27.6 3.9
-7 6 -4 30 3.7
7 6 4 29.2 3.8
7 6 4 33.6 3.8
7 -6 -4 28.1 3.8
-7 -6 4 35.2 3.7
7 -6 -4 33.3 4.6
-7 6 -4 28.7 4.2
-7 -6 4 24.2 3.6
-8 6 4 8.7 3.3
8 6 -4 5.1 3.1
8 -6 4 2.5 2.9
8 6 -4 3.5 2.3
-8 -6 -4 7.3 3
-8 6 -4 4.5 3.2
8 6 4 3.1 2.7
8 -6 -4 7 3.7
8 6 4 6.9 3
-8 -6 4 5.5 2.7
-8 -6 4 3.7 2.9
8 -6 -4 6.1 2.9
9 6 -4 -1.2 3.2
9 -6 4 -4.1 2.7
9 6 -4 4.2 2.4
-9 -6 -4 -0.5 2.9
-9 6 4 -2.5 3.1
9 6 4 5.1 3.1
9 -6 -4 -4.2 3.7
-9 -6 4 -2.4 2.7
-9 6 -4 2.6 3.5
0 -7 4 4.3 2.3
0 7 4 2.4 2.1
0 7 -4 0.1 2.1
0 7 -4 -2.5 2.4
0 -7 -4 -1.3 2.1
0 -7 4 -0.4 2.3
0 7 4 1.9 2.2
0 7 -4 -2.3 2.3
0 -7 -4 -2.6 2.2
1 -7 4 43.1 3.6
1 -7 4 36.8 3.5
-1 7 4 29.6 2.4
-1 -7 -4 26.2 3.3
-1 7 4 30.6 3.4
1 7 -4 32.6 3.6
1 7 -4 26 3.6
-1 7 4 22 3.2
-1 -7 -4 29.2 3.3
1 7 -4 30.6 3.1
-1 -7 4 35.3 3.6
1 -7 -4 40.7 3.6
1 7 4 26.8 3.4
1 -7 -4 33.3 3.5
-1 7 -4 29.6 3.7
1 7 4 37 3.4
-1 -7 4 37.6 3.1
-1 7 -4 31.3 3.4
-1 7 -4 29.9 3.2
-2 7 4 171.78 7
2 7 -4 166.98 7.3
-2 -7 -4 151.48 7.6
2 -7 4 178.38 8
-2 7 4 149.29 7.9
-2 7 4 161.48 7.8
2 7 -4 157.68 8.3
-2 -7 -4 172.78 7.7
2 7 -4 150.48 7.7
2 -7 4 157.28 7.5
2 -7 -4 169.58 8
-2 -7 4 165.58 7.9
-2 -7 4 173.08 7
-2 7 -4 147.99 8.5
2 7 4 176.18 7.6
-2 7 -4 168.98 7.7
-2 7 -4 153.38 7.7
2 -7 -4 164.08 7.9
2 7 4 145.99 7.7
3 7 -4 415.86 16.8
-3 7 4 429.96 16.5
3 -7 4 415.16 16
-3 7 4 419.16 16.6
3 -7 4 367.66 16.2
-3 -7 -4 451.75 16.2
-3 -7 -4 439.56 16.3
-3 7 4 425.46 15.8
3 7 -4 408.56 15.7
3 7 -4 427.36 16.6
-3 7 -4 397.36 16.1
-3 -7 4 449.56 16.5
3 7 4 450.45 16.3
3 -7 -4 417.16 16.4
-3 7 -4 428.36 16.9
-3 7 -4 424.56 16.3
3 7 4 440.96 16.5
3 -7 -4 461.95 16.7
3 7 4 426.26 15.8
4 -7 4 49.4 3.9
-4 -7 -4 55.99 4.4
4 -7 4 53.99 4.4
-4 7 4 45.1 4.2
4 7 -4 51.59 4.6
4 7 -4 52.99 4.6
-4 7 4 64.39 4.8
-4 7 4 44.1 4.3
4 7 -4 47.3 3.6
-4 7 -4 54.19 4.5
-4 7 -4 57.09 4.4
4 -7 -4 56.89 4.8
4 -7 -4 54.69 4.7
-4 7 -4 56.39 5
4 7 4 48.3 4.6
-4 -7 4 52.09 4.4
4 7 4 54.99 4.2
-5 7 4 6.2 2.6
5 7 -4 6.2 2.8
5 7 -4 4 2.1
5 -7 4 10.9 3
-5 7 4 5 2.6
-5 7 4 5.7 2.7
5 7 -4 9.9 3
-5 -7 -4 6.8 2.5
5 7 4 7.1 2.5
-5 -7 4 10.1 2.8
5 -7 -4 6.5 3.3
-5 7 -4 1.8 2.5
-5 7 -4 9 3.2
5 7 4 5.3 2.4
5 -7 -4 0 2.9
6 -7 4 -0.1 2.8
6 7 -4 0.6 1.9
-6 -7 -4 -0.6 2.4
-6 7 4 3.9 2.8
6 7 -4 3.9 2.9
-6 7 4 2.7 2.6
-6 7 4 2 2.8
6 -7 -4 0.7 2.9
-6 -7 4 0.8 2.4
6 7 4 4.2 2.8
-6 7 -4 0.1 2.9
6 -7 -4 -2.1 3.2
6 7 4 -2.5 2.2
-6 -7 4 1.1 2.4
-7 7 4 0.8 2.5
7 7 -4 1.5 2.2
7 7 -4 -1.3 2.9
7 -7 4 -1.6 2.7
-7 -7 -4 1 2.6
-7 7 4 4.8 3.2
-7 7 4 -2.3 2.7
7 7 4 2.1 2.4
-7 7 -4 1.1 3.2
7 -7 -4 -3.5 3.2
-7 -7 4 3.4 2.7
7 -7 -4 -1.8 2.9
-7 -7 4 -0.9 2.6
8 7 -4 17.7 3.8
8 -7 4 17.3 3.6
-8 -7 -4 12.4 3.3
8 7 -4 10.5 2.6
-8 7 4 14.9 3.9
8 -7 -4 14 4.5
-8 -7 4 16.2 3.6
-8 7 -4 18 4.3
-8 -7 4 23.1 3.6
8 -7 -4 20.1 3.7
8 7 4 12.4 3.3
-9 7 -4 -3 5.5
0 8 4 34.5 3.9
0 8 -4 35.1 3.8
0 -8 4 37 3.6
0 -8 -4 42.8 4
0 -8 4 32.6 3.8
0 8 -4 44.2 3.7
0 8 -4 35.6 4.2
0 8 4 36 3.7
1 8 -4 15 3.1
1 -8 4 11.3 2.9
-1 -8 -4 12.1 2.9
1 8 -4 15.9 2.7
-1 8 4 12.1 2
1 8 -4 8.9 3.2
-1 8 4 13.4 2.9
-1 8 4 8.2 2.8
1 -8 4 16.2 2.9
1 8 4 12.8 2.8
-1 8 -4 11.6 3.3
1 -8 -4 19.6 3.3
-1 8 -4 16.8 2.9
-1 -8 4 15.3 2.8
-1 8 -4 16.4 3
1 8 4 7.6 2.8
-1 -8 4 19.9 3.3
2 8 -4 0.5 2.5
2 -8 4 0.7 2.4
2 8 -4 -1.3 2.7
-2 8 4 -3.6 1.8
-2 8 4 0.3 2.4
2 -8 4 5.7 2.8
2 8 -4 -0.4 2.1
-2 -8 -4 2.9 2.4
-2 8 4 3 2.5
-2 8 -4 -0.2 2.9
2 8 4 1.3 2.2
-2 8 -4 5.9 2.6
2 8 4 -4.6 2.2
-2 -8 4 1.3 2.6
2 -8 -4 2.3 2.8
-2 8 -4 -0.7 2.5
-3 8 4 1.5 2.4
-3 -8 -4 6.5 2.6
3 8 -4 4.5 2.9
3 -8 4 0.3 2.8
-3 8 4 7.7 2.3
3 -8 4 -0.3 2.3
-3 8 4 1.7 2.7
3 8 -4 4.2 2.8
3 8 -4 3.9 2.2
-3 8 -4 2.8 2.7
3 8 4 5.3 2.5
3 8 4 2.1 2.3
3 -8 -4 0 3
-3 8 -4 -0.4 2.8
-3 8 -4 1.7 2.5
-3 -8 4 7.6 2.9
-4 8 4 30.1 4
4 8 -4 29.6 3.9
4 -8 4 29.1 3.4
-4 -8 -4 29.6 3.7
4 8 -4 37.1 4.3
4 8 -4 36.6 3.4
4 -8 4 32.9 3.9
-4 8 4 34.3 3.5
-4 8 4 29.4 3.8
-4 -8 -4 29.3 3.5
4 8 4 30.6 3.4
-4 8 -4 25.5 4.1
-4 8 -4 31.7 4.9
-4 -8 4 37.5 4.1
4 -8 -4 41.7 4.5
4 8 4 33.7 3.9
-4 8 -4 31.8 3.8
-5 8 4 3.1 2.6
-5 -8 -4 8 2.8
5 8 -4 -0.4 2
-5 8 4 4.6 3
5 8 -4 8.2 3.2
-5 8 4 2.7 2.7
5 -8 4 10 3.2
5 8 -4 3.5 2.8
-5 8 -4 3.2 3.1
5 8 4 3.8 2.5
5 8 4 4.4 2.4
-5 -8 4 0.5 2.6
5 -8 -4 4.8 3.2
6 8 -4 1.4 2
6 8 -4 -1.7 2.9
-6 8 4 0.9 2.7
-6 8 4 0.3 2.8
-6 -8 -4 -0.8 2.4
6 -8 4 -0.1 3.1
-6 8 4 -0.3 2.8
6 8 4 0.2 2.4
-6 8 -4 -0.7 3
6 -8 -4 2.6 3.4
-6 -8 4 -0.3 2.6
-6 -8 4 1.7 2.7
-7 8 4 10.9 3.3
-7 8 4 8.9 3.4
7 8 -4 5.9 2.3
7 -8 4 5.4 3.4
-7 8 4 8.4 3.3
7 8 -4 1.7 3
-7 -8 -4 8.3 3
7 -8 -4 3.8 3.5
-7 8 -4 9 3.8
7 8 4 8.5 2.9
-7 -8 4 5.8 3
-7 -8 4 3.4 2.9
-8 -8 -4 4.8 3
-8 8 4 -1.5 3.9
-8 -8 4 -1.3 2.9
8 8 4 1.6 2.9
-8 8 -4 2.5 3.7
8 -8 -4 -2.7 3.2
0 9 4 1.5 2.6
0 9 -4 0.1 2.3
0 -9 4 0 2.5
0 -9 4 -2 2.7
0 9 -4 -2.6 2.5
0 9 -4 0 2.9
0 9 4 0.1 2.4
0 -9 -4 -0.5 2.7
1 9 -4 6.6 2.9
-1 9 4 -1.2 2.4
-1 9 4 4.3 1.8
1 -9 4 4.6 2.9
1 9 -4 0.9 2.3
1 -9 4 8.1 2.9
-1 -9 -4 1.8 2.6
1 9 -4 2.1 3.1
-1 9 4 5.8 2.7
-1 -9 4 1.1 2.8
1 9 4 -1.4 2.4
-1 9 -4 2.2 2.4
1 -9 -4 0.3 2.9
-1 9 -4 5.6 3.3
1 9 4 5.9 2.6
-1 9 -4 3.3 2.7
-1 -9 4 3.9 2.8
2 9 -4 33.3 4.4
2 -9 4 31.8 4.1
2 9 -4 28.7 3.2
-2 -9 -4 28 3.7
2 9 -4 23.4 3.7
-2 9 4 27.9 3.7
-2 9 4 26.8 2.9
-2 9 4 18.2 3.5
2 -9 4 34.4 3.9
-2 9 -4 27.6 4.2
2 9 4 26.2 3.5
2 -9 -4 28.6 4.1
-2 9 -4 29.2 3.8
2 9 4 30.8 3.7
-2 9 -4 33.2 3.8
-2 -9 4 30.1 4
-3 9 4 5.5 2.3
-3 9 4 6.2 2.9
3 9 -4 2.3 2.7
3 9 -4 0.8 2.1
3 -9 4 3.3 2.7
-3 9 4 1.7 2.7
-3 -9 -4 3.4 2.6
3 -9 4 1.7 3.2
3 9 -4 5.7 3.2
-3 -9 4 7.6 3
3 -9 -4 5 3.4
-3 9 -4 -1.3 2.7
-3 9 -4 2.9 3.2
3 9 4 2.5 2.5
-4 9 4 12.8 2.8
-4 9 4 13.9 3.3
4 9 -4 19.3 2.8
-4 9 4 10.5 3.2
4 -9 4 9 3.4
4 9 -4 11.3 3.2
-4 -9 -4 11.3 3.2
4 9 -4 11.2 3.6
4 -9 -4 20.2 4.2
-4 9 -4 12.8 3.3
-4 9 -4 15.1 3.6
4 9 4 11.6 3
-4 -9 4 9.7 3.3
-5 9 4 2.5 2.9
5 9 -4 3.6 2.1
5 -9 4 2.8 3.3
5 9 -4 1.3 3.1
-5 9 4 4.6 3.1
-5 -9 -4 3.4 2.8
5 9 -4 2.7 2.9
-5 9 4 2.1 2.6
-5 -9 4 3.5 3.1
5 -9 -4 3.8 3.6
-5 9 -4 1.5 3.3
5 9 4 2 2.6
-6 9 4 4.9 3.1
-6 9 4 3.6 3.4
-6 9 4 8.1 3.2
6 9 -4 5.6 3.2
6 -9 4 3.5 3.5
6 9 -4 4.6 2.2
-6 -9 -4 3 2.8
-6 -9 4 4.8 3.1
-6 9 -4 5.6 3.7
6 -9 -4 5 3.7
-7 -9 -4 6.5 3.4
-7 9 4 6.5 5.8
-7 9 4 15.5 3.7
-7 9 -4 11.8 5.1
7 9 4 9.1 3.1
-7 -9 4 14.1 3.7
0 10 -4 4.2 2.9
0 10 -4 4.1 2.6
0 10 4 9.2 3
0 -10 4 6.8 3.3
0 10 -4 2.4 3.5
0 10 4 -1.1 2.6
0 -10 -4 6.9 3.3
0 -10 4 8.1 3.2
-1 10 4 -1.7 2.7
1 10 -4 0 3.3
1 -10 4 1.3 2.9
-1 10 4 2.4 2
-1 10 4 1.6 2.6
1 10 -4 6.1 3
1 10 -4 -3 2.3
-1 -10 -4 3.1 3
1 -10 4 0.4 3.1
1 10 4 -2.2 2.5
-1 10 -4 -5.3 3.1
-1 10 -4 4.1 2.7
-1 -10 4 1.2 3
1 -10 -4 -3.9 3
1 10 4 2.1 2.8
2 10 -4 35.5 3.5
2 10 -4 33.9 4.7
2 -10 4 36.4 4.3
-2 -10 -4 36.2 4.2
2 10 -4 24.5 3.8
-2 10 4 24.6 3.9
2 -10 4 37.2 4.5
-2 10 4 26.6 3.9
-2 10 4 33.7 3.2
-2 10 -4 29.8 4.5
2 -10 -4 32.7 4.6
-2 10 -4 37.5 4.1
-2 -10 4 33.7 4.4
2 10 4 35.3 4.3
-3 -10 -4 6.2 5.2
-3 10 4 7.2 3.3
3 10 -4 11.3 3.7
3 10 -4 10.5 3.3
3 10 -4 5.2 2.4
-3 10 4 0 2.9
-3 -10 -4 7.5 3.1
3 -10 4 12.1 3.3
-3 10 4 11.6 2.6
3 -10 4 9.5 3.7
-3 10 -4 12.7 3.4
-3 -10 4 10.6 3.5
3 10 4 9.6 3.2
3 -10 -4 12 4
-3 10 -4 13.3 3.8
4 10 -4 4.3 3.5
4 -10 4 0.9 3.3
-4 -10 -4 4.5 3
-4 10 4 2.4 3
4 10 -4 1.2 2.8
-4 10 4 5.2 3
4 10 -4 4.4 2.2
-4 10 4 6.7 2.7
4 10 4 1.2 2.7
-4 10 -4 -1.3 3.5
-4 10 -4 -1.4 2.9
4 -10 -4 7.4 4.1
-4 -10 4 6.7 3.5
5 10 -4 3.6 2.8
5 10 -4 6.8 3.7
-5 -10 -4 0.6 3
-5 10 4 0.6 3.2
5 -10 4 -1.6 3.6
5 10 -4 -2.9 2.9
-5 10 4 5.4 2.9
-5 10 4 3.3 3.1
5 -10 -4 4.4 4.3
-5 10 -4 -4.1 3.4
5 10 4 1.1 2.8
-5 -10 4 2.6 3.5
0 -11 4 0.4 3.3
0 11 4 0.6 3
0 -11 -4 10.8 3.7
0 11 -4 -2.3 3.4
0 11 4 1.1 3
0 11 -4 -0.3 2.5
1 -11 4 -2.7 3.2
-1 -11 -4 0.5 3.3
1 11 -4 3.3 3.7
-1 11 4 1.2 3
1 11 -4 3.2 2.7
1 -11 4 1.8 3.4
-1 11 4 4.5 3.2
-1 -11 4 -1.6 3.3
1 -11 -4 4.3 3.7
-1 11 -4 -0.7 3.5
1 11 4 0 2.9
-1 11 -4 2 2.9
2 11 -4 0.6 3.6
-2 -11 -4 0 3.2
2 11 -4 2.5 3.4
-2 -11 -4 -3.5 3
2 -11 4 -2.3 3.4
-2 11 4 0.6 3
2 -11 4 1.2 3.3
-2 11 4 3 2.3
-2 11 4 -0.7 2.9
2 11 -4 -2.1 2.4
2 11 4 3.7 3
-2 -11 4 4.3 4.1
-2 11 -4 -5.8 2.5
-2 11 -4 -2.1 3.5
2 -11 -4 -5.3 3.5
3 11 -4 5.3 3.2
-3 11 4 9.5 3.7
3 -11 4 11.2 3.7
-3 -11 -4 6.8 4.2
3 -11 4 17.2 4.2
-3 11 -4 8.5 6.3
3 11 4 11.5 3.5
-3 11 -4 11.8 3.5
0 0 -5 0.6 1.4
0 0 5 -0.5 1.4
0 0 -5 -0.2 1.7
0 0 -5 -3.5 2.2
0 0 5 0.7 1.6
0 0 5 0.7 1.3
1 0 5 3608.04 122.29
1 0 5 3390.16 122.19
-1 0 -5 3681.73 122.69
-1 0 5 3518.75 122.19
-1 0 -5 3711.93 122.19
1 0 -5 3607.34 122.69
-1 0 -5 3615.94 122.39
1 0 -5 3551.84 122.29
-1 0 5 3675.93 122.29
-1 0 5 3782.82 122.39
1 0 5 3530.35 122.19
-1 0 5 3571.94 122.09
1 0 -5 3733.03 122.29
1 0 5 3562.74 122.19
-2 0 5 103.49 4.7
2 0 5 103.39 5.2
2 0 5 103.99 4.7
2 0 -5 95.29 5.4
2 0 5 92.79 4.2
-2 0 5 104.69 4.7
-2 0 5 95.89 4.3
2 0 5 97.99 4.3
-2 0 5 96.59 4.1
2 0 5 99.19 4
2 0 -5 98.59 4.6
2 0 -5 97.59 4.7
-2 0 -5 100.49 4.8
-2 0 -5 92.09 3.9
3 0 5 1684.73 56.49
-3 0 -5 1638.84 56.39
3 0 -5 1616.64 57.19
-3 0 5 1680.43 56.69
3 0 -5 1599.94 56.59
-3 0 5 1664.73 56.39
3 0 5 1676.53 56.69
3 0 5 1667.23 56.19
3 0 5 1613.44 56.99
3 0 5 1592.74 56.49
3 0 -5 1730.63 56.69
-3 0 5 1691.53 56.59
-3 0 -5 1673.33 56.89
-3 0 5 1670.53 56.79
4 0 5 764.32 27.3
4 0 5 807.52 27.8
4 0 5 753.42 27.3
4 0 5 757.42 27
4 0 -5 782.42 27.9
-4 0 5 786.92 27.4
-4 0 5 810.82 27.4
-4 0 5 768.92 27.4
4 0 -5 793.62 27.3
-4 0 -5 789.12 27.5
4 0 -5 782.12 27.4
-4 0 -5 766.52 27.2
5 0 -5 0.8 1.1
5 0 -5 2.2 2.4
5 0 -5 0 1.8
-5 0 -5 0.7 2.1
-5 0 5 2.4 1.7
-5 0 -5 -0.3 1.5
5 0 5 0.6 1.6
5 0 5 0.4 2.1
-5 0 5 0.3 1.8
5 0 -5 1.6 2
-5 0 5 0.6 1.7
-6 0 -5 263.07 10.6
-6 0 -5 256.67 10.7
6 0 -5 257.97 11.4
6 0 5 258.87 9.9
-6 0 5 253.97 10.6
6 0 5 242.58 10.1
6 0 5 272.67 11.2
6 0 -5 266.77 10.3
6 0 -5 254.77 10.5
-6 0 5 256.67 10.3
7 0 5 34.1 3
7 0 -5 29.9 4
-7 0 -5 30.3 3.7
-7 0 -5 31.6 3.4
-7 0 5 28.1 3.3
7 0 -5 35 3.6
7 0 -5 38.3 3.4
7 0 5 32 2.9
7 0 5 31.8 4.1
-7 0 5 40.7 3.3
-8 0 5 62.59 5.2
8 0 5 60.19 4.5
8 0 -5 57.29 5.4
8 0 -5 65.09 4.9
-8 0 -5 71.09 5.5
-8 0 5 67.09 4.7
8 0 -5 71.79 5.1
8 0 5 65.89 5.6
8 0 5 68.69 4.7
-8 0 -5 55.79 4.9
9 0 -5 123.79 8.2
9 0 -5 110.59 7.1
9 0 5 119.49 8
-9 0 5 121.19 7.3
9 0 5 114.89 6.3
-9 0 -5 115.09 7.5
-9 0 -5 117.89 7.3
10 0 -5 21.1 4.5
-10 0 -5 23.9 3.8
-10 0 -5 16.7 3.9
-10 0 5 24.9 4.1
10 0 -5 24.6 3.9
10 0 5 19.3 3.1
10 0 5 17.9 4.1
-11 0 -5 45.4 5.2
0 1 5 709.73 24.9
0 1 5 769.32 24.8
0 -1 5 721.83 24.9
0 1 -5 721.23 25
0 -1 5 716.43 24.9
0 1 5 714.53 25
0 1 -5 727.53 25.3
0 1 -5 695.53 24.5
0 -1 -5 703.63 25.5
0 -1 -5 750.72 25.2
0 -1 5 689.83 24.9
0 -1 -5 725.23 24.9
0 1 5 676.43 24.8
0 1 -5 737.13 25.2
-1 -1 -5 69.19 3.8
-1 1 5 76.09 3.8
-1 -1 -5 70.29 4.9
-1 1 5 77.29 3.1
-1 1 5 82.69 4
1 -1 5 72.79 3.5
1 -1 5 71.39 3.9
1 1 -5 79.79 4.1
1 -1 5 70.69 3.9
1 1 -5 59.89 4.6
-1 1 5 73.99 3.8
-1 1 -5 76.69 3.8
1 1 5 75.09 3.5
-1 1 -5 70.99 4.3
1 -1 -5 71.69 3.8
1 1 5 71.49 3.5
-1 -1 5 78.19 4
1 1 5 74.49 3.9
-1 -1 5 71.89 3.8
-1 -1 5 71.19 3.6
-1 -1 5 67.69 3.2
-1 1 -5 62.59 4.5
1 -1 -5 68.29 4.8
1 1 5 71.39 3.4
1 -1 -5 78.29 3.6
-1 1 -5 73.19 3.2
2 -1 5 9.2 1.3
-2 -1 -5 9.8 1
-2 -1 -5 14.4 2
-2 1 5 11.6 1.8
2 1 -5 9.8 1.9
-2 1 5 8.1 1.7
2 -1 5 6.8 1.6
-2 1 5 8.8 1.3
-2 1 5 10.4 1.7
2 1 -5 8.6 2.3
2 -1 5 11.1 1.8
2 -1 5 7.3 1.9
2 1 -5 7.8 1.7
-2 -1 5 9.9 1.3
-2 1 -5 13.3 2
2 1 5 9.1 1.4
2 1 5 11.8 1.8
2 -1 -5 11 1.7
2 1 5 12.2 1.4
2 1 5 10.3 2.1
2 -1 -5 9.1 2.4
-2 -1 5 10.3 1.8
-2 -1 5 16.5 1.9
2 -1 -5 10.2 1.6
-2 1 -5 9.2 1.2
-2 1 -5 9 1.6
-2 -1 5 9.3 1.4
2 1 5 10.7 1.3
3 -1 5 604.54 21.2
-3 1 5 616.24 21.3
3 1 -5 617.24 21.2
3 -1 5 593.64 21.5
3 1 -5 574.54 21.2
-3 -1 -5 630.74 21.4
-3 -1 -5 581.64 20.8
-3 1 5 582.74 21
3 -1 5 562.24 21
-3 1 5 613.94 21.1
3 1 -5 617.24 21.6
-3 1 5 602.84 21.2
3 -1 5 595.64 20.6
-3 1 -5 584.84 20.9
-3 -1 5 613.24 21.2
-3 1 -5 618.44 21.4
3 -1 -5 594.24 21.8
3 1 5 601.44 21.6
3 1 5 604.64 21.2
3 -1 -5 566.24 20.9
-3 1 -5 589.54 21.1
3 1 5 635.54 20.8
-3 -1 5 586.44 21.2
3 -1 -5 606.64 21.2
-3 -1 5 597.74 21.1
3 1 5 622.04 20.7
3 1 5 605.74 20.8
-3 -1 5 596.84 20.7
4 1 -5 114.09 5.5
4 -1 5 107.79 5.2
4 -1 5 115.49 5.3
4 1 -5 109.89 5.9
-4 -1 -5 113.29 5.4
-4 1 5 109.39 5.3
-4 -1 -5 114.29 5
-4 1 5 110.39 5.2
4 -1 5 113.59 5.7
-4 1 5 116.79 5.2
4 1 -5 114.99 5.4
4 1 5 108.29 5.8
4 -1 -5 117.89 5
4 -1 -5 105.09 4.8
-4 -1 5 114.09 5.2
4 1 5 113.49 4.6
-4 1 -5 114.59 5.6
-4 1 -5 105.29 5.1
-4 -1 5 113.39 5.2
4 1 5 110.39 4.7
-4 -1 5 106.49 5.3
4 -1 -5 112.49 5.4
4 -1 -5 115.59 6.1
-4 -1 5 111.99 4.5
4 1 5 119.29 5.2
4 1 5 109.29 4.3
5 -1 5 0.1 1.7
-5 1 5 0.2 2
5 1 -5 -0.1 2
5 -1 5 3.3 2.3
5 1 -5 2.8 2.4
-5 1 5 -0.8 1.7
-5 -1 -5 1.2 1.5
-5 -1 -5 0.4 2
5 1 -5 -3.8 1.9
5 -1 5 -0.6 1.6
-5 1 5 0.7 1.7
-5 -1 5 7.2 1.9
5 -1 -5 -2.2 2
5 -1 -5 0.2 1.6
5 -1 -5 2.4 2.5
-5 1 -5 3.8 2.2
5 1 5 1.3 1.5
-5 -1 5 0.1 1.7
5 1 5 3 2.4
-5 -1 5 0.9 2.1
5 -1 -5 0.8 1.4
-5 1 -5 -2.1 1.6
-6 1 5 32.9 3.2
6 -1 5 30.9 3.7
-6 -1 -5 33.7 3.1
6 -1 5 31.3 2.9
-6 1 5 35.4 3
6 1 -5 32.3 3.3
6 -1 5 32.9 2.9
-6 1 5 32.8 5.7
-6 -1 -5 25.8 3.2
6 1 -5 30.1 3.8
6 1 -5 33.1 3.1
6 -1 -5 31 2.8
6 1 5 25.1 2.5
-6 1 -5 31.1 3.1
-6 1 -5 31.5 3.5
6 1 5 29.3 3.5
6 -1 -5 31.1 3.2
-6 -1 5 36.8 3.1
6 -1 -5 23.5 3.7
-6 -1 5 32.7 3.2
-7 -1 -5 0.6 2.6
7 -1 5 0.7 2.2
7 1 -5 2.6 2.4
-7 -1 -5 -0.5 2.1
7 1 -5 -0.7 2.7
-7 1 5 -0.4 2
-7 1 5 0.9 2.2
7 -1 5 3.4 2
7 -1 5 0.1 2.8
7 1 -5 -0.1 2.2
7 -1 -5 -1.3 1.9
7 1 5 -1.5 1.7
7 1 5 1.4 1.8
-7 1 -5 -1.7 2.6
-7 -1 5 0 1.9
7 1 5 0.7 2.6
7 -1 -5 2 3.1
7 -1 -5 0 2.4
-7 -1 5 0.7 2.1
-7 1 -5 0.3 2.2
-8 1 5 125.99 7.1
8 1 -5 121.89 7.9
-8 1 5 131.89 6.6
8 -1 5 128.59 6.6
-8 -1 -5 138.89 7.5
8 -1 5 148.09 6.8
8 -1 5 143.99 8.4
-8 -1 -5 130.59 7.2
8 1 -5 136.69 7.2
8 1 -5 129.89 7
-8 -1 5 121.89 7.1
8 1 5 136.99 8.1
-8 -1 5 112.69 6.4
-8 1 -5 128.69 7.3
8 -1 -5 128.19 7.4
8 1 5 127.69 6.1
-8 1 -5 133.59 7.3
8 1 5 116.09 6.2
8 -1 -5 126.29 8.3
9 -1 5 22.3 4.3
9 1 -5 17.4 4.1
-9 -1 -5 20.3 3.8
-9 1 5 16.8 3.3
9 1 -5 17.3 3.3
9 -1 5 23.6 3.2
9 -1 5 12.4 2.6
-9 -1 -5 23.3 3.5
9 1 -5 24.1 3.6
-9 -1 5 16 3.3
-9 1 -5 14 3.6
9 1 5 26.2 2.9
9 1 5 17.7 3.9
-9 1 -5 19.4 3.5
9 -1 -5 16.9 4.1
-10 1 5 1.4 2.9
10 1 -5 -2.4 3.2
10 -1 5 -2.3 3.4
10 1 -5 -3.5 2.6
-10 -1 -5 1.8 2.8
10 1 -5 -3.3 2.8
10 -1 5 5.1 2.8
-10 -1 -5 2.6 3.3
-10 -1 5 3.6 3
-10 1 -5 0.4 3.2
-10 1 -5 2.1 2.8
10 1 5 0.3 3.4
10 1 5 0.3 2.3
10 -1 -5 -9.3 3.3
-11 -1 -5 10 3.4
11 1 -5 -0.2 3
-11 1 -5 5.3 3.5
0 2 5 1.4 1.5
0 -2 -5 1.9 2.2
0 -2 -5 0.6 1.3
0 2 5 -1.7 0.9
0 -2 5 -1 1.3
0 2 5 -1 1.4
0 2 5 1.1 1.2
0 2 5 -0.1 1.2
0 2 -5 -1.1 1.2
0 2 -5 -4 1.8
0 -2 5 -0.1 1.3
0 2 -5 -0.6 1.4
0 -2 5 -0.6 1.5
0 2 -5 -0.2 1.7
1 -2 5 167.08 6.7
-1 2 5 174.28 6.5
1 -2 5 167.78 6.9
1 2 -5 174.78 7.2
-1 2 5 182.98 7
1 -2 5 190.08 7
1 2 -5 176.78 7.3
-1 -2 -5 159.88 6.7
-1 2 5 171.18 6.7
-1 2 5 156.98 6.9
1 2 -5 160.58 6.9
-1 2 5 168.48 6.7
-1 -2 -5 166.88 7.6
1 2 -5 171.08 6.7
1 -2 -5 170.38 6.4
1 2 5 180.78 7
1 2 5 171.58 6.4
1 2 5 175.88 6.7
-1 2 -5 172.98 7.2
1 2 5 162.78 6.3
1 2 5 173.58 6.4
-1 2 -5 168.18 7.2
-1 -2 5 162.28 6.6
-1 -2 5 174.98 6.9
-1 2 -5 176.68 6.9
1 -2 -5 186.58 7.7
1 -2 -5 170.08 6.9
-1 2 -5 176.78 6.7
-1 -2 5 177.58 6.9
-2 -2 -5 22.9 1.9
2 2 -5 27.2 2.3
2 2 -5 21.5 2.5
2 -2 5 24 2.2
-2 2 5 27.1 2.4
-2 2 5 22.7 2.2
-2 2 5 25 2.2
2 -2 5 26.6 2.3
2 -2 5 26.8 2.1
-2 -2 -5 25.7 2.3
-2 2 5 27.2 2.4
2 2 -5 23.7 2.5
2 -2 5 26 2.4
2 2 5 27.1 2.7
2 -2 -5 28 2.9
-2 2 -5 24.9 2.3
-2 2 -5 25.7 2.3
-2 -2 5 24.6 2.1
2 2 5 30.1 2.4
2 -2 -5 23 2
2 2 5 24.9 1.9
2 -2 -5 26.6 2.2
-2 -2 5 24.6 2.3
-2 -2 5 27 2.3
-2 2 -5 25.7 2.5
-3 -2 -5 185.48 7.4
3 -2 5 187.98 7.1
3 2 -5 198.08 8.1
3 2 -5 194.28 7.8
-3 2 5 189.78 7.8
-3 -2 -5 181.98 7.8
3 -2 5 200.38 8
-3 2 5 200.48 7.7
3 -2 5 204.18 7.9
3 -2 5 203.48 7.8
3 2 -5 199.38 8.1
-3 2 5 199.98 7.9
-3 2 -5 192.58 7.6
-3 -2 5 196.78 7.1
-3 2 -5 190.88 7.8
-3 -2 5 204.48 7.9
3 2 5 206.28 8.2
3 -2 -5 177.48 8.4
3 -2 -5 192.58 7.8
3 2 5 202.68 7.7
-3 -2 5 199.88 7.7
3 2 5 204.18 7.3
-3 -2 5 186.78 7.7
3 -2 -5 190.98 7.2
4 2 -5 2.9 1.9
4 -2 5 0.9 1.9
-4 2 5 2.8 1.6
-4 2 5 0.3 1.6
4 2 -5 5.1 2.2
4 -2 5 -0.4 1.7
-4 2 5 2.6 1.7
4 2 -5 -0.7 1.8
-4 -2 -5 3.9 2
4 -2 5 0.1 1
-4 -2 -5 1.2 1.2
-4 -2 5 5.6 1.7
4 -2 -5 2.6 1.2
4 2 5 3 2.1
4 2 5 3.9 1.6
4 -2 -5 0.5 1.6
-4 -2 5 0 1.5
-4 -2 5 1.5 1.7
-4 2 -5 1.8 1.5
4 -2 -5 2 1.6
4 2 5 0.6 1.1
4 -2 -5 -2.8 2.1
-4 2 -5 2.4 2
5 2 -5 17.7 2.8
-5 2 5 14.6 2.4
-5 2 5 17.1 2.4
5 -2 5 22.5 2.6
-5 -2 -5 18.9 2.3
5 2 -5 25.2 3.2
5 -2 5 21.2 2.6
-5 2 5 21.9 2.6
5 -2 5 19.5 2.9
5 2 -5 18 2.5
-5 -2 -5 18.7 2.8
5 2 5 17.4 2.1
5 -2 -5 19.7 2.5
-5 -2 5 19.7 2.5
5 -2 -5 20.9 3.4
5 -2 -5 25.1 2.3
-5 2 -5 21.9 3
5 -2 -5 18.7 1.9
-5 2 -5 13.6 2.3
5 2 5 20.6 3
-5 -2 5 19.3 2.4
6 2 -5 37.5 3.7
-6 2 5 36.7 3.5
-6 -2 -5 29.1 3.5
6 -2 5 32.7 3.1
6 2 -5 41.3 3.5
-6 -2 -5 36.5 3.2
6 -2 5 37.3 3.9
6 -2 5 34.1 3.2
-6 2 5 37.7 3.3
-6 2 5 40.9 3.7
6 2 -5 39.4 3.9
-6 -2 5 34.9 3.4
-6 -2 5 41.6 3.4
-6 2 -5 34.3 3.3
-6 2 -5 35.5 3.7
6 -2 -5 32.8 4.1
6 2 5 39.3 3.9
6 2 5 34.9 2.9
6 -2 -5 37.5 3
-7 2 5 13.4 2.9
7 2 -5 16.7 3.5
-7 -2 -5 19.2 2.9
7 -2 5 17.6 2.7
7 2 -5 19 3.1
-7 2 5 19.8 2.7
7 -2 5 21.8 3.6
7 -2 5 16.6 2.8
-7 -2 -5 17 3.3
7 2 -5 17.7 2.8
-7 -2 5 15.9 2.9
7 2 5 19.3 3.3
7 -2 -5 15.3 3.8
-7 2 -5 17.2 3.4
-7 -2 5 16.9 2.8
7 2 5 16.5 2.3
-7 2 -5 22.3 3.1
-8 -2 -5 55.09 5
-8 -2 -5 66.49 5.4
8 2 -5 74.39 5.8
8 2 -5 63.69 5.5
-8 2 5 75.39 5.5
8 -2 5 66.59 5.3
8 -2 5 66.89 4.9
8 -2 5 55.09 5.4
-8 2 5 60.29 4.8
8 2 -5 63.69 5.1
-8 -2 5 56.69 5.2
-8 2 -5 67.09 5.8
8 2 5 65.69 6
8 -2 -5 66.19 6
-8 2 -5 57.79 5.5
-8 -2 5 64.59 4.9
8 2 5 69.09 4
-9 -2 -5 4.1 3.1
9 2 -5 1.3 2.8
9 -2 5 3.7 2.7
9 -2 5 3.8 2.4
9 2 -5 2.6 3.2
9 -2 5 4.5 3.5
-9 2 5 6.5 3.1
-9 -2 -5 6 2.8
9 2 -5 2.8 2.7
-9 -2 5 5.8 2.7
9 2 5 12.4 3.5
-9 2 -5 5.9 3.3
9 2 5 7.5 2.1
9 -2 -5 6.8 3.6
-9 2 -5 8 3
-10 -2 -5 6.2 3.6
-10 -2 -5 4.5 2.9
10 2 -5 -0.6 2.9
10 -2 5 1.3 2.8
10 2 -5 3.8 2.9
10 2 -5 -2.8 3.3
-10 2 5 4.4 3.1
10 -2 5 4.6 3.7
10 2 5 3.2 2.1
-10 -2 5 4 3
-10 2 -5 11.5 3.7
-10 2 -5 6.5 3.3
10 -2 -5 2.7 4
10 2 5 3.3 3.5
0 3 -5 1204.88 38.8
0 3 -5 1098.49 38.8
0 -3 5 1126.89 38.8
0 3 5 1138.99 38.5
0 3 5 1142.99 38.4
0 3 5 1081.09 38.8
0 -3 5 1066.69 38.7
0 3 5 1121.59 38.9
0 3 -5 1116.89 38.9
0 3 5 1156.78 38.6
0 -3 5 1127.19 38.8
0 3 -5 1127.59 39
1 -3 5 896.81 32.2
1 3 -5 918.61 32.5
-1 3 5 923.01 32.3
-1 -3 -5 972 32.7
-1 -3 -5 892.81 31.9
-1 3 5 891.51 31.9
-1 3 5 979.8 32.1
1 -3 5 874.61 32.1
1 3 -5 932.01 32.2
-1 3 5 952.5 32
1 -3 5 903.41 32.2
1 3 -5 864.21 32.2
-1 3 5 961.8 32.3
1 -3 -5 932.61 32.7
-1 3 -5 909.01 32.1
1 -3 -5 896.91 31.6
-1 -3 5 941.51 32.2
-1 3 -5 984 32.3
1 3 5 992.1 32
-1 3 -5 952.4 32.2
-1 -3 5 891.81 31.9
1 3 5 935.11 32.2
-1 3 -5 962.9 32.5
1 3 5 956.3 32.2
-1 -3 5 895.41 32.2
2 -3 5 1.9 1.5
-2 3 5 1 1.3
2 -3 5 0 1.6
-2 3 5 0.5 1.4
2 3 -5 -0.5 1.5
2 -3 5 3.6 1.5
2 3 -5 1 1.4
2 3 -5 1.2 1.6
-2 3 5 1.8 1.4
2 3 -5 3.9 1.8
-2 3 5 3.3 1.6
-2 3 5 0.9 1.6
2 -3 5 -0.1 1.1
-2 -3 -5 1.3 1.5
-2 3 -5 0.1 1.5
2 3 5 0.4 1.1
-2 3 -5 4 1.6
-2 -3 5 3.2 1.1
2 3 5 1.1 1.5
-2 -3 5 0.6 1.5
-2 3 -5 -1.2 1.7
2 3 5 4.3 1.9
2 -3 -5 0.2 1.4
2 3 5 2.2 1.3
-2 -3 5 2.5 1.5
2 -3 -5 1.8 2
3 -3 5 109.89 5.6
3 3 -5 121.39 5.6
3 -3 5 117.29 5
-3 3 5 129.19 5.6
3 3 -5 121.69 6
-3 3 5 115.49 5.7
-3 -3 -5 125.39 5.3
-3 3 5 126.99 5.6
3 -3 5 123.99 5.7
3 -3 5 121.39 5.6
-3 -3 -5 120.69 5.7
3 3 -5 126.79 5.9
3 -3 -5 132.59 6.7
-3 3 -5 124.49 6
3 3 5 131.19 5.2
3 3 5 130.09 5.6
3 -3 -5 123.29 5.7
-3 3 -5 124.39 5.6
-3 -3 5 120.29 4.8
-3 3 -5 128.29 5.8
3 3 5 123.79 6.1
-3 -3 5 120.79 5.6
-3 -3 5 126.39 5.6
-4 -3 -5 209.18 8.5
4 3 -5 199.88 8.6
4 -3 5 195.48 7.4
-4 3 5 206.38 8.3
-4 3 5 188.88 8.3
4 3 -5 191.88 8.1
4 -3 5 196.48 8.2
4 3 -5 217.58 8.7
-4 -3 -5 198.48 8
4 -3 5 190.98 8.4
-4 3 5 205.68 8.2
4 -3 -5 188.78 9
-4 3 -5 200.98 8.5
4 3 5 202.28 7.6
-4 3 -5 198.58 8.3
-4 -3 5 200.68 8.3
4 3 5 193.68 8
4 -3 -5 203.88 8.3
-4 -3 5 187.48 8.2
4 3 5 200.58 8.7
5 3 -5 10.6 2.6
-5 3 5 9.5 2.3
-5 -3 -5 6.5 1.9
5 -3 5 8.8 2.6
5 -3 5 9.8 2.5
-5 3 5 8.5 2.3
5 3 -5 7.2 2.3
-5 3 5 7.3 2.3
5 3 -5 8.9 2.7
5 -3 5 10.3 2.4
-5 -3 -5 11 2.6
5 -3 -5 10 2.1
5 -3 -5 13.7 3.2
5 3 5 9.3 2.7
-5 3 -5 9.2 2.6
-5 -3 5 11.7 2.3
-5 3 -5 7.4 2.2
5 3 5 7.2 1.8
-5 -3 5 13.7 2.4
-6 -3 -5 219.48 9.3
-6 3 5 225.48 9.2
6 -3 5 231.38 9.3
6 3 -5 218.48 9.2
6 -3 5 214.78 9.3
6 3 -5 207.68 9.7
6 3 -5 222.68 9.7
-6 3 5 204.98 9.5
-6 -3 -5 209.18 9.6
-6 3 5 223.28 9.5
6 -3 5 233.88 9.9
-6 -3 5 219.18 9.6
-6 3 -5 206.68 9.6
6 -3 -5 211.08 10.3
6 -3 -5 192.48 9
6 3 5 214.78 9.8
6 3 5 214.68 8.8
-6 -3 5 232.08 9.2
-6 3 -5 225.58 9.6
-7 -3 -5 18.7 3.5
7 -3 5 31 3.9
-7 -3 -5 30.4 3.4
7 -3 5 31.7 3.3
7 3 -5 34.2 3.4
-7 3 5 33 3.3
7 -3 5 30.1 3.5
7 3 -5 29.5 3.6
7 3 -5 26.8 3.7
-7 3 5 21.8 3.3
-7 3 -5 26 3.7
-7 -3 5 32 3.3
7 3 5 27.3 2.8
-7 -3 5 21.9 3.2
7 3 5 27.3 3.7
-7 3 -5 25.1 3.4
7 -3 -5 21.5 4
8 3 -5 6.9 3
-8 -3 -5 8 3.3
-8 3 5 6.1 2.4
8 3 -5 13 2.8
8 -3 5 6 2.5
8 -3 5 6.4 3.3
8 -3 5 10.9 2.8
-8 -3 -5 10.9 2.8
-8 3 5 5.6 2.9
8 3 -5 9.2 3.1
8 3 5 12.1 3.4
8 -3 -5 3 3.5
-8 -3 5 9.4 2.8
-8 3 -5 10.5 2.9
-8 -3 5 8.4 2.7
-8 3 -5 7.6 3.1
-9 3 5 2.4 2.8
9 3 -5 1.5 2.6
9 -3 5 -1.8 2.8
-9 -3 -5 0.2 2.6
9 -3 5 -1.4 3.2
-9 -3 -5 4.6 3.4
9 -3 5 0 2.3
9 3 -5 0.3 3
9 3 -5 0.4 2.8
-9 -3 5 3.3 2.7
-9 3 -5 0.7 3
9 3 5 3.6 3.2
9 -3 -5 -3.5 3.5
-9 3 -5 3.3 2.8
10 3 -5 -1.3 2.7
-10 -3 -5 -1.8 3.3
-10 3 5 3.1 3.2
10 3 -5 -2 3
10 3 -5 -1.3 3.3
10 -3 5 1.2 3
10 -3 5 1 3.4
-10 -3 -5 -0.8 2.9
10 -3 -5 0.6 4
-10 3 -5 3.3 3.1
-10 -3 5 1.6 2.9
10 3 5 4.5 3.5
-10 3 -5 1.5 3.3
0 -4 5 1.8 1.5
0 -4 -5 -4.6 2.1
0 -4 -5 0.2 1
0 4 5 -1.6 1.6
0 -4 5 0.8 1.4
0 4 5 0.6 1.1
0 4 -5 -2.2 1.5
0 4 -5 1.4 1.6
0 4 -5 -0.2 1.8
0 -4 5 1.2 1.7
0 4 -5 -1.2 1.5
0 4 5 -2.6 1.3
0 4 5 -0.7 1.5
0 4 5 -1.2 1.1
1 4 -5 1.3 1.5
1 4 -5 1.6 1.8
-1 4 5 2.6 1.3
-1 4 5 0.5 1.4
1 -4 5 0.5 1.6
1 4 -5 0 1.6
1 4 -5 1.9 2
1 -4 5 4.8 1.7
-1 -4 -5 5.5 1.4
-1 4 5 2.9 1.3
-1 4 5 4.7 1.7
1 -4 5 4.9 1.5
-1 4 5 5.4 1.8
-1 -4 -5 -2.7 2.2
1 4 5 -0.1 1.4
-1 4 -5 -1.9 1.7
1 4 5 5.5 1.8
-1 -4 5 4.6 1.4
-1 -4 5 4.9 1.7
1 -4 -5 1.8 2.2
-1 4 -5 2 1.5
-1 4 -5 0.8 1.7
-1 -4 5 3.6 1.5
1 4 5 6.1 1.6
-1 4 -5 2.7 2
2 -4 5 518.55 18.5
-2 4 5 527.75 18.5
2 4 -5 520.55 19.1
2 -4 5 515.55 18.7
-2 -4 -5 493.85 18.5
2 4 -5 513.15 18.9
-2 4 5 490.95 18.8
2 -4 5 468.85 18.7
-2 4 5 547.85 18.7
2 -4 5 522.95 18.5
2 4 -5 537.95 18.7
2 4 -5 529.05 18.5
-2 4 -5 518.95 19
-2 -4 5 518.65 18.8
2 4 5 535.45 18.6
2 -4 -5 532.95 19.3
2 -4 -5 547.65 18.9
-2 4 -5 520.35 18.8
2 4 5 518.55 18.6
-2 -4 5 513.15 18.2
-2 -4 5 523.15 18.8
2 4 5 532.25 18.7
-2 4 -5 529.65 18.9
3 -4 5 46.5 3.8
3 -4 5 48.2 3.1
3 -4 5 44.3 3.6
3 4 -5 44.7 3.9
3 -4 5 44.2 3.3
-3 4 5 44.9 3.9
-3 -4 -5 43.8 3.6
3 4 -5 41.5 3.6
-3 4 5 36.7 3
3 4 -5 50.09 3.7
3 4 -5 40.8 3.6
-3 4 5 52.89 3.9
-3 -4 5 38.9 3.1
3 4 5 51.79 3.3
-3 -4 5 46.1 2.6
-3 4 -5 43.2 3.8
3 4 5 52.19 3.4
3 -4 -5 48.5 4.1
-3 4 -5 47.3 4
-3 4 -5 48 3.5
3 -4 -5 49.5 3.6
3 4 5 48.1 3.6
3 4 5 48.5 4.1
4 4 -5 86.79 5.6
-4 4 5 89.99 5.3
4 -4 5 97.19 5.4
4 4 -5 89.89 5
4 -4 5 83.59 5.1
-4 4 5 96.79 5.2
-4 -4 -5 92.09 4.8
4 -4 5 88.19 4.5
4 -4 5 91.29 5.4
-4 4 5 85.79 5.2
4 4 -5 85.09 5.1
-4 -4 -5 95.79 5.4
4 -4 -5 88.69 6.1
4 4 5 91.59 5.4
4 -4 -5 90.99 5.3
4 4 5 90.89 4.5
-4 -4 5 89.19 5.1
4 4 5 92.79 4.8
-4 -4 5 88.89 5.2
-4 4 -5 84.09 5.5
-4 4 -5 82.69 5.3
5 -4 5 1346.57 46.4
-5 -4 -5 1362.66 46.5
5 -4 5 1366.66 46.5
-5 4 5 1271.47 46.5
5 4 -5 1323.07 46.5
5 4 -5 1306.47 46.1
-5 4 5 1391.96 46.4
-5 -4 -5 1354.96 46.4
5 4 -5 1348.17 46.7
-5 4 5 1307.27 46.3
5 -4 -5 1261.67 47
5 4 5 1320.37 46
-5 -4 5 1357.76 46.4
5 -4 -5 1327.47 46.3
-5 4 -5 1330.17 46.5
5 4 5 1318.97 46.7
-5 -4 5 1353.86 46.7
-5 4 -5 1327.17 46.6
-6 -4 -5 2.7 2.1
-6 4 5 4.2 2.3
6 -4 5 2.1 2.7
6 -4 5 6.9 2.5
6 4 -5 2.1 2.7
-6 4 5 3.3 2.3
6 4 -5 5 2.5
-6 -4 -5 6.2 2.8
6 -4 5 1.1 2.6
6 4 -5 1.1 2.1
-6 4 5 2.6 2.4
-6 4 -5 1.9 2.5
6 4 5 1.6 2.5
-6 4 -5 3.8 2.5
-6 -4 5 3.5 2.2
-6 -4 5 3.6 2.2
6 -4 -5 1.9 3.1
6 -4 -5 1.1 2.3
6 4 5 2.5 1.8
7 -4 5 1.9 2.5
-7 -4 -5 1.8 2.9
7 4 -5 1.8 2.3
-7 -4 -5 2.6 2.3
-7 4 5 2.7 2.3
7 -4 5 3.6 2.8
7 4 -5 4 2.6
-7 4 5 1 2.4
7 -4 5 3.7 2.5
7 4 -5 -2.1 2.7
-7 4 -5 5.2 2.8
-7 -4 5 3.3 2.5
7 4 5 4.1 2.7
-7 4 -5 3.8 2.6
7 -4 -5 1.8 3.4
7 -4 -5 5.8 2.6
-7 -4 5 2.3 2.2
-8 4 5 39.5 3.9
8 4 -5 35.8 4.2
8 4 -5 32.1 3.6
8 -4 5 41 4.2
8 -4 5 32.9 3.7
8 4 -5 31.2 4.1
-8 4 5 38.9 4.4
-8 -4 -5 43.3 4.6
8 -4 5 41 4.5
-8 -4 -5 38.9 4.2
-8 -4 5 36.4 4.1
8 -4 -5 39.8 5.1
8 4 5 32.2 4.2
-8 4 -5 39.4 4.3
-8 4 -5 37 4.4
-8 -4 5 38.4 3.9
-9 -4 -5 43.4 4.7
-9 -4 -5 43.5 5
-9 4 5 46.8 4.9
9 -4 5 51.99 5.3
9 -4 5 45 4.6
9 -4 5 40.8 4.2
9 4 -5 53.89 5.1
9 4 -5 50.19 5.1
9 4 -5 48.8 4.3
-9 -4 5 47.5 5
9 4 5 45.3 5.1
9 -4 -5 41.9 5.6
-9 4 -5 42.5 5
-9 4 -5 51.09 5
10 4 -5 -1.6 2.8
10 4 -5 1.1 3.4
10 -4 5 2.6 3.5
10 -4 5 -5.9 2.3
10 4 -5 0.6 3.2
-10 4 5 1.7 3.1
-10 -4 -5 2.4 4.2
10 -4 5 4.7 3.1
-10 -4 -5 0.2 2.9
-10 4 -5 1.3 3.4
-10 4 -5 -2.9 3.2
10 4 5 3.8 3.4
10 -4 -5 -0.3 4.1
-10 -4 5 1.3 3
0 5 -5 225.08 9.6
0 -5 5 223.78 9.1
0 5 5 233.18 9.4
0 -5 5 230.28 9.3
0 5 -5 223.68 9.6
0 5 -5 238.98 9.4
0 5 5 239.08 9.3
0 -5 -5 236.58 9.8
1 5 -5 18.3 2.7
1 -5 5 28.2 2.7
-1 -5 -5 15.3 2.9
1 5 -5 20.8 2.7
-1 -5 -5 21.8 2
1 -5 5 22 2.5
-1 5 5 20.6 2
-1 5 5 22.7 2.4
1 5 -5 15.7 2.4
-1 5 5 22.6 2.7
1 -5 5 23.9 2.8
-1 -5 5 18.4 2.4
1 -5 -5 21 3
1 5 5 22.3 2.6
1 5 5 24.4 2.5
-1 5 -5 21.7 2.8
1 5 5 18.7 2.3
-1 5 -5 24.1 2.9
-1 5 -5 17.9 2.4
-1 -5 5 24.1 2.3
1 -5 -5 19.8 2.6
2 5 -5 19.8 2.5
-2 5 5 18.5 2.4
-2 -5 -5 21.2 3.1
-2 5 5 19.7 2.7
2 5 -5 18.5 2.7
2 -5 5 21.8 2.4
-2 5 5 23.4 2.3
2 -5 5 19 2.6
2 -5 5 16.3 2.5
2 5 -5 17.1 2.8
-2 -5 -5 17.8 2.2
2 5 5 18.4 2.4
2 -5 -5 16 2.6
-2 5 -5 20 2.6
-2 5 -5 19.7 2.7
2 -5 -5 21.5 3.2
-2 -5 5 20.8 2.6
-2 5 -5 19.7 2.9
2 5 5 16 2.3
-2 -5 5 19.9 2
2 5 5 19.7 2.4
-3 5 5 11.5 2.3
-3 5 5 17.1 2.7
3 5 -5 12.6 2.5
3 5 -5 10.3 2.2
3 -5 5 17.5 2.2
3 5 -5 10.8 2.7
3 -5 5 18.2 2.7
3 -5 5 10.5 2.6
-3 5 5 9.8 2.2
3 -5 5 13 2.2
3 5 5 15.8 2.7
3 5 5 17.4 2.3
-3 -5 5 11.9 2.3
3 -5 -5 15 3.2
3 5 5 15 2.2
-3 5 -5 14.5 2.8
-3 5 -5 12.3 2.6
3 -5 -5 9.8 2.5
-3 5 -5 14.2 2.6
3 5 5 16.2 2.3
4 5 -5 11.1 2.5
-4 5 5 13.5 2.6
4 5 -5 16.5 3
-4 5 5 9.2 2.4
4 -5 5 8.4 2.6
4 -5 5 13.9 2.7
4 -5 5 14 3.1
4 -5 5 17.4 2.4
-4 5 5 11 2.6
4 5 -5 10.9 2.3
-4 5 -5 7.1 2.4
4 5 5 10.4 2.6
4 -5 -5 11.5 3.2
4 -5 -5 14.2 2.8
-4 -5 5 8.8 2.3
4 5 5 9.8 2
-4 5 -5 10.3 2.7
4 5 5 9.9 2.1
-5 5 5 51.89 4.9
5 5 -5 55.29 4
-5 5 5 61.39 4.8
5 5 -5 55.19 4.6
5 -5 5 63.19 5.1
-5 -5 -5 52.19 4.3
-5 5 5 59.79 4.4
5 -5 5 57.69 4.7
-5 5 -5 55.59 4.9
5 5 5 58.09 4.9
5 5 5 53.89 4
-5 -5 5 58.49 4.8
-5 5 -5 56.79 5
5 -5 -5 53.69 4.3
5 -5 -5 55.79 5
-5 -5 5 60.89 4.6
6 5 -5 2.5 2.1
-6 5 5 -0.6 2.4
6 -5 5 -2.3 2.4
6 -5 5 -3.8 2.4
-6 5 5 -0.8 2.4
6 5 -5 2.4 2.7
-6 5 5 -1.9 2.2
6 -5 5 3.1 2.8
-6 -5 -5 -0.5 1.9
6 5 5 -1.6 1.8
6 5 5 1.8 2.4
-6 -5 5 -0.1 2.2
-6 5 -5 4.8 2.6
-6 -5 5 -1 2.2
6 -5 -5 1.6 3.2
6 -5 -5 1.3 2.5
-6 5 -5 -1.2 2.5
-7 5 5 7.4 2.7
-7 5 5 3.9 2.5
7 -5 5 1.6 2.7
7 5 -5 1.1 2.9
-7 5 5 1.9 2.6
7 -5 5 -2.9 2.4
7 5 -5 0.9 2.3
-7 -5 -5 5.4 2.5
-7 5 -5 3.6 2.8
-7 5 -5 1.2 2.6
-7 -5 5 4.5 2.6
7 -5 -5 5.2 3.6
-7 -5 5 -0.2 2.3
7 -5 -5 -1.1 2.5
7 5 5 -0.8 2.4
-8 5 5 8.1 3.2
-8 -5 -5 10.3 3.5
-8 -5 -5 7.2 3
8 -5 5 13.7 3.9
8 -5 5 12.9 3.1
8 5 -5 6.5 2.7
8 5 -5 12.3 3.4
-8 5 -5 10.7 3.4
-8 -5 5 8.9 2.8
8 5 5 11.1 3.2
8 -5 -5 8.8 4
-8 -5 5 10.5 3.2
-8 5 -5 3.2 3.1
-9 -5 -5 -3.1 2.7
-9 5 5 0.1 3
9 -5 5 2.2 2.7
9 5 -5 2.2 3.4
9 5 -5 1.3 2.5
-9 -5 -5 3.7 3.5
9 -5 -5 1 3.9
9 5 5 4.3 3
-9 5 -5 3.7 3
-9 -5 5 0 2.8
-9 5 -5 -1.1 3.1
0 -6 -5 -2.9 2.5
0 6 5 1.1 2
0 6 5 0.5 2
0 -6 -5 -4.5 2
0 6 -5 -0.4 2.1
0 6 -5 0.2 2.3
0 -6 5 -1.1 2
0 6 -5 -0.3 2.2
0 -6 5 4.5 2
-1 6 5 21.7 2.8
1 -6 5 27 2.9
1 6 -5 21.7 3.2
1 6 -5 25.4 2.9
1 -6 5 26.3 2.9
-1 6 5 25.1 2.2
-1 6 5 15.8 2.6
-1 -6 -5 22.5 3.3
1 6 -5 19.5 3
1 -6 -5 29.5 3.2
-1 6 -5 19.6 2.7
1 6 5 16.2 2.6
-1 -6 5 27.6 3
-1 6 -5 23.9 3.2
1 -6 -5 22.6 3.1
-1 -6 5 22.6 2.5
1 6 5 20.4 2.7
-1 6 -5 23 3.2
2 6 -5 35.7 3.7
2 -6 5 45.5 3.5
-2 6 5 45.8 3.2
2 6 -5 50.29 3.6
2 -6 5 39.5 3.5
-2 6 5 42.5 3.6
-2 6 5 35.3 3.5
2 6 -5 42.4 3.9
-2 -6 -5 44.9 4
2 6 5 39.5 3.4
-2 -6 5 35.4 3.4
2 6 5 40.9 3.5
-2 6 -5 40.8 3.8
-2 6 -5 38.4 3.8
2 6 5 44.8 4
-2 6 -5 49.6 3.8
2 -6 -5 43 3.9
2 -6 -5 40.9 4.1
-2 -6 5 41.4 2.9
-3 6 5 329.37 13.2
3 6 -5 339.87 13.4
-3 6 5 312.07 13
3 -6 5 308.27 12.4
-3 -6 -5 346.87 13.2
3 6 -5 325.27 13.2
3 -6 5 332.77 13
-3 6 5 337.57 12.6
3 6 -5 347.27 12.6
3 -6 -5 328.87 13.2
-3 -6 5 325.97 13
-3 6 -5 346.87 13.4
3 6 5 309.07 12.6
3 6 5 338.17 12.9
-3 6 -5 317.67 13
3 -6 -5 325.77 13.4
-3 6 -5 314.57 13
3 6 5 315.07 12.6
4 6 -5 68.19 4.6
4 6 -5 72.09 5.6
4 6 -5 50.29 4.5
-4 6 5 63.19 4.9
-4 6 5 54.19 5.1
4 -6 5 63.79 5.3
-4 6 5 65.69 5.1
4 6 5 62.59 4.3
4 6 5 65.29 4.4
4 6 5 56.79 4.6
4 6 5 59.89 4.5
-4 6 -5 60.99 5.5
-4 -6 5 60.79 4.6
-4 6 -5 87.69 7.4
4 -6 -5 66.49 5.4
4 -6 -5 62.09 5.8
4 6 5 55.19 4.9
-4 6 -5 60.79 4.6
-5 6 5 2.1 2.5
5 6 -5 4.2 2.4
-5 6 5 4.1 2.6
-5 6 5 5.8 2.7
5 6 -5 5 2.9
-5 -6 -5 6.2 2.3
5 -6 5 8.4 2.8
-5 -6 5 6.5 2.5
-5 6 -5 8 2.9
-5 -6 5 2.4 2.3
5 6 5 7.7 2.6
-5 6 -5 4.5 2.7
5 6 5 2.3 2.2
5 -6 -5 5.8 3.3
5 6 5 2.1 1.9
5 -6 -5 5 2.9
6 6 -5 40.2 4.3
-6 6 5 47 4.2
6 -6 5 42.8 4.2
6 6 -5 42.2 3.5
-6 6 5 41.9 4.4
-6 -6 -5 34 3.7
-6 6 5 46.9 4.3
6 -6 -5 50.19 4.5
-6 -6 5 37.8 3.9
-6 6 -5 39.4 4.3
-6 6 -5 36.3 4
6 6 5 35.7 3.9
-6 -6 5 45.8 4.1
6 -6 -5 41.2 4.9
-7 6 5 100.09 6.7
-7 -6 -5 99.99 6.4
7 -6 5 86.49 6.6
7 6 -5 91.09 6.7
7 6 -5 89.29 5.7
-7 6 5 93.49 6.3
-7 6 5 90.39 6.9
-7 -6 5 101.39 7
-7 -6 5 99.69 6.2
7 6 5 92.19 6.5
-7 6 -5 89.59 6.5
7 -6 -5 85.69 7.5
-7 6 -5 95.39 7.1
7 -6 -5 91.69 6.5
-8 -6 -5 2.1 3
8 -6 5 0.2 2.8
8 6 -5 -0.6 2.9
-8 6 5 1.2 2.9
8 6 -5 -1.1 2.3
-8 -6 -5 -1.5 2.6
8 6 5 -0.7 2.8
-8 -6 5 1.7 2.6
8 -6 -5 -1.3 2.8
-8 6 -5 -1.1 3
-8 -6 5 -0.2 2.9
8 -6 -5 4.1 3.8
-9 -6 -5 3.8 3.6
9 6 -5 1.1 3.4
9 6 -5 1.5 2.6
-9 -6 -5 3.3 4.8
9 -6 5 1.1 2.9
-9 6 5 3.3 3.4
9 -6 -5 -4.3 3.8
-9 -6 5 3.7 3.2
-9 6 -5 -0.2 3.5
9 6 5 3.8 3
0 -7 -5 2.7 2.6
0 7 5 3.8 2.2
0 7 5 6.7 2.5
0 7 -5 1.9 2.6
0 7 -5 6.4 2.4
0 -7 5 4.1 2.3
0 -7 -5 7.3 2.7
0 -7 5 5.4 2.4
0 7 -5 5.1 2.7
1 7 -5 9.7 3
-1 7 5 10.2 2.5
-1 7 5 15.6 2.9
1 -7 5 13.6 2.7
1 7 -5 8.1 2.9
-1 -7 -5 10.9 2.7
1 -7 5 14.9 2.8
-1 -7 -5 10.2 3
1 7 -5 18.7 2.9
-1 7 5 11.7 1.9
-1 -7 5 20.7 2.6
1 -7 -5 12.9 3
-1 7 -5 15.2 3.1
-1 7 -5 15 2.7
1 7 5 15.6 2.7
-1 7 -5 6 2.9
1 -7 -5 12.1 2.9
1 7 5 8.5 2.5
-1 -7 5 15.8 2.9
2 7 -5 23.2 3
-2 7 5 18.6 2.9
-2 7 5 22.1 2.5
-2 -7 -5 21.5 3.2
-2 7 5 27.4 3.3
2 7 -5 23.3 3.4
2 -7 5 22.1 2.9
2 -7 5 21.8 3.2
-2 -7 -5 21.2 3.3
2 7 -5 23.6 3.6
2 7 5 21.1 2.9
-2 7 -5 19.9 3.1
-2 -7 5 19.7 3
2 7 5 19.7 2.9
2 -7 -5 22.2 3.4
-2 7 -5 24.8 3.4
-2 7 -5 18.6 3.4
2 -7 -5 16.4 3.3
3 -7 5 223.38 9.6
-3 -7 -5 226.78 10.2
3 7 -5 236.78 10.6
-3 7 5 224.68 10
3 -7 5 257.37 10.4
3 7 -5 232.28 10.3
-3 7 5 218.58 9.4
-3 7 5 212.68 10.1
3 7 -5 243.88 9.6
-3 -7 -5 238.78 9.9
-3 7 -5 220.58 10.1
3 7 5 228.48 9.7
-3 7 -5 227.38 10.1
-3 7 -5 234.38 10.5
3 -7 -5 225.28 10.4
3 7 5 217.08 9.9
-3 -7 5 240.98 10.2
3 -7 -5 220.28 10.3
4 7 -5 5.2 2.9
4 -7 5 14.4 3.1
-4 7 5 13.6 2.7
-4 7 5 10.8 2.9
-4 7 5 11.8 3
4 7 -5 10.3 3.2
4 7 -5 11.5 2.5
4 7 5 11.9 2.5
-4 -7 5 14.6 3
4 -7 -5 9.5 3.2
-4 7 -5 17.5 3.2
-4 7 -5 6.3 2.8
4 7 5 11.7 2.7
4 7 5 9.8 2.5
4 -7 -5 10.3 3.3
-5 7 5 9.3 2.9
-5 -7 -5 8.6 2.5
-5 7 5 14 3
5 -7 5 13.8 3.3
5 7 -5 8.9 3.1
5 7 -5 12.2 2.6
-5 7 5 13.3 3.1
-5 7 -5 11.5 3.1
5 -7 -5 12.1 3.6
5 7 5 10.9 2.9
-5 7 -5 17.7 3.5
5 -7 -5 14.5 3.5
5 7 5 9.3 2.6
-5 -7 5 10.9 3
6 7 -5 47.3 4.8
-6 -7 -5 51.89 4.7
-6 7 5 55.59 4.9
-6 7 5 60.99 4.9
6 7 -5 52.49 4.1
-6 7 5 47.1 4.8
6 -7 5 56.79 5
6 -7 -5 58.59 5.7
6 7 5 51.79 4.7
-6 -7 5 54.59 5
6 7 5 52.09 4.5
6 -7 -5 68.69 5.5
-6 7 -5 48.1 5
-6 7 -5 46.7 4.6
-6 -7 5 65.29 5.4
7 7 -5 17 3.8
7 -7 5 26.1 4
-7 7 5 22.5 4
-7 -7 -5 24.4 3.7
7 7 -5 29.9 3.2
-7 7 5 29.6 3.9
-7 7 5 23.6 3.7
-7 -7 5 23.5 3.9
7 7 5 20.8 3.6
-7 -7 5 30.3 3.9
7 -7 -5 23.5 4.4
-7 7 -5 21.7 4.1
7 -7 -5 19.8 3.8
8 7 -5 32.8 3.6
-8 7 5 33.3 4.7
8 7 -5 29.7 4.5
-8 -7 -5 41.2 5.1
8 -7 5 45.6 4.9
-8 -7 5 40.2 4.7
8 -7 -5 32.6 5.5
-8 -7 5 53.49 4.9
8 -7 -5 42.7 4.7
-8 7 -5 34.1 4.9
0 -8 5 -0.8 2.4
0 8 -5 -0.2 2.7
0 8 -5 -0.3 2.6
0 -8 5 1.3 2.6
0 8 5 -1.4 2.3
0 -8 -5 0.7 2.5
0 8 -5 -1.1 2.3
0 8 5 -1.6 2.1
1 -8 5 33 3.8
-1 8 5 28.7 2.4
-1 8 5 23.1 3.3
-1 8 5 20.4 3.3
1 8 -5 24.3 3.1
-1 -8 -5 25.7 3.6
1 8 -5 30.3 3.8
1 8 -5 26.8 4
1 -8 5 30.9 3.6
1 8 5 21.3 3.3
-1 8 -5 26 3.8
1 8 5 30.5 3.4
-1 -8 5 31 3.2
-1 8 -5 33.3 3.9
-1 8 -5 36.2 3.7
-1 -8 5 31.5 3.7
1 -8 -5 34.5 3.9
2 8 -5 27.1 3.7
2 -8 5 25.8 3.6
-2 -8 -5 27 3.6
2 8 -5 31.4 3.3
-2 8 5 24.1 3.5
-2 8 5 31.1 2.9
2 -8 5 33.9 3.6
2 8 -5 16.8 3.6
-2 8 5 27.6 3.8
2 8 5 19.3 3.2
2 8 5 31.2 3.5
-2 -8 5 33.7 3.9
-2 8 -5 28.7 3.8
-2 8 -5 35.2 3.7
2 -8 -5 35.4 4
-2 8 -5 30 4.1
-3 8 5 54.99 4.6
-3 8 5 58.79 4.1
-3 -8 -5 58.49 4.6
3 8 -5 48.8 4.5
3 -8 5 50.69 4.6
3 8 -5 43.3 4.8
3 -8 5 58.09 4.4
-3 8 5 47.3 4.4
3 8 -5 49.9 4
-3 -8 5 59.69 4.9
-3 8 -5 40.9 4.6
-3 8 -5 55.69 4.6
-3 8 -5 50.09 4.6
3 -8 -5 65.89 5.4
3 8 5 46 4.1
3 8 5 41.2 4.1
-4 8 5 24.6 3.5
-4 -8 -5 18.6 3.2
-4 8 5 20.1 3.4
4 8 -5 13.7 3.5
4 8 -5 12.6 2.8
4 8 -5 13.7 3.3
4 -8 5 18.2 3.6
-4 8 5 22.1 3
4 -8 -5 18.3 3.8
4 8 5 14.8 3
-4 8 -5 13.7 3.3
-4 8 -5 21.7 3.5
-4 -8 5 17.3 3.4
-5 -8 -5 26 3.6
5 8 -5 29.6 4.1
-5 8 5 20.2 3.6
5 8 -5 28.2 4.1
5 -8 5 19.2 3.9
-5 8 5 18.8 3.6
5 8 -5 32.1 3.4
-5 8 5 27.4 3.6
-5 8 -5 27.2 4.3
-5 -8 5 32.7 4
5 -8 -5 36.6 4.5
6 8 -5 36.3 4.5
6 -8 5 43 4.9
-6 -8 -5 47.9 4.7
6 8 -5 46.8 3.8
-6 8 5 47.7 4.8
-6 8 5 34.1 4.4
-6 8 5 44.2 4.4
-6 -8 5 44.1 4.7
-6 -8 5 53.69 5
6 8 5 49.4 4.4
-6 8 -5 42.3 5.1
6 -8 -5 49.5 5
-7 8 5 3.4 3.2
-7 8 5 0.1 2.9
-7 -8 -5 6.1 3.1
-7 8 5 4.9 3
7 8 -5 -1.2 3.1
7 8 -5 2.6 2.3
7 -8 5 -0.7 3.3
-7 -8 5 1.4 2.8
-7 8 -5 7.8 3.8
7 -8 -5 4.3 3.6
-7 -8 5 4.6 3
0 9 5 24.5 3.6
0 -9 5 24.9 3.7
0 -9 -5 33.5 4
0 9 -5 16.7 3.4
0 9 -5 14.4 3.7
0 9 5 16.7 3.3
0 9 -5 27.5 3.4
0 -9 5 25.4 3.5
-1 -9 -5 15.5 3.4
-1 9 5 16.6 3.2
1 9 -5 15.3 3.8
-1 9 5 14.3 3.2
-1 9 5 24.3 2.5
1 9 -5 13.6 3.3
1 -9 5 19 3.5
1 -9 5 20.2 3.5
1 9 -5 16.6 3.1
-1 9 -5 22.4 3.5
1 9 5 12.7 3.1
-1 9 -5 14.5 3.7
1 9 5 19 3.3
-1 -9 5 24.6 3.7
1 -9 -5 25.8 4
-1 9 -5 22.5 3.4
2 9 -5 0.2 2.8
2 -9 5 4.9 2.8
-2 -9 -5 5.6 2.9
-2 9 5 -1.5 2.6
2 -9 5 -4.4 2.7
2 9 -5 -0.9 2.3
2 9 -5 -1.4 3.1
-2 9 5 -0.9 2.6
-2 9 5 0.3 1.8
2 9 5 3.4 2.4
-2 9 -5 -2.6 2.6
-2 9 -5 -4.7 3
2 -9 -5 -2 3.1
-2 9 -5 -1.8 2.9
-2 -9 5 0.9 2.9
2 9 5 -1.6 2.4
3 9 -5 0.4 2.4
3 9 -5 2.1 2.9
3 -9 5 3.1 3.2
-3 9 5 8.9 3
3 -9 5 1.3 2.7
-3 9 5 2 2.7
3 9 -5 0.6 3.2
-3 9 5 2.5 2.1
-3 -9 -5 1.3 2.8
3 9 5 2.5 2.4
3 9 5 3.7 2.6
-3 -9 5 3.6 3.1
3 -9 -5 -3.3 3.3
-3 9 -5 1.1 2.8
-3 9 -5 2.3 3.2
-3 9 -5 -0.2 3
4 9 -5 20.9 3
4 9 -5 14.8 3.7
-4 9 5 21.6 3.8
-4 9 5 23 3.2
4 9 -5 18.7 3.7
-4 9 5 12.7 3.3
4 -9 5 18.6 3.9
-4 -9 -5 16.9 3.5
-4 -9 5 17.6 3.7
-4 9 -5 26.3 4.3
4 -9 -5 19.4 4.3
4 9 5 20.1 3.3
-5 9 5 0.6 2.9
-5 9 5 4.6 2.8
5 9 -5 3 3.1
-5 9 5 3.4 3
5 -9 5 -2.6 3.3
5 9 -5 3.4 2.4
5 9 -5 9.4 3.5
-5 -9 -5 6.3 2.9
-5 -9 5 5.3 3.3
5 -9 -5 1.7 3.7
-5 9 -5 2.5 3.3
5 9 5 1.5 2.4
-6 9 5 4.2 3
6 9 -5 0.8 3.4
-6 9 5 -4.3 2.8
-6 -9 -5 3.3 2.9
6 9 -5 -1.3 2.2
-6 9 5 0.5 3
6 -9 5 2.7 3.5
6 -9 -5 4.2 3.8
-6 9 -5 1.7 3.3
-6 -9 5 4 3.2
-6 -9 5 3.5 2.9
0 -10 5 -2.3 2.9
0 -10 -5 -3.8 3
0 10 -5 -2.1 2.6
0 -10 5 -2.4 3.8
0 10 -5 -2.8 2.8
0 10 5 -3 2.4
0 10 -5 -4.2 3.1
0 10 5 -1.4 2.5
-1 10 5 0.5 2.8
1 10 -5 2.8 2.8
1 10 -5 2.7 3.4
1 -10 5 2.9 3.1
1 -10 5 1.4 3
-1 10 5 1.9 2.7
1 10 -5 0.1 2.9
-1 -10 -5 4 3.3
-1 10 -5 -0.2 2.7
1 10 5 -0.4 2.7
-1 10 -5 2.9 3.4
-1 10 -5 -1.7 2.9
1 10 5 -0.2 2.6
-1 -10 5 4.2 3.2
1 -10 -5 2.2 3.4
-2 10 5 5.6 3
-2 10 5 3.5 3
2 -10 5 5.9 3.2
-2 -10 -5 7.4 3.2
2 10 -5 2.2 3.5
-2 10 5 8 2.3
2 10 -5 1.6 3.1
2 -10 5 3.8 3.3
2 10 -5 1.5 2.6
2 -10 -5 7.3 3.9
-2 10 -5 3.4 3.5
-2 -10 5 3 3.3
2 10 5 -0.7 2.7
-2 10 -5 3.3 2.7
2 10 5 3 2.9
-3 -10 -5 36.5 4.4
3 10 -5 29.7 4.1
-3 10 5 33.7 3.5
-3 10 5 29.6 4.3
3 10 -5 38.7 3.7
3 -10 5 40.5 4.7
-3 10 5 28.3 4.1
3 -10 5 26 4.1
3 10 -5 34 4.8
3 10 5 26.7 4
-3 -10 5 40.7 4.9
3 -10 -5 34.8 4.9
-3 10 -5 35.8 4.3
-3 10 -5 26.5 4.8
4 -10 5 14.2 4
-4 -10 -5 7.9 3.3
4 10 -5 5.2 3.4
4 10 -5 10 3.9
-4 10 5 12.2 3
-4 10 5 10.2 3.4
-4 10 5 11.1 3.5
4 10 -5 12.6 2.8
4 10 5 14.7 3.3
-4 -10 5 12.2 3.7
4 -10 -5 13.1 4.4
-4 10 -5 9.1 4
-5 -10 -5 37.7 4.7
-5 10 5 26 4.5
-5 10 5 35.2 4.8
5 10 5 33.8 5.6
-5 10 -5 34.2 5.4
0 11 -5 0.5 3.8
0 -11 5 6.3 3.6
0 11 5 11.7 4.2
0 11 5 1.7 3.1
0 -11 -5 5.5 3.8
0 11 -5 6.4 3
1 11 -5 5.1 4.1
-1 11 5 1.9 3.2
1 -11 5 9.3 3.7
-1 -11 -5 8.6 3.7
1 -11 5 9.4 3.6
1 11 -5 -0.3 3.7
1 11 -5 9 3.2
1 11 5 4.9 3.2
1 -11 -5 9.4 4
-1 11 -5 1.8 3.8
-1 11 -5 3.8 3
1 11 5 9 5.4
-2 -11 -5 5.4 3.6
-2 11 5 1.4 3
2 -11 5 8.5 3.7
2 11 -5 1 5.9
2 11 -5 -3.3 2.9
2 -11 5 0.7 3.1
-2 11 -5 0.6 4.1
2 11 5 -1.7 2.9
-2 11 -5 -0.5 3
0 0 -6 -5 2
0 0 6 1.4 1.4
0 0 -6 0.2 1.6
0 0 6 1.7 1.4
0 0 6 3.2 1.4
0 0 -6 0.2 1.4
1 0 -6 11.1 1.8
1 0 -6 8.5 2.3
-1 0 -6 11 1.7
-1 0 6 10.7 1.6
-1 0 6 11.4 1.8
-1 0 6 12.3 1
1 0 6 11.2 1.7
1 0 6 12.1 1.5
1 0 -6 9 1.8
-1 0 -6 10.5 2
-1 0 -6 9 2.5
-1 0 6 11.2 1.8
1 0 6 9.8 1.7
1 0 6 9.1 1.4
2 0 6 11.1 1.4
2 0 6 12.4 2.2
2 0 -6 11.8 1.8
-2 0 -6 13.6 2.1
2 0 -6 11.4 1.9
2 0 -6 10.6 2.4
-2 0 6 10.7 1.6
2 0 6 10.7 1.7
-2 0 6 12.8 1.3
-2 0 6 11.8 1.9
2 0 6 12.8 1.8
-2 0 6 13.7 2
2 0 6 11.7 1.4
-3 0 -6 1.7 1.8
-3 0 6 0.3 1.1
3 0 6 0.6 1.4
3 0 -6 0.7 1.6
3 0 -6 -1.3 1.6
-3 0 6 2.3 1.3
3 0 6 -0.4 1.8
3 0 6 0.1 0.9
3 0 6 0.9 1.4
3 0 -6 -1.2 2.1
-3 0 -6 0.9 1
-3 0 6 0 1.5
-3 0 6 1.4 1.7
4 0 -6 472.45 16.6
4 0 -6 435.86 16.5
-4 0 6 455.85 16.6
4 0 6 448.56 16.2
-4 0 6 445.06 16.5
-4 0 6 472.55 16.5
-4 0 6 454.85 16.1
4 0 -6 464.25 17.3
4 0 6 458.15 17.1
4 0 6 436.96 16.5
-4 0 -6 450.15 16.2
-4 0 -6 448.26 16.8
5 0 -6 113.99 6.8
-5 0 -6 113.99 5.5
5 0 6 110.69 6.4
-5 0 -6 108.69 6.1
5 0 6 104.49 5.6
-5 0 6 107.49 5.6
-5 0 6 113.89 5.7
5 0 -6 113.39 5.7
-5 0 6 116.79 5.9
5 0 6 111.29 5.3
5 0 -6 115.29 6
6 0 6 61.29 4.1
-6 0 6 54.39 4.4
6 0 6 53.89 4.8
6 0 -6 62.39 5.1
6 0 6 52.99 4.3
-6 0 -6 50.39 4.3
-6 0 6 52.39 4.4
6 0 -6 48.3 3.8
-6 0 -6 55.89 4.9
6 0 -6 52.59 4.1
7 0 6 65.29 4.7
7 0 -6 64.39 4.8
-7 0 -6 61.89 5
7 0 6 58.39 5.2
7 0 -6 70.39 5.7
-7 0 -6 75.39 5.7
-7 0 6 65.09 5.1
7 0 -6 60.39 4.5
-7 0 6 61.39 4.7
8 0 -6 8.7 3
-8 0 -6 5.3 3
8 0 6 9.1 2.4
-8 0 6 8.1 2.7
-8 0 -6 12.1 2.8
8 0 6 7.3 3.3
8 0 -6 9.7 3.5
-8 0 6 12.5 2.7
-9 0 -6 70.79 6.4
9 0 6 87.09 7.1
9 0 -6 78.49 7.1
-9 0 6 88.09 6.4
10 0 6 22.8 4.5
-10 0 6 26.2 4.1
10 0 -6 28.7 5
-10 0 -6 27.5 4.4
0 -1 -6 -1 1.3
0 1 6 -0.9 1.2
0 1 6 -1.1 1.3
0 -1 -6 -3.7 2
0 -1 6 1.1 1.3
0 1 -6 -1.3 2.1
0 1 -6 -0.5 1.5
0 1 6 -0.1 1.4
0 -1 -6 -1.5 1.4
0 -1 6 2.4 1.5
0 1 -6 -1.6 1.6
0 1 6 -0.8 1.2
0 -1 6 -1.3 1.3
-1 -1 -6 167.18 7.9
-1 1 6 172.58 7
-1 1 6 169.98 7.1
-1 -1 -6 175.88 7.1
1 -1 6 175.38 7.1
1 1 -6 177.58 7.3
1 -1 6 175.78 7.2
-1 1 6 180.48 6.4
1 -1 6 184.78 6.9
-1 1 6 178.88 7.2
1 1 -6 188.38 7.9
1 -1 -6 180.68 7
1 1 6 171.58 7.1
-1 1 -6 182.68 7.8
1 1 6 184.18 7
1 1 6 187.98 6.9
-1 -1 6 175.08 7.1
-1 -1 6 176.88 7
1 1 6 179.38 6.9
-1 -1 6 184.88 7.2
-1 1 -6 173.98 7.1
-1 -1 6 168.98 6.5
-1 1 -6 180.18 7.4
1 -1 -6 188.18 7.1
1 -1 -6 184.68 7.9
2 1 -6 1204.78 43.3
-2 -1 -6 1251.67 43
-2 1 6 1265.97 42.6
-2 1 6 1264.57 43.1
2 -1 6 1307.47 43.3
-2 1 6 1240.88 42.9
2 1 -6 1257.57 43.1
2 -1 6 1220.28 42.8
2 -1 6 1230.88 42.7
2 -1 6 1237.78 43
-2 1 6 1167.68 42.8
2 1 6 1265.77 43
2 1 6 1231.48 43.4
2 -1 -6 1204.58 43.5
-2 -1 6 1257.27 42.7
-2 1 -6 1222.38 42.8
2 1 6 1195.78 42.6
2 -1 -6 1231.28 42.9
-2 -1 6 1286.57 43
-2 -1 6 1204.78 42.7
2 1 6 1287.57 42.7
-2 1 -6 1260.47 43.1
-2 -1 6 1300.77 43.1
-2 1 -6 1282.17 42.5
2 1 6 1255.57 42.6
2 -1 -6 1288.77 42.8
3 -1 6 174.58 7
3 1 -6 174.28 7.6
-3 1 6 164.18 6.6
3 1 -6 160.28 7
3 1 -6 162.98 6.9
-3 -1 -6 162.98 6.2
-3 -1 -6 156.98 7
3 -1 6 161.38 6.7
3 -1 6 160.28 6.1
-3 1 6 161.08 6.8
-3 1 6 160.58 6.5
-3 1 6 157.08 6.7
3 -1 6 161.48 7.3
-3 -1 6 166.58 6.3
3 -1 -6 167.58 6.6
-3 -1 6 156.08 6.5
3 -1 -6 160.88 6.8
3 1 6 163.58 6.9
3 1 6 160.18 6.2
3 1 6 143.59 7.2
-3 -1 6 168.38 6.9
3 -1 -6 163.88 7.7
-3 -1 6 166.38 6.9
3 1 6 167.28 6.4
-3 1 -6 162.38 7.1
-3 1 -6 159.88 6.3
3 1 6 161.58 6.3
-4 -1 -6 248.48 10.2
4 -1 6 258.97 9.7
-4 1 6 270.07 9.9
-4 1 6 261.07 10
4 -1 6 261.97 10.5
-4 -1 -6 249.28 9.5
-4 1 6 247.08 10
4 1 -6 257.27 10
4 -1 6 252.77 10
4 1 -6 241.98 10.5
4 1 -6 244.48 10
4 1 6 255.57 9.2
4 1 6 250.97 10.5
-4 -1 6 248.18 10
4 1 6 250.37 9.9
-4 1 -6 255.97 9.6
4 -1 -6 246.38 9.6
-4 -1 6 247.28 9.8
-4 1 -6 256.77 10.3
4 1 6 247.38 9.4
-4 -1 6 254.47 9.2
4 -1 -6 250.67 10
4 -1 -6 255.57 10.8
-4 -1 6 261.77 10
5 -1 6 15 2.8
-5 -1 -6 12.7 2.7
5 -1 6 14.3 2.3
-5 1 6 15.3 2.5
5 1 -6 12.4 3
5 1 -6 12 2.5
-5 1 6 13.4 2.4
-5 -1 -6 10.5 2
5 -1 6 12.1 2.3
5 1 -6 15 2.7
-5 1 6 14.6 2.3
5 -1 -6 11.3 3.1
-5 -1 6 12.2 2.4
-5 1 -6 11.5 2.1
-5 1 -6 11.9 2.8
5 1 6 10.8 2.2
5 -1 -6 13.4 2
5 -1 -6 8.9 2.1
5 1 6 13.3 1.9
5 -1 -6 9.2 2.3
-5 -1 6 11.4 2.1
5 1 6 10.6 2.8
6 1 -6 1.1 2.3
6 -1 6 2.3 2
6 1 -6 -0.1 2.8
-6 1 6 1 2
6 -1 6 -0.8 2.6
-6 1 6 1.3 2.1
-6 -1 -6 0.4 1.8
-6 -1 -6 2.2 2.5
6 1 -6 1.5 2.3
6 1 6 -0.8 1.8
6 -1 -6 3.4 4
6 -1 -6 0.8 1.9
-6 1 -6 -1.9 2
6 1 6 -3.5 2.4
6 1 6 -0.2 1.7
6 -1 -6 -0.3 2.9
-6 1 -6 -0.7 2.6
-6 -1 6 -1.1 2
-6 -1 6 -1.3 1.8
-7 -1 -6 61.19 5
7 -1 6 67.59 4.8
-7 -1 -6 63.69 5.6
7 1 -6 76.89 5.2
-7 1 6 58.59 5
-7 1 6 66.69 4.7
7 -1 6 68.29 6
7 1 -6 61.79 6
7 1 -6 67.69 5.3
-7 1 -6 70.29 5.3
-7 -1 6 64.49 5
7 1 6 71.59 4.4
-7 -1 6 71.39 4.9
7 1 6 63.99 4.5
7 -1 -6 68.19 6.4
7 1 6 70.49 6
-7 1 -6 58.39 5
8 1 -6 13.1 3.1
8 1 -6 14 3.7
-8 1 6 17 3.1
-8 -1 -6 10.6 3.3
8 -1 6 11.8 3.7
8 -1 6 12.8 2.6
-8 1 6 16.7 2.9
-8 -1 -6 14.8 2.9
8 1 -6 7.4 3
-8 -1 6 14.9 2.9
-8 -1 6 15.3 3
-8 1 -6 11.9 3.3
8 1 6 12.9 2.5
8 -1 -6 14.9 3.9
-8 1 -6 18.4 3.1
8 1 6 10.3 3.5
9 -1 6 15.1 4
9 1 -6 14.7 3.3
9 1 -6 16.1 4.3
9 1 -6 16.8 3.2
-9 -1 -6 11.3 3.5
-9 1 6 18.1 3.5
9 -1 6 14.6 2.8
9 1 6 16.6 3.7
-9 -1 6 11.6 3.1
9 -1 -6 11.4 4
-9 1 -6 15.2 3.4
-9 1 -6 15.5 3.8
-9 -1 6 12.9 5.1
-10 -1 -6 8.6 3.6
-10 1 6 9.2 3.2
10 -1 6 10.2 4
10 1 -6 12.7 4.2
10 1 -6 8.3 3.3
-10 -1 6 13.2 3.5
10 1 6 9.1 3.8
-10 1 -6 14 3.9
10 -1 -6 8.6 4.4
0 2 -6 155.58 6.9
0 2 6 159.48 6.2
0 -2 6 150.48 6.4
0 2 -6 163.08 6.6
0 -2 6 158.78 6.4
0 -2 6 155.68 6.6
0 -2 -6 160.28 6.3
0 2 6 158.68 6.2
0 -2 -6 162.38 7.4
0 2 -6 156.28 7
0 2 -6 155.18 6.1
0 2 6 147.49 6.5
0 2 6 166.68 6.5
1 -2 6 477.85 17.8
-1 -2 -6 487.25 18.4
-1 2 6 483.45 17.7
1 2 -6 499.35 18.1
1 -2 6 510.35 17.7
-1 2 6 500.35 17.9
1 2 -6 489.65 17.6
-1 -2 -6 491.05 17.7
1 2 -6 521.85 17.9
1 2 -6 536.45 18.2
1 -2 6 494.65 17.9
-1 2 6 490.25 17.7
-1 2 6 484.25 17.4
-1 2 6 520.05 18
1 2 6 504.05 17.5
-1 2 -6 518.95 18.2
1 2 6 488.75 17.9
-1 2 -6 515.75 17.9
-1 2 -6 510.75 17.5
1 -2 -6 502.95 17.7
-1 -2 6 514.95 17.9
-1 -2 6 495.15 17.7
1 2 6 504.35 17.5
-1 2 -6 485.25 18.1
1 2 6 497.65 17.8
1 -2 -6 497.55 18.5
1 -2 -6 506.25 17.5
-1 -2 6 502.95 17.9
-2 2 6 79.19 4.1
-2 2 6 80.39 4.3
-2 2 6 79.59 4.2
2 2 -6 82.99 4.4
-2 -2 -6 73.29 3.3
2 2 -6 82.29 4.9
2 -2 6 80.69 3.7
-2 -2 -6 77.49 4.2
-2 2 6 84.79 3.8
2 2 -6 77.29 4.6
2 -2 6 82.69 4.2
2 -2 6 79.69 4.6
2 -2 6 72.49 4.3
-2 2 -6 78.49 4.2
-2 -2 6 76.89 3.7
2 -2 -6 74.19 3.6
2 -2 -6 79.19 5.1
2 -2 -6 74.09 4.1
2 2 6 85.19 4.4
2 2 6 79.89 3.8
2 2 6 83.09 3.5
-2 -2 6 83.29 4.4
2 2 6 77.89 3.6
-2 -2 6 78.79 3.8
-2 2 -6 83.39 3.9
-2 2 -6 71.59 4.6
-2 -2 6 74.89 4.1
-3 2 6 403.06 15.5
3 -2 6 420.36 15.5
3 -2 6 432.76 15.8
3 2 -6 425.96 15.5
-3 -2 -6 426.16 15.6
-3 2 6 443.66 15.4
3 -2 6 427.56 14.9
3 -2 6 427.36 15.4
3 2 -6 438.16 15.7
-3 2 6 405.76 15.4
3 2 -6 455.05 15.9
-3 2 6 445.46 15.3
-3 -2 -6 407.86 15
-3 -2 6 435.36 15.4
-3 -2 6 413.16 15.6
3 2 6 416.56 15.5
-3 -2 6 408.06 15.5
3 -2 -6 431.76 16.3
3 2 6 424.06 15.1
-3 2 -6 421.16 15.7
3 -2 -6 403.86 14.9
-3 2 -6 427.86 15.2
3 2 6 408.76 15.9
-3 -2 6 419.46 14.9
-4 2 6 1.6 1.6
4 -2 6 3.2 1.9
4 2 -6 -0.9 2.1
-4 2 6 5 2.2
-4 -2 -6 3.1 1.4
-4 2 6 -0.2 1.9
-4 -2 -6 -1.6 2
4 2 -6 -1.2 1.8
4 2 -6 -0.7 2.3
4 -2 6 2.5 2.1
4 -2 6 1.7 1.9
4 -2 -6 -0.1 1.6
-4 -2 6 0 2
-4 -2 6 2.6 1.9
-4 -2 6 1.3 1.6
4 2 6 1 1.7
4 2 6 0.2 1.2
4 -2 -6 2.9 1.5
4 -2 -6 1.2 2.7
4 2 6 -2 2.2
-4 2 -6 4.4 2.2
-4 2 -6 1.4 1.5
5 2 -6 56.99 3.9
5 -2 6 51.89 4.2
-5 -2 -6 53.69 4.7
-5 2 6 47.9 3.8
5 2 -6 49.2 4.1
5 -2 6 57.19 4.3
-5 -2 -6 48.5 3.7
-5 2 6 45.8 3.7
-5 2 6 51.89 4.1
5 2 -6 56.09 5
5 -2 6 50.09 4.8
5 -2 -6 53.89 4.8
-5 2 -6 62.59 4.8
-5 -2 6 52.89 4.1
-5 2 -6 50.19 4.1
5 2 6 51.69 4
5 -2 -6 58.29 4
5 2 6 54.59 5.1
-5 -2 6 57.89 4.1
-6 2 6 39.2 3.6
-6 2 6 43.9 3.6
-6 -2 -6 43.6 3.9
6 -2 6 46.2 4.3
6 -2 6 42.7 3.6
-6 -2 -6 46.5 4.1
6 2 -6 38.4 4.1
6 2 -6 43.8 3.9
6 2 -6 42.1 3.7
-6 2 6 45.1 3.8
6 -2 -6 39 3.2
6 2 6 43.8 3.3
6 -2 -6 37.3 4.5
-6 2 -6 45.3 4.2
6 2 6 36.1 3.9
-6 -2 6 45.4 3.7
-6 2 -6 40.3 3.5
-6 -2 6 39.3 3.5
7 2 -6 300.07 12.1
-7 -2 -6 297.77 12.1
7 2 -6 287.37 12.7
7 -2 6 320.47 13
-7 2 6 296.17 12.3
-7 2 6 292.47 11.9
7 2 -6 297.17 12.3
7 -2 6 286.27 11.8
-7 2 -6 298.77 12.3
-7 -2 6 300.07 12
7 2 6 284.97 11.5
-7 2 -6 294.17 12.5
7 2 6 287.77 12.8
7 2 6 294.47 11
7 -2 -6 290.67 13.4
-7 -2 6 287.17 12.2
-8 2 6 2.4 2.5
-8 -2 -6 3.8 2.6
-8 -2 -6 7.5 3.1
-8 2 6 1.7 2.3
8 -2 6 7 3.3
8 2 -6 -0.9 3
8 -2 6 -1.2 2.2
8 2 -6 -0.1 2.5
8 2 -6 2.9 2.7
8 -2 -6 3.9 3.6
8 2 6 4.6 1.9
8 2 6 3 3
-8 -2 6 2.3 2.4
-8 2 -6 3.5 2.6
-8 2 -6 7.3 3.2
-8 -2 6 3.5 2.5
9 2 -6 9.1 3.7
9 -2 6 7.5 2.9
-9 -2 -6 6.6 3.3
9 -2 6 2.8 2.5
-9 2 6 10.8 3.2
9 -2 6 11.4 3.8
9 2 -6 3.1 2.9
9 2 -6 7 3.2
-9 -2 6 2.9 2.7
-9 -2 6 9.6 3
9 2 6 10.8 2.3
9 -2 -6 2 3.7
-9 2 -6 5.5 2.9
9 2 6 3.4 3.6
-9 2 -6 5 3.3
10 2 -6 11.8 3.5
10 2 -6 10.7 4.1
10 2 -6 16.1 3.7
-10 2 6 19 3.9
10 -2 6 15.9 4.3
10 -2 6 20.1 3.5
-10 -2 -6 13 3.8
10 2 6 17.5 2.7
10 -2 -6 16 4.8
-10 -2 6 12 3.5
10 2 6 11.6 4
-10 2 -6 16 4
0 3 6 0.8 1.5
0 -3 6 -0.6 1.4
0 3 -6 0.1 1.9
0 3 6 -3.8 1.1
0 -3 -6 -5.4 2.1
0 -3 6 1.5 1.4
0 3 -6 -4.1 1.3
0 3 6 -1.1 1.1
0 3 6 1.1 1.2
0 -3 -6 -1.1 1.1
0 3 6 -1.6 1.6
0 -3 6 -1.7 1.6
0 3 -6 -1.1 1.7
0 3 -6 -1.8 1.9
-1 -3 -6 78.29 5.4
1 3 -6 71.89 4
-1 3 6 77.89 4.5
1 3 -6 74.89 4.8
1 3 -6 72.59 4.4
1 -3 6 79.49 4
-1 3 6 75.09 3.8
1 -3 6 82.99 4.3
-1 3 6 84.19 3.9
-1 3 6 90.19 4.5
-1 -3 -6 79.29 4
1 -3 6 78.69 4.3
-1 3 -6 76.19 4.1
-1 -3 6 79.39 4.2
1 3 6 95.59 4.5
1 3 6 72.29 3.6
1 -3 -6 69.49 3.5
1 3 6 76.99 3.5
-1 3 -6 67.09 4.5
1 3 6 86.09 3.6
-1 -3 6 83.19 4.4
-1 3 -6 83.89 4.5
1 3 6 82.49 4.2
-1 -3 6 88.79 4.1
-1 3 -6 76.99 4.8
1 -3 -6 74.69 5.2
2 -3 6 13.7 1.7
-2 3 6 13 1.8
-2 3 6 13.9 1.9
-2 -3 -6 13 2.8
2 3 -6 10.6 2.2
2 -3 6 15.7 2.2
2 3 -6 14.4 2.2
-2 3 6 13.7 2.1
-2 -3 -6 9.9 1.9
-2 3 6 13.4 2.2
2 -3 6 15.3 2.2
2 -3 6 12.6 2.1
2 3 -6 14.5 2
2 3 -6 13.9 2.3
2 3 6 13.1 2.1
-2 3 -6 12.7 2.4
2 -3 -6 9.3 2.6
-2 3 -6 13.6 1.9
-2 -3 6 13.9 1.6
-2 -3 6 13.8 2
2 3 6 14 1.9
-2 3 -6 10.1 2
-2 -3 6 13.8 2.1
3 3 -6 339.27 12.7
3 3 -6 318.87 12.7
3 -3 6 328.87 11.9
3 3 -6 318.77 12.4
3 -3 6 323.47 12.5
3 -3 6 326.87 12.6
-3 3 6 325.87 12.5
-3 3 6 341.47 12.3
-3 -3 -6 331.57 12
-3 3 6 332.17 12.3
3 -3 6 326.67 12.4
-3 -3 -6 317.57 12.4
-3 3 -6 327.37 12.3
3 3 6 318.47 12.4
3 3 6 320.07 12.9
-3 -3 6 318.17 11.7
3 3 6 350.06 12.1
-3 3 -6 329.97 12.8
-3 -3 6 333.67 12.8
3 -3 -6 321.17 13.2
-3 3 -6 339.87 13.4
-3 -3 6 334.87 12.4
-3 -3 6 313.87 12.4
-4 3 6 541.85 19.2
4 -3 6 507.35 19.3
4 -3 6 545.05 19.2
4 3 -6 552.04 19.5
4 -3 6 499.55 19.2
4 3 -6 523.05 19.1
-4 -3 -6 531.85 18.9
-4 3 6 503.35 19.3
-4 3 6 546.55 19.2
-4 -3 -6 537.45 19.3
4 3 -6 543.05 19.6
4 3 6 540.25 18.7
4 -3 -6 521.35 19.2
-4 3 -6 537.35 19.2
4 3 6 520.05 19.1
4 3 6 519.35 19.7
-4 3 -6 504.55 19.4
-4 -3 6 524.55 19.2
4 -3 -6 497.45 19.9
-4 -3 6 537.45 19.3
-5 -3 -6 134.09 6.2
5 3 -6 141.79 7.2
-5 -3 -6 135.89 7
5 -3 6 132.69 6.8
-5 3 6 126.49 6.7
5 3 -6 124.89 6.9
5 -3 6 145.89 6.8
-5 3 6 121.49 6.6
5 3 -6 135.99 6.7
5 -3 6 140.39 7.1
-5 3 6 141.29 6.8
-5 -3 6 126.29 6.5
5 3 6 134.39 7.2
5 3 6 136.59 6.3
-5 3 -6 136.99 6.6
5 -3 -6 130.89 6.4
5 -3 -6 120.89 7.5
-5 -3 6 133.69 6.7
-5 3 -6 134.59 7.1
-6 -3 -6 434.26 16.5
-6 3 6 428.06 16.3
-6 3 6 428.16 16.2
6 3 -6 443.46 16.1
6 -3 6 464.85 16.8
-6 3 6 417.56 16.4
6 3 -6 432.16 16.5
-6 -3 -6 426.86 16.1
6 3 -6 423.56 16.7
6 -3 6 397.76 16.1
6 -3 -6 425.36 17.2
-6 -3 6 406.56 16.3
6 3 6 400.96 15.8
6 3 6 433.46 16.9
-6 3 -6 425.86 16.4
-6 3 -6 413.86 16.6
-6 -3 6 432.46 16.3
6 -3 -6 439.36 16
7 3 -6 8.3 2.7
7 3 -6 6.8 3.2
-7 3 6 7.7 2.7
7 -3 6 9.7 3.2
7 3 -6 10.7 3.1
-7 -3 -6 10.2 3.1
7 -3 6 11.7 2.7
-7 3 6 7.4 2.5
-7 -3 -6 12.7 2.6
-7 3 -6 12.2 3
7 3 6 4.9 3
-7 -3 6 12.1 2.7
7 3 6 11.9 2.3
-7 -3 6 6.8 2.6
-7 3 -6 11.5 3.2
7 -3 -6 9.9 3.8
8 -3 6 -2.6 2.1
8 3 -6 -0.6 2.8
-8 3 6 2.2 2.4
-8 -3 -6 5.6 3.1
8 3 -6 2.3 3.2
8 -3 6 -1 3
8 3 -6 -1.4 2.4
-8 3 6 2.6 2.6
-8 -3 6 -3.3 2.4
-8 3 -6 3.7 2.8
8 3 6 3.4 3
-8 3 -6 2.6 3.1
8 -3 -6 1.6 3.6
-8 -3 6 3.1 2.5
-9 -3 -6 8.8 3.5
9 -3 6 10.6 3.2
9 3 -6 16.8 3.6
9 -3 6 12.4 3.8
9 -3 6 5.7 2.8
9 3 -6 4.9 2.9
-9 3 6 8.9 3.2
9 3 -6 6.7 3.5
9 3 6 8.5 3.5
-9 -3 6 12 3
-9 -3 6 9.3 3.1
-9 3 -6 7.4 3.3
-9 3 -6 8.8 3.5
9 -3 -6 5.8 4
10 3 -6 131.29 9
10 3 -6 153.88 8.7
-10 3 6 135.39 8.6
10 -3 6 119.39 7.7
10 3 -6 139.49 7.9
10 -3 6 145.79 9.4
-10 3 -6 141.19 8.8
10 -3 -6 121.39 10.7
10 3 6 138.29 9.3
-10 -3 6 135.19 8.5
0 -4 6 28.4 2.8
0 4 -6 26.4 3
0 -4 6 30.2 2.6
0 -4 -6 21.4 3.4
0 4 -6 29.5 2.8
0 -4 6 24 2.4
0 4 -6 20.2 2.6
0 4 6 31.5 2.4
0 4 6 31 2.1
0 4 -6 25.8 2.6
0 4 6 24.8 2.2
0 4 6 26.2 2.7
0 4 6 27.6 2.7
1 4 -6 47.8 3.8
-1 4 6 38.4 3.2
-1 -4 -6 40.5 3.9
-1 -4 -6 45.8 3.1
1 -4 6 42.6 3.2
1 -4 6 35.8 3.1
1 4 -6 33.8 3.3
-1 4 6 39.8 3.2
1 4 -6 40.5 3.6
1 -4 6 41.2 3.1
1 4 -6 41.6 3.6
-1 4 6 39.7 3.2
-1 4 6 47.7 3.1
-1 -4 6 44.5 3.6
-1 -4 6 43.6 3.2
-1 -4 6 40.5 3.2
-1 4 -6 45.5 3.7
1 -4 -6 41.9 3.9
1 4 6 40 3.2
-1 4 -6 40.9 3.2
1 4 6 46.2 3.4
1 4 6 42.7 3.1
-1 4 -6 40.8 3.3
-1 4 -6 40.3 3.2
2 4 -6 22.5 2.5
2 -4 6 23.7 2.7
-2 4 6 27.9 2.5
2 4 -6 17.6 2.5
2 -4 6 24 2.3
2 4 -6 20.2 2.8
-2 4 6 28.3 2.9
-2 -4 -6 25.5 2.4
2 4 -6 28.3 2.7
-2 4 6 29.2 2.5
2 -4 6 22.7 2.6
-2 -4 -6 28.6 3.6
-2 -4 6 23.3 2.1
2 4 6 23.3 2.2
-2 -4 6 25.3 2.7
2 4 6 23.3 2.4
2 -4 -6 24.7 3.4
-2 4 -6 20.6 2.7
-2 4 -6 22.3 2.5
2 4 6 25 2.6
-2 4 -6 21.5 3
-3 4 6 28.8 2.7
3 4 -6 24.9 2.8
3 -4 6 23.9 2.7
-3 4 6 26.2 2.9
-3 4 6 27.5 2.7
3 4 -6 23.7 2.7
3 4 -6 22.9 2.8
3 4 -6 22 3.1
3 -4 6 28.7 2.9
3 -4 6 25.5 2.3
-3 -4 -6 23.9 2.7
3 -4 6 22.1 2.9
3 4 6 19.6 2.9
3 -4 -6 27.2 2.9
-3 4 -6 19.6 2.9
-3 4 -6 27.7 3
3 -4 -6 24.2 3.5
-3 4 -6 29.6 2.9
-3 -4 6 32.2 3
3 4 6 23.5 2.6
3 4 6 31.1 2.6
-4 -4 -6 79.09 5.1
4 4 -6 72.69 4.7
4 4 -6 62.69 5.1
4 -4 6 63.79 4.8
-4 4 6 67.39 4.6
4 -4 6 62.89 4.7
-4 -4 -6 69.79 4.2
4 4 -6 61.29 4.9
4 -4 6 67.89 4.8
-4 4 6 63.09 4.8
-4 4 6 71.29 4.7
4 4 6 62.29 5.3
4 -4 -6 72.09 5
4 4 6 75.49 4.6
-4 4 -6 70.09 4.8
4 -4 -6 59.29 5.8
-4 -4 6 69.29 4.7
-4 4 -6 64.79 5.2
4 4 6 71.99 4
-4 -4 6 70.19 4.7
5 -4 6 76.69 5.4
-5 4 6 72.69 5.1
5 4 -6 73.49 5
5 -4 6 69.89 5.2
-5 4 6 72.29 5.3
5 4 -6 74.29 5.3
5 4 -6 73.89 5.6
-5 -4 -6 84.49 5.7
-5 4 6 77.69 5.2
-5 -4 -6 77.49 4.7
5 4 6 74.99 4.7
5 -4 -6 70.39 5.1
5 -4 -6 76.79 6.5
-5 -4 6 81.89 5.2
-5 -4 6 78.29 5.1
5 4 6 67.69 5.4
-5 4 -6 76.59 5.7
-5 4 -6 76.29 5.3
-6 4 6 150.68 7.6
-6 -4 -6 147.49 7.2
-6 -4 -6 141.99 7.8
6 -4 6 147.19 7.5
-6 4 6 143.59 7.5
6 -4 6 149.29 7.7
-6 4 6 145.79 7.3
6 4 -6 133.79 7.6
6 -4 6 147.89 7.6
6 4 -6 146.59 8
6 4 -6 139.39 7.1
-6 -4 6 146.99 7.2
6 4 6 145.29 6.8
6 -4 -6 154.58 7.4
-6 -4 6 149.09 7.6
6 4 6 143.69 7.7
6 -4 -6 154.08 8.7
-6 4 -6 144.49 7.7
-6 4 -6 145.99 7.6
-7 -4 -6 39.4 4.9
7 4 -6 41.5 3.8
7 -4 6 49.1 4.6
-7 4 6 45.9 4.1
7 -4 6 42 4
7 4 -6 38.1 4.3
-7 4 6 41.2 4.1
-7 -4 -6 48.6 4.5
7 4 -6 41.9 4.5
7 -4 -6 49.9 4.3
-7 4 -6 41.5 4.4
7 -4 -6 34.4 4.8
-7 -4 6 41.8 4.1
-7 -4 6 52.29 4.2
-7 4 -6 41 4.2
7 4 6 39.5 4.3
8 4 -6 53.39 4.4
8 4 -6 44.8 4.6
8 4 -6 41.5 4.6
-8 4 6 36.3 4
8 -4 6 50.39 4.4
-8 -4 -6 40.9 4.5
-8 4 6 38.4 4.4
8 -4 6 46.8 4.8
-8 4 -6 46.7 4.8
-8 -4 6 50.79 4.4
-8 4 -6 45.3 4.9
8 -4 -6 44.1 5.6
-8 -4 6 43 4.3
8 4 6 42 4.8
9 -4 6 9.4 3.6
-9 -4 -6 9.2 3.6
9 -4 6 10.8 3
-9 4 6 12.8 3.4
9 4 -6 6.7 3.5
9 4 -6 17.9 3.8
9 4 -6 11.1 3.1
-9 -4 6 13.9 3.4
9 -4 -6 7.5 4.2
9 4 6 14.8 3.7
-9 4 -6 11.4 3.7
-9 -4 6 11.9 3.2
-9 4 -6 13.1 3.6
10 4 -6 33 4.9
10 -4 6 35.4 5
10 -4 6 32.4 4.1
0 5 -6 -0.6 2
0 -5 6 3.2 1.9
0 -5 -6 -2.1 2.7
0 5 -6 -3.6 2.1
0 5 6 0.9 1.3
0 5 -6 0 2.3
0 5 6 -0.8 1.6
0 5 6 0.8 1.9
0 -5 6 2 1.8
0 5 6 -0.3 2.1
1 5 -6 332.87 13
-1 -5 -6 317.27 12.2
-1 5 6 324.47 12.3
1 -5 6 327.37 12.7
1 -5 6 316.77 12.7
1 5 -6 345.97 13
1 5 -6 332.27 13.3
-1 -5 -6 360.06 13.6
-1 5 6 340.47 13
-1 5 6 341.77 12.7
1 5 6 345.17 12.9
1 -5 -6 347.67 13.5
-1 5 -6 351.56 13
1 5 6 350.06 12.7
-1 5 -6 350.86 13.1
-1 -5 6 316.07 12.8
-1 5 -6 332.97 13.3
1 5 6 301.27 12.8
-1 -5 6 334.77 12.5
-2 -5 -6 2.2 1.8
-2 5 6 2.4 1.9
-2 5 6 3.2 2.2
2 5 -6 2.7 2.2
-2 -5 -6 2 2.8
2 -5 6 1.3 2
2 -5 6 2.8 2.2
2 -5 6 2 1.8
-2 5 6 2.8 1.8
2 5 -6 -0.4 2.4
2 5 -6 1.2 2.1
2 5 6 3.2 2.1
-2 5 -6 -0.6 2.1
2 5 6 3 1.9
2 -5 -6 3.6 2.2
2 -5 -6 -3.3 2.7
-2 5 -6 2 2.5
2 5 6 -1.6 1.6
-2 -5 6 2.9 1.6
-2 5 -6 -2.4 2.1
-2 -5 6 2.9 2
3 5 -6 50.79 4.6
3 -5 6 41.9 3.7
3 5 -6 48.7 3.7
-3 5 6 52.39 3.8
-3 5 6 54.79 4.3
3 -5 6 54.19 4
3 -5 6 57.09 3.8
-3 5 6 49.9 4.2
3 5 -6 50.99 4.2
-3 -5 -6 57.59 4.2
-3 5 -6 53.09 4.2
3 -5 -6 43.9 3.9
-3 5 -6 51.69 4.2
3 -5 -6 46.6 4.6
3 5 6 59.39 4.1
-3 -5 6 55.79 4.3
3 5 6 50.39 4.2
-3 5 -6 52.49 4.6
3 5 6 50.39 3.8
-4 5 6 0.7 2.3
4 5 -6 -0.3 2.5
-4 5 6 2.8 2.2
-4 -5 -6 2.2 1.8
4 -5 6 0.9 2.3
4 5 -6 -1.6 2.1
4 -5 6 4.4 2.6
-4 5 6 1.1 2.1
-4 -5 -6 2.8 2.3
4 -5 -6 -3.9 2.8
4 5 6 4.3 1.9
-4 5 -6 -0.9 2.3
4 5 6 1.5 2
-4 -5 6 0.2 2.1
4 5 6 1.7 2.4
-4 5 -6 3.4 2.6
4 -5 -6 5.8 2.5
5 5 -6 1.2 2.8
-5 5 6 -1.9 2.2
-5 -5 -6 -1.2 2.5
-5 5 6 -0.9 2.3
-5 5 6 0.1 2.3
5 -5 6 3.3 2.5
5 5 -6 3.3 2.3
5 -5 6 2.6 2.6
-5 -5 -6 2 1.9
-5 -5 6 2 2.3
-5 5 -6 2.8 2.4
5 5 6 4.2 2
5 -5 -6 4.8 2.7
5 5 6 6.5 2.7
-5 -5 6 2.9 2.1
-5 5 -6 1.5 2.6
5 -5 -6 -1.8 3
-6 -5 -6 0.5 2.8
-6 -5 -6 0.3 2.1
-6 5 6 3.3 2.7
6 -5 6 7.7 3.1
6 5 -6 2.8 2.3
6 5 -6 3.6 2.9
6 -5 6 3.1 2.6
-6 5 6 9.8 2.8
-6 5 6 2.2 2.5
6 -5 -6 1.7 2.7
-6 5 -6 2.8 2.8
-6 5 -6 -1.4 2.4
6 5 6 5.6 2.1
-6 -5 6 3.4 2.5
6 -5 -6 5.4 3.4
-6 -5 6 4.9 2.6
6 5 6 2.1 2.6
7 -5 6 3.6 2.8
-7 5 6 3.7 2.8
-7 -5 -6 4.8 3.1
7 5 -6 0.6 3
7 5 -6 -1.4 2.3
-7 5 6 4.8 3
-7 5 6 4.7 2.8
7 5 6 4 2.6
-7 5 -6 -0.1 2.8
-7 5 -6 1.7 2.9
7 -5 -6 5.3 3.8
7 -5 -6 1 2.6
-7 -5 6 1.8 2.5
-7 -5 6 1.1 2.6
-8 -5 -6 3.8 3.3
-8 5 6 -0.8 2.5
8 5 -6 -0.7 2.5
8 -5 6 -2.4 2.6
-8 5 6 -2.6 2.7
8 5 -6 2.2 3
-8 5 -6 0.3 3
8 5 6 5.4 3.1
-8 -5 6 0.2 2.6
-8 -5 6 3 2.6
-8 5 -6 2.5 3
8 -5 -6 -5.7 3.6
9 -5 6 56.39 5
-9 -5 -6 40.3 5
9 5 -6 49.3 4.5
9 5 -6 50.19 5.3
-9 5 6 47.4 5.1
-9 5 -6 40 5
9 -5 -6 43.3 5.9
-9 -5 6 49.4 4.8
9 5 6 48.2 5.3
-9 5 -6 44.4 5.2
-9 -5 6 41.1 4.8
0 -6 6 8.2 2.3
0 6 -6 7.5 2.4
0 6 -6 0.8 2.4
0 -6 -6 4.1 2.4
0 6 -6 1.8 2.7
0 6 6 5.4 2.2
0 -6 -6 -1.5 2.9
0 6 6 2.8 2.1
0 -6 6 5.8 2.1
1 -6 6 124.39 6.5
1 6 -6 134.39 7.2
1 -6 6 148.29 6.8
-1 6 6 126.19 6.6
1 6 -6 144.19 7.2
-1 6 6 141.09 5.9
-1 -6 -6 135.89 7.5
-1 6 6 143.59 7
1 6 -6 135.49 6.9
-1 6 -6 137.79 6.9
-1 6 -6 130.19 7.2
1 -6 -6 130.79 7
1 6 6 127.99 6.6
1 6 6 136.59 6.9
1 6 6 132.69 6.5
-1 -6 6 129.49 6.2
-1 6 -6 145.29 7.3
-1 -6 6 144.49 6.9
1 -6 -6 129.49 7.4
2 -6 6 0.8 2.3
2 6 -6 -3.2 2.2
2 -6 6 0.3 2
2 6 -6 -0.3 2.6
2 6 -6 2.5 2.4
-2 6 6 0.3 1.7
-2 -6 -6 2.8 2.9
-2 6 6 1.5 2.3
-2 6 6 -0.3 2
2 -6 -6 -0.7 2.8
2 6 6 -0.9 1.9
2 6 6 0.9 2
2 6 6 -0.6 2.1
2 -6 -6 2 2.5
-2 6 -6 -3.6 2.3
-2 6 -6 -2.1 2.4
-2 -6 6 1.4 2.1
-2 -6 6 1.7 2.4
-2 6 -6 0.9 2.4
-3 6 6 163.38 7.5
3 6 -6 183.48 7.8
-3 -6 -6 174.68 8.5
3 -6 6 158.38 7.9
3 6 -6 158.38 8.2
-3 6 6 168.38 8
3 6 -6 167.28 8.3
3 -6 6 165.18 7.4
-3 6 6 168.88 7.9
-3 -6 -6 172.18 7.5
-3 6 -6 167.18 8.3
-3 6 -6 170.18 8.1
3 -6 -6 151.08 8.1
-3 -6 6 170.28 8
3 6 6 170.18 7.7
-3 6 -6 160.98 8.2
3 6 6 169.88 7.5
3 6 6 164.58 7.7
3 -6 -6 164.98 8.8
-4 -6 -6 86.39 5.4
-4 6 6 85.39 5.8
4 6 -6 90.89 5.5
4 -6 6 97.29 6.1
-4 6 6 84.99 5.5
4 6 -6 72.89 5.7
-4 6 6 73.39 5.5
4 6 -6 72.49 6
-4 6 -6 75.59 6
4 6 6 84.29 5.1
-4 6 -6 84.29 5.9
4 -6 -6 92.29 6.2
4 6 6 83.89 5
-4 -6 6 74.99 5.5
4 -6 -6 84.99 6.6
-5 6 6 72.89 5.8
-5 6 6 68.19 5.5
-5 -6 -6 73.09 5.3
-5 -6 -6 76.39 5.5
5 -6 6 70.99 5.9
5 6 -6 72.89 5.3
5 6 -6 71.49 6.1
-5 6 6 80.59 5.7
-5 6 -6 74.59 6.1
5 6 6 78.99 5
5 -6 -6 83.89 6.8
-5 -6 6 70.99 5.5
-5 -6 6 78.19 5.5
5 6 6 76.99 5.8
5 -6 -6 76.59 6
-5 6 -6 67.59 5.4
6 6 -6 -3.6 2.7
-6 6 6 5.4 2.7
-6 6 6 1.4 2.6
6 -6 6 -1.7 2.6
-6 6 6 3.7 2.7
6 6 -6 -0.4 2.3
-6 -6 -6 3.4 2.8
-6 6 -6 1.1 2.7
-6 6 -6 1.6 2.8
-6 -6 6 2.8 2.5
6 6 6 4 2.7
6 -6 -6 4.8 3
6 -6 -6 -0.4 3.3
-6 -6 6 1 2.5
7 6 -6 20.3 3.1
-7 6 6 19.9 3.6
-7 -6 -6 20.9 3.9
7 6 -6 16.9 3.8
-7 6 6 20.1 3.6
7 -6 6 21.5 3.6
-7 6 6 22.4 3.6
-7 6 -6 14 3.5
-7 6 -6 18.7 3.8
7 6 6 18.1 3.6
-7 -6 6 22.6 3.7
7 -6 -6 21 4.6
-7 -6 6 26.1 3.6
7 -6 -6 18.9 3.6
8 6 -6 14.8 3.7
8 -6 6 9.3 3.4
-8 -6 -6 10 3.8
-8 6 6 9.8 3.4
-8 6 6 15.7 3.7
8 6 -6 18.2 3.3
-8 6 -6 11 3.7
-8 6 -6 14.9 3.8
-8 -6 6 16.6 3.7
8 6 6 11.5 3.3
-8 -6 6 17.3 3.4
8 -6 -6 14.5 4.4
0 7 -6 -3.3 2.4
0 -7 6 -0.8 2.3
0 7 6 -1.3 2.2
0 7 -6 1.5 2.8
0 7 6 -1.2 2.1
0 7 -6 -7.5 2.5
0 -7 -6 -1.3 2.4
0 -7 -6 -7.9 2.7
0 -7 6 -2.1 2.1
1 -7 6 108.49 6.2
-1 7 6 105.49 6
-1 -7 -6 104.29 6.3
-1 -7 -6 99.59 6.7
1 7 -6 95.99 6.7
1 -7 6 112.59 6.2
-1 7 6 97.29 4.9
1 7 -6 110.89 6.3
1 7 -6 89.29 6.6
-1 7 6 90.99 5.9
1 -7 -6 112.19 6.6
1 7 6 98.69 5.9
1 -7 -6 104.79 6.6
-1 -7 6 115.19 6.4
-1 7 -6 105.19 6.7
1 7 6 89.49 5.9
-1 7 -6 90.99 6.6
-1 7 -6 112.09 6.3
-1 -7 6 101.39 5.5
2 7 -6 314.27 13.4
2 -7 6 312.57 12.7
-2 7 6 312.27 12.9
-2 7 6 322.47 12.2
2 7 -6 317.67 12.7
2 7 -6 299.57 13.2
-2 7 6 301.67 12.9
-2 -7 -6 336.57 13
2 -7 6 330.57 13
-2 -7 -6 326.47 13.3
-2 -7 6 319.27 13.1
2 -7 -6 328.07 13.3
-2 7 -6 334.37 13
2 7 6 320.27 12.8
2 7 6 306.17 12.8
-2 7 -6 308.27 13.2
2 -7 -6 319.47 13.4
-2 7 -6 335.97 13.5
3 -7 6 2.4 2.7
-3 -7 -6 -2.3 2.8
-3 7 6 0.6 2.2
3 -7 6 0.9 2.1
3 7 -6 -0.1 2.6
3 7 -6 1.4 2.4
-3 7 6 2.2 2.6
-3 7 6 2.9 2.1
3 7 -6 1.8 2.7
-3 7 -6 0.5 2.7
-3 7 -6 -0.2 2.7
3 7 6 2 2.3
3 -7 -6 2.2 2.8
3 7 6 1.9 2.1
3 -7 -6 -7.1 2.7
-3 7 -6 1.7 2.6
-3 -7 6 3 2.5
-4 -7 -6 62.49 5.9
-4 7 6 57.99 5.5
4 7 -6 65.79 5.9
4 -7 6 58.69 4.9
-4 7 6 65.49 5.1
4 7 -6 70.39 5.1
4 7 -6 47.3 4.8
-4 7 6 59.69 4.9
4 -7 -6 71.39 5.4
-4 7 -6 63.29 5.6
4 -7 -6 63.69 5.6
4 7 6 57.79 4.6
4 7 6 51.39 4.7
-4 7 -6 73.59 6.1
4 7 6 61.59 4.9
-4 -7 6 61.09 4.9
-5 -7 -6 37.8 4
-5 7 6 30.3 3.9
5 7 -6 40.6 4.3
5 -7 6 30.9 4
5 7 -6 32.1 3.5
-5 7 6 28.9 3.8
-5 7 6 34.2 3.8
5 -7 -6 32.1 4.7
-5 7 -6 38.3 4.2
-5 -7 6 33 4.1
-5 7 -6 27.4 4.2
5 -7 -6 31.9 4.3
5 7 6 30.9 3.4
6 7 -6 -1.1 2.4
-6 7 6 -0.6 2.7
-6 -7 -6 8.2 3
-6 7 6 3.5 2.9
-6 7 6 7.5 2.9
6 -7 6 7 3.3
6 7 -6 -0.8 2.9
-6 -7 6 3.6 2.8
6 -7 -6 1.8 3.1
6 -7 -6 3.4 3.6
6 7 6 3.2 2.8
-6 7 -6 -0.4 2.9
-6 7 -6 0.5 3
-6 -7 6 8.3 2.9
7 7 -6 5.9 2.7
-7 -7 -6 7.2 3.3
-7 7 6 7 3.4
-7 7 6 8.4 3.3
-7 7 6 13.3 3.3
7 7 -6 13 3.7
7 -7 6 10.5 3.5
-7 7 -6 4.6 3.4
-7 7 -6 8.2 3.8
7 7 6 9.3 3.3
7 -7 -6 8.3 4.1
7 -7 -6 6.8 3.4
-7 -7 6 7 3.1
-7 -7 6 9.4 3.3
-8 7 6 9.9 3.7
-8 -7 -6 9.2 3.8
-8 -7 6 12.3 3.6
-8 7 -6 12.1 4
-8 -7 6 11.8 3.3
8 -7 -6 15.2 3.8
8 -7 -6 5.2 4.3
8 7 6 8.7 3.5
0 8 -6 19.5 3.3
0 8 -6 23.4 3.7
0 8 -6 19.2 3.8
0 -8 6 21.9 3.2
0 -8 -6 26.3 3.6
0 -8 6 24.3 3.5
0 8 6 16.7 3.1
0 8 6 19.4 3.3
-1 -8 -6 2.7 2.8
1 8 -6 -4.3 2.7
1 8 -6 5.3 2.6
1 8 -6 -2.1 2.8
-1 8 6 1.4 2.6
1 -8 6 0.6 2.5
-1 8 6 -0.9 2.2
1 -8 6 0.5 2.5
-1 8 -6 -1.9 2.7
1 8 6 4.1 2.5
-1 8 -6 -4.1 2.3
-1 -8 6 -0.2 2.6
1 8 6 -3.5 2.2
1 -8 -6 -0.2 2.8
-1 8 -6 -2.7 2.9
2 -8 6 2.7 2.8
-2 8 6 2.6 2.7
2 8 -6 2.1 2.9
2 8 -6 6.5 3.1
2 8 -6 0.3 2.6
2 -8 6 4.6 2.7
-2 -8 -6 1.4 2.7
-2 8 6 1.4 2
-2 8 6 0.3 2.4
-2 8 -6 3.4 3
2 8 6 3.1 2.3
-2 8 -6 4.3 3.1
-2 -8 6 4.3 2.8
-2 8 -6 4 2.7
2 8 6 5.5 2.6
2 -8 -6 3.4 3.1
3 -8 6 -0.2 2.4
3 -8 6 -1.4 2.8
3 8 -6 0.2 2.9
3 8 -6 -0.5 2.4
-3 8 6 -0.2 2.2
3 8 -6 -1.3 2.8
-3 8 6 -0.9 2.1
-3 -8 -6 -5 2.5
-3 8 6 -0.3 2.5
-3 8 -6 1.4 3
-3 8 -6 -0.3 2.8
-3 -8 6 0.4 2.7
-3 8 -6 3.8 3
3 8 6 -1.2 2.5
3 -8 -6 2.1 3.2
3 8 6 2.6 2.3
4 8 -6 14.1 3.6
-4 -8 -6 17.9 3.3
4 8 -6 22.4 3.9
-4 8 6 20.2 3.1
4 8 -6 20.7 3.2
4 -8 6 21.4 3.7
-4 8 6 19.6 3.4
-4 8 6 19.2 3.4
4 -8 -6 18.9 4
-4 8 -6 20.8 3.9
4 8 6 20 3.1
-4 -8 6 33.9 4.1
-4 8 -6 24.8 3.8
-5 8 6 -0.2 2.9
-5 8 6 3.4 2.9
5 8 -6 -3.7 2.3
-5 8 6 4.4 2.7
5 8 -6 -6.9 2.7
5 -8 6 -0.1 3
5 -8 -6 -0.3 3.4
-5 -8 6 0.1 2.8
-5 8 -6 -0.5 3
-5 8 -6 2.4 3
6 8 -6 10.2 2.8
6 -8 6 3.8 3.5
-6 8 6 4.8 2.8
-6 8 6 -2.7 2.7
-6 8 6 6.2 3.3
6 8 -6 3.1 3.2
-6 -8 6 9.2 3.2
-6 -8 6 10 3.3
-6 8 -6 3.3 3.4
6 -8 -6 3.1 3.6
-7 8 6 -6.1 2.8
-7 -8 -6 2.9 3
-7 8 6 1.1 2.9
-7 8 6 1 3
7 -8 -6 3.2 3.5
-7 -8 6 1.4 3
-7 -8 6 -2.6 3
-7 8 -6 1.1 3.5
0 9 -6 0.2 2.6
0 9 -6 -1.1 2.9
0 -9 -6 0 3
0 9 6 0.7 2.5
0 9 6 -1.5 2.3
0 -9 6 4 2.8
0 9 -6 -5.5 3
0 -9 6 2.1 2.9
1 9 -6 10.6 3
1 -9 6 14.2 3.4
-1 -9 -6 15 3.6
-1 9 6 9.8 3
1 9 -6 12.3 3.7
1 9 -6 7.4 3.3
1 -9 6 14.4 3.4
-1 9 6 11.3 3
1 9 6 13.1 3
1 9 6 17.3 3.3
-1 9 -6 13.2 3.5
-1 9 -6 15 3.6
-1 -9 6 16.8 3.6
1 -9 -6 11.9 3.6
-1 9 -6 8.6 3.2
-2 9 6 17.3 3.3
-2 9 6 12 3.3
2 9 -6 16.7 3.7
2 -9 6 20.3 3.8
2 9 -6 15.2 3.8
2 -9 6 23 3.7
-2 -9 -6 17.9 3.6
2 9 -6 18.1 3.2
-2 9 6 20.3 2.6
2 9 6 16 3.1
-2 -9 6 13.9 3.6
2 -9 -6 24.2 4.3
-2 9 -6 24.1 3.7
-2 9 -6 14.6 3.7
-2 9 -6 21.1 3.8
3 9 -6 -1.6 2.4
3 -9 6 4 3.3
3 9 -6 -0.8 3.1
3 9 -6 -0.5 3.1
-3 9 6 -0.9 2.7
-3 9 6 0.8 2.1
-3 9 6 4 2.8
-3 -9 -6 4.8 3
-3 -9 6 0.6 3
3 9 6 -1.4 2.4
3 -9 -6 0.7 3.4
-3 9 -6 2.7 3.1
-3 9 -6 0.7 3.1
-3 9 -6 -1 2.8
4 9 -6 14.7 3.8
4 9 -6 16.8 3.1
4 -9 6 20.6 4
-4 9 6 10.1 3.3
-4 9 6 14.9 3.4
4 9 -6 11.7 3.8
-4 9 6 21.7 3.2
-4 -9 -6 8.6 3.3
-4 9 -6 18.5 4.1
4 -9 -6 21.3 4.4
-4 -9 6 17.8 3.8
5 9 -6 42.8 4
-5 9 6 43.7 4.9
-5 9 6 44.2 4.2
-5 9 6 33 4.4
5 -9 6 37.9 4.8
5 9 -6 30 4.6
5 -9 -6 55.79 5.5
-5 9 -6 39.9 5.1
-5 -9 6 51.49 5.3
-6 9 6 10.6 3.4
-6 9 6 2.8 3.2
-6 9 6 3.7 3.2
-6 -9 6 2.9 5.1
-6 9 -6 5.8 3.7
0 -10 6 23.3 4
0 10 -6 23.7 3.7
0 -10 -6 30.6 4.6
0 10 6 22.9 3.8
0 10 -6 29.4 4.7
0 10 -6 17.8 3.8
-1 -10 -6 10.1 3.6
-1 10 6 3.2 3.1
-1 10 6 6.5 3
1 10 -6 6.4 3.7
1 10 -6 3.2 2.8
1 -10 6 -2 3.1
1 -10 6 5.1 3.3
1 10 -6 5.9 3.3
-1 10 -6 0.8 3.3
1 -10 -6 0.9 3.6
-1 -10 6 8.3 3.5
-1 10 -6 6 3.3
-1 10 -6 3.4 3
1 10 6 3.5 2.7
2 10 -6 -2.2 2.6
-2 10 6 -0.7 2.7
2 10 -6 -3.2 3
2 -10 6 -0.4 3
-2 -10 -6 7.7 3.4
-2 10 6 1.9 2.8
2 -10 6 2.1 3.3
-2 10 6 2.8 2.1
2 10 -6 1.8 3.4
-2 10 -6 -0.1 3.3
-2 -10 6 2.1 3.3
-2 10 -6 -2.1 2.8
2 10 6 0.1 2.7
2 -10 -6 -0.5 3.7
3 10 -6 11.4 3
3 -10 6 8.8 3.8
-3 -10 -6 3.3 3.3
-3 10 6 12.8 2.6
3 10 -6 9.6 3.8
3 10 -6 5.3 3.3
-3 10 6 6 3.2
-3 10 6 7.7 3.3
-3 10 -6 5.5 3.3
3 10 6 9.6 3.1
-3 -10 6 14.3 4.1
3 -10 -6 7 4.2
-3 10 -6 8.7 3.8
-4 -10 -6 4.5 3.1
4 10 -6 -1.6 3.3
4 10 -6 -1.4 3.4
-4 10 6 -2.2 3
4 -10 6 -3.9 3.6
-4 10 -6 -0.2 3.4
0 0 -7 1.4 1.4
0 0 7 0.6 1.5
0 0 7 -1.8 1.4
0 0 -7 0.9 2.2
0 0 -7 -0.7 1.7
0 0 7 6.5 1.5
-1 0 7 185.58 7.3
1 0 7 174.28 7.2
1 0 -7 180.28 7.4
1 0 7 180.78 7.1
1 0 -7 170.98 7.3
-1 0 7 175.98 7.3
-1 0 -7 183.68 8.2
-1 0 7 193.48 7.4
1 0 7 164.78 7.3
-1 0 -7 182.98 7.6
1 0 -7 178.48 8.2
2 0 -7 1455.95 48.4
2 0 -7 1480.15 49.1
-2 0 7 1376.96 48.2
2 0 7 1345.77 48.4
2 0 7 1393.06 48.1
-2 0 7 1464.45 48.5
-2 0 7 1366.56 47.9
2 0 7 1396.16 48.1
-2 0 -7 1389.06 48.5
-2 0 7 1421.16 48.4
2 0 -7 1362.16 48.3
-3 0 -7 441.06 16.3
-3 0 7 432.46 16.1
3 0 7 418.36 16.6
-3 0 7 453.25 15.8
3 0 7 433.16 16.1
3 0 -7 441.36 16.2
-3 0 7 432.86 16.2
3 0 -7 462.75 17
3 0 7 445.56 15.8
-3 0 7 436.76 15.8
3 0 -7 458.05 16.1
3 0 7 432.36 15.6
-4 0 7 267.47 11.1
4 0 7 300.37 11.8
4 0 -7 288.07 11.2
4 0 7 279.97 10.7
-4 0 -7 287.97 11.4
-4 0 7 283.67 11.1
4 0 7 278.67 11.1
4 0 -7 289.67 11.1
-4 0 7 289.77 10.8
-4 0 7 274.77 10.5
4 0 -7 271.47 11.8
-5 0 7 500.65 19
5 0 7 517.35 19
5 0 7 532.65 18.6
-5 0 7 511.75 19.1
-5 0 7 523.25 18.9
5 0 7 502.95 19.6
5 0 -7 506.45 18.9
5 0 -7 540.15 19.2
5 0 -7 514.95 19.8
-5 0 -7 523.55 19.4
-6 0 7 555.54 20.6
6 0 7 548.65 20.1
-6 0 7 564.84 20.7
6 0 7 573.64 21.4
6 0 7 571.74 20.5
6 0 -7 559.74 21.5
-6 0 -7 542.75 21
6 0 -7 562.14 20.5
-7 0 7 113.49 6.4
7 0 -7 115.09 8
7 0 7 115.19 5.9
-7 0 7 113.99 6.4
7 0 7 112.69 6.2
-7 0 -7 116.19 7.2
7 0 -7 99.39 7.5
7 0 7 115.89 7.4
8 0 -7 5.1 3.6
8 0 7 2.2 3
8 0 7 -0.7 2.2
-8 0 -7 -1.3 3
-8 0 7 2 2.5
-8 0 7 0.6 2.3
8 0 7 2.9 2.4
-9 0 -7 38.3 4.8
9 0 7 53.09 5.6
9 0 7 56.29 4.2
-9 0 7 46.8 4.7
9 0 -7 41.9 5.4
-9 0 7 53.69 4.5
9 0 7 48.5 4.3
10 0 7 78.49 7.2
-10 0 7 67.89 6
10 0 7 72.09 5.2
10 0 -7 54.49 6.5
0 -1 7 -2.2 1.4
0 -1 7 3.5 1.5
0 -1 -7 1.1 1.6
0 1 7 -1.5 1.5
0 -1 7 1 1.7
0 1 -7 -0.7 2.1
0 1 7 0.2 1.5
0 -1 -7 -0.3 2.2
0 1 -7 -1 1.5
0 1 7 1.3 1.4
0 1 -7 2.8 1.9
-1 1 7 5.3 1.6
-1 1 7 1.6 1.6
1 1 -7 -1.2 1.8
-1 -1 -7 2 2.4
1 -1 7 1.9 1.5
-1 1 7 1.4 1.5
1 1 -7 -0.1 1.5
1 -1 7 2.1 1.4
1 -1 7 0.9 1.6
-1 -1 -7 1.7 1.8
1 1 -7 -3.5 2.3
1 1 7 1 1.4
-1 1 -7 0.9 1.9
1 1 7 1.3 1.4
1 1 7 2.3 1.6
-1 -1 7 2 1.5
-1 -1 7 2.2 1.8
1 -1 -7 -0.2 1.6
-1 1 -7 -0.1 2.4
-1 1 -7 -0.4 1.5
-1 -1 7 1.6 0.8
-1 -1 7 2.4 1.5
1 -1 -7 1.3 2.2
-2 -1 -7 63.39 4.1
-2 1 7 63.99 3.9
-2 -1 -7 62.09 4.8
-2 1 7 67.89 4.1
2 -1 7 60.99 4
-2 1 7 67.39 3.2
2 -1 7 60.59 4
2 1 -7 67.49 4.3
2 -1 7 69.49 3.4
-2 1 7 68.79 4
2 1 -7 67.99 5
2 -1 -7 60.19 3.8
2 1 7 65.79 3.5
-2 1 -7 62.49 4.4
2 1 7 67.29 3.6
-2 -1 7 63.79 3.9
-2 -1 7 65.69 4.1
2 1 7 62.99 4.1
2 -1 -7 62.89 5.1
-2 -1 7 68.59 3.7
-3 1 7 46.4 3.5
-3 1 7 45.4 3.4
-3 -1 -7 45.5 3.6
3 1 -7 41 3.9
3 1 -7 46.4 4
-3 1 7 48.9 3.8
3 -1 7 39.2 3.6
3 -1 7 41.8 2.7
3 -1 7 47 3.6
3 1 -7 58.79 4
3 -1 7 35.2 3.1
-3 1 7 42.8 3
3 -1 -7 40.6 3.3
3 1 7 40.4 3.8
-3 -1 7 45.6 3.4
-3 -1 7 46.5 3.6
3 1 7 45.2 3.2
3 1 7 41.8 3.2
-3 -1 7 41.1 3
-3 -1 7 41.9 3
3 1 7 42.6 2.8
-3 1 -7 45.3 4
3 -1 -7 34.6 3.9
4 1 -7 96.49 5.4
4 -1 7 91.69 5.1
4 1 -7 89.79 5.5
-4 1 7 100.79 4.9
4 -1 7 83.69 5.7
-4 -1 -7 100.49 5.8
4 -1 7 107.19 5.3
4 1 -7 95.59 6.1
-4 1 7 95.59 5.4
-4 1 7 104.59 5.4
-4 1 7 100.09 4.9
4 1 7 92.19 5.3
-4 -1 7 96.99 5.3
4 1 7 88.79 5.9
4 -1 -7 85.49 4.9
-4 1 -7 94.19 5.8
-4 -1 7 95.19 4.4
-4 -1 7 89.89 5.2
4 -1 -7 89.09 6.3
-4 -1 7 100.09 4.9
4 1 7 93.89 4.6
-5 -1 -7 156.08 7.6
5 1 -7 161.38 7.5
5 -1 7 153.18 7
5 -1 7 155.18 7.3
5 1 -7 146.79 7.3
5 1 -7 154.28 8.1
5 -1 7 154.68 7.9
-5 1 7 163.68 7.4
-5 1 7 169.48 7.3
-5 1 7 145.69 7
-5 1 -7 159.08 7.8
-5 -1 7 151.78 7
5 -1 -7 141.29 6.6
5 1 7 161.38 7.2
-5 -1 7 155.88 7.3
5 1 7 157.88 7.9
5 1 7 151.38 6.5
5 -1 -7 143.59 6.8
5 -1 -7 155.28 8.3
-6 -1 -7 268.87 11.5
6 -1 7 274.87 11
6 1 -7 270.47 11.2
6 -1 7 245.78 11.6
6 1 -7 243.58 11.8
6 -1 7 275.47 10.7
-6 1 7 270.67 11
-6 1 7 267.47 11
6 1 -7 267.97 11.1
-6 -1 7 283.47 11.1
6 1 7 268.07 10.3
-6 1 -7 265.17 11.5
-6 -1 7 269.57 11
6 1 7 279.57 11.9
6 -1 -7 272.67 12.3
6 1 7 264.17 10.9
7 -1 7 48.3 4
-7 1 7 55.69 4.3
-7 1 7 43.8 4
7 -1 7 52.09 4
7 1 -7 56.39 4.4
7 -1 7 56.99 5.2
7 1 -7 59.09 5.4
-7 -1 -7 41.8 4.5
7 1 -7 54.29 4.5
7 1 7 38.5 4.5
-7 -1 7 56.49 4.4
-7 -1 7 53.19 4.7
-7 1 -7 50.39 4.7
7 -1 -7 43.3 5.2
7 1 7 50.19 3.9
7 1 7 49.5 4
8 1 -7 0.9 3.2
8 1 -7 1.9 3.9
8 -1 7 4.3 3.2
8 -1 7 -1.9 2.4
-8 1 7 1.2 2.5
8 -1 7 0 2.2
8 1 -7 2.7 2.7
-8 1 7 1.9 2.4
-8 -1 -7 0 3.1
-8 1 -7 1.7 3.1
8 -1 -7 0.8 3.4
-8 -1 7 3.2 2.6
8 1 7 2.7 2.2
-8 -1 7 -0.1 2.2
8 1 7 -1.4 2.9
8 1 7 0.6 2
9 -1 7 11.9 3
9 1 -7 4.4 3.7
9 -1 7 5.3 3.6
-9 -1 -7 6.6 3.4
9 -1 7 3.5 2.4
-9 1 7 7.5 2.8
-9 1 7 8 3
9 1 7 8.1 2.5
-9 -1 7 10.9 2.9
9 -1 -7 5.9 3.9
-9 -1 7 8.2 2.9
-9 1 -7 10.5 3.7
9 1 7 3.1 3.4
10 -1 7 32 3.9
10 -1 7 27.2 5
10 1 -7 28.9 5.2
-10 1 7 35.3 4.5
-10 1 -7 22.4 4.6
10 1 7 29.1 7.4
-10 -1 7 24.7 4.1
0 2 7 0.9 1.4
0 -2 7 -0.2 1.5
0 2 7 -1 1.6
0 2 -7 -1.6 1.5
0 2 -7 1 2
0 2 -7 -0.1 1
0 -2 -7 -0.2 1.4
0 -2 7 2.1 1.5
0 2 7 -0.8 1.5
0 2 -7 -5.1 2.2
0 -2 7 -1.5 1.8
0 -2 -7 1.1 2.3
1 2 -7 192.78 8
1 -2 7 185.08 7.6
1 2 -7 187.28 7.7
-1 2 7 175.98 7.5
1 -2 7 191.98 7.3
-1 -2 -7 185.18 8.5
-1 2 7 180.88 7.6
1 2 -7 183.78 8.2
-1 2 7 188.18 7.3
-1 -2 -7 174.48 7.4
1 -2 7 175.48 7.5
1 2 7 190.58 7.4
-1 2 -7 177.38 6.9
1 2 7 179.58 7.5
1 2 7 182.28 7.1
-1 -2 7 188.78 7.3
-1 -2 7 188.68 7.7
-1 2 -7 186.98 8.2
1 2 7 163.98 7.5
1 -2 -7 184.98 8.5
1 -2 -7 178.48 7.2
-1 2 -7 174.58 7.5
-1 2 -7 178.38 8.1
-1 -2 7 176.68 7.5
-2 2 7 53.89 3.1
2 -2 7 53.89 3.9
-2 2 7 61.69 4
-2 2 7 51.19 3.8
2 2 -7 56.19 4.2
2 2 -7 54.79 4.8
-2 -2 -7 55.99 4.8
2 2 -7 59.79 4.1
2 -2 7 54.39 3.9
2 -2 7 57.39 3.3
-2 -2 -7 50.19 4
-2 2 7 50.59 3.6
2 -2 -7 58.29 5.1
2 2 7 58.79 3.4
2 2 7 51.79 2.9
-2 -2 7 54.59 4.1
2 2 7 54.59 3.9
2 2 7 57.09 3.2
-2 -2 7 52.29 3.7
-2 -2 7 50.79 3.3
2 -2 -7 47.2 3.3
-2 2 -7 54.09 3.2
-2 2 -7 51.59 4.3
-2 -2 7 57.59 3.3
3 -2 7 115.29 6
3 -2 7 103.89 5.7
3 2 -7 104.69 5.9
3 2 -7 115.79 5.7
-3 2 7 114.29 5.1
3 2 -7 121.99 6.5
-3 2 7 102.39 5.6
-3 2 7 120.49 5.4
-3 -2 -7 114.69 5.8
-3 2 7 108.39 5.5
3 -2 7 102.99 4.7
3 -2 7 108.39 5.5
-3 -2 7 101.59 4.8
-3 -2 7 115.19 5.1
3 -2 -7 106.79 6.7
3 2 7 101.39 4.7
-3 2 -7 111.99 5
3 2 7 110.49 4.9
-3 -2 7 117.39 5.6
-3 -2 7 99.79 5.6
3 2 7 117.09 5.7
-3 2 -7 108.99 6.1
3 -2 -7 98.89 4.9
3 2 7 109.09 6.3
4 -2 7 1.4 2
-4 2 7 1.8 2
-4 2 7 1.4 2.1
4 -2 7 4.5 2.4
4 2 -7 1.3 2.4
4 2 -7 4.5 2.7
4 2 -7 1.9 2.2
-4 2 7 3.2 1.7
4 -2 7 0 2.1
-4 -2 -7 0.2 2.4
-4 2 -7 3.7 1.7
-4 2 -7 1.6 2.4
4 -2 -7 -0.8 2.9
-4 -2 7 4.1 1.7
4 2 7 1.6 2.5
4 2 7 5.5 2.1
-4 -2 7 -1 1.9
-5 2 7 1.7 2
5 2 -7 10.2 2.8
5 -2 7 -2.4 2
-5 2 7 5.4 2.3
5 2 -7 0.5 2.8
5 -2 7 0.1 2.4
-5 2 7 -1 2.1
-5 -2 -7 3.1 2.7
5 2 -7 2.4 2.2
5 -2 7 1.6 2.2
5 2 7 -0.4 2.4
-5 2 -7 0.1 2.5
-5 -2 7 3.2 2.2
-5 2 -7 1.2 2.2
-5 -2 7 3.8 1.9
5 2 7 -1.2 1.9
5 -2 -7 6.8 3.1
5 -2 -7 -1.5 1.8
-6 2 7 15.5 2.9
6 2 -7 19.5 3.7
-6 -2 -7 15.5 3.2
6 -2 7 23.8 3.1
6 2 -7 17.3 2.9
-6 2 7 15.9 2.8
-6 2 7 22.3 2.9
6 2 -7 16.4 3.2
6 -2 7 15.3 2.8
6 -2 7 14.4 3.3
-6 2 -7 19.6 3.4
6 -2 -7 23.3 4.1
-6 -2 7 15.7 2.9
6 2 7 20.8 3.5
-6 -2 7 21.8 2.8
6 2 7 16.4 2.5
7 2 -7 3.8 2.7
-7 -2 -7 2.2 2.8
7 -2 7 1.8 2.8
-7 2 7 1.7 2.3
7 2 -7 0.7 3
7 -2 7 5 2.7
7 -2 7 4.7 2.4
-7 2 7 5.5 2.5
7 2 -7 2.6 2.7
7 2 7 2.7 1.8
7 2 7 -1.4 2.9
-7 -2 7 4 2.3
7 -2 -7 -0.7 3.3
7 2 7 5.1 2.1
-7 2 -7 3.8 3.1
-7 -2 7 5.2 2.6
-8 2 7 4 2.6
8 2 -7 -3.3 2.6
-8 -2 -7 -1 3
-8 2 7 -0.9 2.3
8 -2 7 -2 2.2
8 -2 7 0.1 2.7
8 2 -7 1.7 3.4
8 -2 7 2 3.3
8 2 -7 0.2 2.8
8 -2 -7 0.1 3.5
-8 -2 7 -2.3 2.2
8 2 7 1.4 3
-8 -2 7 0.6 2.6
8 2 7 0.2 2.1
-8 2 -7 2.6 3.2
-9 2 7 0.6 2.6
9 2 -7 4.1 3.1
9 -2 7 -2.3 2.9
9 2 -7 0.7 3.5
9 2 -7 2.4 2.9
9 -2 7 2.9 2.6
9 -2 7 -0.8 3.4
-9 -2 -7 -0.9 3.2
-9 -2 7 3.6 2.7
9 -2 -7 2.7 3.7
-9 -2 7 -1.9 2.5
9 2 7 1.8 3.3
-9 2 -7 0 3.3
10 2 -7 10.2 4.2
10 2 -7 8.2 3.5
10 -2 7 3 3.3
10 -2 7 10.8 4.2
-10 2 7 10.4 3.5
-10 2 -7 14.5 6.3
-10 -2 7 8.9 3.2
0 -3 7 86.89 4.5
0 3 -7 84.69 5.4
0 -3 7 77.29 4.4
0 -3 -7 77.29 5.6
0 3 -7 73.89 4.1
0 3 -7 84.39 4.9
0 3 7 80.79 4.8
0 -3 7 89.09 4.9
0 3 -7 79.99 5.2
0 -3 -7 83.89 4.2
0 3 7 90.29 4.7
0 3 7 82.69 4
-1 -3 -7 0.5 1.6
-1 3 7 2.4 1.6
-1 3 7 -3.2 1.7
1 -3 7 -2.5 1.6
1 3 -7 -2.5 2.1
-1 3 7 -1.5 1.3
1 -3 7 4.5 2.2
-1 -3 -7 -2.1 2.6
1 3 -7 -1.5 1.4
1 -3 7 0.5 1.5
-1 3 7 -0.5 1.9
1 3 -7 -4.5 1.6
1 3 -7 -1.2 2.2
-1 -3 7 2.4 2.1
1 -3 -7 1.7 1.4
1 3 7 2.3 1.7
1 3 7 -1.2 1.3
1 3 7 0.8 1.8
1 3 7 0.9 1.2
-1 3 -7 2.7 2.2
-1 3 -7 -0.4 1.8
-1 -3 7 0.7 1.5
-1 -3 7 -2 1.6
-1 3 -7 -0.9 1.4
1 -3 -7 -2.2 2.3
-1 3 -7 -2.5 2.2
-2 3 7 2.9 2.1
2 3 -7 8.8 2.6
-2 3 7 1.7 1.8
-2 3 7 1.3 2
2 3 -7 1.2 2.3
2 3 -7 2.9 2.1
-2 -3 -7 2.1 1.9
2 -3 7 -0.2 1.8
-2 -3 -7 -0.2 2.7
2 -3 7 3.7 2.1
2 -3 7 0.4 1.4
-2 3 7 0.7 1.4
-2 -3 7 -0.8 1.4
2 3 7 1.6 1.9
-2 3 -7 -0.3 2.4
-2 -3 7 1.6 2
-2 3 -7 0.5 2.2
2 -3 -7 0.2 2.7
-2 3 -7 1.7 1.7
2 3 7 1.3 1.6
-2 -3 7 2 1.8
-3 3 7 53.89 4.4
-3 3 7 53.49 3.7
-3 3 7 44 3.8
3 -3 7 53.29 3.8
3 3 -7 42 3.9
3 3 -7 53.09 3.9
-3 -3 -7 49.99 4.2
3 -3 7 44.9 4.2
3 3 -7 44.1 3.9
3 -3 7 54.09 4.4
-3 3 7 53.59 3.7
3 -3 7 53.49 3.2
3 3 7 58.59 3.5
-3 3 -7 53.49 3.9
-3 3 -7 47.5 4
3 3 7 54.89 4.8
-3 -3 7 50.69 3.2
3 3 7 43.7 3.5
3 -3 -7 58.59 5.5
-3 -3 7 51.49 3.7
-3 -3 7 46.5 4
-4 3 7 518.15 19.1
-4 3 7 525.45 19.3
4 3 -7 541.75 19.5
-4 -3 -7 533.65 19.3
4 -3 7 521.55 19.4
4 -3 7 550.14 19.2
-4 3 7 535.85 19.1
4 3 -7 527.65 19.5
4 -3 7 523.95 19.2
4 3 -7 528.75 19.2
4 3 7 511.65 19.1
-4 -3 7 523.35 19.1
4 3 7 521.05 19.7
4 3 7 532.45 18.8
-4 3 -7 524.55 19.6
4 -3 -7 460.15 19.9
-4 3 -7 521.05 19
-4 -3 7 500.15 19.2
4 -3 -7 513.15 19.1
5 3 -7 0.4 2.5
-5 3 7 0.8 2.3
5 -3 7 -1 2.4
5 -3 7 -0.7 2.1
-5 3 7 -3.1 2.3
5 -3 7 -4.2 2.1
-5 3 7 -2.3 1.9
-5 -3 -7 1.2 2.6
5 3 -7 -2.1 2.2
5 3 -7 -4.7 2.4
-5 3 -7 0 2
-5 -3 7 -0.3 2.1
5 3 7 -2.1 1.9
-5 -3 7 -0.4 1.9
5 -3 -7 0 2
5 3 7 -1 2.5
-5 3 -7 2.9 2.7
5 -3 -7 -0.6 2.9
6 3 -7 35.3 4.1
6 -3 7 34.7 4
6 3 -7 33.9 4.1
-6 3 7 33.8 3.6
-6 3 7 33.3 3.6
6 3 -7 30.3 3.4
6 -3 7 34.8 3.6
6 -3 7 28.1 3.4
-6 3 7 29.1 3.4
-6 -3 -7 28.4 3.7
6 3 7 28.8 3.9
6 3 7 33 3.2
6 -3 -7 31 4.4
-6 3 -7 29.1 5.1
-6 -3 7 23.1 3
6 -3 -7 29 3.1
-6 3 -7 36.5 4.2
-6 -3 7 27.4 3.4
-7 -3 -7 10.9 3.2
-7 3 7 8 2.6
7 3 -7 2.3 3
-7 3 7 2 2.5
7 -3 7 3.3 2.7
7 3 -7 5.7 3
7 3 -7 8.1 2.7
7 -3 7 2.1 2.4
7 -3 7 7.2 3.2
-7 -3 7 4.4 2.7
-7 3 -7 13.2 3.4
-7 -3 7 4.5 2.4
7 3 7 8.9 3.2
7 3 7 5 2.3
7 -3 -7 6.4 3.7
8 -3 7 -0.6 3.1
-8 -3 -7 6.9 3.2
8 3 -7 0.9 3.2
8 3 -7 3 2.9
8 -3 7 2.7 2.5
8 -3 7 1.5 3
-8 3 7 1.1 2.7
8 3 -7 1.8 2.7
-8 3 7 2 2.6
8 -3 -7 3.6 3.8
-8 -3 7 0.7 2.5
-8 3 -7 -1 3.2
8 3 7 -1.7 2.8
-8 -3 7 4.7 2.8
9 3 -7 3.3 3.5
9 -3 7 5 2.9
9 3 -7 7.4 3.3
9 -3 7 7.9 3.7
9 -3 7 8 3.5
9 3 -7 2.1 2.9
-9 -3 -7 5.6 3.4
-9 3 7 5.7 3.2
9 -3 -7 3.4 3.9
-9 -3 7 9.4 3.1
9 3 7 11.5 3.6
-9 3 -7 8.6 3.7
-9 -3 7 10.2 3.1
0 -4 7 0.9 2
0 4 -7 1.1 1.8
0 4 7 -1.3 1.8
0 -4 7 -0.8 1.7
0 4 7 -1.3 2
0 -4 -7 -1.2 2.7
0 4 -7 -0.1 2.3
0 -4 -7 2 1.9
0 4 -7 2.5 2.2
0 4 -7 2.1 2.5
0 -4 7 3.4 1.9
0 4 7 -0.4 1.4
1 -4 7 96.79 4.9
-1 -4 -7 92.69 4.7
-1 4 7 96.89 4.7
-1 4 7 97.79 4.9
1 -4 7 95.29 5.2
1 4 -7 95.19 5.9
-1 -4 -7 99.29 6.3
-1 4 7 101.89 5.5
1 -4 7 100.49 5.5
1 4 -7 99.29 5.5
-1 4 7 101.09 5.4
1 4 -7 89.99 5
-1 4 -7 101.09 5.6
-1 -4 7 96.19 5.3
-1 4 -7 104.19 5.3
1 -4 -7 94.09 6.3
1 4 7 97.79 5.2
-1 -4 7 77.69 5.8
-1 -4 7 100.49 4.9
-1 4 -7 96.49 5.5
1 4 7 97.19 5.4
-1 4 -7 92.39 5.8
-2 4 7 762.42 26.3
2 -4 7 751.82 26.2
2 -4 7 717.73 26.1
2 4 -7 777.02 26.2
2 4 -7 718.83 26.2
2 4 -7 718.23 26.6
2 4 -7 770.52 26.2
-2 -4 -7 712.13 25.9
-2 -4 -7 780.82 27
-2 4 7 726.43 25.9
-2 4 7 745.23 25.9
2 -4 7 744.13 25.9
-2 4 7 736.13 26.3
-2 4 -7 697.63 26.1
2 -4 -7 694.83 26.9
-2 -4 7 721.53 25.7
-2 4 -7 699.23 26.5
2 4 7 712.63 26.2
-2 -4 7 736.83 26.3
-2 4 -7 759.62 26.1
2 4 7 734.93 26
3 -4 7 842.52 28.9
-3 4 7 817.42 28.6
3 4 -7 795.62 29.2
-3 4 7 834.32 28.6
3 4 -7 821.52 28.8
3 -4 7 832.32 28.3
3 -4 7 781.42 28.8
-3 -4 -7 826.62 28.7
-3 4 7 807.82 29
3 4 -7 814.82 28.8
3 -4 7 766.62 28.7
3 4 7 806.52 28.5
3 -4 -7 821.12 28.9
3 -4 -7 785.82 29.6
-3 4 -7 773.52 29.1
-3 -4 7 808.12 28.9
-3 4 -7 856.11 28.8
3 4 7 793.52 28.7
4 -4 7 23 3.1
4 -4 7 29.1 3.3
-4 4 7 24.6 3.1
4 -4 7 28.4 3.2
4 4 -7 25.1 3.1
-4 4 7 33.4 3.4
4 4 -7 23.5 2.9
-4 -4 -7 32.4 3.4
4 4 -7 31.5 3.7
-4 4 7 27.3 2.9
-4 -4 7 27.3 3
4 -4 -7 24.6 3.1
-4 4 -7 26.9 3.5
4 -4 -7 26.1 4
4 4 7 26.9 2.6
-4 -4 7 33 3.4
4 4 7 27 2.9
-4 4 -7 33 3.3
4 4 7 27.3 3.6
-5 4 7 1.3 2.3
-5 4 7 -0.8 2.1
-5 -4 -7 -0.1 2.7
5 -4 7 1.4 2.3
5 4 -7 -1.1 2.2
5 -4 7 0 2.4
-5 4 7 -1.2 2.2
5 4 -7 -1.7 2.5
5 4 -7 2.2 2.9
5 -4 7 -0.5 2.4
-5 -4 7 -0.1 2.1
-5 4 -7 2.4 2.2
5 -4 -7 1.2 2.3
5 -4 -7 2 3.2
5 4 7 0.8 2
5 4 7 0.2 2.6
-5 -4 7 3.7 2.4
-5 4 -7 2.2 2.8
6 -4 7 20.1 3.3
6 4 -7 29.2 3.7
-6 4 7 37.9 3.9
-6 -4 -7 26.6 3.6
6 4 -7 34.6 4.2
6 -4 7 27.3 3.6
-6 4 7 28.7 3.4
6 -4 7 32.4 3.8
-6 4 7 28.3 3.4
6 4 -7 27.1 3.3
-6 -4 7 29.1 3.4
6 4 7 32.3 3.9
6 -4 -7 25.9 3.3
6 4 7 26.2 3
-6 -4 7 32.8 3.6
6 -4 -7 25.3 4.5
-6 4 -7 29 3.7
-6 4 -7 21.9 3.8
-7 4 7 29.1 3.6
7 4 -7 27.3 3.4
7 -4 7 25.1 3.5
7 4 -7 22.3 3.9
-7 -4 -7 19.7 3.7
7 4 -7 23.8 3.8
7 -4 7 30.8 4
7 -4 7 33.8 4.1
-7 4 7 24.6 3.5
-7 -4 7 29.2 3.7
7 -4 -7 28.1 4.7
7 4 7 24.1 3.7
7 4 7 25.6 3
-7 4 -7 30.4 4.2
-7 -4 7 18.8 3.2
8 -4 7 43.8 4.9
8 4 -7 27 4.3
-8 4 7 39.1 4.5
-8 -4 -7 35.1 4.5
8 -4 7 52.79 4.7
8 4 -7 35 4.6
8 -4 7 47.3 4.4
8 4 -7 39.4 4
-8 4 7 48.9 4.4
8 -4 -7 54.09 6.1
-8 -4 7 40.8 4.3
-8 4 -7 45.5 5
-8 -4 7 48.7 4.7
8 4 7 49.7 5.1
9 -4 7 11.1 3.6
9 4 -7 6.9 3.4
9 -4 7 2.7 3.5
9 -4 7 2.4 2.8
9 4 -7 7.7 3.1
-9 -4 -7 3 3.5
-9 4 7 6.8 3.1
9 4 7 6 3.5
9 -4 -7 1.8 4
-9 -4 7 9.4 3.1
-9 -4 7 5.3 3
-9 4 -7 3.6 3.6
0 5 -7 0.3 2.1
0 5 7 2.3 1.5
0 -5 -7 -2.6 3
0 5 -7 -1.2 2.5
0 5 7 4.1 2.3
0 5 7 0.7 2.1
0 5 -7 5.4 2.5
0 -5 7 4.6 2.1
0 -5 7 4.8 2.2
1 -5 7 76.59 5
1 -5 7 76.29 4.7
-1 5 7 72.69 5.4
1 5 -7 72.69 5
-1 -5 -7 85.09 6.5
-1 5 7 86.99 4.3
1 5 -7 78.59 5.7
-1 5 7 75.49 5.3
-1 5 7 79.79 5.2
1 5 -7 85.19 5.3
1 -5 -7 78.49 6.2
-1 -5 7 82.29 4.7
-1 5 -7 78.39 5.3
-1 -5 7 79.09 4.9
1 5 7 83.19 4.9
-1 5 -7 83.89 5.4
1 5 7 83.59 5.1
-1 5 -7 74.89 5.8
-2 -5 -7 0.7 1.9
-2 -5 -7 -1.5 3
2 5 -7 1.2 2.3
2 -5 7 2 1.9
2 5 -7 1.2 2.5
-2 5 7 1.6 1.8
2 5 -7 1.6 2.1
-2 5 7 0 1.8
-2 5 7 -0.8 2.1
2 -5 7 -1.6 2.1
-2 5 -7 -0.4 2.5
2 5 7 1.7 1.9
2 5 7 -2.4 2
-2 -5 7 0.8 2.2
-2 5 -7 -2 2.2
2 -5 -7 3.5 2.4
-2 -5 7 0.1 1.7
-2 5 -7 -1 2.6
2 -5 -7 -2 2.9
-3 5 7 67.19 4.7
-3 5 7 64.99 5.1
3 5 -7 69.99 4.9
3 -5 7 58.09 3.9
3 -5 7 53.89 4.4
3 5 -7 63.29 5
-3 5 7 66.19 4.6
3 -5 7 63.99 5
3 5 -7 49.7 4.5
-3 -5 -7 73.39 4.7
-3 -5 -7 63.69 5.9
-3 5 -7 54.29 4.6
3 5 7 59.19 4.7
-3 5 -7 59.59 4.9
3 5 7 64.79 4.2
3 -5 -7 65.09 5.6
-3 -5 7 72.69 4.8
3 -5 -7 61.49 4.6
-4 5 7 24.8 3.1
4 -5 7 24.6 3.4
4 -5 7 30.1 3.6
-4 5 7 30.2 3.5
4 5 -7 24 3.6
4 5 -7 25.4 3.1
-4 -5 -7 27.1 3.3
-4 5 7 22.8 3
-4 -5 7 30.3 3.5
4 -5 -7 25.3 4
-4 -5 7 26.2 3.1
4 -5 -7 24.2 3.4
-4 5 -7 29.1 3.8
-4 5 -7 25.5 3.3
4 5 7 22.1 2.6
4 5 7 25.4 2.9
-5 5 7 1.4 2.3
5 -5 7 2 2.6
-5 5 7 6.4 2.6
-5 -5 -7 2.7 2.7
5 5 -7 -5.3 2.7
5 -5 7 4.1 2.6
5 5 -7 0.9 2.5
-5 5 7 1.7 2.5
5 5 7 -2.2 2.5
-5 -5 7 4 2.5
5 -5 -7 6.2 3.5
-5 5 -7 6.1 2.9
-5 -5 7 3.1 2.2
5 5 7 2.2 2.1
-5 5 -7 2.5 2.5
5 -5 -7 3.2 2.6
6 5 -7 29.2 3.4
-6 -5 -7 35.2 4
6 5 -7 32.5 4.2
-6 5 7 41.1 4.1
-6 5 7 35.9 3.9
6 -5 7 33.7 4
6 -5 7 32.1 4.3
-6 5 7 31.1 3.8
6 5 7 28.6 3.9
6 -5 -7 32.1 3.9
6 5 7 28.5 3.2
-6 -5 7 35.2 3.8
-6 5 -7 41.2 4.3
-6 -5 7 35.6 3.8
6 -5 -7 29.6 4.7
-6 5 -7 30.3 3.8
-7 5 7 4.9 2.9
7 5 -7 7.7 2.7
7 -5 7 3.8 2.9
-7 -5 -7 9.8 3.4
-7 5 7 7.8 3
7 5 -7 10.2 3.5
-7 5 7 9.4 3.2
7 -5 -7 8.1 3
7 5 7 6.7 3.1
-7 5 -7 6.8 3.4
7 -5 -7 2.5 3.8
-7 -5 7 10.9 3
-7 -5 7 7.9 2.9
-8 -5 -7 3.4 3.3
8 5 -7 0.6 3.1
8 -5 7 9.5 3.1
8 5 -7 -1.5 2.6
-8 5 7 -3.7 2.8
-8 5 7 3.6 2.8
-8 -5 7 3.5 2.8
8 5 7 -2.9 2.8
-8 5 -7 -0.7 3.2
8 -5 -7 -7 3.6
-8 -5 7 2.8 2.7
-9 5 7 3.4 3.3
9 5 -7 2.1 2.9
9 -5 7 4.3 3.3
9 5 -7 6.9 3.9
-9 5 -7 8 3.7
9 -5 -7 0 5.3
-9 -5 7 2.5 3.1
-9 -5 7 3.3 3.1
9 5 7 3.1 3.8
0 -6 7 -2.1 2
0 6 -7 -0.5 2.5
0 6 -7 -4.1 2.6
0 -6 7 -1.1 2.1
0 6 -7 0 2.3
0 -6 -7 -6.9 2.9
0 6 7 1.1 2.2
-1 6 7 100.39 5.9
-1 6 7 98.99 4.9
-1 -6 -7 109.49 7
1 6 -7 99.99 6.2
1 -6 7 100.59 5.7
1 6 -7 105.89 6.3
1 6 -7 99.09 6.6
1 -6 7 105.89 5.9
-1 -6 7 100.49 5.5
1 6 7 94.89 5.9
1 -6 -7 97.59 6.7
1 -6 -7 101.19 6.3
-1 6 -7 100.39 6.3
1 6 7 96.89 5.7
-1 -6 7 108.29 6.1
-1 6 -7 95.09 6.6
-1 6 -7 103.79 6.2
2 -6 7 0.2 2
2 6 -7 -1 2.3
-2 6 7 0.3 2.3
2 -6 7 -2.4 2.2
2 6 -7 0.1 2.4
-2 -6 -7 3 3.1
2 6 -7 -3.9 2.6
-2 6 7 1.7 1.9
-2 6 7 -0.2 1.9
-2 -6 7 -1 2.3
-2 6 -7 -1.2 2.4
2 6 7 -1.9 1.9
2 -6 -7 -6.2 2.4
-2 6 -7 2.3 2.7
-2 6 -7 -2.3 2.4
2 6 7 -0.9 2.2
2 -6 -7 1.1 3
-3 6 7 19.7 2.9
-3 6 7 23.4 2.9
-3 -6 -7 18.4 3.7
3 6 -7 28.5 3.4
3 6 -7 28.7 3.9
3 -6 7 26.7 2.8
3 -6 7 25.5 3.4
-3 6 7 25 3.5
3 6 -7 18 3
3 -6 -7 23.7 3.5
3 6 7 22.9 3.1
-3 6 -7 20.8 3.6
-3 -6 7 22.6 3.3
3 6 7 23.4 2.9
-3 6 -7 24.3 3.5
3 -6 -7 22.8 4
-4 -6 -7 61.59 5.3
4 -6 7 64.49 5.4
4 6 -7 51.39 4.4
-4 6 7 66.19 5.5
-4 6 7 62.89 5.2
4 6 -7 65.89 5.3
-4 -6 -7 62.59 5
-4 6 7 73.99 5.2
4 6 7 60.59 4.8
4 -6 -7 58.59 5.4
-4 6 -7 65.69 5.7
4 6 7 64.99 4.6
-4 6 -7 57.59 5.1
-4 -6 7 63.79 5
4 -6 -7 74.19 5.4
5 6 -7 213.78 9.5
-5 6 7 230.78 9.6
-5 6 7 193.78 9.7
5 6 -7 200.58 10.2
-5 -6 -7 214.68 9.7
5 -6 7 213.18 9.9
-5 6 7 212.48 9.8
5 6 7 195.98 9.2
-5 6 -7 198.48 10.1
5 -6 -7 208.08 10
-5 -6 7 214.68 9.8
-5 -6 7 225.48 9.9
-5 6 -7 219.38 10.1
5 -6 -7 208.18 10.9
-6 -6 -7 1.7 2.9
6 6 -7 6.6 2.7
6 -6 7 6.2 3
-6 6 7 4.8 2.8
-6 6 7 5.9 2.8
-6 6 7 1.6 2.8
6 6 -7 2.4 3.2
6 6 7 2.6 2.8
-6 6 -7 9 3.3
6 -6 -7 3.2 3.7
-6 -6 7 3 2.8
-6 -6 7 7.8 2.8
-6 6 -7 3.6 3
6 -6 -7 1.1 3
6 6 7 5 2.4
7 -6 7 1.3 3
-7 -6 -7 1.4 3.1
-7 6 7 9 3.3
-7 6 7 -0.5 2.8
7 6 -7 4 2.6
7 6 -7 2.2 3.3
-7 6 7 3.6 3
7 -6 -7 6 3.1
7 6 7 2.1 2.9
-7 6 -7 1.5 3.3
7 -6 -7 1.7 3.9
-7 -6 7 1.9 2.7
-7 -6 7 3.5 2.8
8 6 -7 -2.3 2.6
8 6 -7 -2.4 3.1
-8 -6 -7 -5.2 3
8 -6 7 3.9 3.2
-8 6 7 2.5 2.9
-8 6 7 8.5 3.3
8 -6 -7 1 4.1
-8 -6 7 5.6 3
-8 -6 7 2.4 2.9
-8 6 -7 -1.7 3.3
8 6 7 2.9 3.2
0 -7 7 196.08 8.7
0 7 -7 179.28 8.6
0 7 -7 164.08 9
0 -7 7 181.28 8.2
0 7 -7 182.48 9
0 7 7 168.98 8.4
0 -7 -7 174.88 8.7
0 -7 -7 179.18 9.3
-1 -7 -7 -4.4 3
1 7 -7 -5.2 2.5
-1 7 7 1.2 2.3
1 7 -7 3.9 2.9
-1 -7 -7 4.8 2.6
1 -7 7 3.1 2.3
-1 7 7 1.2 1.7
1 7 -7 4.5 2.6
1 -7 7 -1.7 2.3
-1 7 -7 -4.2 2.3
1 7 7 0.7 2.3
-1 7 -7 -0.9 2.8
-1 -7 7 -0.2 2.1
1 -7 -7 2.2 2.8
1 -7 -7 -2.1 2.9
-1 7 -7 -1.3 2.6
-1 -7 7 -2.6 2.3
-2 7 7 -0.9 2.4
2 -7 7 1.8 2.2
2 -7 7 -4.3 2.4
-2 -7 -7 -1.5 3
2 7 -7 -2 2.9
-2 7 7 0 1.8
2 7 -7 3.8 2.6
2 7 -7 -0.9 2.5
2 -7 -7 -3.1 3
-2 7 -7 -4.4 2.5
-2 7 -7 -0.5 2.6
-2 7 -7 -0.6 2.9
2 -7 -7 -0.4 2.8
2 7 7 -1.1 2.1
-2 -7 7 -1.8 2.5
3 -7 7 -1.7 2.6
-3 -7 -7 -0.2 3.2
3 7 -7 2.3 2.6
-3 7 7 1.3 2.1
-3 7 7 2.5 2.4
-3 7 7 -2.7 2.4
3 7 -7 -1.9 2.4
3 7 -7 2.9 3
3 7 7 3.9 2.2
-3 -7 7 -1 2.6
3 7 7 0 2.4
-3 7 -7 0.2 2.8
3 -7 -7 0.5 3
3 -7 -7 -2.3 3
-3 7 -7 -3.1 2.6
-4 -7 -7 78.69 6.5
4 -7 7 72.99 6.1
-4 7 7 63.29 5.3
4 7 -7 67.29 5.7
4 7 -7 75.09 6.1
4 7 -7 71.79 5.1
-4 7 7 64.59 5.7
-4 7 7 78.39 5.4
4 7 7 64.09 4.9
4 -7 -7 73.69 6.3
-4 7 -7 69.69 6.1
4 7 7 71.99 5.5
-4 7 -7 81.59 6.3
-4 -7 7 65.79 5.3
4 -7 -7 75.29 6.1
5 7 -7 20.9 3.9
5 7 -7 23.4 3.5
-5 7 7 23.1 3.4
5 -7 7 16.8 3.6
-5 -7 -7 26 4.1
-5 7 7 16.2 3.5
-5 7 7 16.4 3.4
5 7 7 25.1 3.4
-5 -7 7 28 3.9
5 -7 -7 21.1 4
-5 -7 7 26.3 3.7
-5 7 -7 27 4
-5 7 -7 21.6 3.8
5 -7 -7 23.2 4.5
-6 -7 -7 72.99 6.1
6 -7 7 67.29 5.6
-6 7 7 57.69 5.3
6 7 -7 52.09 5.3
6 7 -7 64.19 5
-6 7 7 61.29 5.4
-6 7 7 56.59 4.9
-6 -7 7 75.79 6
6 -7 -7 66.99 5.6
6 -7 -7 59.09 6.2
-6 7 -7 49 5.2
-6 -7 7 67.99 5.9
-6 7 -7 67.99 6.1
7 7 -7 15.4 4
7 -7 7 11.9 3.7
-7 7 7 15.6 3.6
-7 7 7 14.2 3.6
-7 7 7 17.7 3.7
-7 -7 -7 17 3.8
7 7 -7 9.9 2.9
7 -7 -7 10.8 4.6
7 -7 -7 13.2 3.9
-7 7 -7 15.8 3.9
-7 -7 7 15.2 3.6
-7 -7 7 19.9 3.8
7 7 7 7.7 3.5
0 8 -7 -1 2.6
0 -8 -7 -0.3 3.3
0 -8 7 -1.6 2.5
0 8 -7 5 3.2
0 8 7 -0.9 2.4
0 -8 7 -1.1 2.4
0 -8 -7 -0.7 2.8
0 8 -7 -6 2.8
1 8 -7 4 3.1
1 8 -7 8.5 3.4
1 8 -7 5.9 3
-1 -8 -7 7.6 3.1
1 -8 7 11.2 3
-1 -8 -7 -1.9 3.7
1 -8 7 11.9 3.1
-1 8 7 9 2.8
-1 8 -7 7.6 3.3
1 8 7 11.9 2.9
-1 -8 7 15.7 3.3
1 -8 -7 3.9 3.4
-1 8 -7 5.6 3.3
-1 8 -7 9.1 3
1 -8 -7 10.5 3.3
-2 8 7 57.59 4.3
-2 -8 -7 57.99 5
-2 -8 -7 47.5 7.6
2 8 -7 43.8 4.9
2 8 -7 60.09 5.3
2 -8 7 62.89 4.9
2 -8 7 58.19 4.9
-2 8 7 53.09 4.8
2 8 -7 62.59 4.8
-2 8 -7 56.69 5.2
-2 8 -7 55.89 5.2
2 8 7 64.79 5.2
2 -8 -7 65.39 5.3
-2 8 -7 63.29 5.2
-2 -8 7 73.09 5.5
2 -8 -7 64.39 6.2
3 -8 7 0.6 3
3 8 -7 -3.9 2.4
-3 8 7 2.8 2.2
3 8 -7 6.3 3.3
-3 8 7 -0.6 2.7
-3 -8 -7 0.6 2.8
3 8 -7 -0.6 2.8
3 8 7 -0.3 2.2
-3 8 -7 0.2 3.1
3 -8 -7 2 3.3
3 -8 -7 -5 4.8
-3 8 -7 -6.2 2.8
-3 -8 7 -1.8 2.8
4 -8 7 24.7 4
-4 -8 -7 21.4 3.7
4 8 -7 20.2 4
4 8 -7 20.5 3.4
-4 8 7 27.8 3.4
4 8 -7 22.9 4
-4 8 7 20.7 3.7
4 8 7 22.9 3.2
-4 8 -7 23.6 4
-4 8 -7 23.1 4
-4 -8 7 30.6 4.1
4 -8 -7 27.2 4.4
-5 8 7 82.29 6.3
5 8 -7 71.09 6.2
5 8 -7 88.59 6
5 -8 7 80.19 6.2
-5 8 7 85.99 6.1
-5 8 -7 77.09 6.9
5 -8 -7 81.89 6.4
-5 -8 7 74.39 6.4
-5 8 -7 62.59 5.8
-5 -8 7 77.29 6.2
6 8 -7 14.3 3.9
6 8 -7 10.8 3
-6 8 7 12.7 3.3
6 -8 7 12 3.9
-6 8 7 10 3.4
-6 8 -7 7.6 3.8
-6 8 -7 9.4 4.6
6 -8 -7 18.3 4.1
-6 -8 7 14.1 3.7
-6 -8 7 18 3.5
0 -9 -7 2.5 3.3
0 9 7 3.3 2.7
0 9 -7 2.6 3.4
0 9 -7 0.1 3.2
0 9 -7 0 2.9
0 -9 7 1 3.1
-1 -9 -7 6.7 3.3
1 9 -7 -0.5 3.3
1 -9 7 -0.9 2.8
1 9 -7 -5.8 2.6
1 9 -7 -0.5 3
-1 9 7 -0.5 2.7
1 -9 7 0.9 2.8
-1 9 -7 3 3.3
1 -9 -7 1.2 3.4
1 9 7 1.4 2.5
-1 -9 7 -1.2 3
-1 9 -7 1.4 2.9
-1 9 -7 -0.5 3.2
2 -9 7 -2.3 2.9
-2 -9 -7 1.4 3.2
-2 9 7 3.5 1.9
-2 9 7 -0.9 2.8
2 9 -7 -0.4 3.1
2 -9 7 0.7 2.7
2 9 -7 6.5 3
2 9 -7 3.2 3.3
-2 9 -7 -3.3 3
-2 9 -7 5.7 3.5
-2 -9 7 -0.7 2.9
-2 9 -7 -2.2 2.9
2 9 7 -1.5 2.4
2 -9 -7 0.5 3.4
3 9 -7 45 4.4
3 9 -7 37.7 4.7
-3 9 7 31.9 4.5
-3 9 7 36 3.5
-3 -9 -7 38.2 4.5
3 -9 7 38.7 4.7
3 9 -7 30.1 4.6
3 9 7 30.2 3.8
3 -9 -7 47.6 5.3
-3 9 -7 33.5 4.7
-3 -9 7 44.7 4.9
-3 9 -7 35.8 4.7
4 9 -7 11 3.8
4 9 -7 9.5 3.1
-4 9 7 8.8 2.8
4 9 -7 8.4 3.8
-4 9 7 9.2 3.4
-4 -9 -7 0.7 3.1
4 -9 7 8.3 3.7
4 9 7 6 2.7
-4 9 -7 4.9 3.7
-4 9 -7 8.4 3.7
-4 -9 7 5.8 3.5
4 -9 -7 8.2 4.2
5 -9 7 -2.9 5.7
-5 9 7 -1.4 2.9
5 9 -7 -5.2 2.7
-5 9 7 3.8 2.9
-5 9 -7 0.2 3.5
5 -9 -7 2.6 5
0 -10 -7 2.1 3.5
0 10 -7 -0.6 2.8
0 10 -7 -2 3.3
0 10 -7 -0.6 3.3
0 -10 7 4.3 3.4
0 10 7 0.3 2.8
1 10 -7 14.8 4.3
1 10 -7 13.6 3.6
1 10 -7 10.4 3.7
1 -10 7 15.9 3.7
-1 10 7 12 3.4
-1 -10 -7 18.4 4
1 -10 7 10.7 3.7
-1 10 -7 16.2 4.1
-1 10 -7 14.4 3.6
1 10 7 10.9 3.3
1 -10 -7 8 4.1
-1 10 -7 11.2 3.9
-1 -10 7 19.2 4.1
2 10 -7 18.2 4.3
2 -10 7 14.9 3.9
2 10 -7 22.7 3.8
-2 -10 -7 20.4 4.1
2 -10 7 18.6 3.8
2 10 -7 15.2 3.9
-2 10 7 17.1 2.7
-2 10 7 10.9 4.3
-2 -10 7 17.6 4.5
-2 10 -7 8.6 3.8
-2 10 -7 14.6 4.1
-2 10 -7 20.2 4.2
2 10 7 13.3 3.3
2 -10 -7 17.1 5.9
3 -10 7 12.4 3.9
-3 -10 -7 8.9 3.6
3 10 -7 10.3 4
3 10 -7 7.1 4.4
3 10 -7 12.9 4
3 10 7 11.5 3.2
-3 10 -7 11.9 4.1
0 0 8 415.66 14.9
0 0 8 383.06 14.9
0 0 8 409.96 15
0 0 -8 423.36 15.3
1 0 8 648.64 22.6
1 0 8 641.24 22.6
1 0 -8 611.24 23.5
1 0 8 621.64 22.8
-1 0 8 619.74 22.8
-1 0 8 645.94 22.7
1 0 -8 654.23 22.8
-1 0 8 669.73 22.7
-1 0 -8 642.84 22.9
-1 0 -8 620.34 23.5
2 0 -8 181.58 9
2 0 8 192.48 7.7
2 0 8 190.58 8
-2 0 8 176.58 7.9
-2 0 -8 190.58 8.3
-2 0 -8 186.18 9
-2 0 8 179.28 8
-2 0 8 170.38 7.7
2 0 -8 202.58 8.1
2 0 8 195.28 7.5
-3 0 8 77.19 4.3
3 0 8 73.09 4.4
3 0 8 71.79 3.7
-3 0 -8 75.59 5.1
3 0 8 69.99 5.4
3 0 -8 63.99 5.9
3 0 -8 67.49 4.7
-3 0 8 76.39 4.8
3 0 8 81.39 4.9
-3 0 8 71.39 4.6
-4 0 8 12.1 2
4 0 8 10.5 2.2
-4 0 -8 14.1 3
-4 0 8 13.8 2.6
-4 0 8 12.5 2.5
4 0 8 9.6 2.4
4 0 -8 14.8 3.5
4 0 -8 14.1 2.5
4 0 8 11.1 3
-5 0 8 32.8 3.1
5 0 -8 34.1 4.4
-5 0 -8 39.6 4
5 0 8 34.5 3
-5 0 8 35.3 6
5 0 -8 36.5 3.5
-5 0 8 45.5 3.9
5 0 8 40.3 4.3
5 0 8 40 3.5
6 0 -8 61.59 6
-6 0 8 62.29 4.8
6 0 8 72.59 4.7
6 0 8 70.59 5.1
6 0 -8 66.19 5.9
6 0 8 67.69 6
-6 0 8 64.99 5.1
-6 0 -8 73.59 5.8
-7 0 8 77.69 5.3
7 0 8 78.49 5.5
7 0 8 83.89 6.7
7 0 -8 61.09 5.9
-7 0 8 79.19 5.7
7 0 8 82.79 5.1
-7 0 -8 77.89 6.3
8 0 8 -2.8 2.8
-8 0 8 3.9 2.5
-8 0 8 5.1 2.7
-8 0 -8 -4.2 3
8 0 8 1.3 2.4
8 0 8 4.6 2.5
8 0 -8 0.7 3.6
9 0 -8 -2.6 3.6
9 0 8 3.5 2.5
9 0 8 5.5 3.5
-9 0 8 0.9 2.7
9 0 8 1.7 2.5
-9 0 -8 -2.9 3.3
-9 0 8 0.6 2.6
0 -1 8 -0.1 1.7
0 -1 -8 1.9 2
0 -1 8 1.8 1.9
0 1 8 0.9 1.7
0 -1 8 -0.8 1.6
0 1 8 1.2 1.8
0 -1 -8 -3.6 2.4
0 1 8 -0.1 1.8
0 1 -8 -1 2.6
0 1 -8 -2 2.1
1 -1 8 63.39 4.2
-1 1 8 58.89 4
-1 -1 -8 57.59 4.4
-1 1 8 62.69 4.1
-1 -1 -8 46.1 4.4
1 -1 8 63.09 3.8
1 1 -8 62.49 4.6
1 -1 8 59.29 4.2
-1 1 8 56.09 4
1 1 -8 58.49 4.8
1 1 8 60.29 4.1
1 -1 -8 59.19 4.1
-1 -1 8 63.09 4.1
-1 -1 8 66.09 4.3
1 -1 -8 57.19 5.5
-1 1 -8 58.99 5.3
1 1 8 60.29 3.8
-1 1 -8 64.09 4.4
1 1 8 59.49 3.8
-1 -1 8 55.29 3.8
2 1 -8 328.07 12.8
2 1 -8 324.57 13.5
-2 1 8 316.07 12.4
-2 1 8 324.07 12.6
2 -1 8 330.97 12.4
-2 1 8 337.37 12.5
-2 -1 -8 331.67 13.5
-2 -1 -8 326.67 12.6
2 -1 8 330.07 12.1
2 -1 8 322.17 12.6
2 1 8 330.67 12.2
2 -1 -8 352.26 13.7
-2 -1 8 319.97 12.6
2 1 8 335.87 12.1
2 -1 -8 329.37 12.4
-2 1 -8 326.57 13.4
-2 1 -8 328.17 12.9
2 1 8 319.27 12.5
-2 -1 8 338.67 12.7
-2 -1 8 318.77 12.2
3 1 -8 -1.2 2.2
-3 -1 -8 0.3 2.2
3 1 -8 1.4 3
3 -1 8 2.1 1.4
3 -1 8 2.2 2
-3 1 8 1.2 1.8
3 -1 8 -1.1 2
-3 1 8 0.4 1.9
3 -1 8 3.6 2.6
-3 1 8 0 2
3 -1 -8 -0.9 1.9
3 1 8 1.6 1.7
-3 1 -8 -1.7 2.2
-3 -1 8 1.3 1.6
-3 -1 8 2.5 2.1
3 -1 -8 -0.1 3
3 1 8 -2.3 2
3 1 8 1.5 1.4
-3 -1 8 -0.3 2
-4 1 8 72.19 4.8
-4 1 8 72.49 4.9
4 -1 8 67.49 4.9
4 -1 8 67.29 5.5
-4 1 8 66.99 4.3
4 1 -8 66.69 5.7
-4 -1 -8 67.99 5.3
4 1 -8 70.79 5
4 -1 8 78.69 4.6
-4 1 -8 63.49 5.2
-4 -1 8 62.39 4
4 1 8 61.69 4.1
4 -1 -8 60.89 5.5
4 1 8 69.29 4.9
4 1 8 72.39 5.7
-4 -1 8 63.09 4.8
-4 -1 8 64.99 4.9
4 -1 -8 71.19 4.4
5 -1 8 85.99 5.2
-5 1 8 82.89 5.2
5 -1 8 82.59 6
-5 1 8 82.49 5.5
-5 -1 -8 78.59 5.8
5 -1 8 88.49 5.6
5 1 -8 92.39 5.9
5 1 -8 85.09 6.5
-5 1 8 95.99 5.5
5 1 8 91.39 5.5
5 -1 -8 67.59 6.6
-5 -1 8 88.19 5.4
-5 -1 8 82.39 4.9
5 1 8 85.99 6.3
5 1 8 79.49 4.6
-5 1 -8 86.39 6.1
6 1 -8 9.3 3.4
-6 1 8 4.5 2.4
6 -1 8 3.5 2.3
-6 -1 -8 8.3 3.1
6 1 -8 4.3 2.6
-6 1 8 6.1 2.2
6 -1 8 1.8 2.3
6 -1 8 3.8 2.8
6 1 8 1.9 1.9
6 -1 -8 6.1 3.4
-6 -1 8 5.9 2.1
6 1 8 5.5 2.3
-6 1 -8 10 3.1
-6 -1 8 5.2 2.6
6 1 8 6.6 3
7 -1 8 23 3.2
7 -1 8 17.4 3.6
-7 -1 -8 11.7 3.5
7 1 -8 22.3 3.4
7 1 -8 20.9 4.3
-7 1 8 23 3.2
-7 1 8 17.2 3.1
7 -1 8 14.9 2.9
7 1 8 20.9 3.1
-7 -1 8 18.1 3.2
7 1 8 22.1 2.6
-7 -1 8 15.3 2.8
-7 1 -8 16.3 3.8
7 1 8 15.1 3.6
7 -1 -8 18.7 4
-8 -1 -8 59.49 5.4
8 -1 8 67.09 4.8
-8 1 8 64.09 5.4
8 -1 8 54.39 5.6
8 1 -8 59.39 5.8
8 -1 8 63.89 5
-8 1 8 70.79 5.6
8 1 8 66.29 5.4
8 1 8 67.99 6.1
-8 -1 8 65.69 5.4
8 -1 -8 59.49 6.1
-8 -1 8 59.79 5.4
8 1 8 65.69 4.7
-8 1 -8 58.39 5.5
9 -1 8 2.8 2.7
9 -1 8 -1.2 2.4
-9 1 8 1.7 2.7
-9 1 8 1 2.7
9 1 -8 1.2 3.7
-9 -1 -8 -3.3 3.3
9 -1 8 1.3 3.5
9 -1 -8 -1 3.8
-9 -1 8 2.3 2.7
-9 1 -8 -0.3 3.3
-9 -1 8 1.3 2.7
9 1 8 1.3 2.3
9 1 8 -3.6 3.2
0 -2 8 1043.8 35.7
0 2 8 956.7 35.3
0 -2 -8 1020.7 36.6
0 2 -8 1039.4 36.3
0 2 -8 1009.1 36
0 2 8 1032.4 35.8
0 2 8 967.9 35.7
0 -2 8 1034.9 35.6
0 -2 8 1037.7 35.7
0 -2 -8 1089.69 35.6
-1 2 8 12.1 2.2
-1 -2 -8 2.8 3
-1 2 8 7.6 2.1
1 2 -8 10.6 2.6
-1 2 8 7.3 2.1
1 -2 8 11.9 2.2
1 -2 8 9.2 2.2
1 2 -8 1.9 2.8
1 2 -8 8.1 2.4
-1 -2 -8 8.9 2.2
1 -2 8 9.4 2
1 -2 -8 7.5 2
-1 -2 8 8.8 2.3
1 2 8 10.9 2
-1 2 -8 6 2.7
1 2 8 7.7 1.8
1 2 8 5.8 2.1
-1 -2 8 7.9 2.1
1 -2 -8 2.9 2.8
-1 2 -8 1.9 3
-1 -2 8 7.3 1.9
-2 -2 -8 169.78 7.5
-2 -2 -8 163.08 8.5
-2 2 8 171.08 7.5
-2 2 8 167.98 7.6
-2 2 8 158.88 7.3
2 -2 8 172.18 7
2 -2 8 178.08 7.6
2 2 -8 169.68 8
2 2 -8 178.68 8.5
2 2 -8 181.18 7.7
2 -2 8 178.58 7.6
-2 2 -8 159.88 8
2 2 8 169.28 7.1
-2 2 -8 176.58 8.4
2 -2 -8 175.38 8.7
2 2 8 168.38 6.8
-2 -2 8 187.48 7.7
2 -2 -8 160.68 7
-2 -2 8 167.28 7.5
2 2 8 167.58 7.5
-2 -2 8 160.58 7
3 2 -8 13 2.9
-3 -2 -8 15.4 2.8
3 -2 8 13.3 1.8
3 -2 8 10.9 2.4
-3 2 8 11.8 2.4
3 2 -8 14 3.2
3 2 -8 13.6 2.6
-3 2 8 13.1 2.5
-3 2 8 11.2 2.2
3 -2 8 14.9 2.5
3 2 8 12.9 2.5
3 2 8 12.6 1.9
3 -2 -8 7.1 3.2
3 2 8 14.1 2
-3 -2 8 13.1 2.5
-3 -2 8 11.8 2.5
-3 2 -8 16.6 3
-3 -2 8 9 1.8
-3 -2 8 16 2
-4 2 8 59.39 4.8
4 2 -8 60.19 4.5
-4 -2 -8 68.19 5.2
4 -2 8 64.69 4.8
-4 2 8 68.09 4.8
4 2 -8 64.69 5.3
4 -2 8 56.99 5.2
4 2 -8 66.09 5.7
4 -2 8 68.09 4.9
4 2 8 64.99 4.8
4 2 8 59.89 5.4
-4 2 -8 65.29 5.5
4 2 8 63.69 3.8
-4 -2 8 68.79 4.8
4 -2 -8 69.29 6.3
-5 2 8 25.2 3.2
5 -2 8 32.3 3.4
5 -2 8 28.7 3.4
-5 2 8 25.4 3.3
-5 -2 -8 27.1 3.7
5 -2 8 26.2 3.6
5 2 -8 34.7 3.8
5 2 -8 27.2 3.3
5 2 -8 28.9 4
5 2 8 29.5 3.7
-5 2 -8 25.4 3.6
5 -2 -8 25.1 4.2
5 2 8 28.8 3.1
5 2 8 31 2.5
-5 -2 8 28.9 2.9
5 -2 -8 27.9 2.9
-5 -2 8 34 3.6
6 -2 8 15.6 3
-6 2 8 15.3 2.9
-6 2 8 14.2 2.9
6 -2 8 19.2 3
-6 -2 -8 15.1 3.3
6 2 -8 17.5 3.4
6 2 -8 18.9 3.2
6 -2 8 16.2 3.3
6 2 -8 18.8 3.7
-6 2 8 19 3.5
6 2 8 16.1 2.7
6 2 8 17.5 3.4
6 -2 -8 20.2 4.2
-6 2 -8 20.2 3.5
-6 -2 8 12 3
-6 -2 8 19.6 2.7
-7 2 8 0.4 2.3
-7 2 8 0.3 2.3
7 2 -8 5.9 5.1
7 2 -8 2 3.3
7 -2 8 1.2 2.9
7 -2 8 1.2 2.6
7 -2 8 -1.5 2.3
7 2 -8 -3.9 2.5
-7 -2 -8 -1.3 2.8
-7 2 -8 -3.6 2.9
7 -2 -8 6.5 3.6
-7 -2 8 2.7 2.6
7 2 8 -1 2.7
-7 -2 8 -0.8 2.1
7 2 8 1.4 2.2
8 2 -8 83.79 6.4
8 -2 8 95.39 6.2
-8 2 8 73.69 6.1
8 -2 8 76.89 7.1
-8 2 8 80.19 5.9
8 -2 8 79.59 6.1
8 2 -8 80.29 7.1
-8 2 -8 83.59 6.9
8 2 8 80.69 7.1
-8 -2 8 81.19 6
-8 -2 8 85.49 5.9
8 2 8 81.39 5.6
8 -2 -8 68.29 6.6
9 -2 8 4.1 3.1
9 -2 8 5.2 2.8
9 -2 8 7.1 3.5
-9 2 8 0.9 2.7
-9 -2 -8 2.7 3.4
-9 2 8 4.7 3.2
9 2 -8 2.4 3.7
9 -2 -8 1.4 4
9 2 8 3.9 3.6
-9 2 -8 2.3 3.5
-9 -2 8 7.7 3.1
-9 -2 8 8.1 2.8
0 3 8 1.1 1.9
0 3 -8 2.2 2.5
0 3 8 0.6 2.1
0 3 8 0.7 1.6
0 3 -8 -1.9 2.6
0 -3 -8 1.2 1.7
0 -3 8 -0.2 1.8
0 -3 8 1.1 2.2
0 -3 8 -2.8 1.8
0 -3 -8 2.2 2.8
-1 3 8 50.49 3.7
-1 3 8 49.9 4.1
1 -3 8 58.89 4.4
-1 -3 -8 43.8 3.7
-1 -3 -8 44.1 4.5
1 -3 8 57.09 4.1
1 -3 8 52.79 3.8
1 3 -8 47.6 4.1
1 3 -8 43.1 4.1
1 3 -8 45 3.6
-1 3 8 50.19 3.7
-1 -3 8 52.29 3.9
1 -3 -8 46.1 4.7
1 3 8 39 3.3
1 3 8 55.19 3.9
-1 3 -8 48.9 4.2
1 3 8 44.8 3.6
-1 -3 8 52.09 3.8
-1 3 -8 58.79 4.4
-1 -3 8 57.39 4.1
-2 -3 -8 28.3 4
-2 3 8 29.2 3.2
2 3 -8 27.3 3.4
-2 3 8 22.1 2.6
2 3 -8 32.8 3.7
2 -3 8 29.2 2.6
2 3 -8 22.6 2.9
-2 -3 -8 32.4 3
2 -3 8 28.3 3.2
2 -3 8 28.6 3
-2 3 8 31.3 3.1
-2 3 -8 29.3 3.6
-2 3 -8 25.1 3.4
2 3 8 30.3 3.1
2 3 8 30.4 2.8
2 3 8 29 2.2
-2 -3 8 28.1 3.1
2 -3 -8 26.4 3.9
-2 -3 8 27.6 2.7
-2 -3 8 32.1 3.2
3 3 -8 2.8 2.7
3 -3 8 8.3 2.6
-3 -3 -8 5 3.1
3 -3 8 5.9 2.2
3 3 -8 1.2 2.7
3 3 -8 2.7 2.3
3 -3 8 2.7 2.2
-3 -3 -8 6.5 2.5
-3 3 8 7.8 2.4
-3 3 8 6.4 2.3
-3 3 8 3.4 2.2
-3 3 -8 6.3 2.7
3 -3 -8 3.9 3.2
3 3 8 6 1.8
-3 -3 8 3.1 2.2
-3 -3 8 4.8 1.8
3 3 8 6.6 2.3
4 3 -8 307.57 13.2
4 3 -8 341.37 13.4
-4 3 8 332.67 13
-4 -3 -8 339.77 13
4 -3 8 324.17 12.8
4 -3 8 353.06 13
-4 3 8 312.97 12.6
4 -3 8 332.07 13.1
4 3 -8 318.47 12.9
-4 3 -8 322.77 13.2
4 3 8 331.27 12.8
4 3 8 334.07 13.6
4 -3 -8 289.77 13.8
4 -3 -8 300.97 12.6
-4 -3 8 320.67 12.5
-4 -3 8 314.77 12.9
5 3 -8 14.5 2.9
5 3 -8 22.4 3.6
5 3 -8 20.1 3.5
-5 -3 -8 16.7 3.1
-5 3 8 21.5 3.1
-5 3 8 18.8 3.2
5 -3 8 15.1 3.2
5 -3 8 22.3 3.1
5 -3 8 20.1 3.1
5 3 8 19.3 3.6
-5 3 -8 23 3.6
5 -3 -8 19.9 4
5 3 8 20.8 2.8
5 -3 -8 17.8 2.7
-5 -3 8 16.5 3
-5 -3 8 17.6 2.6
6 3 -8 225.98 10.6
6 -3 8 224.98 10.5
-6 3 8 246.38 10.2
6 3 -8 220.78 10
6 -3 8 224.48 10.2
-6 3 8 211.38 10.1
6 -3 8 233.78 10.2
-6 -3 -8 234.28 10.6
6 3 -8 229.18 10.9
-6 -3 8 223.98 10
6 -3 -8 232.98 11.5
-6 3 -8 237.58 10.8
-6 -3 8 231.28 10.2
6 3 8 225.08 10.9
6 3 8 239.68 9.9
-7 -3 -8 18.9 3.8
7 -3 8 21.9 3.4
7 3 -8 23.6 3.9
7 -3 8 22.3 3.8
7 3 -8 19.5 3.4
-7 3 8 26.4 3.6
7 3 -8 26.7 4.1
7 -3 8 22.1 3.5
-7 -3 8 21.4 3.2
-7 3 -8 27.1 4.1
7 -3 -8 24.8 4.6
-7 -3 8 26.5 3.6
7 3 8 26.8 4.1
7 3 8 24.4 3.1
-8 3 8 82.79 6
8 3 -8 73.69 6.5
8 -3 8 91.99 7.3
8 -3 8 80.09 6.2
8 -3 8 87.59 6.3
8 3 -8 75.09 6.4
8 3 -8 65.79 5.3
8 3 8 83.69 7
8 -3 -8 56.59 6.2
-8 -3 8 67.69 5.8
-8 -3 8 80.29 6.1
-8 3 -8 65.59 6
9 -3 8 116.99 8.5
9 3 -8 115.79 7.7
9 3 -8 100.49 7
9 3 -8 97.49 8.2
9 -3 8 107.99 7.3
-9 3 8 99.09 7.1
9 -3 8 118.69 7.3
-9 -3 8 101.59 6.9
-9 3 -8 89.79 7.8
-9 -3 8 116.69 7.2
9 3 8 104.99 8.2
9 -3 -8 80.49 7.8
0 -4 8 3.1 2.2
0 4 -8 -2.4 2.6
0 -4 -8 -2.5 3
0 4 8 1.2 2.3
0 4 -8 0.2 2.2
0 4 -8 3.8 2.7
0 4 8 1.2 1.6
0 4 8 1.6 2.1
0 -4 8 -0.4 2
0 -4 8 2.6 2
-1 -4 -8 4.1 1.9
1 4 -8 10.8 3.1
1 4 -8 8.5 2.1
-1 -4 -8 9.3 3.4
1 -4 8 7.9 2.2
-1 4 8 9.4 2.5
-1 4 8 9.9 2.4
1 4 -8 6.5 2.4
1 -4 8 10.3 2.2
1 -4 8 6.6 2.4
1 4 -8 3.9 2.6
-1 4 8 6.1 1.9
1 4 8 3.5 2.1
1 4 8 8.8 2.4
-1 -4 8 12.8 2.5
-1 4 -8 9.1 2.9
1 -4 -8 6.6 3.2
-1 4 -8 10.2 2.9
-1 -4 8 6.3 2
-2 4 8 47.5 3.9
-2 -4 -8 45.2 4.8
2 -4 8 52.09 4.2
2 -4 8 60.19 4.6
2 4 -8 50.69 4
2 -4 8 48.3 3.7
-2 4 8 57.79 4.1
2 4 -8 53.99 4.7
2 4 -8 64.49 5.2
-2 4 8 47.2 3.9
-2 -4 -8 54.09 4.2
-2 4 -8 49.8 4.3
2 4 8 55.59 4
2 -4 -8 41.5 4.6
-2 -4 8 53.99 4.6
2 4 8 53.89 4.5
-2 4 -8 43.4 4.3
-2 -4 8 47 3.7
-3 -4 -8 162.18 7.4
3 4 -8 150.78 7.6
3 4 -8 153.68 7.6
-3 -4 -8 160.48 8.7
-3 4 8 163.68 7.3
-3 4 8 159.98 7.6
3 -4 8 160.68 7.6
3 -4 8 161.48 7.5
3 4 -8 154.68 8.2
-3 4 -8 142.89 8.1
3 4 8 161.88 7.5
3 -4 -8 156.98 8.7
-3 4 -8 132.79 7.4
-3 -4 8 168.88 7.5
3 4 8 146.09 6.8
-3 -4 8 145.09 7
4 4 -8 45.3 4.1
4 4 -8 34.6 3.6
4 4 -8 43.1 4.4
-4 -4 -8 44.3 3.9
4 -4 8 38.7 3.9
4 -4 8 44.6 4
-4 4 8 43.7 3.6
-4 4 8 45.2 4.1
4 -4 8 41.8 3.8
4 -4 -8 44.1 4.9
-4 4 -8 35 4.2
4 4 8 43.7 3.7
4 -4 -8 35.4 3.8
-4 -4 8 43.3 4
-4 -4 8 50.19 4.1
-5 -4 -8 29.3 3.7
5 -4 8 27.4 3.6
5 4 -8 26.8 3.7
5 4 -8 30.2 3.5
5 -4 8 25.6 3.6
-5 4 8 21.4 3.3
-5 4 8 32.4 3.7
5 -4 8 30.3 3.6
5 4 -8 22.4 3.8
-5 -4 8 34.1 3.7
-5 -4 8 29.2 3.3
5 -4 -8 28.6 3.5
5 4 8 27.3 3.2
5 -4 -8 32.4 4.5
5 4 8 25 3.8
-5 4 -8 32.5 4
6 -4 8 52.29 4.5
-6 4 8 54.69 4.6
6 4 -8 56.09 5.2
-6 -4 -8 57.09 4.8
6 4 -8 51.79 4.9
6 4 -8 51.49 4.4
-6 4 8 60.69 4.8
6 -4 8 41 4.3
6 -4 8 61.09 5.5
6 -4 -8 60.89 4.5
6 -4 -8 53.39 5.6
-6 -4 8 56.79 4.7
6 4 8 38.1 4.6
6 4 8 52.09 4.1
-6 -4 8 55.89 4.7
-6 4 -8 46.6 4.9
7 4 -8 27.5 3.6
7 4 -8 28.8 4.1
7 -4 8 38.6 4
7 -4 8 28.8 4.1
7 -4 8 22.2 3.7
-7 4 8 39.5 4.1
7 4 8 26.1 3.3
7 -4 -8 25.5 4.8
-7 -4 8 25.4 3.4
7 4 8 24 4.2
-7 -4 8 37 4.2
-7 4 -8 29.1 4.4
8 -4 8 3.9 2.9
8 4 -8 1.1 3.2
8 -4 8 5.2 3.4
-8 -4 -8 8.1 3.6
-8 4 8 6.1 2.8
8 4 -8 2 3
8 -4 8 2.9 3.1
-8 -4 8 3.6 2.7
-8 -4 8 4.9 3
8 4 8 4.3 3.4
8 -4 -8 8.6 4.5
-8 4 -8 3.2 3.6
9 -4 8 4.1 3.4
9 -4 8 3.5 3.3
9 4 -8 -0.2 3.4
9 4 -8 -4.7 2.9
-9 4 -8 7.2 4.7
-9 -4 8 -3.4 2.9
-9 -4 8 2.5 2.7
0 -5 8 0.2 1.9
0 -5 -8 0.8 3.2
0 5 8 0.3 2.2
0 5 8 1.1 1.6
0 5 -8 -1.2 2
0 5 -8 -0.3 2.6
0 -5 8 -0.4 2.1
0 5 -8 1.2 2.6
0 5 8 -3.5 2.2
-1 5 8 16.5 2.8
1 -5 8 15.1 2.5
1 5 -8 10.6 2.9
-1 5 8 17.3 3
1 5 -8 10.8 3.1
-1 -5 -8 7.5 3.7
-1 5 8 14.8 2.1
1 5 -8 6.9 2.3
1 -5 8 11.2 2.6
-1 5 -8 16.7 3.4
1 5 8 15.3 2.8
1 5 8 13.6 2.6
1 -5 -8 6.7 3.3
-1 -5 8 19.1 2.9
-1 -5 8 14.5 2.4
2 5 -8 50.29 4.2
-2 5 8 47.8 3.5
-2 -5 -8 45.8 4.7
2 5 -8 46.9 4.3
2 -5 8 43.7 3.8
2 5 -8 46.9 4.4
2 -5 8 47.4 3.9
-2 5 8 49.2 4.2
2 5 8 46.2 3.8
2 -5 -8 51.29 5.2
2 5 8 36.8 3.7
-2 5 -8 46.4 4.4
-2 -5 8 43.9 3.9
-3 5 8 48.6 4.2
-3 -5 -8 47.6 4.9
3 5 -8 41.6 4.5
-3 -5 -8 42.6 3.7
-3 5 8 41.7 3.6
3 -5 8 44.7 4.1
3 5 -8 49.7 4.2
3 -5 -8 49 5.1
3 5 8 45 3.8
3 -5 -8 43.7 4.1
-3 5 -8 46.6 4.5
-3 -5 8 43.9 4.1
3 5 8 49.3 4
4 5 -8 5.6 3.2
4 -5 8 8.8 2.8
4 5 -8 6.1 2.7
-4 -5 -8 3.5 2.6
-4 -5 -8 6.1 3.3
-4 5 8 2.7 2.4
-4 5 8 9.4 2.9
4 -5 -8 5.9 2.8
-4 -5 8 3.2 2.1
4 5 8 7.2 2.3
4 -5 -8 4.7 3.5
-4 -5 8 9.8 2.8
-4 5 -8 4.6 3.1
5 -5 8 9.2 5.5
5 5 -8 1.4 2.8
-5 5 8 4.3 2.7
-5 -5 -8 6.2 2.9
5 -5 8 4.8 2.7
-5 5 8 5.2 2.7
5 5 -8 2.1 3.3
-5 -5 8 4 2.6
5 -5 -8 5.4 2.8
5 5 8 4.3 2.8
5 5 8 5.6 2.4
-5 5 -8 6.8 3.2
-5 -5 8 6.6 2.5
5 -5 -8 2.7 3.5
6 5 -8 42.6 4.7
-6 5 8 44.7 4.4
6 -5 8 45 4.5
-6 5 8 47.9 4.6
-6 -5 -8 48 4.6
6 5 -8 44.8 4.2
6 -5 -8 49.1 5.6
-6 -5 8 45.9 4.3
6 5 8 34.4 4.4
6 5 8 45.5 4
6 -5 -8 52.79 4.6
-6 -5 8 45.7 4.5
-6 5 -8 43 4.8
7 -5 8 3 2.8
-7 5 8 4.5 3.1
-7 5 8 -0.6 2.7
-7 -5 -8 5.3 3.4
7 5 -8 3.2 3.3
7 5 -8 3.5 2.8
-7 -5 8 2.9 2.7
7 -5 -8 4.6 3.9
7 5 8 0.8 3
-7 5 -8 2.9 3.3
-7 -5 8 0 2.8
8 -5 8 41.1 4.6
-8 5 8 45 4.8
8 5 -8 42 4.4
8 5 -8 48.1 5.3
8 5 8 38.9 5.2
8 -5 -8 39.3 6
-8 -5 8 46.2 4.8
-8 5 -8 42.8 5.2
0 6 -8 201.38 9.2
0 -6 -8 203.28 10.1
0 6 -8 201.88 9.1
0 6 8 194.08 9.2
0 -6 8 194.98 9
0 6 8 197.38 9
0 -6 8 201.78 8.7
0 6 -8 188.18 9.6
1 6 -8 15.6 3.1
1 6 -8 8.2 3.2
1 -6 8 15.6 2.8
-1 6 8 11.4 2.8
-1 -6 -8 12.7 3.7
1 -6 8 17.1 2.9
1 6 -8 17.2 3
-1 6 8 12.4 2.2
1 6 8 19.9 3
1 6 8 15 2.8
-1 -6 8 19.6 3.1
-1 -6 8 15.8 2.5
1 -6 -8 12.2 3
1 -6 -8 16.3 3.7
-1 6 -8 12.9 3.5
-1 6 -8 11.2 3.3
2 6 -8 18.5 3.8
2 6 -8 15.1 2.9
-2 6 8 15.3 3.1
2 6 -8 16.3 3.1
2 -6 8 19.2 2.7
2 -6 8 11 2.9
-2 6 8 18.9 2.6
-2 -6 -8 20.2 3.9
2 -6 -8 18.8 3.8
-2 6 -8 10 3.3
2 -6 -8 16.9 3.3
-2 -6 8 10 2.9
2 6 8 14.5 2.6
2 6 8 21.5 3.1
-3 6 8 -1.8 2.2
3 6 -8 1.5 2.7
-3 -6 -8 -0.4 3.3
3 6 -8 2 2.4
3 6 -8 4 3.1
3 -6 8 2.4 2.8
-3 6 8 2.6 2.6
-3 6 -8 -1.8 2.9
3 6 8 2.2 2.3
3 -6 -8 -1 3.3
-3 -6 8 -2 2.4
3 6 8 0.1 2
3 -6 -8 2.6 2.8
4 -6 8 112.39 7.1
-4 6 8 115.79 6.5
4 6 -8 116.49 6.8
-4 6 8 116.79 7
4 6 -8 118.89 7.6
-4 -6 -8 110.89 7.7
-4 6 -8 95.49 7.1
4 -6 -8 126.19 7.2
-4 -6 8 115.79 6.5
4 -6 -8 103.29 8
4 6 8 109.29 6.4
-4 -6 8 115.79 6.7
5 6 -8 0.3 3.3
-5 6 8 5.8 2.8
-5 -6 -8 8 3.6
5 -6 8 2.8 3
5 6 -8 2.3 2.8
-5 6 8 1.4 2.8
-5 -6 -8 4.1 2.8
5 -6 -8 7.9 3.1
-5 -6 8 2.8 2.4
5 -6 -8 8.5 3.8
5 6 8 8.2 2.6
-5 6 -8 6.8 3.3
-5 -6 8 0.4 2.7
6 6 -8 8.7 3.5
-6 -6 -8 12.1 3.3
6 6 -8 11.8 3.1
6 -6 8 9.1 3.3
-6 6 8 11.6 3.3
-6 6 8 8.1 3
-6 -6 8 10.5 3.2
-6 -6 8 8.7 2.9
6 6 8 11.4 2.9
-6 6 -8 8.6 3.7
6 -6 -8 17.9 3.6
6 6 8 9.3 3.4
6 -6 -8 3.1 3.9
7 -6 8 4 3.3
-7 6 8 7.5 3.2
-7 6 8 9.3 3.4
-7 -6 -8 4.9 3.3
7 6 -8 5.3 3.5
7 6 -8 4.6 2.8
7 -6 -8 4.8 3.4
-7 6 -8 4.4 3.6
-7 -6 8 6.8 3.2
7 6 8 5.8 3.3
7 -6 -8 8.8 4.3
-7 -6 8 5.4 3
0 -7 -8 -2.5 3.1
0 -7 -8 3.1 2.8
0 7 -8 2.7 3.1
0 -7 8 -1.2 2.3
0 7 -8 -3.7 2.5
0 7 8 0.3 2.3
0 7 -8 2.2 2.7
0 -7 8 -1 2.4
1 7 -8 86.19 6.8
1 7 -8 96.89 6.5
-1 7 8 85.39 6.2
1 7 -8 107.89 6.5
-1 -7 -8 104.79 7.2
1 -7 8 95.59 6.3
1 -7 8 96.79 6
-1 7 8 99.19 5
-1 7 -8 86.89 7
1 -7 -8 107.99 6.9
1 -7 -8 100.09 7.1
-1 7 -8 93.49 6.6
1 7 8 93.89 6
-1 -7 8 99.49 6.4
2 7 -8 142.49 7.9
-2 -7 -8 164.88 8.7
-2 7 8 147.69 6.8
2 7 -8 141.09 8.5
2 7 -8 145.59 7.9
-2 7 8 146.59 8.1
2 -7 8 141.79 7.4
2 -7 8 159.68 8
2 -7 -8 137.59 8.1
2 7 8 138.69 7.7
-2 7 -8 125.29 8.3
-2 -7 8 161.88 8
2 7 8 154.38 7.6
2 -7 -8 147.69 8.8
3 -7 8 5.4 3
-3 -7 -8 7.3 3.6
3 7 -8 13 3.1
-3 7 8 6 3
3 7 -8 9.5 3
3 7 -8 9.4 3.4
-3 7 8 11.3 2.5
3 7 8 8.9 2.9
3 -7 -8 13.3 3.5
3 -7 -8 8 3.9
3 7 8 6.5 2.4
-3 7 -8 1.3 3.2
-3 -7 8 11.1 3.1
-4 7 8 56.39 5
4 -7 8 49.1 4.9
4 7 -8 53.09 4.6
-4 7 8 52.49 4.4
4 7 -8 52.59 5.3
-4 -7 -8 55.69 5.6
4 -7 -8 71.19 5.6
-4 7 -8 48.3 5.1
4 7 8 50.09 4.5
4 -7 -8 51.49 5.7
-4 -7 8 56.19 5
5 7 -8 31.3 4.6
-5 7 8 49.9 4.3
-5 -7 -8 32 4.8
5 7 -8 35.4 4
5 -7 8 43.8 4.7
-5 7 8 35.7 4.3
5 7 8 39.1 4
-5 7 -8 27.5 4.4
-5 -7 8 39.8 4.5
-5 -7 8 35.4 4
5 -7 -8 43.1 4.9
5 -7 -8 33.3 5.1
6 7 -8 -4 2.6
6 7 -8 3.3 3.5
-6 7 8 2.7 3.1
-6 7 8 7.3 3.1
6 -7 8 2.2 3.2
-6 -7 -8 7.1 3.6
-6 -7 8 0.4 2.8
-6 7 -8 4 3.5
6 -7 -8 5.4 4.1
-6 -7 8 2.5 3
6 -7 -8 7.5 3.7
-7 7 8 20 3.8
-7 7 8 23.8 4
7 7 -8 24.7 3.7
-7 -7 -8 8.8 4.4
7 -7 -8 21.9 5.1
7 -7 -8 24.1 4.2
-7 7 -8 22.3 4.3
-7 -7 8 30.1 4.1
0 8 -8 11.3 3.7
0 -8 8 12.6 2.9
0 8 -8 8.4 3.3
0 8 -8 14.4 3.3
0 -8 8 9.9 3.2
0 8 8 19.2 3.2
0 -8 -8 15.7 3.7
0 -8 -8 11.8 3.8
-1 -8 -8 4.1 3.5
1 -8 8 5.4 3
1 8 -8 8.1 3.2
-1 -8 -8 11.8 3.4
-1 8 8 9.8 3
1 -8 8 6.4 2.9
1 8 -8 7 3.1
1 8 -8 8.1 3.5
-1 8 -8 2.5 3.3
-1 8 -8 8.2 3.5
1 -8 -8 2.4 3.4
-1 -8 8 7.6 3.2
1 8 8 1.7 2.5
1 -8 -8 8.5 3.5
-2 -8 -8 -0.3 3.4
-2 8 8 1.6 2
2 -8 8 1.5 3
-2 -8 -8 0.5 3
2 8 -8 -2 2.8
2 -8 8 2.1 2.6
2 8 -8 -0.4 2.8
-2 8 8 -4.4 2.4
2 8 -8 4.3 3.4
2 -8 -8 2.2 3.2
2 8 8 -3.6 2.2
-2 -8 8 -0.7 2.9
-2 8 -8 0.2 3.4
2 -8 -8 -2.7 3.3
3 8 -8 2.8 2.9
-3 8 8 1.1 2.7
-3 8 8 1.9 2.2
-3 -8 -8 0 3.5
3 8 -8 -1 3.2
3 -8 8 0.9 3.1
3 8 -8 1.9 2.9
-3 -8 -8 0.1 2.8
3 -8 -8 0 3.4
-3 -8 8 -0.7 3
3 -8 -8 1.7 3.6
3 8 8 -3 2.2
-3 8 -8 -3.4 3.2
-4 8 8 -1.2 2.4
4 8 -8 -1.9 3.4
4 8 -8 -1.4 2.9
-4 -8 -8 0.8 4.6
4 -8 8 -4.3 3.1
-4 8 8 6.4 3.2
-4 -8 8 3.4 3.3
4 -8 -8 1.7 3.8
-4 8 -8 0.1 3.4
4 -8 -8 4 3.5
5 8 -8 -0.8 3.3
5 8 -8 3 2.9
-5 8 8 -3.6 3
-5 8 8 2.7 2.8
5 -8 8 -6.4 3.2
5 -8 -8 0.5 3.6
-5 -8 8 3.4 2.7
5 -8 -8 1.3 4.8
-5 8 -8 -0.7 3.3
-5 -8 8 0.1 3.2
-6 8 8 1.1 3.4
-6 8 -8 -5.4 3.3
-6 -8 8 5.1 3.1
6 -8 -8 2.6 4
0 -9 8 0.9 3
0 9 8 0.9 2.7
0 -9 -8 -2.7 3.2
0 9 -8 1.9 3.2
0 9 -8 -4.5 3.1
0 9 -8 -1.4 2.9
1 -9 8 0.9 2.9
1 9 -8 3.2 3
1 9 -8 3.3 3.5
-1 9 8 1.2 2.7
1 9 -8 0.6 3.2
1 -9 8 4.9 3.1
-1 -9 -8 7 3.5
-1 -9 8 -2.5 3.1
1 9 8 -0.2 2.5
1 -9 -8 3.2 3.7
-1 9 -8 6.3 3.7
-2 9 8 8.5 3.2
2 9 -8 -0.4 3.5
2 9 -8 0.7 3.1
-2 9 8 4.1 2.1
2 -9 8 0.9 3.2
-2 -9 -8 5.9 3.3
2 -9 8 -0.8 3
2 9 -8 2 3
2 9 8 1.6 2.7
-2 9 -8 -0.4 3.4
2 -9 -8 2.9 3.6
-2 -9 8 9.2 3.6
3 9 -8 -4.5 2.9
-3 9 8 3.9 3
3 9 -8 -1.4 3.4
-3 9 8 3 2.3
3 9 -8 -5.1 3
3 -9 8 -5.8 3
-3 -9 -8 0.3 3.2
3 -9 -8 4.4 3.9
-3 9 -8 -7.1 3.2
-3 -9 8 -0.7 3.1
3 9 8 -0.9 2.4
4 9 -8 16.4 4
-4 -9 -8 9.3 3.6
4 -9 8 22 4.4
4 9 -8 20.3 3.8
-4 9 -8 17.5 4.3
0 10 -8 46 8
0 -10 8 43.5 5.1
0 10 -8 37.6 4.6
0 10 -8 33.2 4.9
1 10 -8 -1.5 4.3
1 10 -8 -0.5 3.4
1 10 -8 3.5 3.2
-1 10 -8 -4.2 3.3
0 0 9 1.3 1.8
0 0 -9 1.6 2.3
0 0 -9 -1.1 2.9
0 0 9 -2.6 1.9
0 0 9 0.2 1.9
1 0 9 29.1 3
-1 0 9 35.6 3.1
1 0 9 34.3 2.8
1 0 9 34 3
-1 0 9 28.7 2.9
-1 0 -9 25.4 4.1
1 0 -9 28.2 3.3
-1 0 9 31.2 3
1 0 -9 33.4 4.4
-1 0 -9 33.6 3.5
-2 0 -9 18.9 3
-2 0 9 17.9 2.8
2 0 -9 21.5 3.9
2 0 9 24.4 3
-2 0 9 22.7 2.8
2 0 9 19.5 2.6
-2 0 -9 18.6 3.8
2 0 9 23.5 2.4
-2 0 9 21 2.6
2 0 -9 23.7 3
-3 0 -9 0.7 3.2
-3 0 9 2.9 1.9
3 0 -9 2.4 3.4
3 0 9 2 2.1
-3 0 9 4 2.3
-3 0 -9 0.2 2.5
3 0 -9 4.5 2.5
-3 0 9 1.1 2.2
3 0 9 6.6 2.4
4 0 -9 79.89 5.2
-4 0 9 77.39 5.3
-4 0 9 68.29 4.3
4 0 -9 78.69 6.7
-4 0 -9 71.49 5.7
4 0 9 71.89 6.1
4 0 9 76.19 5.2
-4 0 9 76.19 5.2
4 0 9 67.09 4.7
-5 0 9 786.32 29.6
5 0 -9 882.11 30.8
5 0 9 805.72 29.5
5 0 9 810.62 29
5 0 -9 804.52 30.5
5 0 9 848.22 30.3
-5 0 -9 826.62 29.9
6 0 -9 61.39 5.8
-6 0 9 62.09 4.9
6 0 9 58.19 5.4
6 0 9 55.59 4.5
6 0 9 58.59 4.6
-6 0 -9 56.19 5
-7 0 9 -1.6 2.5
7 0 9 -0.4 2.3
7 0 9 2.4 2.5
7 0 -9 -0.7 3.4
7 0 9 1.5 3.1
-7 0 -9 3 3.2
8 0 9 28.8 3.6
-8 0 -9 28.9 4.5
-8 0 9 29.8 3.9
8 0 9 29.6 3.3
8 0 9 27.2 4.5
8 0 -9 23 4.9
9 0 9 130.69 7.6
9 0 9 134.69 9.3
-9 0 9 124.29 7.5
9 0 -9 126.99 9.3
0 -1 9 213.08 9.2
0 -1 -9 227.68 9.3
0 1 9 221.58 8.9
0 -1 -9 220.18 10.5
0 1 -9 214.78 10.3
0 1 9 217.88 9.2
0 1 9 217.18 9.1
0 -1 9 225.78 9.1
0 1 -9 234.68 9.7
0 -1 9 224.68 9.2
-1 1 9 48.4 3.6
1 -1 9 59.89 4.3
-1 -1 -9 41.1 4.6
1 -1 9 54.19 4.4
-1 1 9 52.79 4.2
1 -1 9 54.09 3.8
1 1 -9 50.59 4.9
1 1 -9 53.59 4.3
-1 1 9 53.19 4.4
-1 -1 -9 52.29 4.4
1 1 9 55.79 4
1 -1 -9 52.89 4.9
1 1 9 53.79 4
-1 1 -9 48.4 4.6
-1 -1 9 55.49 4
1 -1 -9 54.99 4.4
-1 -1 9 52.09 4.2
-1 -1 9 55.29 4.4
1 1 9 56.29 4.5
-1 1 -9 57.99 4.5
-2 1 9 16.6 2.5
2 -1 9 21.6 2.8
-2 1 9 13 2.5
-2 -1 -9 15.8 2.9
2 -1 9 19.4 2.3
2 1 -9 18.8 3.1
2 -1 9 16.8 2.6
-2 -1 -9 22.6 4
-2 1 9 23 2.8
2 1 -9 14.3 3.5
-2 -1 9 19.9 2.5
-2 1 -9 18.8 3.1
2 -1 -9 19.8 3.8
-2 -1 9 17.8 2.7
-2 -1 9 17 2.9
2 1 9 15.1 2.2
2 1 9 18.3 2.3
-2 1 -9 14.9 3.6
2 1 9 14.3 2.5
2 -1 -9 16.8 2.7
3 1 -9 68.59 5.1
3 1 -9 70.69 6.4
-3 1 9 68.79 4.6
-3 -1 -9 67.29 6
3 -1 9 64.99 4.9
-3 -1 -9 66.69 5.1
-3 1 9 68.69 4.8
-3 1 9 64.99 4.8
3 -1 9 66.89 4.7
3 1 9 68.79 4.2
3 1 9 63.99 4.9
-3 1 -9 71.49 5.5
-3 1 -9 63.89 5.3
3 -1 -9 52.29 4.4
-3 -1 9 67.99 4.8
3 1 9 61.09 4
-3 -1 9 68.49 4.9
-3 -1 9 68.09 4.2
3 -1 -9 59.09 5.4
-4 1 9 164.38 7.9
-4 -1 -9 173.78 8.3
4 -1 9 161.58 7.8
-4 1 9 160.38 7.3
4 1 -9 167.38 9
-4 1 9 173.98 7.8
4 1 -9 182.78 8.1
4 -1 9 148.89 8.4
4 -1 9 163.58 7.6
4 -1 -9 178.68 9.5
4 1 9 171.28 7.9
-4 1 -9 152.88 8.2
4 1 9 165.88 8.6
4 1 9 167.68 7.1
-4 -1 9 153.68 7.8
5 -1 9 8.5 2.6
-5 -1 -9 13.7 3.3
5 -1 9 5.6 3
5 -1 9 10.8 2.6
-5 1 9 8.6 2.7
-5 1 9 9.4 2.7
5 1 -9 10.3 3
5 1 -9 8.5 3.4
5 1 9 12.7 3.3
5 1 9 10.5 2.7
-5 -1 9 18.9 3.1
5 -1 -9 6.9 3.6
5 1 9 9.6 2.1
-5 1 -9 12.3 3.2
-6 -1 -9 67.59 5.9
6 -1 9 69.69 5.1
-6 1 9 67.49 5.3
6 1 -9 64.09 5.5
6 1 -9 72.99 6.8
6 -1 9 76.39 6.4
6 -1 9 57.39 4.6
-6 1 -9 55.89 5.1
-6 -1 9 71.39 5.5
6 1 9 60.89 4.8
6 1 9 57.19 4.4
6 1 9 68.09 6.3
6 -1 -9 67.79 6.2
-7 1 9 53.69 4.7
7 -1 9 48.6 5.2
7 -1 9 44.9 4
7 1 -9 37.2 5
7 -1 9 42.8 4.1
-7 -1 -9 35.7 4.5
-7 -1 9 51.89 4.6
-7 1 -9 44.2 4.9
7 1 9 44.1 5.2
7 1 9 52.59 3.6
7 1 9 35.4 3.9
7 -1 -9 36.8 5.3
-8 -1 -9 12.5 3.8
8 -1 9 7.6 3.7
8 -1 9 9.6 2.9
8 -1 9 15.2 3.3
-8 1 9 14.6 3.2
8 1 -9 8.6 4.1
-8 1 -9 12.4 4
8 1 9 14 4
8 1 9 16.9 2.7
8 -1 -9 12.4 4.5
-8 -1 9 6.5 3.1
8 1 9 10.7 2.9
9 -1 9 21.6 4.5
9 1 -9 5.4 4.2
9 -1 9 19.6 3.5
9 -1 9 19.6 4.2
-9 1 9 13.9 3.4
-9 -1 9 15.6 3.6
0 -2 9 -2.3 1.7
0 2 9 0 1.9
0 -2 9 3.1 2.1
0 -2 -9 -8.4 2.9
0 -2 -9 1.5 2.2
0 2 -9 -0.6 2.6
0 2 9 0.9 2.2
0 2 9 -0.6 1.8
0 -2 9 -2.2 2.2
0 2 -9 -2.5 3
1 2 -9 43.8 4.5
-1 2 9 45.9 3.7
1 -2 9 53.39 3.9
-1 2 9 49.1 4.2
-1 2 9 58.69 3.9
1 -2 9 56.39 4.4
1 2 -9 56.19 4.6
1 -2 9 59.29 4
-1 -2 -9 50.79 4.3
-1 -2 -9 50.19 5
1 2 9 52.99 3.8
-1 2 -9 57.69 4.6
-1 -2 9 53.39 4.2
1 2 9 50.29 4
1 2 9 45 3.8
1 -2 -9 49.9 4
-1 2 -9 40.6 4.6
1 -2 -9 49.3 5.1
-1 -2 9 56.39 4.2
-1 -2 9 51.19 4.1
-2 2 9 1.9 2.1
2 2 -9 -0.1 2.7
-2 2 9 -2.2 1.9
-2 -2 -9 -2.1 2.2
-2 2 9 2.7 2.2
2 2 -9 4.6 3.2
2 -2 9 1.1 2.1
2 -2 9 -2.9 2.1
-2 -2 -9 -0.4 3.2
2 -2 9 1.5 1.7
-2 -2 9 4.8 2.3
2 -2 -9 0.7 3.2
-2 2 -9 4.1 2.7
2 2 9 2 1.8
2 2 9 0.5 2.1
2 2 9 -0.1 1.8
-2 -2 9 2.5 2.4
-2 -2 9 6.9 1.9
-2 2 -9 3.6 3.3
-3 -2 -9 14.9 2.9
-3 2 9 12.7 2.6
3 2 -9 13.5 3.4
-3 2 9 17 2.6
-3 -2 -9 16.9 3.8
3 -2 9 11.3 2.6
-3 2 9 18.5 2.9
3 2 -9 18 3.3
3 -2 9 14.7 2.7
-3 -2 9 12.9 2.7
-3 2 -9 18.4 3.6
3 2 9 18.8 2.2
-3 -2 9 26.2 5.5
3 2 9 15.5 2.8
3 2 9 18.9 2.3
3 -2 -9 10.1 3.7
-3 -2 9 16.9 2.3
-3 2 -9 13.2 3
4 -2 9 44.6 3.9
4 -2 9 47.1 3.9
-4 2 9 56.19 4.3
4 -2 9 48.1 4.4
-4 -2 -9 44.2 4.2
4 2 -9 42.1 4.1
-4 2 9 49.5 3.7
4 2 -9 45.3 4.6
-4 2 9 46.1 4
-4 -2 9 45.1 4
4 2 9 42.6 3.8
-4 2 -9 40.8 4.3
4 -2 -9 34.4 4.7
4 2 9 43.6 3.5
5 -2 9 4.7 2.5
5 -2 9 3.6 2.5
5 2 -9 -1.6 3
-5 -2 -9 6 2.9
-5 2 9 2.8 2.4
5 -2 9 2 2.9
-5 2 9 1.4 2.6
5 2 -9 1.1 2.8
5 -2 -9 0.1 2
-5 -2 9 6.1 2.7
5 2 9 2 2.8
-5 2 -9 -2.6 2.7
5 -2 -9 -2.1 3.3
5 2 9 1.5 1.8
5 2 9 5.1 2.5
6 -2 9 17 3.1
-6 2 9 24.3 3.4
-6 -2 -9 23.7 3.8
6 -2 9 18.8 3.7
6 2 -9 20.3 3.6
6 -2 9 21.8 3.3
6 2 -9 21.7 4.1
-6 -2 9 23.9 3.5
6 2 9 22.9 2.5
6 2 9 26.6 4.2
6 2 9 19.2 3.1
-6 2 -9 22.6 3.9
6 -2 -9 22 4.6
7 2 -9 24.9 4.5
7 -2 9 25.3 4.2
7 -2 9 32.6 3.8
-7 2 9 31.7 3.7
-7 -2 -9 23.4 4.1
7 2 -9 28.7 3.9
7 -2 9 37.3 3.9
-7 -2 9 28.7 3.9
-7 2 -9 21.7 4.1
7 -2 -9 27 4.7
7 2 9 23.9 3.3
7 2 9 29 4.4
-8 -2 -9 1.9 3.5
8 -2 9 -0.4 3.2
8 -2 9 -1.5 2.7
-8 2 9 3.5 2.7
8 2 -9 -2.1 3.3
8 -2 9 3.1 2.8
8 2 9 3.8 3.4
-8 2 -9 0.8 3.6
8 -2 -9 -1 4
-8 -2 9 -1.1 2.8
8 2 9 -2.7 2.3
9 -2 9 -0.4 3.7
-9 2 9 -1.6 2.7
9 2 -9 0 3.8
9 -2 9 1.8 3.5
9 -2 9 0.8 2.7
-9 -2 9 1.4 3
0 -3 -9 11.5 3.5
0 -3 9 10.6 2.3
0 -3 9 14.7 2.7
0 3 -9 6.7 3.3
0 3 9 9.4 2
0 3 9 13.3 2.5
0 3 9 10.4 2.6
0 3 -9 8.1 3
0 -3 9 7.9 2.3
0 -3 -9 15.9 4
-1 3 9 136.09 6.2
1 3 -9 134.59 7.7
-1 -3 -9 139.59 8.3
1 -3 9 130.29 6.3
1 -3 9 131.59 6.7
-1 3 9 141.39 6.9
-1 3 9 137.29 6.8
1 3 -9 129.29 7.4
1 -3 9 141.39 6.8
-1 -3 -9 137.89 6.5
-1 -3 9 132.59 6.8
1 3 9 130.99 6.5
1 -3 -9 141.39 8.3
1 3 9 129.89 6.8
-1 -3 9 136.19 6.3
1 3 9 136.49 5.9
-1 3 -9 120.99 7.4
-1 3 -9 120.49 7.4
-1 -3 9 139.59 6.7
2 -3 9 134.79 6.9
-2 -3 -9 125.29 8.1
-2 3 9 140.79 6.5
2 3 -9 146.39 7.7
2 3 -9 131.89 7.6
2 -3 9 130.59 6.3
2 -3 9 145.29 6.9
-2 3 9 141.39 6.9
-2 3 9 129.49 6.9
-2 -3 -9 129.89 6.6
2 3 9 143.89 5.9
-2 3 -9 123.39 7.5
-2 -3 9 131.59 6.8
2 3 9 130.49 6.9
-2 3 -9 130.49 7.7
2 -3 -9 139.69 8.4
-2 -3 9 141.79 6.3
2 3 9 133.49 6.4
3 -3 9 113.69 6.3
-3 -3 -9 121.19 7.7
-3 3 9 114.09 6.5
3 3 -9 124.49 7
-3 -3 -9 115.39 6.4
-3 3 9 122.19 6.4
3 -3 9 117.79 6.4
3 3 -9 119.39 7.2
-3 3 9 116.59 6.1
-3 3 -9 103.89 6.8
3 3 9 115.99 6.4
3 3 9 106.49 5.6
3 -3 -9 113.69 8
-3 3 -9 98.79 6.8
-3 -3 9 118.29 6.4
-4 3 9 2.8 2.5
4 3 -9 0.2 2.9
4 -3 9 3.1 2.4
-4 3 9 2 2.3
4 3 -9 1.8 2.9
4 -3 9 -2.9 2.4
-4 -3 -9 3.1 2.6
-4 -3 9 4.9 2.5
4 -3 -9 0.7 3.4
4 3 9 2.7 2.4
-4 3 -9 -0.1 2.8
-5 3 9 65.49 5.4
5 3 -9 58.29 5.1
5 -3 9 65.09 5.4
-5 -3 -9 79.59 6
5 3 -9 64.99 6.1
5 -3 9 69.09 6
5 -3 9 71.59 5.5
-5 3 9 75.79 5.6
5 3 9 66.19 6.1
5 -3 -9 77.89 5.4
5 3 9 73.59 5.3
5 -3 -9 53.79 5.7
-5 -3 9 65.39 5.5
-5 3 -9 62.29 5.4
6 3 -9 9.1 3.5
6 3 -9 5.9 3.2
6 -3 9 5.7 3.1
-6 3 9 2.5 2.8
-6 -3 -9 8.5 3.4
6 -3 9 1.9 2.7
6 -3 9 13.8 3.2
-6 3 9 3.3 2.7
6 -3 -9 1.2 3.6
6 3 9 3.1 3.1
6 3 9 13.6 2.8
-6 3 -9 11.1 3.5
-6 -3 9 8.7 2.9
7 -3 9 5.6 3.3
7 -3 9 6.5 3.1
-7 -3 -9 4.5 3.3
-7 3 9 3.7 2.8
7 3 -9 8.4 3.7
7 -3 9 6.8 2.9
7 3 -9 6.5 3.3
7 3 9 2.4 3.1
-7 3 -9 6.3 3.5
7 -3 -9 2.2 3.9
7 3 9 7.5 2.6
-7 -3 9 6.8 3.1
8 -3 9 55.99 5
-8 3 9 58.19 5
8 3 -9 50.49 5.6
8 -3 9 48.2 5.3
8 -3 9 56.19 5
8 3 -9 47.5 5
8 -3 -9 48.1 6.3
-8 3 -9 46.2 5.4
8 3 9 51.79 4.9
-8 -3 9 54.99 5.1
8 3 9 40.7 5.4
0 4 9 3.1 1.8
0 4 9 -2 2.1
0 -4 -9 -0.3 3.3
0 -4 9 2.5 2.1
0 4 -9 -1 2.9
0 4 9 1.4 2.5
0 -4 9 -2.3 2
1 -4 9 255.47 10.5
1 4 -9 265.57 11.5
1 -4 9 268.67 10.7
-1 4 9 257.57 10.9
-1 4 9 258.47 10.2
1 -4 9 267.97 10.9
-1 4 9 256.77 10.9
-1 -4 -9 274.77 12.2
1 4 9 254.37 10.7
1 4 9 256.27 10.9
1 4 9 259.47 9.9
-1 -4 9 261.17 10.4
-1 4 -9 239.98 11.3
1 -4 -9 284.37 12.4
-1 -4 9 265.07 10.8
-2 4 9 33 3.5
-2 4 9 36.9 3.7
-2 4 9 30.5 3
2 -4 9 38.2 3.6
2 -4 9 30.4 3
2 4 -9 37.1 4.2
-2 -4 -9 30.5 3.1
-2 -4 -9 26.1 4.4
2 -4 9 34 3.5
-2 -4 9 38.6 3.7
-2 -4 9 30.6 3
2 -4 -9 36.6 4.7
-2 4 -9 31.3 4
2 4 9 29.7 3.4
2 4 9 29.9 3.1
-3 4 9 202.28 9.2
3 -4 9 199.48 9.1
3 4 -9 202.18 10
3 4 -9 185.58 9.6
-3 -4 -9 210.28 10.5
-3 4 9 195.38 8.8
-3 -4 -9 198.88 8.9
3 -4 9 194.18 9.2
-3 4 -9 187.28 9.7
-3 4 -9 260.07 12.3
3 -4 -9 196.98 10.4
3 4 9 192.28 8.5
-3 -4 9 195.28 9.1
3 4 9 201.28 9
-4 4 9 8.7 2.7
-4 -4 -9 7.6 3.5
4 4 -9 12 3.4
4 4 -9 5.5 2.7
-4 -4 -9 4.6 2.8
4 -4 9 5.5 2.6
-4 4 9 11 2.9
4 -4 9 4.6 2.8
-4 4 -9 9.2 3.2
4 -4 -9 8.1 2.7
4 4 9 10.8 2.7
-4 -4 9 6.7 2.8
4 -4 -9 3.6 3.6
5 4 -9 4.6 3.2
5 4 -9 3.2 2.7
5 -4 9 3.6 3
-5 4 9 2.6 2.5
5 -4 9 3.1 3
-5 4 9 4 2.7
5 -4 9 1.1 2.6
-5 -4 -9 8.3 3
5 4 9 5.9 2.5
-5 4 -9 3.2 3.1
5 -4 -9 4.6 2.7
-5 -4 9 4.7 2.7
5 -4 -9 6.7 3.8
-6 -4 -9 3.3 3.1
6 -4 9 4.9 4
-6 4 9 7.7 2.9
-6 4 9 0.4 2.6
6 4 -9 1.9 3.2
6 -4 9 5.4 3.1
6 4 -9 -2.9 2.5
6 -4 9 6.3 2.9
-6 -4 9 -0.3 2.7
6 4 9 2.7 3
6 4 9 3.7 2.6
-6 4 -9 -1.9 3.1
6 -4 -9 6.5 4
7 -4 9 0.5 3.1
7 4 -9 2 3.3
-7 -4 -9 3.8 3.4
7 -4 9 3.1 2.9
-7 4 9 0.9 2.7
7 4 -9 2.4 2.8
7 -4 -9 4.1 3.9
-7 -4 9 -3.7 2.8
7 4 9 -0.1 2.5
-7 4 -9 0.3 3.5
7 4 9 3.3 3.2
8 -4 9 27.2 4
-8 -4 -9 26.5 4.4
8 -4 9 28.8 4.4
-8 4 9 31.8 4.1
8 4 -9 18 4.1
8 4 9 20.7 4.4
-8 4 -9 20.5 4.6
-8 -4 9 27.1 4.2
8 -4 -9 14.2 4.9
0 -5 9 71.09 5.1
0 5 9 66.09 5.2
0 -5 -9 72.69 6.8
0 5 9 74.09 5.6
0 5 -9 65.09 5.5
0 5 9 69.49 4.2
0 -5 9 80.29 5.1
-1 5 9 11.3 2.9
-1 -5 -9 5 3.8
1 -5 9 11.9 2.6
1 -5 9 11 2.5
1 5 -9 4.2 3.1
-1 5 9 11.4 2.8
-1 5 9 10.8 2.1
1 5 9 13 2.7
-1 -5 9 12.5 2.8
-1 -5 9 7.1 2.2
-1 5 -9 12 3.4
1 -5 -9 8.5 3.8
1 5 9 12.1 2.9
2 5 -9 -0.6 2.9
-2 -5 -9 -2.3 3.4
2 -5 9 0.3 2
2 -5 9 -1 2.3
-2 5 9 -4 1.8
2 5 -9 2 3
-2 5 9 0 2.5
2 5 9 -1.2 2
2 5 9 0.9 2.4
-2 -5 9 3.8 2.5
2 -5 -9 -3.6 3.3
-2 5 -9 1.3 2.9
-3 5 9 9.6 2.9
-3 5 9 7.1 2.5
3 5 -9 6.8 3.3
3 5 -9 12.6 3
3 -5 9 7.3 2.8
-3 -5 -9 10.3 3.8
3 -5 -9 4.6 2.8
-3 -5 9 9.3 2.8
3 -5 -9 4.4 3.8
-3 5 -9 11.8 3.3
3 5 9 7.1 2.6
3 5 9 9.2 2.2
-4 -5 -9 19 3.2
-4 -5 -9 26.2 4.4
4 -5 9 26.4 3.6
4 5 -9 20.3 3.3
-4 5 9 18.9 3.4
4 5 -9 23.7 4
-4 5 9 24.8 3.2
4 5 9 23.8 3.2
4 -5 -9 21.4 4.5
-4 -5 9 27.4 3.7
4 -5 -9 21.3 3.6
-4 5 -9 30.8 4.4
-5 5 9 0.2 2.5
-5 -5 -9 6 3.6
5 -5 9 4.8 2.9
-5 -5 -9 1.5 2.9
5 5 -9 -0.9 2.8
-5 5 9 1.3 2.7
5 5 -9 1 3.2
5 -5 -9 6.5 3.9
-5 5 -9 3.6 3.3
5 -5 -9 -2.5 2.6
-5 -5 9 2.6 2.8
5 5 9 -0.8 2.3
-6 5 9 1 2.9
6 -5 9 -1.2 2.8
-6 -5 -9 1.4 3
6 5 -9 -2.3 2.5
6 5 -9 2.3 3.3
-6 5 9 4.4 3
-6 -5 9 0.2 2.8
6 5 9 3.7 2.5
6 -5 -9 1.1 2.8
-6 5 -9 2 3.4
6 -5 -9 -4.1 3.6
7 5 -9 -0.7 3.2
7 5 -9 -2.8 2.8
-7 -5 -9 4.2 3.4
-7 5 9 1.5 3
-7 5 9 1.1 2.8
7 -5 9 -0.9 2.8
-7 -5 9 -1.5 2.9
7 5 9 2.8 3.4
7 5 9 -1.8 3.3
-7 5 -9 3.5 3.5
7 -5 -9 -3.7 3.9
0 6 9 -2.2 2.4
0 -6 9 -1.2 2.3
0 -6 9 3.1 2.3
0 6 -9 -3.4 3
0 6 9 -5.4 2.5
0 -6 -9 -5.1 3.1
1 6 -9 -1.1 3.1
-1 6 9 -0.5 1.8
-1 6 9 0.4 2.5
-1 -6 -9 -3.5 3.2
1 -6 9 -0.9 2.4
1 -6 9 -3 2.2
-1 6 -9 1.9 3.2
1 6 9 -1 2.5
1 -6 -9 2.7 3.3
1 6 9 0.8 2.3
-1 -6 9 2 2.6
2 -6 9 2.6 2.7
2 6 -9 2.1 2.7
2 -6 9 3.9 2.3
2 6 -9 0.9 3.2
-2 -6 -9 -0.9 3.5
-2 6 9 5 2.8
-2 6 9 5.7 2.2
-2 -6 9 1.8 2.7
2 -6 -9 4.1 2.9
2 -6 -9 3.6 3.5
-2 6 -9 2.4 3.3
2 6 9 0 2.5
2 6 9 4.5 2.3
-3 6 9 59.89 5.1
3 6 -9 54.69 4.6
-3 -6 -9 59.49 5.8
3 -6 9 60.69 4.9
3 6 -9 62.99 5.6
-3 6 9 53.69 4.2
3 6 9 54.59 4.7
3 6 9 57.59 4.7
-3 6 -9 49.8 5.2
-3 -6 9 58.29 4.9
3 -6 -9 59.89 5.2
3 -6 -9 55.69 5.9
4 6 -9 11.8 3.3
-4 6 9 8.9 3.2
4 -6 9 14.5 3.3
-4 6 9 13.4 3
-4 -6 -9 12.5 4.1
4 6 -9 13.3 3.7
-4 6 -9 14.4 3.9
4 -6 -9 11.6 3.5
4 -6 -9 12.8 4.2
-4 -6 9 13.8 3.3
4 6 9 14.8 3.1
-5 6 9 21.1 3.8
5 -6 9 32 4.1
-5 6 9 34.3 4
5 6 -9 27.7 4.5
-5 -6 -9 29.4 4.7
5 6 -9 28.3 4
-5 -6 9 30.7 4.2
5 -6 -9 24.3 4.9
-5 6 -9 28.4 4.4
5 -6 -9 33.5 4.3
5 6 9 26.5 3.6
6 -6 9 42 4.7
-6 6 9 45.3 4.6
-6 6 9 32.1 4.4
-6 -6 -9 49.9 5.7
-6 -6 -9 32.1 4.4
6 6 -9 34.5 4.9
6 6 -9 34.8 4.4
-6 6 -9 45.4 5.4
6 -6 -9 33.3 5.6
-6 -6 9 37 4.6
6 -6 -9 44.2 4.9
6 6 9 38.8 4.1
-7 -6 -9 6.2 3.6
7 6 -9 14.9 3.4
-7 6 9 14.8 3.5
7 6 -9 15.7 5.6
-7 6 9 6.8 3.4
-7 -6 9 18.4 6.3
7 -6 -9 17.5 4.8
-7 6 -9 10.3 4.2
0 -7 -9 56.29 5.7
0 -7 -9 52.99 5
0 7 9 64.49 5.3
0 -7 9 68.09 5.3
0 7 -9 59.39 5.7
0 -7 9 67.59 5.2
1 -7 9 7.7 2.8
-1 7 9 6 3
1 -7 9 7.8 2.9
-1 7 9 7.4 2
1 7 -9 14.3 3.7
-1 -7 -9 6.4 3.8
1 -7 -9 9.6 3.4
1 7 9 7.1 2.6
1 -7 -9 10.3 3.8
-1 7 -9 7.8 3.7
-1 -7 9 11.6 3.2
2 -7 9 19.9 3.6
-2 -7 -9 17.5 4.3
-2 7 9 23.6 2.7
2 7 -9 15.8 3.9
2 7 -9 17.7 3.5
-2 7 9 25.9 3.9
2 -7 9 25.9 3.7
2 7 9 16.1 3.4
2 7 9 18.3 3.1
-2 -7 9 25.1 3.8
2 -7 -9 20.3 4.5
2 -7 -9 21.8 3.9
-2 7 -9 17 4.1
-3 -7 -9 33 4.9
-3 7 9 28.9 4.2
3 7 -9 37.9 4.3
-3 7 9 30.1 3.3
3 7 -9 38.3 4.9
3 -7 9 27.2 3.9
3 7 9 30.3 3.9
3 -7 -9 27.7 4.2
3 -7 -9 25.7 4.9
3 7 9 24.3 3.3
-3 7 -9 23 4.3
-3 -7 9 29.7 4.2
-4 7 9 3.4 3
-4 -7 -9 3.5 3.9
4 7 -9 -1.1 3.4
4 7 -9 1.6 2.8
4 -7 9 5.8 3.2
-4 7 9 6.8 2.7
-4 7 -9 1.5 3.4
4 -7 -9 -0.4 3.2
-4 -7 9 -0.5 2.9
4 -7 -9 -2 3.6
4 7 9 -4 2.5
-5 7 9 -1 2.6
5 -7 9 1.4 3.2
5 7 -9 -1.8 3.4
-5 -7 -9 4.5 3.9
5 7 -9 0.5 3
-5 7 9 4 3.3
5 -7 -9 -0.3 3.3
-5 -7 9 7.3 3.4
5 -7 -9 1.4 3.9
-5 7 -9 1.1 3.4
5 7 9 -7.1 2.3
-6 -7 -9 -0.9 4
6 7 -9 1 2.9
-6 7 9 3.9 3.3
-6 7 9 2.2 2.9
-6 7 -9 3.2 3.8
6 -7 -9 1.8 3.5
6 -7 -9 -4.4 3.8
0 8 -9 -4.3 3.3
0 -8 -9 1.8 3.2
0 8 9 -2.4 2.4
0 -8 9 0 2.9
0 -8 -9 -6 3.5
1 8 -9 13.7 4
-1 -8 -9 14.4 4.3
1 -8 9 9.8 3.1
1 -8 9 14.7 3.4
1 8 -9 14.2 3.8
-1 -8 -9 8.1 3.4
-1 8 9 15.6 3.4
-1 -8 9 12.4 3.4
1 -8 -9 16.8 4.3
-1 8 -9 5.8 3.7
1 -8 -9 22.6 4.1
1 8 9 13.1 3.2
-2 -8 -9 4.8 3.8
-2 -8 -9 5.5 3.4
2 -8 9 6.6 3.2
-2 8 9 9 2.3
-2 8 9 8.7 3.2
2 8 -9 4.9 3.2
2 8 -9 6 3.7
-2 -8 9 10 3.6
-2 8 -9 1 3.6
2 8 9 8.3 2.7
2 -8 -9 11.7 3.8
2 -8 -9 8.4 4
3 8 -9 3.2 3.1
3 8 -9 1.4 3.6
-3 8 9 4.3 3
3 -8 9 -1.5 3.1
-3 8 9 -3 2.2
-3 -8 -9 -1.1 3.5
-3 -8 9 2.3 3.3
3 8 9 3.9 2.5
3 -8 -9 0 3.5
-3 8 -9 4.7 3.6
3 -8 -9 -0.6 3.8
4 -8 9 14.9 3.8
-4 8 9 15 3
4 8 -9 14.2 4.1
-4 8 9 10.4 3.7
-4 -8 -9 10.3 4.2
4 8 -9 8.2 3.4
-4 -8 9 15.9 3.9
4 -8 -9 3.8 4.2
4 -8 -9 21 4.4
-4 8 -9 17.9 4.3
5 8 -9 51.69 5.1
-5 -8 -9 29.5 6.3
5 -8 -9 50.59 6.1
-5 8 -9 46.2 5.5
0 9 9 3 2.9
0 9 -9 4.8 3.7
0 -9 -9 2.1 3.7
0 -9 9 5 3.3
1 9 -9 3.4 3.8
1 -9 9 -2.1 3
-1 9 9 1.6 2.9
1 9 -9 -2.1 3
-1 -9 -9 3.8 3.5
1 9 9 -1.4 2.6
1 -9 -9 -0.4 3.7
-1 9 -9 -0.7 3.6
-1 -9 9 -4.1 3.1
2 9 -9 0.1 3.2
2 -9 9 -3 3.2
-2 -9 -9 4.3 3.5
2 9 -9 -0.9 4.3
2 9 9 3.7 2.7
-2 -9 9 1.4 3.8
-2 9 -9 -0.6 3.6
3 9 -9 -5.9 3
3 -9 9 6.1 3.7
3 9 9 0.2 2.5
-3 9 -9 2.6 3.9
0 0 10 200.68 8.9
0 0 -10 212.98 10.5
0 0 -10 218.38 9.4
0 0 10 201.68 8.9
0 0 10 217.58 9.2
1 0 10 51.09 4
1 0 10 48.5 3.7
1 0 10 40.6 3.6
-1 0 -10 44.7 4.9
-1 0 -10 56.59 4.5
-1 0 10 43.6 3.7
-1 0 10 54.59 4.1
-1 0 10 58.39 4.5
1 0 -10 42.1 5
1 0 -10 57.09 4.4
-2 0 -10 220.48 9.8
-2 0 -10 226.28 10.8
-2 0 10 229.68 9.3
2 0 -10 217.98 9.6
2 0 10 214.98 9.6
2 0 10 202.78 8.9
2 0 10 218.38 9.1
-2 0 10 218.38 9.5
-2 0 10 222.58 9.4
-3 0 -10 88.69 6.3
3 0 10 90.09 5.4
3 0 10 91.69 6
-3 0 10 90.89 5.4
-3 0 10 87.79 5.8
3 0 -10 92.39 5.7
-3 0 -10 101.59 7.6
3 0 -10 86.29 7.4
-3 0 10 101.69 5.9
-4 0 -10 51.59 5.3
4 0 10 45.1 3.5
4 0 10 39.6 4
-4 0 10 51.29 4.1
4 0 -10 36.5 4.9
4 0 -10 46.7 6.5
-4 0 10 43.1 4
-4 0 -10 37.7 4.2
5 0 -10 6.5 3.7
5 0 10 1 2.2
5 0 10 3.4 3.2
-5 0 10 4.4 2.6
-5 0 -10 1.9 2.9
5 0 10 -1.5 2.3
6 0 10 14.9 3.1
-6 0 -10 8.8 3.5
6 0 -10 9.8 4.1
6 0 10 9.6 3.5
6 0 10 12.7 2.7
-6 0 10 13.2 3.3
-7 0 10 2.4 2.8
-7 0 -10 3.9 3.4
7 0 10 8.6 2.9
7 0 -10 1.2 3.6
7 0 10 6 3.6
7 0 10 1.2 2.4
8 0 -10 25.6 5.2
8 0 10 30.6 4.8
8 0 10 38.7 4.3
-8 0 10 44.1 4.5
8 0 10 39.3 3.7
-8 0 -10 29.8 4.7
0 1 -10 -6.3 2.5
0 -1 10 0.1 2.1
0 -1 10 0.6 2
0 -1 -10 -4 3.3
0 1 10 -0.1 2
0 1 10 -0.4 2.1
0 -1 -10 -4.8 2.3
0 1 10 1.2 2.1
0 1 -10 -5.8 3.3
0 -1 10 -0.1 2.3
-1 -1 -10 154.38 7.6
1 1 -10 157.18 7.9
1 -1 10 138.39 7.4
-1 1 10 150.38 7.4
1 -1 10 155.78 7.1
1 -1 10 154.28 7.3
-1 1 10 162.28 7.2
-1 1 10 162.38 7.5
-1 -1 -10 148.99 9
1 -1 -10 155.98 7.5
-1 1 -10 138.89 8.6
1 1 10 164.98 7.1
-1 1 -10 154.08 8
1 1 10 145.29 7.4
-1 -1 10 160.48 7.3
-1 -1 10 152.08 7.4
-1 -1 10 160.88 7.5
1 1 10 159.48 7.1
-2 -1 -10 2.6 2.5
-2 1 10 1.7 2.2
2 -1 10 2.3 2.4
2 -1 10 7.4 2.4
2 1 -10 -4.8 3.2
-2 1 10 1.8 2.2
2 1 -10 -0.4 2.7
-2 -1 -10 -3.5 3.4
2 -1 10 5.8 1.9
-2 1 10 2.5 2.2
-2 1 -10 1.3 2.8
2 -1 -10 -2.3 3.4
2 1 10 3.5 2.1
2 1 10 -1 2.4
2 -1 -10 -0.6 2.3
-2 -1 10 5.7 2.2
-2 1 -10 1.6 3.5
-2 -1 10 5.3 2.6
2 1 10 -1.5 1.7
-2 -1 10 0.3 2.2
-3 -1 -10 -2 3.4
3 1 -10 -2.1 2.5
-3 1 10 0.2 2.1
3 -1 10 2.4 2.4
3 -1 10 0.8 2.3
3 1 -10 5.3 3.5
-3 1 10 0.7 2.4
-3 -1 -10 2.2 2.6
-3 1 10 2.6 2.3
-3 1 -10 4.5 2.8
3 -1 -10 0.7 3.4
3 1 10 -0.8 2.3
-3 -1 10 4.3 2.5
-3 -1 10 0.8 2.3
-3 1 -10 -0.9 3.3
-3 -1 10 0.6 2
3 1 10 0.1 2
-4 1 10 11.2 2.4
-4 1 10 9.2 2.7
4 1 -10 17.4 3.9
-4 -1 -10 12 4
4 -1 10 10.1 2.6
-4 -1 -10 12.6 3.1
-4 1 10 14 3.1
4 -1 10 10.1 2.8
4 1 -10 15.1 3.2
4 1 10 12.7 2.4
4 1 10 11.2 2.7
-4 1 -10 11.5 3.3
4 -1 -10 14.3 4.2
-4 -1 10 11.2 2.9
-5 1 10 1.6 2.5
5 -1 10 0.4 2.5
5 1 -10 4.9 2.8
5 -1 10 4 3.2
-5 1 10 5.6 2.7
5 -1 10 3.4 2.4
-5 -1 -10 11.6 3.2
5 1 -10 5.5 3.7
-5 -1 10 8.9 2.9
5 1 10 5.5 2.2
5 1 10 5 2.6
5 1 10 3.6 3.2
5 -1 -10 10.3 3.9
-5 1 -10 1.8 3.1
6 1 -10 42.6 5.2
6 -1 10 45.8 5.1
-6 -1 -10 46.5 4.9
6 -1 10 53.49 4.5
6 -1 10 48.6 3.9
-6 1 10 48.8 4.7
6 1 10 46.3 3.4
6 1 10 44.1 5.2
-6 -1 10 46.1 4.6
6 -1 -10 40 5.3
6 1 10 41.1 4.2
-6 1 -10 39.6 4.7
7 -1 10 43.2 4
7 -1 10 42.1 4.4
-7 1 10 43.9 4.5
-7 -1 -10 41.5 4.9
7 1 -10 39 5.1
7 -1 10 34 4.7
7 -1 -10 36.9 5.5
7 1 10 44.2 3.5
7 1 10 39.8 5.1
7 1 10 42.3 4.4
-7 1 -10 33.9 4.8
-7 -1 10 42.1 4.6
8 -1 10 2.6 2.7
8 -1 10 2.6 3.5
8 1 -10 3.3 3.9
8 -1 10 3.8 2.9
-8 1 10 5.1 3.1
-8 -1 -10 1.5 3.6
8 1 10 3.6 2.4
8 1 10 -0.7 3.7
-8 1 -10 3.8 3.7
8 1 10 -2 2.6
-8 -1 10 1.6 3.1
8 -1 -10 -5.2 3.9
0 2 10 3.3 2.2
0 -2 10 4.5 2.2
0 2 10 1.7 2.1
0 -2 -10 11.3 3.8
0 -2 -10 4.5 2.5
0 2 10 6.6 2.5
0 -2 10 6.8 2.4
0 -2 10 7.1 2.6
0 2 -10 0.3 3.4
0 2 -10 5.2 3.1
-1 2 10 3.4 2.4
1 2 -10 0.8 2.8
1 -2 10 1.1 2.3
-1 2 10 0.6 2.1
1 -2 10 2.7 1.9
-1 -2 -10 -0.5 3.3
1 2 -10 -2.9 3.2
-1 -2 -10 4.4 2.4
1 -2 10 -0.5 2.2
-1 2 10 2.1 2.2
-1 -2 10 -0.9 2.2
1 2 10 -0.1 1.9
-1 -2 10 0.4 2.3
-1 -2 10 -2.4 1.9
1 -2 -10 -2.3 3.3
-1 2 -10 0.5 2.9
1 2 10 -0.4 2.4
1 2 10 3.6 2.1
-1 2 -10 2 3.4
2 -2 10 60.99 4.2
-2 -2 -10 76.59 7
-2 2 10 71.29 4.9
2 -2 10 66.29 5.2
2 -2 10 57.09 4.4
-2 2 10 78.19 5.1
2 2 -10 67.89 5.8
-2 2 10 66.59 5.1
2 2 -10 76.59 6.7
-2 -2 -10 70.79 5.2
2 2 10 66.69 5.3
-2 -2 10 69.09 5.2
2 2 10 66.09 4.3
2 2 10 62.09 4.4
-2 2 -10 71.79 6.4
-2 2 -10 63.59 5.2
-2 -2 10 69.29 5.1
-2 -2 10 61.59 4.6
2 -2 -10 70.09 6
3 2 -10 48.4 4.5
3 -2 10 42.1 3.9
3 2 -10 39.4 4.7
-3 -2 -10 45.7 4
-3 2 10 46.1 3.8
-3 2 10 47 4.2
-3 2 10 55.39 4.2
3 -2 10 43.5 3.9
-3 -2 -10 37.2 4.8
-3 2 -10 38.2 4.3
-3 2 -10 36.1 4.5
3 2 10 44.9 4
-3 -2 10 38.3 4
3 2 10 41.5 3.1
3 -2 -10 30.4 4.8
4 2 -10 74.29 6.1
4 2 -10 73.19 6.6
-4 2 10 77.79 5.7
-4 -2 -10 84.99 6
-4 -2 -10 99.99 7.3
4 -2 10 88.19 5.6
-4 2 10 74.69 5.5
4 -2 10 67.29 5.7
-4 2 10 74.49 5.4
4 2 10 79.49 4.5
4 -2 -10 65.59 6.2
4 2 10 81.79 5.6
-4 -2 10 73.89 5.4
-4 2 -10 70.29 5.7
-4 2 -10 79.19 6.5
5 -2 10 13.9 3.6
5 2 -10 11 3.3
5 2 -10 13.6 3.8
-5 -2 -10 4.2 3.2
5 -2 10 13.4 2.9
-5 2 10 9 2.9
-5 2 10 9.4 2.9
5 -2 10 12.2 3
5 -2 -10 12.4 4.1
-5 2 -10 18.7 3.8
-5 -2 10 11.4 3
5 2 10 12.9 3
5 2 10 18.4 2.4
6 2 -10 2.5 3.5
-6 -2 -10 2.6 3.2
6 -2 10 2.8 2.8
6 -2 10 1.5 3.2
6 2 -10 2.2 3.1
6 -2 10 5.2 2.8
-6 2 10 4.9 2.7
6 2 10 -0.5 2.5
6 -2 -10 -0.7 3.7
6 2 10 3.5 3.2
-6 2 -10 6.6 3.6
-6 -2 10 2 2.8
6 2 10 2.6 2
-7 -2 -10 40.6 4.9
-7 2 10 54.09 5
7 -2 10 49.7 4.8
7 2 -10 47.2 5.7
7 -2 10 49.5 5.4
7 -2 10 61.29 4.7
7 2 10 46.5 5.2
7 -2 -10 55.89 6.5
7 2 10 50.39 4.7
-7 2 -10 65.49 5.9
-7 -2 10 57.69 5.2
-8 2 10 2.4 2.9
8 -2 10 -5.7 3.1
8 2 -10 2.4 3.8
8 -2 10 6.7 3.1
8 -2 10 4.8 3
-8 -2 -10 -0.5 3.4
-8 2 -10 3.4 4.7
-8 -2 10 -3.1 2.9
8 -2 -10 2.8 4.7
8 2 10 1.7 3.8
8 2 10 0 2.7
0 -3 10 -1.8 2.1
0 3 10 2.4 1.9
0 -3 10 -2.3 2.4
0 -3 10 -0.1 2.2
0 3 10 -2.1 2.5
0 -3 -10 -5.8 3.3
0 3 10 -0.2 2.2
0 3 -10 -0.5 3
0 3 -10 -6.1 3.1
1 -3 10 15.7 2.6
-1 3 10 17.2 2.9
-1 -3 -10 17.2 4
-1 3 10 16.7 3
1 -3 10 13 2.8
1 -3 10 15.4 2.8
-1 3 10 18.1 2.6
1 3 -10 15.2 3.6
-1 -3 -10 7.4 3.8
1 3 -10 10 3.6
1 3 10 14.7 2.7
1 -3 -10 15.5 4.1
-1 3 -10 12.5 3.4
-1 -3 10 19.6 3.2
-1 -3 10 19.4 2.9
-1 3 -10 7.9 3.6
1 3 10 12.6 2.3
1 3 10 16.9 3
-1 -3 10 16 2.5
-2 3 10 186.88 8.2
2 -3 10 199.48 8.7
2 3 -10 196.58 9.6
-2 -3 -10 183.78 8.5
2 -3 10 174.88 8
-2 3 10 190.88 8.8
2 -3 10 186.38 8.6
2 3 -10 181.08 9.6
-2 -3 -10 207.58 10.3
-2 3 10 197.38 8.7
2 -3 -10 186.18 10.3
-2 3 -10 190.98 9.4
-2 -3 10 166.78 7.9
2 3 10 186.68 8.7
-2 -3 10 194.48 8.8
2 3 10 178.58 8.2
-2 3 -10 177.28 9.5
2 3 10 194.28 7.7
3 -3 10 21.6 3.3
3 -3 10 23.4 3.3
-3 -3 -10 16.9 4.2
-3 3 10 21.4 3
-3 3 10 21.1 3.2
3 3 -10 16.1 3.7
-3 3 10 19.5 3.1
3 3 -10 22.6 3.9
-3 -3 -10 16.7 3.1
3 3 10 23.1 2.3
3 3 10 18.5 3.1
-3 3 -10 21 4
-3 3 -10 22.5 3.8
3 -3 -10 18.5 4.3
-3 -3 10 17.7 3.2
-4 -3 -10 52.89 4.7
-4 3 10 45.8 4.5
-4 -3 -10 49.9 5.6
4 -3 10 41.6 4.2
-4 3 10 59.49 4.5
4 3 -10 48.7 4.9
4 -3 10 59.69 4.6
4 3 -10 55.19 5.2
4 -3 -10 45.5 5.5
4 3 10 50.49 4.3
-4 -3 10 52.89 4.5
-4 3 -10 47 4.9
-4 3 -10 52.79 5.1
5 3 -10 16.6 3.7
5 3 -10 8.9 3.6
5 -3 10 15.2 3.3
-5 -3 -10 18.6 3.6
-5 3 10 8.3 3
5 -3 10 14.8 3.3
-5 3 10 9.6 3.1
5 -3 -10 11.5 4.1
-5 -3 10 8.6 3
5 3 10 8.7 2.7
5 -3 -10 17.4 3.1
-5 3 -10 5.6 3.3
-6 3 10 5.7 3.1
-6 -3 -10 7.1 3.3
6 -3 10 5.6 3
6 3 -10 0 3.3
-6 3 10 8.6 3
6 -3 10 4.2 3.3
6 -3 10 10 3.1
6 3 -10 9.7 3.5
6 3 10 6.1 3.6
-6 -3 10 8.1 3.2
-6 3 -10 9.8 3.7
6 3 10 3.2 2.7
6 -3 -10 10.7 4.1
7 -3 10 3.8 3.3
7 -3 10 2.4 3
-7 -3 -10 1.9 3.4
7 3 -10 4.6 3.4
7 -3 10 6.1 3.2
-7 3 10 6.3 3.1
7 3 -10 -0.1 3.5
-7 3 -10 5.8 3.8
-7 -3 10 1.4 3
7 3 10 9.4 3
7 3 10 6.3 3.8
7 -3 -10 2.4 4.1
8 -3 10 3.7 3.6
8 3 -10 6.1 4.4
-8 -3 -10 9.1 6.2
8 -3 10 5.3 3.4
-8 3 10 9.7 3.3
8 3 -10 10.8 4.1
8 3 10 6.4 2.9
-8 -3 10 9.1 3.6
0 4 10 49.2 4.3
0 4 -10 49.4 4.9
0 4 10 50.79 4.4
0 4 10 57.49 4
0 -4 10 60.09 4.8
0 -4 -10 40 5.3
0 -4 10 51.19 4.1
1 -4 10 104.99 9
-1 4 10 115.29 5.8
-1 -4 -10 115.19 8.3
-1 4 10 110.99 6.5
1 -4 10 103.89 5.8
1 -4 10 112.39 6.5
1 4 -10 122.59 7.5
-1 4 10 106.69 6.6
-1 -4 10 117.09 6.5
1 4 10 113.19 6.3
-1 4 -10 104.39 7.3
-1 -4 10 110.29 5.9
1 4 10 109.49 6.6
1 -4 -10 104.49 7.8
1 4 10 113.79 5.4
-2 4 10 8.9 2.8
-2 -4 -10 9.6 3.8
2 -4 10 3.7 2.5
2 -4 10 5.4 2.2
-2 4 10 6.8 2.4
2 -4 10 5.4 2.8
-2 4 10 6.8 2.7
2 4 -10 8 3.4
-2 -4 10 6.5 2.6
2 4 10 6.1 2.3
2 -4 -10 5.9 3.8
-2 4 -10 8.8 3.2
2 4 10 7.2 2.8
-3 -4 -10 -1 3.5
-3 -4 -10 3.2 2.5
3 -4 10 5 2.7
-3 4 10 7 2.5
-3 4 10 7.6 2.8
3 -4 10 8.7 3
3 4 -10 7.6 3.5
3 -4 -10 -1.7 3.6
3 4 10 3.7 2.6
-3 -4 10 7.6 2.8
-3 4 -10 3 3.2
4 -4 10 18.6 3.4
4 -4 10 21.9 3.5
-4 4 10 17.5 3.3
-4 -4 -10 21.6 4.4
-4 4 10 20.8 3.3
-4 -4 -10 18.2 3.4
4 4 -10 31.2 4.4
-4 -4 10 22.6 3.6
4 -4 -10 25.7 3.5
4 4 10 21.3 3.3
4 -4 -10 16.4 4.5
-4 4 -10 19.8 4.1
-5 -4 -10 3.9 3
5 -4 10 4.8 2.9
-5 4 10 3.5 2.7
5 4 -10 2.6 3.3
5 -4 10 4.4 2.8
-5 4 10 3.1 2.8
-5 -4 -10 0.9 3.7
5 4 10 1.8 2.5
5 -4 -10 -0.4 3.8
-5 -4 10 0.3 2.8
5 -4 -10 1.7 2.8
-5 4 -10 -6.3 3.1
-6 4 10 10 3.1
-6 -4 -10 7.1 3.4
6 -4 10 5.3 3.1
6 4 -10 3.7 3.4
6 -4 10 8.1 3.1
-6 4 10 10.5 3
6 -4 -10 -2.2 3.9
-6 4 -10 8.4 3.8
-6 -4 10 2.6 3.1
6 4 10 7.2 2.8
-7 -4 -10 15.1 4
7 -4 10 25.2 4
7 -4 10 21.7 3.9
7 4 -10 18.6 4.1
-7 4 10 21.7 3.8
7 4 10 17 4.4
7 4 10 22.9 3.5
7 -4 -10 17.2 4.9
-7 -4 10 17.2 3.8
-7 4 -10 13.4 4.3
0 5 10 1.7 2.4
0 -5 10 -1.1 2.2
0 5 10 -0.1 2.7
0 -5 -10 -3.8 3.5
0 5 10 -1.7 1.6
0 -5 10 1.5 2.3
0 5 -10 -4.2 3.1
1 5 -10 -0.1 3.1
1 -5 10 0.9 2.4
1 -5 10 0.8 2.2
-1 -5 -10 -1 3.5
-1 5 10 7.7 2.8
-1 5 10 1.8 2.7
-1 5 10 1 1.9
-1 -5 10 4.5 2.3
1 -5 -10 3.4 3.8
1 5 10 1.2 2.3
-1 5 -10 -0.3 3.2
1 5 10 -2.4 2.5
-1 -5 10 1.6 2.5
-2 5 10 2.7 2.1
-2 5 10 6.1 2.8
-2 -5 -10 2.8 3.8
2 -5 10 1.6 2.7
2 5 -10 1.5 3.2
-2 5 -10 3 3.3
2 5 10 3.7 2.3
-2 -5 10 0.2 2.6
2 -5 -10 4.7 3.8
2 5 10 4.3 2.7
-3 5 10 -0.3 2.6
-3 5 10 1.4 2.3
3 5 -10 4.3 3.5
-3 -5 -10 7.7 3.8
3 -5 10 -3.4 2.6
3 -5 -10 -0.4 2.6
3 5 10 3.9 2.6
3 -5 -10 2.3 3.8
-3 -5 10 2.7 2.7
-3 5 -10 2.2 3.2
-4 -5 -10 -2 3.6
4 -5 10 2.1 2.9
4 5 -10 4.2 3.4
-4 5 10 5 2.9
-4 5 10 1 2.5
4 5 10 5.2 2.6
4 -5 -10 0.9 2.8
4 -5 -10 -2.4 3.8
-4 -5 10 -1.4 2.7
-4 5 -10 2.5 3.4
-5 -5 -10 3.4 3.3
5 5 -10 4 3.6
-5 5 10 4 2.7
-5 5 10 5.1 3
-5 -5 -10 7.5 4
5 -5 10 6.6 3.3
5 5 10 10.7 2.9
-5 5 -10 2.4 3.6
5 -5 -10 5.8 4.2
5 -5 -10 6 3.2
-5 -5 10 6 3.1
-6 5 10 -0.7 2.8
-6 -5 -10 -5.6 3.6
6 5 -10 -1.6 3.5
-6 -5 -10 2.9 3.3
-6 5 10 -1.7 2.9
6 -5 10 -2.8 3
-6 5 -10 -0.6 3.6
6 -5 -10 1.4 4
-6 -5 10 2.1 3.1
6 5 10 -0.4 2.5
7 5 -10 -1.1 3.5
-7 -5 -10 5.3 3.6
-7 5 10 0.3 3.5
7 5 10 2.1 2.7
0 6 10 -1.8 2.7
0 -6 10 2.9 2.5
0 -6 -10 0.9 3.6
0 -6 10 0.6 2.4
0 6 -10 -2.1 3.3
0 6 10 2.6 2.6
1 -6 10 81.19 5.8
1 -6 10 90.49 6.3
1 6 -10 86.99 7.2
-1 6 10 83.89 6.2
-1 6 10 88.49 5
-1 -6 -10 75.19 7.3
1 6 10 86.49 5.9
1 -6 -10 91.49 7.7
-1 6 -10 83.29 7.1
-1 -6 10 94.29 6.3
1 6 10 95.79 6.3
-2 6 10 1.2 2.2
2 6 -10 1.4 3.4
-2 -6 -10 0.4 3.6
-2 6 10 5.1 2.9
2 -6 10 -1.1 2.6
2 6 10 3.9 2.8
-2 6 -10 3.4 3.4
2 -6 -10 -2.3 3.6
2 6 10 1.4 2.2
-2 -6 10 4.5 2.8
2 -6 -10 2 2.9
-3 6 10 5.4 3
3 -6 10 2.8 2.9
-3 -6 -10 1.6 3.9
3 6 -10 2.6 3.6
-3 6 10 4 2.6
-3 -6 10 7.9 3.1
3 -6 -10 0.8 3.1
-3 6 -10 1.9 3.4
3 -6 -10 -3.2 3.7
3 6 10 1.8 2.6
-4 6 10 2.6 2.6
-4 6 10 0.7 2.9
4 -6 10 -1.9 2.8
-4 -6 -10 -1 3.7
4 6 -10 -2.7 3.4
4 6 10 -3.3 2.3
4 -6 -10 1.2 3
-4 6 -10 5.9 3.6
-4 -6 10 1.5 3.1
4 -6 -10 -1.9 3.8
-5 6 10 6.9 3
5 -6 10 7.5 3.5
5 6 -10 5.8 3.9
-5 6 10 3.9 3.2
-5 -6 -10 2.5 3.9
5 6 10 5.9 2.9
5 -6 -10 1.5 4.1
-5 -6 10 2.8 3.2
5 -6 -10 7.1 3.4
-5 6 -10 6.3 3.8
-6 -6 -10 9.7 4.5
-6 6 10 8.1 3.3
-6 6 10 6.3 4.2
6 6 -10 3.1 4
6 -6 -10 10.9 3.7
6 -6 -10 2.9 4.3
-6 6 -10 8.6 4.2
6 6 10 6.4 2.9
0 7 -10 -5.8 3.3
0 -7 10 -0.8 2.6
0 7 10 -1.9 2.6
0 -7 -10 1.6 3.6
1 7 -10 5.6 3.7
1 -7 10 13.9 3.2
1 -7 10 14.5 3.2
-1 7 10 14.7 2.3
-1 7 10 13.9 3.4
-1 -7 -10 6 4
-1 7 -10 20.1 4.3
1 7 10 6.1 2.8
1 -7 -10 14.7 3.6
1 7 10 9.1 3.4
-1 -7 10 10.1 3.3
1 -7 -10 13.8 4.4
-2 -7 -10 5.8 3.9
2 -7 10 0.4 2.8
-2 7 10 1.3 2.1
2 7 -10 -0.3 3.5
-2 7 10 5.8 3.1
-2 -7 10 5.4 3.1
2 -7 -10 6.6 4
2 7 10 3.6 3
-2 7 -10 -1.5 3.5
2 -7 -10 -1.3 3.3
2 7 10 1.3 2.4
-3 7 10 11.6 2.8
3 -7 10 6.7 3.3
3 7 -10 4.1 3.8
-3 -7 -10 6.1 4.1
-3 7 10 12.4 3.4
-3 7 -10 4.8 3.7
-3 -7 10 11.8 3.5
3 -7 -10 8.6 3.8
3 7 10 5.2 3.1
3 -7 -10 10.5 4.5
4 -7 10 32.5 4.5
-4 7 10 31.6 3.7
-4 7 10 36.9 4.6
-4 -7 -10 31.7 5.2
4 7 -10 30.7 5
4 -7 -10 33.1 5.5
-4 -7 10 35.1 4.6
-4 7 -10 38.7 5.1
4 7 10 40.9 4.3
4 -7 -10 26.7 4.5
5 7 -10 0.4 3.3
-5 -7 -10 -4 3.9
-5 7 10 -3.2 2.6
5 -7 -10 -2.9 3.4
5 -7 -10 -8.1 3.8
5 7 10 -3.2 2.6
-5 7 -10 -2.4 3.9
0 -8 10 3.8 3.2
0 8 10 3 2.9
0 8 -10 -0.6 3.7
0 -8 -10 8.3 4.1
0 -8 -10 12.4 3.9
-1 -8 -10 8.8 4
1 -8 10 9.7 3.2
1 -8 10 4.3 3.2
-1 -8 -10 6 3.5
1 8 -10 -4.1 3.5
-1 8 10 6.5 3
1 -8 -10 9 3.8
1 -8 -10 2.5 4
-1 -8 10 7.3 3.4
1 8 10 3.2 2.7
-1 8 -10 9.4 4
-2 8 10 1.7 2.2
2 8 -10 1 3.9
-2 8 10 3.1 3.2
-2 -8 -10 2.9 4.1
2 -8 10 5.9 3.2
-2 8 -10 -1.8 3.7
2 8 10 2.4 2.6
-2 -8 10 -3.7 3.1
2 -8 -10 1 3.7
2 -8 -10 -5.9 3.8
-3 -8 -10 3.2 4
3 -8 10 7 3.4
3 -8 -10 14.3 7.1
-3 8 -10 3.1 4
3 -8 -10 -0.7 4.2
0 0 11 -1 2.1
0 0 11 3.1 2.5
0 0 11 -0.5 2.3
0 0 -11 -5.3 3.5
0 0 -11 -0.1 2.8
1 0 11 104.79 6.1
1 0 11 104.79 5.9
-1 0 11 109.59 6.2
1 0 -11 98.59 7.7
1 0 -11 114.19 6.8
-1 0 -11 112.69 6.8
-1 0 11 111.99 6.3
-1 0 -11 107.89 8
-1 0 11 102.49 6.1
1 0 11 112.99 6.5
-2 0 -11 16.1 4.2
-2 0 -11 23.7 3.8
2 0 11 22.2 3
-2 0 11 26.3 3.4
-2 0 11 22.4 3.3
2 0 11 21.5 2.7
-2 0 11 20.1 2.9
2 0 11 23.9 3.3
2 0 -11 24.8 3.5
2 0 -11 24.4 4.4
3 0 -11 27.7 4.7
3 0 11 23.5 3.4
-3 0 -11 29.2 3.9
-3 0 11 28.1 3.2
-3 0 11 32 3.7
-3 0 -11 20.1 4.4
3 0 11 24.6 3.1
-3 0 11 25.2 3.5
4 0 11 2.5 2.3
4 0 -11 9.3 4
-4 0 -11 4.7 4
-4 0 11 7.9 2.9
4 0 11 2.9 2.7
-4 0 11 3.9 2.8
-4 0 -11 11.2 3.4
-5 0 11 18.6 3.4
5 0 -11 20 4.5
5 0 11 23 3
-5 0 -11 22.3 4.1
-5 0 -11 29.7 4.9
5 0 11 18.1 3.4
6 0 11 60.89 5.2
6 0 11 57.09 5.8
6 0 -11 61.49 6.4
6 0 11 71.89 5.1
-6 0 -11 57.89 5.5
-6 0 11 74.69 6.2
7 0 11 29.1 3.3
-7 0 11 28.4 4.1
7 0 11 21.7 4.8
-7 0 -11 25.8 4.5
7 0 11 21.9 3.7
7 0 -11 16.9 4.7
0 1 -11 18.6 3.6
0 1 11 20.7 2.9
0 -1 11 17.4 2.8
0 -1 -11 23 3.4
0 -1 11 17.3 2.9
0 1 11 16.2 3
0 -1 11 16.7 2.9
0 1 11 21.2 3
0 1 -11 8.8 4.1
0 -1 -11 17.1 4.6
1 1 -11 6.9 3.8
1 1 -11 16 3.5
-1 1 11 8.1 2.6
-1 1 11 15.5 2.9
1 -1 11 14.4 2.9
-1 1 11 14.9 2.8
1 -1 11 14.9 2.6
1 -1 11 20.6 3.1
-1 -1 -11 9.8 4.1
-1 -1 -11 17 3.3
-1 -1 11 16.3 3
1 1 11 12.2 2.5
-1 1 -11 1 3.7
-1 -1 11 16.1 2.9
-1 -1 11 12.7 2.7
1 -1 -11 13.5 3.1
-1 1 -11 13.3 3.4
1 -1 -11 12 4.1
1 1 11 16.5 2.7
1 1 11 16 3.1
-2 1 11 139.79 7.5
2 -1 11 156.98 7.7
-2 1 11 159.68 7.4
2 -1 11 142.39 7.3
-2 1 11 154.18 7.6
2 -1 11 143.99 7.7
2 1 -11 143.79 7.9
-2 -1 -11 137.69 9
-2 -1 -11 145.59 7.8
-2 1 -11 145.19 8.8
-2 1 -11 151.58 8.4
2 1 11 138.39 6.9
2 1 11 160.28 7.1
-2 -1 11 161.98 7.3
-2 -1 11 151.48 7.7
2 1 11 138.79 7.6
-2 -1 11 149.69 7.6
-3 1 11 3.3 2.6
-3 -1 -11 -0.1 2.8
3 -1 11 7 2.6
3 -1 11 5.6 2.7
3 1 -11 2.7 3.7
3 1 -11 0.3 3
-3 1 11 4.8 2.4
-3 -1 -11 9.6 4.1
-3 1 11 2 2.6
-3 -1 11 3.6 2.6
3 1 11 3.9 2.2
-3 1 -11 1 3.7
3 -1 -11 2.4 3.8
-3 -1 11 3.1 2.7
-3 1 -11 6.1 3.1
3 1 11 1.2 2.5
-4 1 11 42.5 4.1
-4 1 11 46.8 4.6
4 1 -11 44.7 4.5
4 1 -11 48.2 5.4
4 -1 11 46.5 4.3
4 -1 11 46 3.9
-4 -1 -11 50.29 4.7
-4 -1 -11 37.6 5.1
-4 -1 11 47.1 4.4
4 1 11 48.8 3.6
4 1 11 43.5 4.2
-4 1 -11 47.3 4.9
4 -1 -11 47.2 5.6
-4 1 -11 41.7 5.3
5 1 -11 31.8 5.1
5 -1 11 23.4 3.6
-5 -1 -11 23.3 3.9
-5 1 11 27 3.9
5 -1 11 28.7 3.4
-5 -1 -11 35.9 5.1
5 1 11 29.2 3.1
-5 1 -11 34.9 5.1
-5 1 -11 30.4 4.3
5 -1 -11 31.6 5.1
-5 -1 11 34.1 4
5 1 11 22.6 3.5
6 1 -11 -0.8 3.9
6 -1 11 -0.7 3.4
6 -1 11 5.6 2.7
6 -1 11 2.2 2.8
-6 -1 -11 -1.6 3.1
-6 1 11 0.9 2.8
6 -1 -11 -5.6 3.8
6 1 11 1.5 2.2
-6 -1 11 0.8 2.9
-6 1 -11 -3.1 3.3
6 1 11 -0.9 2.6
7 -1 11 31 5.1
7 1 -11 34.5 5.2
-7 1 11 37.4 4.5
7 -1 11 32.4 3.8
-7 -1 -11 27 4.5
7 -1 11 36.9 4.4
-7 1 -11 28.4 4.7
7 1 11 33.8 5.1
7 1 11 34.4 3.4
-7 -1 11 36.5 4.5
7 -1 -11 41.3 5.9
7 1 11 32.6 4.1
0 2 -11 -8.6 3.5
0 2 11 0.9 2.2
0 -2 11 -1.3 2.3
0 2 11 0.2 2.1
0 2 11 0.4 2.5
0 -2 -11 -3.9 3.7
0 -2 11 2.3 2.4
0 2 -11 0.9 3.2
0 -2 11 -1.1 2.1
-1 2 11 90.09 6.1
-1 -2 -11 88.39 7.7
-1 2 11 97.09 5.8
1 -2 11 97.09 6
-1 -2 -11 91.19 5.9
1 -2 11 88.59 5.3
-1 2 11 84.09 5.4
1 -2 11 87.59 5.8
1 2 -11 86.49 6.6
1 2 -11 91.49 7.6
-1 -2 11 87.99 6
-1 -2 11 83.99 5.6
1 2 11 100.19 6.2
-1 2 -11 89.09 6.8
1 2 11 84.69 5.4
1 2 11 79.79 5.2
-1 2 -11 81.79 7.2
-1 -2 11 89.09 5.5
-2 2 11 0.8 2.4
2 -2 11 1.7 2.5
-2 -2 -11 5 3.7
2 2 -11 0.7 3.5
-2 2 11 4.3 2.5
2 2 -11 -0.6 3.1
-2 2 11 1.1 2.3
-2 -2 -11 4.1 2.6
2 -2 11 0.6 2.5
-2 -2 11 0.3 2.1
2 2 11 4 2.1
2 -2 -11 -1.2 3.7
2 2 11 0.2 2.6
-2 -2 11 0.8 2.4
-2 -2 11 2.8 3
2 2 11 1.2 2
-2 2 -11 -4.1 3.4
-2 2 -11 -0.9 3
-3 -2 -11 1 2.7
-3 2 11 0.9 2.4
-3 2 11 3.5 2.5
3 2 -11 2.2 3.6
3 -2 11 4.2 2.6
-3 2 11 1.5 2.4
-3 -2 -11 1.5 3.8
3 2 -11 -1.5 3
3 -2 11 0.7 2.5
3 2 11 -0.7 1.9
-3 2 -11 0.9 3.1
-3 -2 11 -5.1 2.3
-3 2 -11 2.4 3.7
3 -2 -11 -2.4 3.7
3 2 11 0.9 2.6
4 -2 11 23.5 3.6
-4 -2 -11 27.6 3.9
-4 2 11 31.1 3.5
4 2 -11 30.7 4.2
4 -2 11 33.6 3.7
-4 -2 -11 20 4.5
-4 2 11 34.3 3.8
4 2 -11 24.7 4.5
-4 2 11 27.3 3.8
4 2 11 33.6 3
4 -2 -11 23.5 4.9
-4 2 -11 24.5 4.7
4 2 11 23.7 3.6
-4 -2 11 32.5 4
-4 2 -11 25.9 4.2
-5 2 11 -1.1 2.7
-5 2 11 3.3 2.8
-5 -2 -11 -0.9 3.8
5 2 -11 0.1 3.1
5 -2 11 3.4 2.7
-5 -2 -11 0.9 3
5 -2 11 -1.7 2.6
5 2 -11 -1.1 3.6
-5 2 -11 0.1 3.2
5 2 11 1.6 2.8
-5 -2 11 1.7 2.8
5 2 11 4 2
5 -2 -11 0 3.8
-5 2 -11 7.4 4
-6 2 11 -0.9 2.7
-6 -2 -11 2.2 3.2
6 2 -11 9.8 4
6 -2 11 0.7 2.7
6 -2 11 2.9 3
-6 -2 11 3.2 3
6 2 11 0.9 2.8
-6 2 -11 4.4 3.8
6 -2 -11 -3.9 4
7 -2 11 9.2 3.9
7 2 -11 14.1 4.3
-7 2 11 14.1 3.5
7 -2 11 14.5 3.4
7 -2 11 14.1 3.5
-7 -2 -11 15 4.2
7 2 11 16.2 4.4
7 2 11 15.7 3.4
-7 -2 11 9.7 3.6
7 -2 -11 20 5
-7 2 -11 12.8 4.3
0 -3 11 115.79 6.4
0 -3 -11 119.99 8.8
0 3 11 113.69 6.5
0 3 -11 120.69 7.9
0 -3 11 116.49 6.4
0 3 11 113.99 5.9
0 3 11 127.99 7.1
0 -3 11 121.09 6.7
0 3 -11 102.09 7.8
1 -3 11 27.7 3.5
1 -3 11 31 3.2
-1 3 11 31.1 3.2
-1 3 11 26.7 3.5
1 -3 11 25.3 3.3
-1 3 11 33.2 3.8
-1 -3 -11 23.9 4.8
1 3 -11 26.2 4.4
1 3 -11 38.6 4.6
-1 -3 11 29.5 3.5
1 3 11 30.3 3.3
1 -3 -11 17.4 4.5
1 3 11 26.5 3.5
1 3 11 26.4 2.8
-1 3 -11 14 4.3
-1 3 -11 20.3 4
-1 -3 11 35.5 3.4
-2 3 11 29.7 3.7
2 -3 11 39.4 3.9
-2 3 11 34.2 3.4
2 3 -11 26.6 4.3
-2 3 11 28.8 3.6
2 3 -11 31.4 4.5
2 -3 11 32.8 3.7
-2 -3 -11 28.9 4.8
-2 -3 11 32.2 3.7
2 3 11 35.2 2.9
2 3 11 37.1 4
2 -3 -11 30.2 4.8
-2 3 -11 31.3 4.5
2 3 11 34.9 3.5
-2 3 -11 33.7 4.4
3 3 -11 27.8 4.5
3 -3 11 28 3.6
-3 -3 -11 30.5 3.7
-3 3 11 25.2 3.8
-3 -3 -11 31.8 5
-3 3 11 31.9 3.6
3 3 -11 32.6 4.4
3 -3 11 34.4 3.7
-3 3 11 30.3 3.6
-3 3 -11 30.3 4.4
-3 3 -11 21.5 4.2
3 3 11 31.8 3.8
3 3 11 27.7 2.7
-3 -3 11 33 3.9
3 -3 -11 30.2 5.2
-4 -3 -11 3.5 4
-4 3 11 -0.1 2.7
4 -3 11 7.6 3
4 -3 11 7.5 2.9
-4 -3 -11 -1.9 2.7
4 3 -11 5.6 3.6
-4 3 11 8.1 2.8
4 3 -11 5.5 3.5
-4 3 -11 5 3.4
-4 3 -11 5.1 3.8
4 3 11 2.3 2.8
-4 -3 11 2.7 2.9
4 -3 -11 3.8 4
-5 -3 -11 45.7 5.7
5 3 -11 34.1 5
-5 -3 -11 35.8 4.4
-5 3 11 48.3 4.4
5 -3 11 41.2 4.4
5 -3 11 36.6 4.2
-5 3 11 35.1 4.3
5 3 -11 43.4 4.9
5 3 11 41.5 4.3
-5 3 -11 46.5 5.5
-5 3 -11 35.5 4.7
5 -3 -11 41.2 5.7
-5 -3 11 41 4.6
6 3 -11 4 3.6
6 -3 11 9.3 3.3
6 3 -11 7.3 4.6
-6 -3 -11 8.3 3.6
6 -3 11 9.2 3.2
-6 3 11 10.3 3.3
-6 -3 -11 13.3 4.6
6 -3 -11 14.5 4.8
6 3 11 11 3.2
-6 3 -11 9 3.9
-6 -3 11 6.9 3.3
7 3 -11 63.39 6.6
7 -3 11 69.49 5.5
-7 3 11 62.69 6
7 -3 11 57.99 6.2
-7 -3 -11 59.49 5.9
-7 -3 11 79.99 9.3
7 3 11 69.69 5.5
0 -4 11 -2.9 2.3
0 4 11 2.6 2
0 4 -11 -4.9 3.1
0 4 11 2.6 2.7
0 -4 -11 -6.7 3.7
0 4 11 0.1 2.4
0 -4 11 -1.4 2.2
-1 4 11 31.7 3.1
1 -4 11 31.1 3.6
-1 4 11 27.9 3.6
1 4 -11 35.4 4.7
1 -4 11 27.9 3.5
-1 4 11 28.7 3.7
-1 -4 -11 21 4.9
-1 -4 11 33.9 3.4
1 4 11 36.3 4
1 4 11 31.3 2.9
1 -4 -11 26.5 5
-1 -4 11 29.4 3.7
-1 4 -11 37 4.8
1 4 11 31.9 3.6
2 -4 11 115.59 6.7
-2 4 11 99.99 6.6
2 4 -11 92.79 7.4
-2 4 11 105.39 6.7
-2 4 11 90.89 5.8
2 -4 11 97.19 7.5
-2 -4 -11 102.79 8.3
2 4 11 111.79 6.8
2 -4 -11 96.39 8
2 4 11 103.09 5.1
-2 -4 11 114.39 6.8
-2 4 -11 100.09 7.5
2 4 11 89.29 5.9
3 4 -11 2 3.4
3 -4 11 1.2 2.7
-3 4 11 3.3 2.8
-3 -4 -11 5.5 3.9
3 -4 11 2.4 2.8
-3 4 11 2.4 2.8
-3 4 11 5.3 2.6
3 4 11 11.7 3.1
-3 -4 11 2.6 2.9
-3 4 -11 3.2 3.3
3 -4 -11 -2.2 3.9
-4 -4 -11 16 4.6
4 -4 11 30.3 3.8
4 -4 11 31.1 4
-4 4 11 35.8 3.8
-4 4 11 30.7 4
4 4 -11 31.6 4.5
4 -4 -11 23.8 3.6
-4 -4 11 27.5 4
4 -4 -11 25.9 5.1
-4 4 -11 29.6 4.5
4 4 11 30.3 3.8
-5 -4 -11 -1.4 3
5 -4 11 -0.6 3
-5 4 11 2.2 2.6
-5 4 11 2.9 2.9
5 -4 11 -0.5 2.9
-5 -4 -11 -3.7 3.9
5 4 -11 -2 3.3
-5 -4 11 -3.6 2.8
-5 4 -11 2.5 3.6
5 -4 -11 -1 2.8
5 -4 -11 -0.9 4
5 4 11 3.2 2.7
6 -4 11 40.9 4.7
6 -4 11 52.09 4.9
-6 -4 -11 34.7 4.7
6 4 -11 42.5 5.3
-6 -4 -11 54.89 6.4
-6 4 11 51.29 4.8
-6 4 11 46.2 4.9
6 4 11 34.3 4.2
6 -4 -11 40.3 6
-6 4 -11 46.6 5.5
-6 -4 11 39.7 4.9
0 5 11 5.6 2
0 5 -11 0.7 3.6
0 -5 11 5.9 2.7
0 5 11 3.3 2.9
0 -5 11 5.7 2.6
0 5 11 -0.9 2.5
0 -5 -11 0.9 4.1
1 5 -11 4.9 3.6
-1 -5 -11 -10.9 3.7
-1 5 11 2.2 2
1 -5 11 -1.7 2.2
1 -5 11 -2.5 2.5
-1 5 11 -2.3 2.8
-1 5 11 1.8 2.7
-1 -5 11 -0.3 2.4
1 5 11 -3.6 2.3
-1 5 -11 1.4 3.5
1 -5 -11 -5.6 3.7
1 5 11 -4.1 2.6
-2 -5 -11 10.7 4.4
-2 5 11 16.3 2.9
2 -5 11 17 3.3
-2 5 11 16.5 3.6
-2 5 11 19.2 3.5
2 5 -11 17.9 4.3
2 5 11 12 2.9
-2 -5 11 19.2 3.5
-2 5 -11 17 4
2 -5 -11 19 4.8
2 5 11 19.2 3.4
-3 -5 -11 -0.7 3.9
-3 5 11 0.3 2.8
3 5 -11 -4.5 3.4
3 -5 11 -1.5 2.8
-3 5 11 -0.7 2.3
-3 -5 11 0 2.8
3 5 11 3.8 2.8
3 -5 -11 1.2 2.8
3 -5 -11 2.2 4
-3 5 -11 -1.1 3.3
-4 -5 -11 9.1 4.4
4 5 -11 8 3.9
4 -5 11 3.3 3
-4 5 11 9.1 2.9
-4 5 11 2.9 3.1
4 5 11 7.4 2.9
-4 -5 11 5.4 3.3
4 -5 -11 3.5 4.3
4 -5 -11 10.6 3.3
-4 5 -11 11.1 4
5 5 -11 1.4 3.7
-5 -5 -11 5.1 4.2
5 -5 11 1.6 3.3
-5 5 11 11.7 3.5
-5 5 11 9 3
5 -5 -11 1.7 4.3
5 5 11 3.3 2.8
-5 5 -11 11.3 4.1
-5 -5 11 13.2 3.7
5 -5 -11 8.3 3.3
6 5 -11 -4 3.5
-6 5 11 0 2.9
6 5 11 1.9 2.8
0 -6 11 -2.1 2.5
0 -6 11 -3.9 2.5
0 6 11 -5.9 2.7
0 6 11 2.5 2.8
0 -6 -11 -1.3 3.6
0 6 11 2.2 1.9
0 6 -11 1.5 3.5
1 -6 11 10.7 2.9
-1 6 11 12.4 2.5
-1 6 11 8.1 3.1
-1 -6 -11 19.3 4.8
1 -6 11 8.9 2.9
1 6 -11 8.6 4
1 6 11 16.7 3.5
-1 -6 11 11.8 3.2
-1 6 -11 8 3.9
1 6 11 15.7 3.1
1 -6 -11 14.5 4.4
2 6 -11 24.8 4.6
-2 -6 -11 20.6 4.8
2 -6 11 22.9 3.6
-2 6 11 25.8 4.1
-2 6 11 25.9 3.1
2 -6 -11 20 4.7
2 -6 -11 27 4
2 6 11 24.7 3.8
-2 -6 11 28.6 4
2 6 11 22.8 3.4
-2 6 -11 17.7 4.3
3 -6 11 -3.1 2.8
3 6 -11 -2.4 3.6
-3 6 11 -1.5 2.4
-3 6 11 3.8 3.1
-3 -6 -11 1.4 3.9
-3 6 -11 -3.8 3.4
3 -6 -11 2.9 4.2
3 6 11 0.7 2.8
-3 -6 11 -7 2.8
3 -6 -11 -1.9 3.1
4 6 -11 2.7 3.7
-4 -6 -11 0.5 3.9
-4 6 11 -2.2 3
4 -6 11 2.3 3.2
-4 6 11 2.8 2.7
4 6 11 1 2.9
-4 -6 11 1 3.2
4 -6 -11 -4.3 3.9
-4 6 -11 -0.9 3.6
4 -6 -11 -4 3.2
-5 -6 -11 23.3 6.4
-5 6 11 25.1 3.9
5 6 11 23.6 3.8
5 -6 -11 26.6 4.2
0 -7 11 24.2 3.8
0 7 -11 25.3 4.8
0 7 11 22.9 3.8
0 -7 -11 16.8 4.6
-1 7 11 21.9 3.9
1 -7 11 32.5 5.2
1 -7 11 24.1 3.8
-1 -7 -11 20 4.8
1 7 -11 18.1 4.6
-1 7 11 22.7 2.7
-1 7 -11 24.3 4.7
1 7 11 17.8 3.4
1 7 11 15 3.7
1 -7 -11 20.6 4.1
1 -7 -11 20.8 4.8
-1 -7 11 22.8 3.9
-2 7 11 11.1 2.7
-2 7 11 11.3 3.5
2 -7 11 10.7 3.4
-2 -7 -11 16.7 4.9
2 7 -11 7.8 4.1
2 7 11 7.3 3.5
2 -7 -11 12.2 4.7
2 -7 -11 4 3.7
-2 -7 11 10.7 3.6
2 7 11 9.7 2.8
-2 7 -11 8.3 4.3
-3 7 11 17.2 5.1
-3 -7 -11 14.5 4.6
3 -7 11 18 3.9
-3 -7 11 12.5 4.2
3 -7 -11 7.4 4.7
-3 7 -11 14.6 5.7
3 7 11 17.5 3.7
3 -7 -11 9.9 4.1
0 0 12 45.5 4.1
0 0 -12 49 4.7
0 0 12 41.3 4.1
0 0 -12 31.7 5.2
0 0 12 46.2 4.1
1 0 12 22.3 3.3
1 0 -12 30.4 4.9
-1 0 -12 24.9 4
1 0 -12 29.6 4.1
-1 0 12 24.5 3.4
-1 0 -12 23.7 4.8
1 0 12 24.7 3.6
-1 0 12 27.3 3.5
-1 0 12 27.9 3.5
1 0 12 29.2 3.3
-2 0 12 78.89 5.8
2 0 12 87.69 6.2
-2 0 12 81.99 6
-2 0 -12 76.79 6.6
-2 0 -12 81.59 7.8
-2 0 12 83.89 5.9
2 0 12 85.49 5.5
3 0 -12 49 5.8
3 0 12 43.6 4.5
3 0 12 49.2 4.1
-3 0 12 52.89 5.6
-3 0 12 49.7 4.8
-3 0 -12 54.89 6
-3 0 -12 67.49 5.6
-3 0 12 57.69 4.6
4 0 -12 7.9 4.4
-4 0 -12 8.9 3.4
-4 0 12 11 3.1
-4 0 -12 8.9 4.3
4 0 12 9 2.7
4 0 12 10.9 3.2
5 0 12 13.5 2.9
5 0 12 11.7 3.4
-5 0 -12 13.5 4.7
-5 0 12 15.3 3.5
-5 0 -12 11.8 3.8
5 0 -12 11.6 4.6
-6 0 -12 0.3 3.5
6 0 -12 0.3 4.2
-6 0 12 3.7 3.2
6 0 12 5.9 2.6
-6 0 -12 10 4.6
6 0 12 2.9 3.1
0 1 12 1.2 2.5
0 1 -12 -2 3.9
0 -1 -12 -5.2 3.7
0 -1 12 2.3 2.6
0 1 12 -2.4 2.2
0 -1 -12 -2.1 2.8
0 1 -12 -2.1 3.1
0 -1 12 1.9 2.7
0 -1 12 -1 2.2
0 1 12 2.2 2.6
1 -1 12 5 2.7
-1 1 12 4.9 2.6
1 1 -12 4.2 3.9
1 -1 12 8 2.5
-1 1 12 6.3 2.7
1 1 -12 10.2 3.7
-1 1 12 3.4 2.7
1 -1 12 4.1 2.6
-1 -1 -12 8.5 3.3
-1 -1 -12 1.8 4
1 1 12 7.2 2.6
1 -1 -12 7.8 4.2
-1 1 -12 3 4.1
-1 -1 12 7.8 2.8
-1 1 -12 6 3.3
1 1 12 6.9 2.9
-1 -1 12 6.1 2.6
1 1 12 11.4 2.6
-1 -1 12 2.7 2.5
-2 1 12 27.1 3.5
2 1 -12 31.1 4.3
-2 -1 -12 24.6 5
2 1 -12 26.8 4.7
2 -1 12 33 3.8
-2 1 12 30.2 3.8
-2 -1 -12 38.6 4.4
-2 1 12 33.5 3.8
2 -1 12 25.4 3.4
2 -1 -12 28.9 5.1
2 1 12 29.4 3.8
-2 -1 12 31.1 3.7
-2 -1 12 28.6 3.4
2 1 12 30.9 3.3
-2 1 -12 29.6 4.2
-2 -1 12 30.7 3.8
-2 1 -12 25.9 4.8
3 1 -12 85.09 8.2
3 1 -12 78.69 6.4
3 -1 12 81.89 5.8
3 -1 12 79.49 6.2
-3 1 12 83.59 5.9
-3 -1 -12 68.89 6.8
-3 -1 -12 86.19 6.5
-3 1 12 92.09 5.9
-3 1 12 76.29 6
3 1 12 88.59 6.3
-3 -1 12 82.09 6
3 1 12 78.79 5.3
3 -1 -12 65.89 6.9
-3 1 -12 68.79 6.5
-3 1 -12 88.39 7
4 -1 12 1.2 2.9
-4 -1 -12 4.7 3.2
-4 1 12 6.2 2.9
-4 1 12 4.6 2.8
-4 -1 -12 0.7 4.3
4 -1 12 3.5 2.7
4 1 -12 5.1 4.1
4 1 12 4.2 2.3
-4 1 -12 2.1 4.1
4 -1 -12 11 4.6
-4 -1 12 3.2 2.9
4 1 12 3.4 3
-4 1 -12 3.4 3.4
5 -1 12 3.1 2.7
5 -1 12 -2.5 2.8
-5 -1 -12 6 3.5
-5 -1 -12 1 4.2
5 1 -12 0.7 4.1
-5 1 12 -0.4 2.9
5 1 12 7.3 3.1
-5 1 -12 -2.9 3.2
5 -1 -12 5.8 4.4
-5 1 -12 12.1 4.6
-5 -1 12 -1 2.8
5 1 12 -0.3 2.3
-6 -1 -12 12.2 3.9
-6 -1 -12 10.1 4.7
6 -1 12 6.8 2.9
6 -1 12 10 3.4
6 1 -12 6 4.5
-6 1 12 8.6 3.4
-6 1 -12 11.1 4.6
-6 -1 12 11.7 3.7
-6 1 -12 5.1 3.8
6 -1 -12 9.2 4.7
6 1 12 4.7 3.2
6 1 12 3.3 2.4
0 -2 -12 -9 3.9
0 2 -12 3.3 3.5
0 -2 12 1.9 2.7
0 2 12 5.1 2.6
0 2 12 5.9 2.5
0 2 12 2.7 2.7
0 -2 12 2.3 2.4
0 -2 12 5.4 2.5
0 2 -12 -8.7 3.6
-1 2 12 2.7 2.8
-1 2 12 0 2.4
-1 2 12 3.5 2.5
1 2 -12 5.3 3.6
1 -2 12 6.6 2.8
-1 -2 -12 -2.6 4
1 -2 12 2.7 2.6
1 2 -12 0.2 3.7
1 -2 12 4.7 2.4
1 -2 -12 -3.7 3.8
-1 2 -12 -4.3 3.6
-1 -2 12 1.1 2.7
-1 -2 12 1.7 2.5
1 2 12 -0.1 2.3
-1 2 -12 -0.3 3.4
1 2 12 0.3 2.1
1 2 12 4.9 3
-1 -2 12 6.5 2.6
2 -2 12 15.2 3.3
-2 -2 -12 9 4.3
-2 2 12 17.1 3
2 2 -12 11.6 3.8
-2 2 12 16.1 3.2
-2 -2 -12 19.6 3.5
-2 2 12 10.9 3
2 2 -12 10.2 4.1
2 -2 12 11.5 3.1
2 2 12 17.1 2.7
2 -2 -12 9.1 4.3
-2 2 -12 13.3 4.1
2 2 12 20 3.5
-2 2 -12 15.4 3.9
-2 -2 12 18.2 3.2
-3 -2 -12 9.7 4.4
3 2 -12 17.8 4.5
-3 -2 -12 11.4 3.3
-3 2 12 11.7 3
3 -2 12 18.8 3.2
3 2 -12 14.7 4
3 -2 12 13.5 3.2
-3 2 12 12.7 2.9
-3 2 12 17.9 3.3
3 2 12 7.1 2.3
3 2 12 16.4 3.4
-3 -2 12 10.7 3.2
-3 2 -12 3.2 4
3 -2 -12 10.7 4.6
-3 2 -12 14.5 4.1
-4 2 12 9.9 3
4 -2 12 20.7 3.5
4 2 -12 23.6 4.5
4 -2 12 22 3.8
4 2 -12 15.6 4
-4 -2 -12 17.2 4.9
-4 2 12 20.3 3.6
-4 -2 -12 21.3 3.9
-4 2 -12 22.1 4.9
4 2 12 15.1 2.6
4 -2 -12 20.7 5.2
-4 2 -12 18.2 4.1
-4 -2 12 24.2 3.9
4 2 12 18.4 3.6
5 2 -12 9.7 4.4
5 -2 12 2.9 3.1
-5 -2 -12 5.6 3.4
-5 -2 -12 7.2 4.5
-5 2 12 6.2 3.1
5 -2 12 8.2 3
-5 2 12 2.4 2.9
-5 2 -12 2.6 4.1
5 -2 -12 7.3 4.4
-5 2 -12 8.8 4
-5 -2 12 11 3.4
5 2 12 11.3 3.3
5 2 12 7.9 2.3
-6 -2 -12 -0.8 4.7
6 2 -12 1.4 4
6 -2 12 4.7 3
-6 2 12 -2.8 2.9
6 -2 12 6 3.6
-6 -2 -12 0.6 3.5
6 2 12 0.3 3
-6 -2 12 2.7 3.4
6 -2 -12 1.2 4.9
-6 2 -12 3.2 4.2
-6 2 -12 2.9 3.9
0 3 -12 -8.7 4.2
0 -3 -12 -1.1 4.2
0 -3 12 0.7 2.6
0 3 -12 -0.7 3.5
0 3 12 1.6 2.9
0 3 12 2.1 2.2
0 -3 12 -1.8 2.3
0 3 12 -2.9 2.3
1 -3 12 58.29 4.7
-1 -3 -12 50.09 6.2
1 -3 12 60.49 4.8
1 -3 12 44.9 4.4
1 3 -12 51.89 5.5
-1 3 12 60.89 4.9
-1 3 12 50.69 4.7
1 3 -12 34.4 6.4
-1 3 12 56.29 4.8
1 -3 -12 42.1 5.9
-1 -3 12 62.69 5.1
-1 3 -12 50.79 5.3
-1 -3 12 65.79 5
1 3 12 55.29 4.4
1 3 12 65.09 5.2
1 3 12 62.09 5
-2 3 12 7.4 2.6
2 3 -12 4.1 3.8
2 -3 12 7 3
-2 3 12 10.6 3.1
-2 -3 -12 7.2 4.2
2 -3 12 13.3 3.3
-2 3 12 4.9 2.8
2 3 12 9.3 3.1
-2 -3 12 5.8 2.9
-2 3 -12 10 3.8
2 3 12 8.1 2.3
2 -3 -12 -1.7 4
-2 3 -12 -1 4.2
-3 3 12 -0.1 2.7
-3 -3 -12 -0.4 3.9
3 -3 12 2 2.8
3 3 -12 6.3 3.7
-3 3 12 7.3 2.7
-3 3 12 2.4 2.9
3 -3 12 0.5 2.7
-3 -3 12 2 2.9
3 -3 -12 4.9 4.5
3 3 12 -2.8 1.8
3 3 12 7.9 3.2
-3 3 -12 8.3 3.8
-3 3 -12 5.9 4.4
4 3 -12 -0.6 3.5
4 -3 12 1.2 2.9
-4 3 12 3.2 2.7
-4 -3 -12 3.1 3.1
-4 3 12 2.6 2.9
-4 -3 -12 -3.6 4.1
4 -3 12 -4.1 2.7
4 3 12 8.4 3.2
4 -3 -12 0.2 4.3
-4 3 -12 2 3.6
-4 -3 12 -1.3 2.8
-5 3 12 3.9 3
-5 -3 -12 3.1 4.3
5 -3 12 2.7 3.1
5 3 -12 -0.2 3.4
-5 -3 -12 4.4 3.2
-5 3 12 -2 2.9
5 -3 12 0.4 3
5 -3 -12 7.3 4.5
-5 -3 12 4.6 3.1
-5 3 -12 3.9 3.9
5 3 12 6.3 3.1
-6 -3 -12 0.5 3.4
6 3 -12 1.9 5.6
6 -3 12 1.5 3.1
6 3 12 4.6 4
0 -4 -12 19.1 4.9
0 4 12 27.8 3.8
0 4 -12 31.2 4.8
0 4 12 27 3
0 -4 12 23.6 3.5
0 -4 12 25.7 3.5
0 4 12 23.8 3.5
-1 4 12 79.39 6.1
1 4 -12 88.09 7.7
-1 4 12 87.69 6.5
1 -4 12 84.59 5.8
-1 -4 -12 89.79 8.3
-1 4 12 91.79 5.5
1 -4 12 80.99 6.1
1 4 12 81.99 5.8
1 4 12 85.79 6.5
-1 -4 12 82.99 6.1
1 4 12 84.69 5
1 -4 -12 103.19 8.6
-1 4 -12 69.69 6.3
2 4 -12 5.6 3.9
2 -4 12 10.2 3
-2 4 12 10.1 3.2
-2 4 12 7.1 2.6
-2 4 12 7.4 3.1
-2 -4 -12 6.8 4.3
-2 4 -12 8.3 3.9
-2 -4 12 7 3
2 4 12 8.6 2.1
2 -4 -12 0.7 4.2
2 4 12 8.1 3.2
-3 -4 -12 3 4.3
3 -4 12 4.2 3.9
-3 4 12 0.7 2.9
-3 4 12 1.7 2.5
-3 4 12 2.2 2.9
3 4 -12 -5.3 3.5
3 -4 12 2.4 2.9
-3 4 -12 -2.8 3.4
3 -4 -12 -3.5 4
3 4 12 0.2 2.9
-3 -4 12 -1.6 2.7
-4 4 12 29.6 4.1
4 -4 12 28.5 4.2
-4 4 12 35.6 4
-4 -4 -12 28.6 5.4
4 4 -12 22 4.6
4 -4 12 30.2 4.1
4 -4 -12 23.2 5.6
-4 -4 12 29 4.3
4 -4 -12 37.4 4.3
-4 4 -12 22.5 4.6
4 4 12 25.8 4
5 -4 12 15.8 3.7
-5 -4 -12 6.8 5.6
-5 4 12 12.6 3.3
5 4 -12 7.6 4.1
5 -4 12 10.4 3.9
-5 4 12 12.5 4.2
5 4 12 14.5 3.5
-5 -4 12 8 4.6
-5 4 -12 10.7 5.2
5 -4 -12 16.2 6.5
0 5 12 -0.4 2.9
0 -5 -12 -3.3 4
0 -5 12 -4.4 2.5
0 5 -12 -5.2 3.7
0 5 12 1.5 2.7
0 5 12 1.6 2.1
0 -5 12 0.7 2.5
-1 5 12 6.2 2.3
1 -5 12 7.3 2.9
-1 5 12 7.2 3
-1 5 12 1 2.9
1 5 -12 0.7 3.8
-1 -5 -12 -4.5 4.2
-1 5 -12 -4.2 3.7
1 -5 -12 -1.2 4.1
1 5 12 2.4 2.7
-1 -5 12 4 2.9
1 5 12 9.4 3.3
-2 5 12 13.2 3.7
-2 -5 -12 14.9 4.9
2 -5 12 14.5 3.5
2 5 -12 9 4.2
-2 5 12 9.4 3.3
-2 5 12 11.1 2.7
-2 -5 12 16.7 3.6
-2 5 -12 14.2 4.4
2 5 12 13.5 3.7
2 -5 -12 18 5
-3 -5 -12 9 4.5
3 -5 12 8.8 3.4
-3 5 12 14.5 3.5
-3 5 12 10.9 2.8
3 5 -12 8.6 4.3
3 -5 -12 19.9 3.6
-3 5 -12 9.6 4.1
3 -5 -12 14.5 4.8
3 5 12 10 3.4
-3 -5 12 9 3.5
4 5 -12 -5 3.7
-4 5 12 0.9 3.6
4 -5 12 6.9 3.3
-4 -5 -12 2.5 4.4
-4 5 12 0.5 2.7
-4 5 -12 0.2 4.2
4 -5 -12 -1.9 3.1
4 -5 -12 -2.8 4.4
-4 -5 12 -5 3.2
4 5 12 0.7 3
0 -6 -12 9.9 4.5
0 6 12 12.4 3.6
0 6 12 11.7 2.4
0 -6 12 12.6 3.3
0 6 -12 8.4 4.1
0 6 12 19.1 3.6
1 6 -12 15.3 4.5
-1 6 12 14 2.6
1 -6 12 14 3.5
-1 6 12 20 3.8
-1 -6 -12 7.9 4.7
1 6 12 19.5 3.8
1 6 12 18.9 3.4
1 -6 -12 12.1 4.7
-1 -6 12 17.9 3.6
-1 6 -12 16.8 4.6
2 6 -12 4.7 4.1
-2 -6 -12 3 4.3
-2 6 12 5.9 2.5
-2 6 12 10 3.5
2 -6 12 8.7 3.2
-2 -6 12 -3.1 2.9
2 -6 -12 1.3 3.2
2 6 12 -1 3
2 -6 -12 2.4 4.5
-2 6 -12 6.7 4.1
-3 -6 -12 2.9 4.4
3 -6 12 4.9 3.3
3 -6 -12 2.4 3.6
3 -6 -12 1.6 5.5
-3 -6 12 8.9 6
0 7 12 0.4 3.3
0 0 13 1.9 2.7
0 0 -13 -3.9 4
0 0 -13 2.4 3.4
0 0 13 2.4 2.7
0 0 13 0.1 2.5
-1 0 13 1.2 2.7
-1 0 -13 0 3.3
1 0 13 1.9 2.8
1 0 13 -2 2.2
1 0 -13 -2.8 3.9
1 0 13 1.9 2.6
-1 0 -13 -1.2 4.2
-1 0 13 3 2.8
-1 0 13 2.2 2.7
-2 0 -13 22.7 4.3
-2 0 -13 16.1 4.7
-2 0 13 22.9 3.4
-2 0 13 26.5 3.8
2 0 13 20.2 3.3
2 0 13 23 3.8
-2 0 13 22.4 3.5
2 0 -13 11.9 4.7
3 0 -13 46.3 6
3 0 13 50.09 4.1
-3 0 13 43.5 4.7
3 0 13 42.6 4.6
-3 0 13 41.9 4.6
-3 0 -13 43.6 5.9
-3 0 -13 42.9 5.2
-4 0 13 33.1 4.3
4 0 -13 21.5 5.4
4 0 13 34 3.7
4 0 13 23.5 3.9
-4 0 -13 37.9 4.9
-5 0 13 -0.6 3.8
-5 0 -13 0.3 4.5
5 0 -13 -0.1 4.3
5 0 13 3 5.2
-5 0 -13 -2.4 3.5
5 0 13 0 2.6
0 1 13 5.9 2.7
0 1 13 2.2 2.9
0 -1 13 4.6 2.6
0 -1 13 4.8 2.9
0 -1 -13 3.9 4.4
0 1 -13 6.3 3.8
0 -1 13 5 2.8
0 1 -13 -1.3 4.2
0 1 13 0.1 2.4
1 1 -13 7.4 3.8
1 -1 13 10.4 3.1
-1 1 13 11.4 3
-1 1 13 6.3 2.8
-1 -1 -13 0.6 4.4
1 -1 13 11.2 3.2
1 1 -13 -0.3 4.2
1 -1 13 8.3 3.1
-1 1 13 7.2 3.1
1 1 13 6.2 2.7
1 1 13 7.1 3.2
-1 -1 13 7.8 2.9
-1 -1 13 12.8 3.4
-1 -1 13 11.8 3
-1 1 -13 7.9 3.8
1 1 13 3.5 2.5
1 -1 -13 6 4.5
-1 1 -13 0.1 4.4
-2 1 13 2.8 2.9
2 1 -13 4.8 4.3
2 -1 13 8.4 3.1
2 -1 13 9.2 3
-2 -1 -13 3.7 3.4
-2 1 13 6.1 2.9
-2 -1 -13 -0.3 4.3
-2 1 13 6.7 2.8
2 1 -13 0.2 3.5
-2 -1 13 4.7 2.9
-2 -1 13 4.8 3.1
-2 1 -13 6.7 3.7
-2 -1 13 8.6 3.9
2 1 13 3.2 2.4
-2 1 -13 6.8 4.4
2 -1 -13 1.2 4.4
2 1 13 6.1 3.1
3 -1 13 13 3.1
-3 -1 -13 17.1 3.9
-3 1 13 14.9 4.4
-3 1 13 16.3 3.5
-3 1 13 18.1 3.5
3 1 -13 13.2 4.7
3 -1 13 17.1 3.4
-3 -1 -13 11.7 4.8
-3 -1 13 20 3.6
-3 1 -13 11.5 4.6
3 1 13 13.6 2.8
3 1 13 13.9 3.6
-3 1 -13 11.6 4
3 -1 -13 10 4.8
-4 1 13 94.69 7.1
4 1 -13 101.59 8.9
4 -1 13 106.09 6.6
4 -1 13 100.29 7.3
-4 1 13 93.69 6.8
-4 -1 -13 100.99 7.5
-4 1 -13 109.19 8.2
4 1 13 92.89 7.4
4 1 13 104.69 6
4 -1 -13 108.69 9.5
-4 -1 13 97.29 7.1
-5 -1 -13 18.1 5.6
-5 -1 -13 14 4.2
5 -1 13 26.5 6.5
5 -1 13 8.4 3.1
5 1 -13 12 4.9
-5 1 -13 21.2 4.5
5 1 13 15.2 6.3
-5 1 -13 8.4 4.9
5 -1 -13 8.7 5.1
0 -2 -13 -8 4.3
0 2 13 -2.7 2.3
0 -2 13 -4.1 2.8
0 -2 13 0.9 2.6
0 2 13 -0.6 2.5
0 -2 13 -0.1 2.5
0 2 -13 -7.9 4
0 2 13 -0.7 2.9
0 2 -13 -2.8 3.6
-1 2 13 10.5 3
1 2 -13 7.8 4.4
-1 -2 -13 1.8 4.7
-1 2 13 12 3
1 2 -13 14.4 4.2
-1 2 13 11.5 3.2
1 -2 13 9.1 3
1 -2 13 14.5 3.1
1 -2 -13 4.6 4.4
1 2 13 13.2 3.4
-1 2 -13 5.8 4.6
1 2 13 15.3 3.1
-1 -2 13 19.3 3.3
-1 -2 13 13.1 3.1
1 2 13 10.5 2.7
-1 2 -13 12.1 4
2 -2 13 54.39 5
-2 -2 -13 52.59 6.4
2 2 -13 48.9 5.9
-2 2 13 57.89 4.9
-2 2 13 42.4 4.5
2 2 -13 50.99 5.6
-2 2 13 54.79 4.5
2 -2 13 44.6 4.5
2 2 13 55.19 5
-2 2 -13 54.19 6.1
-2 2 -13 56.59 5.8
2 2 13 47.1 3.9
-2 -2 13 58.99 5.2
2 -2 -13 47.7 6.4
-3 2 13 30.1 3.9
3 2 -13 42.4 5.2
-3 2 13 36.3 4.1
-3 2 13 32.3 4.2
3 -2 13 35.7 4.5
3 -2 13 46.8 4.4
-3 -2 -13 37.8 5.6
-3 -2 -13 32 5.7
3 2 -13 35.3 5.6
3 -2 -13 32.4 6
3 2 13 39.4 3.6
-3 -2 13 46.8 4.8
3 2 13 41.4 4.6
-3 2 -13 44.8 5.5
-4 -2 -13 4.3 3.3
4 2 -13 10.9 4.4
-4 2 13 1.9 3.1
4 -2 13 -1.1 3
-4 -2 -13 1.1 4.5
-4 2 13 2.1 2.9
4 -2 13 7.3 3.1
-4 2 -13 1.2 4.2
-4 -2 13 3.1 3.1
-4 2 -13 7 4.2
4 2 13 6.1 2.5
4 2 13 6.4 3.4
4 -2 -13 5.8 4.8
-5 -2 -13 47.8 5.3
5 -2 13 53.29 4.8
5 2 -13 43.2 6.1
-5 2 -13 47.6 6.3
0 3 13 298.77 12.9
0 -3 13 288.07 12.7
0 3 13 325.57 13.3
0 3 -13 311.97 14.2
0 -3 13 288.57 12.7
0 3 13 320.77 12.3
1 -3 13 3.1 2.9
-1 -3 -13 1 4.5
-1 3 13 2.8 2.9
-1 3 13 1.4 2.5
-1 3 13 7.7 3.2
1 -3 13 2.3 3.2
1 3 -13 4.4 4
1 3 13 5.6 2.4
1 -3 -13 3 4.2
1 3 13 2.8 3.2
1 3 13 3.4 2.6
-1 -3 13 6 2.8
-1 3 -13 3.9 4
-2 -3 -13 2.9 4.4
2 -3 13 -0.2 2.8
2 -3 13 -1.1 2.9
-2 3 13 1.4 3
-2 3 13 5.1 2.7
2 3 -13 0.3 3.9
-2 3 13 0.5 2.9
2 3 13 3.3 2.1
-2 3 -13 0.6 3.7
-2 -3 13 0.9 2.9
2 -3 -13 1.4 4.5
2 3 13 3.1 3.2
-3 3 13 19.5 3.8
-3 3 13 17.1 3.2
3 -3 13 11.6 3.5
-3 -3 -13 14.8 4.9
-3 3 13 12.4 3.4
3 -3 13 13.2 3.4
3 3 -13 12.4 4.2
3 3 13 16.3 3.8
-3 3 -13 11.3 4.2
3 3 13 12.6 2.5
-3 -3 13 11.7 3.5
3 -3 -13 8.9 5
4 -3 13 29.1 4.3
-4 -3 -13 30.3 6.1
-4 3 13 47.9 4.6
4 -3 13 40.7 4.5
4 3 -13 36.2 5.2
-4 3 13 36.1 5.7
4 -3 -13 43.2 7.2
-4 3 -13 39.8 5.6
-4 -3 13 30.8 4.9
4 3 13 29.2 4.7
0 -4 13 2.4 2.6
0 4 13 4.6 2.3
0 -4 -13 -6.5 4.1
0 4 -13 -3.6 3.9
0 -4 13 3.6 2.8
0 4 13 3.2 3.2
0 4 13 1.9 2.8
1 -4 13 7.8 3.1
-1 4 13 6.8 3.4
-1 4 13 8.2 3.1
1 4 -13 13.5 4.4
-1 4 13 6.5 2.6
-1 -4 -13 7.4 5
1 -4 -13 -2 4.2
-1 4 -13 21.8 4.6
1 4 13 11.1 3.5
-1 -4 13 8.2 3.1
1 4 13 6 2.8
1 4 13 10.1 2.3
2 4 -13 78.69 7.1
2 -4 13 86.29 6.6
-2 4 13 76.79 5.8
-2 4 13 86.19 6.8
-2 -4 -13 62.69 7.1
-2 4 13 96.99 6.9
2 4 13 67.69 4.8
2 -4 -13 78.79 7.7
2 4 13 90.49 6.9
-2 4 -13 80.09 6.8
-2 -4 13 77.49 6.3
-3 -4 -13 1.8 4.9
-3 4 13 0.8 3.2
3 4 -13 5.4 4.1
-3 4 13 4.3 2.8
3 -4 13 -2.1 2.9
-3 4 -13 -1 3.9
3 4 13 4.3 3.6
3 -4 -13 -2 8.4
-3 -4 13 0 3
4 4 -13 -0.4 4
-4 4 13 1 3.4
0 5 13 68.39 5.1
0 5 13 76.19 6.2
0 -5 -13 65.59 7.1
0 -5 13 73.89 5.7
0 5 -13 59.69 6.3
0 5 13 72.39 6
-1 5 13 -0.3 3.2
1 -5 13 -0.3 2.9
-1 -5 -13 2.4 5
-1 5 13 -1.3 2.6
-1 5 13 -1.7 2.8
1 5 -13 0.8 4.1
1 5 13 -1.3 2.5
-1 -5 13 -0.1 2.8
-1 5 -13 -2.4 4.4
1 5 13 -2.7 3.7
1 -5 -13 2.3 5.5
-2 5 13 15.3 4.1
2 5 -13 18.2 5.1
2 -5 13 11.2 3.4
-2 5 13 23.4 5
-2 -5 13 15.2 3.6
0 0 -14 8.1 4.6
0 0 14 9.6 3.3
0 0 14 6 2.9
0 0 14 10.2 3.3
-1 0 -14 77.99 6.4
1 0 -14 46.8 6.4
-1 0 14 71.89 5.5
-1 0 14 67.79 5.5
1 0 14 67.69 5.2
1 0 14 65.39 5.5
-1 0 -14 56.39 6.9
-1 0 14 71.29 5.4
-2 0 14 1.2 2.9
2 0 14 -0.4 3
2 0 14 -0.8 2.5
-2 0 14 7.4 3.7
-2 0 -14 0.9 3.7
2 0 -14 -3.7 4.4
-2 0 14 1.5 3
-2 0 -14 -3.9 4.4
3 0 14 3.5 5.4
3 0 -14 4.3 5
-3 0 14 2.3 3.3
-3 0 -14 -3.1 4.2
-3 0 -14 6.7 4
3 0 14 1.5 2.9
0 -1 14 -4.3 2.7
0 1 -14 -8 4.1
0 1 -14 -3.7 3.7
0 1 14 1.9 2.6
0 -1 14 -0.5 2.5
0 1 14 -1.4 3
0 1 14 -2.8 2.5
0 -1 14 -0.9 2.8
0 -1 -14 -7.9 4.1
1 -1 14 10 3.4
-1 1 14 15.5 3.5
-1 1 14 14.3 3.2
-1 1 14 13.8 3.3
1 -1 14 13.2 3.4
-1 -1 -14 14.1 5.1
1 1 -14 4.2 4.5
-1 -1 14 11.6 3.5
1 -1 -14 9.2 4.8
1 1 14 13 3.1
-1 1 -14 6.9 4.2
-1 1 -14 4.4 4.8
-1 -1 14 18.9 3.5
-1 -1 14 13.4 3.3
1 1 14 11.5 3.5
2 1 -14 4.9 4.7
-2 1 14 1.2 2.9
2 -1 14 9.4 3.4
2 -1 14 7.5 3.1
-2 1 14 1.3 2.8
-2 -1 -14 -0.1 4.6
-2 1 14 9.4 3.2
2 1 14 7.7 3.5
-2 1 -14 4.1 4
-2 1 -14 4.9 4.6
2 -1 -14 1.7 4.7
2 1 14 3.3 2.7
-2 -1 14 7 3.2
3 -1 14 0.5 2.8
3 1 -14 3.5 5
-3 1 14 10.5 3.1
-3 1 14 -1.6 3.6
-3 -1 -14 1.6 3.8
-3 -1 -14 8 5.1
3 -1 14 0.7 4.3
-3 -1 14 1.1 3.4
3 -1 -14 7.7 8.3
-3 1 -14 -3.4 3.8
-3 1 -14 -3.4 4.3
0 -2 14 3.8 3
0 2 14 2.4 2.8
0 2 14 8.3 3.4
0 -2 -14 3.9 4.8
0 2 -14 -2.4 3.9
0 2 -14 -7.7 4.1
0 -2 14 3.9 3.1
0 -2 14 4.7 2.8
0 2 14 5.5 2.6
1 2 -14 4.3 3.9
1 2 -14 -2.5 4.2
-1 2 14 -3.8 2.6
-1 2 14 9.4 3.3
-1 2 14 -1.1 2.5
-1 -2 -14 4.4 4.9
1 -2 14 5 3
1 -2 14 3.3 3
-1 2 -14 0.3 4.1
-1 2 -14 -1.7 4.4
-1 -2 14 0.3 2.7
1 -2 -14 -4.5 4.4
1 2 14 4 2.6
1 2 14 -0.1 3.2
-2 2 14 3 3.1
2 -2 14 -1.1 2.9
2 2 -14 0.7 4.4
-2 2 14 2 3
2 -2 14 3.4 3.1
-2 2 14 0.1 2.8
-2 -2 -14 -2.8 5.1
2 2 -14 -4.7 3.9
-2 2 -14 4.2 4.7
-2 2 -14 -4.2 3.8
2 -2 -14 -4.5 5
2 2 14 0.9 3.4
2 2 14 -0.1 2.8
-2 -2 14 -6.4 2.6
3 2 -14 4.6 4.7
-3 2 14 13.3 3.3
3 -2 14 6.4 3.2
-3 2 -14 5.9 5.4
-3 2 -14 5.9 4.6
0 -3 14 -3.4 2.6
0 3 -14 -1.4 4.1
0 3 14 -2.4 2.6
0 3 14 -0.8 3.1
0 3 14 0.1 2.8
0 -3 14 -0.7 2.7
1 -3 14 6.8 3.2
1 3 -14 -3.3 4.1
-1 3 14 11.6 3.5
-1 3 14 9.9 3.6
-1 3 14 5.1 3.1
-1 -3 14 8 3.2
1 3 14 8.7 5.7
-1 3 -14 5.9 4.3
2 3 -14 14.7 4.8
2 -3 14 13.6 3.5
2 -3 14 18.4 3.9
-2 3 14 15.1 3.8
-2 -3 14 15.4 4
