#------------------------------------------------------------------------------
#$Date: 2020-02-04 05:13:16 +0200 (Tue, 04 Feb 2020) $
#$Revision: 247531 $
#$URL: file:///home/coder/svn-repositories/cod/cif/4/13/39/4133973.cif $
#------------------------------------------------------------------------------
#
# This file is available in the Crystallography Open Database (COD),
# http://www.crystallography.net/
#
# All data on this site have been placed in the public domain by the
# contributors.
#
data_4133973
loop_
_publ_author_name
'Bear, Joseph C.'
'Cockcroft, Jeremy K.'
'Williams, Jeffrey H.'
_publ_section_title
;
 Influence of Solvent in Crystal Engineering: A Significant Change to the
 Order-Disorder Transition in Ferrocene.
;
_journal_issue                   4
_journal_name_full               'Journal of the American Chemical Society'
_journal_page_first              1731
_journal_page_last               1734
_journal_paper_doi               10.1021/jacs.9b11895
_journal_volume                  142
_journal_year                    2020
_chemical_formula_moiety         'C10 H10 Fe, 2(C3 F3)'
_chemical_formula_sum            'C16 H10 F6 Fe'
_chemical_formula_weight         372.09
_chemical_name_systematic        Ferrocene:hexafluorobenzene
_space_group_crystal_system      triclinic
_space_group_IT_number           2
_space_group_name_Hall           '-P 1'
_space_group_name_H-M_alt        'P -1'
_atom_sites_solution_hydrogens   difmap
_atom_sites_solution_primary     dual
_audit_creation_date             2019-04-25
_audit_creation_method
;
Olex2 1.2
(compiled 2018.05.29 svn.r3508 for OlexSys, GUI svn.r5506)
;
_cell_angle_alpha                77.256(5)
_cell_angle_beta                 77.158(5)
_cell_angle_gamma                84.012(4)
_cell_formula_units_Z            2
_cell_length_a                   7.2024(4)
_cell_length_b                   9.1760(5)
_cell_length_c                   11.6626(7)
_cell_measurement_reflns_used    4934
_cell_measurement_temperature    285
_cell_measurement_theta_max      27.2450
_cell_measurement_theta_min      4.3150
_cell_volume                     731.74(7)
_computing_cell_refinement       'CrysAlisPro 1.171.39.46 (Rigaku OD, 2018)'
_computing_data_collection       'CrysAlisPro 1.171.39.46 (Rigaku OD, 2018)'
_computing_data_reduction        'CrysAlisPro 1.171.39.46 (Rigaku OD, 2018)'
_computing_molecular_graphics    'Olex2 (Dolomanov et al., 2009)'
_computing_publication_material  'Olex2 (Dolomanov et al., 2009)'
_computing_structure_refinement  'ShelXL (Sheldrick, 2015)'
_computing_structure_solution    'ShelXT (Sheldrick, 2015)'
_diffrn_ambient_environment      C6F6
_diffrn_ambient_temperature      285
_diffrn_detector                 'CCD plate'
_diffrn_detector_area_resol_mean 5.2031
_diffrn_detector_type            Atlas
_diffrn_measured_fraction_theta_full 0.998
_diffrn_measured_fraction_theta_max 0.998
_diffrn_measurement_details
;
List of Runs (angles in degrees, time in seconds):

  # Type    Start    End  Width  t~exp~   \w     \q     \k     \f   Frames
--------------------------------------------------------------------------
  1  \w    -27.00  50.00   1.00    4.00    --   11.17 -93.00   7.85   77
  2  \w    -47.00  44.00   1.00    4.00    --   11.17 -77.00 150.00   91
  3  \w    -14.00  85.00   1.00    4.00    --   11.17  77.00   0.00   99
  4  \w    -20.00  84.00   1.00    4.00    --   11.17  77.00 150.00  104
  5  \w     -9.00  70.00   1.00    4.00    --   11.17  38.00 -60.00   79
  6  \w    -50.00  36.00   1.00    4.00    --   11.17 -38.00-150.00   86
  7  \w     15.00  67.00   1.00    4.00    --   12.00-123.00  80.42   52
  8  \w     46.00  71.00   1.00    4.00    --   12.00-129.00-121.81   25
;
_diffrn_measurement_device       'four-circle diffractometer'
_diffrn_measurement_device_type  'SuperNova, Dual, Cu at home/near, Atlas'
_diffrn_measurement_method       '\w scans'
_diffrn_orient_matrix_type
'CrysAlisPro convention (1999,Acta A55,543-557)'
_diffrn_orient_matrix_UB_11      -0.0536779000
_diffrn_orient_matrix_UB_12      0.0256817000
_diffrn_orient_matrix_UB_13      0.0512834000
_diffrn_orient_matrix_UB_21      0.0824593000
_diffrn_orient_matrix_UB_22      0.0306693000
_diffrn_orient_matrix_UB_23      0.0066813000
_diffrn_orient_matrix_UB_31      -0.0235872000
_diffrn_orient_matrix_UB_32      0.0685713000
_diffrn_orient_matrix_UB_33      -0.0372120000
_diffrn_radiation_monochromator  mirror
_diffrn_radiation_probe          x-ray
_diffrn_radiation_type           MoK\a
_diffrn_radiation_wavelength     0.71073
_diffrn_reflns_av_R_equivalents  0.0423
_diffrn_reflns_av_unetI/netI     0.0317
_diffrn_reflns_Laue_measured_fraction_full 0.998
_diffrn_reflns_Laue_measured_fraction_max 0.998
_diffrn_reflns_limit_h_max       9
_diffrn_reflns_limit_h_min       -9
_diffrn_reflns_limit_k_max       11
_diffrn_reflns_limit_k_min       -11
_diffrn_reflns_limit_l_max       14
_diffrn_reflns_limit_l_min       -14
_diffrn_reflns_number            11396
_diffrn_reflns_point_group_measured_fraction_full 0.998
_diffrn_reflns_point_group_measured_fraction_max 0.998
_diffrn_reflns_theta_full        25.242
_diffrn_reflns_theta_max         26.370
_diffrn_reflns_theta_min         3.513
_diffrn_source                   'micro-focus sealed X-ray tube'
_diffrn_source_type              'SuperNova (Mo) X-ray Source'
_exptl_absorpt_coefficient_mu    1.090
_exptl_absorpt_correction_T_max  1.000
_exptl_absorpt_correction_T_min  0.249
_exptl_absorpt_correction_type   gaussian
_exptl_absorpt_process_details
;
CrysAlisPro 1.171.39.46 (Rigaku Oxford Diffraction, 2018)
Numerical absorption correction based on gaussian integration over
			a multifaceted crystal model
Empirical absorption correction using spherical harmonics,
 implemented in SCALE3 ABSPACK scaling algorithm.
;
_exptl_crystal_colour            'clear yellowish orange'
_exptl_crystal_colour_lustre     clear
_exptl_crystal_colour_modifier   yellowish
_exptl_crystal_colour_primary    orange
_exptl_crystal_density_diffrn    1.689
_exptl_crystal_description       plate
_exptl_crystal_F_000             372
_exptl_crystal_preparation       'Ferrocene disssolved in hot C6F6'
_exptl_crystal_recrystallization_method
'Crystals grown using C6F6 as solvent in an NMR tube stood in hot water'
_exptl_crystal_size_max          0.809
_exptl_crystal_size_mid          0.627
_exptl_crystal_size_min          0.286
_refine_diff_density_max         0.203
_refine_diff_density_min         -0.328
_refine_diff_density_rms         0.049
_refine_ls_extinction_method     none
_refine_ls_goodness_of_fit_ref   1.047
_refine_ls_hydrogen_treatment    refall
_refine_ls_matrix_type           full
_refine_ls_number_parameters     248
_refine_ls_number_reflns         2991
_refine_ls_number_restraints     0
_refine_ls_restrained_S_all      1.047
_refine_ls_R_factor_all          0.0448
_refine_ls_R_factor_gt           0.0345
_refine_ls_shift/su_max          0.001
_refine_ls_shift/su_mean         0.000
_refine_ls_structure_factor_coef Fsqd
_refine_ls_weighting_details
'w=1/[\s^2^(Fo^2^)+(0.0428P)^2^+0.0545P] where P=(Fo^2^+2Fc^2^)/3'
_refine_ls_weighting_scheme      calc
_refine_ls_wR_factor_gt          0.0849
_refine_ls_wR_factor_ref         0.0928
_reflns_Friedel_coverage         0.000
_reflns_number_gt                2406
_reflns_number_total             2991
_reflns_threshold_expression     'I > 2\s(I)'
_cod_data_source_file            ja9b11895_si_002.cif
_cod_data_source_block           exp_1283
_cod_depositor_comments
'Adding full bibliography for 4133967--4133980.cif.'
_cod_original_cell_volume        731.73(7)
_cod_database_code               4133973
_shelx_shelxl_version_number     2014/7
_chemical_oxdiff_formula         'Fe C16 F6 H10'
_chemical_oxdiff_usercomment     'Yet Another Crystal'
_shelx_space_group_comment
;
The symmetry employed for this shelxl refinement is uniquely defined
by the following loop, which should always be used as a source of
symmetry information in preference to the above space-group names.
They are only intended as comments.
;
_shelx_estimated_absorpt_t_max   0.746
_shelx_estimated_absorpt_t_min   0.472
_reflns_odcompleteness_completeness 99.80
_reflns_odcompleteness_iscentric 1
_reflns_odcompleteness_theta     26.32
_olex2_refinement_description
;
;
_shelx_res_file
;
    exp_1283.res created by SHELXL-2014/7

TITL exp_1283 in P-1
REM P-1 (#2 in standard setting)
CELL 0.71073 7.202376 9.175977 11.662574 77.256 77.158 84.0121
ZERR 2 0.000389 0.000459 0.00071 0.0047 0.0049 0.0043
LATT 1
SFAC C H F Fe
UNIT 32 20 12 2

L.S. 10 0 0
PLAN  1
SIZE 0.286 0.627 0.809
TEMP -8.15
BOND $H
CONF
list 4
fmap 2 53
acta
SHEL 50 0.8
REM <olex2.extras>
REM <HklSrc "%.\\exp_1283.hkl">
REM </olex2.extras>

WGHT    0.042800    0.054500
FVAR       7.81551
FE1   4    0.240746    0.496451    0.251856    11.00000    0.04998    0.04131 =
         0.04372   -0.00463   -0.01429    0.00190
C7    1    0.312988    0.677783    0.122177    11.00000    0.07153    0.07546 =
         0.10656    0.03933   -0.02796   -0.01864
H7    2    0.422850    0.705655    0.097914    11.00000    0.09544
C8    1    0.238830    0.572874    0.075771    11.00000    0.09734    0.07664 =
         0.04434   -0.00218   -0.01476    0.02252
H8    2    0.298259    0.527712    0.019497    11.00000    0.08920
C9    1    0.055042    0.551187    0.138843    11.00000    0.07660    0.06650 =
         0.06577   -0.00718   -0.03681    0.00290
H9    2   -0.030212    0.482154    0.129470    11.00000    0.10680
C10   1    0.013222    0.640130    0.225210    11.00000    0.06755    0.07237 =
         0.06295   -0.00959   -0.02040    0.02265
H10   2   -0.107632    0.641003    0.284317    11.00000    0.10470
C11   1    0.171315    0.718469    0.214826    11.00000    0.11695    0.04388 =
         0.08456   -0.01141   -0.05151    0.01078
H11   2    0.186231    0.780960    0.263072    11.00000    0.09557
C12   1    0.472800    0.407730    0.318401    11.00000    0.05374    0.08785 =
         0.10073    0.02100   -0.03280   -0.00206
H12   2    0.582814    0.446232    0.294282    11.00000    0.08154
C13   1    0.404762    0.303288    0.268365    11.00000    0.08398    0.06670 =
         0.06412   -0.00782   -0.01213    0.03294
H13   2    0.466537    0.263497    0.205684    11.00000    0.08579
C14   1    0.220242    0.276612    0.329598    11.00000    0.08568    0.04355 =
         0.06646   -0.00367   -0.02363   -0.00202
H14   2    0.139675    0.212702    0.315417    11.00000    0.07955
C15   1    0.172098    0.363240    0.417960    11.00000    0.06919    0.05942 =
         0.05009    0.00093   -0.01069    0.00120
H15   2    0.053283    0.367238    0.467647    11.00000    0.08534
C16   1    0.327410    0.444916    0.410716    11.00000    0.09695    0.06057 =
         0.06612   -0.00855   -0.04600    0.00204
H16   2    0.333354    0.513966    0.453045    11.00000    0.08675
F1    3    0.369602    0.998094   -0.113318    11.00000    0.06274    0.10936 =
         0.10246   -0.01521    0.00891   -0.00039
F2    3    0.132523    0.814745   -0.154504    11.00000    0.11528    0.07238 =
         0.06979   -0.02777   -0.01123    0.01626
F3    3   -0.235981    0.815954   -0.040717    11.00000    0.09798    0.09281 =
         0.12352   -0.02983   -0.03139   -0.02716
C1    1    0.186286    0.999341   -0.057678    11.00000    0.05555    0.05695 =
         0.06225    0.00105   -0.00627    0.00595
C2    1    0.066554    0.906803   -0.078359    11.00000    0.07780    0.04580 =
         0.04946   -0.00846   -0.01288    0.01021
C3    1   -0.118713    0.907434   -0.020991    11.00000    0.06511    0.05111 =
         0.06536   -0.00482   -0.01770   -0.00453
F4    3    0.794072    0.153745    0.507658    11.00000    0.09287    0.10938 =
         0.14255   -0.01714   -0.03983   -0.03953
F5    3    0.447197    0.202780    0.642370    11.00000    0.14777    0.07709 =
         0.08521   -0.03768   -0.03576    0.01312
F6    3    0.152361    0.049757    0.634056    11.00000    0.07132    0.11133 =
         0.08941    0.00029    0.00907    0.01742
C4    1    0.647985    0.077246    0.503698    11.00000    0.06361    0.05586 =
         0.07182    0.00346   -0.02546   -0.01253
C5    1    0.473604    0.101914    0.572166    11.00000    0.08370    0.04587 =
         0.05298   -0.00797   -0.02251    0.00699
C6    1    0.325124    0.024655    0.568188    11.00000    0.05783    0.05787 =
         0.05468    0.00374   -0.00553    0.00788
HKLF 4

REM  exp_1283 in P-1
REM R1 =  0.0345 for    2406 Fo > 4sig(Fo)  and  0.0448 for all    2991 data
REM    248 parameters refined using      0 restraints

END

WGHT      0.0430      0.0545

REM Highest difference peak  0.203,  deepest hole -0.328,  1-sigma level  0.049
Q1    1   0.6742  0.1797  0.5744  11.00000  0.05    0.19
;
_shelx_res_checksum              43561
_shelx_hkl_file
;
   0   0  -2 7635.73 311.306   4
   0   0   2 7275.90 280.223   4
   0   0  -2 6612.67 316.962   2
   0   0   2 6618.06 326.115   3
   0   0  -3 10.8193 41.3320   4
   0   0  -3 169.629 105.568   2
   0   0   3 40.1820 33.8477   4
   0   0   3 9.12896 78.1238   2
   0   0   3-13.0241 54.7751   3
   0   0   4 8472.10 573.904   2
   0   0  -4 8924.48 493.730   2
   0   0   4 9651.36 426.727   4
   0   0  -4 9559.22 505.015   4
   0   0   5 6130.42 478.562   3
   0   0   5 6968.56 398.079   4
   0   0  -5 6947.85 483.203   2
   0   0  -5 7173.19 495.581   4
   0   0  -6 59631.7 1677.75   2
   0   0   6 55083.5 1441.15   4
   0   0   7 404.754 187.785   3
   0   0   7 441.465 127.255   4
   0   0  -7 718.825 192.226   4
   0   0  -7 351.831 141.681   2
   0   0   7 556.194 202.605   2
   0   0   8 24312.8 1000.16   4
   0   0   8 21451.4 1152.41   3
   0   0  -8 27266.5 1341.44   4
   0   0  -8 26487.3 1225.78   6
   0   0   8 22924.9 1458.28   2
   0   0  -8 27018.0 1207.90   2
   0   0  -9-77.5033 92.6324   2
   0   0   9 73.0969 70.5193   4
   0   0  -9 242.622 176.764   4
   0   0   9 162.872 116.919   3
   0   0  -9-15.3178 86.5029   6
   0   0 -10 15416.3 1027.08   2
   0   0  10 14164.0 810.861   4
   0   0  10 12058.6 995.196   3
   0   0 -10 13386.2 1043.48   6
   0   0 -11 517.981 215.527   6
   0   0  11 543.644 165.073   4
   0   0 -11 96.4559 72.8950   2
   0   0 -12 9628.80 1036.08   6
   0   0  12 8005.03 672.996   4
   0   0 -12 10426.6 939.815   2
   0   0 -13 575.940 215.011   2
   0   0 -13 80.0424 93.4383   6
   0   0  13 432.174 158.221   4
   0   0  14 171.210 111.652   4
   0   0 -14 53.1462 73.3039   2
   0   0 -14 182.127 85.4121   6
   0   0 -15 91.1128 131.106   6
   0   1 -14 1013.60 360.062   6
   0  -1  14 1221.20 300.977   4
   0   1 -13 263.329 170.394   2
   0  -1  13 417.627 178.915   4
   0   1 -13 151.963 93.1189   6
   0   1 -12 4796.62 660.020   2
   0   1 -12 4708.26 691.314   6
   0  -1  12 3930.33 475.158   4
   0  -1  11 132.232 100.480   4
   0   1 -11-112.363 187.082   2
   0   1 -11-23.4847 77.5628   6
   0   1 -10 6397.32 669.803   2
   0  -1  10 5582.31 513.875   4
   0   1 -10 5982.05 660.292   6
   0  -1  10 4144.87 532.869   3
   0   1  -9 170.935 123.804   4
   0   1  -9 131.020 59.5006   2
   0  -1   9 394.489 139.694   4
   0   1  -9 169.452 98.2528   6
   0  -1   9 279.708 178.976   3
   0   1  -8 932.659 211.035   2
   0   1  -8 573.549 170.992   6
   0  -1   8 545.118 142.808   4
   0   1  -8 506.470 183.735   4
   0  -1   8 541.244 183.260   3
   0  -1   8 184.579 158.126   2
   0   1  -7-5.21847 78.2236   4
   0   1  -7 48.9031 78.8979   2
   0  -1   7 56.9685 85.7289   3
   0   1  -7 15.1601 32.8685   6
   0  -1   7-41.4137 73.9113   4
   0   1  -6 49587.6 1576.10   2
   0   1  -6 48696.0 1418.21   6
   0   1  -5 1201.68 202.385   2
   0  -1   5 974.107 152.462   4
   0   1  -5 1189.69 175.881   6
   0   1  -5 895.046 178.829   4
   0   1  -4 34469.8 1123.10   2
   0   1  -4 34199.8 912.654   6
   0  -1   4 31438.2 980.529   4
   0   1  -4 31894.1 1105.24   4
   0   1  -3-35.3759 34.4594   6
   0  -1   3 74.4722 54.4343   4
   0   1  -3-23.4108 37.7738   2
   0   1  -3 10.6904 29.6098   4
   0  -1   2 572271. 9292.96   4
   0   1  -2 580529. 9337.66   2
   0   1   2 489187. 7726.48   4
   0  -1  -2 488733. 7639.64   2
   0  -1  -3 464.596 83.4651   4
   0   1   3 704.862 137.547   2
   0   1   3 817.038 120.842   4
   0  -1  -3 647.288 110.298   2
   0  -1  -3 538.780 170.684   3
   0  -1  -4 213567. 3781.79   4
   0  -1  -4 210705. 3772.09   2
   0   1   4 187058. 4029.94   2
   0   1   4 220153. 3771.61   4
   0   1   4 210011. 4271.14   3
   0  -1  -4 237831. 4457.02   3
   0  -1  -5 5460.46 386.294   2
   0  -1  -5 5373.83 390.059   4
   0   1   5 5416.55 363.074   4
   0   1   5 5316.87 498.462   3
   0   1   5 4221.57 445.307   2
   0  -1  -6 110607. 2543.34   4
   0  -1  -6 111655. 2461.61   2
   0   1   6 113164. 2374.17   4
   0  -1  -7 28748.2 1100.76   2
   0   1   7 25428.4 1307.98   3
   0   1   7 26799.9 1001.33   4
   0   1   8 55913.4 2344.40   2
   0  -1  -8 69566.4 1966.26   2
   0  -1  -8 70977.7 2175.01   4
   0   1   8 56253.9 2199.33   3
   0   1   8 64229.5 1792.46   4
   0   1   9 375.815 140.533   4
   0   1   9 49.4276 78.7718   2
   0  -1  -9 184.744 140.343   4
   0   1   9 239.568 239.301   3
   0  -1  -9 108.793 83.6145   2
   0  -1 -10 6609.88 702.758   6
   0  -1 -10 6155.66 593.339   2
   0   1  10 6710.60 559.996   4
   0  -1 -11 646.119 177.870   2
   0   1  11 948.103 233.227   4
   0  -1 -11 668.817 265.194   6
   0  -1 -12 4440.58 687.287   6
   0   1  12 3636.10 458.210   4
   0  -1 -12 4085.83 568.000   2
   0   1  13 802.350 234.070   4
   0  -1 -13 618.561 275.442   6
   0  -1 -13 686.870 248.886   2
   0  -1 -14 2851.26 511.502   2
   0   1  14 2153.47 386.563   4
   0  -1 -14 2781.01 630.294   6
   0  -1 -15 70.6134 92.4586   6
   0   1  15 325.941 152.243   4
   0  -2  14-136.580 107.668   4
   0  -2  13 247.105 135.805   4
   0   2 -13-9.29768 111.651   2
   0   2 -13 193.999 133.024   6
   0   2 -12 2358.14 466.698   6
   0   2 -12 1887.17 442.869   2
   0  -2  12 1573.66 304.249   4
   0  -2  11 338.425 130.334   4
   0   2 -11 443.446 185.631   6
   0   2 -11 308.014 109.695   2
   0  -2  10 6075.85 645.006   3
   0   2 -10 8471.19 831.741   2
   0   2 -10 8836.94 780.138   6
   0  -2  10 7293.82 610.611   4
   0   2  -9-47.3288 71.3694   6
   0  -2   9-65.2323 118.109   3
   0  -2   9 44.7011 53.8581   4
   0   2  -9-149.240 123.824   2
   0   2  -8 12008.0 860.101   2
   0  -2   8 8178.27 672.816   3
   0   2  -8 13041.5 1053.87   4
   0  -2   8 9287.35 664.563   4
   0   2  -8 11074.6 725.690   6
   0   2  -7 1947.58 322.358   2
   0  -2   7 1654.17 392.904   2
   0  -2   7 2002.06 273.447   4
   0   2  -7 2383.08 295.179   6
   0   2  -7 2274.82 408.170   4
   0  -2   6 65117.5 2301.01   7
   0   2  -6 66923.1 1691.08   6
   0  -2   6 61419.4 1821.50   4
   0   2  -6 69756.8 2063.52   2
   0   2  -5 424.530 122.663   2
   0  -2   5 454.543 131.515   4
   0   2  -5 429.443 93.0205   6
   0   2  -4 55687.3 1599.10   2
   0  -2   4 54216.8 1537.19   4
   0   2  -4 53695.9 1230.98   6
   0   2  -3 79.8739 66.8051   4
   0  -2   3 72.1983 48.9844   7
   0  -2   3 125.341 72.4885   4
   0   2  -3 33.0747 21.7436   6
   0   2  -3 158.868 92.6692   2
   0  -2   3-19.9976 68.8007   2
   0   2  -2 389609. 6587.35   7
   0  -2   2 435211. 6573.84   4
   0  -2   2 347308. 6233.17   1
   0   2  -2 402563. 6868.58   8
   0  -2   2 338257. 6458.33   2
   0   2  -2 383698. 5832.67   6
   0   2  -2 380768. 6268.39   2
   0   2  -2 381602. 6409.68   4
   0   2  -1 9.81780 48.3124   1
   0  -2   1 43.2429 40.0567   3
   0  -2   1-8.80670 68.7833   8
   0  -2   1-9.82459 49.6858   2
   0   2  -1 171.710 100.158   7
   0   2  -1 33.7139 46.9974   2
   0   2   0 200050. 3667.37   3
   0   2   0 210502. 3609.80   1
   0  -2   0 205637. 3774.00   3
   0   2   0 206834. 3677.26   7
   0   2   1 1165.62 234.793   3
   0   2   1 1127.85 138.663   1
   0  -2  -1 1117.94 185.383   3
   0  -2  -1 1043.95 132.444   1
   0   2   2 535344. 7506.43   1
   0  -2  -2 514048. 7526.85   1
   0   2   3 429.969 120.967   1
   0   2   3 86.4999 53.5953   2
   0  -2  -3-3.13102 33.3589   4
   0  -2  -3 241.471 48.6543   2
   0  -2  -3 664.648 382.161   3
   0   2   4 842.743 140.872   4
   0  -2  -4 882.304 135.936   4
   0   2   4 611.777 146.056   2
   0  -2  -4 1020.69 128.012   2
   0   2   5 7631.35 574.050   2
   0   2   5 8577.25 503.502   4
   0  -2  -5 8318.19 473.804   4
   0  -2  -5 8805.87 444.538   2
   0  -2  -6 169364. 3235.65   2
   0   2   6 172637. 3422.14   4
   0   2   7-30.1714 78.2524   4
   0  -2  -7 51.2285 39.2414   4
   0  -2  -7 116.800 93.0086   2
   0   2   8 13676.2 1035.29   2
   0   2   8 14919.9 1355.51   3
   0   2   8 17610.3 881.453   4
   0  -2  -8 17901.7 849.680   2
   0  -2  -8 16827.8 914.180   4
   0   2   9 974.051 398.578   3
   0  -2  -9 1046.75 210.319   2
   0   2   9 841.364 293.516   2
   0   2   9 1196.25 238.480   4
   0  -2  -9 893.788 218.354   4
   0  -2 -10 4813.18 488.664   2
   0   2  10 4962.63 501.874   4
   0   2  10 3467.37 586.507   2
   0   2  11-73.9582 114.997   4
   0  -2 -11-39.3165 54.7331   2
   0  -2 -12 9357.90 806.241   2
   0  -2 -12 10696.9 1027.42   6
   0   2  12 9223.02 757.190   4
   0   2  13 42.1754 68.9774   4
   0  -2 -13-41.2594 102.372   2
   0  -2 -14 2888.17 498.607   2
   0  -2 -14 2615.37 598.826   6
   0   2  14 2396.63 413.779   4
   0   2  15 29.4350 47.1591   4
   0  -2 -15 86.7580 93.0659   2
   0  -3  13 87.6870 138.799   4
   0  -3  12 2216.91 376.859   4
   0   3 -12 3534.80 630.399   2
   0   3 -12 2308.80 434.148   6
   0   3 -11-72.7041 89.5197   2
   0   3 -11 51.1150 66.0812   6
   0  -3  11-79.3254 115.801   4
   0   3 -10 9289.00 762.613   6
   0  -3  10 8662.83 715.379   4
   0   3 -10 10504.7 968.587   2
   0   3  -9 1137.69 298.914   2
   0  -3   9 470.139 161.590   3
   0  -3   9 1238.46 270.213   4
   0   3  -9 1268.56 252.327   6
   0  -3   8 13806.2 880.895   4
   0   3  -8 15999.1 1054.50   2
   0   3  -8 15107.8 818.296   6
   0  -3   7 806.396 317.789   2
   0   3  -7 1075.61 275.052   4
   0  -3   7 635.614 231.600   7
   0   3  -7 980.437 175.778   6
   0   3  -7 852.947 206.810   2
   0  -3   7 573.190 173.960   4
   0  -3   6 5693.60 689.741   2
   0  -3   6 7482.35 767.059   7
   0   3  -6 6765.54 641.927   4
   0   3  -6 6983.13 595.311   2
   0  -3   6 6690.78 587.911   1
   0  -3   6 7657.53 611.132   4
   0   3  -6 7665.33 456.825   6
   0  -3   5 568.121 159.350   1
   0   3  -5 643.346 184.649   4
   0  -3   5 916.402 198.834   4
   0  -3   5 528.061 231.691   2
   0  -3   5 780.110 226.049   7
   0   3  -5 578.635 166.433   2
   0   3  -5 677.325 115.411   6
   0  -3   4 53597.5 1623.86   1
   0  -3   4 56490.1 1717.64   4
   0   3  -4 52340.9 1162.85   6
   0   3  -4 55002.8 1633.65   2
   0   3  -3 705.889 82.8753   6
   0  -3   3 1094.79 251.499   2
   0   3  -3 923.185 179.304   2
   0   3  -3 711.681 180.643   7
   0  -3   3 913.225 200.325   4
   0   3  -3 784.605 211.051   8
   0   3  -2 16419.1 870.716   7
   0   3  -2 16727.5 674.275   2
   0  -3   2 14851.9 782.182   2
   0   3  -2 17457.8 1101.25   8
   0  -3   2 16728.3 787.530   4
   0  -3   2 16949.9 700.741   3
   0   3  -1 383.131 79.8273   2
   0  -3   1 550.802 171.989   8
   0  -3   1 365.613 56.7297   6
   0  -3   1 468.210 124.714   2
   0  -3   1 450.772 125.406   3
   0   3  -1 270.048 83.5535   7
   0   3  -1 320.174 99.5756   1
   0   3  -1 413.935 154.975   8
   0   3   0 69783.2 1737.98   1
   0   3   0 69621.0 1797.23   3
   0  -3   0 68075.9 1935.88   3
   0  -3   0 65334.5 2325.12   8
   0   3   0 73089.3 1861.71   7
   0   3   1 2106.08 309.173   3
   0  -3  -1 2569.96 436.254   3
   0   3   1 2267.36 121.864   5
   0   3   1 2103.10 226.370   1
   0  -3  -1 2277.47 230.614   1
   0   3   2 26105.9 892.292   1
   0  -3  -2 24419.7 842.880   1
   0  -3  -2 23807.1 1442.79   3
   0  -3  -3 2747.40 289.507   1
   0  -3  -3 2487.12 120.113   2
   0  -3  -3 2390.82 525.412   3
   0   3   3 2411.96 184.619   2
   0   3   3 2615.53 273.520   1
   0   3   4 98294.0 2282.11   1
   0  -3  -4 95286.6 1733.71   2
   0   3   5 1637.04 260.069   1
   0   3   5 1186.65 216.118   2
   0  -3  -5 1515.41 168.382   2
   0   3   6 2304.31 371.201   1
   0  -3  -6 2542.87 462.889   3
   0   3   6 1750.13 298.820   2
   0  -3  -6 2017.23 208.204   2
   0   3   7-124.088 110.255   4
   0   3   7-52.4858 129.924   2
   0  -3  -7 242.688 110.926   4
   0  -3  -7 282.280 166.223   3
   0  -3  -7 56.5493 48.5213   2
   0  -3  -8 24788.7 1629.00   3
   0  -3  -8 23945.7 1052.12   4
   0   3   8 24929.4 1136.92   4
   0  -3  -8 23936.1 953.869   2
   0  -3  -9 6153.60 551.303   4
   0   3   9 5434.95 670.659   2
   0  -3  -9 6122.70 524.715   2
   0   3   9 6615.23 589.293   4
   0  -3 -10 16057.2 887.251   2
   0   3  10 15321.8 947.331   4
   0  -3 -11 1122.44 260.563   2
   0   3  11 1010.94 247.809   4
   0  -3 -12 5665.04 607.582   2
   0   3  12 6018.31 632.459   4
   0  -3 -12 7478.23 835.376   6
   0   3  13 253.959 127.133   4
   0  -3 -13 147.280 80.3926   2
   0   3  14 1079.88 266.924   4
   0  -3 -14 845.009 276.648   2
   0  -3 -14 1491.09 435.587   6
   0   3  15-164.973 117.482   4
   0  -3 -15-31.1682 69.5580   2
   0  -4  13-58.6562 68.9027   4
   0  -4  12 851.464 240.787   4
   0   4 -12 742.890 302.580   2
   0  -4  11 149.172 117.386   4
   0   4 -11 286.021 221.935   2
   0   4 -10 13114.2 844.719   6
   0  -4  10 12787.3 973.565   4
   0  -4   9 183.193 143.783   4
   0   4  -9 195.737 86.8450   6
   0   4  -9-11.3915 87.5113   2
   0   4  -8 7307.37 517.362   6
   0   4  -8 7746.15 757.704   2
   0  -4   8 6269.85 647.716   4
   0   4  -7 65.9986 73.4049   2
   0  -4   7-98.8614 113.351   4
   0   4  -7 97.8512 60.9841   6
   0  -4   6 19363.5 1318.60   7
   0   4  -6 18512.7 1462.18   8
   0   4  -6 19201.9 695.759   6
   0  -4   6 19689.3 1097.25   4
   0  -4   6 16649.4 1281.30   2
   0   4  -6 19854.3 1108.73   2
   0  -4   6 20271.4 1134.42   1
   0  -4   5 42.9834 83.6594   2
   0  -4   5 195.149 115.676   4
   0   4  -5 55.1366 67.5979   2
   0  -4   5 160.165 110.205   7
   0  -4   5 102.225 97.2921   1
   0   4  -5-24.2305 136.895   8
   0   4  -5 91.2507 42.8545   6
   0  -4   4 44041.7 1667.27   4
   0   4  -4 42170.5 2088.91   8
   0   4  -4 41963.3 1445.77   2
   0  -4   4 41723.0 1729.18   7
   0  -4   4 40792.8 1514.55   1
   0   4  -4 40507.7 863.667   6
   0  -4   3 682.309 204.952   2
   0  -4   3 553.767 125.933   3
   0  -4   3 485.654 156.376   4
   0   4  -3 573.057 208.343   8
   0   4  -3 576.061 203.772   7
   0   4  -3 366.568 119.155   2
   0  -4   2 110023. 2707.72   4
   0  -4   2 110271. 2532.79   3
   0   4  -2 112366. 2965.87   7
   0   4  -2 108466. 2311.50   2
   0  -4   2 105548. 1769.08   6
   0   4  -2 109637. 3604.13   8
   0   4  -1 669.793 150.872   1
   0   4  -1 591.124 150.764   7
   0  -4   1 651.775 87.6232   6
   0  -4   1 744.765 210.054   8
   0  -4   1 774.058 185.144   2
   0   4  -1 710.178 119.266   2
   0  -4   1 642.179 137.813   3
   0  -4   0 71822.5 2249.66   3
   0   4   0 75586.1 1974.01   1
   0  -4   0 72098.2 2673.66   8
   0   4   0 74415.2 2118.80   7
   0  -4   0 83339.8 1840.50   2
   0   4   0 72826.4 2024.09   3
   0   4   0 80920.1 1538.56   2
   0   4   1 34632.8 1413.97   3
   0  -4  -1 31464.9 1576.42   3
   0   4   1 32837.4 1215.94   7
   0  -4  -1 31862.5 821.916   2
   0   4   1 32229.0 1145.08   1
   0   4   2 120953. 2169.80   5
   0   4   2 124248. 2719.26   1
   0  -4  -2 121053. 2657.64   1
   0  -4  -3 8667.97 552.238   1
   0   4   3 8708.50 565.190   1
   0  -4  -3 7863.29 927.327   3
   0  -4  -4 4121.94 731.095   3
   0  -4  -4 3940.85 407.902   1
   0   4   4 3825.73 390.780   1
   0  -4  -5 133.681 41.8343   2
   0   4   5 154.914 58.1458   1
   0   4   6 23400.0 1132.05   1
   0   4   6 21833.0 1074.38   2
   0  -4  -6 24978.8 770.027   2
   0  -4  -6 24523.5 958.412   4
   0   4   7-165.099 504.116   3
   0   4   7 82.8415 100.230   1
   0  -4  -7 317.432 119.562   4
   0  -4  -7 352.212 275.396   3
   0  -4  -7 230.987 92.7577   2
   0   4   7 153.638 88.4953   2
   0   4   8 38050.8 1731.97   2
   0  -4  -8 40716.5 1444.34   4
   0  -4  -8 49654.6 2385.15   3
   0   4   8 38313.6 1719.14   1
   0  -4  -8 44294.1 1306.62   2
   0   4   8 31281.9 2875.11   3
   0   4   9 16.5406 100.668   1
   0  -4  -9 74.9779 100.687   2
   0   4  10 5049.62 688.094   2
   0  -4 -10 6254.61 536.043   2
   0  -4 -10 6772.12 964.874   3
   0   4  10 5933.79 717.580   1
   0   4  11 217.528 185.993   2
   0  -4 -11 80.1977 49.6290   2
   0   4  11 25.1586 86.3435   1
   0   4  12 663.055 274.934   1
   0  -4 -12 767.852 217.363   2
   0  -4 -13 63.4951 66.0498   2
   0   4  13 97.3019 141.388   1
   0  -4 -13 386.394 236.731   6
   0  -4 -14 2494.87 540.595   6
   0  -4 -14 1477.39 333.843   2
   0   4  14 1669.83 422.258   1
   0  -4 -15-54.7016 88.9752   2
   0  -5  12 1687.97 394.933   5
   0  -5  12 1543.14 368.698   4
   0   5 -11-0.98177 82.3210   2
   0  -5  11-12.9929 54.8456   4
   0   5 -11-121.431 153.004   8
   0   5 -10 3009.31 817.649   8
   0   5 -10 3916.07 665.918   2
   0  -5  10 2595.82 444.589   4
   0   5  -9-27.6001 90.8380   2
   0  -5   9 54.6687 110.289   4
   0   5  -9 134.507 255.871   8
   0   5  -8 17773.0 1279.78   2
   0   5  -8 16426.6 659.706   6
   0   5  -8 17247.2 1730.09   8
   0  -5   8 15638.9 1092.46   4
   0   5  -7 241.174 169.856   8
   0   5  -7 365.812 127.923   2
   0   5  -7 516.604 94.1410   6
   0  -5   7 284.264 131.877   4
   0   5  -6 12674.7 908.695   2
   0   5  -6 11445.8 1299.28   8
   0  -5   6 10545.8 861.067   4
   0  -5   5 1012.15 217.016   3
   0   5  -5 1862.68 521.314   8
   0  -5   5 992.051 326.239   2
   0  -5   5 1079.20 256.595   1
   0  -5   5 1701.02 341.236   4
   0   5  -5 1002.27 233.970   2
   0   5  -4 42472.7 1938.05   7
   0   5  -4 44853.7 2500.11   8
   0  -5   4 44031.9 1875.57   7
   0  -5   4 36825.3 1829.99   2
   0  -5   4 45121.5 1707.51   1
   0  -5   4 44631.7 1577.01   3
   0   5  -4 44944.8 1566.22   2
   0  -5   3 3693.21 420.347   3
   0   5  -3 4155.25 558.340   7
   0  -5   3 3636.55 494.685   2
   0   5  -3 4582.27 410.515   2
   0  -5   3 4214.81 464.809   1
   0   5  -3 3490.58 681.662   8
   0  -5   3 4079.25 504.430   7
   0  -5   3 4189.57 507.248   4
   0  -5   2 35690.4 794.409   5
   0  -5   2 37212.6 1442.25   3
   0   5  -2 39327.6 1198.47   2
   0  -5   2 33131.0 1439.09   2
   0  -5   2 37132.7 754.529   6
   0  -5   2 36205.4 1507.77   4
   0   5  -2 38501.7 1727.28   7
   0  -5   1 764.077 186.790   3
   0  -5   1 800.923 253.638   8
   0   5  -1 621.065 171.787   1
   0   5  -1 874.247 144.382   2
   0  -5   1 813.793 185.165   2
   0   5  -1 555.145 158.258   7
   0  -5   1 725.595 108.066   6
   0  -5   0 14703.8 1046.36   3
   0  -5   0 17842.8 771.285   2
   0   5   0 15672.1 862.679   1
   0   5   0 16317.5 984.311   7
   0  -5   0 16188.7 1289.28   8
   0   5   0 16675.6 923.104   3
   0   5   0 16464.7 564.845   2
   0  -5  -1 3823.08 271.385   2
   0   5   1 4588.50 519.064   3
   0   5   1 4373.88 435.007   1
   0   5   1 4406.83 470.240   7
   0  -5  -1 3777.20 613.676   3
   0   5   2 65048.9 1924.97   1
   0   5   2 65855.0 1319.15   5
   0  -5  -3 14086.0 1366.98   3
   0   5   3 15498.6 855.924   1
   0   5   3 15433.2 590.322   5
   0   5   4 131754. 3084.10   1
   0   5   4 130061. 5044.50   3
   0   5   5 873.560 209.189   1
   0  -5  -5 1200.56 426.432   3
   0   5   6 36047.4 1241.69   2
   0  -5  -6 35424.8 1264.56   4
   0   5   6 34281.1 2926.74   3
   0  -5  -6 40683.8 2003.12   3
   0   5   6 36689.7 1496.11   1
   0  -5  -7 66.1806 48.7605   4
   0  -5  -7-56.1613 66.7503   2
   0  -5  -7-10.8622 214.611   3
   0   5   7 8.34223 88.6591   1
   0   5   7 83.6385 103.276   2
   0   5   8 6882.69 672.536   1
   0   5   8 7209.61 691.886   2
   0  -5  -8 8373.82 932.552   3
   0  -5  -8 7126.88 452.551   2
   0  -5  -9 80.2635 137.942   3
   0   5   9 7.51823 70.7665   1
   0  -5  -9-98.0831 87.7651   2
   0  -5 -10 972.646 196.662   2
   0   5  10 817.226 269.451   2
   0  -5 -10 724.087 213.886   3
   0   5  10 1096.16 277.222   1
   0   5  11 530.418 216.743   1
   0   5  11 237.353 166.219   2
   0  -5 -11 266.205 93.2519   2
   0  -5 -11-89.7909 313.984   3
   0  -5 -12 3872.06 466.420   2
   0   5  12 3492.69 553.807   1
   0  -5 -13 32.5659 59.1523   2
   0  -5 -13 131.747 162.288   6
   0   5  13 28.1315 92.1958   1
   0  -6  11 71.7484 120.823   4
   0   6 -10 2697.58 597.705   2
   0  -6  10 2631.85 442.276   5
   0   6 -10 3622.88 1010.93   8
   0  -6  10 2809.48 534.955   4
   0  -6   9 487.586 208.720   4
   0   6  -9 672.485 287.395   2
   0  -6   9 292.687 182.517   3
   0   6  -9 831.540 472.350   8
   0  -6   8 9613.96 904.131   4
   0   6  -8 9825.35 984.902   2
   0  -6   8 9386.71 832.107   3
   0   6  -8 10338.6 1488.59   8
   0   6  -7 1567.89 572.501   8
   0  -6   7 2239.31 395.013   3
   0  -6   7 2375.57 430.008   4
   0   6  -7 2728.60 476.241   2
   0   6  -6 18381.4 1893.22   8
   0   6  -6 21214.8 1260.73   2
   0  -6   6 20371.3 1306.19   4
   0  -6   6 17451.4 1087.36   3
   0  -6   5 338.045 213.203   2
   0  -6   5 511.226 220.341   4
   0   6  -5 264.853 129.853   2
   0  -6   5 335.196 154.526   3
   0   6  -5 350.892 218.549   8
   0   6  -4 4759.98 685.451   7
   0   6  -4 5054.88 514.643   2
   0   6  -4 4485.28 881.008   8
   0  -6   4 6277.97 752.944   4
   0  -6   4 4577.09 512.477   3
   0  -6   4 5111.51 347.937   5
   0  -6   4 4392.51 616.178   2
   0   6  -3 116.581 50.4069   2
   0  -6   3 289.511 165.393   4
   0  -6   3 270.363 180.676   3
   0  -6   3 150.484 140.182   2
   0  -6   3 213.936 116.727   1
   0   6  -3 348.297 182.797   7
   0  -6   3 142.457 52.4564   5
   0  -6   2 2160.86 130.523   6
   0  -6   2 1727.86 324.396   3
   0   6  -2 2086.25 414.142   7
   0  -6   2 1788.43 347.683   4
   0   6  -2 1911.30 253.461   2
   0  -6   2 1779.80 306.233   1
   0  -6   2 1796.16 325.715   7
   0  -6   2 1993.80 355.722   2
   0   6  -1-161.365 163.788   7
   0  -6   1 9.28152 47.8026   1
   0  -6   1 17.5001 23.7935   6
   0  -6   1 135.565 142.553   3
   0  -6   1-106.771 128.213   2
   0   6  -1-20.8797 53.2015   1
   0  -6   1-135.111 123.125   8
   0   6  -1 48.7525 31.8725   2
   0  -6   0 43922.4 1614.27   1
   0   6   0 45239.4 1931.19   7
   0   6   0 43460.8 1121.53   2
   0  -6   0 44301.8 1443.53   2
   0  -6   0 43015.6 2320.89   8
   0   6   0 45855.3 1699.59   1
   0  -6   0 43261.3 2071.38   3
   0  -6  -1 9143.52 467.932   2
   0  -6  -1 10464.2 1105.95   3
   0   6   1 11156.0 779.209   1
   0  -6  -1 9535.67 1121.94   8
   0  -6  -1 10489.1 739.290   1
   0   6   1 10410.5 834.226   7
   0  -6  -2 103153. 2669.28   1
   0   6   2 98446.5 1732.33   5
   0   6   2 101647. 2776.98   1
   0   6   2 106472. 3389.82   3
   0   6   2 103888. 2962.30   7
   0   6   3 10429.0 473.875   5
   0   6   3 10048.8 742.670   1
   0  -6  -3 10282.5 724.693   1
   0   6   4 38733.0 1167.65   5
   0   6   4 38140.4 1569.85   1
   0  -6  -4 40512.5 1557.00   1
   0  -6  -5 505.916 349.497   3
   0  -6  -5 380.318 189.916   1
   0   6   5 522.915 386.363   3
   0   6   5 179.124 103.365   1
   0  -6  -6 6181.01 511.897   4
   0   6   6 6539.32 650.500   1
   0  -6  -6 6062.32 825.308   3
   0   6   6 5285.77 1153.78   3
   0   6   7 130.447 111.215   1
   0  -6  -7 553.284 327.740   3
   0   6   8 6519.52 681.545   1
   0  -6  -8 7340.17 876.175   3
   0   6   9-104.932 134.324   2
   0   6   9-127.700 128.491   1
   0  -6 -10 13031.1 1326.76   3
   0   6  10 12608.2 1019.38   1
   0  -6 -11-80.3256 246.210   3
   0   6  11 7.04151 76.1844   1
   0   6  12 2598.97 479.772   1
   0  -6 -13 302.428 207.058   6
   0   6  13-62.5838 102.091   1
   0  -7  10 621.806 267.235   4
   0   7  -9 198.538 240.052   8
   0  -7   9 338.265 201.587   4
   0   7  -9 381.128 211.834   2
   0   7  -8 4534.22 708.293   2
   0  -7   8 4115.43 588.198   3
   0   7  -8 4180.53 1050.74   8
   0  -7   8 2793.77 541.678   4
   0  -7   7 52.9242 100.939   3
   0  -7   7 497.210 159.767   5
   0   7  -7 316.065 168.631   2
   0  -7   7 285.935 179.699   4
   0  -7   6 5477.28 461.993   5
   0   7  -6 4827.01 1088.24   8
   0  -7   6 5063.16 691.299   4
   0  -7   6 5499.21 649.885   3
   0   7  -6 6267.54 707.570   2
   0  -7   5 279.482 147.787   4
   0   7  -5-216.872 338.744   8
   0   7  -5-74.4638 121.610   2
   0  -7   5 111.155 57.5161   5
   0  -7   5 521.510 208.775   3
   0   7  -4 19568.0 1478.96   7
   0  -7   4 15944.1 1253.56   2
   0  -7   4 18479.0 653.970   5
   0  -7   4 17906.5 1192.89   3
   0   7  -4 19914.0 1091.83   2
   0   7  -3 3333.83 389.195   2
   0  -7   3 2319.80 445.058   2
   0  -7   3 2335.18 417.695   3
   0   7  -3 2908.84 558.339   7
   0  -7   3 2913.27 494.084   4
   0  -7   2 12631.3 1018.60   4
   0  -7   2 12499.9 1063.94   3
   0   7  -2 13290.6 727.099   2
   0   7  -2 12096.5 1130.41   7
   0  -7   2 11496.5 904.328   2
   0   7  -1 976.099 317.153   7
   0  -7   1 784.093 280.589   3
   0  -7   1 1025.80 253.674   2
   0   7  -1 908.124 249.111   1
   0  -7   1 1291.54 161.242   6
   0  -7   1 875.871 292.686   8
   0   7  -1 1402.61 206.516   2
   0   7   0 13905.2 1137.68   7
   0  -7   0 12722.8 725.938   2
   0   7   0 13022.4 957.711   3
   0   7   0 12943.3 939.669   1
   0  -7   0 11950.4 1267.09   8
   0  -7   0 13627.1 1251.16   3
   0  -7  -1 498.895 111.324   2
   0   7   1 336.742 179.292   7
   0   7   1 436.354 194.523   1
   0  -7  -1 349.592 247.906   8
   0   7   1 555.058 251.034   3
   0  -7  -1 215.685 287.414   3
   0  -7  -1 615.991 194.719   1
   0  -7  -2 6602.76 979.250   3
   0  -7  -2 6708.93 636.686   1
   0   7   2 7816.75 867.212   3
   0   7   2 7305.43 698.605   1
   0   7   2 7035.61 749.110   7
   0   7   3 322.374 69.6999   5
   0   7   3 235.697 131.954   1
   0   7   3 365.250 188.221   7
   0  -7  -3 234.638 101.600   1
   0   7   3 516.923 277.746   3
   0  -7  -3 179.968 232.302   3
   0  -7  -4 8025.63 709.397   1
   0   7   4 6571.39 659.673   1
   0  -7  -4 5449.13 989.414   3
   0   7   4 7045.31 1062.46   3
   0   7   4 6758.82 439.212   5
   0  -7  -5 6593.73 669.680   1
   0   7   5 6685.95 496.565   5
   0   7   5 6776.93 686.877   1
   0  -7  -5 5171.98 932.264   3
   0   7   6 8680.42 628.674   5
   0  -7  -6 10623.5 1167.38   3
   0  -7  -6 9285.87 816.999   1
   0   7   6 9345.00 828.488   1
   0  -7  -7 548.574 328.561   3
   0   7   7 245.626 161.676   1
   0   7   7 235.455 134.852   5
   0  -7  -8 24162.1 1657.47   3
   0   7   8 20812.2 1343.11   1
   0  -7  -9 1274.87 460.993   3
   0   7   9 176.145 132.466   1
   0   7  10 3891.93 585.676   1
   0  -7 -10 5808.63 914.080   3
   0  -7 -11-280.120 288.427   3
   0   7  11 165.634 133.985   1
   0  -7 -12 1122.87 405.718   3
   0   7  12 1215.48 339.931   1
   0   7  13 123.416 111.511   5
   0   7  13-62.7338 73.1847   1
   0   8  -9 128.614 185.638   2
   0   8  -8 735.888 468.743   8
   0  -8   8 367.385 215.205   4
   0   8  -8-75.9432 117.614   2
   0  -8   7 519.844 239.891   4
   0   8  -7 61.2590 131.964   2
   0   8  -7 362.349 317.491   8
   0  -8   6 8247.11 892.632   3
   0  -8   6 9429.20 1020.79   4
   0   8  -6 9688.43 933.872   2
   0   8  -5 1232.51 303.284   2
   0  -8   5 1598.61 425.821   4
   0  -8   5 1005.51 294.231   3
   0   8  -4 11135.2 1188.94   7
   0   8  -4 10915.2 842.571   2
   0  -8   4 9384.64 964.534   3
   0  -8   3-89.4843 184.316   2
   0   8  -3-93.3041 112.993   7
   0  -8   3 28.7435 132.406   4
   0   8  -3 14.3500 55.4324   2
   0  -8   3 102.540 155.780   3
   0   8  -2 12936.0 755.385   2
   0  -8   2 11983.8 1064.48   4
   0  -8   2 11557.4 922.760   2
   0  -8   2 12071.2 1203.98   3
   0   8  -2 12479.3 1231.36   7
   0   8  -1 100.819 82.9616   7
   0  -8   1 25.4900 63.5153   2
   0  -8   0 3390.90 713.664   3
   0  -8   0 3159.73 359.608   2
   0   8   0 3260.97 603.927   7
   0   8   0 3449.33 519.688   1
   0   8   1-30.6307 66.1721   1
   0  -8  -1-187.062 405.626   3
   0  -8  -1 146.197 57.6337   2
   0   8   1 177.033 157.436   3
   0   8   1-16.7200 128.760   7
   0   8   2 5834.91 779.510   7
   0   8   2 5987.71 677.035   1
   0   8   2 5872.61 782.813   3
   0  -8  -2 5105.58 949.333   3
   0  -8  -3-173.573 327.172   3
   0   8   3-0.72623 94.0552   7
   0   8   3 61.6429 115.809   1
   0   8   4 13581.5 581.061   5
   0   8   4 13417.8 1036.09   1
   0   8   4 14395.5 1244.93   7
   0   8   5 2193.98 407.389   1
   0  -8  -5 2353.92 650.598   3
   0   8   5 3171.73 341.009   5
   0   8   6 10998.4 716.966   5
   0  -8  -6 9654.82 1147.93   3
   0   8   6 10764.8 941.566   1
   0   8   7 154.968 77.2792   5
   0   8   7 1.91921 61.2892   1
   0   8   8 2819.97 498.046   1
   0  -8  -8 3104.18 599.356   3
   0   8   8 2426.24 392.253   5
   0   8   9 154.791 114.913   5
   0   8   9 118.637 121.041   1
   0  -8  -9 501.238 327.721   3
   0  -8 -10 1735.50 507.219   3
   0   8  10 1484.95 349.557   5
   0   8  10 1617.62 384.693   1
   0   8  11-15.1987 94.1040   1
   0   8  11 69.2592 111.381   5
   0  -8 -11 96.2990 216.562   3
   0  -8 -12 1513.19 496.223   3
   0   8  12 1370.55 371.682   1
   0   8  12 1030.63 312.553   5
   0   8  13 62.2568 93.2841   5
   0   9  -8 1057.12 374.816   2
   0   9  -7-119.985 126.349   2
   0  -9   7 26.0023 80.1681   4
   0   9  -6 271.869 149.720   2
   0  -9   6 521.005 270.569   4
   0   9  -5-84.5578 103.141   2
   0  -9   5 179.597 214.361   3
   0  -9   5-91.0079 172.362   4
   0   9  -4 7641.13 727.616   2
   0  -9   4 5957.96 875.229   3
   0   9  -4 6944.49 1003.13   7
   0   9  -3 42.9238 46.6010   2
   0  -9   3 187.097 177.001   4
   0   9  -3-132.101 248.011   7
   0  -9   3-137.994 207.962   3
   0  -9   2 7673.63 922.100   4
   0   9  -2 7781.07 1043.59   7
   0  -9   2 6441.70 989.425   3
   0   9  -1 490.364 234.209   7
   0  -9   1 279.467 196.996   4
   0  -9   1 729.273 393.209   3
   0  -9   0 3098.88 698.244   3
   0   9   0 5187.65 681.174   1
   0   9   0 4690.92 789.031   7
   0   9   1 327.776 213.868   1
   0   9   1 679.540 293.530   7
   0  -9  -1-63.9682 315.946   3
   0   9   2 20501.8 1405.61   1
   0  -9  -2 18241.3 1947.61   3
   0   9   3 297.379 218.982   1
   0   9   3-24.1862 78.0342   7
   0  -9  -3-138.773 339.580   3
   0   9   4 8551.36 891.916   1
   0   9   4 8037.84 981.009   7
   0  -9  -4 7023.60 1179.20   3
   0   9   5 173.908 128.432   1
   0   9   5-53.7241 128.591   7
   0   9   5 56.6872 64.1207   5
   0   9   6 808.356 190.999   5
   0   9   6 581.849 229.401   1
   0   9   7 699.932 257.361   1
   0  -9  -7 1317.27 418.543   3
   0   9   7 861.683 222.638   5
   0   9   8 1619.38 335.592   5
   0  -9  -8 1622.73 476.591   3
   0   9   8 1377.89 370.079   1
   0   9   9 97.7464 119.155   5
   0   9   9 103.144 122.648   1
   0   9  10 1770.69 383.470   5
   0  -9 -10 1719.83 522.033   3
   0   9  10 1772.35 428.845   1
   0   9  11 143.563 166.453   1
   0   9  11-117.396 113.735   5
   0   9  12 1365.15 385.756   1
   0   9  12 1561.53 394.123   5
   0   9  13-90.6115 147.397   5
   0  10  -4 1747.97 539.270   7
   0 -10   4 3048.79 735.100   4
   0  10  -3 33.1528 220.636   7
   0 -10   3 201.744 273.040   3
   0 -10   3 193.902 205.099   4
   0 -10   2 2186.50 633.721   3
   0 -10   2 2314.01 530.841   4
   0  10  -2 2092.11 587.355   7
   0 -10   1 105.277 102.025   4
   0 -10   1-122.790 225.692   3
   0  10  -1-47.0098 151.710   7
   0  10   0 10073.3 1240.76   7
   0 -10   0 6914.53 1197.86   3
   0 -10  -1 945.977 312.183   3
   0  10   1 2441.55 486.795   1
   0  10   1 1855.85 516.988   7
   0 -10  -2 1943.06 670.012   3
   0  10   2 3469.30 602.906   1
   0  10   2 3690.43 742.795   7
   0  10   3 1490.07 467.074   7
   0  10   3 1316.24 388.929   1
   0 -10  -3 609.769 338.820   3
   0 -10  -4 4159.20 942.807   3
   0  10   4 4943.86 712.561   1
   0  10   4 5746.78 908.712   7
   0 -10  -5 59.8710 300.335   3
   0  10   5-43.5701 135.961   7
   0  10   5 28.4292 68.1658   1
   0  10   6 3952.27 782.124   7
   0  10   6 2639.23 531.950   1
   0 -10  -6 3806.35 802.943   3
   0 -10  -7-41.1958 143.106   3
   0  10   7-222.555 181.760   1
   0  10   8 2190.41 491.618   1
   0 -10  -8 2759.20 634.484   3
   0  10   9-181.736 154.110   1
   0 -10  -9 190.576 269.014   3
   0  10  10 1442.75 410.192   1
   0  10  11 287.557 189.057   1
   0  11  -1 647.901 340.437   7
   0 -11   1-314.200 440.795   3
   0 -11   1 612.211 352.561   4
   0 -11   0 40.7828 114.142   4
   0  11   0 259.116 252.096   7
   0 -11  -1-285.396 321.182   3
   0  11   1-228.337 297.881   7
   0 -11  -2 300.990 291.362   3
   0  11   2 2096.86 610.126   7
   0  11   2 1390.05 397.891   1
   0  11   3 249.508 111.416   7
   0  11   3 174.021 165.064   1
   0 -11  -3 330.508 312.881   3
   0  11   4 3569.74 792.371   7
   0 -11  -4 2979.22 856.735   3
   0  11   4 3791.06 675.571   1
   0  11   5-67.2956 112.922   7
   0  11   5-3.71928 91.0218   1
   0 -11  -6 1694.59 541.175   3
   0  11   6 2240.27 517.650   1
   0  11   6 1795.07 564.243   7
   0  11   7 156.781 235.707   7
   0 -11  -7 200.618 231.575   3
   0  11   7-29.6166 112.986   1
   0  11   8 2292.44 534.173   1
   0 -11  -8 2462.35 605.586   3
   0  11   9 29.2801 67.1440   1
   0  11  10 556.156 218.734   1
   0 -12  -1 1049.80 536.441   3
   0 -12  -2 600.462 578.402   3
   0 -12  -3 442.324 428.379   3
   0 -12  -4 632.288 397.008   3
   0 -12  -5 1713.25 591.057   3
   1 -12  -3-23.7458 184.452   3
   1 -12  -2-129.010 431.940   3
   1 -12  -1-149.697 257.852   3
   1 -12   0 151.232 277.881   3
  -1  11   8 171.933 161.782   1
  -1  11   7 984.402 344.471   1
  -1  11   6 10.5115 85.3282   7
   1 -11  -6 323.724 398.950   3
  -1  11   6 44.6782 121.834   1
   1 -11  -5 1622.27 657.971   3
  -1  11   5 1814.94 593.451   7
  -1  11   5 1779.56 494.137   1
  -1  11   4 229.029 155.210   1
   1 -11  -4 145.045 412.795   3
  -1  11   4 89.6624 186.188   7
  -1  11   3 366.418 267.370   7
  -1  11   3 1047.05 358.703   1
   1 -11  -3 453.940 488.997   3
   1 -11  -2 207.145 374.653   3
  -1  11   2 444.393 251.308   1
  -1  11   2 344.773 160.911   7
   1 -11  -1 165.159 316.598   3
  -1  11   1 1092.63 366.978   1
  -1  11   1 1171.74 454.627   7
  -1  11   0 1473.87 526.298   7
  -1  11   0 1181.95 387.638   1
   1 -11   0 1522.69 624.584   3
  -1  11  -1 2949.99 784.004   7
   1 -11   1 1585.92 660.233   3
   1 -11   1 2279.09 555.269   4
   1 -11   2-317.469 212.111   3
  -1  10  11 417.171 253.066   1
  -1  10  10-44.4283 81.9683   1
  -1  10   9 420.679 208.676   1
  -1  10   8-27.9168 79.6118   1
   1 -10  -8 335.655 346.045   3
  -1  10   7 1285.70 491.974   7
   1 -10  -7 1649.14 614.497   3
  -1  10   7 1023.05 338.325   1
   1 -10  -6 341.417 410.102   3
  -1  10   6-44.2510 117.444   1
  -1  10   6 174.987 194.063   7
   1 -10  -5 2293.50 755.886   3
  -1  10   5 3673.88 772.027   7
  -1  10   5 2946.94 587.452   1
  -1  10   4 261.453 176.873   1
  -1  10   4 156.547 227.285   7
   1 -10  -4 110.099 318.867   3
  -1  10   3 12099.3 1403.85   7
  -1  10   3 9899.45 1075.07   1
  -1  10   2 346.215 273.095   7
   1 -10  -2-407.614 473.512   3
  -1  10   2 274.158 191.567   1
  -1  10   1 4578.90 718.583   1
   1 -10  -1 2616.92 747.503   3
  -1  10   1 5452.05 927.777   7
  -1  10   0 723.313 304.150   7
   1 -10   0 599.355 388.402   3
  -1  10   0 667.316 275.145   1
   1 -10   1 1485.65 575.004   3
  -1  10  -1 1588.84 423.905   1
  -1  10  -1 1919.14 568.547   7
  -1  10  -2 338.626 314.342   7
   1 -10   2 672.216 291.973   4
   1 -10   2 33.7457 143.198   3
  -1  10  -3 2342.12 624.079   7
   1 -10   3 2546.06 561.836   4
   1 -10   3 2434.62 619.364   3
   1 -10   4 87.7142 158.338   4
   1 -10   4 153.623 192.910   3
  -1  10  -4 22.3658 97.8159   7
   1 -10   5 1054.28 389.534   4
  -1   9  12 58.1465 108.439   1
  -1   9  12-24.0013 61.7521   5
  -1   9  11 750.210 250.572   5
  -1   9  11 673.453 309.559   1
   1  -9 -10 303.980 227.787   3
  -1   9  10-90.4985 154.581   1
  -1   9  10 107.803 110.755   5
  -1   9   9 1423.20 327.753   5
   1  -9  -9 1777.48 546.828   3
  -1   9   9 1284.75 397.046   1
  -1   9   8 117.183 92.5168   5
  -1   9   8-103.251 133.042   1
  -1   9   7 2869.22 385.988   5
  -1   9   7 2323.25 497.557   1
   1  -9  -7 3440.81 806.147   3
   1  -9  -6 52.5328 298.751   3
  -1   9   6-41.8456 195.932   7
  -1   9   6 104.765 92.2769   5
  -1   9   6 4.86173 102.119   1
  -1   9   5 12385.3 1347.11   7
  -1   9   5 12156.2 1129.48   1
  -1   9   5 11730.9 619.674   5
  -1   9   4-120.237 119.732   1
   1  -9  -4-28.8874 200.735   3
  -1   9   4 63.4044 149.736   7
  -1   9   3 6310.16 795.161   1
  -1   9   3 7577.68 1003.40   7
  -1   9   2 243.543 154.502   1
   1  -9  -2-1.67622 303.983   3
  -1   9   2 44.8541 127.319   7
  -1   9   1 4710.35 678.436   1
  -1   9   1 4563.45 799.079   7
   1  -9  -1 3477.54 819.895   3
  -1   9   0 51.9825 143.389   7
   1  -9   0 255.258 316.142   3
  -1   9   0 280.129 172.751   1
  -1   9  -1 7556.96 1051.66   7
   1  -9   1 7259.16 1085.07   3
  -1   9  -1 7238.54 833.778   1
   1  -9   2 283.127 177.791   4
   1  -9   2 330.913 267.427   3
  -1   9  -2 501.429 229.084   7
  -1   9  -3 12123.3 1349.60   7
   1  -9   3 11736.1 1134.41   4
   1  -9   3 10102.3 1190.33   3
  -1   9  -4 325.796 253.970   7
   1  -9   4 145.457 153.990   3
   1  -9   4 333.169 253.369   4
   1  -9   5 2174.35 505.597   3
   1  -9   5 3026.84 644.366   4
   1  -9   6 323.764 193.710   3
   1  -9   6 487.095 249.014   4
   1  -9   7 1095.32 351.009   4
  -1   8  13 697.655 287.001   1
  -1   8  12 286.942 187.525   1
  -1   8  11 1481.41 411.238   1
   1  -8 -11 2310.63 611.058   3
  -1   8  10 114.328 192.889   1
   1  -8 -10 406.056 293.433   3
   1  -8  -9 4214.97 758.894   3
  -1   8   9 3272.78 599.696   1
   1  -8  -8 387.638 264.799   3
  -1   8   8 279.350 193.750   1
  -1   8   7 7923.33 904.714   1
   1  -8  -7 6633.96 1043.49   3
  -1   8   6 114.325 97.1678   1
   1  -8  -6-151.609 205.557   3
   1  -8  -5 882.490 459.892   3
  -1   8   5 1244.40 209.813   5
  -1   8   5 1544.01 374.796   1
  -1   8   4 142.152 150.674   1
  -1   8   4 150.086 141.104   7
  -1   8   4 10.0743 42.0678   5
  -1   8   3 2868.96 490.875   1
  -1   8   3 3693.66 630.157   7
   1  -8  -3 1796.77 502.840   3
  -1   8   2 2164.85 435.395   1
  -1   8   2 2516.59 529.047   7
  -1   8   1 7750.96 798.654   1
   1  -8  -1 6672.73 1048.52   3
   1  -8  -1 7432.68 474.165   2
  -1   8   1 8125.13 973.181   7
   1  -8   0-205.771 233.405   3
   1  -8   0 45.5792 67.6339   2
  -1   8   0-194.721 197.005   7
  -1   8   0-68.5526 67.2966   1
   1  -8   0 21.1576 40.8725   6
  -1   8  -1 22099.2 1678.33   7
   1  -8   1 19808.6 1095.56   2
   1  -8   1 21867.5 955.272   6
  -1   8  -1 23898.6 1437.32   1
   1  -8   1 22099.7 1699.80   3
  -1   8  -2 1212.66 369.033   7
   1  -8   2 1741.52 392.010   4
  -1   8  -2 1635.02 376.286   1
   1  -8   2 1648.16 475.048   3
   1  -8   2 1417.43 306.545   2
   1  -8   2 1717.53 220.113   6
   1  -8   3 13145.1 1064.33   2
   1  -8   3 11404.2 1129.49   3
   1  -8   3 12341.6 1089.65   4
  -1   8  -3 13384.6 1332.80   7
  -1   8  -4 79.6323 187.693   7
   1  -8   4 201.348 137.646   3
   1  -8   4 62.6869 107.539   4
   1  -8   5 7024.02 846.131   3
   1  -8   5 8032.57 977.151   4
   1  -8   6 95.7564 161.814   4
   1  -8   6 317.632 223.480   3
   1  -8   7 1488.59 394.469   4
   1  -8   7 1918.03 446.731   3
   1  -8   8 34.8379 112.733   4
   1  -8   9 411.431 205.269   4
  -1   7  13 1208.82 381.482   1
  -1   7  12 51.3221 95.6195   1
   1  -7 -12-193.365 240.031   3
  -1   7  11 2345.78 504.030   1
   1  -7 -11 2060.04 543.088   3
   1  -7 -10 484.341 260.097   3
  -1   7  10 87.5343 119.804   1
  -1   7   9 6650.87 829.971   1
   1  -7  -9 6418.02 896.008   3
  -1   7   8 264.428 160.316   1
   1  -7  -8 226.945 234.276   3
  -1   7   7 718.699 246.858   1
   1  -7  -7 824.573 461.487   3
   1  -7  -6-187.339 322.440   3
  -1   7   6 11.7364 80.3601   1
  -1   7   5 7541.90 791.810   1
   1  -7  -5 4199.16 876.740   3
   1  -7  -4-474.004 505.485   3
  -1   7   4 378.771 179.010   1
  -1   7   3 27588.5 1481.52   1
  -1   7   3 31478.0 1716.21   7
   1  -7  -3 23796.6 2139.40   3
  -1   7   3 27403.4 803.778   5
  -1   7   3 31937.4 2049.13   3
   1  -7  -2 249.564 344.577   3
  -1   7   2 11.3616 69.2580   1
   1  -7  -2 145.665 50.7998   2
  -1   7   2-54.1152 139.378   7
  -1   7   2-47.5989 149.710   3
  -1   7   1 19121.5 1194.42   1
   1  -7  -1 17395.6 743.938   2
   1  -7  -1 19256.8 1614.72   3
  -1   7   1 20497.0 1389.47   7
   1  -7   0 16.9999 47.1928   2
  -1   7   0-24.9294 83.5788   7
   1  -7   0-144.734 117.669   3
  -1   7  -1 1613.63 343.775   1
   1  -7   1 2025.62 321.123   2
   1  -7   1 1446.71 393.595   3
   1  -7   1 1724.88 250.068   6
  -1   7  -1 2015.71 483.382   7
   1  -7   2 775.772 229.630   2
   1  -7   2 665.003 131.100   6
  -1   7  -2 649.322 248.237   7
  -1   7  -2 689.126 223.081   1
   1  -7   2 793.952 269.286   3
   1  -7   3 9049.38 861.106   4
  -1   7  -3 11046.5 1116.11   7
   1  -7   3 9432.90 463.163   6
   1  -7   3 9118.15 897.741   3
   1  -7   3 11739.0 939.005   2
   1  -7   4 168.437 46.0958   5
   1  -7   4 266.562 184.782   3
   1  -7   4 223.861 147.935   4
  -1   7  -4 113.238 70.6621   7
   1  -7   4 236.333 50.8460   6
   1  -7   4 206.217 141.758   2
   1  -7   5 9455.01 896.371   3
   1  -7   5 9564.32 517.928   5
   1  -7   5 11936.6 1123.76   4
  -1   7  -5 10575.9 871.029   2
   1  -7   6 718.665 161.352   5
  -1   7  -6 905.541 531.998   8
  -1   7  -6 360.850 146.888   2
   1  -7   6 685.556 243.609   4
   1  -7   6 530.269 219.004   3
   1  -7   7 7084.20 806.289   3
   1  -7   7 7686.96 852.393   4
  -1   7  -7 8021.24 912.434   2
  -1   7  -7 5235.73 1215.74   8
   1  -7   7 7987.14 608.162   5
   1  -7   8 238.534 135.073   4
  -1   7  -8 297.917 166.292   2
  -1   7  -8 54.1371 343.502   8
   1  -7   8 429.838 218.609   3
  -1   7  -9 1057.44 530.184   8
   1  -7   9 1646.25 384.965   4
  -1   7  -9 2211.13 545.825   2
   1  -7   9 1422.23 386.101   3
   1  -7  10 72.3551 109.301   4
  -1   7 -10 231.469 193.271   2
  -1   6  13 1773.46 427.530   1
   1  -6 -12 35.4285 126.063   3
  -1   6  12-85.9349 129.503   1
   1  -6 -11 2621.02 635.178   3
  -1   6  11 2993.18 561.031   1
   1  -6 -11 2518.09 317.673   2
  -1   6  10-56.9561 108.875   1
   1  -6 -10 8.23398 54.0342   2
   1  -6 -10 226.924 281.803   3
  -1   6   9 2912.40 523.454   1
   1  -6  -9 3197.09 301.234   2
   1  -6  -9 4239.30 692.159   3
   1  -6  -8 1238.46 170.275   2
  -1   6   8 1216.54 325.911   1
   1  -6  -8 1502.61 451.961   3
   1  -6  -7 16878.7 571.996   2
  -1   6   7 16574.5 1181.80   1
   1  -6  -7 18081.1 1540.61   3
  -1   6   6-18.7460 66.3525   1
   1  -6  -6 146.079 41.9598   2
  -1   6   5 60396.0 3502.25   3
  -1   6   5 56575.8 2161.21   1
   1  -6  -5 57452.1 1744.61   4
  -1   6   4 840.902 322.329   3
   1  -6  -4 30.6326 457.967   3
  -1   6   4 643.301 199.450   1
   1  -6  -4 541.862 185.009   1
  -1   6   3 54640.9 2037.63   1
   1  -6  -3 57708.6 2045.41   1
   1  -6  -2 375.789 311.823   3
  -1   6   2 312.042 171.616   3
  -1   6   2 94.4632 88.2964   1
  -1   6   2 119.666 75.8799   7
  -1   6   2 150.909 47.9519   5
   1  -6  -2 160.760 47.6941   2
   1  -6  -2 73.8676 69.7235   1
  -1   6   1 90.8645 115.042   7
   1  -6  -1 335.380 208.119   3
   1  -6  -1 117.099 69.9639   2
  -1   6   1 123.908 139.051   3
   1  -6  -1 81.4227 87.2027   1
  -1   6   1-42.3240 118.669   1
  -1   6   0 2847.66 441.601   3
  -1   6   0 2859.04 408.042   1
   1  -6   0 2617.20 622.620   8
   1  -6   0 2299.83 451.197   3
   1  -6   0 2081.38 259.182   2
   1  -6   0 2677.23 377.753   1
  -1   6   0 2762.19 454.078   7
  -1   6  -1 24966.5 1486.70   7
  -1   6  -1 23023.4 1224.01   1
   1  -6   1 22229.7 996.754   2
   1  -6   1 22141.3 1356.12   3
   1  -6   1 24939.6 1215.90   1
   1  -6   1 21555.6 893.802   6
   1  -6   1 23996.3 1767.90   8
   1  -6   2 3668.67 636.735   8
   1  -6   2 2952.64 381.055   2
   1  -6   2 3273.47 300.574   6
  -1   6  -2 3013.43 424.483   1
   1  -6   2 3634.55 516.102   3
   1  -6   2 3208.85 453.961   1
   1  -6   2 3125.52 445.277   7
  -1   6  -2 2985.96 519.025   7
   1  -6   3 18709.1 575.469   5
   1  -6   3 19607.1 1187.17   4
   1  -6   3 18271.3 1159.31   3
   1  -6   3 20072.1 1127.00   1
   1  -6   3 18918.1 700.494   6
  -1   6  -3 20141.4 1132.71   1
  -1   6  -3 19550.8 1378.48   7
   1  -6   4 253.135 147.708   3
  -1   6  -4 441.576 243.670   7
   1  -6   4 379.074 164.335   4
  -1   6  -4 199.330 90.5691   2
   1  -6   4 197.098 86.7905   2
   1  -6   4 298.965 88.1190   5
   1  -6   4 334.955 67.9650   6
  -1   6  -5 9625.23 781.316   2
   1  -6   5 9608.63 558.363   5
   1  -6   5 8104.74 856.516   2
   1  -6   5 11369.9 1015.22   4
   1  -6   5 8684.02 790.967   3
  -1   6  -5 8436.36 1291.40   8
   1  -6   6 109.906 96.4509   3
   1  -6   6-105.669 115.362   4
  -1   6  -6-193.441 171.174   2
  -1   6  -6 45.2021 156.061   8
   1  -6   6-35.5516 53.9902   5
   1  -6   7 8677.88 657.178   5
  -1   6  -7 9150.22 891.152   2
   1  -6   7 8725.01 830.689   3
   1  -6   7 8043.33 800.656   4
  -1   6  -7 8212.41 1369.26   8
  -1   6  -8 123.707 160.172   8
   1  -6   8 344.892 146.541   4
  -1   6  -8-194.830 207.322   2
   1  -6   8 59.1211 79.6033   5
   1  -6   8-70.7055 71.2807   3
  -1   6  -9 4605.32 730.878   2
  -1   6  -9 4230.47 1058.17   8
   1  -6   9 4728.45 572.513   5
   1  -6   9 3834.58 564.344   4
   1  -6  10 245.815 161.266   4
   1  -6  10 65.0647 62.5613   5
  -1   6 -10-122.553 149.642   2
   1  -6  11 121.056 66.6746   4
   1  -6  12-69.7365 98.5085   4
  -1   5  14-14.9641 103.858   1
  -1   5  13 1740.10 436.969   1
   1  -5 -13 1694.52 313.463   2
   1  -5 -12 181.301 107.673   2
   1  -5 -12 56.2710 164.098   3
  -1   5  12 11.5798 105.585   1
  -1   5  11 1962.41 460.134   1
   1  -5 -11 1743.80 282.311   2
   1  -5 -11 2477.65 588.760   3
   1  -5 -10 366.367 118.626   2
  -1   5  10 429.476 227.538   2
   1  -5 -10 695.219 254.808   3
  -1   5  10 520.260 224.713   1
   1  -5  -9 19608.0 1481.25   3
   1  -5  -9 18813.9 818.992   2
  -1   5   9 16915.0 1280.02   1
   1  -5  -8 444.229 111.278   2
  -1   5   8 342.235 155.837   1
  -1   5   7 31366.4 1654.34   1
   1  -5  -7 34487.0 1930.67   3
   1  -5  -7 35284.2 1009.78   2
  -1   5   6 1553.85 347.921   1
  -1   5   6 1461.42 580.721   3
   1  -5  -6 1586.25 262.154   4
  -1   5   5 18828.1 1110.10   1
   1  -5  -5 16541.6 1624.00   3
   1  -5  -5 17981.5 553.641   2
  -1   5   4 343.764 136.869   1
   1  -5  -4 266.974 147.481   1
   1  -5  -4 264.708 54.6634   2
   1  -5  -3 20416.5 540.382   2
   1  -5  -3 19232.2 1617.79   3
  -1   5   3 22149.3 1130.75   1
   1  -5  -3 23597.1 1169.03   1
  -1   5   2 3068.25 412.300   7
  -1   5   2 2994.50 510.388   3
   1  -5  -2 2509.90 591.367   3
  -1   5   2 2784.53 375.701   1
   1  -5  -2 2397.05 142.731   2
   1  -5  -1 154345. 2723.91   2
  -1   5   1 160192. 3635.65   1
   1  -5  -1 148730. 4265.12   3
  -1   5   1 166233. 3811.65   7
  -1   5   1 157934. 2637.39   5
   1  -5   0 1403.10 168.472   2
  -1   5   0 1453.47 292.710   7
  -1   5   0 1664.51 286.791   1
   1  -5   0 1509.59 311.980   3
   1  -5   1 20562.4 818.263   6
  -1   5  -1 22562.4 1277.85   7
  -1   5  -1 21736.1 1069.10   1
   1  -5   1 19708.8 794.061   2
   1  -5   1 21666.6 1203.07   3
   1  -5   2 264.795 107.369   2
  -1   5  -2 86.3355 98.8630   1
   1  -5   2 122.121 40.7361   5
   1  -5   2 88.8836 61.8024   3
   1  -5   2 82.7342 47.6775   6
  -1   5  -2 68.8201 104.204   7
   1  -5   3 88450.7 2592.64   3
  -1   5  -3 89355.7 2494.40   1
   1  -5   3 89573.8 2602.72   4
   1  -5   3 89149.2 2482.34   1
   1  -5   3 88249.7 1901.57   6
  -1   5  -3 87140.2 2913.50   7
   1  -5   3 86528.0 1827.49   5
  -1   5  -3 96235.8 2343.91   2
  -1   5  -4-37.0025 134.419   8
   1  -5   4 118.922 41.7055   6
   1  -5   4 150.528 72.5499   5
   1  -5   4 106.903 65.1002   4
  -1   5  -4 190.533 152.417   7
   1  -5   4 137.456 101.533   1
   1  -5   4 138.472 103.822   7
   1  -5   4 87.4119 69.5286   3
   1  -5   4 77.1384 61.5491   2
  -1   5  -4 109.153 50.9272   2
   1  -5   5 31981.1 1533.68   4
   1  -5   5 27968.4 1342.27   3
  -1   5  -5 29203.1 1339.70   2
  -1   5  -5 29266.8 2185.22   8
   1  -5   5 28716.3 1377.07   1
   1  -5   5 23951.9 1417.59   2
   1  -5   5 28256.1 1025.71   5
   1  -5   5 26602.7 742.066   6
  -1   5  -6 164.641 79.6375   6
   1  -5   6 94.3191 75.0115   5
   1  -5   6 32.5953 132.424   4
  -1   5  -6 45.6824 59.4090   2
  -1   5  -6 199.885 186.344   8
   1  -5   7 2129.06 367.316   4
  -1   5  -7 2449.35 424.809   2
  -1   5  -7 1928.18 561.189   8
   1  -5   7 2603.74 358.306   5
  -1   5  -7 2426.91 272.089   6
  -1   5  -8-42.9094 195.516   2
   1  -5   8 48.6169 99.4437   4
   1  -5   8-40.4087 80.0847   5
  -1   5  -8 188.092 82.1605   6
   1  -5   9 7380.91 710.024   5
   1  -5   9 7121.73 719.873   4
  -1   5  -9 6289.10 821.379   2
  -1   5  -9 7937.12 576.520   6
   1  -5  10 144.882 61.9716   4
   1  -5  10 103.198 87.5561   5
  -1   5 -11 2955.81 663.520   2
   1  -5  11 2718.22 494.572   5
   1  -5  11 2503.79 425.291   4
  -1   5 -11 3173.12 909.261   8
   1  -5  12 10.5942 110.236   4
   1  -5  12 160.690 118.530   5
   1  -5  13 276.718 145.386   4
  -1   4  14 317.394 218.580   1
   1  -4 -14 54.4360 121.181   2
  -1   4  13 1627.59 431.354   1
   1  -4 -13 1725.19 340.297   2
   1  -4 -12 238.169 125.879   2
  -1   4  12 236.078 222.168   1
  -1   4  11 3100.24 582.406   1
   1  -4 -11 3548.80 703.608   3
   1  -4 -11 3771.74 434.373   2
   1  -4 -10 3633.07 400.465   2
  -1   4  10 4040.17 679.989   2
   1  -4 -10 4000.47 690.384   3
  -1   4  10 3275.32 585.227   1
  -1   4   9 15213.3 1239.07   2
   1  -4  -9 14822.0 777.512   2
  -1   4   9 12752.7 1135.97   1
   1  -4  -8 695.324 264.546   3
   1  -4  -8 1068.40 197.373   2
  -1   4   8 1281.80 346.267   1
   1  -4  -7 6085.37 502.690   4
  -1   4   7 6421.07 1304.07   3
   1  -4  -7 6081.01 423.458   2
  -1   4   7 4941.40 684.912   2
   1  -4  -7 7074.81 811.256   3
  -1   4   7 5212.17 658.788   1
   1  -4  -6 11645.8 1122.34   3
  -1   4   6 9261.37 1446.36   3
  -1   4   6 10269.4 867.951   1
   1  -4  -6 11401.8 666.536   4
   1  -4  -6 12855.1 618.166   2
   1  -4  -5 1998.55 584.283   3
   1  -4  -5 1385.28 189.975   2
  -1   4   5 1820.65 331.091   1
  -1   4   4 2183.14 335.490   1
   1  -4  -4 2344.87 219.496   2
   1  -4  -3 193597. 3450.84   2
   1  -4  -3 199790. 5756.70   3
   1  -4  -2 14110.6 1170.53   3
  -1   4   2 15782.9 841.408   1
  -1   4   1 41808.9 1388.64   1
   1  -4  -1 37516.6 1696.52   3
   1  -4  -1 36536.4 862.975   2
  -1   4   1 38188.2 968.896   5
  -1   4   1 40477.9 1418.46   7
   1  -4   0 657.043 95.3497   2
  -1   4   0 541.504 142.940   3
  -1   4   0 686.714 67.5938   5
  -1   4   0 524.944 154.401   7
   1  -4   0 389.146 151.791   3
  -1   4   0 579.312 154.617   1
   1  -4   1 142501. 2774.90   6
  -1   4  -1 152549. 3527.44   7
   1  -4   1 136853. 2352.11   5
   1  -4   1 131191. 2641.96   2
  -1   4  -1 152182. 3176.03   1
   1  -4   1 140596. 3303.66   3
  -1   4  -2 439.809 127.591   1
   1  -4   2 354.753 87.3835   6
   1  -4   2 435.698 78.5343   5
   1  -4   2 490.969 155.604   3
  -1   4  -2 410.661 166.027   7
  -1   4  -2 379.338 102.111   2
   1  -4   2 458.623 119.533   2
  -1   4  -3 214403. 4872.94   7
  -1   4  -3 217130. 5955.57   8
   1  -4   3 209466. 3783.62   5
   1  -4   3 205455. 4434.32   4
  -1   4  -3 216538. 4356.26   1
   1  -4   3 212818. 4334.56   1
   1  -4   3 201288. 3803.63   6
   1  -4   3 209326. 4425.76   3
  -1   4  -4 1661.03 437.440   8
   1  -4   4 1968.65 225.849   5
   1  -4   4 1953.05 304.285   1
  -1   4  -4 2169.96 303.207   2
   1  -4   4 1904.66 178.238   6
  -1   4  -4 1744.96 201.079   6
   1  -4   4 2130.01 341.799   4
   1  -4   4 1492.37 262.454   2
   1  -4   5 10932.7 772.552   4
   1  -4   5 11943.7 943.309   7
   1  -4   5 10159.0 435.211   6
  -1   4  -5 11129.2 567.206   6
   1  -4   5 9344.64 776.370   2
  -1   4  -5 12285.7 1213.92   8
   1  -4   5 11142.7 761.696   1
  -1   4  -5 11928.6 797.436   2
   1  -4   5 11106.4 613.901   5
  -1   4  -6 105.258 56.2539   6
  -1   4  -6-68.2842 129.954   8
  -1   4  -6 68.3868 80.0921   2
   1  -4   6 19.8217 68.7537   4
   1  -4   6 138.819 158.602   2
   1  -4   6 99.5392 86.8364   1
   1  -4   6 47.4052 49.3445   5
  -1   4  -7 22548.8 964.230   6
  -1   4  -7 23565.9 1320.11   2
   1  -4   7 21914.1 1176.85   4
   1  -4   7 23323.4 1111.32   5
   1  -4   7 23550.2 1245.86   1
  -1   4  -7 22367.9 1800.66   8
   1  -4   8 123.228 105.470   5
   1  -4   8 128.644 99.4604   4
  -1   4  -8 39.1283 86.8524   2
  -1   4  -8-133.140 147.276   8
  -1   4  -8 158.145 84.8456   6
  -1   4  -9 17013.0 1281.74   2
  -1   4  -9 18234.3 981.894   6
  -1   4  -9 17944.9 1758.97   8
   1  -4   9 16409.8 1042.38   4
   1  -4   9 17172.1 1080.48   5
  -1   4 -10 294.451 139.707   6
   1  -4  10-35.4455 148.240   4
  -1   4 -10 144.602 99.9349   2
  -1   4 -10 61.3020 244.727   8
   1  -4  10 303.595 155.470   5
   1  -4  11 3077.00 445.868   4
  -1   4 -11 3760.37 672.471   2
  -1   4 -11 2554.54 736.515   8
   1  -4  11 3665.66 563.300   5
  -1   4 -11 3981.44 513.847   6
   1  -4  12-59.9645 74.7399   4
   1  -4  12 183.628 126.288   5
  -1   4 -12-150.784 277.855   8
   1  -4  13 1165.84 356.047   5
   1  -4  13 1099.55 279.119   4
   1  -3 -15 54.0957 88.8037   2
   1  -3 -14 66.0107 86.3101   2
  -1   3  14 255.905 125.610   4
   1  -3 -14 266.415 188.417   6
   1  -3 -13 2525.25 423.930   2
  -1   3  13 2430.57 422.928   4
  -1   3  12 740.281 218.012   4
   1  -3 -12 1057.66 258.795   2
   1  -3 -11 3065.80 399.176   2
  -1   3  11 2575.08 409.418   4
  -1   3  10-63.8056 164.476   2
  -1   3  10-16.4308 105.058   4
   1  -3 -10 88.1405 56.3527   2
  -1   3   9 846.537 206.055   4
   1  -3  -9 1390.66 237.426   2
  -1   3   9 896.057 319.091   2
   1  -3  -9 1693.49 363.142   3
   1  -3  -8 297.950 184.541   3
  -1   3   8 633.988 224.199   2
  -1   3   8 471.720 150.510   4
   1  -3  -8 860.427 199.597   4
   1  -3  -8 595.985 165.846   2
  -1   3   7 14755.4 862.218   4
   1  -3  -7 13794.3 738.326   2
   1  -3  -7 15854.7 1156.09   3
   1  -3  -7 13944.4 776.900   4
  -1   3   6 3454.30 502.519   2
  -1   3   6 2576.34 586.001   3
   1  -3  -6 4801.84 648.040   3
   1  -3  -6 4083.30 383.432   2
  -1   3   6 3470.50 381.459   4
  -1   3   5 47790.9 1819.89   2
  -1   3   5 44835.3 1837.71   1
   1  -3  -5 47403.0 2213.60   3
   1  -3  -5 50653.6 1474.80   2
  -1   3   4 9396.54 719.956   1
   1  -3  -4 8065.72 1025.26   3
   1  -3  -4 8626.28 511.135   2
   1  -3  -3 46081.7 1220.42   2
   1  -3  -3 44187.8 2287.91   3
   1  -3  -2 19854.0 1268.68   3
  -1   3   2 21003.1 901.491   1
  -1   3   1 167417. 3340.20   7
   1  -3  -1 158844. 3831.35   3
  -1   3   1 163804. 3316.36   1
  -1   3   0 955.945 162.191   1
   1  -3   0 1173.83 123.682   2
  -1   3   0 1103.91 201.395   3
   1  -3   0 1204.98 245.197   3
  -1   3   0 1041.44 102.626   5
  -1   3   0 1054.47 185.430   7
   1  -3   1 5790.31 315.150   2
  -1   3  -1 5696.02 239.184   5
   1  -3   1 6718.45 490.596   3
  -1   3  -1 5983.01 419.564   1
   1  -3   1 5862.31 357.630   6
  -1   3  -1 6442.40 516.487   7
   1  -3   1 5777.72 263.796   5
  -1   3  -2-21.0859 67.3261   7
   1  -3   2 46.3288 50.9577   1
   1  -3   2 69.3985 56.0471   2
  -1   3  -2 117.862 73.9451   1
  -1   3  -2 103.818 59.0532   2
   1  -3   2 101.254 46.9264   5
  -1   3  -2-7.89175 204.984   8
   1  -3   2 75.5700 44.7526   6
   1  -3   2 82.2072 66.7566   3
   1  -3   3 4485.97 398.673   4
  -1   3  -3 4744.61 390.350   1
   1  -3   3 4243.01 381.236   1
  -1   3  -3 4868.71 387.990   2
   1  -3   3 5192.81 386.370   2
  -1   3  -3 4004.47 570.932   8
   1  -3   3 3890.35 281.895   5
   1  -3   3 4346.99 292.435   6
  -1   3  -3 4794.73 503.201   7
  -1   3  -3 4255.64 303.024   6
   1  -3   4 348.424 127.063   4
   1  -3   4 321.306 116.409   2
   1  -3   4 286.804 82.1247   5
  -1   3  -4 318.651 92.5392   6
  -1   3  -4 266.334 85.9483   2
   1  -3   4 288.970 69.7659   6
   1  -3   4 458.683 142.464   1
  -1   3  -4 555.211 261.446   8
   1  -3   5 440493. 7464.95   6
  -1   3  -5 463895. 9429.60   8
   1  -3   5 471950. 7946.08   5
   1  -3   5 475131. 8210.29   1
  -1   3  -5 455719. 7801.98   6
   1  -3   5 439583. 8333.90   2
  -1   3  -5 489337. 8361.26   2
   1  -3   5 468675. 8216.47   4
   1  -3   6 472.005 147.084   1
  -1   3  -6 676.942 192.425   4
   1  -3   6 669.839 192.804   4
  -1   3  -6 466.126 122.746   6
   1  -3   6 760.310 228.863   2
  -1   3  -6 961.013 256.279   2
   1  -3   6 477.842 185.561   7
   1  -3   7 20000.0 1000.72   4
  -1   3  -7 21099.4 1166.23   2
   1  -3   7 18935.5 1257.90   2
  -1   3  -7 20934.1 1156.36   4
   1  -3   7 21291.6 1096.71   1
  -1   3  -7 20000.8 933.096   6
   1  -3   8 178.697 88.3650   1
   1  -3   8 213.990 82.0187   4
  -1   3  -8 112.599 62.9277   6
  -1   3  -8-31.5937 105.948   4
  -1   3  -8 114.404 94.0264   2
  -1   3  -9 11503.9 821.984   6
  -1   3  -9 11829.5 1004.76   2
   1  -3   9 9912.38 853.807   1
   1  -3   9 10169.8 736.979   4
  -1   3 -10 193.943 113.272   6
   1  -3  10 254.164 122.222   4
  -1   3 -11 8001.65 937.979   2
   1  -3  11 6818.53 620.900   4
  -1   3 -11 8524.87 813.098   6
   1  -3  11 6471.68 735.557   5
   1  -3  12 136.613 96.7136   4
   1  -3  12 179.171 134.180   5
  -1   3 -12 110.742 99.8453   2
  -1   3 -12 298.111 154.578   6
   1  -3  13 922.036 322.340   5
   1  -3  13 778.667 227.615   4
   1  -3  14-46.4758 64.3031   4
  -1   2  14-192.243 136.293   4
   1  -2 -14 321.726 206.788   2
   1  -2 -14 275.057 218.300   6
   1  -2 -13 3286.51 499.450   2
  -1   2  13 3404.46 482.260   4
  -1   2  12 426.664 156.110   4
   1  -2 -12 299.719 171.878   2
  -1   2  11 199.080 86.5343   4
   1  -2 -11 244.886 139.643   2
   1  -2 -10 5766.10 573.364   2
  -1   2  10 5789.79 572.932   4
   1  -2  -9 13764.6 862.709   2
  -1   2   9 11329.0 1623.11   3
  -1   2   9 12380.3 811.867   4
  -1   2   9 11257.2 1132.89   2
  -1   2   8 3314.81 598.428   2
   1  -2  -8 4558.57 463.923   2
   1  -2  -8 4046.95 468.942   4
  -1   2   8 4294.88 444.722   4
   1  -2  -8 4130.92 590.200   3
  -1   2   8 3208.47 814.274   3
   1  -2  -7 73644.2 2106.28   4
  -1   2   7 78634.3 2122.32   4
   1  -2  -7 75859.7 2139.39   2
  -1   2   6 2771.92 480.961   2
  -1   2   6 3604.44 375.381   4
  -1   2   6 2000.36 549.291   3
   1  -2  -6 4655.52 556.044   3
   1  -2  -6 3272.53 383.406   2
  -1   2   5 35413.8 1588.89   2
  -1   2   5 29631.5 2377.38   3
  -1   2   5 43384.7 1343.20   4
   1  -2  -5 48567.1 1867.37   3
   1  -2  -5 43203.7 1465.46   2
   1  -2  -4 35361.6 1805.06   3
  -1   2   4 34053.9 1423.92   2
   1  -2  -4 37062.5 1261.04   2
  -1   2   4 30747.8 2149.24   3
  -1   2   4 39085.9 1203.45   4
  -1   2   3 1487.16 192.966   4
   1  -2  -3 745.659 186.144   3
   1  -2  -3 1402.78 225.450   2
  -1   2   3 1719.23 430.206   3
   1  -2  -2 5538.47 648.162   3
   1  -2  -2 4718.19 320.899   2
  -1   2   2 5412.43 443.038   1
  -1   2   1 27347.2 916.115   1
   1  -2  -1 27126.1 1112.98   3
   1  -2   0 165.931 115.471   3
   1  -2   0 74.9573 56.9185   7
  -1   2   0 34.6835 37.7309   1
  -1   2   0 1.17134 38.6717   7
  -1   2   0 59.0474 29.6203   5
   1  -2   1 309701. 5254.30   1
  -1   2  -1 317702. 5250.61   1
   1  -2   1 314617. 5408.70   3
   1  -2   1 299384. 5382.88   7
   1  -2   1 307117. 5038.32   2
   1  -2   1 302676. 4959.01   5
  -1   2  -1 314982. 5513.94   7
   1  -2   1 301860. 5150.68   6
  -1   2  -1 309747. 4947.71   5
  -1   2  -2 89.8666 87.7408   7
  -1   2  -2-73.8133 82.3115   2
   1  -2   2-24.0223 42.9357   6
   1  -2   2 4.47273 35.7855   2
   1  -2   2 3.28060 64.6887   4
   1  -2   2 92.9138 65.3094   7
   1  -2   2 64.0327 39.6204   5
   1  -2   2 75.8806 61.6840   1
  -1   2  -2 97.1292 51.5401   6
  -1   2  -2 139.173 74.9871   1
  -1   2  -3 542076. 8171.73   2
   1  -2   3 583302. 8379.49   4
   1  -2   3 568616. 8078.33   2
  -1   2  -3 478465. 8911.42   8
   1  -2   3 490528. 7879.71   5
   1  -2   3 462587. 7993.86   1
   1  -2   3 444858. 7769.95   6
  -1   2  -3 471152. 7872.89   6
  -1   2  -4 181.508 79.6820   6
   1  -2   4 153.959 79.2848   1
  -1   2  -4 170.188 83.6836   4
   1  -2   4 205.557 90.9857   4
   1  -2   4 105.225 38.6252   6
  -1   2  -4-12.8822 69.2851   2
   1  -2   4 194.748 73.7514   5
   1  -2   5 6832.28 475.011   4
   1  -2   5 7146.14 491.122   1
  -1   2  -5 7294.90 471.289   6
  -1   2  -5 6827.73 509.550   4
   1  -2   5 6539.45 353.315   6
  -1   2  -5 7547.94 549.233   2
   1  -2   6 98.1719 82.9613   1
  -1   2  -6 72.4604 51.0473   6
   1  -2   6 180.603 79.4263   4
  -1   2  -6 147.208 87.2501   2
   1  -2   7 14812.5 1087.03   7
  -1   2  -7 13900.7 893.278   2
   1  -2   7 13045.1 944.486   2
   1  -2   7 14717.7 821.555   1
   1  -2   7 12961.5 716.415   4
  -1   2  -7 14571.3 802.859   6
  -1   2  -8-59.9137 94.7308   2
  -1   2  -8-60.0960 76.5989   6
   1  -2   8-98.1764 96.3656   4
   1  -2   8 65.8810 60.8020   1
  -1   2  -8 8.66619 55.1223   4
   1  -2   9 10153.3 676.550   4
  -1   2  -9 12153.7 949.128   2
  -1   2  -9 13092.9 897.014   6
   1  -2   9 11385.8 826.600   1
   1  -2  10-16.6332 73.7003   1
  -1   2 -10 86.1887 80.3876   6
  -1   2 -10-60.8850 153.074   2
   1  -2  10 36.0274 54.2150   4
  -1   2 -11 10135.1 988.105   2
  -1   2 -11 10828.0 958.766   6
   1  -2  11 8375.02 652.602   4
   1  -2  12 1057.39 238.897   4
  -1   2 -12 1345.20 365.550   6
  -1   2 -12 1066.98 361.811   2
   1  -2  13 2271.90 488.929   5
  -1   2 -13 2578.08 528.773   6
  -1   2 -13 1823.43 459.570   2
   1  -2  13 1841.62 326.671   4
   1  -2  14 154.777 138.057   5
   1  -2  14 135.952 99.3385   4
   1  -1 -15 550.192 285.942   6
   1  -1 -14 134.013 151.147   2
  -1   1  14 55.9043 91.0661   4
   1  -1 -14 228.902 161.558   6
  -1   1  13 1733.88 345.702   4
   1  -1 -13 2430.52 511.219   6
   1  -1 -13 2091.43 417.523   2
  -1   1  12 175.671 149.176   4
   1  -1 -12 102.434 83.9640   2
  -1   1  11 17870.5 1042.41   4
   1  -1 -11 21309.5 1207.09   2
  -1   1  10 162.967 98.4010   4
   1  -1 -10-47.5121 108.559   2
  -1   1   9 10106.3 1079.73   2
  -1   1   9 10528.1 708.127   4
  -1   1   8 3736.52 801.456   3
   1  -1  -8 4444.85 525.288   4
  -1   1   8 4751.30 440.275   4
  -1   1   8 4000.39 661.601   2
   1  -1  -8 4346.11 479.865   2
  -1   1   7 25109.4 2008.32   3
   1  -1  -7 35652.6 1432.10   2
   1  -1  -7 38553.2 1766.04   3
  -1   1   7 32814.6 1202.56   4
   1  -1  -7 35959.5 1456.79   4
  -1   1   7 29332.6 1712.66   2
  -1   1   6 1039.99 433.185   3
   1  -1  -6 1586.73 399.849   3
  -1   1   6 1746.92 255.611   4
   1  -1  -6 2532.53 411.709   2
   1  -1  -5 2041.72 368.156   3
  -1   1   5 1253.20 273.979   2
  -1   1   5 1641.13 217.702   4
  -1   1   5 1071.27 415.225   3
  -1   1   4 88.8961 79.1599   4
   1  -1  -4 42.8108 79.1349   2
  -1   1   4 64.6019 92.1307   2
  -1   1   3 102149. 3511.37   3
   1  -1  -3 101379. 3012.81   3
  -1   1   3 110927. 2709.39   2
   1  -1  -3 109518. 2542.53   2
   1  -1  -2 2024.91 227.817   2
  -1   1   2 2428.98 206.671   4
   1  -1  -2 1768.00 257.465   3
  -1   1   1 483876. 7850.30   4
   1  -1  -1 464661. 7797.64   4
  -1   1   0 164.509 47.7041   7
   1  -1   0 76.7960 41.1170   3
  -1   1   0 35.1962 30.5700   1
   1  -1   0 130.028 39.2005   7
   1  -1   0 169.264 52.8071   5
  -1   1   0 145.812 49.6526   5
   1  -1   1 479050. 7961.68   5
   1  -1   1 493685. 8057.66   6
  -1   1  -1 503070. 8161.49   7
   1  -1   1 548108. 8031.77   1
   1  -1   1 469707. 8128.65   7
  -1   1  -1 510842. 8066.15   6
  -1   1  -1 494591. 7972.62   5
   1  -1   1 519055. 8631.64   8
  -1   1  -1 568036. 8038.37   1
  -1   1  -1 550673. 8838.01   8
  -1   1  -2 17.8945 33.3960   5
   1  -1   2 14.1084 28.8609   4
   1  -1   2-36.8694 46.2017   7
   1  -1   2-14.8189 25.8389   5
  -1   1  -2-104.265 88.6284   8
   1  -1   2 2.11594 27.1920   1
   1  -1   2-22.0054 33.4306   6
  -1   1  -2 4.32303 21.2201   1
  -1   1  -2 52.0332 40.4181   6
  -1   1  -3 805409. 12903.4   4
   1  -1   3 794139. 12820.1   4
  -1   1  -3 802612. 12944.6   6
   1  -1   3 763118. 12804.8   6
   1  -1   4 60.8526 46.6872   4
  -1   1  -4-7.84545 56.8164   4
   1  -1   4 3.87210 58.3088   1
  -1   1  -4 68.3553 53.2926   2
   1  -1   4 33.4397 32.0151   6
  -1   1  -4-1.04946 58.9491   6
  -1   1  -5 58595.0 1647.62   2
  -1   1  -5 58663.6 1610.93   4
  -1   1  -5 59567.3 1550.98   6
   1  -1   5 54389.3 1393.15   4
  -1   1  -6 83.3729 40.3946   4
   1  -1   6 77.6731 31.8617   4
  -1   1  -6 42.4922 58.6906   6
   1  -1   7 49929.4 1428.09   4
  -1   1  -7 52842.5 1768.71   2
  -1   1  -8 1138.20 279.188   2
   1  -1   8 1459.46 332.940   2
  -1   1  -8 1271.36 257.511   6
   1  -1   8 1379.64 218.157   4
  -1   1  -8 1090.55 252.966   4
   1  -1   9 4509.45 409.940   4
   1  -1   9 3802.82 505.798   3
  -1   1  -9 5366.55 574.451   2
  -1   1  -9 5478.53 594.756   6
  -1   1  -9 4630.70 582.365   4
  -1   1 -10 274.618 111.723   2
   1  -1  10 182.916 102.904   4
  -1   1 -10 409.492 176.434   6
  -1   1 -10 287.148 78.4536   4
   1  -1  11 12650.3 780.800   4
  -1   1 -11 15011.8 1151.18   2
  -1   1 -11 14507.2 1157.28   6
  -1   1 -12 220.963 129.595   6
   1  -1  12 591.596 168.990   4
  -1   1 -12 322.641 188.178   2
  -1   1 -13 918.714 307.254   2
  -1   1 -13 1585.05 439.899   6
   1  -1  13 1115.14 258.150   4
   1  -1  14 458.874 172.608   4
  -1   1 -14 655.246 315.047   2
   1  -1  14 736.996 302.747   5
  -1   1 -14 474.883 226.744   6
  -1   1 -15 44.0408 187.799   6
   1  -1  15 163.606 115.431   4
  -1   0  14 69.4944 89.3250   4
   1   0 -14 100.953 100.571   2
  -1   0  13 6824.84 686.576   4
   1   0 -13 7897.26 949.314   6
   1   0 -13 7370.90 832.053   2
   1   0 -12 204.659 168.610   6
  -1   0  12 99.1346 109.793   4
   1   0 -12-117.674 103.125   2
   1   0 -11 4831.49 621.134   6
   1   0 -11 5295.04 613.901   2
  -1   0  11 4583.25 505.528   4
  -1   0  10-78.9769 81.4460   4
   1   0 -10-103.708 124.798   2
  -1   0  10 112.066 162.438   3
  -1   0   9 4342.24 441.406   4
   1   0  -9 5449.26 587.680   2
  -1   0   8 1258.84 342.762   3
  -1   0   8 1449.30 439.290   2
   1   0  -8 1251.53 269.363   2
  -1   0   8 984.710 200.500   4
   1   0  -8 1612.24 331.660   4
   1   0  -7 34674.4 1492.16   4
  -1   0   7 25369.9 1594.43   3
  -1   0   7 31062.5 1131.27   4
   1   0  -7 32638.7 1429.35   2
  -1   0   7 28735.8 1738.95   2
  -1   0   6 1000.11 322.638   3
   1   0  -6 1048.10 281.145   2
  -1   0   6 739.131 156.142   4
  -1   0   5 218776. 4012.03   4
   1   0  -5 247137. 4847.41   2
  -1   0   4 14464.0 607.107   4
   1   0  -4 14977.7 776.357   3
   1   0  -4 15355.1 887.641   2
  -1   0   3 185972. 4165.63   2
  -1   0   3 201496. 3549.11   4
   1   0  -3 206408. 4153.02   2
  -1   0   2 1078.88 142.968   4
  -1   0   2 662.421 150.480   2
   1   0  -2 673.730 162.018   2
  -1   0   2 421.418 113.509   3
   1   0  -2 1103.19 272.989   3
   1   0  -1 661326. 9759.32   2
  -1   0   1 644960. 9578.33   3
   1   0   2 49.4644 17.5445   4
   1   0   2 5.79534 36.5669   5
  -1   0  -2 14.7736 10.6195   1
  -1   0  -2 14.5586 12.1489   4
   1   0   2 46.7794 17.5636   1
   1   0   3 58287.1 1095.96   4
   1   0   3 52855.7 1227.61   6
  -1   0  -3 55866.4 1166.17   4
  -1   0  -3 61016.9 1391.14   2
  -1   0  -3 57222.6 1327.91   6
   1   0   3 56249.4 1336.55   5
   1   0   4 184.796 44.0422   4
  -1   0  -4 252.484 72.3076   4
  -1   0  -4 193.281 46.1085   2
   1   0   4 200.697 56.2021   2
  -1   0  -4 141.815 50.0316   6
   1   0   4 137.585 45.9579   6
  -1   0  -5 143992. 2880.93   4
  -1   0  -5 140743. 2979.11   2
   1   0   5 141511. 2638.67   4
  -1   0  -5 149473. 2971.77   6
   1   0   6 361.657 92.8547   4
  -1   0  -6 113.516 67.6066   6
  -1   0  -6 199.068 94.5817   4
  -1   0  -6 240.448 118.828   2
   1   0   7 13005.5 817.206   2
  -1   0  -7 13859.7 801.981   2
   1   0   7 13590.4 623.912   4
  -1   0  -7 15570.4 855.986   6
  -1   0  -7 14521.5 812.418   4
   1   0   8 25.4176 113.084   3
   1   0   8 269.993 110.523   4
   1   0   8 157.495 99.4213   2
  -1   0  -8 268.743 127.561   2
  -1   0  -8 259.774 105.311   6
   1   0   9 16320.5 784.110   4
  -1   0  -9 17050.6 1102.91   6
  -1   0  -9 16204.4 1041.07   4
   1   0   9 15564.0 1137.83   2
   1   0   9 14185.8 976.495   3
  -1   0  -9 18129.5 1053.06   2
  -1   0 -10 2244.16 409.430   2
  -1   0 -10 2188.46 405.899   6
  -1   0 -10 2041.32 392.625   4
   1   0  10 2509.06 321.073   4
  -1   0 -11 2321.97 480.517   6
   1   0  11 2190.09 307.132   4
  -1   0 -11 2908.74 469.703   2
   1   0  12 172.493 111.294   4
  -1   0 -12-156.763 201.907   6
  -1   0 -12 178.535 151.948   2
   1   0  13 1613.15 297.392   4
  -1   0 -13 2059.12 459.163   2
  -1   0 -13 2403.65 561.972   6
   1   0  14 461.100 167.676   4
  -1   0 -14 440.182 233.810   2
  -1   0 -14 532.869 272.851   6
   1   0  14 824.175 291.839   5
  -1   0 -15 658.439 332.456   6
   1   0  15 519.163 195.856   4
   1   1 -13 68.0698 110.535   2
  -1  -1  13 116.163 110.730   4
   1   1 -13-37.0434 102.571   6
  -1  -1  12 155.075 113.779   4
   1   1 -12-25.4534 73.6100   6
   1   1 -12-34.0036 78.0762   2
  -1  -1  11 8919.17 722.869   4
   1   1 -11 11547.8 966.979   2
   1   1 -11 9929.59 918.419   6
   1   1 -10 524.982 245.546   2
  -1  -1  10 466.759 166.884   4
  -1  -1  10 569.368 262.099   3
   1   1 -10 800.570 243.969   6
  -1  -1   9 13409.8 810.275   4
   1   1  -9 16327.1 1065.87   2
   1   1  -8 43.8591 108.818   2
   1   1  -8-60.5277 113.518   4
  -1  -1   8-7.44529 63.8648   4
  -1  -1   8 160.699 171.885   3
  -1  -1   7 26014.0 1247.20   3
   1   1  -7 32809.0 1516.17   4
  -1  -1   7 26516.6 1708.78   2
   1   1  -7 32909.9 1482.89   2
  -1  -1   7 28356.1 1109.04   4
   1   1  -6 11837.9 811.324   4
  -1  -1   6 9307.79 642.349   3
   1   1  -6 11154.7 825.911   2
  -1  -1   6 8723.93 570.152   4
  -1  -1   5 122656. 2744.95   3
  -1  -1   5 121473. 2695.86   4
   1   1  -4 752.856 242.463   2
  -1  -1   4 579.930 104.981   4
  -1  -1   4 791.704 155.797   3
  -1  -1   3 3596.32 293.054   4
  -1  -1   3 3941.24 288.773   3
   1   1  -3 3810.04 420.390   2
  -1  -1   2 475.858 120.557   3
  -1  -1   2 201.436 70.0917   4
   1   1  -2 346.007 195.558   2
  -1  -1   1 314417. 5430.96   4
   1   1  -1 304423. 5329.52   7
  -1  -1   1 314105. 5382.81   7
   1   1   0 3729.14 172.686   7
   1   1   0 3824.15 248.216   5
   1   1   0 3776.83 197.496   6
  -1  -1   0 3797.65 251.415   5
   1   1   0 3479.10 216.979   4
  -1  -1  -1 762336. 11775.1   5
   1   1   2 734.820 108.591   5
  -1  -1  -2 854.794 111.175   6
   1   1   3 239107. 3956.72   2
   1   1   3 231054. 3861.74   4
  -1  -1  -3 248133. 4144.41   6
  -1  -1  -3 230781. 3865.25   4
   1   1   3 241441. 4161.66   5
   1   1   4 613.888 103.024   2
  -1  -1  -4 674.423 104.325   4
  -1  -1  -4 868.230 150.731   6
   1   1   4 859.940 116.152   4
  -1  -1  -4 683.149 117.663   2
   1   1   5 53173.3 1262.37   4
  -1  -1  -5 50423.2 1407.71   2
   1   1   5 49002.9 1289.95   2
  -1  -1  -5 53655.4 1499.48   6
  -1  -1  -5 51431.1 1296.98   4
   1   1   6 3452.14 327.169   2
  -1  -1  -6 3601.68 346.998   2
   1   1   6 3985.47 312.186   4
  -1  -1  -6 4157.42 408.985   6
  -1  -1  -6 4028.81 343.896   4
  -1  -1  -7 146124. 3226.15   2
   1   1   7 148455. 2980.96   4
  -1  -1  -7 154725. 3485.15   6
  -1  -1  -7 151854. 3230.07   4
   1   1   8-33.6810 85.1665   2
  -1  -1  -8 89.8327 61.2494   6
   1   1   8 92.6408 124.840   3
   1   1   8 267.325 135.818   4
  -1  -1  -8 31.7044 100.208   2
  -1  -1  -9 601.150 185.891   2
   1   1   9 516.870 206.698   3
   1   1   9 487.645 142.214   4
   1   1   9 670.589 225.119   2
  -1  -1  -9 466.472 169.363   4
  -1  -1  -9 707.074 232.257   6
  -1  -1 -10 445.255 196.081   4
  -1  -1 -10-72.1480 141.626   2
   1   1  10 446.262 144.762   4
  -1  -1 -10 574.810 228.740   6
   1   1  11 7218.88 590.344   4
  -1  -1 -11 6758.79 728.954   2
  -1  -1 -11 6361.51 794.618   6
  -1  -1 -12 160.700 112.184   2
  -1  -1 -12 4.37710 145.123   6
   1   1  12 231.820 115.461   4
   1   1  13 4801.47 523.489   4
  -1  -1 -13 5513.76 705.671   2
  -1  -1 -13 5391.64 845.232   6
  -1  -1 -14 79.2657 116.006   6
  -1  -1 -14-4.77624 163.968   2
   1   1  14 138.875 109.001   4
   1   1  14 291.542 183.641   5
   1   1  15 547.621 188.075   4
  -1  -1 -15 476.494 225.182   2
  -1  -1 -15 633.105 336.081   6
  -1  -2  13 1212.80 295.733   4
  -1  -2  12 76.1246 91.0027   4
   1   2 -12 207.735 109.090   6
   1   2 -12-142.536 160.026   2
  -1  -2  11 4142.42 501.528   4
   1   2 -11 5674.93 707.503   2
   1   2 -11 4945.14 621.040   6
   1   2 -10 845.898 283.847   2
   1   2 -10 1255.27 290.535   6
  -1  -2  10 649.981 183.537   4
  -1  -2  10 511.064 203.122   3
   1   2  -9 2219.07 401.389   2
  -1  -2   9 2285.38 340.443   4
   1   2  -9 2085.37 345.204   6
  -1  -2   9 1607.70 320.566   3
  -1  -2   8 4213.88 472.182   3
   1   2  -8 6244.30 534.487   6
   1   2  -8 6210.86 675.625   2
  -1  -2   8 5766.64 546.833   4
  -1  -2   7 15228.1 849.784   3
  -1  -2   7 18078.0 946.437   4
  -1  -2   7 17194.9 1389.39   2
   1   2  -7 21545.4 1293.19   4
  -1  -2   7 22124.1 1339.19   7
   1   2  -7 20500.4 1197.08   2
  -1  -2   6 559.509 209.788   3
   1   2  -6 171.602 263.896   2
  -1  -2   6-95.6803 125.307   4
  -1  -2   6 138.589 74.7491   7
   1   2  -6 119.654 123.492   4
  -1  -2   5 22384.8 969.673   4
   1   2  -5 24841.9 1258.99   2
  -1  -2   4 255.645 90.6471   4
   1   2  -4 270.347 156.618   2
  -1  -2   4 269.747 106.913   7
  -1  -2   4 296.644 69.6214   3
  -1  -2   3 138045. 2967.76   4
  -1  -2   3 138837. 3104.80   7
  -1  -2   2 1019.78 176.348   7
  -1  -2   2 1097.52 233.046   2
  -1  -2   2 764.374 145.480   4
   1   2  -2 1208.18 198.799   7
   1   2  -2 1243.93 252.652   2
   1   2  -1 15640.5 658.957   7
   1   2  -1 17346.5 844.688   2
   1   2  -1 14809.5 380.866   6
  -1  -2   1 15951.9 760.002   2
  -1  -2   1 16308.2 652.710   7
  -1  -2   0 2188.15 238.392   3
  -1  -2   0 2073.44 213.815   4
   1   2   0 2073.42 255.171   8
   1   2   0 1800.44 115.137   6
  -1  -2   0 2132.73 137.465   6
  -1  -2   0 1856.42 203.931   8
   1   2   0 2220.54 213.774   3
  -1  -2   0 2149.67 180.556   5
   1   2   0 2444.12 254.774   2
   1   2   0 1921.37 182.932   7
  -1  -2  -1 477351. 6717.54   1
   1   2   1 424906. 6546.60   6
  -1  -2  -1 474842. 6657.11   6
   1   2   1 476422. 6758.22   5
  -1  -2  -1 473717. 6737.54   5
   1   2   2 3917.29 262.674   5
   1   2   2 5278.31 417.308   3
   1   2   2 3701.57 209.827   1
  -1  -2  -2 3547.79 204.235   1
  -1  -2  -2 5497.39 441.220   3
  -1  -2  -2 3904.35 252.775   6
  -1  -2  -2 3876.63 272.460   5
   1   2   3 100768. 1936.89   2
   1   2   3 101505. 1942.40   1
   1   2   3 100882. 2174.37   5
  -1  -2  -3 99655.6 1983.58   1
   1   2   4 13123.8 487.418   1
   1   2   4 13568.7 472.490   2
  -1  -2  -4 14687.7 654.869   6
  -1  -2  -4 12715.3 861.545   3
  -1  -2  -4 12939.8 502.052   4
   1   2   4 14085.9 632.813   5
   1   2   5 71421.5 1701.71   1
   1   2   5 70379.7 1579.92   2
  -1  -2  -5 77235.7 1914.33   6
  -1  -2  -5 75839.4 1756.39   2
  -1  -2  -5 71252.0 1613.10   4
  -1  -2  -6 3950.65 347.323   2
  -1  -2  -6 4402.55 341.994   4
   1   2   6 4324.70 349.835   4
   1   2   6 3944.37 333.366   2
  -1  -2  -6 4734.53 434.603   6
   1   2   7 23565.2 933.352   4
  -1  -2  -7 22198.6 961.970   2
  -1  -2  -7 23521.4 1117.80   6
  -1  -2  -8-21.2868 60.5104   4
   1   2   8 0.54966 81.5151   4
   1   2   8-67.6243 57.0433   2
  -1  -2  -8-19.1278 97.8916   6
   1   2   8 156.883 157.686   3
  -1  -2  -8 42.8576 64.0030   2
  -1  -2  -9 44538.5 1636.71   4
  -1  -2  -9 41973.7 1568.04   2
   1   2   9 37047.9 1711.33   2
   1   2   9 36214.3 1782.47   3
   1   2   9 43545.2 1466.17   4
  -1  -2  -9 41033.4 1804.31   6
   1   2  10 132.932 149.833   2
  -1  -2 -10-129.279 132.573   4
  -1  -2 -10-217.501 162.277   2
   1   2  10 52.9642 70.9643   4
  -1  -2 -10 349.786 205.286   6
   1   2  11 14156.1 867.182   4
  -1  -2 -11 14638.0 986.636   2
  -1  -2 -11 14279.6 1207.23   6
  -1  -2 -12 570.086 178.644   2
   1   2  12 496.459 167.092   4
  -1  -2 -12 419.233 216.131   6
  -1  -2 -13 4393.45 770.217   6
  -1  -2 -13 5022.48 674.821   2
   1   2  13 3902.49 497.621   4
  -1  -2 -14-27.1890 151.014   2
   1   2  14-5.08434 76.3090   4
  -1  -2 -14 119.580 80.9319   6
   1   2  14 110.412 164.584   5
   1   2  15 121.592 88.0817   4
  -1  -2 -15 202.049 173.650   2
  -1  -2 -15 456.282 277.770   6
   1   2  16-30.4869 52.8892   4
   1   3 -12 5.80994 139.593   2
  -1  -3  12 249.325 133.164   4
   1   3 -11 2849.88 524.286   2
   1   3 -11 1453.65 320.361   6
  -1  -3  11 2274.03 381.441   4
   1   3 -10 325.386 130.265   6
  -1  -3  10 349.527 132.830   4
   1   3 -10 528.818 220.671   2
  -1  -3   9 12698.5 891.531   4
   1   3  -9 13536.2 819.689   6
   1   3  -8 1010.14 196.404   6
  -1  -3   8 792.066 193.731   3
  -1  -3   8 1172.59 241.057   4
   1   3  -8 1468.31 350.879   2
  -1  -3   7 105.464 61.5717   7
  -1  -3   7 58.5498 68.3530   4
   1   3  -7 123.658 178.567   2
   1   3  -7 79.7945 49.0826   6
  -1  -3   7 21.8661 56.1243   3
   1   3  -6 72.0915 100.127   4
  -1  -3   6 168.058 118.206   7
  -1  -3   6-21.8106 156.344   2
  -1  -3   6 18.1014 46.9056   3
  -1  -3   6 20.0334 83.8904   4
   1   3  -6 127.746 71.7687   6
   1   3  -6-69.1051 76.0155   2
   1   3  -5 32214.0 866.249   6
  -1  -3   5 29345.9 1262.08   4
   1   3  -5 32811.2 1473.98   4
   1   3  -5 33172.0 1510.72   2
  -1  -3   5 31213.7 1509.81   7
  -1  -3   4 4233.95 433.579   4
   1   3  -4 4327.01 524.423   2
  -1  -3   4 3929.98 555.250   2
   1   3  -4 4681.87 235.204   6
  -1  -3   3 58451.2 1774.18   4
  -1  -3   3 54201.7 1793.83   7
   1   3  -3 61520.6 2058.79   2
   1   3  -3 57687.1 1008.64   6
  -1  -3   3 50916.7 1979.43   2
   1   3  -2 12407.3 802.048   8
   1   3  -2 11660.4 714.112   7
  -1  -3   2 12384.1 708.447   7
  -1  -3   2 12225.9 798.774   2
   1   3  -2 13393.8 866.020   2
  -1  -3   2 12397.6 489.797   3
  -1  -3   1 203749. 3865.38   7
  -1  -3   1 197975. 4040.85   2
  -1  -3   1 197369. 3700.30   3
   1   3  -1 206517. 4047.26   7
   1   3  -1 199278. 4232.13   2
  -1  -3   1 210243. 4029.25   4
   1   3  -1 200394. 4422.84   8
  -1  -3   0 7244.91 545.375   8
  -1  -3   0 7184.39 345.497   5
  -1  -3   0 8048.05 468.703   2
   1   3   0 8174.05 433.097   3
  -1  -3   0 6498.41 406.626   1
  -1  -3   0 7534.88 281.381   6
   1   3   0 7076.05 458.199   7
  -1  -3   0 7203.43 563.213   3
   1   3   0 7650.70 544.083   2
   1   3   1 68488.2 1596.04   2
   1   3   1 62930.0 1474.16   1
  -1  -3  -1 57342.6 1916.49   3
  -1  -3  -1 63961.6 1295.83   6
   1   3   1 68969.4 2169.80   3
  -1  -3  -1 61658.8 1309.10   5
  -1  -3  -1 61317.6 1477.08   1
   1   3   1 63444.5 1362.92   5
   1   3   2 45.4160 46.8333   5
   1   3   2 29.6370 27.3872   1
  -1  -3  -2 28.6553 28.2157   6
  -1  -3  -2-7.67765 22.4239   1
  -1  -3  -2 34.4026 28.1781   5
   1   3   2 46.0794 154.490   3
  -1  -3  -3 3558.89 264.221   1
   1   3   3 3906.09 280.014   1
   1   3   3 4157.98 309.693   5
  -1  -3  -3 4893.18 334.074   6
   1   3   3 4285.18 641.500   3
   1   3   4 50366.1 1259.19   1
  -1  -3  -4 49470.8 1311.71   1
   1   3   4 50964.3 1383.11   5
   1   3   4 48146.5 1029.83   2
   1   3   5 17660.6 794.803   5
  -1  -3  -5 16545.0 661.750   4
   1   3   5 16317.3 568.634   2
   1   3   5 16815.9 677.601   1
  -1  -3  -6 7708.46 791.851   3
  -1  -3  -6 7061.09 445.504   4
   1   3   6 6277.11 402.883   2
   1   3   6 6615.70 457.751   1
   1   3   7 116475. 2767.90   1
  -1  -3  -7 122833. 2709.71   2
  -1  -3  -7 117445. 2956.31   6
   1   3   8 1583.13 431.970   3
   1   3   8 1497.90 280.134   1
  -1  -3  -8 2073.49 354.026   6
  -1  -3  -8 1753.78 249.804   2
  -1  -3  -8 1924.92 266.578   4
  -1  -3  -9 34033.5 1333.94   2
   1   3   9 27889.4 1431.09   2
  -1  -3  -9 32053.6 1566.67   6
  -1  -3  -9 31587.6 1271.02   4
   1   3   9 30033.9 1364.78   1
  -1  -3 -10-113.825 110.206   2
  -1  -3 -10-53.2312 42.1509   4
  -1  -3 -10 106.686 151.544   6
   1   3  10-1.95231 58.3682   4
   1   3  10 32.0696 84.6684   2
  -1  -3 -11 3774.32 508.106   2
  -1  -3 -11 4725.43 674.461   6
   1   3  11 4136.26 477.525   4
  -1  -3 -12-138.182 131.492   2
   1   3  12-113.910 107.165   4
  -1  -3 -13 1750.17 386.670   2
  -1  -3 -13 2488.87 555.744   6
   1   3  14 130.950 172.587   5
  -1  -3 -14-1.09056 98.9673   6
  -1  -3 -15 1605.42 510.200   6
  -1  -4  12-142.208 100.594   4
   1   4 -11 4496.06 695.103   2
  -1  -4  11 3808.58 525.562   4
   1   4 -10-109.366 152.496   2
  -1  -4  10 127.113 99.9482   4
   1   4  -9 2851.35 507.821   2
   1   4  -9 2741.14 329.888   6
  -1  -4   9 2096.54 382.459   4
   1   4  -8 124.800 68.5251   6
  -1  -4   8 29.8237 51.5102   3
  -1  -4   8 32.0694 76.7615   4
   1   4  -8 120.427 87.4080   2
  -1  -4   7 8623.04 751.098   4
   1   4  -7 10494.0 914.589   2
   1   4  -7 9908.22 505.590   6
  -1  -4   6 3085.35 435.430   4
  -1  -4   6 3081.12 512.416   7
   1   4  -6 3275.99 483.915   2
  -1  -4   6 2767.10 582.132   2
   1   4  -6 2940.98 225.201   6
  -1  -4   5 21635.4 1156.57   4
   1   4  -5 20665.0 538.274   6
   1   4  -5 21222.7 1220.88   2
  -1  -4   5 18730.2 1369.09   2
  -1  -4   5 21957.8 1288.37   7
   1   4  -5 21453.1 1217.49   4
  -1  -4   4 3048.90 403.084   4
  -1  -4   4 2832.70 483.947   2
   1   4  -4 3556.16 532.094   8
  -1  -4   4 3488.47 467.653   7
  -1  -4   4 3508.38 416.298   1
   1   4  -4 3658.40 494.280   2
  -1  -4   3 47000.2 1947.71   2
  -1  -4   3 49902.3 1382.85   3
   1   4  -3 51787.3 2142.85   8
   1   4  -3 51306.7 1858.12   7
   1   4  -3 51652.9 1849.16   2
  -1  -4   2 251.221 88.7556   3
   1   4  -2 261.832 95.0114   7
  -1  -4   2 298.685 123.870   4
  -1  -4   2 395.873 143.618   2
   1   4  -2 272.695 139.575   8
   1   4  -2-29.8611 151.787   2
  -1  -4   1 30868.5 1158.44   7
  -1  -4   1 30660.8 919.286   5
  -1  -4   1 31425.9 1266.18   4
   1   4  -1 29549.1 1265.53   2
  -1  -4   1 29940.8 1204.11   2
   1   4  -1 30637.4 1654.44   8
   1   4  -1 30383.7 1279.75   7
  -1  -4   1 32377.3 1221.22   3
   1   4   0 11366.1 602.914   3
  -1  -4   0 11762.3 629.701   2
  -1  -4   0 9447.04 774.863   3
   1   4   0 10396.2 660.877   2
  -1  -4   0 11885.5 834.467   8
  -1  -4   0 11326.9 374.787   6
  -1  -4   0 11459.6 436.805   5
   1   4   0 11283.3 685.837   7
   1   4   1 24522.1 990.000   7
  -1  -4  -1 22940.2 640.160   5
   1   4   1 20401.3 855.858   2
   1   4   1 25575.6 1186.65   3
   1   4   1 22718.8 698.556   5
   1   4   1 23979.6 901.250   1
  -1  -4  -1 21454.9 860.059   1
  -1  -4  -1 23756.5 676.282   6
  -1  -4  -1 18083.1 1235.05   3
  -1  -4  -2 1461.95 173.319   6
   1   4   2 1324.99 171.399   2
   1   4   2 1314.44 158.576   5
  -1  -4  -2 1295.49 186.641   1
   1   4   2 1178.64 189.459   1
   1   4   2 1743.98 424.262   3
  -1  -4  -3 134892. 2849.56   1
   1   4   3 138192. 2898.68   1
   1   4   3 135182. 4932.17   3
   1   4   3 137039. 2796.37   5
   1   4   4 3951.05 337.098   1
   1   4   4 3973.89 181.606   2
   1   4   4 3415.30 740.243   3
   1   4   4 4102.57 348.806   5
  -1  -4  -4 3628.77 320.077   1
  -1  -4  -5 42878.5 1374.99   1
   1   4   5 42038.7 1012.74   2
   1   4   5 47615.1 1435.78   5
   1   4   5 47978.9 1384.14   1
  -1  -4  -6 1225.07 326.038   3
   1   4   6 1011.64 159.347   2
   1   4   6 1346.65 235.011   5
   1   4   6 1222.51 205.247   1
   1   4   7 13442.1 736.425   2
  -1  -4  -7 14180.1 1189.45   3
  -1  -4  -7 15020.1 726.822   4
   1   4   7 14364.0 770.560   1
  -1  -4  -8 706.889 166.044   4
   1   4   8 545.801 167.309   2
   1   4   8 1106.34 541.399   3
  -1  -4  -8 166.890 300.572   3
   1   4   8 887.730 207.811   1
   1   4   9 3844.83 442.783   1
  -1  -4  -9 4589.81 446.294   4
  -1  -4  -9 4807.39 577.928   6
   1   4  10-91.4484 80.7694   2
  -1  -4 -10 238.159 159.689   6
   1   4  10 126.932 126.032   1
  -1  -4 -11 2853.28 508.745   6
   1   4  11 2979.30 441.552   1
   1   4  11 2378.91 459.827   2
  -1  -4 -12 83.3074 127.803   6
   1   4  12 11.7340 80.8214   1
   1   4  13 5451.54 645.567   1
   1   4  13 6165.47 770.781   5
   1   4  14 102.924 127.695   5
  -1  -4 -14-92.6485 157.113   6
  -1  -5  11 958.683 284.725   4
   1   5 -11 1106.86 352.703   2
   1   5 -11 1254.36 534.732   8
   1   5 -10 28.8275 123.890   8
   1   5 -10 176.566 108.730   2
  -1  -5  10-29.6693 72.3824   4
   1   5  -9 12459.5 1517.90   8
  -1  -5   9 11287.7 961.424   4
   1   5  -9 13914.3 1200.98   2
   1   5  -8 1628.57 149.462   6
  -1  -5   8 1820.25 379.380   4
   1   5  -8 2339.99 464.088   2
   1   5  -8 1825.84 538.018   8
  -1  -5   7 10584.4 898.415   4
   1   5  -7 12602.0 1038.91   2
   1   5  -7 10782.5 1266.02   8
  -1  -5   6 85.9810 83.8398   4
  -1  -5   6 184.358 70.1803   3
   1   5  -6 209.018 164.350   2
  -1  -5   5 2738.55 525.995   2
  -1  -5   5 2501.46 313.771   3
   1   5  -5 3315.77 479.795   2
  -1  -5   5 2681.85 459.380   7
   1   5  -5 2457.04 560.931   8
  -1  -5   5 2941.57 450.032   4
  -1  -5   4 3838.52 514.983   4
  -1  -5   4 3076.15 515.160   2
   1   5  -4 3606.21 469.451   2
  -1  -5   4 2900.34 338.376   3
  -1  -5   4 2535.52 419.266   7
   1   5  -4 2781.81 582.920   8
  -1  -5   4 3410.96 461.929   1
  -1  -5   3 2412.98 447.145   4
  -1  -5   3 1476.95 317.913   2
  -1  -5   3 1401.39 293.008   7
  -1  -5   3 1207.92 255.633   1
   1   5  -3 1804.25 358.251   7
  -1  -5   3 1867.14 269.569   3
   1   5  -3 827.266 316.405   8
   1   5  -3 1846.58 308.648   2
  -1  -5   2-17.6803 71.8364   3
   1   5  -2-81.3419 102.850   7
  -1  -5   2 10.4430 94.5500   4
  -1  -5   2 45.2405 72.3416   7
   1   5  -2 21.6864 82.0336   2
  -1  -5   2 70.1882 83.0873   2
   1   5  -2 278.816 257.086   8
  -1  -5   1 74536.4 1584.07   5
   1   5  -1 70744.2 2054.60   2
   1   5  -1 75551.1 2381.87   7
  -1  -5   1 70712.9 2110.09   2
  -1  -5   1 74566.5 2293.85   4
  -1  -5   1 73610.2 2327.91   3
  -1  -5   0 15469.1 495.031   5
  -1  -5   0 13300.3 1023.71   3
   1   5   0 16496.3 814.368   3
   1   5   0 15553.6 940.319   7
  -1  -5   0 15820.3 485.833   6
  -1  -5   0 16137.9 1118.99   8
   1   5   0 15829.3 786.656   2
  -1  -5   0 15958.7 794.704   2
   1   5   1 187867. 4052.56   7
   1   5   1 189805. 3868.16   1
   1   5   1 177982. 3512.16   2
  -1  -5  -1 180387. 4854.49   8
   1   5   1 196102. 4287.32   3
  -1  -5  -1 191540. 3307.80   6
  -1  -5  -1 166303. 4880.20   3
  -1  -5  -1 180423. 3088.17   5
   1   5   2 5126.01 446.097   1
  -1  -5  -2 4170.09 664.161   3
   1   5   2 5296.54 677.450   3
   1   5   2 4778.36 311.034   5
   1   5   2 4925.30 309.471   2
  -1  -5  -3 65408.7 1816.92   1
   1   5   3 64658.1 3137.47   3
   1   5   3 66889.8 1875.71   1
   1   5   3 67724.4 1644.30   5
  -1  -5  -4 589.231 143.229   1
   1   5   4 496.059 132.020   1
   1   5   4 739.843 152.034   5
  -1  -5  -4 976.196 357.640   3
   1   5   5 4121.37 404.912   1
   1   5   5 3215.41 781.214   3
  -1  -5  -5 5213.73 637.092   3
   1   5   5 3577.16 372.142   5
  -1  -5  -5 3036.50 353.626   1
   1   5   5 4712.79 258.831   2
   1   5   6 8623.56 472.475   2
  -1  -5  -6 10234.3 597.314   4
   1   5   6 9951.83 656.419   1
   1   5   6 9747.97 667.994   5
  -1  -5  -7 6321.48 485.953   4
   1   5   7 6356.30 585.224   5
   1   5   7 6373.86 488.040   2
   1   5   7 6770.37 556.239   1
   1   5   8 179.375 91.7537   5
  -1  -5  -8 184.664 100.083   4
   1   5   8 140.829 76.5478   1
   1   5   8 260.846 117.462   2
  -1  -5  -8-96.1505 289.469   3
  -1  -5  -9 11095.8 882.787   6
   1   5   9 11089.7 775.214   1
   1   5   9 9050.50 728.514   2
   1   5   9 10368.6 832.218   5
   1   5  10 340.510 163.547   5
  -1  -5 -10 441.675 203.728   6
   1   5  10 112.036 86.7767   1
   1   5  10 327.749 148.756   2
   1   5  11 9375.49 773.230   1
   1   5  11 7296.80 776.958   2
   1   5  11 8968.24 854.454   5
   1   5  12-218.366 154.693   1
   1   5  12 187.847 143.962   5
  -1  -5 -12 41.2636 138.411   6
   1   5  13 1254.39 295.698   1
  -1  -5 -13 2423.57 532.908   6
   1   5  13 1873.19 427.333   5
   1   5  14 176.810 213.017   5
  -1  -5 -14-1.01847 55.3188   6
   1   6 -10 421.332 391.690   8
   1   6 -10 151.507 79.6788   2
  -1  -6  10 25.1830 134.110   4
   1   6  -9 3083.91 603.462   2
  -1  -6   9 2271.86 461.304   4
   1   6  -9 2533.69 764.434   8
   1   6  -8 401.100 341.572   8
   1   6  -8 661.821 279.202   2
  -1  -6   8 411.838 186.710   4
  -1  -6   8 311.282 140.397   3
  -1  -6   7 7725.79 829.253   4
   1   6  -7 9017.79 893.653   2
  -1  -6   7 8489.16 685.133   3
   1   6  -7 8567.38 1282.23   8
  -1  -6   6 304.147 126.322   3
  -1  -6   6 104.826 99.5326   4
   1   6  -6 147.130 123.911   8
   1   6  -6-4.88843 117.585   2
  -1  -6   5 6558.27 741.122   4
   1   6  -5 5808.49 966.271   8
  -1  -6   5 6697.99 577.905   3
   1   6  -5 6706.51 680.644   2
  -1  -6   4 984.995 221.635   3
  -1  -6   4 1032.10 353.870   2
   1   6  -4 696.969 334.864   8
   1   6  -4 1037.00 259.089   2
   1   6  -4 964.291 321.289   7
  -1  -6   4 1065.64 321.267   4
  -1  -6   3 21271.0 1138.14   3
   1   6  -3 22132.3 1412.83   7
  -1  -6   3 21087.1 1319.94   2
   1   6  -3 24460.8 1186.13   2
  -1  -6   3 23861.1 1282.96   7
   1   6  -3 22939.4 1871.08   8
  -1  -6   2 7303.85 668.864   7
  -1  -6   2 8086.81 680.625   1
  -1  -6   2 8114.55 763.492   4
   1   6  -2 7438.80 785.842   7
   1   6  -2 8656.45 637.232   2
  -1  -6   2 6901.65 671.582   2
  -1  -6   2 7638.50 429.167   5
  -1  -6   2 8306.50 746.721   3
   1   6  -1 8168.51 561.176   2
  -1  -6   1 8402.83 754.195   4
  -1  -6   1 8226.26 675.012   1
  -1  -6   1 8085.18 667.896   2
  -1  -6   1 8583.77 857.338   3
   1   6  -1 7942.49 776.699   7
  -1  -6   1 8056.46 348.778   5
   1   6   0 711.909 166.597   3
   1   6   0 748.080 231.256   7
  -1  -6   0 600.540 230.485   8
  -1  -6   0 820.313 186.709   2
  -1  -6   0 308.332 153.413   3
  -1  -6   0 796.891 76.9308   5
  -1  -6   0 725.963 185.652   1
   1   6   0 895.208 162.629   2
  -1  -6   0 736.449 99.5047   6
   1   6   1 53282.7 1802.28   1
   1   6   1 53471.1 1935.98   3
   1   6   1 53189.5 1969.17   7
  -1  -6  -1 53051.5 1775.85   1
  -1  -6  -1 55725.4 1319.53   6
  -1  -6  -1 54441.1 2521.80   8
   1   6   1 53641.5 1287.35   2
  -1  -6  -1 46664.0 2446.50   3
  -1  -6  -2 1788.99 212.805   6
   1   6   2 1898.36 303.690   1
   1   6   2 1923.55 144.729   2
  -1  -6  -2 1595.17 268.091   1
   1   6   2 1613.99 315.691   7
  -1  -6  -2 1249.71 420.710   3
   1   6   2 1588.61 171.593   5
   1   6   3 16899.8 939.407   1
  -1  -6  -3 16677.5 888.807   1
   1   6   3 16208.6 682.098   5
   1   6   4 3590.52 784.264   3
   1   6   4 4192.72 364.597   5
  -1  -6  -4 4943.72 717.910   3
   1   6   4 4328.54 459.551   1
  -1  -6  -5 20853.7 1356.09   3
   1   6   5 17705.2 1966.83   3
   1   6   5 17761.2 873.279   5
   1   6   5 16844.8 933.219   1
   1   6   6 234.171 100.993   5
   1   6   6 55.1073 64.6889   1
  -1  -6  -6 608.262 364.427   3
   1   6   6 130.280 277.953   3
  -1  -6  -7 32739.2 1247.53   4
   1   6   7 34571.3 1429.27   1
   1   6   7 33086.1 1414.23   5
   1   6   8 568.937 178.945   5
  -1  -6  -8-77.1245 178.442   3
   1   6   8 112.007 66.8864   2
   1   6   8 324.736 155.232   1
   1   6   9 19872.3 1115.62   1
   1   6   9 17360.2 1006.46   2
   1   6   9 18512.0 1180.67   5
  -1  -6  -9 20881.5 1645.95   3
   1   6  10 109.973 113.051   5
   1   6  10 74.5977 93.4176   1
  -1  -6 -10 371.086 211.616   6
   1   6  10 127.830 155.496   2
   1   6  11 1271.72 300.474   1
   1   6  11 1526.44 364.212   5
  -1  -6 -11 1727.83 406.974   6
   1   6  12 213.664 148.614   5
  -1  -6 -12 229.113 157.987   6
   1   6  12 45.8503 126.162   1
  -1  -6 -13 1688.79 442.263   6
   1   6  13 1117.95 342.706   5
   1   6  14 11.3531 123.876   5
  -1  -7   9 1153.32 367.723   4
   1   7  -9 1341.63 399.653   2
   1   7  -9 1033.19 516.480   8
   1   7  -8 531.688 439.853   8
  -1  -7   8 482.924 221.947   4
   1   7  -8 446.558 188.677   2
   1   7  -7 4419.77 671.312   2
   1   7  -7 3240.62 881.027   8
  -1  -7   7 4027.35 629.489   4
  -1  -7   6 3805.94 603.966   4
   1   7  -6 3294.15 524.543   2
   1   7  -6 3575.17 875.839   8
  -1  -7   6 3053.06 441.430   3
  -1  -7   5 22744.0 1486.25   4
  -1  -7   5 19508.2 1177.13   3
   1   7  -5 19357.1 2010.29   8
   1   7  -5 22582.0 1312.46   2
  -1  -7   4 1135.68 293.625   3
   1   7  -4 709.128 356.398   8
  -1  -7   4 1131.28 346.474   4
   1   7  -4 946.217 250.066   2
   1   7  -4 761.687 286.343   7
  -1  -7   4 850.754 198.565   5
  -1  -7   3 541.171 120.683   5
  -1  -7   3 643.086 253.161   3
   1   7  -3 790.407 301.502   7
  -1  -7   3 718.617 283.103   4
  -1  -7   3 706.328 222.297   2
   1   7  -3 784.933 190.343   2
  -1  -7   2 332.153 234.425   3
  -1  -7   2 324.313 159.660   2
  -1  -7   2 261.334 188.148   4
   1   7  -2 242.507 98.1277   2
   1   7  -2 407.428 212.399   7
  -1  -7   2 242.962 56.7672   5
  -1  -7   1 9915.07 891.313   4
   1   7  -1 9005.84 571.882   2
   1   7  -1 8343.59 881.567   7
  -1  -7   1 8432.39 698.400   2
  -1  -7   1 8033.40 940.334   3
  -1  -7   0 2770.61 208.896   6
  -1  -7   0 2340.68 326.963   2
  -1  -7   0 2310.90 489.901   3
   1   7   0 2634.42 479.976   7
  -1  -7   0 2671.03 388.351   1
   1   7   0 2704.94 273.808   2
  -1  -7   0 2561.90 521.957   8
   1   7   1 6127.32 606.675   1
   1   7   1 6564.90 358.533   2
   1   7   1 6892.78 742.139   7
  -1  -7  -1 6222.92 607.731   1
  -1  -7  -1 6492.26 895.644   8
  -1  -7  -1 6862.09 401.297   6
  -1  -7  -1 5143.01 848.735   3
  -1  -7  -2 1628.00 513.100   3
   1   7   2 1229.39 367.649   3
  -1  -7  -2 1349.10 269.024   1
   1   7   2 986.379 246.825   1
   1   7   2 1205.77 114.828   2
  -1  -7  -2 1530.87 455.261   8
  -1  -7  -2 1374.98 201.561   6
   1   7   2 1280.55 299.825   7
   1   7   3 16128.6 1001.68   1
   1   7   3 16600.9 1156.65   7
  -1  -7  -3 19142.3 1554.79   3
   1   7   3 17171.8 1452.52   3
  -1  -7  -3 16790.1 972.359   1
   1   7   3 15780.7 644.816   5
  -1  -7  -4 1695.93 301.484   1
   1   7   4 2140.22 596.005   3
   1   7   4 1924.58 247.543   5
   1   7   4 2218.76 354.741   1
  -1  -7  -4 2499.69 545.297   3
   1   7   5 30549.0 1416.78   1
   1   7   5 32707.8 1223.93   5
  -1  -7  -5 34769.1 1840.70   3
   1   7   5 31588.9 2635.42   3
  -1  -7  -5 29957.0 1360.31   1
  -1  -7  -6 5476.61 590.201   1
   1   7   6 5500.34 578.529   1
  -1  -7  -6 6539.13 812.773   3
   1   7   6 5687.14 536.327   5
   1   7   7 12905.0 870.603   5
  -1  -7  -7 15795.1 1287.06   3
   1   7   7 13840.9 937.878   1
   1   7   8 1467.65 303.954   5
  -1  -7  -8 1364.48 427.169   3
   1   7   8 1462.90 297.869   1
   1   7   9 3507.36 359.349   2
   1   7   9 3859.47 517.538   1
   1   7   9 4591.93 585.177   5
  -1  -7  -9 4838.90 605.407   6
  -1  -7  -9 5056.75 797.744   3
   1   7  10 53.3035 78.3809   5
  -1  -7 -10 49.1780 145.395   3
   1   7  10-44.0353 82.9551   1
  -1  -7 -11 2441.76 568.443   3
  -1  -7 -11 3293.45 554.617   6
   1   7  11 2914.98 513.850   5
   1   7  11 2715.79 444.304   1
   1   7  12 106.195 104.549   5
  -1  -7 -12-19.9817 78.4408   6
   1   7  12 109.880 123.196   1
   1   7  13 1585.63 418.794   5
  -1  -7 -13 1931.36 494.339   6
   1   7  14-1.85042 82.8542   5
  -1  -8   8 497.391 241.229   4
   1   8  -8 892.036 562.818   8
   1   8  -8 224.070 163.419   2
  -1  -8   7 2650.64 556.535   4
   1   8  -7 3600.56 627.821   2
   1   8  -7 2582.39 858.868   8
   1   8  -6 1274.97 558.840   8
  -1  -8   6 585.753 270.830   4
   1   8  -6 786.434 293.096   2
   1   8  -5 3445.15 506.875   2
  -1  -8   5 2886.54 563.472   4
  -1  -8   5 2966.49 523.991   3
  -1  -8   4 323.147 205.309   3
   1   8  -4 471.324 250.348   7
  -1  -8   4 591.520 264.273   4
   1   8  -4 279.696 130.885   2
  -1  -8   3 16071.2 1367.24   4
   1   8  -3 15027.0 923.654   2
   1   8  -3 13131.4 1267.16   7
  -1  -8   3 13330.1 1209.16   3
  -1  -8   3 12403.5 1060.49   2
  -1  -8   3 12439.8 394.470   5
   1   8  -2 1574.46 262.000   2
   1   8  -2 1158.91 382.614   7
  -1  -8   2 1358.52 360.958   4
  -1  -8   2 1090.70 284.387   2
  -1  -8   2 1615.14 453.613   3
  -1  -8   1 2578.05 482.396   4
   1   8  -1 2954.87 326.454   2
   1   8  -1 2529.10 528.122   7
  -1  -8   1 3035.47 436.737   2
  -1  -8   1 1457.91 433.375   3
   1   8   0 1314.05 192.072   2
  -1  -8   0 1097.09 133.053   6
  -1  -8   0 567.960 219.838   3
   1   8   0 1302.20 371.996   7
   1   8   1 6894.25 827.819   7
   1   8   1 7068.63 388.424   2
   1   8   1 7728.79 777.144   3
  -1  -8  -1 6064.55 961.459   3
  -1  -8  -1 7189.79 436.768   6
  -1  -8  -2-295.475 281.206   8
   1   8   2 55.5677 155.628   3
   1   8   2 122.814 150.826   1
   1   8   2-13.2178 106.032   7
  -1  -8  -2-40.4136 43.3474   6
   1   8   3 30789.0 1539.75   1
  -1  -8  -3 31281.4 1180.04   6
   1   8   3 28946.6 1675.10   7
   1   8   3 29376.1 1922.34   3
  -1  -8  -3 28429.4 1971.40   3
   1   8   4 11166.6 900.979   1
   1   8   4 10880.0 1030.68   7
  -1  -8  -4 10645.4 1161.07   3
   1   8   4 10927.7 1308.79   3
  -1  -8  -4 10803.3 707.283   6
   1   8   4 11014.3 580.265   5
   1   8   5 82.3771 84.8954   5
   1   8   5 277.908 154.839   1
   1   8   6 40.9471 95.0525   1
  -1  -8  -6-109.088 178.382   3
   1   8   6-38.6860 50.9776   5
  -1  -8  -6 50.8518 110.305   1
   1   8   7 2161.09 358.390   5
   1   8   7 2145.25 395.907   1
  -1  -8  -7 2196.11 506.353   3
   1   8   8 446.096 208.912   5
   1   8   8 115.134 78.1740   1
  -1  -8  -8 589.055 215.845   6
  -1  -8  -8 304.657 227.525   3
   1   8   9 5549.76 659.108   5
  -1  -8  -9 5421.86 659.757   6
   1   8   9 5231.33 637.418   1
  -1  -8  -9 5781.67 878.779   3
  -1  -8 -10-105.323 137.580   3
   1   8  10 10.0191 51.2935   5
  -1  -8 -10 129.881 174.455   6
   1   8  10-53.4798 109.986   1
   1   8  11 1940.98 437.675   5
  -1  -8 -11 2811.85 625.274   3
  -1  -8 -11 2798.56 513.325   6
   1   8  11 2303.15 439.223   1
   1   8  12-0.81767 129.381   5
  -1  -8 -12 144.317 148.925   6
   1   8  13 1250.97 396.938   5
   1   9  -7 650.268 267.374   2
   1   9  -6 190.628 165.760   2
  -1  -9   6 372.358 230.140   4
  -1  -9   5 4554.80 739.882   4
   1   9  -5 3905.21 574.300   2
   1   9  -4 90.6392 82.8778   2
  -1  -9   4 165.994 179.698   4
   1   9  -4 32.8586 95.4966   7
  -1  -9   3 7731.82 998.282   4
   1   9  -3 6384.74 616.697   2
   1   9  -3 6536.32 946.788   7
  -1  -9   3 5193.79 843.976   3
  -1  -9   2 30.4911 111.632   4
   1   9  -2 30.4354 56.7474   2
   1   9  -2-83.5078 114.956   7
  -1  -9   2-284.597 364.837   3
   1   9  -1 2876.18 599.204   7
  -1  -9   1 2200.30 620.902   3
  -1  -9   1 3174.96 586.673   4
   1   9  -1 3406.98 360.974   2
   1   9   0 2319.04 264.428   2
  -1  -9   0 2239.02 492.302   4
   1   9   0 2984.78 595.940   7
  -1  -9   0 2501.94 188.981   6
  -1  -9   0 1556.25 494.355   3
   1   9   1 21460.5 1643.14   7
   1   9   1 20761.4 1341.26   3
  -1  -9  -1 21750.5 815.274   6
   1   9   2 1496.68 342.010   1
   1   9   2 1430.04 383.487   3
   1   9   2 1317.48 368.611   7
  -1  -9  -2 1668.05 254.757   6
  -1  -9  -2 1059.85 508.565   3
   1   9   3 1531.95 426.406   7
   1   9   3 1604.41 373.028   1
  -1  -9  -3 2220.83 614.704   3
  -1  -9  -3 1683.61 273.584   6
  -1  -9  -4 1177.39 248.299   6
   1   9   4 1279.28 334.622   1
   1   9   4 1359.52 397.585   7
   1   9   4 1097.28 146.386   5
  -1  -9  -4 1381.78 454.858   3
   1   9   5 3504.31 538.401   1
  -1  -9  -5 3989.43 712.027   3
   1   9   5 3846.57 366.817   5
   1   9   5 4041.37 691.794   7
  -1  -9  -5 3981.32 480.328   6
  -1  -9  -6 2471.87 584.985   3
  -1  -9  -6 2576.51 395.530   6
   1   9   6 2792.38 481.089   1
   1   9   6 2401.12 340.903   5
   1   9   7 2970.00 497.773   1
  -1  -9  -7 3005.95 605.289   3
  -1  -9  -7 2785.12 436.765   6
   1   9   7 2793.93 405.097   5
  -1  -9  -8 643.786 226.924   6
   1   9   8 422.545 195.153   1
   1   9   8 298.199 125.569   5
  -1  -9  -8 241.021 190.483   3
  -1  -9  -9 3246.88 520.210   6
   1   9   9 2183.68 437.413   1
  -1  -9  -9 2953.51 663.842   3
   1   9   9 3357.56 517.766   5
  -1  -9 -10-229.843 292.961   3
   1   9  10 122.323 153.293   5
   1   9  10 136.595 96.6486   1
  -1  -9 -10 128.423 153.485   6
  -1  -9 -11 2318.10 630.247   3
   1   9  11 1432.26 359.300   1
  -1  -9 -11 2136.83 471.495   6
   1   9  11 1520.19 389.950   5
   1   9  12 420.090 230.234   5
   1   9  13 506.027 230.281   5
   1  10  -6 89.6220 121.843   2
   1  10  -5 756.328 263.954   2
  -1 -10   4 80.7532 127.357   4
   1  10  -4 38.3140 92.5796   2
   1  10  -4 38.7061 137.953   7
   1  10  -3 1735.98 322.848   2
  -1 -10   3 2297.79 616.732   4
   1  10  -3 1468.32 478.048   7
   1  10  -2 17.5092 77.1038   7
   1  10  -2 92.7160 71.0663   2
  -1 -10   2 280.686 228.618   4
  -1 -10   1 4860.89 969.293   3
  -1 -10   1 8171.75 1009.88   4
   1  10  -1 7056.42 1028.39   7
   1  10  -1 6463.56 531.184   2
   1  10   0-131.941 198.240   7
  -1 -10   0-22.3402 206.910   3
  -1 -10   0-132.042 143.321   4
  -1 -10  -1 402.713 428.425   3
   1  10   1 301.466 179.382   7
  -1 -10  -2 34.3333 70.2720   6
   1  10   2 252.029 209.018   7
  -1 -10  -2 119.887 318.393   3
   1  10   3 14382.3 1418.25   7
  -1 -10  -3 14758.9 1480.46   3
  -1 -10  -3 15563.2 885.558   6
   1  10   3 14275.7 1188.74   1
   1  10   4 139.814 137.198   1
  -1 -10  -4 281.711 129.433   6
   1  10   4 96.3112 123.998   7
   1  10   5 5694.16 874.794   7
  -1 -10  -5 5743.51 853.105   3
  -1 -10  -5 5284.30 581.987   6
   1  10   5 4809.52 690.828   1
   1  10   6 483.750 215.680   1
  -1 -10  -6 396.887 183.174   6
   1  10   6 33.2982 191.846   7
   1  10   7 1679.63 398.607   1
  -1 -10  -7 2278.12 412.082   6
  -1 -10  -7 2141.85 545.976   3
   1  10   8-106.154 131.899   1
  -1 -10  -8 142.511 248.894   3
  -1 -10  -8 265.897 169.603   6
   1  10   9 2701.49 512.157   1
  -1 -10  -9 2797.93 525.436   6
  -1 -10  -9 2560.40 609.312   3
   1  10  10 133.792 134.809   1
  -1 -10 -10 197.528 205.684   3
  -1 -10 -10 143.770 142.599   6
   1  11  -2 252.028 211.590   7
  -1 -11   1 59.4043 86.8245   4
   1  11  -1 50.4621 103.110   7
   1  11   0 279.753 262.715   7
  -1 -11   0 35.9695 127.756   4
  -1 -11  -1 3132.91 660.473   4
   1  11   1 2000.62 549.194   7
  -1 -11  -1 2140.21 608.410   3
  -1 -11  -2 926.033 459.640   3
   1  11   2 887.073 395.529   7
  -1 -11  -3 4100.94 783.708   3
   1  11   3 4305.27 868.257   7
   1  11   4 154.212 170.960   1
   1  11   4 79.4151 192.577   7
  -1 -11  -4 197.049 296.554   3
  -1 -11  -5 2504.45 560.234   3
   1  11   5 2665.57 665.184   7
  -1 -11  -5 2330.89 398.184   6
   1  11   5 2552.11 523.550   1
   1  11   6 15.1233 107.300   1
   1  11   6 51.5225 84.9069   7
  -1 -11  -6 7.07441 45.6236   6
   1  11   7 1800.93 542.061   7
   1  11   7 2307.71 508.633   1
  -1 -11  -7 1628.99 471.331   3
  -1 -11  -7 1766.04 378.406   6
   1  11   8 117.532 109.112   1
  -1 -11  -8 93.8365 123.839   6
  -1 -11  -9 1053.46 328.082   6
   1  11   9 676.440 295.281   1
  -1 -11 -10 369.678 209.672   6
  -1 -12  -3 759.407 342.085   3
  -1 -12  -4 79.7112 150.074   3
   1  12   5 460.316 218.130   1
  -1 -12  -5 938.570 425.612   3
   1  12   6 565.686 268.763   1
  -1 -12  -6 153.632 232.829   3
   1  12   7 1.90537 60.5113   1
  -1 -12  -7 953.568 382.145   3
   1  12   8-31.7494 100.828   1
  -2  11   4 1332.81 557.824   7
   2 -11  -4 1023.51 634.282   3
   2 -11  -3-954.915 723.979   3
  -2  11   3-23.1017 212.998   7
  -2  11   2 2678.65 749.241   7
   2 -11  -2 756.595 534.655   3
  -2  11   1 136.809 176.307   7
   2 -11  -1 117.351 290.312   3
   2 -11   0 1065.36 478.777   3
   2 -11   1-33.2844 204.156   3
   2 -11   2-346.370 256.748   3
   2 -11   3-194.316 149.331   3
  -2  10   8 1808.82 622.276   7
  -2  10   8 1508.10 458.595   1
  -2  10   7-127.736 224.157   7
  -2  10   7 5.32842 79.7499   1
   2 -10  -7-315.443 217.202   3
  -2  10   6 2993.04 736.870   7
  -2  10   6 2598.34 601.751   1
   2 -10  -6 2906.38 904.948   3
  -2  10   5 68.8375 177.301   7
  -2  10   5-190.719 156.784   1
   2 -10  -5-100.963 277.204   3
  -2  10   4 7117.52 1126.42   7
  -2  10   4 6748.51 925.711   1
   2 -10  -4 3921.44 1093.34   3
  -2  10   3 199.746 183.739   7
  -2  10   3-81.7228 160.685   1
   2 -10  -3-38.1712 440.780   3
  -2  10   2 1433.71 415.068   1
  -2  10   2 1705.14 562.696   7
   2 -10  -2 1051.92 433.910   3
  -2  10   1 392.316 243.814   1
  -2  10   1 400.768 263.972   7
   2 -10  -1 174.625 284.306   3
   2 -10   0 2790.88 820.328   3
  -2  10   0 2670.80 568.965   1
  -2  10   0 2864.03 720.211   7
   2 -10   1 119.765 191.551   3
  -2  10  -1 582.188 309.995   7
  -2  10  -1 749.136 301.359   1
   2 -10   2 2631.68 560.405   4
  -2  10  -2 3306.60 626.443   1
   2 -10   2 2137.65 614.498   3
  -2  10  -2 3499.68 789.213   7
   2 -10   3 400.684 225.137   4
  -2  10  -3 136.081 192.714   7
   2 -10   3 288.325 273.823   3
   2 -10   4 1579.23 516.046   3
   2 -10   4 2560.99 580.605   4
   2 -10   5-219.756 86.3147   3
   2 -10   5 98.6171 185.520   4
  -2   9  10 2135.50 552.297   1
  -2   9   9-78.5222 104.593   1
   2  -9  -9 515.199 370.659   3
  -2   9   8 2005.81 520.543   1
   2  -9  -8 1959.39 630.514   3
  -2   9   7 178.405 162.862   1
   2  -9  -7 1483.40 646.383   3
  -2   9   6 3415.46 752.496   7
  -2   9   6 3955.03 728.762   1
   2  -9  -6 3446.70 960.142   3
  -2   9   5-103.139 158.560   7
  -2   9   5-42.1266 118.883   1
   2  -9  -5 197.142 217.157   3
  -2   9   4 1839.87 456.806   1
  -2   9   4 2052.15 556.688   7
   2  -9  -4 1277.31 634.648   3
  -2   9   3-37.8004 125.497   7
   2  -9  -3-125.897 373.171   3
  -2   9   3 141.637 161.741   1
  -2   9   2 8109.61 1096.16   7
  -2   9   2 6964.83 880.879   1
   2  -9  -2 6276.86 1180.42   3
   2  -9  -1 391.816 337.569   3
  -2   9   1 47.6196 216.222   7
  -2   9   1-25.0157 152.681   1
  -2   9   0 13527.7 1447.24   7
  -2   9   0 13158.2 1192.25   1
   2  -9   0 10746.2 1395.31   3
  -2   9  -1 854.499 313.847   1
   2  -9   1 1206.00 446.027   3
  -2   9  -1 546.799 339.257   7
  -2   9  -2 12199.0 1130.09   1
  -2   9  -2 13855.8 1478.47   7
   2  -9   2 9373.78 1234.92   3
   2  -9   3 68.8257 201.979   3
  -2   9  -3 131.840 202.941   7
   2  -9   3 180.556 127.996   4
  -2   9  -3 152.453 117.430   1
   2  -9   4 1364.28 381.962   4
   2  -9   4 1505.09 453.960   3
  -2   9  -4 1275.18 457.164   7
   2  -9   5-76.4370 140.364   4
   2  -9   5-247.307 201.677   3
   2  -9   6 2319.13 527.860   4
   2  -9   6 1730.83 488.998   3
   2  -9   7 271.578 175.072   4
   2  -9   7 310.962 259.018   3
   2  -9   8 850.563 321.974   4
  -2   8  12 761.831 351.717   1
  -2   8  11-62.6791 115.206   1
   2  -8 -10 1226.54 419.929   3
  -2   8  10 1739.03 482.316   1
  -2   8   9 57.9945 69.7836   1
   2  -8  -9 121.512 258.484   3
  -2   8   8 1874.64 485.411   1
   2  -8  -8 2483.44 675.601   3
  -2   8   7 587.340 289.662   1
   2  -8  -7 712.316 411.029   3
   2  -8  -6 244.823 228.930   3
  -2   8   6 1293.61 377.383   1
  -2   8   5 277.371 187.143   1
   2  -8  -5-3.69037 396.342   3
  -2   8   5 109.652 159.808   7
  -2   8   4 10566.9 1044.53   1
  -2   8   4 11450.6 822.283   5
   2  -8  -4 8642.54 1400.15   3
  -2   8   4 12068.9 1208.34   7
  -2   8   3 189.416 79.5275   5
  -2   8   3 135.399 62.8718   1
  -2   8   3 404.184 253.666   7
   2  -8  -3 394.428 217.892   3
   2  -8  -2 11526.6 525.761   2
  -2   8   2 14040.1 1157.32   1
  -2   8   2 15263.3 1365.12   7
   2  -8  -2 11367.5 1439.99   3
  -2   8   1 169.191 83.6568   1
  -2   8   1 342.861 225.753   7
   2  -8  -1 313.943 101.667   2
   2  -8   0 10660.6 1246.51   3
  -2   8   0 13135.9 1298.37   7
  -2   8   0 12379.7 1079.30   1
   2  -8   0 11802.1 850.972   6
   2  -8   0 10834.0 681.490   2
   2  -8   1 146.883 171.650   3
   2  -8   1 296.899 115.373   6
  -2   8  -1 137.671 103.548   7
   2  -8   1 87.2287 69.5288   2
  -2   8  -1 23.2273 79.8062   1
  -2   8  -2 7074.73 800.960   1
  -2   8  -2 7122.51 975.393   7
   2  -8   2 5312.44 590.732   2
   2  -8   2 5071.85 784.668   3
   2  -8   2 6140.16 537.826   6
  -2   8  -3 177.078 168.798   7
  -2   8  -3 78.4859 106.196   1
   2  -8   3-79.1898 111.630   2
   2  -8   3 58.8621 132.666   3
   2  -8   3 286.005 188.265   4
   2  -8   4 12961.7 1125.31   4
  -2   8  -4 13141.8 1352.77   7
   2  -8   4 12730.8 1217.81   3
   2  -8   5 394.969 249.250   4
   2  -8   5 55.3232 105.538   3
   2  -8   6 4711.92 699.112   4
   2  -8   6 3789.24 649.162   3
   2  -8   7 327.964 182.627   3
   2  -8   7-78.7006 106.948   4
   2  -8   8 2497.80 556.731   3
   2  -8   8 2063.17 470.013   4
   2  -8   9 67.0642 127.854   3
   2  -8   9 150.140 106.781   4
  -2   7  13 67.6297 134.075   1
  -2   7  12 217.418 192.840   1
  -2   7  11 205.218 139.282   1
   2  -7 -11-116.794 173.464   3
  -2   7  10 1533.68 432.662   1
   2  -7 -10 2475.79 574.728   3
  -2   7   9 60.8361 99.5510   1
   2  -7  -9 144.617 234.727   3
   2  -7  -8 2319.13 214.683   2
  -2   7   8 2324.01 510.450   1
   2  -7  -8 2380.56 649.873   3
   2  -7  -7 103.943 44.8991   2
  -2   7   7-41.0871 174.663   1
   2  -7  -6 8161.53 324.569   2
  -2   7   6 8730.90 956.751   1
  -2   7   5 2314.30 492.144   1
   2  -7  -5 1962.57 150.205   2
   2  -7  -5 1281.71 540.775   3
   2  -7  -4 15934.8 450.697   2
   2  -7  -4 14090.9 502.404   2
  -2   7   4 15712.4 1212.87   1
   2  -7  -3 214.191 72.8942   2
   2  -7  -3 329.363 75.5559   2
  -2   7   3 62.8888 68.9406   7
  -2   7   3 163.600 100.552   5
  -2   7   3 168.431 138.255   1
   2  -7  -3 391.282 271.582   3
   2  -7  -2 2435.05 643.531   3
   2  -7  -2 2020.74 184.238   2
  -2   7   2 2103.17 420.184   1
  -2   7   2 2359.46 236.420   5
  -2   7   2 2375.58 494.370   7
  -2   7   1 333.137 53.9955   5
   2  -7  -1 522.642 323.212   3
  -2   7   1 258.903 179.359   7
  -2   7   1 160.149 108.299   1
   2  -7  -1 304.984 84.2042   2
   2  -7   0 580.471 282.873   3
   2  -7   0 300.502 99.5681   2
   2  -7   0 516.592 163.182   6
  -2   7   0 315.567 159.535   1
  -2   7   0 269.819 116.861   7
   2  -7   1 469.276 216.098   3
  -2   7  -1 196.801 62.6070   1
  -2   7  -1 148.563 138.665   7
   2  -7   1 140.062 50.7923   6
   2  -7   1 274.286 128.597   2
   2  -7   2 28298.8 1254.18   2
  -2   7  -2 32550.1 1652.93   1
   2  -7   2 28860.3 1746.89   3
   2  -7   2 30339.6 1240.95   6
  -2   7  -2 32286.4 1976.09   7
   2  -7   3 208.264 213.917   3
   2  -7   3 258.756 148.161   4
  -2   7  -3 257.294 156.527   1
  -2   7  -3 657.473 281.251   7
   2  -7   3 268.044 137.079   2
   2  -7   3 323.409 114.918   6
   2  -7   4 4253.58 291.705   5
   2  -7   4 3722.15 515.421   2
  -2   7  -4 4701.63 750.378   7
   2  -7   4 3923.54 571.172   4
  -2   7  -4 4982.52 613.206   1
   2  -7   4 4161.47 380.525   6
   2  -7   4 4016.16 634.153   3
   2  -7   5 109.418 131.826   4
   2  -7   5-65.6349 110.167   3
   2  -7   5-14.9785 23.0947   5
   2  -7   6 6417.64 782.191   4
   2  -7   6 5325.74 727.140   3
   2  -7   6 5645.60 464.063   5
   2  -7   7 69.0110 97.4710   3
   2  -7   7 33.0367 72.1589   4
   2  -7   8 9324.64 1015.07   3
  -2   7  -8 9104.42 1684.80   8
   2  -7   8 10128.0 952.354   4
  -2   7  -9 349.427 307.383   8
   2  -7   9 13.7729 76.8577   4
   2  -7   9 123.407 120.288   3
   2  -7  10 447.519 208.041   4
   2  -7  10 617.577 260.485   3
  -2   6  13-52.5935 76.8608   1
  -2   6  12 807.937 309.000   1
   2  -6 -12 1258.11 442.869   3
  -2   6  11 89.0098 65.5366   1
   2  -6 -11 229.674 282.240   3
   2  -6 -10 3036.08 329.141   2
  -2   6  10 3260.09 609.257   1
   2  -6 -10 4162.13 730.626   3
  -2   6   9 83.4353 135.413   1
   2  -6  -9 53.7671 63.4153   2
   2  -6  -8 9684.38 551.501   2
   2  -6  -8 8894.81 1122.03   3
  -2   6   8 9328.46 999.400   1
   2  -6  -7 3538.65 827.636   3
   2  -6  -7 3540.27 325.079   2
  -2   6   7 3848.76 618.654   1
   2  -6  -6 10181.5 560.791   2
  -2   6   6 9525.85 961.814   1
  -2   6   5 1110.30 331.060   1
   2  -6  -5 754.015 495.568   3
   2  -6  -5 1154.15 181.565   2
  -2   6   4 7868.01 811.031   1
   2  -6  -4 7127.81 432.082   2
   2  -6  -4 5901.39 982.835   3
  -2   6   3 668.331 239.816   1
   2  -6  -3 302.725 68.4693   2
  -2   6   3 826.529 386.223   3
   2  -6  -3 666.132 239.559   1
  -2   6   3 397.744 211.141   7
   2  -6  -2 5738.97 849.738   3
   2  -6  -2 5919.36 650.412   1
   2  -6  -2 5815.39 341.249   2
  -2   6   2 6322.07 697.100   7
  -2   6   2 6203.45 466.000   5
  -2   6   2 7470.60 875.980   3
  -2   6   2 6156.05 668.457   1
  -2   6   1 941.679 278.803   3
   2  -6  -1 1004.94 143.383   2
   2  -6  -1 929.244 250.360   1
  -2   6   1 860.185 271.463   7
   2  -6  -1 1092.95 340.615   3
  -2   6   1 964.515 141.888   5
  -2   6   1 828.669 226.687   1
   2  -6   0 23403.7 845.113   2
  -2   6   0 26898.4 1376.13   1
   2  -6   0 25677.7 1190.69   6
  -2   6   0 26160.3 681.686   5
  -2   6   0 29006.6 1622.83   7
   2  -6   0 23335.8 1554.75   3
   2  -6   0 26409.4 2109.72   8
   2  -6   0 26466.8 1313.61   1
   2  -6   1 1902.14 240.220   2
  -2   6  -1 1982.65 369.008   1
   2  -6   1 1603.73 300.535   1
   2  -6   1 1113.65 271.225   3
   2  -6   1 1500.12 266.862   6
  -2   6  -1 1834.74 419.640   7
   2  -6   2 7475.56 682.577   1
   2  -6   2 7655.70 788.971   3
  -2   6  -2 8438.16 907.538   7
   2  -6   2 7730.95 579.209   6
  -2   6  -2 8591.39 762.913   1
   2  -6   2 7538.80 541.827   2
   2  -6   3 75.6492 100.617   3
  -2   6  -3-0.98748 73.8955   1
  -2   6  -3 97.0550 144.721   7
   2  -6   3 221.857 89.8141   6
   2  -6   3 5.57722 38.5653   2
   2  -6   3 128.397 69.0710   5
   2  -6   4 11814.0 976.016   3
  -2   6  -4 11496.2 892.021   1
   2  -6   4 11047.0 886.977   4
   2  -6   4 11765.5 656.690   6
   2  -6   4 10936.3 804.733   2
   2  -6   4 12122.2 599.715   5
  -2   6  -4 11659.7 1127.77   7
   2  -6   5 16.7394 69.9193   3
   2  -6   5-72.6261 68.9645   6
   2  -6   5-196.193 191.275   4
   2  -6   5-23.8659 66.8632   5
   2  -6   6 1945.71 399.921   3
   2  -6   6 2432.78 251.182   6
   2  -6   6 2921.73 472.982   4
   2  -6   6 2410.16 322.159   5
  -2   6  -6 1737.27 660.773   8
   2  -6   7 235.238 135.138   5
   2  -6   7-234.653 187.036   4
   2  -6   7 89.7777 115.747   3
  -2   6  -7-82.4550 188.169   8
   2  -6   8 886.242 228.305   5
  -2   6  -8 1104.49 534.206   8
   2  -6   8 1174.01 298.279   4
   2  -6   8 705.192 243.944   3
   2  -6   9 40.6177 86.1311   5
   2  -6   9-41.5002 55.0056   4
   2  -6  10 5954.61 689.126   4
  -2   6 -10 7979.77 1536.83   8
   2  -6  10 6444.23 731.951   5
   2  -6  11 117.566 119.156   4
  -2   5  14 1691.62 494.765   1
  -2   5  13-74.1508 72.2374   1
   2  -5 -12 2043.10 555.833   3
  -2   5  12 1546.57 477.636   1
   2  -5 -12 1897.51 318.078   2
  -2   5  11 442.116 257.227   1
   2  -5 -11 562.199 174.922   2
   2  -5 -11 886.538 394.992   3
   2  -5 -10 5913.22 523.597   2
   2  -5 -10 7046.19 888.052   3
  -2   5  10 6214.00 859.008   1
  -2   5   9 46.6956 123.376   1
   2  -5  -9 85.2713 188.048   3
   2  -5  -9 137.638 83.6991   2
  -2   5   8 15098.4 1286.59   1
   2  -5  -8 15824.6 1360.94   3
   2  -5  -8 14606.6 799.219   2
  -2   5   7 7569.55 866.987   1
   2  -5  -7 6582.43 971.517   3
   2  -5  -7 7231.10 552.262   2
   2  -5  -6 2945.67 332.764   2
  -2   5   6 2920.02 520.313   1
   2  -5  -6 2187.19 675.777   3
  -2   5   5 3361.74 514.197   1
   2  -5  -5 3902.10 393.962   4
   2  -5  -5 3757.52 360.168   2
  -2   5   5 3782.35 813.289   3
   2  -5  -5 2227.76 576.533   3
  -2   5   4 33151.8 1619.53   1
   2  -5  -4 33870.1 1221.68   4
   2  -5  -4 30729.9 1071.81   2
  -2   5   4 35818.0 2257.69   3
   2  -5  -4 28852.5 2224.92   3
   2  -5  -3 4912.93 871.351   3
   2  -5  -3 4509.71 355.491   2
  -2   5   3 4293.68 534.251   1
   2  -5  -3 4390.07 391.495   4
  -2   5   2 108569. 3053.15   1
  -2   5   2 113160. 3092.92   7
  -2   5   2 111265. 2706.69   5
   2  -5  -1 6929.23 801.129   3
  -2   5   1 8703.70 746.160   7
  -2   5   1 7888.86 475.446   5
  -2   5   1 8109.09 691.421   1
   2  -5   0 22585.0 1058.05   6
   2  -5   0 21169.1 1335.71   3
  -2   5   0 22775.2 1298.38   7
   2  -5   0 21528.9 782.624   2
  -2   5   0 22390.9 1153.44   1
  -2   5   0 21665.8 722.145   5
  -2   5   0 23385.6 1328.83   3
   2  -5   1 5468.41 386.158   2
   2  -5   1 4894.11 499.836   7
  -2   5  -1 5047.79 523.609   1
   2  -5   1 5456.07 477.495   6
  -2   5  -1 5124.33 613.474   7
   2  -5   1 5144.93 595.209   3
   2  -5   1 5052.64 512.501   1
  -2   5  -1 5193.87 301.012   5
   2  -5   2 66104.6 2308.79   3
   2  -5   2 70173.4 2110.38   1
  -2   5  -2 69591.9 2152.72   1
   2  -5   2 64700.0 1860.65   6
  -2   5  -2 70756.0 2535.88   7
   2  -5   2 63209.5 2089.06   7
   2  -5   2 63307.3 1692.21   2
   2  -5   2 63882.5 1534.60   5
   2  -5   3 18.5806 49.4911   6
   2  -5   3 3.53718 114.086   3
   2  -5   3 6.92073 49.6850   1
   2  -5   3-24.1906 63.4995   2
  -2   5  -3-60.3183 79.3778   1
  -2   5  -3-1.85876 108.117   7
   2  -5   3-64.0587 76.3625   5
   2  -5   3 85.8820 81.3041   7
   2  -5   3 101.015 127.512   8
   2  -5   4 16803.9 1010.01   4
   2  -5   4 16373.4 892.768   2
   2  -5   4 17452.4 774.776   5
   2  -5   4 17773.1 1148.16   7
   2  -5   4 17482.3 810.579   6
   2  -5   4 17101.9 1090.85   3
  -2   5  -4 17584.9 1017.80   1
   2  -5   4 18082.7 1033.87   1
  -2   5  -4 19395.5 1318.39   7
   2  -5   5 117.743 94.2208   5
  -2   5  -5 214.197 209.895   8
   2  -5   5-40.1939 78.1316   2
   2  -5   5-62.8789 97.6951   3
   2  -5   5 156.484 120.606   4
   2  -5   5 186.132 120.226   1
   2  -5   6 8044.10 727.243   4
  -2   5  -6 7672.87 1202.05   8
  -2   5  -6 7204.28 539.686   6
   2  -5   6 6933.19 448.582   6
   2  -5   6 8080.05 599.841   5
   2  -5   7-22.0824 45.4769   5
  -2   5  -7 74.1853 82.8542   6
   2  -5   7 95.4347 64.8813   6
   2  -5   7 34.4880 79.8360   4
  -2   5  -7 79.7544 247.071   8
  -2   5  -8 18938.6 2056.62   8
   2  -5   8 20557.1 1189.75   4
   2  -5   8 20684.5 1179.52   5
  -2   5  -8 20083.6 1020.21   6
   2  -5   9 9.33754 75.2651   5
  -2   5  -9 290.794 275.006   8
  -2   5  -9 25.8870 49.7507   6
   2  -5   9 121.290 128.764   4
   2  -5  10 2835.08 436.474   4
  -2   5 -10 2335.79 734.842   8
   2  -5  10 2950.74 496.873   5
  -2   5 -11 2.19630 214.057   8
   2  -5  11 1.06733 70.8863   4
   2  -5  11 5.85898 81.5611   5
   2  -5  12 242.243 113.435   4
   2  -5  12 698.815 266.775   5
  -2   4  14 1395.69 440.870   1
   2  -4 -14 788.206 253.710   2
   2  -4 -13 222.728 130.791   2
  -2   4  13 623.507 301.502   1
  -2   4  12 1891.57 515.932   1
   2  -4 -12 2904.92 415.043   2
   2  -4 -12 2779.44 648.858   3
   2  -4 -11 55.9684 94.9192   2
   2  -4 -11 127.208 194.294   3
  -2   4  11 155.139 168.832   1
   2  -4 -10 4438.85 481.504   2
  -2   4  10 3529.80 669.312   1
   2  -4 -10 4129.49 710.364   3
  -2   4   9 3059.33 585.112   1
   2  -4  -9 3631.64 608.901   3
   2  -4  -9 2482.87 359.210   2
  -2   4   8 6865.63 863.819   1
   2  -4  -8 6330.60 583.658   2
   2  -4  -8 7382.89 890.407   3
   2  -4  -7 211.015 115.895   2
   2  -4  -7 915.319 445.836   3
  -2   4   7 311.809 348.862   3
  -2   4   7 344.921 240.421   1
  -2   4   6 37813.3 1939.91   1
   2  -4  -6 39023.5 1367.64   4
   2  -4  -6 36305.8 1417.53   2
  -2   4   6 37333.3 2744.85   3
  -2   4   5-44.1432 220.481   3
   2  -4  -5 70.5503 43.6476   4
   2  -4  -5 173.823 126.462   2
  -2   4   5 5.56319 110.583   1
   2  -4  -5 125.054 217.094   3
  -2   4   4 85407.2 2749.55   1
   2  -4  -4 90219.9 2157.41   4
   2  -4  -4 84118.7 2110.19   2
   2  -4  -4 80383.8 3655.49   3
   2  -4  -3 13532.8 677.680   2
  -2   4   3 14995.1 978.726   1
   2  -4  -3 14085.2 685.829   4
   2  -4  -3 12359.7 1233.70   3
   2  -4  -2 107782. 2383.79   4
   2  -4  -2 104808. 3472.68   3
  -2   4   2 111851. 2915.48   1
  -2   4   1 3038.46 378.462   7
  -2   4   1 2977.37 387.446   1
  -2   4   1 3318.38 322.427   5
   2  -4  -1 2357.13 419.592   3
   2  -4   0 16573.8 848.709   6
  -2   4   0 18393.0 1016.19   7
  -2   4   0 17486.4 929.229   1
  -2   4   0 17422.6 679.052   5
   2  -4   0 16981.4 1065.10   3
   2  -4   1 2153.17 359.142   3
   2  -4   1 1633.29 246.766   6
   2  -4   1 1857.92 283.667   7
  -2   4  -1 1893.71 327.499   7
   2  -4   1 1816.51 217.106   2
  -2   4  -1 2038.89 202.467   5
  -2   4  -1 2031.41 298.021   1
  -2   4  -2 75999.6 2448.95   7
   2  -4   2 71646.7 1921.21   6
   2  -4   2 70116.1 1755.86   2
   2  -4   2 73046.5 2045.43   1
   2  -4   2 70645.5 1680.79   5
   2  -4   2 72650.4 2261.08   3
   2  -4   2 71496.7 2111.17   7
  -2   4  -2 70660.5 1583.67   5
  -2   4  -2 73430.8 2085.77   1
   2  -4   3-75.9283 44.8572   1
   2  -4   3 77.7155 61.9542   3
  -2   4  -3-28.5736 93.0023   1
   2  -4   3-52.3900 67.2467   2
   2  -4   3-3.50856 58.8838   7
   2  -4   3 11.7893 40.5633   5
   2  -4   4 106324. 2671.43   4
   2  -4   4 99356.6 2442.14   2
  -2   4  -4 104698. 4085.39   8
  -2   4  -4 99848.0 2383.46   6
   2  -4   4 99463.9 2317.03   5
   2  -4   4 98435.2 2966.21   7
   2  -4   4 100019. 2343.91   6
  -2   4  -4 102792. 2618.59   1
   2  -4   4 101235. 2608.28   1
   2  -4   5-22.0615 54.5988   5
   2  -4   5 232.734 137.478   7
   2  -4   5 15.2993 92.1340   4
  -2   4  -5 55.7328 61.3703   6
   2  -4   5 68.3447 69.2197   2
   2  -4   5 42.8404 48.0964   6
   2  -4   5 9.69771 46.5715   1
  -2   4  -5-68.6449 177.584   8
  -2   4  -6 87294.0 3868.05   8
   2  -4   6 91614.3 2602.92   1
  -2   4  -6 94066.6 2431.41   6
   2  -4   6 88598.8 2101.68   6
   2  -4   6 95271.3 2596.44   4
   2  -4   6 93474.2 2473.73   5
   2  -4   7-87.1185 86.4532   5
   2  -4   7-161.494 143.817   4
  -2   4  -7-171.733 273.983   8
  -2   4  -7 43.1581 65.3070   6
   2  -4   7 59.3620 67.0426   6
   2  -4   7-12.7783 35.1916   1
  -2   4  -8 1077.59 236.949   6
   2  -4   8 1191.01 275.007   1
  -2   4  -8 894.100 386.885   8
   2  -4   8 1079.66 260.925   5
   2  -4   8 954.660 222.652   4
   2  -4   9-39.6445 92.0738   5
  -2   4  -9 91.4802 83.8408   6
  -2   4  -9 49.8604 247.223   8
   2  -4   9 16.4161 68.7838   4
   2  -4  10 6483.77 613.073   4
  -2   4 -10 7651.08 1289.08   8
  -2   4 -10 7003.00 686.093   6
   2  -4  10 6432.05 730.147   5
  -2   4 -11-9.24510 50.7327   6
   2  -4  11-132.193 140.146   5
  -2   4 -11 96.8124 195.586   8
   2  -4  11-64.7888 75.8713   4
   2  -4  12 1792.21 443.924   5
   2  -4  12 1420.56 290.897   4
  -2   4 -12 1416.65 609.801   8
   2  -4  13-51.7142 75.5697   4
   2  -4  13-73.2323 177.270   5
   2  -3 -14 790.349 266.263   2
  -2   3  13-153.780 137.974   4
   2  -3 -13-13.6028 68.7407   2
  -2   3  12 561.433 208.376   4
   2  -3 -12 1261.32 276.035   2
   2  -3 -11 257.024 84.2338   2
  -2   3  11 67.0462 62.4154   4
   2  -3 -11-4.97412 116.992   3
  -2   3  10 18.4240 58.7213   4
   2  -3 -10 230.851 104.459   2
   2  -3 -10 212.141 128.765   3
  -2   3   9 4052.11 507.848   4
  -2   3   9 3575.09 671.982   2
   2  -3  -9 3657.41 617.929   3
   2  -3  -9 4522.35 541.242   2
  -2   3   8 49585.7 1862.14   4
  -2   3   8 51924.3 2618.23   2
   2  -3  -8 48768.2 1868.11   2
   2  -3  -8 51420.1 2238.70   3
  -2   3   7 2879.42 800.337   3
  -2   3   7 3126.42 413.305   4
   2  -3  -7 2663.72 356.891   4
   2  -3  -7 2466.97 388.385   2
   2  -3  -7 2947.00 580.136   3
   2  -3  -6 29265.1 1160.72   4
   2  -3  -6 28159.0 1300.04   2
   2  -3  -6 26379.7 1724.64   3
  -2   3   6 31192.0 1319.06   4
  -2   3   6 28642.7 2351.28   3
   2  -3  -5 543.936 180.752   2
  -2   3   5 714.724 355.701   3
  -2   3   5 504.822 144.168   4
  -2   3   5 451.279 190.455   1
   2  -3  -5 899.375 353.765   3
   2  -3  -4 7141.24 538.450   2
  -2   3   4 7996.22 781.003   1
  -2   3   4 8437.45 977.868   3
   2  -3  -4 6433.67 873.797   3
  -2   3   3 114.408 149.834   1
   2  -3  -3 49.7145 175.939   2
   2  -3  -3 171.649 278.949   3
   2  -3  -2 10404.2 527.338   4
   2  -3  -2 11340.0 959.104   3
  -2   3   2 12093.6 783.781   1
  -2   3   1 1180.61 200.018   7
  -2   3   1 881.280 198.527   1
  -2   3   1 959.403 185.558   5
   2  -3  -1 1304.44 262.873   3
  -2   3   0 119143. 2738.09   7
  -2   3   0 111899. 2387.56   5
   2  -3   0 111986. 2885.68   3
  -2   3   0 118029. 2690.80   1
   2  -3   0 113763. 2631.32   6
  -2   3  -1 840.683 137.125   5
   2  -3   1 905.318 200.873   3
   2  -3   1 750.177 154.626   7
  -2   3  -1 986.715 213.766   7
   2  -3   1 851.262 165.906   6
   2  -3   1 785.592 158.047   1
   2  -3   1 942.991 151.589   5
  -2   3  -1 906.631 181.285   1
   2  -3   2 126712. 2795.45   6
   2  -3   2 126143. 2617.69   2
   2  -3   2 125368. 2995.76   7
  -2   3  -2 134763. 2862.45   1
   2  -3   2 130033. 3071.05   3
   2  -3   2 125070. 2597.63   5
   2  -3   2 130119. 2833.19   1
  -2   3  -2 134720. 3220.76   7
  -2   3  -2 128542. 2538.06   5
   2  -3   3-95.5922 107.173   7
  -2   3  -3-44.2376 75.7793   1
  -2   3  -3 86.3810 53.1426   5
   2  -3   3-54.9649 72.0351   1
  -2   3  -3-58.1808 87.5747   7
   2  -3   3 15.6979 37.4071   2
  -2   3  -3-72.3878 66.9875   6
   2  -3   3-29.9047 70.4216   6
   2  -3   3-123.002 119.397   4
   2  -3   3-30.3012 41.7218   5
  -2   3  -3-197.285 303.913   8
  -2   3  -4 521516. 10780.7   8
   2  -3   4 506983. 9479.84   7
   2  -3   4 543679. 8948.07   4
   2  -3   4 532129. 8792.47   2
  -2   3  -4 525424. 8864.04   1
  -2   3  -4 514160. 8845.42   6
   2  -3   4 505020. 8711.73   6
   2  -3   4 514615. 8881.65   1
   2  -3   4 517828. 8761.27   5
   2  -3   5-122.398 81.9310   6
   2  -3   5-44.8362 99.9783   4
   2  -3   5-51.8656 118.998   7
  -2   3  -5-38.1924 70.5097   6
  -2   3  -5-31.4428 210.711   8
   2  -3   5 50.1202 80.4874   2
   2  -3   5-12.5498 37.3621   1
   2  -3   5-92.2602 114.975   5
   2  -3   6 1965.51 393.502   7
  -2   3  -6 1819.69 484.356   8
   2  -3   6 1847.43 265.125   4
   2  -3   6 1801.17 279.711   1
   2  -3   6 2351.38 335.419   2
   2  -3   6 1644.75 217.975   6
   2  -3   6 1777.60 282.558   5
  -2   3  -6 1979.21 285.241   6
   2  -3   7-5.82165 57.7267   5
  -2   3  -7 25.7306 170.563   8
   2  -3   7-20.0516 38.4759   6
   2  -3   7-88.1787 58.6875   4
   2  -3   7 159.131 113.427   2
   2  -3   7 26.3072 81.6223   1
  -2   3  -7-222.241 158.744   6
   2  -3   8 16103.8 873.968   4
  -2   3  -8 16427.1 1504.16   8
   2  -3   8 15578.1 962.206   1
  -2   3  -8 16623.5 984.129   6
   2  -3   8 16303.2 1039.72   5
  -2   3  -9 221.660 272.225   8
   2  -3   9 242.848 151.245   5
   2  -3   9 45.6221 66.4515   1
   2  -3   9-133.974 106.911   4
  -2   3  -9 182.636 106.245   6
   2  -3  10 14778.6 870.999   4
  -2   3 -10 16553.7 1355.06   2
   2  -3  10 16914.8 1196.54   5
  -2   3 -10 17151.8 1126.74   6
   2  -3  11 183.887 133.419   5
  -2   3 -11 122.976 110.996   6
   2  -3  11 325.762 129.318   4
   2  -3  12 2168.90 468.199   5
   2  -3  12 1924.99 319.968   4
  -2   3 -12 2438.15 470.263   6
   2  -3  13-13.3914 103.201   5
   2  -3  13 52.6657 55.0444   4
   2  -3  14 1044.47 386.883   5
   2  -2 -14 170.093 119.207   2
  -2   2  13 3.52538 80.6140   4
   2  -2 -13 70.2710 132.978   2
  -2   2  12 1382.80 314.708   4
   2  -2 -12 1807.47 362.793   2
  -2   2  11 876.359 252.067   4
   2  -2 -11 586.754 189.241   2
   2  -2 -10 10158.8 828.175   2
  -2   2  10 9727.26 785.309   4
  -2   2   9 1182.01 254.743   4
   2  -2  -9 1494.50 375.077   3
   2  -2  -9 1453.40 323.673   2
  -2   2   9 1711.35 696.553   3
  -2   2   8 809.565 341.550   2
  -2   2   8 749.880 199.550   4
   2  -2  -8 687.958 187.992   2
   2  -2  -8 940.784 238.022   3
  -2   2   8 741.865 441.365   3
   2  -2  -7 282.570 113.625   2
  -2   2   7 181.051 89.5893   4
  -2   2   7 72.6743 108.109   2
  -2   2   7 239.126 276.415   3
   2  -2  -7 268.261 121.426   4
  -2   2   6 5736.38 997.354   3
  -2   2   6 6306.06 528.486   4
   2  -2  -6 6703.52 652.765   2
   2  -2  -6 6632.38 745.578   3
  -2   2   5 181.660 158.270   3
  -2   2   5-2.33807 40.1205   4
   2  -2  -5 279.664 329.144   3
   2  -2  -5-22.2368 94.2328   2
  -2   2   4 8693.08 565.692   4
   2  -2  -4 7364.72 589.103   2
   2  -2  -4 7288.00 939.761   3
  -2   2   4 7931.06 929.997   3
   2  -2  -3 8991.80 594.527   2
  -2   2   3 9018.76 543.035   4
  -2   2   3 9248.47 830.584   3
  -2   2   2 223571. 4055.03   4
   2  -2  -2 212930. 3869.83   4
  -2   2   2 206791. 4634.28   1
   2  -2  -2 209910. 4878.74   3
  -2   2   1 21336.6 982.784   1
  -2   2   1 20662.2 918.881   5
   2  -2  -1 20085.8 1006.79   3
  -2   2   1 22576.6 1017.54   3
   2  -2  -1 20060.5 668.636   4
  -2   2   1 20868.4 767.740   7
  -2   2   0 96073.9 2133.56   7
  -2   2   0 92590.1 2118.53   5
   2  -2   0 91327.9 2287.31   1
   2  -2   0 92861.2 2208.38   6
   2  -2   0 94774.5 2370.69   3
  -2   2   0 101137. 2252.74   1
   2  -2   1 619.628 156.076   3
  -2   2  -1 777.153 153.614   1
   2  -2   1 593.920 235.821   8
   2  -2   1 620.637 137.836   1
  -2   2  -1 789.631 158.459   7
   2  -2   1 731.021 138.540   7
   2  -2   1 729.795 150.031   6
  -2   2  -1 738.881 131.834   5
   2  -2   1 606.544 126.432   5
  -2   2  -2 691.622 129.667   5
   2  -2   2 784.222 226.488   8
   2  -2   2 599.745 124.461   1
  -2   2  -2 890.204 182.861   7
   2  -2   2 577.410 145.064   7
   2  -2   2 816.130 157.793   6
  -2   2  -2 607.251 126.556   1
  -2   2  -2 744.880 149.831   6
   2  -2   2 821.842 148.852   5
   2  -2   3 231.163 88.1586   5
  -2   2  -3 249.310 89.2990   5
   2  -2   3 160.744 69.4501   1
  -2   2  -3 257.386 201.180   8
   2  -2   3 242.871 110.892   7
  -2   2  -3 206.983 79.5957   6
   2  -2   3 231.685 44.6176   2
   2  -2   3 154.912 61.0531   4
   2  -2   3 229.098 77.0507   6
  -2   2  -3 200.819 73.9708   1
   2  -2   4 25726.1 891.158   4
   2  -2   4 22634.3 1119.66   7
  -2   2  -4 25093.8 1441.32   8
  -2   2  -4 24414.4 980.434   6
   2  -2   4 25509.8 938.243   6
   2  -2   4 23783.8 897.561   1
  -2   2  -4 26500.2 914.663   1
   2  -2   4 24607.8 962.319   5
   2  -2   5 47.8286 55.4108   5
   2  -2   5 17.2002 31.7926   4
   2  -2   5-5.69077 33.0319   6
  -2   2  -5-172.041 207.178   8
  -2   2  -5-103.159 113.466   6
   2  -2   5 74.3935 69.0077   1
  -2   2  -6 181915. 3923.24   6
   2  -2   6 182734. 3564.99   4
   2  -2   6 185628. 4466.16   7
   2  -2   6 182706. 3697.29   1
   2  -2   6 182178. 3552.07   6
   2  -2   6 189509. 3959.40   5
   2  -2   7 105.451 96.1924   5
  -2   2  -7-58.8249 54.6422   6
   2  -2   7-6.38324 70.2445   4
   2  -2   7 42.2620 57.0614   7
   2  -2   7 107.348 80.7079   1
   2  -2   7 1.73536 35.8550   6
   2  -2   7 29.7892 91.4814   2
   2  -2   8 24343.2 980.197   4
  -2   2  -8 24071.0 1395.89   2
  -2   2  -8 26157.1 1275.01   6
   2  -2   8 24836.0 1273.84   5
   2  -2   8 24563.4 1103.72   1
  -2   2  -9 20.6781 75.6457   6
   2  -2   9-8.92994 45.9317   5
  -2   2  -9 126.657 132.529   4
  -2   2  -9-170.345 243.026   2
   2  -2   9-0.54353 48.8772   4
   2  -2   9 38.8755 57.7365   1
  -2   2 -10 11603.2 1051.00   2
   2  -2  10 10181.3 648.855   4
  -2   2 -10 11080.9 940.582   4
   2  -2  10 10073.3 773.909   1
  -2   2 -10 12125.8 980.366   6
   2  -2  10 11100.0 949.867   5
   2  -2  11 342.732 169.370   5
  -2   2 -11 97.9844 172.008   2
   2  -2  11 329.821 117.896   4
  -2   2 -11 512.736 206.521   6
   2  -2  12 9769.72 695.257   4
  -2   2 -12 11470.4 1095.70   6
   2  -2  12 9202.33 967.645   5
  -2   2 -13 99.5783 132.774   6
   2  -2  13 54.7986 68.7017   4
   2  -2  13 172.152 184.826   5
   2  -2  14 319.449 201.183   5
   2  -2  14 490.615 170.896   4
  -2   2 -14 816.044 335.823   6
   2  -1 -14 1294.83 396.989   6
  -2   1  13 112.463 72.0971   4
   2  -1 -13 37.3924 79.6487   2
  -2   1  12 6504.17 668.632   4
   2  -1 -12 6983.09 753.344   2
  -2   1  11 708.026 237.415   4
   2  -1 -11 608.533 268.409   2
  -2   1  10 105.164 85.2741   4
   2  -1 -10 498.128 200.157   2
  -2   1   9 36.9870 76.0480   4
   2  -1  -9 300.174 214.546   2
  -2   1   8 12600.8 788.219   4
   2  -1  -8 15017.7 1110.55   3
  -2   1   8 12585.2 1260.88   2
  -2   1   8 11032.6 1572.41   3
   2  -1  -8 13198.6 1011.71   2
  -2   1   7 1236.19 371.179   2
  -2   1   7 1073.12 226.419   4
   2  -1  -7 1224.75 276.286   4
   2  -1  -7 1265.49 319.628   3
   2  -1  -7 999.385 275.902   2
  -2   1   7 502.027 212.437   3
  -2   1   6 71470.2 1935.35   4
   2  -1  -6 69466.8 2416.64   2
   2  -1  -6 83397.7 2466.98   3
  -2   1   6 53657.4 3120.98   3
  -2   1   6 62722.9 2729.89   2
  -2   1   5 1034.47 360.407   3
   2  -1  -5 1099.19 255.654   2
  -2   1   5 1487.68 236.051   4
   2  -1  -5 1703.01 356.455   3
  -2   1   4 24821.7 929.030   4
  -2   1   4 27956.7 1491.48   2
  -2   1   4 25594.9 1562.68   3
   2  -1  -4 23490.8 1176.35   2
   2  -1  -3 56760.1 1797.45   2
  -2   1   3 63428.0 1552.13   4
   2  -1  -3 52361.5 2326.01   3
  -2   1   3 64533.6 2156.17   3
  -2   1   2 49471.4 1258.99   4
   2  -1  -2 45635.7 1196.67   4
   2  -1  -2 45516.1 1488.44   2
   2  -1  -2 47335.7 1741.48   3
  -2   1   2 47910.9 1550.72   3
  -2   1   1 1340.65 203.270   3
  -2   1   1 1263.70 151.071   4
   2  -1  -1 1317.85 145.788   4
   2  -1  -1 1014.77 138.549   3
   2  -1   0 1270.11 120.658   4
   2  -1   0 1179.10 177.739   3
  -2   1   0 1133.21 133.698   7
  -2   1   0 1410.69 232.686   1
  -2   1   0 1195.82 188.946   5
  -2   1  -1 203.257 58.9772   1
   2  -1   1 277.286 73.8475   7
   2  -1   1 222.305 36.3265   4
   2  -1   1 379.092 122.557   8
   2  -1   1 450.005 134.575   1
  -2   1  -1 294.528 88.6663   5
   2  -1   1 304.540 85.9980   5
  -2   1  -1 292.955 89.4967   6
   2  -1   1 283.284 89.3269   6
  -2   1  -1 236.084 65.5833   7
  -2   1  -2 449.601 105.413   5
  -2   1  -2 284.687 150.467   8
  -2   1  -2 563.833 101.813   1
   2  -1   2 306.534 80.0023   1
   2  -1   2 433.961 123.585   8
   2  -1   2 175.996 67.5108   7
  -2   1  -2 406.001 114.836   6
   2  -1   2 422.167 97.4671   5
   2  -1   3 375.877 109.850   5
  -2   1  -3 234.113 61.8874   1
   2  -1   3 325.603 69.5392   4
  -2   1  -3 209.338 68.8093   5
  -2   1  -3 518.000 179.845   8
   2  -1   3 294.789 101.075   7
  -2   1  -3 423.202 123.375   6
   2  -1   3 402.688 109.543   6
   2  -1   3 327.289 76.5559   1
   2  -1   4 38748.3 935.775   4
   2  -1   4 39641.8 1049.70   1
  -2   1  -4 39872.1 1024.51   1
  -2   1  -4 39683.4 1276.15   6
   2  -1   4 40009.9 1277.76   5
   2  -1   4 38378.4 1187.71   6
  -2   1  -5 3.22236 33.5428   4
   2  -1   5 23.4568 29.7396   4
   2  -1   5 72.8766 47.8954   1
   2  -1   5 3.49789 30.9315   6
  -2   1  -5-23.1724 50.0042   6
   2  -1   5-58.9139 72.8696   5
   2  -1   6 89467.0 1927.67   4
   2  -1   6 89654.0 2043.80   1
  -2   1  -6 96732.7 2474.98   6
   2  -1   6 90493.8 2099.02   6
   2  -1   6 92958.8 2440.60   5
   2  -1   7 20.3147 43.9237   5
   2  -1   7 20.1881 36.1685   4
   2  -1   7 96.6265 62.1999   1
  -2   1  -7-92.2714 91.1955   4
  -2   1  -7-33.6203 93.1986   6
   2  -1   8 6311.96 418.245   4
  -2   1  -8 5282.36 608.613   2
   2  -1   8 5636.06 552.770   2
   2  -1   8 5796.22 592.983   5
   2  -1   8 6040.15 480.431   1
  -2   1  -8 6529.22 621.425   6
   2  -1   9 334.926 139.212   1
   2  -1   9 416.652 154.101   5
  -2   1  -9 237.142 139.550   6
   2  -1   9 349.128 108.572   4
  -2   1  -9 455.675 180.406   4
  -2   1  -9-31.9091 183.429   2
  -2   1 -10 22660.1 1377.95   6
   2  -1  10 18224.6 849.900   4
  -2   1 -10 23668.6 1463.35   4
   2  -1  10 17626.5 1211.59   5
   2  -1  10 19445.8 1015.06   1
  -2   1 -10 20980.9 1370.01   2
   2  -1  11 334.089 196.711   5
   2  -1  11 137.647 100.347   1
   2  -1  11 267.072 103.957   4
  -2   1 -11 103.298 89.5356   2
  -2   1 -11 190.750 141.794   6
  -2   1 -11 124.666 137.273   4
   2  -1  12 3731.48 414.507   4
  -2   1 -12 4663.27 721.793   6
   2  -1  12 3882.56 613.482   5
   2  -1  13 305.937 136.627   5
  -2   1 -13 687.308 307.975   6
   2  -1  13 600.354 175.203   4
   2  -1  14 2015.28 499.890   5
   2  -1  14 1744.67 313.728   4
  -2   1 -14 1818.47 507.536   6
  -2   1 -15 195.080 198.518   6
   2   0 -14 800.212 312.687   6
  -2   0  13 290.694 164.219   4
   2   0 -13 370.600 206.972   2
   2   0 -13 589.498 279.120   6
  -2   0  12 1857.05 354.543   4
   2   0 -12 1853.62 397.739   2
  -2   0  11 196.950 149.313   4
   2   0 -11 192.678 169.713   2
  -2   0  10 16388.7 977.624   4
   2   0 -10 17751.6 1198.33   2
  -2   0   9 546.187 149.655   4
   2   0  -9 787.331 248.959   2
  -2   0   8 12627.5 772.149   4
   2   0  -8 12800.7 1049.46   2
  -2   0   7 31.8364 131.175   2
  -2   0   7 64.2144 86.5727   4
   2   0  -7-18.5708 150.292   2
   2   0  -7 1.04778 84.1239   4
  -2   0   7-28.0082 237.318   3
  -2   0   6 19095.5 869.765   4
  -2   0   6 16597.9 1320.79   2
   2   0  -6 19413.8 1240.24   2
   2   0  -6 19080.7 1071.72   3
  -2   0   5 11777.6 625.289   4
  -2   0   5 9325.27 1056.21   3
   2   0  -5 12351.0 786.280   3
   2   0  -5 11432.3 899.595   2
  -2   0   4 92554.7 2128.50   4
   2   0  -4 93828.8 2787.78   2
  -2   0   4 91933.8 3027.33   3
  -2   0   3 315.638 133.389   3
   2   0  -3 154.726 192.592   3
  -2   0   2 321.239 85.4895   4
  -2   0   2 391.182 117.119   3
   2   0  -2 385.021 130.523   2
   2   0  -2 292.582 90.3323   4
   2   0  -2 354.123 195.423   3
  -2   0   1 560.110 92.3836   4
   2   0  -1 395.457 86.3238   3
  -2   0   1 404.812 90.1553   3
   2   0  -1 445.965 93.2996   4
  -2   0   0 288964. 4600.62   4
   2   0   0 278829. 5150.46   5
  -2   0   0 292339. 4992.91   6
   2   0   0 295557. 4879.81   3
   2   0   0 288607. 5040.37   6
  -2   0  -1 1961.10 111.654   4
   2   0   1 1767.75 110.805   4
   2   0   1 1712.76 228.228   8
   2   0   1 1589.62 134.049   7
  -2   0  -1 1731.04 210.162   6
   2   0   1 2039.48 229.462   5
  -2   0  -2 636.668 80.8606   1
  -2   0  -2 587.969 139.645   8
  -2   0  -2 715.667 137.779   6
  -2   0  -2 660.585 130.660   5
   2   0   2 518.973 120.764   5
   2   0   3 275.826 86.5785   6
   2   0   3 324.109 60.9384   1
  -2   0  -3 237.309 76.9554   5
  -2   0  -3 290.257 52.3347   1
  -2   0  -3 364.145 113.033   6
   2   0   3 191.862 74.0027   5
   2   0   4 93063.1 1585.00   4
  -2   0  -4 88565.4 1682.94   4
   2   0   4 89774.4 1657.08   1
  -2   0  -4 93440.3 2208.34   6
   2   0   4 91273.8 2186.65   5
   2   0   5 2273.45 246.693   6
   2   0   5 2075.27 172.580   1
   2   0   5 2386.97 174.444   4
  -2   0  -5 2375.88 213.737   4
   2   0   5 2350.61 297.915   5
  -2   0  -5 2240.65 290.547   6
   2   0   6 51458.1 1173.94   4
  -2   0  -6 50934.7 1371.55   4
   2   0   6 47198.6 1183.17   1
   2   0   6 48844.7 1645.05   5
   2   0   6 49008.5 1368.63   6
  -2   0  -6 50147.4 1657.39   6
   2   0   7 538.488 114.676   1
   2   0   7 771.826 207.498   5
   2   0   7 796.268 130.875   4
  -2   0  -7 886.937 174.093   4
   2   0   7 652.160 178.659   2
  -2   0  -7 550.573 181.101   6
   2   0   8 8263.73 471.159   4
  -2   0  -8 8261.79 617.693   4
   2   0   8 7469.20 601.851   2
   2   0   8 7449.26 488.408   1
  -2   0  -8 8675.99 735.358   6
   2   0   8 8085.93 710.342   5
   2   0   9 1408.49 230.177   1
   2   0   9 1587.49 339.048   5
   2   0   9 1570.71 223.752   4
  -2   0  -9 2002.57 376.317   6
   2   0  10 516.421 161.034   1
   2   0  10 278.200 96.7436   4
   2   0  10 376.509 167.475   5
  -2   0 -10 320.373 138.468   4
  -2   0 -10 520.816 216.174   6
   2   0  11 9.50571 57.7920   5
   2   0  11 42.3399 39.4711   1
   2   0  11 83.4649 71.8023   4
  -2   0 -11-89.0075 176.651   6
  -2   0 -11 89.0563 62.1731   4
  -2   0 -12 12097.0 1205.23   6
   2   0  12 10399.3 704.995   4
   2   0  12 10431.7 1002.09   5
   2   0  13-7.31783 104.437   5
   2   0  13 258.905 113.043   4
  -2   0 -13 69.9997 133.549   6
   2   0  14 1671.07 445.129   5
  -2   0 -14 3116.82 694.071   6
   2   0  14 2252.13 357.618   4
   2   0  15 45.0854 60.9209   4
  -2   0 -15 277.615 262.114   6
   2   1 -13 143.656 141.926   6
  -2  -1  12 5323.69 609.310   4
   2   1 -12 6075.64 758.356   2
   2   1 -12 6123.96 735.810   6
   2   1 -11 3809.65 581.113   2
  -2  -1  11 2726.27 426.494   4
  -2  -1  10 3462.00 438.997   4
   2   1 -10 4205.07 598.148   2
   2   1  -9 2075.45 468.669   2
  -2  -1   9 1975.89 323.095   4
  -2  -1   9 1603.35 558.307   3
  -2  -1   8 6023.81 532.197   4
   2   1  -8 7599.87 811.528   2
  -2  -1   7 78.9574 117.111   2
  -2  -1   7 162.655 104.340   4
   2   1  -7-85.5012 94.4946   4
  -2  -1   7-63.8261 346.056   3
   2   1  -7-147.353 177.745   2
  -2  -1   6 106774. 2515.45   4
  -2  -1   6 97465.1 3497.62   2
  -2  -1   5 593.034 217.026   3
  -2  -1   5 1402.02 222.276   4
   2   1  -5 1285.00 290.161   2
  -2  -1   4 17482.7 767.720   4
  -2  -1   4 16017.4 1068.57   3
   2   1  -4 17553.4 1128.71   2
   2   1  -3 2346.80 418.571   2
  -2  -1   3 3078.53 343.198   3
   2   1  -3 3057.56 259.509   3
  -2  -1   3 2692.95 277.956   4
  -2  -1   2 66469.8 1582.81   4
   2   1  -2 66287.7 1704.13   4
  -2  -1   2 62865.5 1469.53   7
   2   1  -2 70792.2 2066.02   2
  -2  -1   2 70152.6 1418.73   3
   2   1  -1 10650.5 524.426   4
  -2  -1   1 10759.2 387.057   7
   2   1  -1 11537.7 531.134   6
  -2  -1   1 11195.5 500.310   4
   2   1  -1 12783.6 716.623   2
   2   1  -1 11159.6 433.876   3
  -2  -1   0 100567. 1961.75   4
   2   1   0 103111. 2061.02   4
   2   1   0 100907. 2117.08   6
   2   1   0 99408.9 2312.05   5
  -2  -1   0 101231. 2299.11   5
  -2  -1   0 103875. 2113.05   6
  -2  -1  -1 12792.8 424.339   4
   2   1   1 11796.0 428.168   4
  -2  -1  -1 12523.2 567.074   6
   2   1   1 12765.1 614.701   5
   2   1   1 12089.9 545.785   6
  -2  -1  -2 303666. 4823.21   4
  -2  -1  -2 307884. 5336.73   6
   2   1   2 305968. 5393.74   5
  -2  -1  -3 3755.08 159.201   4
  -2  -1  -3 4261.19 348.994   6
   2   1   3 3823.36 340.082   5
  -2  -1  -4 48929.0 1006.87   4
   2   1   4 48000.7 1457.74   5
  -2  -1  -4 48706.3 1442.99   6
   2   1   5-62.1802 81.0850   5
   2   1   5-20.6473 34.5367   2
   2   1   5-23.4659 26.9413   4
  -2  -1  -5-4.84453 26.0084   4
  -2  -1  -5 5.69544 43.1155   6
   2   1   6 26763.1 799.569   4
   2   1   6 25445.5 1135.46   5
  -2  -1  -6 25945.4 864.006   4
  -2  -1  -6 25500.5 1129.95   6
   2   1   7 2009.15 324.986   5
  -2  -1  -7 1851.39 309.140   6
   2   1   7 1765.23 210.792   4
  -2  -1  -7 1478.32 217.805   4
   2   1   7 1541.49 228.411   2
   2   1   8 19358.8 776.225   4
  -2  -1  -8 15193.3 823.128   4
   2   1   8 18215.4 904.125   2
   2   1   8 15913.7 1002.45   3
  -2  -1  -8 20837.1 1174.21   6
   2   1   8 17835.3 1060.20   5
   2   1   9 663.403 151.415   4
  -2  -1  -9 820.428 235.391   6
   2   1   9 170.839 140.780   3
   2   1   9 600.972 182.163   2
   2   1   9 715.287 226.273   5
   2   1  10 14860.9 772.093   4
  -2  -1 -10 11768.2 877.536   4
   2   1  10 13185.8 1016.20   5
   2   1  11 3.77232 83.7892   5
  -2  -1 -11-77.8050 121.424   4
   2   1  11-62.1130 50.8927   4
  -2  -1 -11-45.8311 108.704   6
   2   1  12 4941.51 490.513   4
   2   1  12 5511.71 722.636   5
  -2  -1 -12 6276.93 882.484   6
   2   1  13 94.4265 98.6396   5
  -2  -1 -13-87.8456 158.194   6
   2   1  13-84.3789 90.7788   4
   2   1  14 979.160 333.992   5
   2   1  14 846.796 218.543   4
  -2  -1 -14 1272.87 449.733   6
   2   1  15-36.6230 44.3296   4
  -2  -1 -15-146.338 240.375   6
  -2  -2  12 888.203 268.377   4
   2   2 -12 946.905 316.475   2
   2   2 -12 772.932 261.624   6
  -2  -2  11 507.734 200.515   4
   2   2 -11 948.730 321.409   2
   2   2 -11 685.269 238.287   6
   2   2 -10 7828.60 873.966   2
  -2  -2  10 7585.79 686.195   4
  -2  -2   9 2451.36 372.950   4
   2   2  -9 2592.38 473.646   2
  -2  -2   9 1358.39 440.626   3
  -2  -2   8 9181.55 699.750   4
   2   2  -8 11687.8 1052.76   2
  -2  -2   8 10826.8 1011.91   7
  -2  -2   7 516.535 141.388   4
  -2  -2   7 834.987 257.677   7
   2   2  -7 823.921 268.064   2
  -2  -2   7 461.702 201.412   3
  -2  -2   6 1851.08 434.178   3
  -2  -2   6 2898.87 363.188   4
   2   2  -6 3503.56 504.158   4
  -2  -2   6 2673.46 533.873   2
   2   2  -6 3675.28 578.712   2
  -2  -2   6 3446.07 488.023   7
  -2  -2   5 236.605 132.981   3
  -2  -2   5 430.982 88.1482   4
  -2  -2   4 132251. 2935.04   4
  -2  -2   4 131698. 3072.24   7
  -2  -2   3 36435.5 1288.30   7
  -2  -2   3 38782.2 1294.02   4
  -2  -2   3 38879.1 1095.67   3
   2   2  -3 40355.4 1773.98   2
  -2  -2   2 199840. 3899.18   4
   2   2  -2 199691. 3595.21   6
  -2  -2   2 198914. 3801.38   7
  -2  -2   1 6670.90 371.187   7
  -2  -2   1 6880.32 450.020   4
   2   2  -1 7023.67 481.782   4
   2   2  -1 6754.72 375.176   6
   2   2  -1 6974.80 395.031   7
   2   2  -1 8114.54 630.729   2
  -2  -2   1 6499.30 504.422   5
   2   2   0 49057.8 1313.13   4
   2   2   0 50836.4 1131.63   8
   2   2   0 49326.7 1139.78   7
  -2  -2   0 52236.8 1236.26   6
   2   2   0 47047.9 1170.47   6
  -2  -2   0 49948.4 1411.80   5
  -2  -2  -1 1117.67 154.250   4
  -2  -2  -1 1055.07 152.357   6
   2   2   1 1096.56 146.156   6
   2   2   1 1042.50 176.412   5
  -2  -2  -1 931.935 156.268   5
  -2  -2  -2 1561.12 203.827   5
   2   2   2 1384.86 199.360   5
   2   2   2 1244.33 161.567   6
   2   2   3 8294.09 516.966   5
   2   2   3 8063.53 495.748   3
  -2  -2  -3 8365.51 500.811   6
   2   2   3 7663.40 417.953   6
  -2  -2  -3 7969.94 481.325   5
  -2  -2  -3 7863.00 267.960   1
  -2  -2  -4 20959.0 614.824   4
   2   2   4 20144.5 901.095   3
  -2  -2  -4 21869.1 907.134   6
   2   2   4 22887.4 938.524   5
  -2  -2  -5 7245.23 364.292   4
   2   2   5 6975.59 409.128   2
  -2  -2  -5 8173.72 569.836   6
   2   2   5 8086.62 568.598   5
  -2  -2  -6 211581. 3814.47   4
   2   2   6 207880. 3903.99   2
   2   2   6 216217. 4458.89   5
   2   2   6 206068. 3488.26   1
   2   2   7 20754.1 729.781   1
  -2  -2  -7 23624.5 870.525   4
  -2  -2  -7 24904.9 1210.13   6
   2   2   7 23473.1 1145.84   5
  -2  -2  -8 65840.0 1798.74   4
   2   2   8 64999.0 1710.88   4
   2   2   8 60393.6 1760.44   2
   2   2   8 65934.1 2194.55   5
  -2  -2  -8 66576.8 2286.53   6
   2   2   9 91.3632 113.764   5
   2   2   9 10.1951 52.8615   4
   2   2   9 96.8999 71.4016   2
  -2  -2  -9-43.0284 125.734   6
  -2  -2 -10 5534.60 717.279   6
   2   2  10 5458.07 478.507   4
  -2  -2 -10 5579.92 568.052   4
   2   2  10 4898.59 544.687   2
   2   2  10 4799.41 620.291   5
   2   2  11 397.733 182.490   5
   2   2  11 325.808 123.525   4
  -2  -2 -11 348.779 163.998   4
  -2  -2 -11 292.613 172.100   6
   2   2  12 2809.96 517.403   5
   2   2  12 3042.81 399.273   4
  -2  -2 -12 3099.01 624.634   6
   2   2  13 144.351 113.793   5
   2   2  13-8.12068 44.0840   4
  -2  -2 -13-70.7060 171.612   6
   2   2  14 1485.39 428.681   5
   2   2  14 1212.63 266.454   4
  -2  -2 -14 1362.45 459.795   6
   2   2  15-43.6240 67.7611   4
  -2  -2 -15-136.563 227.798   6
  -2  -3  12 831.053 241.549   4
  -2  -3  11-10.7849 78.5698   4
   2   3 -11 147.124 185.747   2
  -2  -3  10 2209.45 389.135   4
   2   3 -10 2494.00 390.156   6
   2   3 -10 3162.23 572.493   2
   2   3  -9 2692.18 369.873   6
   2   3  -9 2268.58 487.444   2
  -2  -3   9 1982.42 351.588   4
  -2  -3   8 1612.94 311.270   4
   2   3  -8 1633.82 390.755   2
  -2  -3   8 994.936 335.116   3
  -2  -3   7 2313.21 355.568   4
  -2  -3   7 2731.33 482.202   7
  -2  -3   7 2269.17 441.424   3
   2   3  -7 3019.84 548.013   2
  -2  -3   6 30176.6 1341.59   4
  -2  -3   6 29871.8 1561.88   7
   2   3  -6 34251.3 1847.95   2
  -2  -3   5 11194.3 770.870   4
   2   3  -5 12146.0 949.191   4
   2   3  -5 11376.4 1046.57   2
  -2  -3   5 10534.0 828.511   7
  -2  -3   5 10217.6 998.162   2
  -2  -3   5 8761.62 625.594   3
  -2  -3   4 79161.4 2178.02   4
  -2  -3   4 77099.9 2759.59   2
   2   3  -3 6461.88 350.956   6
  -2  -3   3 5607.18 505.234   7
   2   3  -3 7853.98 805.552   2
  -2  -3   3 6440.76 531.753   4
  -2  -3   3 7906.21 770.379   2
   2   3  -2 20403.3 1243.32   2
   2   3  -2 17986.6 590.138   6
  -2  -3   2 18514.7 910.407   4
   2   3  -2 18121.4 860.767   7
  -2  -3   2 18864.7 858.234   7
  -2  -3   2 21089.5 1170.57   2
   2   3  -1 4030.70 249.401   6
  -2  -3   1 5137.75 465.410   4
   2   3  -1 4030.37 393.601   8
   2   3  -1 4516.43 390.705   7
  -2  -3   1 3903.56 327.891   7
   2   3  -1 4950.13 549.591   2
  -2  -3   1 4544.72 408.660   5
   2   3   0 27644.9 902.918   3
   2   3   0 26318.3 1112.65   8
  -2  -3   0 27458.6 1052.96   4
   2   3   0 27196.1 944.712   7
   2   3   0 24947.5 729.444   6
  -2  -3   0 27357.2 982.019   5
   2   3   0 29409.4 1222.05   2
  -2  -3   0 25767.1 800.581   6
  -2  -3  -1 1194.04 175.783   8
  -2  -3  -1 1159.51 155.942   1
  -2  -3  -1 1191.63 159.923   6
   2   3   1 1227.27 139.389   6
   2   3   1 1091.32 263.554   3
  -2  -3  -1 1181.01 179.737   5
   2   3   1 1271.62 192.323   5
  -2  -3  -1 1329.56 205.226   4
   2   3   2 47796.4 1458.67   3
  -2  -3  -2 48763.6 1340.43   5
  -2  -3  -2 49033.4 1315.06   6
   2   3   2 45041.3 1154.45   6
   2   3   2 49861.1 1393.36   5
  -2  -3  -2 48536.9 1189.94   1
   2   3   3 56344.7 1556.69   5
  -2  -3  -3 54043.8 1217.94   1
   2   3   3 51984.3 1297.56   6
  -2  -3  -3 53356.2 1441.60   5
   2   3   3 53027.8 1591.74   3
  -2  -3  -3 56508.8 1508.90   6
  -2  -3  -4 96690.2 1847.40   1
   2   3   4 94789.6 1826.97   1
   2   3   4 105010. 2407.76   5
   2   3   4 95112.3 2433.77   3
  -2  -3  -4 104700. 2371.83   6
  -2  -3  -4 95604.4 2175.23   5
  -2  -3  -5 96.8240 26.1141   4
   2   3   5 321.093 125.614   5
   2   3   5 224.415 58.5226   1
   2   3   5 121.808 35.9469   2
  -2  -3  -5 251.605 116.210   6
   2   3   6 58943.4 1863.71   5
  -2  -3  -6 58746.9 1448.40   4
   2   3   6 57766.4 1417.45   2
   2   3   6 57458.5 1240.75   1
  -2  -3  -6 60465.1 1915.71   6
  -2  -3  -7 2219.33 247.200   4
   2   3   7 2242.01 238.764   2
  -2  -3  -7 2841.52 403.109   6
   2   3   7 2456.61 215.669   1
   2   3   7 2805.54 398.358   5
   2   3   8 15964.8 1020.14   5
   2   3   8 14148.0 986.569   3
  -2  -3  -8 16968.7 1098.37   6
   2   3   8 14937.1 623.629   1
   2   3   9 707.075 237.783   5
   2   3   9 684.597 176.818   2
  -2  -3  -9 731.575 172.736   4
   2   3   9 818.402 160.167   1
  -2  -3  -9 768.269 226.636   6
   2   3  10 6353.42 503.130   1
   2   3  10 5445.32 566.374   2
  -2  -3 -10 5856.78 541.051   4
  -2  -3 -10 5785.29 740.271   6
   2   3  10 6327.42 720.134   5
   2   3  11 30.5617 105.933   5
   2   3  11 19.7803 45.9530   1
  -2  -3 -11-104.258 129.121   4
  -2  -3 -11 130.835 139.793   6
   2   3  12 7574.16 629.851   1
  -2  -3 -12 8206.56 1010.09   6
   2   3  12 6747.66 821.369   5
   2   3  13 122.487 148.091   5
  -2  -3 -13-188.910 210.859   6
  -2  -3 -14 4547.58 875.885   6
   2   3  14 4252.15 705.905   5
  -2  -3 -15-600.715 339.032   6
  -2  -4  11 110.681 113.195   4
   2   4 -11 26.3188 112.859   2
  -2  -4  10 3249.31 497.295   4
   2   4 -10 3778.30 662.123   2
   2   4  -9 1088.56 336.077   2
   2   4  -9 585.754 152.495   6
  -2  -4   9 726.012 226.481   4
  -2  -4   8 7052.85 718.930   4
   2   4  -8 7676.63 507.395   6
  -2  -4   7 1831.02 360.407   4
  -2  -4   7 1892.78 304.861   3
   2   4  -7 2061.84 231.834   6
   2   4  -7 2164.38 478.205   2
  -2  -4   6 1609.98 234.331   3
  -2  -4   6 1495.46 323.469   4
   2   4  -6 1649.65 176.513   6
  -2  -4   6 1262.26 324.331   7
   2   4  -6 1571.84 441.032   2
  -2  -4   5 104.267 161.812   2
  -2  -4   5 554.906 192.195   4
  -2  -4   5 309.363 116.819   7
   2   4  -5 352.144 79.1180   6
  -2  -4   5 539.264 125.280   3
   2   4  -5 496.646 205.629   2
   2   4  -4 6468.80 792.287   2
  -2  -4   4 5603.70 561.295   4
   2   4  -4 4973.25 572.581   4
  -2  -4   4 4787.60 260.105   3
  -2  -4   4 5595.69 718.410   2
  -2  -4   4 5419.04 291.900   3
  -2  -4   4 5517.08 586.606   7
   2   4  -4 5204.72 256.733   6
  -2  -4   3 464.039 207.663   2
  -2  -4   3 92.2877 71.0020   4
   2   4  -3 210.595 41.7283   6
   2   4  -3 262.424 208.867   2
   2   4  -3-18.9381 93.3899   8
   2   4  -2 70883.9 2179.15   7
   2   4  -2 75218.5 2466.36   8
  -2  -4   2 80524.8 2331.02   4
   2   4  -2 70847.7 1299.96   6
   2   4  -2 77205.7 2706.68   2
  -2  -4   2 76770.9 2066.33   7
  -2  -4   2 79931.7 2519.57   2
   2   4  -1 28079.1 1436.96   8
  -2  -4   1 31034.7 760.604   3
  -2  -4   1 33888.0 1415.77   4
   2   4  -1 31037.3 1554.75   2
  -2  -4   1 26772.6 1066.37   7
  -2  -4   1 29001.0 1096.07   5
  -2  -4   1 34437.7 1447.70   2
   2   4  -1 27482.5 659.328   6
   2   4  -1 27727.5 1209.49   7
  -2  -4   0 244020. 4849.19   4
   2   4   0 238401. 4691.33   7
   2   4   0 247393. 5259.54   2
  -2  -4   0 237100. 4449.90   5
  -2  -4   0 257377. 4230.99   3
  -2  -4   0 243046. 4134.52   6
   2   4   0 229158. 4241.60   3
  -2  -4   0 233980. 4526.54   1
   2   4   0 222873. 3926.13   6
   2   4   1 18195.7 825.971   7
  -2  -4  -1 19406.9 956.478   8
  -2  -4  -1 20628.8 831.075   3
  -2  -4  -1 18932.4 713.316   6
  -2  -4  -1 18728.6 793.800   1
   2   4   1 18295.0 1118.23   3
   2   4   1 18602.3 820.514   5
   2   4   1 20985.9 1022.70   2
  -2  -4  -1 18698.4 758.312   5
  -2  -4  -2 10615.5 654.787   3
  -2  -4  -2 10193.6 534.585   5
  -2  -4  -2 10257.5 542.964   6
  -2  -4  -2 10020.5 536.835   1
   2   4   2 10398.5 583.961   5
  -2  -4  -3 3328.39 285.440   1
  -2  -4  -3 3576.44 335.150   6
  -2  -4  -3 2550.92 342.720   3
   2   4   3 2493.88 544.404   3
   2   4   3 3873.52 355.595   5
  -2  -4  -3 3464.62 303.523   5
   2   4   4 16156.3 651.190   1
  -2  -4  -4 17626.9 668.753   1
  -2  -4  -4 17743.1 1073.12   3
  -2  -4  -4 17742.9 832.051   6
   2   4   4 18038.4 857.911   5
  -2  -4  -4 16237.8 700.485   5
   2   4   5 455.530 143.399   5
   2   4   5 428.330 96.3046   1
   2   4   5 315.573 71.9036   2
  -2  -4  -5 534.788 117.293   1
  -2  -4  -5 439.901 137.799   6
   2   4   6 7409.60 817.122   3
   2   4   6 6129.67 354.667   2
   2   4   6 5873.04 372.073   1
  -2  -4  -6 6423.58 573.196   6
   2   4   6 6232.80 559.460   5
   2   4   7 1647.77 308.501   5
   2   4   7 1347.18 175.270   2
   2   4   7 1248.29 177.785   1
  -2  -4  -7 1295.10 270.807   6
   2   4   7 1862.56 442.829   3
   2   4   8 15886.0 1257.69   3
  -2  -4  -8 17560.3 802.711   4
  -2  -4  -8 17928.2 1147.01   6
   2   4   8 17178.6 726.415   1
   2   4   8 17665.7 1103.31   5
  -2  -4  -9 3879.19 387.496   4
   2   4   9 3645.72 389.124   2
   2   4   9 3706.44 343.087   1
  -2  -4  -9 3582.27 553.026   6
   2   4   9 4012.11 542.018   5
  -2  -4 -10 14160.3 808.562   4
   2   4  10 11648.2 826.903   2
  -2  -4 -10 13586.7 1143.93   6
   2   4  10 13237.8 705.930   1
   2   4  10 14133.7 1092.37   5
   2   4  11 638.471 233.983   5
  -2  -4 -11 830.008 291.548   6
   2   4  11 874.592 190.422   1
   2   4  11 733.935 231.953   2
  -2  -4 -12 7146.02 947.965   6
   2   4  12 6634.83 817.887   5
   2   4  12 7495.55 580.816   1
   2   4  13-37.1769 136.670   5
  -2  -4 -13-143.171 172.900   6
   2   4  14 1541.37 439.515   5
  -2  -4 -14 1760.00 529.653   6
  -2  -5  10 1724.71 381.939   4
   2   5 -10 1892.42 480.615   2
  -2  -5   9-23.0345 111.377   4
   2   5  -9 106.386 194.886   2
  -2  -5   8 2994.08 492.406   4
   2   5  -8 3229.73 581.350   2
  -2  -5   7 35.3695 47.3296   3
  -2  -5   7 450.939 187.834   4
   2   5  -7 530.073 283.579   2
  -2  -5   6 7667.63 774.396   4
  -2  -5   6 6889.21 424.035   3
   2   5  -6 9277.32 952.530   2
   2   5  -6 8025.65 996.034   8
  -2  -5   6 7853.87 480.692   3
   2   5  -5 601.494 271.937   2
  -2  -5   5 193.487 90.0115   3
  -2  -5   5 158.349 68.3928   3
   2   5  -5 186.977 162.554   8
  -2  -5   5 216.648 142.095   7
  -2  -5   5 145.114 77.0746   4
   2   5  -4 8299.89 901.900   2
  -2  -5   4 8051.16 752.019   4
   2   5  -4 7911.45 921.232   8
  -2  -5   4 7940.51 731.091   7
  -2  -5   4 8610.32 903.399   2
  -2  -5   4 8078.02 463.877   3
   2   5  -3 5794.29 623.784   7
  -2  -5   3 5354.09 603.795   4
  -2  -5   3 4604.89 388.536   3
  -2  -5   3 5576.16 563.658   1
   2   5  -3 6172.30 796.689   8
   2   5  -3 5469.88 731.850   2
  -2  -5   3 5848.56 573.346   7
  -2  -5   3 5360.76 670.174   2
  -2  -5   2 65549.0 2028.79   7
  -2  -5   2 81295.2 2633.47   4
   2   5  -2 62529.6 2686.85   8
  -2  -5   2 69420.9 2408.50   2
   2   5  -2 65492.3 2570.78   2
  -2  -5   2 50010.2 1735.74   3
  -2  -5   2 64797.0 1900.98   5
  -2  -5   2 67677.2 2075.72   1
   2   5  -2 64737.9 2236.30   7
  -2  -5   1 1549.28 298.831   2
  -2  -5   1 1672.08 271.914   1
  -2  -5   1 1392.29 299.026   4
   2   5  -1 1552.15 291.397   7
  -2  -5   1 1406.46 259.614   3
  -2  -5   1 1516.10 224.622   5
   2   5  -1 1474.06 326.276   2
   2   5   0 17196.3 731.581   3
   2   5   0 17689.5 1128.72   2
  -2  -5   0 17337.9 601.888   6
  -2  -5   0 16887.1 994.009   4
  -2  -5   0 17635.0 892.826   1
   2   5   0 16559.9 978.684   7
  -2  -5   0 18067.2 837.467   3
  -2  -5   0 16888.5 738.636   5
   2   5   1 2855.10 422.245   2
   2   5   1 3045.63 363.474   7
  -2  -5  -1 3030.18 283.375   5
  -2  -5  -1 3227.23 445.690   8
  -2  -5  -1 3234.07 280.871   6
   2   5   1 3153.17 394.844   3
  -2  -5  -1 3797.59 396.375   3
  -2  -5  -2 101302. 3179.16   8
  -2  -5  -2 109541. 2351.21   6
  -2  -5  -2 104465. 2478.01   1
   2   5   2 110615. 2769.52   2
   2   5   2 100942. 3566.15   3
   2   5   2 105277. 2418.90   5
  -2  -5  -2 103625. 2262.69   5
  -2  -5  -2 117270. 2799.73   3
  -2  -5  -3 5118.76 414.397   1
  -2  -5  -3 5323.25 424.296   6
   2   5   3 5666.10 475.680   2
  -2  -5  -3 6196.59 611.690   3
   2   5   3 5214.95 429.216   5
  -2  -5  -3 4716.48 348.666   5
   2   5   3 4009.20 818.760   3
   2   5   4 1932.46 250.204   1
  -2  -5  -4 1880.38 242.376   1
  -2  -5  -4 2177.81 292.798   6
  -2  -5  -4 1658.47 322.349   3
   2   5   4 2019.44 278.764   5
  -2  -5  -5 54.7063 40.5404   1
   2   5   5 112.208 102.949   5
   2   5   5 86.4926 54.5053   1
   2   5   5 41.9495 20.6769   2
  -2  -5  -5-61.3702 199.063   3
   2   5   5 192.276 241.578   3
  -2  -5  -5 21.2772 48.2827   6
  -2  -5  -6 26099.4 1054.38   1
   2   5   6 28484.9 1029.31   1
   2   5   6 29043.4 808.887   2
  -2  -5  -6 29750.2 1352.37   6
   2   5   6 28749.5 1289.69   5
   2   5   7 1671.98 310.519   5
  -2  -5  -7 1591.98 234.924   4
   2   5   7 1643.14 184.263   2
   2   5   7 1778.13 240.096   1
  -2  -5  -7 1931.88 349.937   6
   2   5   7 1703.37 574.469   3
  -2  -5  -8 36745.5 1249.07   4
   2   5   8 34808.5 1181.62   1
  -2  -5  -8 37309.7 1719.09   6
   2   5   8 35180.0 1614.43   5
  -2  -5  -9 6178.89 500.702   4
   2   5   9 6287.17 485.285   1
  -2  -5  -9 6705.41 743.754   6
   2   5   9 7206.22 751.303   5
   2   5  10 2691.99 334.891   1
   2   5  10 2479.60 376.691   2
  -2  -5 -10 2529.35 496.802   6
   2   5  10 3166.09 510.283   5
   2   5  11 24.3094 71.9777   5
   2   5  11 54.5919 56.0037   1
  -2  -5 -11-68.1608 163.154   6
   2   5  11 170.270 118.319   2
   2   5  12 1424.90 390.887   5
   2   5  12 1286.20 248.238   1
  -2  -5 -12 1550.19 427.010   6
   2   5  13 47.3065 89.8032   5
  -2  -5 -13 18.4240 138.502   6
   2   5  14 1711.02 452.948   5
  -2  -5 -14 2453.90 594.656   6
   2   6 -10 996.501 517.323   8
  -2  -6   9 129.554 177.025   4
   2   6  -9-139.230 286.981   8
   2   6  -9 211.291 201.638   2
  -2  -6   8 2856.15 522.185   4
   2   6  -8 3626.16 625.912   2
   2   6  -8 3908.20 858.076   8
  -2  -6   7 979.544 301.971   4
   2   6  -7 1032.39 438.047   8
   2   6  -7 1370.58 399.979   2
  -2  -6   6 5827.65 710.431   4
   2   6  -6 5957.69 977.254   8
   2   6  -6 6705.29 820.469   2
  -2  -6   6 5389.16 436.490   3
   2   6  -5 162.067 202.702   8
  -2  -6   5 180.560 84.7327   3
   2   6  -5 165.568 149.190   2
  -2  -6   5 110.338 112.869   4
  -2  -6   4 11959.4 753.592   3
  -2  -6   4 11908.7 1002.67   4
   2   6  -4 11186.2 1295.31   8
   2   6  -4 12811.1 1108.12   2
  -2  -6   3-17.6826 84.5871   7
  -2  -6   3-142.666 143.229   2
   2   6  -3 222.161 222.447   8
   2   6  -3 252.656 191.841   2
  -2  -6   3 122.873 104.246   5
  -2  -6   3-179.738 193.603   3
  -2  -6   3-71.6017 95.4617   4
   2   6  -3 46.5486 140.301   7
  -2  -6   2 133.422 103.663   4
  -2  -6   2-49.2718 48.8688   5
  -2  -6   2-24.0548 91.2878   2
  -2  -6   2 268.552 144.179   1
   2   6  -2 51.5193 110.698   7
  -2  -6   2 109.477 102.446   7
   2   6  -2-172.952 179.848   2
  -2  -6   2-208.838 168.428   3
  -2  -6   1 1179.13 300.693   3
  -2  -6   1 1140.16 251.850   1
   2   6  -1 1170.79 286.700   7
  -2  -6   1 1078.26 279.486   4
   2   6  -1 1185.28 301.303   2
  -2  -6   1 1157.66 189.909   5
  -2  -6   0 70089.7 2396.90   4
   2   6   0 69890.8 2423.67   2
  -2  -6   0 69282.1 1484.35   6
  -2  -6   0 63875.0 2147.77   3
  -2  -6   0 70091.2 1701.08   5
  -2  -6   0 69661.2 2128.74   1
   2   6   0 69588.8 1854.27   3
   2   6   0 69279.1 2400.70   7
  -2  -6  -1-29.6798 58.4696   5
  -2  -6  -1 37.0887 35.3888   6
   2   6   1 89.3225 84.3454   3
   2   6   1-168.473 145.379   7
  -2  -6  -1-45.8577 53.6705   1
  -2  -6  -1 9.27194 101.474   8
   2   6   1 4.69190 76.3503   2
  -2  -6  -2 19372.7 1368.36   8
   2   6   2 18976.7 1074.01   7
  -2  -6  -2 20445.0 988.284   1
  -2  -6  -2 24214.3 1175.01   3
  -2  -6  -2 20584.0 831.535   6
   2   6   2 20354.5 1361.54   3
   2   6   2 20432.3 882.943   5
   2   6   2 19472.1 1056.26   2
  -2  -6  -2 19596.4 735.063   5
   2   6   3 148.833 65.1910   2
  -2  -6  -3 381.367 204.780   3
   2   6   3 193.046 71.2699   5
  -2  -6  -3 253.326 84.1523   6
   2   6   4 27937.5 1068.32   2
   2   6   4 25409.0 1104.96   1
  -2  -6  -4 26569.7 1133.86   6
   2   6   4 24542.4 2168.01   3
   2   6   4 27412.8 1126.78   5
   2   6   5 22.6124 55.7020   5
   2   6   5 28.7025 38.1461   1
   2   6   5 6.27012 21.2162   2
  -2  -6  -5 99.1903 83.1871   6
  -2  -6  -5-87.7050 195.235   3
   2   6   5 71.5727 305.684   3
   2   6   6 64911.9 1322.60   2
  -2  -6  -6 66218.6 2183.25   6
   2   6   6 62192.6 1861.48   1
   2   6   6 60865.6 2049.12   5
   2   6   7 1105.16 280.961   5
   2   6   7 1196.94 224.343   1
  -2  -6  -7 497.750 158.644   3
   2   6   7 887.152 126.485   2
  -2  -6  -7 1274.03 227.791   4
  -2  -6  -7 1340.76 287.637   6
   2   6   7 871.836 421.593   3
  -2  -6  -8 6197.17 850.683   3
  -2  -6  -8 4755.02 450.244   4
   2   6   8 5103.09 379.110   2
   2   6   8 4857.21 460.383   1
   2   6   8 6306.91 672.425   5
  -2  -6  -8 5537.24 651.211   6
   2   6   9 1538.70 351.522   5
   2   6   9 1546.69 269.109   1
  -2  -6  -9 1662.77 381.754   6
   2   6   9 1536.49 260.792   2
  -2  -6 -10 3564.69 582.925   6
   2   6  10 2582.67 350.961   1
   2   6  10 2656.56 486.956   5
   2   6  11 943.627 313.642   5
  -2  -6 -11 1263.43 375.240   6
   2   6  11 674.974 193.413   1
  -2  -6 -12 3762.34 678.589   6
   2   6  12 2870.34 556.068   5
   2   6  13 34.6795 83.5290   5
  -2  -6 -13 45.6201 64.6214   6
   2   6  14 1756.08 478.063   5
   2   7  -9 494.738 377.804   8
   2   7  -9 546.574 278.721   2
   2   7  -8 679.167 422.028   8
  -2  -7   8 1397.16 373.570   4
   2   7  -8 1379.01 403.604   2
  -2  -7   7 1808.37 436.514   4
   2   7  -7 1450.97 551.263   8
   2   7  -7 2478.42 503.918   2
  -2  -7   6 4077.59 626.528   4
   2   7  -6 3570.20 607.796   2
   2   7  -6 4190.50 951.634   8
   2   7  -5 847.267 418.254   8
  -2  -7   5 617.883 232.701   4
   2   7  -5 645.577 257.387   2
  -2  -7   4 4764.05 660.282   4
   2   7  -4 5016.90 667.479   2
   2   7  -4 4238.50 899.002   8
  -2  -7   4 3702.58 496.749   3
  -2  -7   4 3948.08 463.711   5
  -2  -7   3 398.460 206.936   2
   2   7  -3 502.365 201.396   2
   2   7  -3 270.575 134.193   7
  -2  -7   3 375.317 186.446   4
  -2  -7   3-178.558 220.730   3
  -2  -7   3 383.410 130.756   5
   2   7  -2 7861.94 856.004   7
   2   7  -2 8018.28 764.705   2
  -2  -7   2 8992.78 955.877   4
  -2  -7   2 8349.04 810.059   2
  -2  -7   2 7609.12 515.309   5
   2   7  -1 1105.66 309.957   7
  -2  -7   1 1100.35 289.831   4
   2   7  -1 1045.29 262.412   2
  -2  -7   1 740.457 292.556   3
  -2  -7   1 885.152 155.130   5
  -2  -7   0 7908.94 794.498   4
   2   7   0 7890.38 710.741   2
  -2  -7   0 6914.78 734.597   3
  -2  -7   0 7452.03 352.635   6
   2   7   0 7231.37 792.566   7
  -2  -7   0 7849.68 430.261   5
   2   7   0 6683.91 554.197   3
  -2  -7  -1 402.357 86.5134   5
  -2  -7  -1 483.361 111.046   6
   2   7   1 687.618 224.788   7
  -2  -7  -1 685.638 254.004   8
  -2  -7  -1 691.190 195.624   1
   2   7   1 361.286 158.306   3
   2   7   1 587.212 181.021   2
  -2  -7  -1 726.058 283.020   3
  -2  -7  -2 16898.9 1372.10   8
   2   7   2 18690.5 965.368   2
   2   7   2 17781.7 1135.67   7
  -2  -7  -2 18540.3 817.012   6
  -2  -7  -2 17625.4 1000.63   1
  -2  -7  -2 18660.3 1139.83   3
   2   7   3 1421.05 428.635   3
  -2  -7  -3 1375.89 260.942   1
   2   7   3 1256.41 303.046   7
  -2  -7  -3 1467.57 239.043   6
  -2  -7  -3 1413.68 417.461   8
  -2  -7  -3 2560.72 446.340   3
   2   7   3 1113.96 199.080   2
   2   7   3 1534.65 231.021   5
   2   7   4 32016.7 1224.80   5
   2   7   4 30863.2 1346.01   1
   2   7   4 31352.7 985.693   2
  -2  -7  -4 36373.3 1698.64   3
  -2  -7  -4 32882.2 1311.70   6
  -2  -7  -4 31961.9 1328.28   1
   2   7   4 32836.3 2440.08   3
   2   7   5 3977.53 986.027   3
   2   7   5 4105.00 163.195   2
   2   7   5 4350.75 477.649   1
   2   7   5 4136.79 264.174   2
  -2  -7  -5 6305.56 740.669   3
  -2  -7  -5 4155.25 480.018   6
   2   7   5 4531.88 464.854   5
  -2  -7  -5 4471.95 466.890   1
   2   7   6 381.215 168.218   5
   2   7   6 359.317 84.2396   2
   2   7   6 427.236 169.550   1
  -2  -7  -6 386.821 172.245   6
   2   7   6 271.143 47.5085   2
  -2  -7  -6 255.869 170.057   3
  -2  -7  -6 279.971 130.073   1
   2   7   6 466.557 440.683   3
  -2  -7  -7 5383.81 560.558   1
   2   7   7 5113.90 299.626   2
   2   7   7 5696.83 546.886   1
  -2  -7  -7 6030.49 825.420   3
  -2  -7  -7 5688.58 639.346   6
   2   7   7 6031.61 614.393   5
   2   7   8 17778.8 736.065   2
   2   7   8 20232.5 1061.37   1
  -2  -7  -8 19334.8 1261.87   6
   2   7   8 20536.6 1256.63   5
   2   7   9-17.9295 140.139   5
   2   7   9 9.69899 50.6252   1
  -2  -7  -9 147.112 155.675   6
   2   7   9 78.5744 84.8860   2
   2   7  10 6217.76 586.065   1
  -2  -7 -10 7143.68 844.059   6
   2   7  10 6711.92 804.329   5
   2   7  11 225.529 160.427   5
   2   7  11 131.762 102.235   1
  -2  -7 -11 298.394 199.381   6
   2   7  12 2759.77 568.254   5
  -2  -7 -12 2897.93 592.470   6
  -2  -7 -13 145.961 151.765   6
   2   7  13-111.504 97.4697   5
   2   7  14 1493.58 452.895   5
   2   8  -8 59.3220 128.577   8
   2   8  -8 61.7453 114.227   2
   2   8  -7 463.504 427.574   8
   2   8  -7 556.300 258.497   2
  -2  -8   7 476.738 224.338   4
   2   8  -6 1763.48 419.474   2
   2   8  -6 1299.47 562.748   8
  -2  -8   6 1580.93 426.172   4
   2   8  -5 1280.60 562.167   8
  -2  -8   5 1141.15 366.734   4
   2   8  -5 998.954 329.023   2
  -2  -8   4 5907.85 803.990   4
   2   8  -4 5702.64 686.310   2
   2   8  -4 5594.04 810.154   7
  -2  -8   3 600.309 255.207   4
   2   8  -3 403.071 241.866   7
   2   8  -3 705.516 222.642   2
  -2  -8   3 236.147 140.713   3
  -2  -8   2 7032.99 909.032   4
   2   8  -2 5429.37 790.305   7
   2   8  -2 6549.07 652.265   2
  -2  -8   2 6467.97 727.063   2
  -2  -8   2 4998.88 708.733   3
   2   8  -1 5876.64 794.497   7
  -2  -8   1 4960.61 715.540   4
   2   8  -1 5364.08 545.625   2
  -2  -8   1 5145.93 712.954   3
  -2  -8   1 5425.75 326.045   5
  -2  -8   0 2926.76 532.944   4
   2   8   0 2751.34 360.250   2
  -2  -8   0 2601.33 534.263   3
  -2  -8   0 2482.15 160.984   6
  -2  -8   0 2560.06 191.765   5
   2   8   0 2167.52 461.958   7
   2   8   1 5080.25 439.139   2
  -2  -8  -1 5612.87 674.425   3
  -2  -8  -1 4802.79 713.747   8
   2   8   1 4306.98 635.968   7
  -2  -8  -1 5567.48 391.780   6
   2   8   2 22509.9 831.692   2
  -2  -8  -2 23067.2 1719.47   8
   2   8   2 22146.1 1429.27   7
  -2  -8  -2 24632.7 1408.07   3
  -2  -8  -2 23991.4 973.049   6
   2   8   2 22456.4 1403.30   3
   2   8   3 497.100 252.360   3
  -2  -8  -3 836.365 318.512   3
   2   8   3 259.974 67.5133   2
   2   8   3 483.590 227.058   7
  -2  -8  -3 266.409 157.613   8
   2   8   3 311.363 119.271   5
  -2  -8  -3 306.358 125.975   6
   2   8   4 1364.31 451.889   3
   2   8   4 1640.15 396.188   7
   2   8   4 1292.02 285.938   1
  -2  -8  -4 1339.13 394.144   3
  -2  -8  -4 1303.28 279.737   1
   2   8   4 1710.57 257.350   5
  -2  -8  -4 1199.58 238.507   6
   2   8   5 431.127 376.281   3
   2   8   5 72.1109 88.1160   1
  -2  -8  -5 141.863 106.091   1
  -2  -8  -5 17.0156 89.1661   6
  -2  -8  -5 126.162 212.523   3
   2   8   5 157.692 95.0708   5
   2   8   6 9166.20 763.335   1
  -2  -8  -6 9819.16 819.739   6
   2   8   6 9712.23 749.438   5
  -2  -8  -6 9251.89 755.912   1
   2   8   7 2384.59 386.844   1
  -2  -8  -7 1987.62 365.708   1
  -2  -8  -7 2040.44 378.468   6
  -2  -8  -7 2583.61 541.151   3
   2   8   7 2358.54 389.385   5
   2   8   8 8678.37 750.060   1
  -2  -8  -8 8444.86 1058.68   3
  -2  -8  -8 8385.83 842.189   6
   2   8   8 8198.59 782.096   5
   2   8   9 119.060 94.7154   5
   2   8   9 187.648 132.355   1
  -2  -8  -9-109.616 277.217   3
  -2  -8  -9-51.9646 87.0523   6
  -2  -8 -10 3400.76 587.632   6
   2   8  10 2651.39 413.015   1
   2   8  10 2789.07 509.075   5
   2   8  11-102.286 140.530   5
  -2  -8 -11 161.107 125.222   6
  -2  -8 -12 2024.42 507.303   6
   2   8  12 1216.36 371.094   5
   2   8  13-214.528 172.274   5
   2   9  -7 332.224 252.658   2
   2   9  -6 461.920 177.412   2
  -2  -9   5 544.920 272.294   4
   2   9  -5 714.711 284.312   2
   2   9  -4 2605.43 453.667   2
  -2  -9   4 3042.37 604.159   4
   2   9  -3 23.3761 73.0571   7
   2   9  -3 208.967 130.164   2
   2   9  -2 2853.81 401.805   2
  -2  -9   2 3646.58 679.988   4
   2   9  -2 2510.31 562.871   7
  -2  -9   1 1988.94 479.455   3
   2   9  -1 2821.72 366.983   2
   2   9  -1 2415.25 543.093   7
  -2  -9   1 2818.27 560.452   4
  -2  -9   0 8396.48 969.136   4
   2   9   0 8738.90 586.317   2
   2   9   0 9067.14 1043.37   7
  -2  -9   0 7606.17 852.452   3
  -2  -9  -1 4.76748 128.877   4
   2   9   1 399.347 174.328   3
   2   9   1 194.171 148.906   7
   2   9   1 335.671 105.016   2
  -2  -9  -1 200.227 71.1715   6
  -2  -9  -1 462.172 301.316   3
   2   9   2 1518.07 419.382   7
   2   9   2 1564.86 355.533   3
   2   9   2 1390.12 162.620   2
  -2  -9  -2 1350.01 222.465   6
  -2  -9  -2 1831.23 423.391   3
   2   9   3 1328.17 111.652   2
   2   9   3 1513.74 395.677   7
  -2  -9  -3 1939.24 470.273   3
  -2  -9  -3 1521.39 262.765   6
   2   9   4 9608.53 999.000   7
  -2  -9  -4 11812.7 1029.34   3
  -2  -9  -4 10188.1 748.203   6
   2   9   4 10308.8 645.856   5
   2   9   5 1564.92 342.558   1
   2   9   5 1345.66 383.981   7
  -2  -9  -5 1248.56 287.330   6
  -2  -9  -5 1232.58 374.746   3
   2   9   5 1291.48 243.999   5
   2   9   6 1123.56 284.454   1
   2   9   6 1278.32 262.793   5
  -2  -9  -6 1082.80 274.863   6
   2   9   7 1039.13 285.990   1
  -2  -9  -7 1145.13 301.529   6
  -2  -9  -7 966.432 340.321   3
   2   9   7 829.917 220.105   5
   2   9   8 2102.28 392.697   1
  -2  -9  -8 2315.63 456.510   6
  -2  -9  -8 1589.42 495.011   3
   2   9   8 2541.74 438.605   5
  -2  -9  -9-191.271 239.924   3
   2   9   9 72.8315 92.3438   1
   2   9   9-124.483 121.264   5
  -2  -9  -9 39.7746 80.1215   6
   2   9  10 1294.73 348.559   5
   2   9  10 1430.37 334.551   1
  -2  -9 -10 1690.80 521.066   3
  -2  -9 -10 1477.78 394.602   6
   2   9  11 264.274 159.184   5
  -2  -9 -11 223.459 160.341   6
   2   9  12 323.042 207.645   5
   2   9  13-42.9934 112.523   5
   2  10  -6 271.378 192.854   2
   2  10  -5 222.988 135.374   2
   2  10  -4 831.713 280.485   2
   2  10  -3-111.628 157.240   7
  -2 -10   3 263.400 210.724   4
   2  10  -3-10.0509 73.4825   2
   2  10  -2 3127.96 423.383   2
  -2 -10   2 3904.89 779.916   4
   2  10  -2 2990.53 655.997   7
   2  10  -1-29.6678 154.353   7
  -2 -10   1 192.768 180.119   4
   2  10  -1 140.920 90.9746   2
   2  10   0 1494.87 471.359   7
  -2 -10   0 1339.47 409.945   4
  -2 -10   0 1292.96 377.589   3
  -2 -10  -1 4636.29 758.063   4
  -2 -10  -1 4171.10 625.356   3
   2  10   1 3751.49 722.096   7
   2  10   2 9771.53 1150.99   7
  -2 -10  -2 9935.00 965.207   3
   2  10   3 546.791 265.942   7
  -2 -10  -3 756.680 187.493   6
  -2 -10  -3 900.208 328.243   3
   2  10   4 4622.76 752.998   7
  -2 -10  -4 5267.04 742.772   3
  -2 -10  -4 4691.73 521.168   6
  -2 -10  -5 186.367 103.388   6
  -2 -10  -5 454.753 218.449   3
   2  10   6 1180.98 318.838   1
   2  10   6 743.336 326.939   7
  -2 -10  -6 1247.08 309.474   6
  -2 -10  -6 1934.52 462.829   3
   2  10   7-78.6732 121.429   1
  -2 -10  -7-101.137 142.694   6
  -2 -10  -7-171.713 204.943   3
   2  10   8 2121.04 441.677   1
  -2 -10  -8 2407.09 477.661   6
  -2 -10  -8 2738.97 627.488   3
   2  10   9 63.0527 107.147   1
  -2 -10  -9 79.6435 112.856   6
  -2 -10 -10 734.916 277.804   6
  -2 -10 -10 289.904 255.207   3
  -2 -10 -11 182.529 179.811   6
   2  11  -2 986.501 425.384   7
   2  11  -1 224.268 239.917   7
   2  11   0 2398.17 631.014   7
  -2 -11   0 1726.74 488.930   4
  -2 -11  -1-85.9447 193.797   4
   2  11   1 58.9389 99.8091   7
   2  11   2 2862.55 663.972   7
  -2 -11  -2 2022.75 527.115   4
  -2 -11  -2 1728.35 411.306   3
   2  11   3 318.289 251.884   7
  -2 -11  -3 370.814 201.906   3
   2  11   4 1819.16 549.135   7
  -2 -11  -4 2354.92 508.906   3
   2  11   5 219.407 174.179   7
  -2 -11  -5 234.435 178.892   3
   2  11   6 1792.81 522.530   7
  -2 -11  -6 2041.98 408.754   6
   2  11   7 226.482 161.310   1
  -2 -11  -7 70.0918 107.779   6
  -2 -11  -7 80.3107 139.270   3
   2  11   7 179.547 200.877   7
   2  11   8 1466.76 379.825   1
   2  11   8 1239.43 487.937   7
  -2 -11  -8 1304.49 363.970   6
  -2 -11  -8 1330.33 439.803   3
  -2 -11  -9-350.201 261.253   3
  -2 -11  -9 32.7574 57.6423   6
  -2 -11 -10 1552.27 434.149   6
  -2 -12  -5 85.6870 160.026   3
  -2 -12  -6 656.845 290.026   3
  -2 -12  -7 295.540 236.183   3
  -3  10   7 723.055 376.255   7
  -3  10   6 242.385 237.483   7
  -3  10   5 2142.15 668.626   7
  -3  10   5 1461.47 458.997   1
   3 -10  -5 677.099 534.450   3
  -3  10   4 330.792 303.846   7
  -3  10   4-192.358 128.006   1
   3 -10  -4-439.301 468.435   3
  -3  10   3 1707.65 601.026   7
  -3  10   3 1304.55 435.641   1
  -3  10   2 14.6912 76.7960   1
  -3  10   2-91.0510 177.013   7
   3 -10  -2-243.186 306.576   3
   3 -10  -1 2319.93 752.249   3
  -3  10   1 3149.37 664.230   1
  -3  10   1 3806.50 859.116   7
   3 -10   0-194.464 275.104   3
  -3  10   0-171.018 241.274   7
  -3  10   0 41.1410 125.264   1
   3 -10   1 3169.75 846.269   3
  -3  10  -1 2652.48 578.844   1
  -3  10  -1 2990.21 753.678   7
   3 -10   2 418.348 391.730   3
  -3  10  -2-11.5386 119.833   1
  -3  10  -2-36.7437 157.784   7
   3 -10   3 797.152 405.957   3
   3 -10   3 1224.11 390.042   4
  -3  10  -3 855.930 399.061   7
   3 -10   4 215.386 264.221   3
   3 -10   4-41.3959 70.6156   4
   3 -10   5 138.458 193.824   3
   3 -10   5 422.370 244.322   4
  -3   9   8 50.5650 75.6468   1
  -3   9   7 1898.48 540.048   1
   3  -9  -7 922.663 539.778   3
  -3   9   7 1793.26 599.342   7
  -3   9   6 176.417 180.970   1
  -3   9   6-5.48268 84.7972   7
   3  -9  -6-54.5746 224.010   3
  -3   9   5 3044.11 646.338   1
  -3   9   5 3893.88 800.084   7
   3  -9  -5 2390.05 770.836   3
  -3   9   4 905.421 391.563   7
  -3   9   4 568.653 270.603   1
   3  -9  -4 388.887 464.629   3
  -3   9   3 7326.51 1095.88   7
  -3   9   3 6322.70 898.050   1
   3  -9  -3 6453.82 1311.98   3
   3  -9  -2 110.962 340.096   3
  -3   9   2 644.787 359.705   7
  -3   9   2 646.465 256.516   1
   3  -9  -1 5967.74 1127.47   3
  -3   9   1 7812.87 960.923   1
  -3   9   1 8342.55 1156.14   7
   3  -9   0 404.400 324.134   3
  -3   9   0-379.051 236.803   1
  -3   9   0 48.8795 105.616   7
   3  -9   1 4400.52 872.852   3
  -3   9  -1 5573.44 792.404   1
  -3   9  -1 5841.39 989.109   7
   3  -9   2 33.6836 190.779   3
  -3   9  -2 1.70619 63.3109   1
  -3   9  -2 78.0958 133.080   7
   3  -9   3 1488.37 477.038   3
  -3   9  -3 1880.78 462.284   1
  -3   9  -3 1685.95 551.958   7
   3  -9   3 1362.56 369.515   4
   3  -9   4 67.0206 100.186   3
  -3   9  -4-34.6229 55.5189   1
   3  -9   4 39.4266 107.536   4
  -3   9  -4-37.2756 116.197   7
   3  -9   5 3307.33 705.711   3
   3  -9   5 3318.11 621.359   4
   3  -9   6 158.873 173.988   4
   3  -9   6 50.1466 136.887   3
   3  -9   7 860.200 350.443   3
   3  -9   7 1164.03 384.278   4
  -3   8  10 157.169 172.885   1
  -3   8   9 2817.05 632.848   1
   3  -8  -9 2667.03 720.048   3
  -3   8   8 143.214 172.739   1
   3  -8  -8 442.057 454.232   3
  -3   8   7 3077.96 645.657   1
   3  -8  -7 2400.75 804.439   3
  -3   8   6-177.239 270.376   7
  -3   8   6-35.5541 129.941   1
   3  -8  -6 66.8980 308.661   3
  -3   8   5 7448.25 969.202   1
  -3   8   5 8347.13 1101.94   7
  -3   8   4 195.137 145.991   1
  -3   8   4-173.624 220.962   7
   3  -8  -4-533.136 464.500   3
   3  -8  -3 7525.93 501.007   2
  -3   8   3 8665.43 997.261   1
   3  -8  -3 8663.57 1396.01   3
   3  -8  -2 1110.56 506.962   3
  -3   8   2 1730.68 497.580   7
  -3   8   2 1571.45 408.435   1
   3  -8  -1 3667.46 816.887   3
  -3   8   1 4114.96 762.564   7
  -3   8   1 3805.25 636.972   1
   3  -8   0-227.905 310.265   3
  -3   8   0-191.241 254.921   7
  -3   8   0 151.501 114.989   1
   3  -8   0-62.5011 112.106   6
   3  -8   1 11766.0 927.823   6
  -3   8  -1 13067.4 1360.77   7
  -3   8  -1 12882.0 1132.68   1
   3  -8   1 10214.3 1207.65   3
  -3   8  -2-92.6182 219.943   7
   3  -8   2-105.892 196.236   3
  -3   8  -2-6.67517 132.101   1
  -3   8  -3 17555.7 1328.10   1
  -3   8  -3 17622.5 1612.40   7
   3  -8   3 14666.5 1384.77   3
   3  -8   4 132.546 198.270   3
  -3   8  -4-144.399 123.852   1
  -3   8  -4 121.620 152.078   7
   3  -8   4-36.6774 133.073   4
   3  -8   5 2552.16 580.260   3
   3  -8   5 3762.55 612.678   4
   3  -8   6 93.7738 146.810   3
   3  -8   6 40.5054 67.1375   4
   3  -8   7 7352.43 863.508   4
   3  -8   7 6293.41 915.737   3
   3  -8   8-59.8356 117.038   3
   3  -8   8 44.1136 73.0465   4
   3  -8   9 1576.14 452.231   3
  -3   7  11 505.880 281.241   1
  -3   7  10 168.639 163.267   1
   3  -7 -10 517.664 312.507   3
  -3   7   9 2622.58 583.878   1
   3  -7  -9 2551.51 628.686   3
  -3   7   8 680.411 282.935   1
   3  -7  -8 773.403 481.535   3
   3  -7  -7 2480.77 311.625   2
  -3   7   7 2424.01 546.927   1
   3  -7  -7 2580.77 784.922   3
  -3   7   6 1861.65 464.911   1
   3  -7  -6 1160.62 485.565   3
   3  -7  -6 1511.04 243.733   2
  -3   7   5 6530.54 917.910   7
   3  -7  -5 5338.01 464.928   2
  -3   7   5 5705.62 813.935   1
   3  -7  -5 4781.74 1063.47   3
   3  -7  -4 3473.99 364.156   2
  -3   7   4 4588.39 707.500   7
  -3   7   4 3909.39 656.036   1
   3  -7  -4 3717.46 926.660   3
   3  -7  -3 2303.94 677.052   3
  -3   7   3 2672.77 535.854   1
  -3   7   3 2763.92 543.077   7
  -3   7   3 2254.15 375.047   5
   3  -7  -2-6.24263 226.467   3
  -3   7   2 541.861 233.640   7
   3  -7  -2 338.827 98.2992   2
  -3   7   2 345.556 123.830   5
  -3   7   2 402.576 197.509   1
   3  -7  -1 6742.72 463.701   2
  -3   7   1 9406.71 1036.39   7
  -3   7   1 7362.45 834.472   1
   3  -7  -1 6731.49 988.696   3
   3  -7  -1 8300.02 799.751   6
  -3   7   1 7097.79 487.985   5
  -3   7   0-6.20766 36.2063   5
   3  -7   0-118.612 175.878   3
  -3   7   0-250.761 261.581   7
   3  -7   0-16.5873 43.4291   2
   3  -7   0 182.767 141.746   6
  -3   7   0-206.391 151.373   1
   3  -7   1 21559.1 952.980   2
  -3   7  -1 26154.9 1813.72   7
   3  -7   1 22342.8 1268.58   6
   3  -7   1 24300.4 1724.63   3
  -3   7  -1 24724.9 1496.69   1
   3  -7   2 1154.93 368.835   3
  -3   7  -2 562.092 218.294   1
   3  -7   2 597.331 181.917   6
   3  -7   2 537.407 153.291   2
  -3   7  -2 667.727 300.355   7
  -3   7  -3 10411.1 943.513   1
   3  -7   3 9061.98 690.500   2
   3  -7   3 9164.79 731.849   6
   3  -7   3 9619.31 1017.69   3
  -3   7  -3 11165.9 1178.18   7
   3  -7   4 592.833 273.662   3
  -3   7  -4 500.549 211.831   1
   3  -7   4 326.123 128.062   6
  -3   7  -4 362.645 190.495   7
   3  -7   4 205.583 162.653   4
   3  -7   4 259.417 101.007   5
   3  -7   5 7595.09 811.318   4
  -3   7  -5 7608.53 793.637   1
   3  -7   5 6764.61 506.887   5
   3  -7   5 6572.23 833.050   3
   3  -7   6-79.2087 108.228   3
   3  -7   6 37.6445 118.657   4
   3  -7   7 10850.3 964.857   4
   3  -7   7 10411.6 1118.29   3
   3  -7   8-181.046 135.343   3
   3  -7   8-114.793 116.407   4
   3  -7   9 3255.26 651.574   3
   3  -7   9 3394.69 531.312   4
   3  -7  10 79.4603 106.284   3
  -3   6  12 91.1044 151.674   1
   3  -6 -11 244.903 215.643   3
  -3   6  11 714.212 318.392   1
   3  -6 -10 403.886 272.398   3
  -3   6  10 239.298 85.4215   1
  -3   6   9 2707.10 581.595   1
   3  -6  -9 2930.12 389.875   2
   3  -6  -9 2781.80 663.558   3
  -3   6   8-172.055 214.521   1
   3  -6  -8 16.7741 59.2628   2
  -3   6   7 2285.89 544.238   1
   3  -6  -7 2278.28 346.302   2
   3  -6  -7 1955.94 639.190   3
  -3   6   6 2.52174 102.614   1
   3  -6  -6 18.4585 432.229   3
   3  -6  -6 111.507 97.5672   2
   3  -6  -5 67.5553 73.5365   2
  -3   6   5 227.775 152.922   1
   3  -6  -5-280.876 439.160   3
  -3   6   4 9478.64 960.284   7
   3  -6  -4 7401.30 558.218   2
  -3   6   4 7961.53 900.127   1
   3  -6  -4 6315.91 1003.74   3
   3  -6  -3 24220.0 2007.26   3
  -3   6   3 26265.0 1594.44   1
   3  -6  -2 1520.23 483.253   3
  -3   6   2 1312.70 337.664   1
   3  -6  -2 1023.31 201.177   4
  -3   6   2 1333.84 332.580   7
  -3   6   2 1138.02 239.936   5
  -3   6   1 16009.5 1216.67   7
   3  -6  -1 15223.4 1052.07   6
   3  -6  -1 13892.3 1310.71   3
  -3   6   1 14322.9 1088.79   1
  -3   6   1 14941.4 783.057   5
  -3   6   0 26.4939 35.5042   5
   3  -6   0 137.477 70.7076   2
   3  -6   0 0.50116 59.0270   6
  -3   6   0 16.4148 95.1191   1
  -3   6  -1 5597.34 641.591   1
   3  -6   1 5894.60 467.268   2
  -3   6  -1 6239.66 800.172   7
   3  -6   1 5726.23 753.569   3
  -3   6  -1 6103.25 416.733   5
   3  -6   1 6147.40 619.774   6
  -3   6  -2 886.151 151.815   5
   3  -6   2 1031.22 324.598   3
  -3   6  -2 1099.95 286.120   1
   3  -6   2 966.403 225.161   6
   3  -6   2 675.089 157.133   2
  -3   6  -2 1172.79 323.367   7
  -3   6  -3 8733.09 799.516   1
   3  -6   3 7238.01 575.910   2
  -3   6  -3 8983.15 983.411   7
   3  -6   3 9231.29 713.568   6
   3  -6   3 8187.19 872.670   3
   3  -6   3 8254.28 550.761   5
  -3   6  -4-4.08849 121.932   7
   3  -6   4 142.482 133.757   4
   3  -6   4 2.08326 118.772   3
   3  -6   4-7.05835 53.3324   6
  -3   6  -4 32.3221 81.3090   1
   3  -6   4 143.182 110.583   2
   3  -6   4 67.9859 76.5745   5
   3  -6   5 393.345 141.165   6
   3  -6   5 274.944 129.960   3
  -3   6  -5 249.793 146.301   1
   3  -6   5 420.224 179.448   4
   3  -6   5 270.411 106.270   5
   3  -6   6-19.9287 139.618   3
   3  -6   6-76.1563 100.773   4
   3  -6   6-47.1506 61.5585   6
   3  -6   6 8.02914 65.5630   5
   3  -6   7 3592.38 499.595   4
   3  -6   7 3692.37 600.004   3
   3  -6   7 3820.06 465.956   5
   3  -6   8 78.9281 94.1368   5
   3  -6   8 83.4832 133.256   3
   3  -6   8 91.7070 86.5717   4
   3  -6   9 24835.4 1373.97   4
  -3   6  -9 25364.1 2825.59   8
   3  -6   9 23725.2 1684.86   3
   3  -6   9 24222.4 1375.87   5
  -3   6 -10 646.125 451.864   8
   3  -6  10-11.1233 50.3678   4
  -3   5  12-292.072 238.620   1
   3  -5 -12 570.307 300.733   3
  -3   5  11 1224.77 422.116   1
   3  -5 -11 1303.44 273.086   2
   3  -5 -11 1751.39 477.402   3
  -3   5  10 23.3883 158.899   1
   3  -5 -10-144.620 180.102   3
   3  -5 -10-40.1070 77.0030   2
  -3   5   9 3758.21 706.782   1
   3  -5  -9 3617.68 484.354   2
   3  -5  -9 3647.19 666.429   3
   3  -5  -8 456.796 355.514   3
   3  -5  -8-39.2657 78.2117   2
  -3   5   8 423.394 274.907   1
  -3   5   7 2740.78 582.118   1
   3  -5  -7 2376.83 734.193   3
   3  -5  -7 2740.92 406.400   2
  -3   5   6 5567.44 799.854   1
   3  -5  -6 6833.06 628.510   2
   3  -5  -6 6293.54 1097.55   3
   3  -5  -5 28619.3 1272.59   2
  -3   5   5 32066.2 1844.53   1
   3  -5  -4 1110.48 219.750   2
   3  -5  -4 1121.60 217.011   4
  -3   5   4 1073.34 309.563   1
   3  -5  -3 19828.9 932.553   4
  -3   5   3 24846.7 1361.41   7
   3  -5  -3 18015.2 1636.38   3
  -3   5   3 24113.4 1693.09   3
  -3   5   3 19197.5 1285.71   1
  -3   5   2 972.286 253.796   7
   3  -5  -2 827.785 363.855   3
  -3   5   2 833.397 273.668   3
   3  -5  -2 641.879 146.795   4
  -3   5   2 923.422 265.768   1
  -3   5   2 874.093 220.752   5
  -3   5   1 4233.03 547.646   1
   3  -5  -1 3829.75 623.400   3
   3  -5  -1 3956.95 567.919   1
  -3   5   1 4669.81 583.515   7
  -3   5   1 4536.30 640.347   3
  -3   5   1 4326.65 439.826   5
  -3   5   0 459.433 177.287   1
   3  -5   0 165.733 155.618   3
   3  -5   0 635.235 232.990   1
  -3   5   0 383.140 176.545   7
   3  -5   0 703.402 194.391   6
  -3   5   0 493.721 134.109   5
   3  -5   1 2268.00 427.360   3
   3  -5   1 2390.24 294.637   2
   3  -5   1 2382.96 581.521   8
  -3   5  -1 2446.15 443.859   7
   3  -5   1 2612.58 379.648   6
  -3   5  -1 2615.73 402.049   1
   3  -5   1 1925.39 351.879   1
  -3   5  -1 2438.31 287.462   5
   3  -5   2 36.1026 60.7764   7
  -3   5  -2-34.0498 45.9624   5
   3  -5   2-2.69356 60.3456   1
   3  -5   2-3.58855 111.865   3
   3  -5   2-111.681 192.444   8
  -3   5  -2-24.1330 89.0040   7
   3  -5   2-8.21328 33.2127   2
  -3   5  -2-6.31608 62.6604   1
   3  -5   2 22.7842 71.8038   6
   3  -5   2-6.78800 77.1109   5
   3  -5   3 30457.3 1191.24   2
   3  -5   3 30059.2 1313.75   6
  -3   5  -3 31539.9 1436.26   1
   3  -5   3 30173.0 1418.09   7
  -3   5  -3 31423.9 1695.43   7
   3  -5   3 29550.6 1576.67   3
   3  -5   3 29146.7 1143.28   5
   3  -5   3 32465.8 1420.80   1
  -3   5  -3 29749.1 1020.00   5
   3  -5   4 39.2253 48.2778   1
   3  -5   4-228.951 174.204   3
  -3   5  -4-31.7717 106.242   1
   3  -5   4-33.9982 59.4388   2
   3  -5   4-66.3901 125.817   4
   3  -5   4 71.8267 79.1150   6
   3  -5   4 23.0202 63.5922   5
   3  -5   5 1915.85 377.742   3
  -3   5  -5 1533.27 307.329   1
   3  -5   5 1714.25 322.125   1
   3  -5   5 1947.47 293.263   5
   3  -5   5 2015.26 342.143   4
   3  -5   5 1637.28 275.540   6
   3  -5   6-46.2139 66.3214   6
   3  -5   6 123.208 101.779   4
  -3   5  -6-100.627 74.3949   6
  -3   5  -6-255.312 361.451   8
   3  -5   6-32.4560 72.0159   5
  -3   5  -7 3325.30 874.675   8
  -3   5  -7 3461.89 443.122   6
   3  -5   7 3499.61 453.925   4
   3  -5   7 2776.38 331.990   6
   3  -5   7 3514.69 447.467   5
   3  -5   8 56.9744 75.3301   5
  -3   5  -8-76.7059 263.621   8
   3  -5   8 25.3588 71.6450   4
  -3   5  -8 90.0865 99.8823   6
  -3   5  -9 498.090 307.041   8
   3  -5   9 1228.88 279.456   4
  -3   5  -9 686.952 216.442   6
   3  -5   9 1008.57 277.144   5
   3  -5  10 52.0737 90.9595   5
  -3   5 -10 69.3634 271.727   8
   3  -5  10 18.6312 93.0972   4
  -3   5 -10 99.9260 107.522   6
   3  -5  11 4989.24 566.137   4
  -3   5 -11 4837.63 1247.78   8
   3  -5  11 4625.55 684.804   5
   3  -5  12 95.8814 136.618   5
  -3   4  13 1703.27 559.020   1
   3  -4 -13 1605.45 346.678   2
   3  -4 -12-126.346 232.543   3
   3  -4 -12 163.245 123.711   2
  -3   4  11 1070.32 417.896   1
   3  -4 -11 1477.97 444.605   3
   3  -4 -11 1024.72 274.895   2
   3  -4 -10-99.9542 185.917   3
   3  -4 -10 83.9344 82.5981   2
  -3   4   9 9529.23 1125.32   1
   3  -4  -9 8765.18 824.393   2
   3  -4  -9 8799.56 960.137   3
  -3   4   8 453.166 307.225   1
   3  -4  -8 367.965 351.703   3
   3  -4  -8 44.8345 102.476   2
   3  -4  -7 40260.8 1743.11   2
   3  -4  -7 39186.5 2447.59   3
   3  -4  -6 119.496 122.347   2
  -3   4   6-134.390 149.974   1
  -3   4   5 303.763 163.778   3
   3  -4  -5 341.702 170.355   2
  -3   4   5 603.666 271.816   1
   3  -4  -5 409.914 134.429   4
   3  -4  -5-186.804 491.953   3
   3  -4  -4 2179.49 291.470   4
  -3   4   4 2689.29 539.862   3
   3  -4  -4 1652.52 299.403   2
  -3   4   4 2628.77 488.632   1
   3  -4  -4 1979.35 499.631   3
   3  -4  -3 19374.9 863.033   4
   3  -4  -3 17347.3 1472.16   3
  -3   4   3 18818.1 1258.19   1
   3  -4  -2 3242.03 580.781   3
   3  -4  -2 2685.21 292.321   4
  -3   4   2 3012.02 429.903   5
  -3   4   2 3328.71 515.708   3
  -3   4   2 3124.45 398.609   7
  -3   4   2 2582.68 422.894   1
   3  -4  -1 50343.9 1433.31   4
  -3   4   1 56544.4 1911.72   7
   3  -4  -1 49608.7 2169.93   3
  -3   4   1 53850.2 1772.93   5
  -3   4   1 53904.2 1965.01   1
   3  -4   0 2199.71 413.852   3
  -3   4   0 1780.48 313.132   1
  -3   4   0 1834.12 328.415   7
   3  -4   0 1853.30 325.080   6
  -3   4   0 1596.11 247.017   5
   3  -4   0 1872.79 341.781   1
   3  -4   1 67451.4 2143.50   1
  -3   4  -1 70322.5 2352.07   7
   3  -4   1 63176.6 1920.22   7
   3  -4   1 64741.7 3037.39   8
   3  -4   1 67714.6 2113.54   6
  -3   4  -1 65204.5 1792.29   5
  -3   4  -1 67789.9 2139.28   1
   3  -4   1 65060.6 2325.59   3
   3  -4   2 4215.75 400.893   2
   3  -4   2 3938.96 667.198   8
   3  -4   2 4298.95 454.412   7
   3  -4   2 4336.56 462.040   6
  -3   4  -2 4518.96 480.406   1
   3  -4   2 3910.66 507.123   3
  -3   4  -2 4421.13 551.089   7
   3  -4   2 4155.69 396.210   5
  -3   4  -2 4269.58 372.829   5
   3  -4   2 4227.97 464.898   1
   3  -4   3 72192.8 1973.29   2
   3  -4   3 77503.4 2982.84   8
  -3   4  -3 74744.2 2548.41   7
  -3   4  -3 71658.1 2169.30   1
   3  -4   3 72273.1 2154.94   6
   3  -4   3 70793.5 2259.51   7
   3  -4   3 72620.3 2433.20   3
   3  -4   3 69070.9 1958.07   5
  -3   4  -3 72464.0 1876.04   5
   3  -4   3 74857.0 2166.69   1
   3  -4   4-113.712 172.295   3
   3  -4   4-9.18448 76.3185   7
  -3   4  -4-48.5638 68.2395   1
   3  -4   4-33.2319 70.1698   4
   3  -4   4-3.37896 41.5180   1
  -3   4  -4-33.5871 47.6457   6
   3  -4   4-78.6586 83.6948   2
   3  -4   4 5.76806 32.4171   6
   3  -4   4 12.9961 63.7194   5
  -3   4  -5 10674.1 1345.92   8
   3  -4   5 13114.7 837.889   4
   3  -4   5 11623.7 740.048   2
  -3   4  -5 11083.9 763.624   1
  -3   4  -5 11091.4 761.490   6
   3  -4   5 11174.4 731.886   6
   3  -4   5 12854.0 819.377   1
   3  -4   5 10751.2 908.981   7
   3  -4   6 82.6252 95.0211   5
   3  -4   6 31.2086 44.2668   1
   3  -4   6-136.152 118.442   4
  -3   4  -6-24.9029 73.5368   6
   3  -4   6-122.609 95.5372   6
  -3   4  -6 226.431 261.422   8
   3  -4   7 5155.83 493.917   4
  -3   4  -7 5523.47 1016.32   8
   3  -4   7 4699.32 436.544   6
  -3   4  -7 5683.68 585.332   6
   3  -4   7 4849.72 533.316   1
   3  -4   7 5315.47 560.690   5
  -3   4  -8-101.951 117.472   8
   3  -4   8 10.5449 50.6414   5
   3  -4   8-40.8210 70.9096   1
   3  -4   8-4.35862 41.5405   4
  -3   4  -8 22.7283 54.0986   6
   3  -4   8 32.9223 30.6482   6
   3  -4   9 11903.1 787.917   4
  -3   4  -9 14343.5 1759.36   8
  -3   4  -9 12473.5 948.007   6
   3  -4   9 11417.3 941.573   5
   3  -4  10-8.57193 58.5815   5
  -3   4 -10 8.92679 69.5971   6
   3  -4  10-64.9014 110.222   4
  -3   4 -10-39.4867 165.834   8
   3  -4  11 2972.41 386.547   4
  -3   4 -11 3448.20 534.360   6
   3  -4  11 2790.60 543.198   5
  -3   4 -11 3104.45 903.998   8
   3  -4  12-186.786 122.096   5
  -3   4 -12-321.963 414.577   8
   3  -4  13 248.009 202.529   5
   3  -3 -13 1022.32 305.969   2
  -3   3  12 66.7416 83.1238   4
   3  -3 -12 148.505 96.0880   2
  -3   3  11 3043.83 475.891   4
   3  -3 -11 2734.06 564.541   3
   3  -3 -11 2746.55 470.160   2
  -3   3  10 146.685 113.312   4
   3  -3 -10 573.018 266.449   3
   3  -3 -10 590.204 195.640   2
  -3   3   9 11064.3 887.889   4
   3  -3  -9 9735.21 930.708   2
   3  -3  -9 10287.2 984.727   3
  -3   3   8 1503.07 327.141   4
   3  -3  -8 2092.74 477.272   3
   3  -3  -8 1223.19 328.483   2
   3  -3  -7 1659.82 431.691   3
  -3   3   7 1721.37 580.138   3
  -3   3   7 2062.10 365.463   4
   3  -3  -7 1421.92 310.083   2
  -3   3   6 944.706 391.474   3
  -3   3   6 1126.02 242.906   4
   3  -3  -6 1603.94 614.795   3
   3  -3  -6 960.411 294.213   2
  -3   3   5 37908.6 1518.18   4
   3  -3  -5 37159.5 1333.48   4
   3  -3  -5 34178.8 1500.98   2
  -3   3   5 38739.1 2244.89   3
  -3   3   4 1417.63 385.691   3
  -3   3   4 1574.09 410.992   1
   3  -3  -4 1315.77 215.719   4
   3  -3  -4 1279.63 271.604   2
   3  -3  -4 877.224 356.501   3
  -3   3   3 98154.9 3219.85   1
   3  -3  -3 96029.7 2259.62   4
   3  -3  -3 100436. 2595.06   2
  -3   3   3 104984. 3302.86   3
   3  -3  -2 451.457 208.156   3
  -3   3   2 964.840 250.169   3
   3  -3  -2 857.675 155.856   4
  -3   3   2 1047.07 204.711   7
  -3   3   2 754.462 242.475   1
  -3   3   2 883.151 223.700   5
   3  -3  -1 88628.9 2013.25   4
   3  -3  -1 85323.0 2775.00   3
  -3   3   1 96459.3 2579.16   5
  -3   3   1 98764.7 2386.75   7
  -3   3   1 92350.4 2659.87   1
   3  -3   0 18544.2 708.132   4
   3  -3   0 18714.7 1097.33   3
  -3   3   0 19803.4 988.525   7
  -3   3   0 20125.3 947.647   5
  -3   3   0 21201.4 1041.60   1
   3  -3   0 20671.9 1043.70   6
   3  -3   1 53801.1 1815.79   1
  -3   3  -1 54940.5 1830.92   7
   3  -3   1 50211.3 1523.15   7
   3  -3   1 53648.5 1907.84   3
   3  -3   1 56615.4 1826.20   6
  -3   3  -1 56129.0 1748.44   1
   3  -3   1 50164.2 1637.67   5
  -3   3  -1 53150.8 1598.66   5
  -3   3  -2 269.326 102.006   5
   3  -3   2 241.197 112.784   7
   3  -3   2 65.6648 93.0217   3
   3  -3   2 286.270 104.526   1
   3  -3   2 105.207 79.2222   6
   3  -3   2 172.164 67.2463   5
  -3   3  -2 315.930 96.2604   1
  -3   3  -2 302.818 135.543   7
   3  -3   3 49804.7 1554.73   2
   3  -3   3 50785.4 2161.55   8
   3  -3   3 47324.1 1713.62   7
   3  -3   3 49346.6 1574.54   5
  -3   3  -3 49293.5 1650.37   6
  -3   3  -3 49739.5 1589.69   1
   3  -3   3 51284.9 1688.13   6
  -3   3  -3 50023.6 1505.32   5
   3  -3   3 50686.8 1611.74   1
  -3   3  -4 264.696 110.628   5
   3  -3   4 60.7550 36.0847   4
  -3   3  -4 33.2793 60.8544   1
   3  -3   4 167.286 87.6598   1
   3  -3   4 161.850 57.0648   2
  -3   3  -4 73.1685 59.3960   6
   3  -3   4 53.1242 58.5384   6
   3  -3   4 93.8004 53.6362   7
   3  -3   4 168.301 67.3540   5
   3  -3   5 76035.2 2204.75   5
  -3   3  -5 78390.0 2297.92   6
  -3   3  -5 76965.2 3469.93   8
   3  -3   5 84999.1 2101.05   4
   3  -3   5 81151.1 2170.12   2
   3  -3   5 79121.2 2597.57   7
   3  -3   5 76769.8 2171.69   6
  -3   3  -5 81759.9 2148.75   1
   3  -3   5 74009.2 2104.40   1
   3  -3   6 70.7629 96.8407   5
   3  -3   6-35.7219 59.3436   1
   3  -3   6 23.7095 80.2944   2
  -3   3  -6-99.6096 205.544   8
   3  -3   6-54.3563 67.4994   4
   3  -3   6-103.590 136.763   7
  -3   3  -6-60.1837 76.1654   6
   3  -3   6-146.361 99.1991   6
  -3   3  -7 13187.4 1400.14   8
   3  -3   7 13106.2 706.357   4
  -3   3  -7 12915.6 896.335   6
   3  -3   7 12572.8 727.805   6
   3  -3   7 12899.5 800.161   1
   3  -3   7 13884.4 924.280   5
   3  -3   8 45.4810 54.5380   5
   3  -3   8-40.3508 43.4793   4
  -3   3  -8 31.2680 98.6003   8
  -3   3  -8 35.3691 53.6949   6
   3  -3   8 5.14580 53.4050   6
   3  -3   8-43.5004 91.9766   1
   3  -3   9 7411.94 550.750   4
  -3   3  -9 8099.74 769.890   6
   3  -3   9 5783.90 579.000   1
  -3   3  -9 8562.11 1240.51   8
   3  -3   9 7383.53 762.182   5
   3  -3  10-82.0723 178.662   5
   3  -3  10-100.586 113.225   4
  -3   3 -10-135.861 213.165   8
  -3   3 -10 12.4155 77.7441   6
   3  -3  11 4540.26 444.389   4
  -3   3 -11 4944.51 1033.32   8
  -3   3 -11 5260.39 691.443   6
   3  -3  11 5446.58 741.588   5
   3  -3  12 8.09726 52.4361   4
   3  -3  12 195.503 138.788   5
  -3   3 -12-157.503 193.647   6
   3  -3  13 1150.50 388.215   5
  -3   3 -13 1162.24 553.341   8
  -3   3 -13 955.854 320.769   6
   3  -2 -13 1196.16 354.829   2
  -3   2  12 288.803 152.876   4
   3  -2 -12 112.684 130.821   2
  -3   2  11 827.959 252.949   4
   3  -2 -11 769.996 274.565   2
  -3   2  10 509.204 194.396   4
   3  -2 -10 686.372 265.205   3
   3  -2 -10 453.996 187.800   2
  -3   2   9 69.9118 65.5928   4
   3  -2  -9 108.446 143.029   3
   3  -2  -9-144.611 157.241   2
  -3   2   8 657.995 416.658   3
  -3   2   8 1791.65 336.351   4
   3  -2  -8 1268.89 341.714   3
   3  -2  -8 1180.72 366.422   2
  -3   2   7 54753.4 1872.08   4
   3  -2  -7 55195.8 2265.76   3
   3  -2  -7 48720.0 2110.95   2
  -3   2   7 45483.4 2791.72   3
  -3   2   6 7309.82 614.907   4
   3  -2  -6 5950.69 571.608   4
   3  -2  -6 5609.70 658.722   2
  -3   2   6 6586.48 949.896   3
   3  -2  -6 5565.97 832.403   3
  -3   2   5 20727.7 1016.77   4
   3  -2  -5 20062.1 975.329   4
   3  -2  -5 17665.7 1120.57   2
   3  -2  -5 16769.9 1483.78   3
  -3   2   5 20679.3 1523.55   3
  -3   2   4 3808.16 399.824   4
   3  -2  -4 3662.73 367.922   4
   3  -2  -4 3350.82 433.887   2
  -3   2   4 4548.87 629.898   3
   3  -2  -4 2571.59 507.833   3
   3  -2  -3 3102.53 572.694   3
   3  -2  -3 3529.64 428.428   2
  -3   2   3 3565.21 366.207   4
   3  -2  -3 3597.59 333.274   4
  -3   2   3 3933.47 525.241   3
  -3   2   2 13361.8 699.749   4
   3  -2  -2 12889.3 602.981   4
  -3   2   2 10973.1 903.410   1
   3  -2  -2 11398.0 910.215   3
  -3   2   2 13447.2 913.581   3
  -3   2   1 194195. 4568.68   1
   3  -2  -1 194307. 3628.05   4
  -3   2   1 210410. 3787.32   7
   3  -2  -1 194403. 4457.28   3
  -3   2   1 211796. 4443.85   3
  -3   2   1 204268. 4399.87   5
  -3   2   0 6957.47 584.389   1
   3  -2   0 6296.92 352.305   4
  -3   2   0 7042.77 482.260   7
   3  -2   0 6896.01 593.203   3
  -3   2   0 6752.39 542.216   5
   3  -2   1 20000.6 635.097   4
   3  -2   1 19545.0 765.600   7
   3  -2   1 21775.6 1055.68   3
  -3   2  -1 22892.2 950.643   7
   3  -2   1 20656.6 966.424   5
  -3   2  -1 21571.2 951.142   5
  -3   2  -1 22476.0 963.843   1
  -3   2  -2 350.072 110.322   5
  -3   2  -2 393.783 111.776   1
   3  -2   2 333.729 111.674   7
   3  -2   2 525.524 154.494   1
  -3   2  -2 557.325 156.407   7
  -3   2  -2 426.255 120.325   6
   3  -2   2 323.291 114.437   6
   3  -2   2 361.936 160.928   8
   3  -2   2 282.872 106.894   5
   3  -2   3 118341. 3247.58   8
   3  -2   3 116279. 2832.59   6
  -3   2  -3 121552. 2602.28   1
   3  -2   3 112016. 2824.57   7
   3  -2   3 118760. 2776.77   5
  -3   2  -3 119455. 2715.48   5
  -3   2  -3 118866. 2870.37   6
   3  -2   3 116649. 2655.84   1
  -3   2  -4 1089.48 197.310   5
   3  -2   4 1512.00 186.964   4
  -3   2  -4 1139.84 184.517   1
  -3   2  -4 1190.10 219.378   6
  -3   2  -4 1301.83 373.345   8
   3  -2   4 1281.26 234.475   6
   3  -2   4 946.860 167.451   2
   3  -2   4 1371.35 206.050   1
   3  -2   4 1157.11 249.145   7
   3  -2   4 1330.72 224.300   5
   3  -2   5 84828.8 1841.72   4
  -3   2  -5 81348.8 3193.68   8
   3  -2   5 85390.4 2345.83   5
   3  -2   5 80261.5 2500.18   7
  -3   2  -5 85268.5 2394.74   6
   3  -2   5 83875.6 2063.08   1
   3  -2   5 84056.9 2244.60   6
  -3   2  -5 86442.9 2056.53   1
   3  -2   6 975.527 227.543   5
   3  -2   6 808.794 168.842   1
   3  -2   6 900.612 146.973   4
  -3   2  -6 682.317 282.894   8
   3  -2   6 1346.51 242.299   2
  -3   2  -6 785.585 197.463   6
   3  -2   6 551.922 171.041   7
   3  -2   6 974.289 199.119   6
   3  -2   7 34698.6 1064.86   4
   3  -2   7 33357.2 1328.53   2
  -3   2  -7 34725.0 2056.48   8
   3  -2   7 32789.3 1689.86   7
  -3   2  -7 34954.8 1527.00   6
   3  -2   7 33933.4 1259.15   6
   3  -2   7 33094.5 1225.30   1
   3  -2   7 34526.4 1504.83   5
   3  -2   8 139.229 88.7689   5
  -3   2  -8 150.223 157.315   8
  -3   2  -8 142.031 78.2516   6
   3  -2   8 287.252 121.273   6
   3  -2   8 227.076 88.4446   1
   3  -2   8 196.432 65.3053   4
   3  -2   9 11887.8 616.296   4
  -3   2  -9 13175.0 1371.95   8
  -3   2  -9 11956.9 965.070   6
   3  -2   9 10809.0 717.075   1
   3  -2   9 12201.1 974.315   5
   3  -2  10-95.9615 135.868   5
   3  -2  10 145.234 85.0425   4
  -3   2 -10 16.6495 69.0336   6
   3  -2  10 49.5946 61.6444   1
   3  -2  11 12847.5 717.833   4
  -3   2 -11 12185.6 1114.24   6
   3  -2  11 14064.8 1194.08   5
   3  -2  12-77.7110 129.276   5
   3  -2  12 172.557 97.4498   4
  -3   2 -12 13.3928 103.621   6
   3  -2  13 1051.72 343.869   5
  -3   2 -13 780.305 305.300   6
   3  -2  14-47.1625 115.190   5
  -3   2 -14-69.4147 94.9041   6
   3  -1 -13 533.204 235.230   2
  -3   1  12 138.943 93.1812   4
   3  -1 -12 318.546 177.815   2
  -3   1  11 1492.67 324.562   4
   3  -1 -11 1890.02 431.407   2
  -3   1  10 538.549 203.960   4
   3  -1 -10 71.3023 109.384   2
  -3   1   9 6075.80 1082.68   3
  -3   1   9 6533.70 617.047   4
   3  -1  -9 6941.77 836.321   2
   3  -1  -9 6924.93 798.611   3
  -3   1   8 2224.66 621.623   3
  -3   1   8 3106.61 406.154   4
   3  -1  -8 2789.16 473.845   3
   3  -1  -8 3158.71 537.506   2
  -3   1   7 3023.75 680.019   3
  -3   1   7 2390.48 336.103   4
   3  -1  -7 2657.84 447.795   3
   3  -1  -7 2653.86 500.725   2
   3  -1  -6 4063.26 568.288   2
  -3   1   6 3530.54 401.106   4
   3  -1  -6 4738.33 538.504   4
   3  -1  -6 4616.46 589.405   3
  -3   1   6 4372.62 708.008   3
  -3   1   5 9271.18 624.458   4
   3  -1  -5 9370.74 703.045   4
   3  -1  -5 8167.18 799.232   2
   3  -1  -5 7206.79 887.616   3
  -3   1   5 9479.25 921.304   3
  -3   1   4 5452.92 446.718   4
   3  -1  -4 4572.88 446.452   4
   3  -1  -4 4409.65 524.789   2
  -3   1   4 4973.37 586.323   3
   3  -1  -4 3536.63 580.354   3
  -3   1   3 79657.0 1945.63   4
   3  -1  -3 74740.0 1955.13   4
   3  -1  -3 73811.5 2282.94   2
  -3   1   3 80053.6 2360.12   3
   3  -1  -2 82.8640 107.405   3
  -3   1   2 140.138 76.2763   3
  -3   1   2 197.828 73.1624   4
   3  -1  -2 129.506 51.8043   4
  -3   1   1 3598.70 303.857   4
   3  -1  -1 3279.93 266.703   4
  -3   1   1 3397.99 225.412   7
   3  -1  -1 2918.28 364.330   3
  -3   1   0 2348.95 217.561   4
   3  -1   0 2479.39 204.376   4
  -3   1   0 2457.86 213.941   7
   3  -1   0 2776.64 346.037   3
  -3   1   0 2736.28 337.236   5
   3  -1   1 127504. 2253.47   4
   3  -1   1 122871. 2410.92   7
  -3   1  -1 128818. 2910.61   6
   3  -1   1 128170. 2980.36   5
  -3   1  -1 127708. 2925.51   5
   3  -1   2 18379.2 472.591   4
   3  -1   2 17367.3 744.212   7
   3  -1   2 19664.8 1078.06   8
  -3   1  -2 19692.5 925.675   6
   3  -1   2 18962.7 900.745   5
  -3   1  -2 17862.2 855.549   5
  -3   1  -2 19096.5 761.011   1
   3  -1   3 58093.3 1583.13   1
   3  -1   3 59192.5 1130.36   4
  -3   1  -3 58821.7 1714.09   5
   3  -1   3 52679.7 1603.48   7
  -3   1  -3 54778.0 2248.69   8
  -3   1  -3 62133.9 1475.23   1
   3  -1   3 60773.3 1777.84   5
  -3   1  -3 59605.0 1806.62   6
   3  -1   4 4171.85 195.195   4
   3  -1   4 3894.34 407.677   5
  -3   1  -4 4208.26 576.085   8
   3  -1   4 3462.66 387.283   7
  -3   1  -4 4046.17 300.207   1
  -3   1  -4 4512.30 438.535   6
   3  -1   4 3859.38 397.875   6
   3  -1   4 3883.67 318.709   1
   3  -1   5 113091. 2818.49   5
   3  -1   5 110434. 1977.02   4
  -3   1  -5 113291. 2263.74   1
  -3   1  -5 110764. 3349.99   8
  -3   1  -5 110225. 2832.41   6
   3  -1   5 110756. 2672.55   6
   3  -1   5 110125. 2308.94   1
   3  -1   6 598.339 169.071   5
   3  -1   6 595.089 130.376   1
   3  -1   6 501.654 84.8920   4
  -3   1  -6 483.982 190.428   8
   3  -1   6 479.175 136.120   6
  -3   1  -6 707.425 202.981   6
   3  -1   7 11707.6 481.943   4
  -3   1  -7 11194.2 834.904   6
  -3   1  -7 11646.0 605.768   4
   3  -1   7 11694.6 723.142   2
   3  -1   7 10805.6 666.953   6
   3  -1   7 11180.3 581.256   1
   3  -1   7 11402.2 825.860   5
   3  -1   8 660.429 228.410   5
   3  -1   8 686.773 122.865   4
  -3   1  -8 534.310 142.423   4
  -3   1  -8 458.231 178.795   6
   3  -1   8 640.798 163.245   6
   3  -1   8 480.094 122.030   1
   3  -1   9 8762.72 490.201   4
  -3   1  -9 8573.66 649.621   4
   3  -1   9 8554.42 823.689   5
  -3   1  -9 8580.51 820.200   6
   3  -1   9 7856.06 544.791   1
   3  -1  10 31.7832 76.7784   5
   3  -1  10 85.9002 62.1172   4
   3  -1  10-52.7840 66.7208   1
  -3   1 -10 100.942 72.9405   6
  -3   1 -11 14546.0 1235.30   6
   3  -1  11 12255.3 676.789   4
  -3   1 -11 12520.8 968.919   4
   3  -1  11 12414.5 1112.22   5
   3  -1  12 257.517 194.644   5
   3  -1  12 243.175 107.202   4
  -3   1 -12 539.553 274.206   6
   3  -1  13 6193.96 536.978   4
  -3   1 -13 7063.71 972.387   6
   3  -1  13 6444.65 891.399   5
   3  -1  14-105.126 149.224   5
  -3   1 -14-26.9317 142.958   6
  -3   1 -15 857.517 396.544   6
  -3   0  12 105.963 119.025   4
   3   0 -12 559.764 251.067   2
  -3   0  11 3017.81 456.415   4
   3   0 -11 2897.93 560.511   2
  -3   0  10 2304.22 390.008   4
   3   0 -10 2167.19 471.036   2
  -3   0   9 1381.69 501.669   3
  -3   0   9 1095.74 257.813   4
   3   0  -9 1437.42 420.485   2
  -3   0   8 967.999 429.973   3
  -3   0   8 368.591 121.178   4
   3   0  -8 488.978 227.758   2
  -3   0   7 19377.3 991.360   4
   3   0  -7 20443.4 1460.29   2
   3   0  -7 22277.0 1233.95   3
  -3   0   7 17619.8 1520.47   3
  -3   0   6 1753.72 432.043   3
  -3   0   6 1755.15 478.734   2
  -3   0   6 1496.49 236.925   4
   3   0  -6 1662.98 330.157   4
   3   0  -6 1681.64 312.957   3
   3   0  -6 1996.16 416.038   2
  -3   0   5 33014.1 1220.12   4
   3   0  -5 35142.2 1510.51   4
   3   0  -5 32878.9 1700.65   2
   3   0  -5 38049.2 1506.15   3
  -3   0   5 35791.4 1701.89   3
  -3   0   4 5769.32 444.652   4
   3   0  -4 5737.68 526.546   4
   3   0  -4 5675.71 641.037   2
   3   0  -4 4535.57 638.061   3
  -3   0   4 6047.59 586.221   3
  -3   0   3 18191.3 766.037   4
   3   0  -3 17772.7 885.285   4
  -3   0   3 17834.5 884.075   3
   3   0  -3 17025.4 1040.27   2
   3   0  -3 14857.1 1119.57   3
   3   0  -2-35.5704 110.173   3
  -3   0   2-30.7638 85.6284   3
   3   0  -2-102.030 118.464   2
  -3   0   2 104.735 75.9997   4
   3   0  -2 79.6786 60.7797   4
  -3   0   1 87374.4 1825.11   4
   3   0  -1 83706.5 1915.60   4
   3   0  -1 83096.6 2184.65   6
   3   0  -1 79099.1 2039.08   3
  -3   0   0 51441.8 1167.70   4
   3   0   0 47458.3 1199.25   4
   3   0   0 48238.5 1408.69   3
   3   0   1 209281. 3759.71   4
   3   0   1 211159. 3713.94   7
  -3   0  -1 223202. 4425.13   6
   3   0   1 220404. 4537.70   5
  -3   0  -2 7873.79 483.011   1
   3   0   2 7217.33 242.989   4
   3   0   2 7291.32 485.168   8
   3   0   2 6661.63 372.188   7
  -3   0  -2 7859.79 559.256   6
   3   0   2 7372.80 549.498   5
  -3   0  -3 54589.8 1891.09   8
  -3   0  -3 57338.9 1283.19   1
   3   0   3 57702.8 1735.04   5
  -3   0  -3 56871.8 1741.64   6
  -3   0  -4 2938.96 397.214   8
  -3   0  -4 2646.24 190.829   1
  -3   0  -4 2987.72 364.791   6
   3   0   4 2747.65 343.637   5
   3   0   5 14021.3 520.605   1
   3   0   5 13825.9 342.552   4
  -3   0  -5 14493.1 850.338   6
   3   0   5 13691.6 821.934   5
   3   0   6 923.455 221.110   5
   3   0   6 1220.59 116.084   4
  -3   0  -6 922.475 132.073   4
  -3   0  -6 1153.06 257.763   6
   3   0   6 943.630 193.382   6
   3   0   6 1008.88 125.768   1
   3   0   7 12185.1 476.526   4
   3   0   7 11866.9 702.245   2
  -3   0  -7 11513.5 855.678   6
   3   0   7 10988.5 663.437   6
   3   0   7 11422.3 485.244   1
   3   0   7 11431.6 830.707   5
   3   0   8 94.3666 96.9800   5
   3   0   8 86.0227 59.6390   4
  -3   0  -8 121.139 60.5188   4
   3   0   8-45.9575 61.8160   2
  -3   0  -8 79.7987 54.9666   6
   3   0   8 137.908 87.2107   6
   3   0   8 73.8572 48.0809   1
   3   0   9 14985.2 656.638   4
  -3   0  -9 15432.9 890.147   4
   3   0   9 12812.3 601.107   1
  -3   0  -9 15570.9 1133.41   6
   3   0   9 12527.3 1007.67   5
   3   0  10 249.399 151.691   5
   3   0  10 205.374 82.7871   4
  -3   0 -10 185.794 84.3802   6
   3   0  10 289.392 98.6257   1
   3   0  11 13477.3 716.133   4
  -3   0 -11 15979.3 1138.61   4
  -3   0 -11 15231.2 1293.19   6
   3   0  11 13243.3 1153.72   5
   3   0  12 110.503 75.9339   5
   3   0  12 3.03893 43.2636   4
  -3   0 -12-42.5931 203.408   6
   3   0  13 2880.03 362.988   4
  -3   0 -13 3253.31 697.164   6
   3   0  13 3098.45 607.471   5
   3   0  14-127.213 172.630   5
  -3   0 -14-54.5636 157.192   6
  -3   0 -15 1151.94 476.529   6
  -3  -1  12 721.493 232.478   4
   3   1 -12 634.723 274.410   2
  -3  -1  11 2805.43 447.777   4
   3   1 -11 2492.65 512.447   2
  -3  -1  10 205.647 125.072   4
   3   1 -10 354.165 228.935   2
  -3  -1   9 6296.04 602.312   4
   3   1  -9 7518.54 894.725   2
  -3  -1   8 208.346 211.961   3
  -3  -1   8 117.130 110.245   4
   3   1  -8 1.67955 144.635   2
  -3  -1   7 5514.64 518.712   4
   3   1  -7 5754.59 789.948   2
  -3  -1   7 5722.74 779.640   3
  -3  -1   6-20.2805 80.2357   3
  -3  -1   6 8.72357 157.345   2
  -3  -1   6-14.7662 51.2691   4
   3   1  -6-114.668 119.102   4
   3   1  -6 292.865 281.623   2
  -3  -1   5 20583.5 933.882   4
   3   1  -5 22977.4 1239.10   4
   3   1  -5 18750.5 1316.25   2
   3   1  -5 18327.7 915.470   3
  -3  -1   5 25190.7 1701.41   2
  -3  -1   5 21375.9 1132.46   3
   3   1  -4 1466.21 337.637   2
  -3  -1   4 1493.84 230.273   4
  -3  -1   4 1753.61 255.824   3
   3   1  -4 2145.75 282.644   3
   3   1  -4 1796.40 312.835   4
  -3  -1   3 96281.6 2232.60   4
   3   1  -3 99208.7 2527.98   4
  -3  -1   3 93752.5 2110.48   7
   3   1  -3 94181.7 2874.27   2
  -3  -1   3 101243. 2163.73   3
   3   1  -2 24988.4 1028.06   6
  -3  -1   2 24571.7 903.398   4
   3   1  -2 24824.6 1024.26   4
  -3  -1   2 23525.4 726.673   7
   3   1  -2 24093.5 1245.97   2
   3   1  -2 22593.1 1032.85   3
  -3  -1   1 35540.8 1052.46   4
   3   1  -1 34760.8 1144.08   4
   3   1  -1 34312.0 1221.66   6
   3   1  -1 33674.1 1027.11   3
  -3  -1   0 8593.54 426.979   4
   3   1   0 8030.70 457.346   4
  -3  -1   0 8143.05 531.161   6
   3   1   0 8371.08 550.498   6
   3   1   0 7816.48 440.143   3
   3   1   1 1456.25 223.297   6
  -3  -1  -1 1740.59 166.315   4
   3   1   1 1768.58 195.728   4
  -3  -1  -1 1849.41 260.792   6
   3   1   1 1692.84 270.424   5
  -3  -1  -2 9650.60 611.802   6
  -3  -1  -2 9404.99 339.222   4
   3   1   2 9888.30 644.452   5
  -3  -1  -3 74645.1 1880.40   8
  -3  -1  -3 76184.1 2065.53   6
   3   1   3 76827.0 2103.05   5
   3   1   4 573.837 149.931   5
  -3  -1  -4 748.828 63.2790   1
  -3  -1  -4 525.518 130.538   6
  -3  -1  -5 149087. 2525.62   4
  -3  -1  -5 158464. 3545.18   6
   3   1   5 156782. 3540.56   5
  -3  -1  -6 13902.2 513.545   4
   3   1   6 13813.5 718.136   2
  -3  -1  -6 14284.3 909.892   6
   3   1   6 14827.5 899.871   5
  -3  -1  -7 39225.6 1153.03   4
   3   1   7 41431.1 1388.00   2
  -3  -1  -7 48389.1 1825.33   6
   3   1   7 41793.7 1384.36   6
   3   1   7 45280.8 1747.17   5
   3   1   8 512.339 174.624   5
   3   1   8 415.401 96.2216   4
  -3  -1  -8 346.822 103.758   4
   3   1   8 332.097 135.154   2
  -3  -1  -8 220.349 147.281   6
   3   1   8 399.923 62.4592   1
   3   1   9 5845.17 408.203   4
  -3  -1  -9 4946.53 464.851   4
   3   1   9 6326.22 543.553   2
   3   1   9 5085.68 289.345   1
  -3  -1  -9 6899.83 757.337   6
   3   1   9 5211.47 624.596   5
   3   1  10 1798.83 395.166   5
   3   1  10 1933.17 252.676   4
   3   1  10 1754.92 194.880   1
  -3  -1 -10 1753.43 409.763   6
   3   1  11 3480.31 357.441   4
  -3  -1 -11 2323.14 392.117   4
  -3  -1 -11 3218.04 595.528   6
   3   1  11 3920.39 616.564   5
   3   1  11 3287.78 295.068   1
   3   1  12 139.164 161.387   5
   3   1  12-26.1147 87.4500   4
  -3  -1 -12-214.451 161.255   4
  -3  -1 -12-35.4218 104.851   6
   3   1  13 2346.78 526.495   5
   3   1  13 2359.57 328.482   4
  -3  -1 -13 2356.81 611.643   6
   3   1  14 19.7967 150.048   5
   3   1  14 148.884 86.5322   4
  -3  -1 -14 55.9409 114.275   6
  -3  -1 -15 1701.01 592.048   6
  -3  -2  11 869.870 256.758   4
   3   2 -11 1257.38 374.814   2
   3   2 -10 2423.34 514.805   2
  -3  -2  10 2037.03 381.677   4
  -3  -2   9 2812.08 419.838   4
   3   2  -9 4200.39 702.507   2
  -3  -2   8 1962.33 429.838   7
  -3  -2   8 1932.95 329.516   4
  -3  -2   8 2017.69 471.675   3
   3   2  -8 3319.67 603.779   2
  -3  -2   7 15708.3 933.108   4
  -3  -2   7 15532.3 1139.14   7
  -3  -2   7 14743.2 1133.65   3
  -3  -2   6 752.735 236.160   3
  -3  -2   6 656.677 184.932   4
  -3  -2   6 799.405 240.738   7
   3   2  -6 758.127 330.125   2
  -3  -2   5 48322.9 1687.39   4
   3   2  -5 56239.2 2138.70   4
  -3  -2   5 50672.9 1837.53   7
   3   2  -5 47843.3 2308.17   2
  -3  -2   5 53852.4 1612.77   3
  -3  -2   5 59325.5 2691.03   2
   3   2  -4 3913.96 612.715   2
  -3  -2   4 3081.87 357.723   4
   3   2  -4 3371.98 451.660   4
  -3  -2   4 2943.28 366.443   7
  -3  -2   4 3471.60 267.567   3
  -3  -2   3 16225.9 816.960   4
   3   2  -3 16383.4 961.682   4
  -3  -2   3 15903.0 769.493   7
   3   2  -3 15866.1 1140.31   2
   3   2  -3 15721.1 784.251   6
   3   2  -2 2189.10 401.660   2
   3   2  -2 1976.72 309.959   4
  -3  -2   2 1599.71 237.470   4
  -3  -2   2 1663.92 203.522   7
   3   2  -2 1816.42 249.105   6
   3   2  -2 2423.88 194.323   3
   3   2  -1 603.370 82.9910   3
   3   2  -1 237.627 170.579   2
  -3  -2   1 689.867 152.630   4
   3   2  -1 529.627 132.392   6
   3   2  -1 697.452 175.618   4
  -3  -2   1 565.290 179.762   5
  -3  -2   0 17721.2 743.940   4
   3   2   0 17473.4 776.589   4
   3   2   0 17246.7 569.373   7
  -3  -2   0 18010.6 792.025   6
   3   2   0 17254.2 779.008   6
  -3  -2   0 19653.4 969.979   5
  -3  -2  -1 39441.9 1139.39   4
  -3  -2  -1 41128.1 1319.34   6
   3   2   1 39282.8 1252.92   6
   3   2   1 39020.9 1425.37   5
  -3  -2  -1 41806.7 1425.81   5
  -3  -2  -2 36768.4 1286.80   6
   3   2   2 34834.2 1192.04   6
   3   2   2 36082.3 1345.02   5
  -3  -2  -3 186637. 3789.56   6
  -3  -2  -3 182686. 3206.23   4
   3   2   3 182745. 3866.79   5
  -3  -2  -4 7755.74 589.656   6
   3   2   4 7421.25 595.908   5
  -3  -2  -5 55304.7 1179.41   4
  -3  -2  -5 59306.8 1895.09   6
   3   2   5 56478.3 1856.49   5
   3   2   6 1709.32 307.654   5
  -3  -2  -6 2020.06 183.545   4
  -3  -2  -6 1870.86 316.649   6
  -3  -2  -7 44336.5 1177.28   4
   3   2   7 39001.0 1338.08   2
   3   2   7 41070.6 1353.73   6
   3   2   7 43442.1 1745.63   5
  -3  -2  -7 45144.8 1796.74   6
   3   2   8 530.148 180.797   5
  -3  -2  -8 389.666 97.8057   4
   3   2   8 423.782 122.647   2
  -3  -2  -8 676.531 216.446   6
   3   2   8 198.856 128.921   3
   3   2   9 5046.94 470.329   2
  -3  -2  -9 5587.62 693.788   6
   3   2   9 5217.32 637.721   5
   3   2  10 575.032 80.8955   1
   3   2  10 588.905 216.503   5
   3   2  10 456.751 76.8311   1
  -3  -2 -10 826.993 304.611   6
   3   2  11 5880.07 377.030   1
   3   2  11 6429.57 340.862   1
  -3  -2 -11 7878.95 963.290   6
   3   2  11 6671.20 810.562   5
  -3  -2 -12 410.683 194.080   6
   3   2  12 364.776 201.244   5
  -3  -2 -12 191.792 122.561   4
  -3  -2 -13 6465.99 1009.55   6
   3   2  13 6123.44 849.951   5
  -3  -2 -14-8.27930 143.756   6
   3   2  14 209.232 140.136   5
  -3  -2 -15 940.367 445.632   6
   3   3 -11 2197.05 526.090   2
  -3  -3  11 2344.20 424.269   4
   3   3 -10 1358.09 420.472   2
  -3  -3  10 1401.85 333.284   4
  -3  -3   9 3739.38 503.162   4
   3   3  -9 4713.16 729.093   2
  -3  -3   8 3288.58 443.576   4
   3   3  -8 5098.29 803.471   2
  -3  -3   7 2911.65 511.179   7
  -3  -3   7 3108.09 440.896   4
  -3  -3   7 3221.95 440.286   3
   3   3  -7 2883.80 592.118   2
  -3  -3   6 217.931 102.853   3
  -3  -3   6 104.317 71.9826   4
  -3  -3   6-101.221 126.507   7
   3   3  -6 143.718 173.938   2
  -3  -3   5 7967.87 660.485   4
   3   3  -5 9741.46 1068.51   2
   3   3  -5 7871.50 557.637   6
  -3  -3   5 8480.40 344.317   3
   3   3  -4 2487.52 489.756   2
  -3  -3   4 2158.18 340.765   4
   3   3  -4 2958.18 469.996   4
  -3  -3   4 2242.46 477.947   2
  -3  -3   4 2125.85 326.745   7
   3   3  -4 2444.02 283.591   6
  -3  -3   3 62909.0 1957.47   4
   3   3  -3 69418.2 2274.32   4
  -3  -3   3 63628.4 1871.50   7
   3   3  -3 62430.9 1676.88   6
   3   3  -3 65126.0 2630.28   2
  -3  -3   2 9258.84 544.835   7
  -3  -3   2 9380.58 655.723   4
   3   3  -2 9698.82 706.922   4
   3   3  -2 9871.91 898.347   2
  -3  -3   2 9779.89 781.454   5
   3   3  -2 9204.96 526.479   6
   3   3  -1 50615.0 1444.08   7
  -3  -3   1 51222.1 1627.05   4
   3   3  -1 51024.2 1677.91   4
   3   3  -1 54452.7 2051.65   2
   3   3  -1 50318.6 1400.05   6
  -3  -3   1 55112.5 1850.24   5
  -3  -3   0 17194.1 837.890   4
   3   3   0 16586.9 740.306   8
   3   3   0 15945.3 695.028   7
   3   3   0 18076.3 1050.39   2
  -3  -3   0 17408.1 762.143   6
   3   3   0 16696.1 561.478   3
  -3  -3   0 16900.6 894.574   5
   3   3   0 15753.9 699.445   6
  -3  -3  -1 64361.2 1689.77   6
   3   3   1 59107.4 1547.81   6
   3   3   1 61543.8 1894.67   5
  -3  -3  -1 64112.3 1835.58   5
   3   3   1 59360.9 1420.64   7
  -3  -3  -2 827.344 176.735   5
  -3  -3  -2 605.731 135.580   4
  -3  -3  -2 859.347 176.400   6
   3   3   2 571.960 129.174   6
   3   3   2 426.366 100.450   3
   3   3   2 771.391 177.967   5
  -3  -3  -3 12451.5 494.333   1
   3   3   3 9583.55 599.831   3
  -3  -3  -3 14949.0 803.251   6
   3   3   3 13069.6 779.056   5
   3   3   3 10336.6 576.696   6
  -3  -3  -3 13790.7 761.020   5
  -3  -3  -4 176.367 74.1895   5
  -3  -3  -4 238.023 114.871   6
  -3  -3  -4 187.630 55.8294   1
   3   3   4 200.858 112.824   3
   3   3   4 130.256 98.9567   5
  -3  -3  -5 120732. 3009.96   6
   3   3   5 118185. 3000.42   5
  -3  -3  -5 118478. 2801.08   5
  -3  -3  -5 118548. 2004.59   1
  -3  -3  -6 4353.04 295.986   4
   3   3   6 4055.62 498.428   3
  -3  -3  -6 4655.26 514.667   6
   3   3   6 4104.74 487.030   5
   3   3   7 16083.1 1023.00   5
  -3  -3  -7 15457.2 640.263   4
  -3  -3  -7 18165.6 1104.23   6
  -3  -3  -8 3648.69 326.492   4
   3   3   8 3250.35 348.001   2
   3   3   8 3172.10 467.136   3
  -3  -3  -8 3623.78 529.942   6
   3   3   8 3652.35 497.048   5
   3   3   9 15298.2 789.417   2
  -3  -3  -9 14718.9 1162.47   6
   3   3   9 14401.7 1098.55   5
   3   3  10-88.5105 114.882   5
  -3  -3 -10-21.5579 109.945   4
   3   3  10 22.7855 36.1609   2
  -3  -3 -10-57.3347 141.081   6
  -3  -3 -11 16844.8 1005.82   4
  -3  -3 -11 21504.9 1609.56   6
   3   3  11 15133.5 457.873   1
   3   3  11 19534.1 1400.67   5
   3   3  12 110.056 117.014   5
  -3  -3 -12-72.4507 174.010   6
  -3  -3 -12 139.553 151.337   4
  -3  -3 -13 3134.77 696.918   6
   3   3  13 3194.21 624.277   5
   3   3  14 48.6878 96.5904   5
  -3  -3 -14-220.146 217.310   6
  -3  -4  10 107.729 121.765   4
   3   4 -10-0.94296 162.850   2
  -3  -4   9 1236.30 315.498   4
   3   4  -9 1779.10 481.684   2
  -3  -4   8 1818.66 360.531   4
   3   4  -8 2106.63 492.203   2
  -3  -4   7 7220.67 722.210   4
   3   4  -7 7399.31 548.368   6
  -3  -4   6 362.652 143.821   7
  -3  -4   6 300.024 130.224   4
   3   4  -6 572.561 140.954   6
   3   4  -6 289.229 157.620   2
  -3  -4   5 15410.8 1011.00   4
   3   4  -5 16390.9 1396.45   2
   3   4  -5 15009.6 703.609   6
  -3  -4   5 15496.0 1051.50   7
  -3  -4   4 3816.26 479.156   4
  -3  -4   4 4312.15 700.260   2
   3   4  -4 3702.13 313.057   6
   3   4  -4 3908.11 680.254   2
   3   4  -3 12542.8 1170.97   2
  -3  -4   3 11095.0 810.563   4
   3   4  -3 10467.1 839.718   4
   3   4  -3 11008.9 528.600   6
   3   4  -2 19583.2 721.622   6
  -3  -4   2 20540.9 1095.37   4
   3   4  -2 20385.3 1132.26   4
   3   4  -2 20225.1 1120.18   8
   3   4  -2 19535.2 991.837   7
  -3  -4   2 19852.6 918.061   7
   3   4  -2 23748.0 1546.79   2
  -3  -4   2 20777.2 1150.83   5
  -3  -4   1 94312.3 2556.61   4
   3   4  -1 88239.8 2594.62   8
   3   4  -1 86437.7 2345.27   7
   3   4  -1 90278.9 2998.65   2
   3   4  -1 85827.4 1903.80   6
  -3  -4   1 90415.3 2497.68   5
   3   4   0 828.688 127.916   3
   3   4   0 608.012 118.710   6
  -3  -4   0 828.979 236.213   4
   3   4   0 764.151 295.162   2
   3   4   0 673.319 168.124   7
  -3  -4   0 743.514 154.384   6
  -3  -4   0 760.548 177.062   5
   3   4   1 34.5225 132.200   2
  -3  -4  -1 54.8836 50.7286   6
   3   4   1 22.3852 37.7399   6
   3   4   1-29.2018 160.940   3
   3   4   1-18.3006 71.4793   5
   3   4   1 100.881 61.1035   7
  -3  -4  -1 52.1127 29.1744   5
  -3  -4  -2 5411.84 479.557   4
  -3  -4  -2 5106.03 382.742   1
  -3  -4  -2 5438.41 354.876   8
  -3  -4  -2 5382.78 446.699   6
   3   4   2 4123.27 488.259   3
   3   4   2 5083.77 359.521   6
   3   4   2 5147.85 483.396   5
  -3  -4  -2 5413.25 470.608   5
   3   4   3 48941.7 1622.70   5
  -3  -4  -3 46396.3 1255.32   1
  -3  -4  -3 47201.1 1538.97   6
   3   4   3 42816.5 1246.67   6
  -3  -4  -3 46840.8 1504.15   5
   3   4   4 3703.03 450.976   3
  -3  -4  -4 5097.00 331.304   1
  -3  -4  -4 5632.83 511.848   6
   3   4   4 5189.99 503.818   5
  -3  -4  -4 7052.68 529.055   5
  -3  -4  -5 4963.27 507.208   6
  -3  -4  -5 4728.44 293.974   1
   3   4   5 4647.45 494.150   5
  -3  -4  -5 5176.22 455.591   5
   3   4   6 893.848 232.152   5
  -3  -4  -6 530.511 171.238   6
   3   4   6 416.414 169.700   3
  -3  -4  -7 27050.8 939.763   4
  -3  -4  -7 30654.7 1494.60   6
   3   4   7 29249.0 1418.38   5
   3   4   8 3682.68 347.081   2
   3   4   8 3210.48 489.100   3
  -3  -4  -8 4605.07 603.007   6
   3   4   8 3679.84 513.792   5
  -3  -4  -9 19973.5 879.263   4
   3   4   9 19209.7 875.867   2
  -3  -4  -9 20209.1 1403.99   6
   3   4   9 19729.9 1295.31   5
  -3  -4 -10 5136.08 460.894   4
   3   4  10 4732.05 458.554   2
   3   4  10 3572.97 178.921   1
  -3  -4 -10 5835.81 794.804   6
   3   4  10 5656.43 730.618   5
   3   4  11 1291.49 369.807   5
  -3  -4 -11 1514.49 273.966   4
  -3  -4 -11 1519.60 430.302   6
   3   4  12 1156.18 381.985   5
  -3  -4 -12 1565.06 466.403   6
  -3  -4 -13 4274.59 821.338   6
   3   4  13 4133.71 715.083   5
   3   4  14-52.4666 111.649   5
  -3  -4 -14-74.4859 258.386   6
  -3  -5   9 2634.77 475.219   4
   3   5  -9 3231.31 649.163   2
  -3  -5   8 17.2673 99.5224   4
   3   5  -8 153.894 216.142   2
  -3  -5   7 3610.34 532.646   4
   3   5  -7 3599.89 678.680   2
  -3  -5   6 482.490 215.700   4
   3   5  -6 388.472 72.3323   6
   3   5  -6 399.609 234.720   2
   3   5  -6 336.229 67.7628   6
  -3  -5   5 8861.39 814.347   4
   3   5  -5 7194.98 897.916   8
   3   5  -5 9771.27 1129.20   2
  -3  -5   5 7489.50 745.864   7
   3   5  -5 7800.83 333.809   6
  -3  -5   4 570.749 199.447   4
   3   5  -4 476.764 73.4439   6
   3   5  -4 366.176 177.543   8
  -3  -5   4 482.602 167.310   7
   3   5  -4 830.223 396.677   2
   3   5  -3 19432.2 1536.63   2
   3   5  -3 16779.2 1260.30   8
  -3  -5   3 16863.5 1095.27   4
  -3  -5   3 15248.1 926.200   7
   3   5  -3 16338.3 499.723   6
  -3  -5   3 17823.8 1114.00   5
  -3  -5   2 5195.67 584.391   4
   3   5  -2 5358.91 686.116   8
   3   5  -2 5141.48 781.972   2
   3   5  -2 5370.78 275.091   6
   3   5  -2 4816.29 540.311   7
  -3  -5   2 5127.80 542.837   5
  -3  -5   1 14638.8 1004.66   4
   3   5  -1 13032.5 1073.19   8
   3   5  -1 13232.4 885.220   7
   3   5  -1 15328.2 1253.04   2
   3   5  -1 12150.4 470.052   6
  -3  -5   1 13238.4 820.032   5
   3   5   0 841.123 243.214   2
  -3  -5   0 1124.94 218.453   1
   3   5   0 887.803 208.141   7
  -3  -5   0 766.250 212.146   4
   3   5   0 1122.39 141.921   6
  -3  -5   0 987.728 160.759   6
   3   5   0 1065.34 133.435   3
  -3  -5   0 1043.84 214.654   5
  -3  -5  -1 64720.6 2110.64   4
   3   5   1 62443.5 1903.80   7
  -3  -5  -1 63792.2 1693.24   6
   3   5   1 66379.8 2352.15   2
   3   5   1 58414.8 1429.61   6
   3   5   1 63320.5 2053.35   3
  -3  -5  -1 64518.9 1865.48   5
  -3  -5  -2-23.5233 58.8337   5
   3   5   2-20.0493 111.954   2
  -3  -5  -2 52.0428 63.1721   8
   3   5   2-27.1195 81.9049   7
  -3  -5  -2-93.9922 127.344   4
  -3  -5  -2-27.4105 53.9228   6
   3   5   2 77.9430 50.1020   6
   3   5   2 67.5044 71.3247   5
   3   5   2 190.446 179.558   3
  -3  -5  -3 7198.54 499.084   1
  -3  -5  -3 8563.98 614.224   6
  -3  -5  -3 7451.34 671.336   8
   3   5   3 8182.10 631.979   5
  -3  -5  -3 8481.51 581.038   5
  -3  -5  -4 12145.2 773.510   6
  -3  -5  -4 11269.8 600.982   1
   3   5   4 11709.2 780.333   5
  -3  -5  -4 11946.3 697.396   5
  -3  -5  -5 20131.6 1077.20   6
  -3  -5  -5 19360.7 760.276   1
   3   5   5 20876.3 1101.47   5
  -3  -5  -5 18332.8 885.471   5
  -3  -5  -6 4007.09 501.341   6
   3   5   6 2838.41 553.356   3
   3   5   6 3502.12 456.785   5
  -3  -5  -6 3065.66 284.502   1
  -3  -5  -7 42389.5 1298.69   4
   3   5   7 39238.9 1204.09   2
  -3  -5  -7 45447.8 1922.87   6
   3   5   7 43133.7 1803.27   5
   3   5   8 2218.56 413.845   5
  -3  -5  -8 2546.52 292.932   4
   3   5   8 2205.84 206.033   1
  -3  -5  -8 2878.02 498.266   6
   3   5   9 947.940 299.382   5
   3   5   9 725.462 114.454   1
  -3  -5  -9 862.983 183.961   4
  -3  -5  -9 572.938 221.815   6
   3   5   9 932.494 179.839   2
   3   5  10-40.7662 67.5803   5
   3   5  10 35.3367 43.3356   1
  -3  -5 -10 9.28240 60.2127   4
   3   5  10 84.6822 66.1970   2
  -3  -5 -10-99.0893 201.106   6
  -3  -5 -11 4262.67 450.315   4
  -3  -5 -11 4583.68 759.655   6
   3   5  11 5093.07 728.488   5
   3   5  11 3448.62 425.598   2
   3   5  12 638.622 248.946   5
  -3  -5 -12 318.173 181.742   6
  -3  -5 -13 3792.02 771.314   6
   3   5  13 4038.50 703.375   5
   3   5  14 3.11663 80.0046   5
  -3  -5 -14-243.908 292.786   6
   3   6 -10-138.733 236.216   8
   3   6  -9 559.517 315.522   2
   3   6  -9 266.761 212.781   8
  -3  -6   8 1356.93 364.308   4
   3   6  -8 1303.27 462.877   2
   3   6  -8 689.430 397.026   8
  -3  -6   7 5921.71 750.138   4
   3   6  -7 5101.59 947.503   8
   3   6  -7 5647.81 883.882   2
   3   6  -6 193.354 150.853   8
  -3  -6   6 284.041 125.758   4
  -3  -6   5 5888.23 718.476   4
   3   6  -5 5455.84 866.820   2
   3   6  -5 5482.43 893.746   8
   3   6  -4 351.518 167.793   8
  -3  -6   4-81.7292 135.381   4
   3   6  -4-174.190 304.147   2
  -3  -6   4 201.852 124.865   5
  -3  -6   3 8245.25 822.000   4
  -3  -6   3 7328.16 688.002   7
   3   6  -3 8185.17 1021.90   8
   3   6  -3 7409.82 771.736   7
   3   6  -3 7251.73 974.253   2
  -3  -6   3 7378.87 689.259   5
   3   6  -2-103.015 199.241   8
   3   6  -2 177.029 127.748   7
  -3  -6   2 364.429 198.820   4
   3   6  -2-111.103 182.435   2
  -3  -6   2 273.986 135.201   5
   3   6  -1 11089.5 1110.03   2
  -3  -6   1 11954.0 1057.71   4
  -3  -6   1 10408.8 782.470   1
   3   6  -1 10966.0 897.698   7
  -3  -6   1 10065.0 709.588   5
   3   6   0 638.404 343.227   2
   3   6   0 263.833 81.1749   3
  -3  -6   0 493.102 164.742   1
   3   6   0 499.471 192.853   7
  -3  -6   0 681.585 240.800   4
  -3  -6   0 425.021 103.930   6
  -3  -6   0 346.330 108.119   5
  -3  -6  -1 45193.2 1854.94   4
   3   6   1 41600.4 1685.54   7
  -3  -6  -1 42710.1 1581.59   1
   3   6   1 44254.6 2063.39   2
  -3  -6  -1 44296.3 1348.07   6
   3   6   1 42806.5 1505.93   3
  -3  -6  -1 43993.9 1458.30   5
  -3  -6  -2 2524.15 337.005   1
   3   6   2 2442.14 473.046   3
   3   6   2 2898.41 468.166   2
  -3  -6  -2 2991.97 439.316   4
  -3  -6  -2 2822.56 405.019   8
  -3  -6  -2 2294.20 298.495   6
   3   6   2 2601.09 360.904   5
  -3  -6  -2 2430.66 302.613   5
   3   6   2 2436.30 354.297   7
  -3  -6  -3 10010.0 888.533   8
   3   6   3 9854.80 817.935   2
  -3  -6  -3 11754.0 738.310   6
   3   6   3 8629.07 1163.16   3
   3   6   3 10569.1 734.232   5
  -3  -6  -3 10507.1 642.573   5
  -3  -6  -4 5699.71 537.029   6
   3   6   4 5131.18 519.753   5
  -3  -6  -4 4835.56 425.333   5
  -3  -6  -5 43718.9 1388.29   1
   3   6   5 42592.8 1676.35   5
   3   6   6 192.663 144.607   5
  -3  -6  -6 124.619 80.4664   6
   3   6   6-46.2540 268.632   3
  -3  -6  -6 178.276 66.8386   1
   3   6   7 1992.55 371.289   5
  -3  -6  -7 2349.33 308.205   1
   3   6   7 1924.97 214.105   2
  -3  -6  -7 2141.72 405.332   6
   3   6   8 79.4947 97.2682   5
   3   6   8 182.042 95.5151   1
  -3  -6  -8 102.131 60.9671   4
   3   6   8 115.381 59.6529   2
  -3  -6  -8-32.6299 101.130   6
  -3  -6  -9 14885.4 800.791   4
   3   6   9 13858.9 665.538   1
  -3  -6  -9 13746.1 1173.86   6
   3   6   9 14140.1 1125.67   5
   3   6  10 2840.51 332.004   2
   3   6  10 3190.44 301.582   1
  -3  -6 -10 3338.94 602.530   6
   3   6  10 3875.71 610.478   5
   3   6  11 1975.22 470.337   5
  -3  -6 -11 2518.83 561.023   6
   3   6  12 482.605 255.228   5
  -3  -6 -12 51.3758 192.377   6
   3   6  13 2281.81 573.532   5
  -3  -6 -13 1730.16 515.377   6
   3   6  14-90.3798 64.0297   5
   3   7  -9 617.524 431.938   8
   3   7  -8 95.8774 186.857   8
   3   7  -8 495.800 288.110   2
   3   7  -7-26.6296 222.067   8
  -3  -7   7 76.0778 70.4396   4
   3   7  -7 240.864 236.352   2
  -3  -7   6 134.942 163.381   4
   3   7  -6 73.3657 198.349   8
   3   7  -6 578.391 309.804   2
   3   7  -5 7718.38 1194.76   8
  -3  -7   5 9388.23 969.909   4
   3   7  -5 9499.32 1121.36   2
  -3  -7   4 38.9912 118.542   4
   3   7  -4 48.7051 123.089   8
   3   7  -4 474.576 259.008   2
  -3  -7   4 258.697 133.248   5
  -3  -7   3 5157.62 688.628   4
   3   7  -3 4909.28 890.740   8
   3   7  -3 5442.35 795.803   2
  -3  -7   3 5477.95 569.691   5
   3   7  -3 5800.26 732.275   7
   3   7  -2 1512.61 368.676   7
  -3  -7   2 2998.05 549.671   4
  -3  -7   2 1790.18 301.643   5
   3   7  -2 2672.04 579.036   2
   3   7  -1 11831.2 1161.52   2
  -3  -7   1 11671.1 734.281   5
   3   7  -1 11607.2 1018.16   7
  -3  -7   0 1871.66 245.263   3
   3   7   0 1843.94 381.743   7
  -3  -7   0 1604.29 368.265   4
  -3  -7   0 1908.75 194.775   6
  -3  -7   0 1763.47 264.762   5
   3   7   0 1995.29 464.860   2
  -3  -7  -1 5102.40 624.907   4
   3   7   1 4716.43 597.727   7
   3   7   1 5101.02 672.450   2
  -3  -7  -1 4874.84 528.681   1
  -3  -7  -1 4941.20 469.696   3
  -3  -7  -1 4796.82 390.943   6
   3   7   1 4821.18 468.429   3
  -3  -7  -1 5042.35 434.575   5
   3   7   2 768.578 299.132   2
  -3  -7  -2 551.095 135.563   5
   3   7   2 526.812 209.022   3
  -3  -7  -2 382.524 145.967   8
   3   7   2 276.676 131.262   7
  -3  -7  -2 532.724 188.981   4
  -3  -7  -2 495.722 172.691   1
  -3  -7  -2 483.917 133.586   6
  -3  -7  -2 283.121 76.7260   3
  -3  -7  -3 24042.9 1507.16   8
   3   7   3 23387.4 1293.36   7
   3   7   3 23938.8 1329.46   2
  -3  -7  -3 23887.5 1284.23   3
  -3  -7  -3 24676.8 1125.88   6
  -3  -7  -3 22903.2 1120.25   1
   3   7   3 23257.7 1159.77   5
  -3  -7  -3 23022.0 954.348   5
   3   7   4 2361.33 635.795   3
   3   7   4 2409.00 385.523   2
  -3  -7  -4 2992.00 395.817   6
  -3  -7  -4 3007.36 379.134   1
  -3  -7  -4 1714.86 341.155   3
   3   7   4 2516.98 364.112   5
  -3  -7  -4 2601.85 299.934   5
   3   7   5 344.915 156.800   2
  -3  -7  -5 291.068 136.665   1
  -3  -7  -5 574.895 192.086   6
   3   7   5 66.9951 188.632   3
   3   7   5 649.325 209.242   5
  -3  -7  -6 5417.57 609.795   6
   3   7   6 4684.28 560.307   5
   3   7   7 33610.1 952.200   2
   3   7   7 36294.7 1692.39   5
   3   7   8 152.347 125.697   5
   3   7   8 292.855 109.757   1
   3   7   8 363.444 92.7297   2
  -3  -7  -8 255.721 173.620   6
   3   7   9 8381.99 493.621   2
   3   7   9 7463.45 549.048   1
  -3  -7  -9 7514.70 883.372   6
   3   7   9 8216.09 854.272   5
   3   7  10 439.038 233.114   5
  -3  -7 -10 362.349 199.958   6
   3   7  10 326.804 117.513   1
   3   7  11 1428.26 399.374   5
  -3  -7 -11 1940.11 489.101   6
   3   7  12 210.944 229.988   5
  -3  -7 -12 10.6582 84.9454   6
   3   7  13 1739.79 480.880   5
  -3  -7 -13 2118.81 564.848   6
   3   8  -8 44.8993 322.781   8
   3   8  -7 764.417 446.065   8
   3   8  -7 868.513 375.314   2
   3   8  -6 2613.45 798.972   8
  -3  -8   6 2299.98 509.706   4
   3   8  -6 2472.36 550.342   2
   3   8  -5 419.450 343.969   8
  -3  -8   5 713.233 283.240   4
   3   8  -5 686.725 307.466   2
  -3  -8   4 357.968 204.474   4
   3   8  -4 360.350 191.768   2
  -3  -8   3 6394.60 840.218   4
   3   8  -3 7179.70 900.728   2
   3   8  -3 6135.42 810.339   7
   3   8  -2 1197.19 361.708   7
  -3  -8   2 1202.71 362.154   4
   3   8  -2 1490.49 392.352   2
   3   8  -1 3375.14 614.235   2
   3   8  -1 2623.35 519.519   7
  -3  -8   1 2856.82 273.933   3
   3   8   0 1485.21 376.313   7
  -3  -8   0 2358.49 479.772   4
  -3  -8   0 1569.51 254.647   3
  -3  -8   0 1836.99 252.304   5
   3   8   0 2102.51 457.211   2
  -3  -8  -1 8351.14 685.966   3
  -3  -8  -1 8658.89 905.088   4
   3   8   1 9846.62 924.547   2
   3   8   1 9070.46 929.783   7
   3   8   1 8242.59 632.912   3
  -3  -8  -1 8259.56 531.656   5
  -3  -8  -1 8337.32 504.469   6
  -3  -8  -2 864.454 158.960   5
  -3  -8  -2 1238.12 328.737   8
   3   8   2 1049.13 304.199   7
  -3  -8  -2 802.141 273.278   4
  -3  -8  -2 1162.44 215.640   6
  -3  -8  -2 865.387 220.544   3
   3   8   2 1432.65 330.235   2
   3   8   3 1444.08 385.649   3
  -3  -8  -3 2166.50 483.007   8
   3   8   3 1403.86 345.723   7
  -3  -8  -3 1909.75 306.435   6
  -3  -8  -3 1563.90 328.998   3
  -3  -8  -3 1756.91 230.827   5
   3   8   3 1955.73 367.400   2
   3   8   4 1612.43 510.923   3
  -3  -8  -4 1895.52 387.288   3
  -3  -8  -4 2275.33 363.296   1
  -3  -8  -4 2105.06 513.363   8
   3   8   4 1994.44 416.833   7
  -3  -8  -4 2196.25 352.670   6
   3   8   4 2525.38 374.476   5
   3   8   4 2074.40 346.091   2
   3   8   5 6655.18 1162.49   3
   3   8   5 6186.99 555.458   2
  -3  -8  -5 7409.23 851.370   3
  -3  -8  -5 8867.55 761.492   6
  -3  -8  -5 7814.26 663.392   1
   3   8   5 8038.61 695.648   5
   3   8   6 146.412 86.7722   2
   3   8   6 83.1374 27.7024   2
  -3  -8  -6-112.440 322.693   3
  -3  -8  -6 158.692 96.8682   6
  -3  -8  -6 94.2286 67.6841   1
   3   8   6 142.173 64.4261   5
  -3  -8  -7 6161.32 589.153   1
   3   8   7 6327.71 293.626   2
  -3  -8  -7 7412.65 795.878   6
   3   8   7 7452.87 737.447   5
   3   8   8 47.0005 85.9949   5
  -3  -8  -8 175.025 136.689   1
  -3  -8  -8 53.0100 54.1850   6
   3   8   9 3294.96 408.924   1
  -3  -8  -9 3570.21 611.453   6
   3   8   9 3686.31 582.856   5
   3   8  10-127.295 171.398   5
  -3  -8 -10-50.9679 136.808   6
   3   8  11 1794.55 452.055   5
  -3  -8 -11 1285.02 395.199   6
   3   8  12 157.988 82.6396   5
  -3  -8 -12-341.166 224.815   6
   3   8  13 2035.09 530.934   5
   3   9  -6 31.5178 153.366   2
   3   9  -5 576.469 286.206   2
  -3  -9   4 48.9153 146.713   4
   3   9  -4 536.201 233.987   2
   3   9  -3 2914.90 600.785   7
  -3  -9   3 2856.59 604.583   4
   3   9  -3 2796.77 512.624   2
   3   9  -2 802.087 314.383   7
  -3  -9   2 942.668 346.791   4
   3   9  -2 828.287 268.818   2
   3   9  -1 2051.33 497.251   7
  -3  -9   1 2531.44 577.740   4
   3   9  -1 2220.30 424.003   2
   3   9   0 2046.25 507.215   7
  -3  -9   0 2272.79 519.028   4
   3   9   0 1478.09 330.374   2
  -3  -9  -1 4785.42 730.803   4
   3   9   1 4208.46 509.550   2
   3   9   1 3991.75 673.623   7
  -3  -9  -1 4100.45 516.374   3
  -3  -9  -2 4722.77 708.990   4
   3   9   2 4194.51 468.710   2
   3   9   2 4580.60 706.010   7
  -3  -9  -2 4356.00 574.467   3
  -3  -9  -2 4974.79 442.774   6
   3   9   2 4020.16 533.762   3
   3   9   3 4655.63 675.703   3
   3   9   3 5703.32 496.153   2
   3   9   3 6057.75 782.897   7
  -3  -9  -3 4030.63 583.417   3
  -3  -9  -3 5965.80 549.271   6
   3   9   4 217.184 126.029   7
  -3  -9  -4 107.490 85.2212   6
  -3  -9  -4 58.3001 202.330   3
   3   9   4 227.575 98.3810   2
   3   9   4 92.5828 69.6837   5
   3   9   5 949.744 294.630   7
  -3  -9  -5 1908.51 358.326   6
  -3  -9  -5 1521.98 379.636   3
   3   9   5 1492.89 293.840   5
  -3  -9  -6 433.097 190.995   6
   3   9   6 440.550 182.243   5
  -3  -9  -7 501.834 223.075   3
  -3  -9  -7 1109.56 311.358   6
   3   9   7 989.657 262.352   5
  -3  -9  -8 71.2061 59.2754   6
   3   9   8 92.3011 108.830   5
  -3  -9  -9 1990.93 471.253   6
   3   9   9 2576.37 488.166   5
   3   9  10-30.0105 77.7591   5
  -3  -9 -10-154.056 173.893   6
   3   9  11 250.096 153.464   5
  -3  -9 -11 371.512 203.794   6
   3   9  12 491.722 253.467   5
   3   9  13 1179.47 400.816   5
   3  10  -5 520.995 257.398   2
   3  10  -4-86.1440 61.0559   2
   3  10  -3 368.217 260.862   7
   3  10  -3 308.222 163.598   2
   3  10  -2 8.50258 112.869   7
   3  10  -2-63.6576 72.3386   2
  -3 -10   2 154.248 268.381   4
   3  10  -1 2645.86 409.452   2
   3  10  -1 2509.44 584.085   7
  -3 -10   1 2994.18 706.903   4
   3  10   0 2489.16 368.194   2
  -3 -10   0 2275.31 574.566   4
   3  10   0 1944.01 501.634   7
   3  10   1 2379.30 549.400   7
  -3 -10  -1 1957.11 491.563   4
   3  10   2 1587.76 445.276   7
  -3 -10  -2 804.478 288.582   4
  -3 -10  -2 749.395 227.589   3
  -3 -10  -3 3036.84 620.428   4
   3  10   3 3002.87 612.963   7
  -3 -10  -3 3205.88 535.413   3
   3  10   4 207.968 113.139   7
  -3 -10  -4 285.991 145.582   6
  -3 -10  -4 420.676 206.182   3
   3  10   5 731.170 286.670   7
  -3 -10  -5 1077.49 271.579   6
  -3 -10  -5 519.148 222.703   3
   3  10   6 37.5071 152.466   7
  -3 -10  -6 78.2378 85.6722   6
  -3 -10  -6-29.9723 111.546   3
  -3 -10  -7 2620.23 501.457   6
  -3 -10  -7 2719.16 601.507   3
  -3 -10  -8 223.395 140.895   6
  -3 -10  -9 1439.62 405.413   6
  -3 -10 -10 325.728 183.201   6
  -3 -10 -11 50.5331 89.5982   6
   3  11  -2 243.824 203.718   7
   3  11  -1 810.231 365.602   7
   3  11   0-37.3525 149.177   7
   3  11   1 1595.78 485.678   7
  -3 -11  -1 870.702 338.549   4
   3  11   2 312.782 211.989   7
  -3 -11  -2 270.969 199.106   4
   3  11   3 1484.79 491.517   7
  -3 -11  -3 1286.25 430.929   4
   3  11   4 451.684 237.714   7
   3  11   5 2224.14 543.332   7
  -3 -11  -5 1393.69 374.945   3
   3  11   6 500.101 269.857   7
  -3 -11  -6-63.8880 235.786   3
   3  11   7 1127.35 438.968   7
  -3 -11  -7 1178.77 340.582   6
  -3 -11  -7 1143.53 390.671   3
   3  11   8 667.799 365.544   7
  -3 -11  -8 277.754 178.845   6
  -3 -11  -9 2190.72 520.435   6
  -3 -11 -10-144.397 147.710   6
  -4  10   6 1052.44 496.646   7
  -4  10   5-104.322 206.350   7
  -4  10   4 1014.20 535.235   7
  -4  10   3 155.582 220.929   7
  -4  10   2 1150.07 497.552   7
  -4  10   1 350.240 266.608   7
  -4  10   0 1712.22 615.873   7
  -4  10  -1 426.781 320.451   7
   4 -10   3 50.7690 115.571   4
   4 -10   4 452.952 233.888   4
  -4   9   8 1527.20 567.473   7
  -4   9   7-201.274 211.005   7
  -4   9   6 785.339 390.843   7
  -4   9   5 171.333 175.320   1
  -4   9   5 293.528 257.916   7
   4  -9  -5-154.710 580.590   3
  -4   9   4 3068.32 754.351   7
  -4   9   4 2631.37 622.615   1
   4  -9  -4 1375.52 599.894   3
  -4   9   3-21.0207 147.532   7
  -4   9   3 160.841 143.680   1
   4  -9  -3-34.9839 411.443   3
   4  -9  -2 1703.71 711.865   3
  -4   9   2 2610.66 675.355   7
  -4   9   2 2112.97 530.093   1
   4  -9  -1 113.383 165.890   3
  -4   9   1 617.172 389.545   7
  -4   9   1 116.792 178.484   1
   4  -9   0 977.961 485.859   3
  -4   9   0 965.974 413.930   7
  -4   9   0 1343.65 428.981   1
   4  -9   1 249.117 242.459   3
  -4   9  -1 281.696 167.207   1
   4  -9   2 4328.14 886.498   3
  -4   9  -2 5687.20 995.243   7
  -4   9  -2 4071.72 715.114   1
   4  -9   3 92.8200 158.378   3
  -4   9  -3-21.3228 102.175   7
  -4   9  -3-47.8346 57.7765   1
   4  -9   3-287.420 205.428   4
   4  -9   4 625.380 335.688   3
  -4   9  -4 1473.86 414.257   1
   4  -9   4 977.099 321.371   4
   4  -9   5-187.052 304.078   3
   4  -9   5-101.515 147.742   4
  -4   8   8 868.454 378.957   1
  -4   8   7 26.9358 112.793   7
  -4   8   7 212.979 146.478   1
   4  -8  -7 93.1489 290.342   3
  -4   8   6 2841.03 688.548   1
  -4   8   6 3501.26 758.096   7
   4  -8  -6 1690.98 730.158   3
  -4   8   5 544.915 288.637   1
  -4   8   5 578.594 290.333   7
   4  -8  -5-8.90283 302.283   3
  -4   8   4 5597.34 926.739   7
  -4   8   4 5864.35 914.212   1
   4  -8  -4 3576.62 972.023   3
   4  -8  -3 983.401 455.126   3
  -4   8   3 1260.00 428.675   1
  -4   8   3 1993.24 548.609   7
   4  -8  -2 1456.91 587.600   3
  -4   8   2 2744.54 658.208   7
  -4   8   2 2052.15 515.764   1
   4  -8  -1 1312.38 455.475   3
  -4   8   1 2218.93 590.844   7
  -4   8   1 2469.89 560.867   1
  -4   8   0 15373.4 1526.93   7
  -4   8   0 14172.2 1281.38   1
   4  -8   0 13119.4 1509.14   3
   4  -8   1 252.208 204.422   3
  -4   8  -1-46.7314 172.395   7
  -4   8  -1 277.283 102.000   1
  -4   8  -2 8601.30 1162.62   7
  -4   8  -2 9074.48 992.558   1
   4  -8   2 8318.61 1123.24   3
  -4   8  -3-46.5234 132.517   7
   4  -8   3-168.037 215.226   3
  -4   8  -3 138.599 134.884   1
   4  -8   4 2097.78 537.326   3
  -4   8  -4 1946.36 446.830   1
   4  -8   4 1379.01 350.692   4
   4  -8   5-67.7124 136.444   3
  -4   8  -5 6.97699 80.3809   1
   4  -8   5 41.5014 72.3405   4
   4  -8   6 4594.30 797.388   3
   4  -8   6 6243.59 852.113   4
   4  -8   7-31.4018 147.996   3
   4  -7  -9 393.239 429.848   3
  -4   7   9-24.3846 88.5246   1
  -4   7   8 2822.91 652.054   1
   4  -7  -8 2597.28 797.106   3
  -4   7   7 69.9111 103.885   1
   4  -7  -7 532.892 432.536   3
   4  -7  -6 1463.61 302.869   2
  -4   7   6 1707.62 498.401   7
  -4   7   6 1860.60 524.238   1
   4  -7  -6 706.613 337.807   3
   4  -7  -5-40.1711 106.429   2
  -4   7   5-235.775 212.871   1
  -4   7   5-225.913 276.882   7
   4  -7  -5-108.229 338.232   3
  -4   7   4 7269.11 949.869   7
   4  -7  -4 5321.87 529.488   2
  -4   7   4 5957.64 865.105   1
  -4   7   4 7022.04 860.328   5
   4  -7  -4 3999.81 941.106   3
   4  -7  -3 225.691 282.083   3
  -4   7   3 63.2527 106.029   1
  -4   7   3-140.093 156.466   7
  -4   7   3 137.453 112.752   5
   4  -7  -2 21790.6 2028.99   3
  -4   7   2 26003.9 1755.54   1
   4  -7  -1 183.669 197.980   3
   4  -7  -1 544.158 147.354   2
  -4   7   1 238.817 174.226   7
  -4   7   1 638.429 275.177   1
   4  -7   0 4470.14 773.093   3
   4  -7   0 3720.95 409.375   2
  -4   7   0 5205.22 807.471   7
  -4   7   0 4688.95 681.923   1
  -4   7   0 4714.01 456.982   5
  -4   7  -1 335.460 111.636   5
   4  -7   1 739.229 336.666   3
  -4   7  -1 521.267 237.227   7
   4  -7   1 548.408 162.520   2
  -4   7  -1 398.641 221.598   1
   4  -7   2 8288.38 643.541   2
  -4   7  -2 11229.0 1208.85   7
   4  -7   2 9650.66 1095.64   3
  -4   7  -2 9811.03 980.663   1
   4  -7   3 39.4305 156.756   3
  -4   7  -3 216.420 175.409   1
  -4   7  -3 124.900 120.237   7
   4  -7   4 7631.80 779.136   4
  -4   7  -4 8213.07 868.386   1
   4  -7   4 8304.14 1001.68   3
   4  -7   5-200.796 180.513   3
  -4   7  -5 20.8453 52.7269   1
   4  -7   5-113.257 129.702   4
   4  -7   6 8513.89 910.839   4
   4  -7   6 6498.89 907.672   3
   4  -7   7-0.98994 74.5104   3
   4  -7   7-256.657 171.188   4
   4  -7   8 9530.60 1142.63   3
   4  -7   9-183.895 188.060   3
  -4   6  10 967.928 404.126   1
   4  -6 -10 1780.73 492.457   3
  -4   6   9 70.2463 98.6798   1
   4  -6  -9 390.594 331.496   3
  -4   6   8 777.314 343.136   1
   4  -6  -8 1023.32 514.558   3
   4  -6  -8 702.700 238.246   2
  -4   6   7 438.230 265.964   1
   4  -6  -7 428.383 392.946   3
   4  -6  -7 307.495 140.736   2
   4  -6  -6 1882.80 381.331   2
   4  -6  -6 1278.89 512.679   3
  -4   6   6 1839.75 494.110   1
   4  -6  -5 691.925 201.592   2
  -4   6   5 701.604 274.830   7
  -4   6   5 1040.47 350.251   1
  -4   6   4 24125.9 1656.78   5
   4  -6  -4 18964.1 1073.66   2
   4  -6  -4 19154.5 2015.32   3
  -4   6   4 19782.4 1547.13   1
  -4   6   4 24682.4 1594.76   7
   4  -6  -3-53.7101 152.228   3
  -4   6   3 166.698 161.673   7
  -4   6   3-59.3246 70.3099   5
   4  -6  -2 644.219 353.150   3
  -4   6   2 565.353 279.495   1
  -4   6   2 282.430 132.964   7
  -4   6   2 829.195 247.288   5
   4  -6  -1-8.28351 222.762   3
  -4   6   1 279.238 131.563   1
  -4   6   1 189.513 137.169   7
   4  -6   0 5204.66 466.112   4
  -4   6   0 6088.55 743.654   1
  -4   6   0 7298.15 876.440   7
   4  -6   0 5643.05 816.732   3
  -4   6  -1 158.782 93.4961   5
   4  -6   1-106.104 157.492   3
  -4   6  -1-69.5380 148.653   7
   4  -6   1-104.016 109.725   2
  -4   6  -1 202.613 155.525   1
   4  -6   2 18876.4 995.592   2
  -4   6  -2 21701.8 1556.54   7
   4  -6   2 19807.7 1236.33   6
  -4   6  -2 20245.1 1307.11   1
   4  -6   2 18996.3 1421.95   3
  -4   6  -2 19228.8 937.285   5
   4  -6   3 125.024 191.229   3
  -4   6  -3 86.6713 109.834   7
   4  -6   3 28.9263 68.0984   6
  -4   6  -3-190.462 148.124   1
   4  -6   4 10921.7 851.547   4
  -4   6  -4 11022.0 933.936   1
   4  -6   4 9598.65 815.133   6
   4  -6   4 10556.0 1061.27   3
   4  -6   4 10103.4 743.693   5
   4  -6   5 221.366 135.819   3
  -4   6  -5 118.065 89.1800   1
   4  -6   5 48.1945 73.6844   4
   4  -6   5 105.313 94.9849   6
   4  -6   5 129.086 96.3739   5
   4  -6   6 8593.39 830.943   4
  -4   6  -6 7230.02 740.036   1
   4  -6   6 7153.07 883.341   3
   4  -6   6 7390.44 655.038   5
   4  -6   7-102.483 183.700   3
   4  -6   7-1.02486 66.5717   4
   4  -6   7-76.5008 84.9728   5
   4  -6   8 14529.5 991.083   4
   4  -6   8 13797.2 1292.21   3
   4  -6   8 13710.5 1001.73   5
   4  -6   9 20.6189 141.073   3
   4  -6  10 3096.66 666.348   3
  -4   5  11-155.695 232.157   1
   4  -5 -11 32.5475 109.978   3
  -4   5  10 285.020 239.062   1
   4  -5 -10 554.505 266.074   3
   4  -5 -10 310.161 172.878   2
  -4   5   9 38.0339 130.514   1
   4  -5  -9 78.0125 167.730   3
   4  -5  -9 273.619 159.992   2
  -4   5   8 5901.83 931.739   1
   4  -5  -8 4892.75 639.217   2
   4  -5  -8 5239.84 922.088   3
   4  -5  -7 260.031 135.744   2
  -4   5   7 528.483 286.891   1
   4  -5  -7 654.230 558.360   3
   4  -5  -6 2549.51 440.252   2
  -4   5   6 2611.71 593.273   1
   4  -5  -6 1375.29 491.771   3
   4  -5  -5 2475.43 423.138   2
  -4   5   5 2833.13 588.907   1
  -4   5   4 857.791 323.173   1
   4  -5  -4 1057.20 263.791   2
  -4   5   4 935.787 279.956   7
  -4   5   4 1289.33 388.660   5
   4  -5  -4 1529.14 583.663   3
   4  -5  -3 761.230 391.715   3
  -4   5   3 220.733 144.470   7
  -4   5   3 337.292 182.129   1
  -4   5   3 368.381 189.523   5
   4  -5  -2 28262.8 1137.94   4
  -4   5   2 32167.0 1619.84   7
   4  -5  -2 25939.8 1904.17   3
  -4   5   2 31532.8 1595.12   5
  -4   5   2 27670.1 1675.56   1
   4  -5  -1 296.994 202.605   3
   4  -5  -1 325.564 112.568   4
  -4   5   1 97.0442 71.9300   1
   4  -5   0 11700.7 664.008   4
  -4   5   0 14065.2 1092.18   7
   4  -5   0 12528.3 1000.09   6
   4  -5   0 11820.8 1108.71   3
  -4   5   0 13562.4 1051.81   1
  -4   5  -1-103.041 128.598   1
   4  -5   1-93.8296 168.772   3
  -4   5  -1 73.0332 82.0837   7
   4  -5   1-51.4190 86.3291   6
   4  -5   2 7047.47 599.252   2
  -4   5  -2 8336.61 863.288   7
   4  -5   2 6654.77 628.770   7
   4  -5   2 8359.59 764.024   6
  -4   5  -2 7140.01 711.552   1
   4  -5   2 7896.76 868.007   3
   4  -5   3 1795.43 403.653   3
   4  -5   3 1851.00 300.324   2
   4  -5   3 2283.53 387.282   6
  -4   5  -3 1738.16 350.238   1
   4  -5   3 2236.95 343.863   5
  -4   5  -3 2349.32 458.475   7
   4  -5   4 11562.2 795.904   4
  -4   5  -4 11398.0 894.210   1
   4  -5   4 12726.0 911.261   6
   4  -5   4 11558.1 1043.90   3
   4  -5   4 11816.5 807.836   5
  -4   5  -5 62.2672 70.2305   1
   4  -5   5 95.8261 77.4811   4
   4  -5   5 32.7150 31.8003   6
   4  -5   5 1.69516 49.5454   5
  -4   5  -6 428.412 161.227   1
   4  -5   6 290.698 134.467   3
   4  -5   6 724.250 214.072   4
   4  -5   6 641.275 194.840   6
   4  -5   6 391.055 150.614   5
   4  -5   7-3.28150 71.1107   4
  -4   5  -7-6.28081 83.8484   6
   4  -5   7-71.2017 79.5584   5
   4  -5   8 6849.38 603.797   4
  -4   5  -8 7151.32 1379.36   8
  -4   5  -8 6573.58 694.257   6
   4  -5   8 6369.51 688.411   5
   4  -5   9 78.5536 108.057   5
  -4   5  -9 170.612 297.224   8
   4  -5   9-57.2631 53.4351   4
  -4   5  -9 85.0033 126.791   6
  -4   5 -10 9904.68 1793.54   8
  -4   5 -10 12547.1 1039.87   6
   4  -5  10 10334.0 978.255   5
   4  -5  11-66.1679 145.795   5
  -4   5 -11 339.909 361.646   8
   4  -4 -12 852.375 373.920   3
   4  -4 -12 409.970 167.136   2
   4  -4 -11 142.678 188.031   3
   4  -4 -11 232.573 147.798   2
  -4   4  11 115.089 210.038   1
   4  -4 -10 2344.76 501.805   3
   4  -4 -10 2347.29 459.771   2
  -4   4  10 2735.88 690.157   1
  -4   4   9 626.689 308.936   1
   4  -4  -9 633.489 350.316   3
   4  -4  -9 133.006 104.975   2
  -4   4   8 3799.96 758.493   1
   4  -4  -8 3392.38 566.582   2
   4  -4  -8 3625.69 715.094   3
   4  -4  -7 757.141 284.100   2
  -4   4   7 1338.12 468.349   1
   4  -4  -7 839.917 446.072   3
   4  -4  -6 697.541 254.220   2
  -4   4   6 822.426 327.400   1
   4  -4  -6 160.516 301.995   3
   4  -4  -5 2403.01 422.562   2
  -4   4   5 3155.26 641.094   1
   4  -4  -5 2555.26 638.327   3
  -4   4   4 33363.9 1999.56   1
   4  -4  -4 32146.8 1261.92   4
   4  -4  -4 28957.1 1417.56   2
   4  -4  -4 28807.8 2183.81   3
   4  -4  -3 2858.58 663.339   3
   4  -4  -3 3189.11 359.362   4
  -4   4   3 3537.08 468.216   7
  -4   4   3 2811.71 518.555   1
  -4   4   3 3620.42 630.935   3
  -4   4   3 3349.69 574.606   5
   4  -4  -2 15494.8 770.853   4
  -4   4   2 18387.9 1066.73   7
   4  -4  -2 15309.3 1118.26   6
   4  -4  -2 14677.5 1295.88   3
  -4   4   2 18517.4 1341.72   3
  -4   4   2 16900.0 1172.06   5
  -4   4   2 13955.8 1139.12   1
   4  -4  -1 546.688 233.683   3
   4  -4  -1 723.527 154.349   4
  -4   4   1 586.215 199.896   7
   4  -4  -1 667.805 226.506   6
  -4   4   1 999.985 265.675   1
  -4   4   1 741.619 213.231   5
   4  -4   0 1762.77 228.910   4
   4  -4   0 1586.04 383.707   3
  -4   4   0 1790.38 342.456   7
  -4   4   0 1679.94 355.276   1
   4  -4   0 1614.67 345.315   6
   4  -4   1 4843.87 374.053   4
   4  -4   1 5470.46 906.343   8
  -4   4  -1 6180.81 658.073   7
   4  -4   1 5426.75 606.687   6
   4  -4   1 5236.90 650.026   3
  -4   4  -1 4980.86 576.508   1
   4  -4   2 21670.7 1248.01   1
   4  -4   2 22955.5 1771.55   8
  -4   4  -2 22371.6 1300.66   7
   4  -4   2 19940.2 1027.59   7
   4  -4   2 22251.7 1237.42   6
  -4   4  -2 22988.0 1213.34   1
   4  -4   2 23178.1 1387.02   3
   4  -4   2 19964.6 1089.58   5
   4  -4   3 53.6463 90.4017   3
   4  -4   3 211.179 99.9861   7
   4  -4   3 35.5336 55.1864   6
  -4   4  -3 129.920 55.5918   1
   4  -4   3 78.1863 55.6956   5
   4  -4   3 129.647 105.434   1
   4  -4   4 6092.23 603.047   1
   4  -4   4 6552.84 567.859   2
   4  -4   4 6535.74 521.663   4
   4  -4   4 6429.19 654.333   7
  -4   4  -4 6106.22 589.062   1
   4  -4   4 6141.22 617.164   6
   4  -4   4 5738.36 668.481   3
   4  -4   4 6029.67 580.042   5
  -4   4  -4 6239.76 540.768   5
  -4   4  -5 65.2057 69.3065   5
   4  -4   5 105.700 83.5028   1
  -4   4  -5 106.650 95.6548   1
   4  -4   5 62.8904 71.0156   4
  -4   4  -5 83.5691 111.382   6
   4  -4   5 278.739 138.139   6
   4  -4   5 63.9044 49.3275   5
   4  -4   6 3804.30 403.315   4
  -4   4  -6 3954.58 463.685   1
   4  -4   6 3880.93 475.338   6
  -4   4  -6 4183.17 527.061   6
   4  -4   6 3838.36 482.896   5
   4  -4   6 3309.73 443.644   1
  -4   4  -7 179.646 150.928   8
   4  -4   7 26.6784 60.4296   4
   4  -4   7 22.5389 40.8406   1
  -4   4  -7-10.6347 90.3896   6
   4  -4   7-67.7588 94.8517   6
   4  -4   7 55.0011 52.6258   5
   4  -4   8 3994.23 407.317   4
  -4   4  -8 3776.56 920.358   8
  -4   4  -8 4233.32 569.768   6
   4  -4   8 3334.12 468.184   1
   4  -4   8 3897.78 537.155   5
   4  -4   9 20.6668 116.566   5
  -4   4  -9 61.6337 266.595   8
   4  -4   9 95.7511 69.6165   4
  -4   4  -9 168.606 146.798   6
   4  -4  10 6308.60 519.664   4
  -4   4 -10 6237.60 1292.91   8
  -4   4 -10 7003.75 794.518   6
   4  -4  10 5493.90 711.750   5
   4  -4  11-2.39957 124.590   5
  -4   4 -11-263.105 338.340   8
  -4   4 -11 38.1484 120.767   6
   4  -4  12 1328.26 400.165   5
  -4   4 -12 1234.06 643.570   8
  -4   4 -12 995.185 328.774   6
   4  -4  13 7.16665 188.789   5
   4  -3 -12 1036.61 307.330   2
  -4   3  11-198.923 192.087   4
   4  -3 -11-36.9184 93.6391   3
   4  -3 -11 204.565 170.275   2
  -4   3  10 542.966 214.842   4
   4  -3 -10 1003.16 322.558   3
   4  -3 -10 923.155 293.708   2
  -4   3   9 148.552 126.374   4
   4  -3  -9 211.524 184.343   3
   4  -3  -9-38.3810 93.3861   2
   4  -3  -8 7104.96 831.291   2
   4  -3  -8 6274.21 821.440   3
   4  -3  -7-140.227 190.932   2
  -4   3   7-57.1534 116.456   4
   4  -3  -7 383.807 347.654   3
  -4   3   6 29284.3 1427.75   4
   4  -3  -6 25178.4 1473.24   2
  -4   3   5 10541.8 830.347   4
  -4   3   5 10096.2 1105.16   1
   4  -3  -5 9903.54 848.566   2
  -4   3   5 10528.3 1125.89   3
   4  -3  -5 6711.75 1072.82   3
  -4   3   4 2113.94 540.604   1
   4  -3  -4 1753.20 282.326   4
  -4   3   4 1488.99 392.858   3
   4  -3  -4 1826.16 346.605   2
   4  -3  -4 1454.26 341.341   3
   4  -3  -3 74.9768 150.273   3
  -4   3   3-3.44456 106.195   3
   4  -3  -3 46.0108 43.5657   4
  -4   3   3-64.7949 115.652   1
  -4   3   3 46.8855 81.3216   5
  -4   3   2 38235.4 1964.81   1
   4  -3  -2 34983.3 1207.18   4
  -4   3   2 38589.6 1392.96   7
   4  -3  -2 38897.6 1755.57   6
  -4   3   2 39930.0 1877.17   3
  -4   3   2 40684.3 1872.62   5
   4  -3  -1 437.208 153.316   3
   4  -3  -1 483.320 119.292   4
  -4   3   1 425.325 205.581   1
  -4   3   1 442.099 143.369   7
   4  -3  -1 516.312 178.800   6
  -4   3   1 337.296 151.872   5
   4  -3   0 76915.9 1822.47   4
  -4   3   0 82215.6 2349.43   7
   4  -3   0 84145.8 2611.57   6
   4  -3   0 78270.2 2641.03   3
  -4   3   0 79147.2 2547.84   1
   4  -3   1-61.6583 133.514   3
   4  -3   1 41.8800 23.9163   4
   4  -3   1-55.6896 179.423   8
  -4   3  -1 105.942 95.8130   7
  -4   3  -1 44.6223 54.2812   1
   4  -3   1 39.7435 64.8472   6
   4  -3   2 13.5264 111.921   3
  -4   3  -2-1.53419 65.7382   1
   4  -3   2 61.9909 40.8025   4
   4  -3   2 144.175 133.711   8
  -4   3  -2 170.015 127.146   7
   4  -3   2 36.4703 39.3957   6
   4  -3   2 4.14179 78.7035   5
   4  -3   2 67.2133 33.0733   7
   4  -3   3 269.848 154.333   8
   4  -3   3-191.494 161.928   3
   4  -3   3-135.694 96.8637   7
  -4   3  -3-5.11368 89.3976   6
   4  -3   3 147.441 111.178   6
   4  -3   3 75.0085 94.0865   1
  -4   3  -3 70.3481 74.6055   1
   4  -3   3 39.2021 91.1455   5
   4  -3   4 34955.0 1451.64   1
   4  -3   4 35576.6 1142.35   4
   4  -3   4 31739.5 1461.42   7
  -4   3  -4 34099.6 1514.49   6
  -4   3  -4 34162.9 1344.33   1
   4  -3   4 35853.1 1523.79   6
   4  -3   4 36011.7 1499.53   5
  -4   3  -4 36117.1 1400.00   5
   4  -3   5 2752.30 306.637   4
   4  -3   5 2132.11 335.256   2
  -4   3  -5 2257.22 325.074   1
   4  -3   5 1887.18 358.637   7
   4  -3   5 2545.88 383.922   6
  -4   3  -5 2035.63 361.357   6
   4  -3   5 2188.59 360.847   5
  -4   3  -5 2217.56 327.080   5
   4  -3   5 1904.37 320.905   1
  -4   3  -6 12259.1 752.298   1
   4  -3   6 11583.9 597.993   4
  -4   3  -6 11149.4 1386.54   8
   4  -3   6 10622.7 939.260   7
  -4   3  -6 11770.3 899.152   6
   4  -3   6 12125.7 847.751   6
   4  -3   6 11481.0 855.392   5
   4  -3   6 11829.9 767.083   1
   4  -3   7 174.525 110.878   5
  -4   3  -7-63.7955 133.861   8
   4  -3   7 298.287 97.5806   4
  -4   3  -7 209.727 143.801   6
   4  -3   7 8.31788 64.0193   1
   4  -3   7 163.246 99.6886   6
   4  -3   8 7564.66 482.980   4
  -4   3  -8 7593.96 1235.36   8
   4  -3   8 6620.93 588.746   1
   4  -3   8 6659.81 705.626   5
  -4   3  -8 7123.86 740.754   6
   4  -3   9-87.5039 89.0663   5
   4  -3   9-97.3102 79.5323   4
  -4   3  -9-12.5177 254.091   8
   4  -3   9-10.5527 65.6232   1
  -4   3  -9-27.0173 54.8886   6
   4  -3  10 4514.63 375.695   4
  -4   3 -10 5804.17 1150.94   8
  -4   3 -10 5019.89 686.875   6
   4  -3  10 4738.53 666.601   5
   4  -3  11-79.2765 94.9006   5
  -4   3 -11-57.4145 136.231   6
  -4   3 -11 243.628 273.161   8
  -4   3 -12 2289.91 806.459   8
   4  -3  12 1839.76 465.035   5
  -4   3 -12 1141.02 358.944   6
   4  -3  13 93.1024 133.860   5
  -4   3 -13-125.225 204.587   8
  -4   3 -13-61.9904 121.292   6
   4  -2 -12 1205.30 360.419   2
  -4   2  11 42.7006 85.9448   4
   4  -2 -11-174.881 137.962   2
  -4   2  10 1750.18 366.179   4
   4  -2 -10 2348.61 479.993   3
   4  -2 -10 2117.84 501.608   2
  -4   2   9 457.478 182.314   4
   4  -2  -9 485.427 223.278   3
   4  -2  -9 474.549 227.632   2
  -4   2   8 5447.07 607.345   4
   4  -2  -8 5524.27 757.938   2
   4  -2  -8 4722.38 631.130   3
  -4   2   7 10231.5 813.573   4
   4  -2  -7 9465.56 939.568   2
   4  -2  -7 9025.07 978.684   3
  -4   2   7 9556.78 1126.17   3
  -4   2   6 9126.99 732.052   4
   4  -2  -6 7747.18 832.962   2
   4  -2  -6 6848.61 982.626   3
  -4   2   6 9135.48 1021.29   3
  -4   2   5 2721.74 510.257   3
   4  -2  -5 1772.15 403.601   2
  -4   2   5 1721.63 303.160   4
   4  -2  -5 2015.29 330.836   4
  -4   2   4 36319.9 1433.81   4
   4  -2  -4 35693.7 1373.85   4
  -4   2   4 37534.8 1853.76   3
   4  -2  -4 33052.3 1582.91   2
   4  -2  -3 1723.06 438.519   3
   4  -2  -3 1867.25 264.894   4
  -4   2   3 2093.81 399.821   3
  -4   2   3 1707.00 269.848   4
   4  -2  -3 892.563 273.697   2
  -4   2   2 58920.8 1806.02   4
  -4   2   2 54400.9 2419.12   1
   4  -2  -2 56562.5 1605.85   4
  -4   2   2 62885.8 1607.12   7
   4  -2  -2 52227.1 2226.31   3
  -4   2   2 63083.4 2237.70   3
  -4   2   2 64052.3 2433.83   5
  -4   2   1-13.1345 106.855   1
   4  -2  -1-99.7654 180.974   3
   4  -2  -1 144.674 77.9741   4
  -4   2   1-53.5297 104.369   7
  -4   2   1 42.2589 61.3055   5
  -4   2   0 13630.8 981.845   1
   4  -2   0 12567.1 559.375   4
  -4   2   0 13285.7 704.691   7
   4  -2   0 12856.4 898.556   3
  -4   2  -1 33.2686 82.0762   1
   4  -2   1-62.8992 86.0823   3
   4  -2   1 6.33593 27.5083   4
  -4   2  -1 32.5243 69.3485   7
   4  -2   1-59.1504 108.785   5
   4  -2   2 74782.1 1535.63   4
   4  -2   2 73158.1 1914.17   7
  -4   2  -2 73551.8 2268.43   6
   4  -2   2 77305.4 2363.34   6
   4  -2   2 74420.5 2353.76   3
   4  -2   2 70906.4 2267.66   5
  -4   2  -2 77750.0 2155.50   1
   4  -2   3 10077.3 388.104   4
   4  -2   3 10033.3 672.504   7
  -4   2  -3 11126.2 792.058   6
   4  -2   3 11422.5 815.824   6
  -4   2  -3 10614.3 670.365   1
   4  -2   3 10338.7 750.766   5
   4  -2   4 39842.3 1495.07   1
   4  -2   4 38132.8 1535.28   7
   4  -2   4 41136.4 1037.59   4
  -4   2  -4 40233.3 1650.58   6
   4  -2   4 42391.5 1648.30   6
  -4   2  -4 40697.1 1347.04   1
   4  -2   4 39232.0 1593.83   5
  -4   2  -4 42144.3 1551.83   5
  -4   2  -5 4.16713 73.6873   5
  -4   2  -5-183.290 201.408   8
   4  -2   5 27.1238 23.4951   4
  -4   2  -5 10.8078 37.9118   1
   4  -2   5 145.808 109.959   7
   4  -2   5 46.1389 61.3223   2
  -4   2  -5 0.46605 58.6281   6
   4  -2   5 105.625 71.8798   6
   4  -2   5 143.769 95.8990   1
   4  -2   5 115.981 97.6070   5
   4  -2   6 14095.8 515.418   4
   4  -2   6 14178.8 861.227   2
  -4   2  -6 13149.9 1345.22   8
  -4   2  -6 15136.8 745.608   1
   4  -2   6 12540.4 958.741   7
  -4   2  -6 13251.1 974.026   6
   4  -2   6 15095.8 927.213   6
   4  -2   6 13904.7 952.497   5
  -4   2  -6 13683.5 849.795   5
   4  -2   6 13330.0 749.705   1
   4  -2   7 251.487 169.479   5
  -4   2  -7 28.3873 185.547   8
  -4   2  -7 192.311 145.707   6
   4  -2   7 251.103 115.116   6
   4  -2   7 122.168 74.1052   1
   4  -2   7 101.750 36.9318   4
  -4   2  -8 5532.02 927.198   8
   4  -2   8 5068.81 318.871   4
  -4   2  -8 5308.46 650.170   6
   4  -2   8 4839.18 445.735   1
   4  -2   8 5231.19 619.839   5
   4  -2   9-132.237 161.244   5
   4  -2   9 6.41041 31.4543   4
  -4   2  -9 173.795 190.898   8
   4  -2   9 61.1407 36.9604   1
  -4   2  -9 23.2874 130.699   6
   4  -2  10 13495.8 624.226   4
  -4   2 -10 13176.7 1583.29   8
  -4   2 -10 13994.7 1170.18   6
   4  -2  10 13786.4 1149.53   5
   4  -2  11 380.303 174.326   5
   4  -2  11 290.088 93.5721   4
  -4   2 -11 234.147 158.366   8
  -4   2 -11 223.259 189.124   6
  -4   2 -12 2843.52 846.411   8
  -4   2 -12 3322.29 624.167   6
   4  -2  12 3270.79 614.333   5
   4  -2  13 104.525 185.446   5
  -4   2 -13-273.324 303.171   8
  -4   2 -13-51.8711 94.1961   6
  -4   2 -14 1005.60 383.550   6
   4  -1 -12 1073.27 356.658   2
  -4   1  11 450.801 208.836   4
   4  -1 -11 515.794 256.515   2
  -4   1  10 1400.09 320.011   4
   4  -1 -10 1556.50 457.528   2
  -4   1   9 207.567 128.448   4
   4  -1  -9 108.204 171.273   3
   4  -1  -9 171.296 209.628   2
  -4   1   8 5614.61 586.743   4
   4  -1  -8 4905.76 734.581   2
   4  -1  -8 5391.70 641.630   3
  -4   1   8 4462.97 777.297   3
   4  -1  -7 242.161 226.832   2
  -4   1   7-188.654 164.214   3
  -4   1   7-61.1213 98.5609   4
   4  -1  -7 8.71862 90.2225   3
  -4   1   6 14592.1 888.033   4
   4  -1  -6 13364.9 1175.50   2
   4  -1  -6 13953.6 1139.30   3
  -4   1   6 14953.8 1193.52   3
  -4   1   5 4534.52 465.089   4
   4  -1  -5 3653.42 561.618   2
   4  -1  -5 4891.96 548.901   4
  -4   1   5 4873.22 628.565   3
   4  -1  -5 3046.61 643.411   3
  -4   1   4 1907.10 297.828   4
  -4   1   4 2126.17 379.501   3
   4  -1  -4 1721.12 383.272   2
   4  -1  -4 1471.09 273.956   4
   4  -1  -4 1067.37 327.006   3
  -4   1   3 11579.7 701.368   4
   4  -1  -3 11554.0 731.487   4
   4  -1  -3 9302.54 824.945   2
   4  -1  -3 9309.95 926.306   3
  -4   1   3 11084.8 835.487   3
  -4   1   2 27577.9 1061.55   4
   4  -1  -2 25712.3 1047.88   4
  -4   1   2 27239.0 799.365   7
   4  -1  -2 26607.4 1324.30   6
   4  -1  -2 23233.6 1315.21   3
  -4   1   2 27943.5 1554.61   5
   4  -1  -1 1329.11 294.660   3
  -4   1   1 1020.59 185.033   4
   4  -1  -1 1165.00 183.325   4
  -4   1   1 1252.49 291.729   5
  -4   1   1 962.066 126.335   7
  -4   1   0 211693. 3920.73   4
   4  -1   0 204986. 3801.36   4
   4  -1   0 212252. 4521.96   3
   4  -1   1 23584.8 1124.14   3
  -4   1  -1 25309.5 1261.27   1
   4  -1   1 24560.1 737.818   4
   4  -1   1 21639.2 691.124   7
   4  -1   1 22747.9 1205.94   5
   4  -1   2 65766.3 1302.79   4
   4  -1   2 61114.1 2269.05   8
   4  -1   2 62324.1 1603.99   7
  -4   1  -2 63387.4 2047.45   6
   4  -1   2 63062.9 2093.15   5
  -4   1  -2 67606.5 1908.23   1
   4  -1   3 465.594 53.6459   4
   4  -1   3 361.656 119.773   7
  -4   1  -3 491.035 131.138   1
  -4   1  -3 372.387 159.683   6
   4  -1   3 367.222 71.7941   5
   4  -1   4 2307.44 323.704   7
  -4   1  -4 2398.89 361.658   6
   4  -1   4 2494.81 357.660   6
  -4   1  -4 2666.80 277.724   1
   4  -1   4 2540.60 368.934   5
  -4   1  -4 2009.43 323.043   5
  -4   1  -5 1008.50 349.714   8
   4  -1   5 910.355 214.071   7
  -4   1  -5 1433.33 191.033   1
  -4   1  -5 1320.97 287.502   6
   4  -1   5 1078.27 231.922   6
   4  -1   5 1215.60 215.415   1
  -4   1  -5 1614.81 284.920   5
   4  -1   5 1400.02 295.748   5
   4  -1   6 8434.58 544.191   1
   4  -1   6 7846.41 631.726   2
  -4   1  -6 8212.56 942.876   8
   4  -1   6 8097.96 724.764   7
  -4   1  -6 9228.59 779.540   6
   4  -1   6 8360.21 670.009   6
   4  -1   6 7879.68 706.801   5
  -4   1  -6 7940.47 645.137   5
  -4   1  -6 8499.89 474.606   1
   4  -1   7 1682.39 332.117   5
   4  -1   7 1801.00 364.643   7
   4  -1   7 2053.09 141.347   4
  -4   1  -7 1680.53 447.328   8
   4  -1   7 2216.50 332.881   6
  -4   1  -7 2032.84 379.575   6
   4  -1   7 1832.22 244.622   1
   4  -1   8 26079.6 711.063   4
  -4   1  -8 24873.4 1789.97   8
  -4   1  -8 25584.0 1460.02   6
   4  -1   8 23894.2 1419.98   5
   4  -1   8 24824.5 938.983   1
   4  -1   9 1210.47 313.110   5
   4  -1   9 1488.92 169.138   4
  -4   1  -9 1358.32 446.416   8
  -4   1  -9 1205.14 331.231   6
   4  -1   9 1308.83 202.681   1
   4  -1  10 14349.9 621.472   4
  -4   1 -10 13742.5 1458.21   8
  -4   1 -10 15332.1 1233.02   6
   4  -1  10 15362.0 1209.15   5
   4  -1  11 574.557 250.797   5
   4  -1  11 413.257 111.134   4
  -4   1 -11 614.110 328.680   8
  -4   1 -11 1084.15 353.820   6
  -4   1 -12 5885.24 878.316   6
   4  -1  12 6094.83 839.545   5
   4  -1  13 276.722 196.953   5
  -4   1 -13-77.6533 167.390   6
  -4   1 -14 1122.69 430.733   6
  -4   1 -15-48.5731 154.276   6
  -4   0  11 102.648 62.7058   4
   4   0 -11 141.926 159.396   2
  -4   0  10 2206.85 392.801   4
   4   0 -10 2518.24 583.658   2
  -4   0   9 244.511 142.852   4
   4   0  -9 175.573 177.400   2
  -4   0   8 887.144 311.444   3
  -4   0   8 919.449 236.891   4
   4   0  -8 989.574 256.989   3
   4   0  -8 986.523 338.577   2
  -4   0   7 16.8901 65.9406   3
  -4   0   7-104.148 117.848   4
   4   0  -7 72.7037 101.719   3
   4   0  -7 253.775 228.191   2
  -4   0   6 6536.42 565.098   4
   4   0  -6 6140.71 804.447   2
   4   0  -6 7108.24 651.130   3
  -4   0   6 6235.18 679.880   3
  -4   0   5 6991.55 563.471   4
   4   0  -5 7524.30 723.011   4
   4   0  -5 6860.85 821.368   2
   4   0  -5 7382.80 785.114   3
  -4   0   5 7480.70 689.587   3
  -4   0   4 32076.0 1221.09   4
   4   0  -4 34762.2 1497.44   4
   4   0  -4 30124.6 1619.50   2
  -4   0   4 35741.5 1447.12   3
  -4   0   3 13896.7 736.259   4
   4   0  -3 14358.2 876.284   4
   4   0  -3 14088.1 1020.63   2
   4   0  -3 14620.4 965.714   6
   4   0  -3 12432.8 1036.25   3
  -4   0   3 14604.7 841.187   3
  -4   0   2 28286.2 1022.32   4
   4   0  -2 27365.1 1134.58   4
   4   0  -2 26657.0 1295.97   6
   4   0  -2 28038.1 1413.93   2
   4   0  -2 25040.6 1277.42   3
  -4   0   1 1923.07 233.890   4
   4   0  -1 1790.21 249.379   4
   4   0  -1 2019.13 333.166   6
   4   0  -1 2135.08 324.056   3
  -4   0   0 16777.3 664.058   4
   4   0   0 16220.4 696.295   4
   4   0   0 16458.6 853.209   3
  -4   0  -1 885.030 128.220   4
   4   0   1 777.785 123.537   4
  -4   0  -1 834.066 196.757   6
   4   0   1 428.834 138.494   5
  -4   0  -2 44759.1 967.389   4
  -4   0  -2 45603.1 1590.71   1
   4   0   2 43904.1 1000.53   4
   4   0   2 44146.4 1525.89   8
   4   0   2 40750.2 1115.37   7
  -4   0  -2 43795.3 1622.79   6
   4   0   2 43774.7 1686.60   5
   4   0   3 1377.99 198.425   7
  -4   0  -3 1322.93 261.123   6
   4   0   3 1440.88 276.220   5
  -4   0  -3 1677.25 213.549   1
  -4   0  -4 74541.9 2339.85   6
  -4   0  -4 76299.2 1679.15   1
   4   0   4 74075.4 2309.57   5
  -4   0  -5 11948.7 990.529   8
  -4   0  -5 12879.2 504.250   1
  -4   0  -5 11860.5 866.534   6
   4   0   5 12492.3 814.092   6
   4   0   5 11936.7 865.314   5
  -4   0  -5 13098.4 838.259   5
  -4   0  -6 35161.9 1768.16   8
  -4   0  -6 36046.3 1629.36   6
   4   0   6 37862.3 1467.15   6
   4   0   6 37733.5 1631.55   5
  -4   0  -6 36773.1 1484.36   5
   4   0   7 2280.12 392.662   5
   4   0   7 1830.31 292.996   2
   4   0   7 2013.48 306.090   6
  -4   0  -7 2066.86 387.846   6
  -4   0  -7 1842.95 410.040   8
   4   0   8 1251.68 316.555   5
   4   0   8 1557.74 181.336   1
  -4   0  -8 1380.49 327.911   6
   4   0   9 69.8353 124.959   5
   4   0   9 157.342 44.5688   1
   4   0   9 110.528 41.9054   4
  -4   0  -9 271.608 92.4857   4
  -4   0  -9 301.143 174.081   6
   4   0  10 11195.5 529.430   4
  -4   0 -10 11907.8 702.269   4
  -4   0 -10 11545.8 1080.59   6
   4   0  10 11164.4 1028.81   5
   4   0  10 9876.84 480.598   1
   4   0  11 331.123 166.447   5
   4   0  11 577.569 120.652   4
  -4   0 -11 763.563 300.091   6
  -4   0 -12 5345.26 835.105   6
   4   0  12 5018.28 766.309   5
   4   0  13 817.166 317.030   5
  -4   0 -13 775.819 342.123   6
   4   0  14 1530.87 484.822   5
  -4   0 -14 1642.44 535.540   6
  -4   0 -15 170.231 175.999   6
   4   1 -11 283.631 199.271   2
  -4  -1  10 1164.88 297.243   4
   4   1 -10 1082.37 388.003   2
  -4  -1   9 624.042 212.362   4
   4   1  -9 875.233 373.496   2
  -4  -1   8 8429.61 707.580   4
  -4  -1   8 7772.32 835.781   7
   4   1  -8 7901.51 997.364   2
  -4  -1   7 9.97075 77.8719   3
  -4  -1   7 102.853 81.3529   7
  -4  -1   7 213.051 124.068   4
   4   1  -7 149.000 198.067   2
  -4  -1   6 13480.5 832.593   4
   4   1  -6 13463.2 1197.82   2
   4   1  -6 11563.8 774.632   3
  -4  -1   6 13469.9 893.828   3
   4   1  -5 2218.52 544.402   2
  -4  -1   5 1496.19 266.051   4
  -4  -1   5 1590.08 270.734   7
   4   1  -5 2134.81 313.490   3
  -4  -1   5 1984.71 300.161   3
   4   1  -4 2389.89 448.443   2
  -4  -1   4 2792.47 336.797   4
   4   1  -4 2405.25 392.070   4
  -4  -1   4 2608.52 301.450   7
   4   1  -4 2675.42 400.390   6
   4   1  -4 2686.23 419.094   3
  -4  -1   4 2612.65 303.721   3
   4   1  -3-27.1043 108.951   2
  -4  -1   3-91.2552 79.5049   4
   4   1  -3-54.6306 83.5069   4
   4   1  -3-85.8782 87.4289   6
   4   1  -3 13.7957 155.770   3
  -4  -1   3-29.5928 45.0797   7
   4   1  -2 2357.36 358.615   3
  -4  -1   2 2836.96 303.525   4
   4   1  -2 2793.85 355.132   4
   4   1  -2 2729.56 451.196   2
  -4  -1   2 2790.88 150.257   7
   4   1  -1 235.141 110.191   3
  -4  -1   1 112.177 65.2362   4
   4   1  -1 98.0209 67.0618   4
  -4  -1   0 60801.1 1488.80   4
   4   1   0 60277.7 1649.51   4
   4   1   0 60656.9 1669.68   3
  -4  -1  -1 5012.46 311.925   4
   4   1   1 5807.60 422.720   4
  -4  -1  -1 4720.24 476.176   6
   4   1   1 4281.93 516.506   5
  -4  -1  -2 73251.3 1459.13   4
   4   1   2 69878.2 1544.19   4
  -4  -1  -2 75178.0 2218.65   6
   4   1   2 73460.5 2290.88   5
  -4  -1  -3 30814.1 651.519   4
  -4  -1  -3 30711.6 1349.17   6
   4   1   3 31901.2 1402.03   5
  -4  -1  -4 132875. 3364.59   8
  -4  -1  -4 135120. 3432.68   6
   4   1   4 140541. 3490.43   5
  -4  -1  -4 141893. 2583.83   1
  -4  -1  -5 27.3106 73.5482   8
  -4  -1  -5 233.410 48.5544   1
  -4  -1  -5 51.4326 76.0664   6
   4   1   5 252.398 114.143   5
   4   1   6 1118.44 277.236   5
  -4  -1  -6 1177.00 254.163   5
  -4  -1  -6 932.401 239.465   6
   4   1   6 992.563 208.559   6
   4   1   7 21.4486 58.8379   5
  -4  -1  -7 94.8613 102.719   5
  -4  -1  -7 50.6590 28.9047   4
   4   1   7 107.838 65.4403   2
  -4  -1  -7 152.031 126.211   6
   4   1   7 170.201 94.6726   6
  -4  -1  -8 18189.4 672.559   4
   4   1   8 14283.0 853.895   2
  -4  -1  -8 15554.2 1137.40   6
   4   1   8 14748.4 1084.02   5
   4   1   9 105.167 72.8503   5
  -4  -1  -9 144.752 83.1075   4
  -4  -1  -9 214.331 177.061   6
  -4  -1 -10 6736.02 542.277   4
  -4  -1 -10 5851.39 788.570   6
   4   1  10 5755.39 745.163   5
   4   1  11 15.7064 99.4390   5
  -4  -1 -11-14.3226 68.6537   4
  -4  -1 -11-142.243 154.662   6
  -4  -1 -12 4431.16 802.833   6
   4   1  12 4262.70 701.600   5
   4   1  13 1157.61 392.509   5
  -4  -1 -13 885.351 407.268   6
   4   1  14 2327.37 573.273   5
  -4  -1 -14 2837.68 721.029   6
  -4  -2  10 2488.96 427.121   4
   4   2 -10 2669.29 608.787   2
  -4  -2   9 893.709 248.491   4
   4   2  -9 1623.27 498.368   2
  -4  -2   8 1055.62 249.808   4
   4   2  -8 1507.85 489.656   2
  -4  -2   7 91.8791 65.6844   3
  -4  -2   7 66.2005 100.460   4
  -4  -2   7 187.988 135.147   7
   4   2  -7-109.853 198.869   2
  -4  -2   6 3077.25 410.091   4
   4   2  -6 2862.33 424.597   6
  -4  -2   6 3247.38 331.350   3
   4   2  -6 2572.81 555.999   2
  -4  -2   5 141.114 57.5698   3
  -4  -2   5 27.0087 78.4556   4
  -4  -2   5 151.187 82.3227   7
   4   2  -5 171.307 108.905   6
  -4  -2   4 23270.8 1072.84   4
   4   2  -4 25350.8 1383.54   4
  -4  -2   4 23269.4 1010.66   7
   4   2  -4 23719.7 1573.54   2
   4   2  -3 4059.32 597.356   2
  -4  -2   3 3571.46 391.718   4
   4   2  -3 4092.96 513.273   4
  -4  -2   3 3771.76 328.508   7
   4   2  -3 4218.55 333.368   3
  -4  -2   3 3970.97 593.929   5
  -4  -2   2 39770.2 1375.37   4
   4   2  -2 44403.4 1697.77   4
  -4  -2   2 40906.4 1009.46   7
   4   2  -2 40600.1 1871.32   2
  -4  -2   2 44349.0 1957.92   5
   4   2  -1 39.9957 74.0750   3
   4   2  -1 2.12425 145.236   2
  -4  -2   1 153.259 75.0166   4
   4   2  -1 216.598 92.6049   4
  -4  -2   1 88.7811 118.097   5
  -4  -2   0 1545.96 219.262   4
   4   2   0 1534.38 250.200   4
  -4  -2   0 1739.71 270.765   6
   4   2   0 1725.92 201.974   3
  -4  -2   0 1735.22 317.903   5
  -4  -2  -1 1215.13 180.543   4
   4   2   1 1086.67 102.295   7
   4   2   1 954.063 173.458   4
  -4  -2  -1 983.884 204.361   6
   4   2   1 881.561 211.409   5
  -4  -2  -2 76434.4 1720.61   4
  -4  -2  -2 76086.2 2240.71   6
   4   2   2 77594.1 2389.40   5
  -4  -2  -3 298.618 74.1766   4
  -4  -2  -3 327.693 127.316   6
   4   2   3 313.317 142.586   5
  -4  -2  -4 19141.4 590.687   4
  -4  -2  -4 18717.0 810.396   8
  -4  -2  -4 18769.8 1044.23   6
   4   2   4 18713.6 1067.70   5
  -4  -2  -5 9.80336 14.2314   4
  -4  -2  -5 9.32770 24.2090   4
  -4  -2  -5-65.9839 103.185   6
   4   2   5-151.419 148.040   5
  -4  -2  -6 77720.9 1504.24   4
  -4  -2  -6 89279.3 2694.82   6
   4   2   6 84030.0 2271.92   6
   4   2   6 86323.2 2675.86   5
  -4  -2  -6 93698.7 2526.40   5
   4   2   7 500.754 188.798   5
  -4  -2  -7 589.604 183.605   5
  -4  -2  -7 236.193 54.6868   4
   4   2   7 417.429 135.097   2
  -4  -2  -7 492.159 190.224   6
   4   2   7 470.347 154.848   6
  -4  -2  -8 3242.19 276.629   4
   4   2   8 4288.01 445.723   2
  -4  -2  -8 5007.98 640.612   6
   4   2   8 4344.63 592.092   5
   4   2   9 49.4758 110.255   5
  -4  -2  -9-36.5150 61.8995   4
  -4  -2  -9 86.8245 115.254   6
  -4  -2 -10 7502.91 570.095   4
  -4  -2 -10 10758.2 1086.79   6
   4   2  10 9259.57 945.736   5
   4   2  11 110.809 94.1237   5
  -4  -2 -11-58.2399 114.314   6
  -4  -2 -12 13320.6 1381.48   6
   4   2  12 11563.3 1169.42   5
   4   2  13 847.038 369.180   5
  -4  -2 -13 585.290 317.361   6
   4   2  14 370.175 244.283   5
  -4  -2 -14 405.354 341.328   6
  -4  -3  10 485.602 177.524   4
   4   3 -10 561.935 285.966   2
  -4  -3   9 898.547 253.264   4
   4   3  -9 619.912 275.331   2
  -4  -3   8 4984.21 579.953   4
   4   3  -8 6048.94 950.406   2
  -4  -3   7 1155.97 257.318   4
  -4  -3   7 1209.33 315.509   7
   4   3  -7 1614.52 316.379   6
   4   3  -7 1616.56 504.298   2
  -4  -3   6 9306.79 763.559   4
  -4  -3   6 9245.79 818.733   7
   4   3  -6 9710.92 1123.80   2
   4   3  -6 9546.80 741.251   6
   4   3  -5 60.2650 181.241   2
  -4  -3   5-17.7709 111.301   4
   4   3  -4 3869.52 709.864   2
  -4  -3   4 3240.90 416.258   4
  -4  -3   4 3266.97 390.842   7
  -4  -3   3 7829.13 640.513   4
   4   3  -3 8033.26 759.369   4
   4   3  -3 7381.83 879.921   2
  -4  -3   3 7385.33 507.575   7
  -4  -3   3 7681.90 832.499   5
   4   3  -3 7966.96 608.112   6
  -4  -3   2 10440.6 728.393   4
   4   3  -2 12267.2 871.603   4
   4   3  -2 10788.0 971.895   2
   4   3  -2 10837.5 694.177   6
  -4  -3   2 11877.7 970.643   5
   4   3  -1 729.532 110.855   3
   4   3  -1 991.039 293.133   2
  -4  -3   1 597.547 157.164   4
   4   3  -1 669.510 186.337   4
   4   3  -1 795.967 181.421   6
   4   3  -1 575.530 68.6972   3
  -4  -3   1 910.164 237.470   5
  -4  -3   0 47665.6 1546.69   4
   4   3   0 47785.8 1617.02   4
   4   3   0 48879.6 1251.77   8
   4   3   0 46607.1 1251.30   7
  -4  -3   0 46556.0 1567.08   6
   4   3   0 53692.2 2059.23   2
   4   3   0 46207.4 1531.07   6
   4   3   0 48966.3 1172.29   3
  -4  -3   0 55031.4 1960.37   5
  -4  -3  -1-24.2205 42.0188   4
   4   3   1-9.30898 21.5291   7
  -4  -3  -1 4.74562 36.8164   6
   4   3   1 72.1590 82.3500   5
  -4  -3  -1 11.5682 52.8300   5
  -4  -3  -2 876.078 164.684   4
  -4  -3  -2 890.382 205.930   6
   4   3   2 709.935 191.218   5
  -4  -3  -2 847.294 214.877   5
  -4  -3  -3 753.789 202.547   5
  -4  -3  -3 714.287 163.080   4
  -4  -3  -3 493.272 155.591   6
   4   3   3 712.188 206.770   5
  -4  -3  -4 62004.7 1565.84   4
  -4  -3  -4 59582.0 1247.22   8
  -4  -3  -4 58851.1 2017.44   6
   4   3   4 58204.4 1774.31   6
   4   3   4 61101.5 2110.55   5
  -4  -3  -4 63869.4 2028.74   5
  -4  -3  -5 448.208 154.208   5
  -4  -3  -5 395.252 59.9953   1
  -4  -3  -5 412.825 165.783   6
   4   3   5 233.790 96.1916   6
   4   3   5 404.402 149.544   5
  -4  -3  -6 32122.3 874.203   4
   4   3   6 29305.5 1397.60   3
  -4  -3  -6 33780.9 1572.07   6
   4   3   6 30506.1 1232.47   6
   4   3   6 33110.9 1558.43   5
  -4  -3  -6 32936.1 1400.64   5
   4   3   7 846.929 240.104   5
  -4  -3  -7 1071.00 233.224   5
  -4  -3  -7 808.732 120.789   4
  -4  -3  -7 829.013 263.561   6
   4   3   7 770.992 250.468   3
   4   3   7 832.007 193.805   6
  -4  -3  -8 11835.8 564.427   4
   4   3   8 10141.8 675.336   2
  -4  -3  -8 12319.4 1037.10   6
   4   3   8 10579.8 932.721   5
   4   3   9 1483.09 362.985   5
  -4  -3  -9 1304.38 201.560   4
   4   3   9 1129.40 224.772   2
  -4  -3  -9 1809.56 432.282   6
  -4  -3 -10 23395.4 1641.64   6
   4   3  10 21740.6 1460.60   5
   4   3  11 344.704 236.794   5
  -4  -3 -11 569.139 249.192   6
   4   3  12 2301.18 532.580   5
  -4  -3 -12 2581.00 617.064   6
   4   3  13 176.499 138.833   5
  -4  -3 -13 573.560 351.715   6
   4   3  14 2308.84 584.553   5
  -4  -3 -14 2884.71 736.536   6
  -4  -4   9 1034.40 276.501   4
   4   4  -9 1202.32 464.159   2
  -4  -4   8 1865.34 364.454   4
   4   4  -8 3514.05 741.180   2
  -4  -4   7 1.68331 116.785   4
   4   4  -7 566.782 336.516   2
  -4  -4   6 1305.21 303.527   4
  -4  -4   6 1570.84 350.124   7
   4   4  -6 1854.20 535.410   2
  -4  -4   5 4155.70 537.758   4
  -4  -4   5 4318.27 521.133   7
   4   4  -5 3742.46 405.431   6
   4   4  -5 4866.17 778.788   2
  -4  -4   4 12190.4 898.812   4
   4   4  -4 12143.7 1245.70   2
   4   4  -4 11830.9 703.111   6
  -4  -4   3 6777.12 643.220   4
  -4  -4   3 6501.70 526.563   7
   4   4  -3 7217.39 945.551   2
   4   4  -3 6440.79 499.868   6
  -4  -4   3 6679.83 761.125   5
  -4  -4   2 7642.20 664.407   4
   4   4  -2 7673.55 720.166   4
   4   4  -2 8925.30 938.299   2
   4   4  -2 7785.91 537.100   6
  -4  -4   2 8707.28 815.915   5
   4   4  -1 3518.15 567.749   2
  -4  -4   1 2991.41 403.276   4
   4   4  -1 3012.75 390.091   8
   4   4  -1 2947.46 329.778   7
   4   4  -1 3035.78 332.616   6
  -4  -4   1 3205.90 462.550   5
  -4  -4   0 18349.2 987.632   4
   4   4   0 17492.2 842.916   7
   4   4   0 18279.7 1253.58   2
  -4  -4   0 17766.6 871.640   6
   4   4   0 16842.8 816.031   6
   4   4   0 14443.6 726.668   3
  -4  -4   0 19259.3 1104.49   5
   4   4   1 77.2749 119.523   2
  -4  -4  -1 379.184 125.547   4
   4   4   1 238.131 96.4726   7
  -4  -4  -1 366.845 133.600   6
   4   4   1 335.438 104.016   6
   4   4   1 361.765 141.124   3
  -4  -4  -1 207.145 98.9215   5
  -4  -4  -2 11364.3 808.925   4
   4   4   2 7993.60 508.084   7
   4   4   2 5513.93 455.285   3
  -4  -4  -2 8755.18 654.000   6
   4   4   2 8031.85 723.172   5
  -4  -4  -2 8883.69 701.260   5
  -4  -4  -3 9816.07 651.828   4
  -4  -4  -3 8674.02 500.453   1
  -4  -4  -3 9515.04 712.623   6
   4   4   3 9628.20 771.014   5
  -4  -4  -3 10043.7 736.853   5
  -4  -4  -4 30380.6 1168.40   4
  -4  -4  -4 28838.6 924.304   1
  -4  -4  -4 31751.6 1400.38   6
   4   4   4 28296.0 1105.09   6
   4   4   4 30337.1 1433.68   5
  -4  -4  -4 31476.0 1353.34   5
   4   4   5 7027.74 637.232   3
  -4  -4  -5 8884.38 747.293   6
  -4  -4  -5 8055.05 394.242   1
   4   4   5 8272.19 572.953   6
   4   4   5 8403.93 742.466   5
  -4  -4  -5 8665.32 685.569   5
   4   4   6 11709.2 871.099   3
  -4  -4  -6 13323.2 976.687   6
   4   4   6 11807.1 705.996   6
   4   4   6 12683.9 945.592   5
  -4  -4  -6 12078.8 821.769   5
  -4  -4  -6 12713.4 394.334   1
   4   4   7 371.636 183.689   5
  -4  -4  -7 104.136 102.312   5
  -4  -4  -7 222.379 83.2214   4
  -4  -4  -7 127.201 102.717   6
   4   4   7 73.2174 51.1411   6
   4   4   7 166.693 148.371   3
  -4  -4  -8 15960.7 701.685   4
   4   4   8 15016.3 812.508   2
  -4  -4  -8 18567.7 1309.55   6
   4   4   8 17656.4 1227.56   5
   4   4   9 128.582 155.720   5
   4   4   9 113.170 99.8108   2
  -4  -4  -9 158.189 158.776   6
   4   4  10 126.852 201.447   5
  -4  -4 -10 274.516 192.241   6
   4   4  11 261.258 218.826   5
  -4  -4 -11-23.6764 61.4207   4
  -4  -4 -11 100.783 145.573   6
  -4  -4 -12 14179.5 1471.83   6
   4   4  12 13840.7 1315.71   5
   4   4  13 193.182 200.206   5
  -4  -4 -13 75.0209 97.2907   6
   4   4  14 1578.61 469.200   5
  -4  -4 -14 1860.87 615.588   6
  -4  -5   8 1185.88 325.877   4
   4   5  -8 1886.86 562.339   2
  -4  -5   7 2678.03 482.944   4
   4   5  -7 2894.04 708.647   2
  -4  -5   6 13919.0 1077.75   4
   4   5  -6 15863.3 1585.61   2
  -4  -5   5-11.0144 69.0920   4
  -4  -5   5-25.7676 104.326   7
   4   5  -5-29.1039 33.3944   6
   4   5  -4 358.451 215.942   8
  -4  -5   4 257.166 172.942   4
  -4  -5   4 364.883 147.903   7
   4   5  -4 179.409 84.5668   6
   4   5  -4-60.4852 150.833   2
   4   5  -3 1171.83 408.287   2
   4   5  -3 428.016 184.190   8
  -4  -5   3 680.800 232.968   4
  -4  -5   3 653.067 185.763   7
   4   5  -3 653.757 142.559   6
  -4  -5   3 725.625 240.632   5
   4   5  -2 12441.2 1240.94   2
  -4  -5   2 11311.9 879.127   4
   4   5  -2 10810.8 958.087   8
   4   5  -2 11646.4 592.847   6
  -4  -5   2 12057.7 948.742   5
  -4  -5   1 5490.67 603.523   4
   4   5  -1 5605.55 668.338   8
   4   5  -1 5646.26 546.002   7
   4   5  -1 5197.10 763.001   2
   4   5  -1 5397.51 402.270   6
  -4  -5   1 6488.87 652.463   5
  -4  -5   0 7080.23 680.781   4
   4   5   0 6482.43 575.736   7
   4   5   0 7106.23 829.304   2
  -4  -5   0 7173.01 521.972   6
   4   5   0 6362.93 440.848   6
  -4  -5   0 7471.41 667.505   5
  -4  -5  -1 9502.82 804.714   4
   4   5   1 7944.69 611.383   7
   4   5   1 8469.47 841.610   2
  -4  -5  -1 8872.15 629.749   6
   4   5   1 7410.95 485.538   6
   4   5   1 6958.34 686.728   3
  -4  -5  -1 8700.95 701.089   5
  -4  -5  -2 38869.1 1608.62   4
   4   5   2 33858.7 1276.16   7
   4   5   2 40489.8 1810.68   2
  -4  -5  -2 37593.4 1431.37   6
   4   5   2 36796.0 1645.68   5
  -4  -5  -2 39680.0 1537.62   5
  -4  -5  -3 10694.9 771.672   4
  -4  -5  -3 11212.6 783.137   6
   4   5   3 10323.5 601.689   6
   4   5   3 10726.9 829.793   5
  -4  -5  -3 12404.4 814.508   5
  -4  -5  -4 1199.26 245.468   5
  -4  -5  -4 813.997 160.353   8
  -4  -5  -4 932.458 168.745   1
  -4  -5  -4 798.257 199.283   4
  -4  -5  -4 989.729 241.636   6
   4   5   4 760.421 161.489   6
   4   5   4 678.421 201.816   5
  -4  -5  -5 3411.70 474.918   6
   4   5   5 3558.90 357.299   6
  -4  -5  -5 3364.31 296.263   1
   4   5   5 3765.96 491.748   5
  -4  -5  -5 3073.79 409.223   5
  -4  -5  -6 33698.7 1622.96   6
  -4  -5  -6 31800.0 915.945   1
   4   5   6 31225.4 1572.03   5
  -4  -5  -6 30282.7 1320.46   5
   4   5   7 1264.12 319.155   5
  -4  -5  -7 1621.75 361.827   6
   4   5   7 1302.35 346.821   3
   4   5   8 49.9103 113.411   5
   4   5   8 50.0352 51.2795   2
  -4  -5  -8 86.7207 73.7402   6
  -4  -5  -9 3371.03 346.936   4
   4   5   9 3020.68 346.904   2
  -4  -5  -9 3948.37 648.607   6
   4   5   9 3290.62 552.465   5
  -4  -5 -10 6017.66 485.327   4
   4   5  10 5538.71 481.399   2
  -4  -5 -10 7567.74 979.518   6
   4   5  10 6519.31 824.000   5
   4   5  11 685.816 322.624   5
  -4  -5 -11 674.644 172.899   4
  -4  -5 -11 815.651 317.614   6
   4   5  12 3418.01 640.323   5
  -4  -5 -12 3477.93 730.183   6
   4   5  13-5.14563 125.651   5
  -4  -5 -13-28.0205 160.399   6
   4   5  14 1459.26 463.848   5
   4   6  -9 240.828 279.532   8
   4   6  -8 1273.65 521.440   8
   4   6  -8 2201.13 588.062   2
   4   6  -7-71.2927 181.241   8
  -4  -6   7 58.5451 147.247   4
   4   6  -7 227.151 199.928   2
   4   6  -6 422.332 243.773   8
  -4  -6   6 1196.77 341.163   4
   4   6  -6 801.321 381.984   2
  -4  -6   5 207.700 141.920   4
   4   6  -5 236.772 252.773   8
   4   6  -5-216.750 205.292   2
  -4  -6   4 18963.2 1300.93   4
   4   6  -4 20214.4 1804.04   2
  -4  -6   4 19496.0 1174.32   7
   4   6  -4 19661.3 1615.35   8
  -4  -6   3 3824.99 557.431   4
   4   6  -3 3063.03 602.505   8
   4   6  -3 3422.93 223.272   6
  -4  -6   3 3739.43 543.901   5
   4   6  -3 3139.72 685.173   2
   4   6  -2 562.927 283.774   2
   4   6  -2 765.412 281.513   8
  -4  -6   2 227.158 106.499   4
   4   6  -2 531.162 206.388   7
   4   6  -2 521.562 98.6654   6
  -4  -6   2 805.984 239.127   5
   4   6  -1 2499.85 590.470   2
  -4  -6   1 2018.34 377.648   4
   4   6  -1 2207.11 376.122   7
   4   6  -1 2325.75 226.499   6
  -4  -6   1 2563.67 405.026   5
  -4  -6   0 14309.1 1084.88   4
  -4  -6   0 13029.3 879.570   1
   4   6   0 13837.9 963.524   7
   4   6   0 12428.0 1181.17   2
  -4  -6   0 13011.1 684.899   6
   4   6   0 12369.2 575.587   6
  -4  -6   0 12649.3 878.021   5
  -4  -6  -1-68.7011 80.3769   5
   4   6   1-3.00303 95.6708   3
   4   6   1 181.723 146.056   2
  -4  -6  -1 15.1597 37.0568   1
  -4  -6  -1-21.1115 74.2689   4
   4   6   1-10.7564 101.587   7
  -4  -6  -1 8.78687 47.7184   6
   4   6   1 46.4035 45.9205   6
  -4  -6  -2 5916.26 649.848   4
  -4  -6  -2 5394.52 514.855   1
   4   6   2 4885.68 505.709   7
   4   6   2 5414.36 700.019   2
  -4  -6  -2 5434.26 510.297   6
   4   6   2 4472.08 676.323   3
  -4  -6  -2 5610.98 543.430   5
  -4  -6  -3 975.285 210.863   5
   4   6   3 1401.13 345.242   2
  -4  -6  -3 1160.19 266.043   4
   4   6   3 1068.30 240.549   7
  -4  -6  -3 1145.35 220.270   1
  -4  -6  -3 1024.96 223.422   6
   4   6   3 874.606 246.857   5
   4   6   3 547.261 304.346   3
  -4  -6  -4 16096.2 926.879   8
  -4  -6  -4 17320.2 1036.14   6
   4   6   4 16240.2 1065.53   5
  -4  -6  -4 17767.7 976.375   5
  -4  -6  -5 2951.31 446.034   6
  -4  -6  -5 2884.84 321.397   1
   4   6   5 2797.26 444.074   5
  -4  -6  -5 2969.74 391.772   5
  -4  -6  -6 8464.53 797.595   6
  -4  -6  -6 7347.32 483.985   1
   4   6   6 7247.94 730.222   5
  -4  -6  -6 7414.90 608.091   5
  -4  -6  -7 10107.7 555.862   1
  -4  -6  -7 9373.15 927.985   6
   4   6   7 9246.85 866.479   5
  -4  -6  -8 12422.4 693.957   4
   4   6   8 11105.0 657.938   2
  -4  -6  -8 13472.0 1169.12   6
   4   6   8 14526.5 1128.02   5
   4   6   9-50.1727 128.776   5
  -4  -6  -9 134.798 79.8259   4
   4   6   9 177.129 89.1419   2
  -4  -6  -9 160.848 105.978   6
   4   6  10 599.154 259.026   5
  -4  -6 -10 923.772 197.037   4
   4   6  10 666.679 159.433   2
  -4  -6 -10 834.322 326.953   6
   4   6  11 672.013 277.999   5
  -4  -6 -11 461.424 257.023   6
   4   6  12 1597.32 445.755   5
  -4  -6 -12 854.617 363.240   6
   4   6  13 35.8691 107.065   5
  -4  -6 -13-585.912 323.076   6
   4   7  -8-9.28227 278.626   8
   4   7  -7 627.449 371.660   8
   4   7  -7 301.703 137.856   2
  -4  -7   6 4871.58 707.761   4
   4   7  -6 3166.56 782.410   8
   4   7  -6 4401.89 862.842   2
   4   7  -5 999.978 448.799   8
  -4  -7   5 889.696 314.640   4
   4   7  -5 1573.74 514.334   2
   4   7  -4 2379.17 633.325   8
  -4  -7   4 3192.73 557.892   4
   4   7  -4 2819.97 666.840   2
  -4  -7   3-60.8223 137.715   4
   4   7  -3-127.048 246.212   2
  -4  -7   2 5927.22 733.803   4
   4   7  -2 5837.96 705.901   7
   4   7  -2 5737.60 948.886   2
  -4  -7   2 5853.83 631.140   5
  -4  -7   1 956.990 295.342   4
   4   7  -1 538.452 204.163   7
   4   7  -1 1185.92 482.126   2
  -4  -7   1 812.561 216.813   5
   4   7   0 4782.37 768.237   2
  -4  -7   0 5650.47 746.760   4
   4   7   0 4889.62 619.639   7
  -4  -7   0 4854.92 526.370   5
  -4  -7  -1 28.4725 77.6926   5
   4   7   1 68.0912 126.729   2
   4   7   1-47.1315 50.6075   3
  -4  -7  -1 161.173 152.144   4
   4   7   1-5.61845 61.8385   7
  -4  -7  -1-32.7342 59.5709   6
  -4  -7  -2 5267.11 658.566   4
   4   7   2 5278.01 600.493   7
   4   7   2 5169.57 729.056   2
  -4  -7  -2 5124.40 540.940   1
  -4  -7  -2 5377.70 509.913   6
   4   7   2 5275.52 590.684   3
  -4  -7  -2 5241.49 520.102   5
  -4  -7  -3 80.7869 63.9077   5
   4   7   3 48.3105 157.542   2
   4   7   3 60.0156 64.6327   7
  -4  -7  -3 122.648 113.812   4
  -4  -7  -3 135.406 94.1764   1
  -4  -7  -3-89.1073 99.6426   6
   4   7   3-118.242 151.719   5
  -4  -7  -4 8692.50 737.360   8
   4   7   4 9611.85 888.133   2
  -4  -7  -4 8322.39 725.930   6
  -4  -7  -4 8038.71 631.209   1
   4   7   4 6831.06 1159.89   3
   4   7   4 8515.30 774.735   5
  -4  -7  -4 8198.98 639.561   5
  -4  -7  -5 9364.89 915.307   8
  -4  -7  -5 10919.0 889.793   6
  -4  -7  -5 9718.28 667.970   1
   4   7   5 9558.94 833.095   5
  -4  -7  -5 9668.54 695.843   5
  -4  -7  -6 13975.8 1054.25   6
   4   7   6 13059.6 1010.26   5
  -4  -7  -7 428.417 126.547   1
  -4  -7  -7 377.334 185.834   6
   4   7   7 457.296 186.047   5
  -4  -7  -8 7808.12 568.280   1
  -4  -7  -8 9828.41 997.168   6
   4   7   8 8792.73 890.953   5
   4   7   9 425.214 210.827   5
  -4  -7  -9 316.639 209.217   6
   4   7  10 769.533 283.352   5
  -4  -7 -10 1191.58 378.319   6
   4   7  11 524.908 242.019   5
  -4  -7 -11 188.962 172.281   6
   4   7  12 2443.41 563.651   5
  -4  -7 -12 2288.44 619.032   6
   4   7  13 106.945 113.805   5
   4   8  -7 178.267 301.552   8
   4   8  -6 125.928 233.150   8
   4   8  -6 497.155 302.220   2
   4   8  -5 113.214 190.786   8
  -4  -8   5-11.2733 126.834   4
   4   8  -5 41.9876 121.415   2
  -4  -8   4 3558.84 633.098   4
   4   8  -4 2725.96 649.536   2
  -4  -8   3 980.698 327.436   4
   4   8  -3 965.260 413.067   2
  -4  -8   2 7097.65 866.771   4
   4   8  -2 6364.36 792.499   7
   4   8  -2 7790.59 1078.34   2
  -4  -8   1 500.221 229.141   4
   4   8  -1 882.919 305.366   7
   4   8  -1 1129.11 395.262   2
   4   8   0 592.975 244.945   7
  -4  -8   0 1164.12 368.557   4
   4   8   0 693.904 353.939   2
  -4  -8  -1 70.6389 72.2793   5
   4   8   1 124.142 133.126   7
  -4  -8  -1-109.048 130.326   4
  -4  -8  -1 214.890 87.3466   6
   4   8   1-45.2565 99.1930   2
  -4  -8  -2 10015.1 986.804   4
   4   8   2 8198.28 856.408   7
   4   8   2 7006.05 875.036   2
  -4  -8  -2 9897.50 686.016   6
   4   8   2 8811.02 723.020   3
  -4  -8  -2 9073.15 670.717   5
  -4  -8  -3 88.7123 71.3789   5
   4   8   3-47.1703 141.361   2
   4   8   3-24.6939 122.689   7
  -4  -8  -3 245.609 129.008   4
  -4  -8  -3 149.645 79.4545   6
   4   8   4 1869.19 531.688   3
   4   8   4 1063.38 281.113   2
  -4  -8  -4 1854.54 375.371   8
   4   8   4 2194.29 408.798   7
  -4  -8  -4 2166.68 435.682   4
  -4  -8  -4 2098.71 363.322   6
  -4  -8  -4 2077.87 345.637   1
  -4  -8  -4 2001.11 303.144   5
   4   8   4 2124.60 392.108   5
   4   8   5 341.386 447.791   3
  -4  -8  -5 7.21412 48.1284   1
   4   8   5-66.1951 142.461   2
  -4  -8  -5-71.2849 77.2554   6
   4   8   5-18.9613 72.8533   5
   4   8   6 3834.69 538.200   2
  -4  -8  -6 5090.82 648.142   6
   4   8   6 5455.49 650.284   5
  -4  -8  -6 4777.18 492.990   1
  -4  -8  -7 624.344 174.977   1
  -4  -8  -7 644.629 242.319   6
   4   8   7 718.477 256.953   5
  -4  -8  -8 3763.07 626.077   6
   4   8   8 2958.70 521.238   5
  -4  -8  -9 214.094 193.804   6
   4   8   9 197.585 133.876   5
   4   8  10 2410.33 535.560   5
  -4  -8 -10 3016.05 625.398   6
   4   8  11 361.712 191.541   5
  -4  -8 -11 219.949 176.993   6
   4   8  12 1392.79 416.669   5
  -4  -8 -12 2167.70 592.627   6
   4   8  13 381.499 220.358   5
   4   9  -5 433.100 264.652   2
   4   9  -4 1000.61 393.475   2
  -4  -9   3 53.2781 73.8855   4
   4   9  -3-17.1350 116.629   2
  -4  -9   2 1179.49 376.344   4
   4   9  -2 727.728 288.479   7
   4   9  -2 853.082 329.264   2
   4   9  -1 1281.46 382.692   7
  -4  -9   1 1438.98 443.676   4
   4   9  -1 633.455 301.843   2
  -4  -9   0 6014.65 910.205   4
   4   9   0 4367.87 738.761   2
   4   9   0 4773.18 728.469   7
   4   9   1 1626.07 449.271   7
  -4  -9  -1 2923.98 609.037   4
   4   9   1 1698.77 447.368   2
   4   9   2 1335.79 371.652   7
  -4  -9  -2 1220.17 372.903   4
   4   9   2 936.338 349.355   2
   4   9   3-72.1092 122.027   7
  -4  -9  -3 181.598 98.1310   4
  -4  -9  -3 5.42980 36.1510   6
   4   9   3 64.7985 76.5464   2
  -4  -9  -4 3489.77 614.380   4
   4   9   4 2713.88 503.667   7
  -4  -9  -4 3287.35 464.063   6
   4   9   4 2425.67 438.420   2
   4   9   5-26.5094 81.1863   2
   4   9   5-54.0655 82.6737   7
  -4  -9  -5 65.9306 105.331   6
   4   9   5-11.2383 68.1315   5
  -4  -9  -6 2024.36 414.523   6
   4   9   6 1907.21 393.195   5
  -4  -9  -7 994.273 313.732   6
   4   9   7 798.532 269.331   5
  -4  -9  -8 3315.06 601.849   6
   4   9   8 3119.17 549.698   5
  -4  -9  -9 330.275 195.396   6
   4   9   9 66.9518 63.7198   5
  -4  -9 -10 545.053 279.082   6
   4   9  10 613.989 259.340   5
   4   9  11-70.4005 125.595   5
  -4  -9 -11 118.894 178.960   6
   4   9  12 960.339 368.073   5
   4   9  13 19.3986 108.152   5
   4  10  -4 110.096 131.432   2
   4  10  -3 361.973 202.689   2
   4  10  -2 1093.77 373.551   7
   4  10  -2 1347.63 378.888   2
   4  10  -1 260.277 226.368   7
  -4 -10   1 594.269 293.926   4
   4  10  -1 544.855 240.100   2
   4  10   0 363.476 199.443   7
   4  10   0 213.989 128.913   2
   4  10   1 999.250 357.969   7
  -4 -10  -1 513.085 285.893   4
  -4 -10  -2 2123.20 542.209   4
   4  10   2 1768.29 483.718   7
   4  10   3 395.562 234.808   7
  -4 -10  -3 519.608 276.200   4
   4  10   4 2683.42 555.848   7
  -4 -10  -4 2183.01 507.787   4
   4  10   5 517.956 248.675   7
  -4 -10  -5 653.640 222.286   6
   4  10   6 1500.99 419.228   7
  -4 -10  -6 2129.82 438.410   6
   4  10   7 602.451 274.835   7
  -4 -10  -7 266.246 165.606   6
  -4 -10  -8 945.637 335.559   6
  -4 -10  -9 35.9709 89.3075   6
  -4 -10 -10 931.314 369.324   6
   4  11  -2 296.597 236.564   7
   4  11  -1 223.547 201.364   7
   4  11   0 901.540 370.433   7
   4  11   1 78.9488 135.321   7
   4  11   2 321.886 205.075   7
   4  11   3 269.423 264.070   7
  -4 -11  -3 288.057 221.136   4
   4  11   4 1583.79 467.116   7
  -4 -11  -4 1087.08 394.551   4
   4  11   5 457.057 261.753   7
  -4 -11  -5 237.697 208.979   4
   4  11   6 600.457 301.207   7
   4  11   7 536.365 287.017   7
   4  11   8 1684.46 516.515   7
  -4 -11  -8 1691.04 456.168   6
  -4 -11  -9 66.1999 76.0092   6
  -4 -11 -10 139.410 159.482   6
  -5  10   3 837.105 424.998   7
  -5  10   2-190.171 263.461   7
  -5  10   1 709.893 413.427   7
  -5   9   7 103.879 167.929   7
  -5   9   6 228.733 263.403   7
  -5   9   5 1002.20 469.362   7
  -5   9   4-12.7320 140.998   7
  -5   9   3 723.755 432.116   7
  -5   9   2 667.461 403.040   7
  -5   9   1 235.784 130.206   7
  -5   9   0 720.511 412.083   7
  -5   9  -1 4439.85 914.831   7
  -5   9  -2 274.938 296.054   7
  -5   9  -3 183.393 307.305   7
  -5   8   8-226.097 223.849   7
  -5   8   7 1370.62 549.848   7
  -5   8   6 123.725 114.289   7
  -5   8   5 1128.41 432.951   1
  -5   8   5 1633.56 534.346   7
   5  -8  -5 385.724 331.546   3
  -5   8   4 83.3158 152.784   1
  -5   8   4-1.30693 111.237   7
   5  -8  -4 79.6097 360.792   3
   5  -8  -3 3108.66 952.797   3
  -5   8   3 3526.38 736.025   1
  -5   8   3 3897.09 801.476   7
   5  -8  -2-15.9270 269.536   3
  -5   8   2 343.807 259.244   7
  -5   8   2 552.254 302.324   1
   5  -8  -1 3845.41 888.423   3
  -5   8   1 4036.67 792.887   7
  -5   8   1 4328.93 772.292   1
   5  -8   0 1226.31 499.482   3
  -5   8   0 352.447 261.820   7
  -5   8   0 936.331 366.021   1
   5  -8   1 129.974 209.882   3
  -5   8  -1 264.455 199.393   7
  -5   8  -1 478.338 276.935   1
   5  -8   2 130.211 191.222   3
  -5   8  -2 110.211 172.650   7
  -5   8  -2-108.160 170.169   1
   5  -8   3 2375.64 606.781   3
  -5   8  -3 2862.06 670.659   7
  -5   8  -3 3328.70 623.333   1
   5  -8   4 383.328 288.616   3
  -5   8  -4-21.8084 126.541   1
   5  -8   4-16.0622 154.463   4
   5  -8   5 1420.86 478.336   3
  -5   8  -5 1691.89 440.880   1
  -5   8  -6-115.599 106.675   1
  -5   7   8 452.316 276.202   7
  -5   7   7 1543.18 512.529   7
  -5   7   7 916.262 365.326   1
  -5   7   6-235.783 228.487   7
  -5   7   6-64.5888 138.937   1
   5  -7  -6 11.3562 327.753   3
  -5   7   5 6087.59 917.663   7
  -5   7   5 6629.32 1009.03   1
   5  -7  -5 4600.08 1139.76   3
   5  -7  -4-52.1618 96.7750   2
  -5   7   4 25.6278 120.262   1
  -5   7   4 38.6041 70.5818   7
  -5   7   3 8445.06 1087.42   7
   5  -7  -3 8232.15 1390.73   3
  -5   7   3 7753.83 1048.62   1
   5  -7  -2 272.848 312.176   3
  -5   7   2 65.2265 128.347   1
  -5   7   2 241.170 153.032   7
  -5   7   1 151.867 159.985   1
   5  -7  -1 273.357 240.404   3
  -5   7   1 212.733 145.273   7
   5  -7   0 237.480 182.382   3
  -5   7   0 2.03665 117.026   7
  -5   7   0 111.658 107.671   1
  -5   7  -1 16241.4 1478.29   7
  -5   7  -1 13444.4 1226.59   1
   5  -7   1 13094.9 1413.17   3
   5  -7   2 285.111 135.811   3
  -5   7  -2 430.239 243.486   7
  -5   7  -2 538.492 248.608   1
  -5   7  -3 7492.88 1026.61   7
  -5   7  -3 6968.63 843.954   1
   5  -7   3 7710.35 1044.60   3
  -5   7  -4 72.2344 88.5334   1
   5  -7   4 30.0231 83.6389   4
   5  -7   5 2127.01 532.810   3
  -5   7  -5 2004.76 444.855   1
   5  -7   5 1815.69 371.294   4
   5  -7   6 91.4216 152.305   3
  -5   7  -6 256.673 176.265   1
   5  -7   7 5088.30 857.948   3
   5  -6  -9 1142.61 520.682   3
  -5   6   8 343.637 239.425   1
   5  -6  -8 204.908 421.066   3
   5  -6  -7 1716.64 396.172   2
  -5   6   7 1980.18 553.295   1
   5  -6  -7 1083.30 515.207   3
  -5   6   6 146.041 139.666   1
   5  -6  -6 298.716 166.603   2
  -5   6   6 192.443 144.203   7
   5  -6  -6 24.6080 242.494   3
   5  -6  -5 1731.33 385.461   2
  -5   6   5 1653.52 435.251   7
  -5   6   5 1787.48 518.690   1
   5  -6  -5 1632.61 629.517   3
   5  -6  -4 382.149 180.867   2
  -5   6   4 556.068 252.976   7
  -5   6   4 22.9033 99.0994   1
   5  -6  -4 80.2364 279.745   3
   5  -6  -3 4590.86 970.823   3
  -5   6   3 7297.80 897.396   7
  -5   6   3 5584.08 855.437   1
   5  -6  -2 531.410 365.438   3
  -5   6   2 593.860 301.074   1
  -5   6   2 694.002 288.436   7
  -5   6   2 1087.40 318.869   5
   5  -6  -1 19879.4 1771.32   3
  -5   6   1 23229.2 1644.91   1
  -5   6   1 22794.0 1385.81   5
  -5   6   1 24893.8 1682.46   7
  -5   6   0 1544.16 319.902   5
  -5   6   0 1977.27 459.164   1
   5  -6   0 1513.22 456.615   3
  -5   6   0 1993.32 471.714   7
   5  -6   1 5119.65 459.996   4
   5  -6   1 4071.50 730.153   3
  -5   6  -1 5112.80 749.240   7
  -5   6  -1 5208.87 711.498   1
  -5   6  -1 4499.33 540.144   5
  -5   6  -2 19.8171 55.4203   5
   5  -6   2-29.7534 44.5410   4
  -5   6  -2 174.384 143.420   7
  -5   6  -2-168.127 175.898   1
  -5   6  -3 10391.2 964.395   1
   5  -6   3 9352.68 1084.45   3
  -5   6  -3 9690.71 749.182   5
   5  -6   4 348.985 186.151   3
  -5   6  -4 290.395 167.077   1
   5  -6   5 10857.2 832.609   4
  -5   6  -5 10269.0 944.190   1
   5  -6   5 9171.68 1047.81   3
   5  -6   5 8913.42 795.521   5
   5  -6   6 313.962 272.492   3
  -5   6  -6 41.3853 139.483   1
   5  -6   6-140.757 133.309   4
   5  -6   6-9.32937 64.8874   5
   5  -6   7 3547.54 681.182   3
   5  -6   7 3567.92 519.146   5
   5  -6   8 11.4457 149.911   3
   5  -6   9 5569.81 908.524   3
   5  -5 -10 284.286 219.324   3
   5  -5  -9 1416.62 492.248   3
   5  -5  -9 932.325 315.040   2
  -5   5   9 1087.47 455.250   1
  -5   5   8 445.437 264.199   1
   5  -5  -8 719.805 404.516   3
   5  -5  -8 98.9667 110.018   2
   5  -5  -7 914.313 309.725   2
  -5   5   7 728.637 374.881   1
   5  -5  -7 815.966 557.794   3
   5  -5  -6-31.3876 87.4510   2
  -5   5   6 276.044 243.940   1
   5  -5  -6-120.672 397.705   3
   5  -5  -5 1777.07 379.336   2
  -5   5   5 2496.80 607.791   1
  -5   5   5 2861.45 516.492   7
   5  -5  -5 1164.99 506.751   3
  -5   5   4-127.393 177.306   1
   5  -5  -4 151.282 128.465   2
  -5   5   4 64.4046 82.5924   7
   5  -5  -4-56.4319 176.081   3
  -5   5   3 16774.7 1204.43   7
  -5   5   3 14673.1 1360.64   1
   5  -5  -2 5929.81 958.572   3
  -5   5   2 8020.13 883.303   5
  -5   5   2 7726.94 944.012   1
  -5   5   2 8554.19 868.632   7
   5  -5  -1 1693.19 478.877   3
   5  -5  -1 1728.28 264.610   4
  -5   5   1 1849.84 402.457   7
  -5   5   1 1841.34 432.820   1
  -5   5   1 1736.76 379.437   5
   5  -5   0 807.613 293.873   3
  -5   5   0 1034.20 326.193   1
   5  -5   0 825.219 181.848   4
  -5   5   0 887.050 288.026   7
  -5   5   0 706.298 212.804   5
   5  -5   1 8279.84 547.722   4
  -5   5  -1 9636.91 938.132   7
   5  -5   1 8707.30 994.037   3
  -5   5  -1 9296.11 920.853   1
  -5   5  -1 8298.80 752.125   5
  -5   5  -2 166.052 133.053   5
   5  -5   2 45.8877 99.6530   3
   5  -5   2 63.7543 41.1331   4
  -5   5  -2 227.512 145.379   7
  -5   5  -2-136.954 155.283   1
   5  -5   3 21042.0 880.980   4
  -5   5  -3 24255.0 1395.35   1
   5  -5   3 22441.8 1558.27   3
  -5   5  -3 23212.5 1224.90   5
  -5   5  -4 159.519 115.598   5
   5  -5   4 137.746 180.979   3
  -5   5  -4 112.004 121.149   1
   5  -5   4 94.6648 118.590   5
   5  -5   5 4361.58 477.545   4
  -5   5  -5 4301.46 569.256   1
   5  -5   5 3893.30 639.232   3
   5  -5   5 4017.47 535.294   5
  -5   5  -5 3937.02 468.345   5
   5  -5   6-39.9109 92.0018   3
  -5   5  -6-58.0120 64.4160   1
   5  -5   6-43.2463 65.9902   4
   5  -5   6 86.7697 52.3405   5
   5  -5   7 8993.86 656.001   4
  -5   5  -7 9798.05 828.135   1
   5  -5   7 9400.91 1047.07   3
   5  -5   7 8782.75 828.492   5
   5  -5   8 72.6212 181.242   3
  -5   5  -8 186.720 143.615   6
   5  -5   8-89.9216 100.304   5
  -5   5  -9 5804.89 732.641   6
   5  -5   9 5308.52 691.655   5
  -5   5 -10 131.817 122.913   6
   5  -5  10-67.3830 86.1710   5
   5  -4 -11 394.282 253.571   3
   5  -4 -11 537.101 261.724   2
   5  -4 -10 372.900 219.807   3
   5  -4 -10-220.710 152.585   2
  -5   4   9 830.664 389.041   1
   5  -4  -9 579.706 340.133   3
   5  -4  -9 737.609 302.983   2
  -5   4   8 51.8260 242.536   1
   5  -4  -8 105.631 204.259   3
   5  -4  -8-41.8961 152.761   2
   5  -4  -7 2757.09 545.166   2
  -5   4   7 2857.53 708.802   1
   5  -4  -7 1969.27 654.073   3
   5  -4  -6 181.451 122.572   2
  -5   4   6 733.258 379.821   1
   5  -4  -5 1068.71 326.092   2
  -5   4   5 1822.97 535.211   1
   5  -4  -5 1068.70 493.102   3
   5  -4  -4 1248.82 334.565   2
  -5   4   4 1500.64 314.498   7
  -5   4   4 1515.52 426.757   1
   5  -4  -4 1595.32 583.000   3
   5  -4  -3 2824.94 670.253   3
  -5   4   3 3464.36 482.292   7
  -5   4   3 3304.31 644.569   1
   5  -4  -2 515.798 254.677   3
  -5   4   2 288.520 213.531   1
   5  -4  -2 229.055 99.5288   4
  -5   4   2 67.9330 74.4286   7
  -5   4   2 61.3464 84.0817   5
   5  -4  -1 15740.7 792.221   4
  -5   4   1 18010.1 1124.88   7
   5  -4  -1 15614.1 1338.39   3
  -5   4   1 18442.2 1275.57   5
  -5   4   1 14873.1 1237.66   1
   5  -4   0 946.929 281.726   3
   5  -4   0 729.720 159.084   4
  -5   4   0 979.488 257.211   7
  -5   4   0 750.700 263.364   1
  -5   4   0 954.098 285.584   5
   5  -4   1 3309.48 319.621   4
  -5   4  -1 3990.04 533.333   7
   5  -4   1 3835.22 609.757   3
  -5   4  -1 4137.48 576.835   1
  -5   4  -1 3840.72 512.653   5
  -5   4  -2 1583.34 322.279   5
   5  -4   2 1337.15 188.945   4
  -5   4  -2 1164.43 294.905   1
   5  -4   2 990.772 311.772   3
  -5   4  -2 1226.73 312.705   7
   5  -4   3 2505.53 255.523   4
   5  -4   3 2297.65 455.281   3
   5  -4   3 2694.90 378.593   7
  -5   4  -3 2375.79 401.635   1
   5  -4   3 2354.95 416.621   5
  -5   4  -3 2777.07 412.382   5
  -5   4  -4 361.345 146.663   5
   5  -4   4 382.345 192.001   1
   5  -4   4 316.208 194.334   3
   5  -4   4 264.206 78.5904   4
  -5   4  -4 332.656 136.317   1
   5  -4   4 250.453 111.342   7
   5  -4   4 164.777 49.1523   5
   5  -4   5 25178.5 1420.38   1
   5  -4   5 28648.5 1122.40   4
  -5   4  -5 27277.5 1350.70   1
   5  -4   5 25843.1 1608.73   3
   5  -4   5 23727.9 1362.62   5
  -5   4  -5 26166.3 1309.07   5
   5  -4   6 1121.19 296.324   1
  -5   4  -6 1172.20 255.892   5
  -5   4  -6 1184.91 269.546   1
   5  -4   6 1074.04 200.361   4
  -5   4  -6 1238.78 308.576   6
   5  -4   6 1058.35 280.318   5
   5  -4   7 6435.30 459.686   4
  -5   4  -7 5989.09 594.416   1
  -5   4  -7 6388.41 729.648   6
   5  -4   7 6467.51 721.890   5
  -5   4  -8-56.7297 117.812   6
   5  -4   8 118.934 91.9206   5
  -5   4  -9 5842.85 1267.81   8
  -5   4  -9 5369.68 720.629   6
   5  -4   9 5742.87 731.435   5
  -5   4 -10 213.638 289.817   8
  -5   4 -10 57.1311 124.548   6
   5  -4  10 9.31021 78.1661   5
  -5   4 -11 1145.87 547.788   8
  -5   4 -11 1265.33 383.848   6
   5  -4  11 1183.20 377.855   5
   5  -4  12 207.041 168.813   5
  -5   4 -12 131.647 148.706   6
   5  -3 -11-12.3316 92.8670   3
   5  -3 -11 353.360 210.782   2
  -5   3  10 293.625 166.088   4
   5  -3 -10 368.108 207.565   3
   5  -3 -10 115.255 96.0168   2
  -5   3   9 1235.63 320.080   4
   5  -3  -9 1338.48 385.150   3
   5  -3  -9 1122.78 395.807   2
  -5   3   8 1308.86 312.787   4
   5  -3  -8 1096.11 393.736   3
   5  -3  -8 1372.62 379.252   2
   5  -3  -7 2547.07 560.694   2
  -5   3   7 3243.26 506.605   4
   5  -3  -7 2659.22 693.595   3
   5  -3  -6 665.645 300.330   2
  -5   3   6 399.554 146.388   4
  -5   3   6 1058.88 445.817   1
   5  -3  -6 74.4611 232.079   3
  -5   3   5 7219.57 714.123   4
  -5   3   5 6170.18 960.127   1
   5  -3  -5 6060.43 733.285   2
  -5   3   4 2704.23 601.461   1
   5  -3  -4 2672.74 471.538   2
  -5   3   4 2734.39 388.590   7
   5  -3  -4 2892.49 732.298   3
  -5   3   3 10649.4 1193.38   1
   5  -3  -3 8275.21 622.374   4
  -5   3   3 10212.8 713.287   7
   5  -3  -3 9081.47 829.833   2
   5  -3  -3 8289.86 1041.19   3
  -5   3   2 557.528 250.071   1
   5  -3  -2 650.096 229.905   3
   5  -3  -2 726.159 164.702   4
  -5   3   2 645.683 184.007   7
  -5   3   2 901.917 314.748   5
  -5   3   1 4131.88 656.944   1
  -5   3   1 5729.45 538.490   7
   5  -3  -1 4325.02 640.682   3
   5  -3  -1 4892.85 412.533   4
  -5   3   1 5119.52 665.863   5
   5  -3   0 3586.36 324.006   4
  -5   3   0 4032.73 453.215   7
   5  -3   0 4128.69 610.048   3
  -5   3   0 4531.89 589.741   5
  -5   3   0 3683.34 553.099   1
   5  -3   1 4932.99 362.205   4
   5  -3   1 5100.62 864.816   8
  -5   3  -1 5778.09 556.741   7
   5  -3   1 5061.51 657.617   3
  -5   3  -1 5610.34 627.857   5
  -5   3  -1 5604.98 638.432   1
  -5   3  -2 1639.06 327.522   5
   5  -3   2 1605.47 189.245   4
   5  -3   2 1609.06 349.209   3
  -5   3  -2 1562.67 307.703   1
   5  -3   2 1935.29 505.494   8
   5  -3   2 1324.74 226.196   7
   5  -3   2 1285.88 312.143   5
   5  -3   3 21112.7 711.237   4
   5  -3   3 21483.8 1558.96   8
   5  -3   3 19267.3 986.768   7
  -5   3  -3 23777.6 1207.70   1
   5  -3   3 21145.3 1347.74   3
   5  -3   3 20642.3 1255.73   5
  -5   3  -3 22994.9 1239.22   5
  -5   3  -4 1253.58 275.712   5
   5  -3   4 1422.24 154.606   4
   5  -3   4 1241.83 307.193   3
   5  -3   4 1348.49 278.071   7
  -5   3  -4 1177.99 283.927   6
  -5   3  -4 1300.47 264.203   1
   5  -3   4 1304.98 294.502   5
   5  -3   5 8482.52 382.195   4
   5  -3   5 9165.03 777.695   1
   5  -3   5 10776.2 572.518   4
   5  -3   5 8350.46 761.999   7
  -5   3  -5 9481.33 703.693   1
  -5   3  -5 8721.08 814.748   6
   5  -3   5 8358.85 777.438   5
  -5   3  -5 9061.61 755.648   5
  -5   3  -6-1.87684 37.4265   1
   5  -3   6-1.69978 30.9448   4
  -5   3  -6-23.8456 58.1521   6
   5  -3   6-28.3234 87.9207   5
   5  -3   7 8443.25 722.554   1
   5  -3   7 8531.19 412.165   4
  -5   3  -7 9230.18 673.116   1
  -5   3  -7 8527.58 863.131   6
   5  -3   7 7638.53 781.827   5
  -5   3  -8-51.7805 174.778   8
   5  -3   8-50.8115 46.2760   4
  -5   3  -8-1.38981 72.2868   6
   5  -3   8-109.835 110.630   1
   5  -3   8 144.716 146.247   5
  -5   3  -9 4105.04 1015.73   8
  -5   3  -9 5644.67 745.411   6
   5  -3   9 4880.33 685.883   5
   5  -3  10 112.694 86.1926   5
  -5   3 -10 267.957 313.554   8
  -5   3 -10 126.909 135.080   6
   5  -3  11 3159.85 597.723   5
  -5   3 -11 3223.50 1012.65   8
  -5   3 -11 4459.49 716.185   6
   5  -3  12-128.932 167.347   5
  -5   3 -12-10.8428 92.9028   6
   5  -3  13-2.12414 133.564   5
  -5   3 -13 477.435 273.309   6
   5  -2 -11 567.003 292.425   2
  -5   2  10 172.225 137.773   4
   5  -2 -10 248.918 103.660   3
   5  -2 -10 318.241 218.040   2
  -5   2   9 1242.70 311.196   4
   5  -2  -9 1357.15 384.033   3
   5  -2  -9 766.053 352.913   2
  -5   2   8 66.4231 93.9602   4
   5  -2  -8 306.980 211.481   3
   5  -2  -8 415.596 268.937   2
  -5   2   7 5488.51 621.856   4
   5  -2  -7 4617.57 730.789   2
   5  -2  -7 4652.30 745.074   3
   5  -2  -6 1336.37 390.530   2
  -5   2   6 1071.11 259.797   4
   5  -2  -5 2113.00 459.363   2
  -5   2   5 2124.65 466.974   3
  -5   2   5 2646.73 401.289   4
   5  -2  -5 2041.11 552.277   3
  -5   2   4 436.711 210.122   3
   5  -2  -4 260.027 156.170   2
  -5   2   4 310.192 106.432   4
   5  -2  -4 82.0336 217.694   3
  -5   2   3 11371.0 807.400   4
   5  -2  -3 11751.2 776.032   4
  -5   2   3 13464.0 678.609   7
   5  -2  -3 11456.7 961.296   2
   5  -2  -3 9634.19 1076.39   3
   5  -2  -2-69.4687 206.234   3
  -5   2   2 101.607 188.992   1
  -5   2   2-102.699 121.271   4
   5  -2  -2-38.9886 63.4974   4
  -5   2   2-2.68786 64.1654   7
  -5   2   2 15.3502 82.3866   5
  -5   2   1 49877.9 2446.34   1
   5  -2  -1 49126.2 1511.16   4
  -5   2   1 53139.9 1514.28   7
   5  -2  -1 48593.9 2124.52   3
   5  -2   0 1310.22 346.585   3
   5  -2   0 1017.60 171.356   4
  -5   2   0 1284.35 200.317   7
   5  -2   0 1787.35 365.678   6
  -5   2   0 899.501 280.950   1
  -5   2   0 1272.43 316.269   5
   5  -2   1 17363.1 684.683   4
   5  -2   1 18300.3 1190.20   6
   5  -2   1 16491.0 1114.37   3
  -5   2  -1 18121.3 1157.27   5
  -5   2  -1 18641.3 1165.05   1
  -5   2  -2 96.7657 89.1285   5
   5  -2   2 210.009 117.912   3
   5  -2   2 153.165 58.0509   4
   5  -2   2 138.657 69.4898   7
   5  -2   2 82.1048 63.6517   6
  -5   2  -2 97.9172 58.9220   1
   5  -2   2 110.329 121.603   5
  -5   2  -3 348.637 149.689   5
   5  -2   3 100.919 77.4155   3
  -5   2  -3 274.745 84.1427   1
   5  -2   3 342.210 70.5872   4
   5  -2   3 116.327 129.480   8
   5  -2   3 173.470 81.0014   7
  -5   2  -3 247.001 122.758   6
   5  -2   3 252.874 126.831   6
   5  -2   3 202.920 109.309   5
  -5   2  -4 1449.32 310.333   5
   5  -2   4 1507.32 120.077   4
   5  -2   4 1370.90 137.851   4
   5  -2   4 1314.91 259.297   7
  -5   2  -4 1389.31 313.244   6
   5  -2   4 1237.09 295.696   6
   5  -2   4 1137.78 281.267   5
  -5   2  -4 1368.11 251.469   1
   5  -2   5 7137.85 666.809   7
  -5   2  -5 6961.56 735.391   6
  -5   2  -5 8121.20 589.311   1
   5  -2   5 7007.91 716.963   5
  -5   2  -5 7809.93 704.658   5
  -5   2  -6 89.0654 61.3773   1
   5  -2   6 119.848 81.5594   7
  -5   2  -6 165.535 140.152   6
   5  -2   6 307.118 185.788   5
   5  -2   7 13710.4 894.499   1
  -5   2  -7 14209.1 1585.80   8
  -5   2  -7 16792.0 818.371   1
  -5   2  -7 16767.4 1209.58   6
   5  -2   7 15447.4 1130.50   5
   5  -2   8 972.221 77.2516   4
  -5   2  -8 898.701 479.484   8
   5  -2   8 1006.74 231.265   1
  -5   2  -8 1007.02 289.222   6
   5  -2   8 952.858 294.645   5
  -5   2  -9 17875.7 1921.66   8
  -5   2  -9 20265.1 1437.92   6
   5  -2   9 19230.2 1361.48   5
   5  -2  10 106.289 125.723   5
  -5   2 -10 82.2738 192.180   8
  -5   2 -10 115.074 109.166   6
   5  -2  11 1535.46 412.896   5
  -5   2 -11 1625.55 630.685   8
  -5   2 -11 1585.18 421.704   6
   5  -2  12-50.4948 125.049   5
  -5   2 -12-22.8716 198.806   8
  -5   2 -12-161.206 151.409   6
   5  -2  13 867.990 334.372   5
  -5   2 -13 432.569 413.194   8
  -5   2 -13 616.434 294.823   6
  -5   2 -14 85.5890 147.362   6
  -5   1  10 86.9966 139.236   4
   5  -1 -10 548.797 297.941   2
  -5   1   9 1354.25 316.388   4
   5  -1  -9 915.576 291.274   3
   5  -1  -9 1395.74 455.062   2
  -5   1   8 302.190 145.816   4
   5  -1  -8 263.379 165.223   3
   5  -1  -8 399.724 279.095   2
   5  -1  -7 1210.91 387.582   2
  -5   1   7 1796.84 339.348   4
   5  -1  -7 1622.99 362.907   3
  -5   1   6 6162.21 624.988   4
   5  -1  -6 5380.10 765.501   2
  -5   1   6 6188.23 760.591   3
   5  -1  -6 4387.57 704.189   3
  -5   1   5 20771.3 1111.73   4
   5  -1  -5 17224.5 1285.89   2
  -5   1   5 19712.2 1308.52   3
  -5   1   4 5093.51 521.863   4
   5  -1  -4 5208.82 576.359   4
   5  -1  -4 4222.33 634.775   2
  -5   1   4 4594.08 585.441   3
   5  -1  -4 3562.84 677.653   3
  -5   1   3 19317.2 1012.48   4
   5  -1  -3 18065.7 1044.24   4
  -5   1   3 20267.9 675.415   7
   5  -1  -3 18033.6 1228.58   2
   5  -1  -3 17314.0 1368.95   3
   5  -1  -2 886.120 271.341   3
  -5   1   2 1055.19 215.800   4
   5  -1  -2 1332.07 253.712   4
  -5   1   2 1237.72 128.453   7
   5  -1  -2 969.395 273.228   6
  -5   1   2 1471.48 399.053   5
  -5   1   1 8077.59 571.578   4
   5  -1  -1 7378.75 554.353   4
   5  -1  -1 9002.09 819.203   6
   5  -1  -1 7501.36 721.475   3
  -5   1   1 9044.49 903.247   5
   5  -1   0 143.070 125.227   3
  -5   1   0 104.053 49.2665   4
   5  -1   0 233.378 75.7239   4
  -5   1   0 418.224 213.567   1
   5  -1   0 288.708 154.437   6
  -5   1   0 289.475 133.013   5
  -5   1  -1 20240.0 1298.89   1
   5  -1   1 19416.7 763.898   4
   5  -1   1 20145.6 1230.10   6
   5  -1   1 20136.5 1156.30   3
  -5   1  -1 21778.1 1277.00   5
   5  -1   2 1584.49 170.563   4
   5  -1   2 1219.20 258.819   3
   5  -1   2 1533.40 351.446   8
   5  -1   2 1231.26 165.583   7
  -5   1  -2 1633.49 323.486   1
  -5   1  -2 1291.11 296.719   6
   5  -1   2 1717.08 344.275   6
   5  -1   2 1739.84 356.356   5
  -5   1  -2 1799.21 345.605   5
   5  -1   3 27056.4 678.525   4
   5  -1   3 28011.4 1405.97   8
   5  -1   3 25446.0 1024.69   7
  -5   1  -3 27718.4 1415.36   6
   5  -1   3 28697.8 1453.77   6
   5  -1   3 27322.8 1440.80   5
  -5   1  -3 31678.7 1501.14   5
  -5   1  -3 30541.4 1227.54   1
  -5   1  -4 7.89667 74.9407   5
  -5   1  -4-1.95861 41.2574   1
   5  -1   4 112.335 72.6673   7
  -5   1  -4-56.1018 108.105   6
   5  -1   4 22.7559 63.9841   6
   5  -1   4-61.6873 113.089   5
   5  -1   5 5021.61 531.442   7
  -5   1  -5 6144.92 683.054   6
   5  -1   5 6270.31 656.359   6
  -5   1  -5 6216.44 454.745   1
   5  -1   5 5951.86 665.647   5
  -5   1  -5 6075.79 631.156   5
   5  -1   6 1890.51 355.378   7
  -5   1  -6 2473.59 272.643   1
  -5   1  -6 2129.09 411.371   6
   5  -1   6 1925.98 378.115   5
  -5   1  -7 16073.2 685.530   1
  -5   1  -7 14312.8 1460.36   8
   5  -1   7 14041.6 1041.72   7
  -5   1  -7 15278.6 1180.45   6
   5  -1   7 15799.5 1146.98   5
  -5   1  -8-190.583 281.313   8
  -5   1  -8-99.3736 154.015   6
   5  -1   8 1.95920 86.3141   5
  -5   1  -9 6324.43 1025.08   8
  -5   1  -9 5566.03 750.279   6
   5  -1   9 5940.56 763.311   5
   5  -1  10-3.86696 110.266   5
  -5   1 -10-118.692 222.516   8
  -5   1 -10-93.3594 135.068   6
  -5   1 -11 8953.63 1351.00   8
  -5   1 -11 8404.35 1013.46   6
   5  -1  11 9006.26 1025.39   5
   5  -1  12 187.494 170.349   5
  -5   1 -12 532.802 353.059   8
  -5   1 -12 226.216 132.764   6
   5  -1  13 1934.43 514.313   5
  -5   1 -13 840.753 450.289   8
  -5   1 -13 808.941 333.389   6
  -5   1 -14 7.08351 283.354   8
  -5   1 -14-120.844 123.786   6
  -5   0  10 561.605 215.688   4
   5   0 -10 411.916 240.316   2
  -5   0   9 2315.94 407.417   4
   5   0  -9 1886.46 585.028   2
  -5   0   8 347.031 163.931   4
   5   0  -8 590.655 214.104   3
   5   0  -8 593.007 306.713   2
  -5   0   7 6501.11 639.341   4
   5   0  -7 6893.49 901.415   2
   5   0  -7 6445.06 637.345   3
   5   0  -6 1329.37 462.589   2
  -5   0   6 1492.61 326.989   3
  -5   0   6 1632.32 303.504   4
   5   0  -6 1476.82 325.561   3
   5   0  -5 1419.48 406.188   2
  -5   0   5 1244.45 282.250   3
  -5   0   5 1478.61 281.910   4
   5   0  -5 1257.64 430.382   3
  -5   0   4 7594.03 608.826   4
  -5   0   4 6822.87 423.856   7
   5   0  -4 5794.57 748.065   2
   5   0  -4 5335.52 802.340   3
  -5   0   3 7263.18 567.415   4
   5   0  -3 6792.35 642.775   4
   5   0  -3 7269.94 779.036   2
   5   0  -3 6528.72 705.401   6
   5   0  -3 5802.31 775.449   3
   5   0  -2 88.8597 113.164   3
  -5   0   2 240.477 124.987   4
   5   0  -2 171.395 109.784   2
   5   0  -2 164.075 100.203   4
   5   0  -2 46.5159 67.2368   6
  -5   0   2 64.1912 69.6853   5
  -5   0   1 39095.2 1316.79   4
   5   0  -1 40555.9 1448.63   4
   5   0  -1 40947.8 1795.42   6
   5   0  -1 41530.8 1681.78   3
  -5   0   0 7102.95 480.431   4
   5   0   0 7790.44 534.665   4
   5   0   0 7931.62 737.134   6
   5   0   0 7938.06 667.781   3
  -5   0   0 9246.70 851.413   5
  -5   0  -1 47011.2 1317.29   4
   5   0   1 46785.9 1343.03   4
   5   0   1 49540.6 1936.98   6
   5   0   1 50510.3 1779.86   3
  -5   0  -2 11891.0 493.878   4
  -5   0  -2 12100.5 893.535   1
   5   0   2 11030.1 508.740   4
   5   0   2 11129.7 793.192   8
   5   0   2 11158.7 438.159   7
  -5   0  -2 11796.8 878.693   6
   5   0   2 12214.3 912.445   6
   5   0   2 11260.7 911.806   5
  -5   0  -2 12661.9 943.274   5
  -5   0  -3 13226.3 794.801   1
   5   0   3 11219.3 600.905   7
  -5   0  -3 10825.9 863.676   6
   5   0   3 11655.1 877.788   6
   5   0   3 11878.8 920.183   5
  -5   0  -3 13343.6 945.079   5
   5   0   4 1882.45 268.513   7
   5   0   4 2075.91 365.017   6
  -5   0  -4 1875.50 374.780   6
  -5   0  -4 1994.65 252.321   1
  -5   0  -4 2106.57 375.034   5
   5   0   4 1873.03 374.835   5
   5   0   5 15078.4 879.372   7
  -5   0  -5 17663.5 1165.17   6
   5   0   5 16739.0 1062.36   6
  -5   0  -5 17480.7 704.054   1
   5   0   5 16712.0 1149.13   5
  -5   0  -5 18251.2 1106.42   5
  -5   0  -6 103.030 167.768   8
  -5   0  -6 74.8002 36.2159   1
  -5   0  -6-4.69380 84.4501   6
   5   0   6 189.181 134.374   5
  -5   0  -7 93.8464 177.296   8
  -5   0  -7 174.714 130.451   6
   5   0   7 245.801 141.768   5
   5   0   8 1184.41 328.639   5
  -5   0  -8 859.708 306.244   8
  -5   0  -8 817.764 284.834   6
  -5   0  -9 16009.1 1506.91   8
  -5   0  -9 19755.5 1428.15   6
   5   0   9 16549.5 1276.27   5
   5   0  10 374.947 217.147   5
  -5   0 -10 529.178 294.272   8
  -5   0 -10 373.593 181.609   6
  -5   0 -11 5415.63 970.029   8
  -5   0 -11 5323.98 829.672   6
   5   0  11 5755.38 805.032   5
   5   0  12 306.147 211.332   5
  -5   0 -12 351.291 257.952   8
  -5   0 -12 615.741 314.244   6
   5   0  13 1253.19 413.747   5
  -5   0 -13 1593.81 584.526   8
  -5   0 -13 979.467 427.888   6
  -5   0 -14-616.099 409.535   8
  -5   0 -14 409.062 302.885   6
  -5  -1   9 1518.48 332.596   4
   5   1  -9 1293.28 430.605   2
  -5  -1   8 275.425 161.627   4
   5   1  -8 434.135 263.420   2
  -5  -1   7 395.931 165.762   4
   5   1  -7 343.795 247.443   2
   5   1  -6-31.2731 180.431   2
  -5  -1   6 64.2296 66.4534   3
  -5  -1   6 174.695 123.098   4
  -5  -1   6 43.2546 84.3984   7
   5   1  -6 40.4677 90.5359   3
  -5  -1   5 12401.4 809.789   4
  -5  -1   5 12573.1 730.594   7
   5   1  -5 12896.7 1219.49   2
   5   1  -5 12237.8 1008.49   6
   5   1  -5 12876.4 812.835   3
  -5  -1   4 3632.92 419.304   4
   5   1  -4 3097.62 589.197   2
  -5  -1   4 3782.86 309.097   7
   5   1  -4 3762.33 535.190   6
   5   1  -4 2547.96 461.677   3
  -5  -1   3 23614.4 1051.36   4
   5   1  -3 24578.7 1305.83   4
   5   1  -3 20542.4 1412.78   2
   5   1  -3 24230.1 1352.36   6
   5   1  -3 18819.4 1333.53   3
   5   1  -2 1237.05 307.536   3
   5   1  -2 738.604 261.616   2
  -5  -1   2 899.159 179.844   4
   5   1  -2 1180.94 252.431   4
   5   1  -2 969.881 259.146   6
  -5  -1   1 7907.52 532.083   4
   5   1  -1 8092.61 632.068   4
   5   1  -1 8254.70 737.412   6
   5   1  -1 7879.91 624.585   3
  -5  -1   1 9221.85 897.838   5
  -5  -1   0 5201.48 396.686   4
   5   1   0 4996.11 457.683   4
   5   1   0 5021.71 571.551   6
   5   1   0 4939.56 475.230   3
  -5  -1   0 4887.68 619.917   5
  -5  -1  -1 13503.4 610.392   4
   5   1   1 14583.3 842.606   8
  -5  -1  -1 14910.6 969.084   6
   5   1   1 14401.6 964.074   6
   5   1   1 15166.3 858.047   3
  -5  -1  -1 16498.4 1106.70   5
   5   1   2 13327.1 593.530   4
   5   1   2 12758.9 392.030   7
  -5  -1  -2 14096.2 952.802   6
   5   1   2 13805.6 928.630   6
   5   1   2 13793.3 1032.60   5
  -5  -1  -2 14790.4 1019.26   5
  -5  -1  -3 60598.2 1194.29   4
   5   1   3 50424.3 1367.30   7
  -5  -1  -3 55356.1 2093.26   6
   5   1   3 57394.6 2047.10   6
   5   1   3 54492.0 2148.85   5
  -5  -1  -3 58769.0 2150.03   5
  -5  -1  -4 2581.03 299.341   1
   5   1   4 2342.59 382.976   6
  -5  -1  -4 2418.54 410.851   6
  -5  -1  -4 3273.60 464.397   5
   5   1   4 2299.16 400.742   5
  -5  -1  -5 7100.29 730.244   6
   5   1   5 7693.81 688.002   6
  -5  -1  -5 7353.32 391.690   1
   5   1   5 7957.97 766.617   5
  -5  -1  -5 9047.07 770.058   5
  -5  -1  -6 667.538 265.994   8
  -5  -1  -6 575.900 78.6447   1
  -5  -1  -6 533.025 185.556   6
   5   1   6 361.134 173.412   5
  -5  -1  -7 8057.29 866.532   8
  -5  -1  -7 7696.07 825.484   6
   5   1   7 7638.64 808.905   5
   5   1   8 2333.47 446.758   5
  -5  -1  -8 3028.59 541.477   8
  -5  -1  -8 2797.58 497.619   6
  -5  -1  -9 5072.62 744.806   8
  -5  -1  -9 6180.56 792.196   6
   5   1   9 6546.00 789.079   5
   5   1  10 685.836 263.680   5
  -5  -1 -10 345.048 194.210   6
  -5  -1 -11 4927.37 803.593   6
   5   1  11 4092.17 681.115   5
   5   1  12 1175.06 409.310   5
  -5  -1 -12 1173.51 401.445   6
   5   1  13 2170.41 563.948   5
  -5  -1 -13 2394.09 649.169   6
  -5  -1 -14 365.092 239.481   6
  -5  -2   9 1126.03 286.388   4
   5   2  -9 1375.10 470.457   2
  -5  -2   8 107.978 55.6103   4
   5   2  -8 747.931 355.600   2
  -5  -2   7 5477.72 586.947   4
   5   2  -7 5463.19 898.767   2
   5   2  -6 271.858 189.584   2
  -5  -2   6 435.603 162.370   4
   5   2  -6 531.092 196.650   6
   5   2  -5 1208.98 420.270   2
  -5  -2   5 1744.49 297.450   4
  -5  -2   5 2292.14 311.178   7
   5   2  -5 1787.24 362.046   6
   5   2  -4 24.0833 138.097   2
  -5  -2   4-42.8971 48.1505   4
  -5  -2   4 50.9767 41.1418   7
   5   2  -4 66.6079 57.7038   6
   5   2  -4 146.171 96.2133   3
  -5  -2   3 3718.12 416.625   4
   5   2  -3 4055.07 644.783   2
   5   2  -3 3912.69 546.147   4
   5   2  -3 3318.88 475.592   6
   5   2  -3 2618.99 383.318   3
  -5  -2   2 6128.58 512.046   4
   5   2  -2 7083.99 799.817   2
   5   2  -2 6524.46 643.140   6
   5   2  -2 5443.99 573.722   3
  -5  -2   1 48648.9 1526.22   4
   5   2  -1 56136.7 2020.36   4
   5   2  -1 49306.9 2157.19   2
   5   2  -1 45408.3 1788.89   6
   5   2  -1 44046.2 1498.48   3
  -5  -2   1 51323.6 2189.98   5
   5   2   0 116.251 59.1144   3
  -5  -2   0 165.284 74.4545   4
   5   2   0 281.413 111.756   4
   5   2   0 271.621 135.790   6
  -5  -2   0 15.0638 57.0773   5
  -5  -2  -1 14573.1 688.983   4
   5   2   1 13663.8 750.143   4
  -5  -2  -1 14647.5 943.638   6
   5   2   1 14163.1 929.732   6
  -5  -2  -1 15427.4 1076.51   5
  -5  -2  -2 3161.80 284.182   4
  -5  -2  -2 3285.84 462.650   6
   5   2   2 3140.76 423.501   6
  -5  -2  -2 3648.90 501.530   5
   5   2   2 2776.49 459.310   5
  -5  -2  -3 23053.8 747.332   4
  -5  -2  -3 21911.1 1237.37   6
   5   2   3 21640.5 1168.02   6
   5   2   3 21960.3 1304.06   5
  -5  -2  -3 22132.4 1264.45   5
  -5  -2  -4 200.695 114.679   5
  -5  -2  -4 101.280 39.2892   4
  -5  -2  -4 124.589 124.993   6
   5   2   4 87.3559 62.6290   6
   5   2   4-51.9549 141.699   5
  -5  -2  -5 25671.4 1416.94   6
   5   2   5 24721.3 1254.64   6
   5   2   5 25225.5 1430.94   5
  -5  -2  -5 26206.7 1377.48   5
  -5  -2  -5 26226.0 778.450   1
  -5  -2  -6 1218.82 282.603   8
  -5  -2  -6 1714.40 370.581   6
   5   2   6 1761.16 369.795   5
  -5  -2  -7 13430.3 972.645   8
  -5  -2  -7 13270.4 1075.88   6
   5   2   7 13642.0 1090.91   5
  -5  -2  -8 4847.01 673.290   6
   5   2   8 4838.29 665.659   5
  -5  -2  -9 4759.72 694.806   6
   5   2   9 4711.25 674.171   5
   5   2  10 739.418 300.777   5
  -5  -2 -10 1277.05 154.794   4
  -5  -2 -10 801.497 306.150   6
  -5  -2 -11 12652.7 1306.40   6
   5   2  11 11282.5 1166.51   5
   5   2  12 123.320 181.552   5
  -5  -2 -12 300.397 266.150   6
   5   2  13 76.9314 141.994   5
  -5  -2 -13 122.192 96.8498   6
  -5  -2 -14 475.415 251.844   6
  -5  -3   8 947.994 256.787   4
   5   3  -8 966.509 414.785   2
  -5  -3   7 752.204 221.730   4
   5   3  -7 795.895 345.492   2
  -5  -3   6 174.030 116.185   4
   5   3  -6-31.7457 70.4574   6
   5   3  -6 147.131 226.526   2
   5   3  -5 1585.17 450.029   2
  -5  -3   5 2028.71 357.574   4
  -5  -3   5 1699.29 276.319   7
   5   3  -5 1513.09 319.928   6
  -5  -3   4 7036.90 637.106   4
  -5  -3   4 7759.76 524.270   7
   5   3  -4 7669.75 981.415   2
   5   3  -4 7946.45 717.968   6
  -5  -3   3 18826.0 1047.23   4
   5   3  -3 20300.7 1491.50   2
   5   3  -3 19474.6 1110.27   6
  -5  -3   2 2.22883 80.3638   4
   5   3  -2 96.3541 96.4542   4
   5   3  -2 131.234 83.9328   6
   5   3  -1 1995.86 236.024   3
  -5  -3   1 2369.29 336.666   4
   5   3  -1 2854.41 529.750   2
   5   3  -1 2171.93 354.984   4
   5   3  -1 2263.44 356.130   6
  -5  -3   1 2326.19 443.519   5
   5   3   0 1761.16 394.044   2
   5   3   0 1715.97 166.079   8
  -5  -3   0 1704.76 274.535   4
   5   3   0 1613.31 289.350   4
   5   3   0 1542.64 204.224   3
   5   3   0 1415.94 271.832   6
  -5  -3   0 2273.05 427.182   5
  -5  -3  -1 40611.2 1367.15   4
   5   3   1 37165.7 939.789   7
  -5  -3  -1 40089.7 1616.68   6
   5   3   1 39977.5 1575.97   6
  -5  -3  -1 43406.9 1874.64   5
  -5  -3  -2 1837.10 251.728   4
   5   3   2 1408.63 155.291   7
   5   3   2 1920.77 326.162   6
  -5  -3  -2 1829.71 316.655   6
   5   3   2 1688.46 371.693   5
  -5  -3  -2 1731.42 338.789   5
  -5  -3  -3 7025.90 464.143   4
  -5  -3  -3 6558.38 661.615   6
   5   3   3 7168.38 624.811   6
   5   3   3 6884.48 733.913   5
  -5  -3  -3 7333.79 707.525   5
  -5  -3  -4 6601.04 416.125   4
  -5  -3  -4 6189.77 655.654   6
   5   3   4 5872.26 564.969   6
   5   3   4 5545.91 649.272   5
  -5  -3  -4 6257.74 651.641   5
  -5  -3  -5 46507.2 1224.64   4
  -5  -3  -5 46130.0 1958.78   6
   5   3   5 42747.0 1649.35   6
   5   3   5 44569.0 1988.56   5
  -5  -3  -5 49147.4 1931.38   5
  -5  -3  -6 130.760 42.5487   4
  -5  -3  -6 41.8782 67.9900   8
  -5  -3  -6 129.805 70.1545   4
  -5  -3  -6 213.498 167.891   6
   5   3   6-58.4977 122.952   5
  -5  -3  -7 4668.57 261.616   4
  -5  -3  -7 4392.68 287.871   4
  -5  -3  -7 3734.96 559.123   6
   5   3   7 3980.34 599.725   5
   5   3   8 123.325 96.2698   5
  -5  -3  -8 159.567 52.9014   4
  -5  -3  -8 294.641 162.120   6
  -5  -3  -9 13929.6 1233.49   6
   5   3   9 12885.4 1140.93   5
   5   3  10-14.4979 113.235   5
  -5  -3 -10 8.11018 149.768   6
  -5  -3 -11 4546.24 772.967   6
   5   3  11 5253.14 781.022   5
   5   3  12 512.028 245.474   5
  -5  -3 -12 551.674 315.338   6
  -5  -3 -13 5166.42 987.099   6
   5   3  13 5126.81 876.189   5
  -5  -4   8 367.624 177.571   4
   5   4  -8 205.929 180.264   2
  -5  -4   7 2210.97 402.489   4
   5   4  -7 2975.22 696.284   2
  -5  -4   6 1879.23 376.234   4
   5   4  -6 1672.14 512.709   2
   5   4  -5 3310.29 720.946   2
  -5  -4   5 3797.49 512.496   4
   5   4  -5 3890.21 478.277   6
   5   4  -4 111.663 245.910   2
  -5  -4   4 22.1321 61.8904   7
  -5  -4   4 109.693 95.9784   4
   5   4  -4 0.84592 46.6881   6
   5   4  -3 969.151 352.856   2
  -5  -4   3 1102.68 270.840   4
   5   4  -3 1358.45 265.073   6
   5   4  -2 1541.98 441.603   2
  -5  -4   2 2487.58 395.039   4
   5   4  -2 2019.66 312.615   6
  -5  -4   1 39419.5 1595.83   4
   5   4  -1 39459.2 1439.92   8
   5   4  -1 39860.5 2078.11   2
   5   4  -1 39048.3 1503.06   6
  -5  -4   0 6383.42 575.703   4
   5   4   0 5696.27 411.188   7
   5   4   0 7521.81 842.196   2
   5   4   0 5403.41 349.946   3
   5   4   0 6160.49 560.786   6
   5   4   0 6534.78 337.739   3
  -5  -4   0 7172.99 750.321   5
  -5  -4  -1 5221.74 500.168   4
   5   4   1 5412.70 405.608   7
  -5  -4  -1 4967.06 530.203   6
   5   4   1 3598.38 347.531   3
   5   4   1 6605.00 774.969   2
   5   4   1 5275.11 509.622   6
  -5  -4  -1 6495.58 694.540   5
   5   4   2 1647.18 216.813   7
  -5  -4  -2 1411.94 242.743   4
   5   4   2 1845.95 300.300   6
  -5  -4  -2 1571.01 314.039   6
   5   4   2 1142.32 232.682   3
   5   4   2 1727.63 368.821   5
  -5  -4  -2 1789.69 352.438   5
  -5  -4  -3 25013.1 1082.93   4
  -5  -4  -3 24845.7 1323.99   6
   5   4   3 24403.6 1135.44   6
   5   4   3 24214.9 1444.86   5
  -5  -4  -3 27699.2 1403.36   5
  -5  -4  -4 280.359 141.938   5
  -5  -4  -4 423.046 111.972   1
  -5  -4  -4 436.632 143.985   4
  -5  -4  -4 420.592 178.122   6
   5   4   4 367.298 125.572   6
   5   4   4 498.035 173.967   5
  -5  -4  -5 6703.55 537.498   4
  -5  -4  -5 6079.89 367.552   1
   5   4   5 5243.91 566.147   3
  -5  -4  -5 6158.92 679.236   6
   5   4   5 5547.91 521.055   6
   5   4   5 6161.20 718.895   5
  -5  -4  -6 943.677 185.683   4
  -5  -4  -6 841.696 93.8493   1
  -5  -4  -6 815.573 233.054   6
   5   4   6 670.192 214.992   3
   5   4   6 734.783 250.517   5
  -5  -4  -7 12697.7 546.596   4
  -5  -4  -7 13349.1 1108.13   6
   5   4   7 12209.1 1042.95   5
  -5  -4  -8 452.591 105.613   4
  -5  -4  -8 539.000 235.771   6
   5   4   8 522.736 217.394   5
   5   4   9 2087.31 458.444   5
  -5  -4  -9 2337.85 257.298   4
  -5  -4  -9 3226.56 589.378   6
  -5  -4 -10 4284.72 728.471   6
   5   4  10 4287.31 679.635   5
  -5  -4 -11 14279.1 1435.93   6
   5   4  11 13349.5 1272.40   5
   5   4  12-195.275 183.214   5
  -5  -4 -12 8.73977 185.659   6
   5   4  13 2446.20 591.286   5
  -5  -4 -13 3410.02 802.957   6
  -5  -5   7 1359.17 334.231   4
   5   5  -7 1642.53 542.969   2
  -5  -5   6 88.9152 95.9548   4
   5   5  -6 66.2319 155.704   2
  -5  -5   5 1080.18 294.489   4
   5   5  -5 488.911 248.938   2
   5   5  -4 890.163 441.705   2
   5   5  -4 1830.85 409.727   8
  -5  -5   4 1866.14 390.613   4
  -5  -5   3 6724.20 712.897   4
   5   5  -3 6817.56 769.397   8
   5   5  -3 8691.28 1139.53   2
  -5  -5   2 10581.7 861.989   4
   5   5  -2 10678.2 930.117   8
   5   5  -2 10623.1 1174.21   2
   5   5  -1-35.1257 196.879   2
  -5  -5   1 100.060 139.935   4
   5   5   0 96.3485 155.469   2
  -5  -5   0-133.277 119.966   4
   5   5   0 6.67436 61.6678   7
  -5  -5   0-56.8852 98.7460   5
  -5  -5  -1 16943.3 1034.00   4
   5   5   1 16221.1 864.175   7
   5   5   1 19491.4 1373.94   2
  -5  -5  -1 17155.1 985.126   6
   5   5   1 15622.8 846.148   6
  -5  -5  -1 18243.3 1169.65   5
  -5  -5  -2 2066.91 378.718   5
   5   5   2 2171.01 452.387   2
   5   5   2 2417.10 308.147   7
  -5  -5  -2 2017.13 341.277   4
   5   5   2 2443.57 321.367   6
  -5  -5  -2 2060.24 355.188   6
   5   5   2 1217.74 282.498   3
  -5  -5  -3 13050.9 896.358   4
   5   5   3 11366.2 688.570   7
  -5  -5  -3 11239.0 865.390   6
   5   5   3 10965.8 697.027   6
   5   5   3 11460.1 989.760   5
  -5  -5  -3 13072.6 955.499   5
  -5  -5  -4 6133.18 606.398   4
  -5  -5  -4 5229.09 430.797   1
  -5  -5  -4 6274.82 667.307   6
   5   5   4 5297.91 494.299   6
   5   5   4 5213.93 642.609   5
  -5  -5  -4 5526.36 610.072   5
  -5  -5  -5 6418.34 569.052   4
  -5  -5  -5 6614.33 444.748   1
   5   5   5 4712.83 550.759   3
  -5  -5  -5 6853.82 722.177   6
   5   5   5 5805.68 519.792   6
   5   5   5 6664.89 740.437   5
  -5  -5  -6 85.9412 47.7063   1
  -5  -5  -6 81.8779 46.5322   4
  -5  -5  -6 29.5757 95.8446   6
   5   5   6-37.2625 92.5092   3
   5   5   6 75.5918 94.2634   5
  -5  -5  -7 8773.96 899.988   6
   5   5   7 8593.20 885.852   5
  -5  -5  -8 392.621 207.893   6
   5   5   8 529.606 201.904   5
   5   5   9 2590.60 512.884   5
  -5  -5  -9 2631.72 547.591   6
   5   5  10-173.153 197.917   5
  -5  -5 -10-128.370 174.058   6
   5   5  11 2756.76 581.773   5
  -5  -5 -11 3472.92 722.674   6
   5   5  12 376.853 241.724   5
  -5  -5 -12-76.6887 156.505   6
   5   5  13 2041.69 529.322   5
  -5  -5 -13 2310.13 672.025   6
   5   6  -7 1047.15 451.701   8
   5   6  -6 582.323 292.337   8
  -5  -6   6 731.935 268.779   4
   5   6  -6 1006.16 382.117   2
  -5  -6   5 4099.39 610.367   4
   5   6  -5 3577.85 703.806   8
   5   6  -5 4641.24 925.617   2
   5   6  -4 744.491 310.900   8
  -5  -6   4 973.032 304.408   4
   5   6  -4 617.950 319.702   2
   5   6  -3 685.463 335.213   2
   5   6  -3 644.536 315.100   8
  -5  -6   3 614.227 235.058   4
   5   6  -2-92.2393 211.272   2
  -5  -6   2 123.130 120.774   4
   5   6  -1 1535.09 470.434   2
  -5  -6   1 1902.80 381.610   4
   5   6  -1 1828.44 330.188   7
   5   6   0 3650.31 656.554   2
  -5  -6   0 3207.15 491.656   4
   5   6   0 2978.48 421.644   7
  -5  -6  -1 9425.05 830.088   4
   5   6   1 9179.58 735.105   7
   5   6   1 9870.78 1032.38   2
  -5  -6  -1 9748.80 714.345   6
   5   6   1 8285.24 557.513   6
   5   6   1 8536.58 480.618   3
  -5  -6  -1 8491.08 697.726   1
  -5  -6  -1 10592.2 886.490   5
  -5  -6  -2 1060.78 278.271   5
  -5  -6  -2 1005.53 234.029   1
   5   6   2 1337.67 394.880   2
  -5  -6  -2 1336.27 327.830   4
   5   6   2 914.061 225.785   7
  -5  -6  -2 1069.06 260.166   6
   5   6   2 983.815 189.543   6
   5   6   2 750.183 227.716   3
  -5  -6  -3 1840.27 346.217   5
   5   6   3 1969.67 436.211   2
  -5  -6  -3 1605.43 275.534   1
   5   6   3 1752.61 298.403   7
  -5  -6  -3 2097.24 410.813   4
   5   6   3 1651.23 255.309   6
  -5  -6  -3 1716.76 329.663   6
   5   6   3 688.520 304.201   3
   5   6   3 1728.22 386.730   5
  -5  -6  -4 5574.87 617.402   4
  -5  -6  -4 5014.68 462.142   1
  -5  -6  -4 6318.13 665.804   6
   5   6   4 4984.79 452.778   6
   5   6   4 4977.44 659.229   5
  -5  -6  -5 16959.1 1054.69   4
  -5  -6  -5 16942.2 1151.67   6
   5   6   5 15232.8 1152.28   5
  -5  -6  -6 5887.83 606.245   4
  -5  -6  -6 4735.90 438.106   8
  -5  -6  -6 5142.93 658.140   6
   5   6   6 3564.47 616.813   3
  -5  -6  -6 5300.01 407.820   1
   5   6   6 5465.02 696.428   5
  -5  -6  -7 3166.96 551.089   6
  -5  -6  -7 3153.21 263.663   1
   5   6   7 2622.74 498.306   5
  -5  -6  -8 102.126 63.2959   4
  -5  -6  -8-69.6847 128.270   6
   5   6   8-18.0681 97.6312   5
  -5  -6  -9 1661.09 246.253   4
  -5  -6  -9 2588.37 553.297   6
   5   6   9 2337.72 506.134   5
   5   6  10-166.560 168.167   5
  -5  -6 -10-72.8251 156.881   6
   5   6  11 833.933 335.228   5
  -5  -6 -11 1021.75 402.792   6
   5   6  12 289.857 241.573   5
  -5  -6 -12 55.1556 174.211   6
   5   6  13 1580.37 476.570   5
   5   7  -6 308.862 268.489   2
   5   7  -5 1522.41 514.679   8
  -5  -7   5 1475.82 422.416   4
   5   7  -5 1390.42 530.422   2
   5   7  -4-47.6332 172.803   8
  -5  -7   4-5.29246 137.753   4
   5   7  -4 277.174 288.298   2
  -5  -7   3 3216.83 564.130   4
   5   7  -3 4570.66 878.995   2
  -5  -7   2 1554.52 380.669   4
   5   7  -2 1924.74 590.712   2
   5   7  -1 2894.41 687.005   2
   5   7  -1 3108.71 472.402   7
  -5  -7   1 2657.52 493.670   4
   5   7   0 278.327 168.484   2
  -5  -7   0-99.8495 189.672   4
   5   7   0-4.52452 51.7663   7
  -5  -7  -1 87.8918 88.6211   4
   5   7   1 87.3415 50.9323   7
  -5  -7  -1 263.983 117.304   6
  -5  -7  -2 503.856 183.634   5
   5   7   2 158.291 106.191   3
   5   7   2 269.084 232.290   2
  -5  -7  -2 687.775 271.615   4
   5   7   2 148.343 53.3498   7
  -5  -7  -2 456.932 166.155   6
  -5  -7  -3 13645.4 1124.03   4
   5   7   3 11292.2 857.509   7
  -5  -7  -3 10063.6 761.655   1
   5   7   3 9902.71 1035.72   2
  -5  -7  -3 12121.3 899.376   6
   5   7   3 9686.16 1107.31   3
  -5  -7  -3 10676.1 845.064   5
  -5  -7  -4 3238.83 495.161   4
   5   7   4 3428.31 601.228   2
   5   7   4 2808.39 422.743   7
  -5  -7  -4 2965.77 388.659   1
  -5  -7  -4 3154.63 471.866   6
   5   7   4 2715.98 486.994   5
   5   7   4 1370.81 492.393   3
  -5  -7  -5 1355.40 332.992   4
  -5  -7  -5 1717.42 365.315   6
  -5  -7  -5 1402.66 254.772   1
   5   7   5 1789.80 394.496   5
  -5  -7  -6 2171.00 413.291   4
  -5  -7  -6 1569.19 374.495   6
   5   7   6 1442.12 545.912   3
   5   7   6 1884.93 411.259   5
  -5  -7  -7 6706.47 805.184   6
   5   7   7 5819.66 750.519   5
  -5  -7  -8 255.650 191.326   6
   5   7   8 216.855 180.849   5
  -5  -7  -9 1962.55 503.282   6
   5   7   9 1803.93 445.937   5
  -5  -7 -10 466.914 249.431   6
   5   7  10 514.899 241.422   5
   5   7  11 2211.23 534.704   5
  -5  -7 -11 2629.76 656.085   6
   5   7  12-61.9001 72.1566   5
  -5  -7 -12 204.462 236.553   6
   5   8  -5 913.082 366.657   2
  -5  -8   4 517.068 233.337   4
   5   8  -4 339.571 351.217   2
  -5  -8   3 2225.94 490.852   4
   5   8  -3 1689.88 566.150   2
  -5  -8   2-3.24542 86.9525   4
   5   8  -2-53.0526 142.113   2
  -5  -8   1 886.747 303.881   4
   5   8  -1 1587.17 376.627   7
   5   8  -1 1322.50 476.944   2
   5   8   0 331.572 267.966   2
   5   8   0 887.765 277.595   7
   5   8   1 3433.28 717.126   2
  -5  -8  -1 4211.23 653.845   4
   5   8   1 3512.02 559.304   7
  -5  -8  -1 3452.70 388.067   6
   5   8   2-219.408 213.296   2
  -5  -8  -2 280.788 199.320   4
   5   8   2 275.433 153.585   7
  -5  -8  -2 182.758 103.506   6
   5   8   3 1395.45 405.320   2
  -5  -8  -3 2007.17 460.586   4
   5   8   3 1276.79 326.935   7
  -5  -8  -3 1644.78 322.114   6
   5   8   4-25.0016 121.109   2
  -5  -8  -4 141.593 118.844   4
   5   8   4 58.3257 107.041   7
  -5  -8  -4 19.7624 78.3118   6
   5   8   4 39.6993 70.8378   5
   5   8   5 3425.18 606.358   2
  -5  -8  -5 3490.26 568.520   4
   5   8   5 3171.12 504.786   7
  -5  -8  -5 2633.56 451.960   6
   5   8   5 3213.49 551.842   5
   5   8   6 398.012 217.576   2
  -5  -8  -6 359.025 211.618   4
  -5  -8  -6 395.210 184.416   6
   5   8   6 387.372 186.274   5
  -5  -8  -7 3086.52 565.239   6
   5   8   7 2901.37 532.571   5
  -5  -8  -8 1107.48 367.812   6
   5   8   8 1535.83 401.202   5
  -5  -8  -9 2376.51 570.224   6
   5   8   9 1439.78 398.297   5
  -5  -8 -10 259.124 214.551   6
   5   8  10 285.814 176.435   5
  -5  -8 -11 1119.44 426.804   6
   5   8  11 684.516 317.848   5
   5   8  12 209.086 195.734   5
   5   9  -4 26.5188 130.531   2
   5   9  -3 694.014 370.770   2
  -5  -9   2 638.019 290.047   4
   5   9  -2 368.849 294.554   2
  -5  -9   1 1173.91 366.940   4
   5   9  -1 1284.42 353.716   7
   5   9  -1 1630.56 512.394   2
  -5  -9   0 222.960 176.394   4
   5   9   0 413.848 207.396   7
   5   9   0 595.113 313.747   2
  -5  -9  -1 1600.52 438.130   4
   5   9   1 1730.30 430.665   7
   5   9   1 1291.18 439.212   2
   5   9   2 138.327 174.641   2
  -5  -9  -2 98.8030 91.3239   4
   5   9   2 216.462 107.157   7
   5   9   3 1541.54 427.612   2
  -5  -9  -3 1882.85 476.938   4
   5   9   3 2150.35 465.949   7
   5   9   4 117.074 106.078   2
  -5  -9  -4 409.116 217.582   4
   5   9   4 499.515 217.630   7
  -5  -9  -4 270.929 162.526   6
   5   9   5 535.807 252.777   2
  -5  -9  -5 2249.68 494.789   4
   5   9   5 1720.47 400.096   7
  -5  -9  -5 1718.98 382.190   6
   5   9   5 1934.02 422.997   5
   5   9   6 1025.42 324.189   7
  -5  -9  -6 446.414 231.551   4
  -5  -9  -6 1055.21 302.856   6
   5   9   6 808.352 292.826   5
  -5  -9  -7 1309.12 362.918   6
   5   9   7 1161.36 341.059   5
  -5  -9  -8 300.705 223.794   6
   5   9   8 236.278 118.875   5
  -5  -9  -9 783.402 325.554   6
   5   9   9 643.720 264.503   5
  -5  -9 -10-122.775 179.596   6
   5   9  10 52.3672 87.5221   5
  -5  -9 -11 1321.77 489.791   6
   5   9  11 700.440 306.310   5
   5   9  12 406.494 276.042   5
   5  10  -2 56.5560 108.104   2
   5  10  -1 491.190 243.415   7
  -5 -10   0 667.712 330.195   4
   5  10   0 333.945 204.023   7
  -5 -10  -1 1466.09 440.653   4
   5  10   1 466.379 238.897   7
  -5 -10  -2 644.636 323.382   4
   5  10   2 470.465 273.838   7
  -5 -10  -3 698.959 297.180   4
   5  10   3 1038.27 375.217   7
   5  10   4 605.539 271.498   7
  -5 -10  -4 1059.76 375.301   4
   5  10   5 1569.97 408.790   7
  -5 -10  -5 1754.02 476.381   4
   5  10   6 94.6067 95.2723   7
  -5 -10  -6 302.673 173.346   4
  -5 -10  -6 391.441 218.944   6
   5  10   7 754.371 318.678   7
  -5 -10  -7 345.884 202.187   4
  -5 -10  -7 724.792 280.218   6
  -5 -10  -8-171.723 149.257   6
  -5 -10  -9 1208.48 413.079   6
  -5 -10 -10 448.569 296.655   6
   5  11   1 151.686 124.939   7
   5  11   2 83.9637 105.595   7
   5  11   3 615.973 300.333   7
   5  11   4 367.669 243.311   7
   5  11   5 334.069 195.480   7
  -5 -11  -5 376.668 243.041   4
   5  11   6 70.9220 94.6381   7
  -5 -11  -6 610.123 292.664   4
   5  11   7 975.877 376.850   7
  -5 -11  -7 1384.23 449.258   4
  -6   9   3 14.8341 131.797   7
  -6   9   2 937.233 427.461   7
  -6   9   1 73.3732 212.096   7
  -6   9   0 1082.30 451.718   7
  -6   9  -1 256.572 259.597   7
  -6   9  -2 202.018 203.761   7
  -6   8   4 1195.38 462.366   7
  -6   8   3 55.3201 135.880   7
  -6   8   2 693.742 327.578   7
  -6   8   1 39.9029 134.396   7
  -6   8   0 393.677 260.603   7
  -6   8   0 299.577 204.301   1
  -6   8  -1 247.672 246.242   7
  -6   8  -1-29.1993 85.0592   1
  -6   8  -2 3704.19 787.836   7
  -6   8  -2 3770.35 730.110   1
  -6   8  -3 273.679 193.620   1
  -6   8  -4 330.779 199.729   1
  -6   7   4 1901.23 569.824   1
  -6   7   4 1644.79 486.807   7
   6  -7  -4 1854.55 712.521   3
   6  -7  -3 313.291 337.276   3
  -6   7   3-38.5430 132.625   1
   6  -7  -3 140.438 144.709   2
  -6   7   3-81.1156 100.069   7
   6  -7  -2 3203.25 864.996   3
  -6   7   2 2519.66 625.798   1
  -6   7   2 2450.28 577.180   7
   6  -7  -1 475.782 387.799   3
  -6   7   1 31.2397 172.368   1
  -6   7   1-123.639 209.110   7
   6  -7   0 2928.90 769.460   3
  -6   7   0 3063.12 646.877   7
  -6   7   0 2321.98 567.180   1
   6  -7   1 352.840 220.862   3
  -6   7  -1 686.405 345.444   7
  -6   7  -1 661.243 296.362   1
   6  -7   2 1183.38 455.984   3
  -6   7  -2 791.751 335.441   7
  -6   7  -2 992.194 370.321   1
   6  -7   3 181.120 199.639   3
  -6   7  -3-85.8591 129.785   1
   6  -7   4 1993.02 544.306   3
  -6   7  -4 1885.97 459.829   1
  -6   7  -5 118.169 138.044   1
  -6   7  -6 984.013 317.253   1
  -6   7  -7 140.498 127.370   1
   6  -6  -7 64.0299 455.683   3
   6  -6  -6 597.188 268.510   2
   6  -6  -6 557.460 373.516   3
   6  -6  -5 133.254 120.086   2
  -6   6   5 125.076 142.021   7
  -6   6   5 199.290 188.698   1
   6  -6  -5-311.068 402.018   3
   6  -6  -4 2915.33 548.262   2
  -6   6   4 3906.21 686.421   7
  -6   6   4 4004.41 810.144   1
   6  -6  -4 3812.24 1002.14   3
   6  -6  -3 1210.35 588.790   3
   6  -6  -3 915.621 288.467   2
  -6   6   3 1264.97 376.652   7
  -6   6   3 858.687 382.517   1
   6  -6  -2 4504.48 963.675   3
  -6   6   2 5066.69 763.097   7
  -6   6   2 5636.47 900.122   1
   6  -6  -1 1288.16 519.223   3
  -6   6   1 1850.91 496.775   1
  -6   6   1 1947.38 479.546   7
   6  -6   0 2041.46 559.902   3
  -6   6   0 2574.54 580.425   1
  -6   6   0 2510.44 531.310   7
   6  -6   1 979.425 380.324   3
  -6   6  -1 371.700 215.645   7
  -6   6  -1 562.269 255.512   1
  -6   6  -2 8516.88 978.460   1
   6  -6   2 8168.80 1076.12   3
   6  -6   3 10.5580 120.838   3
  -6   6  -3-31.5874 119.453   1
   6  -6   4 3950.68 739.745   3
  -6   6  -4 3980.04 621.849   1
   6  -6   5 24.5502 99.7857   3
  -6   6  -5 104.081 78.5266   1
   6  -6   6 371.331 167.151   3
  -6   6  -6 672.933 248.358   1
  -6   6  -7 6.03723 87.0149   1
   6  -5  -8 274.484 197.178   2
   6  -5  -8 529.822 428.780   3
   6  -5  -7 252.792 196.741   2
   6  -5  -7 30.0932 258.872   3
   6  -5  -6 1281.93 383.055   2
  -6   5   6 2001.40 582.656   1
   6  -5  -6 1780.39 682.520   3
   6  -5  -5 889.817 248.878   2
  -6   5   5 721.376 363.113   1
  -6   5   5 871.583 294.617   7
   6  -5  -5 325.248 246.329   3
  -6   5   4 2880.96 692.589   1
   6  -5  -4 2544.35 510.812   2
  -6   5   4 3432.76 571.021   7
   6  -5  -4 2647.47 832.060   3
   6  -5  -3 814.564 434.032   3
   6  -5  -3 908.421 281.273   2
  -6   5   3 975.648 300.440   7
  -6   5   3 1309.96 456.417   1
  -6   5   2 8771.17 903.442   7
   6  -5  -2 6910.63 1102.47   3
  -6   5   2 7939.43 1050.49   1
   6  -5  -1 643.010 336.206   3
  -6   5   1 306.138 174.786   7
  -6   5   1 138.819 123.480   1
   6  -5   0 4551.97 804.836   3
  -6   5   0 5739.53 724.764   7
  -6   5   0 5545.51 803.559   1
   6  -5   1 649.905 298.675   3
  -6   5  -1 389.948 221.257   1
  -6   5  -1 694.161 258.658   7
  -6   5  -2 5317.84 719.037   1
   6  -5   2 5242.32 798.480   3
   6  -5   3-16.9464 162.258   3
  -6   5  -3 119.400 92.0787   1
  -6   5  -4 10122.2 934.059   1
   6  -5   4 10321.8 1132.70   3
   6  -5   5 198.754 174.268   3
  -6   5  -5 145.569 102.681   1
   6  -5   5-40.5900 94.6225   5
  -6   5  -6 7477.84 767.665   1
   6  -5   6 7137.10 957.776   3
   6  -5   6 6499.96 770.313   5
   6  -5   7 156.536 226.555   3
  -6   5  -7 155.873 116.058   1
   6  -5   7 147.532 127.368   5
   6  -5   8 943.659 379.756   3
   6  -5   8 988.200 317.397   5
   6  -5   9-58.5970 106.154   5
  -6   5 -10 1089.93 367.376   6
   6  -4  -9 279.874 246.663   3
   6  -4  -9 184.450 209.484   2
   6  -4  -8 1383.03 444.141   2
   6  -4  -8 1860.09 599.823   3
   6  -4  -7 12.7098 94.6670   2
  -6   4   7 24.1020 157.119   1
   6  -4  -7 412.235 368.997   3
   6  -4  -6 992.866 318.787   2
   6  -4  -6 782.202 418.538   3
   6  -4  -5-82.7642 104.950   2
  -6   4   5-23.6172 108.400   7
   6  -4  -5-138.002 390.663   3
  -6   4   5-44.9189 171.952   1
   6  -4  -4 2626.40 508.873   2
  -6   4   4 4365.76 556.089   7
  -6   4   4 2915.26 667.342   1
   6  -4  -4 2916.19 811.908   3
   6  -4  -3 288.087 288.052   3
   6  -4  -3-25.8609 167.855   2
  -6   4   3-66.0807 148.921   1
  -6   4   3 55.3715 71.8612   7
   6  -4  -2 2794.48 647.482   3
  -6   4   2 1799.03 516.229   1
  -6   4   2 2051.14 374.902   7
   6  -4  -1 4657.14 798.607   3
   6  -4  -1 4805.34 455.112   4
  -6   4   1 5954.28 638.376   7
  -6   4   1 4726.49 756.480   1
   6  -4   0 5879.81 480.519   4
  -6   4   0 6903.88 686.806   7
   6  -4   0 5852.72 859.150   3
  -6   4   0 7042.62 870.144   1
   6  -4   1 3066.90 598.864   3
   6  -4   1 3020.04 315.384   4
  -6   4  -1 2861.13 518.354   1
   6  -4   2 10292.0 572.095   4
   6  -4   2 11271.5 1115.99   3
  -6   4  -2 12672.1 1066.87   1
   6  -4   3 421.946 203.818   3
  -6   4  -3 245.727 138.958   1
  -6   4  -4 13069.0 997.342   1
   6  -4   4 12196.8 1166.87   3
   6  -4   4 11249.6 1018.34   5
   6  -4   5 866.507 297.493   3
   6  -4   5 504.702 134.684   4
  -6   4  -5 582.555 188.484   1
   6  -4   5 713.799 265.616   5
  -6   4  -6 4813.07 567.182   1
   6  -4   6 5387.45 796.444   3
   6  -4   6 4103.58 608.502   5
   6  -4   7 276.588 194.347   3
  -6   4  -7 168.195 120.014   1
  -6   4  -7-79.6272 140.067   6
   6  -4   7 73.1251 101.301   5
  -6   4  -8 4330.00 670.014   6
   6  -4   8 3069.04 553.863   5
  -6   4  -9 18.4985 97.8006   6
   6  -4   9-149.742 158.562   5
  -6   4 -10 764.233 313.818   6
   6  -4  10 1143.08 362.845   5
  -6   4 -11 236.280 186.120   6
   6  -4  11-163.263 195.854   5
   6  -3  -9 142.229 186.929   3
   6  -3  -9 143.641 215.747   2
   6  -3  -8 369.913 274.838   2
  -6   3   8 498.114 220.233   4
  -6   3   8 793.954 472.090   1
   6  -3  -8 524.429 326.870   3
   6  -3  -7 10.4090 120.479   2
  -6   3   7 639.165 401.191   1
  -6   3   7-111.425 110.283   4
   6  -3  -7 683.808 349.413   3
   6  -3  -6 790.929 321.162   2
  -6   3   6 1200.70 491.766   1
   6  -3  -6 952.184 467.550   3
   6  -3  -5-169.910 182.689   2
  -6   3   5-194.068 216.808   1
  -6   3   5-28.9201 62.6295   7
   6  -3  -5-265.179 325.617   3
   6  -3  -4 1930.71 476.054   2
  -6   3   4 1903.36 311.262   7
  -6   3   4 1228.86 470.616   1
   6  -3  -4 1875.16 588.386   3
   6  -3  -3 344.945 324.380   3
   6  -3  -3 3.53666 94.8355   2
  -6   3   3 30.2734 128.497   1
  -6   3   3-32.4976 81.4970   7
  -6   3   2 11742.7 1294.62   1
   6  -3  -2 11527.4 775.000   4
  -6   3   2 13495.3 818.323   7
   6  -3  -2 11664.4 1283.24   3
   6  -3  -1 987.083 307.655   3
   6  -3  -1 1150.26 222.659   4
  -6   3   1 983.166 207.559   7
  -6   3   1 1527.21 427.980   1
   6  -3   0 4499.46 405.203   4
   6  -3   0 4280.86 672.426   3
  -6   3   0 4675.21 708.810   1
   6  -3   1 2672.51 519.768   3
   6  -3   1 2438.91 276.351   4
   6  -3   1 2478.38 620.875   8
  -6   3  -1 2504.25 483.309   1
   6  -3   2 1656.69 206.876   4
   6  -3   2 1643.21 395.046   3
   6  -3   2 1469.80 443.673   8
  -6   3  -2 2009.10 400.344   1
  -6   3  -3 76.1309 82.3700   1
   6  -3   3-111.996 118.972   3
   6  -3   3 65.1741 42.5109   4
   6  -3   3 164.173 124.705   8
   6  -3   3 116.511 81.2138   7
   6  -3   3 139.126 163.174   5
   6  -3   4 9433.01 402.884   4
   6  -3   4 8358.42 668.163   7
  -6   3  -4 9687.68 801.482   1
   6  -3   4 8644.69 928.931   3
   6  -3   4 8673.36 886.077   5
   6  -3   5 784.027 258.136   3
   6  -3   5 976.781 119.107   4
   6  -3   5 823.070 235.819   7
  -6   3  -5 652.892 241.419   6
  -6   3  -5 853.901 213.035   1
   6  -3   5 1047.15 316.635   5
  -6   3  -6 15268.9 945.379   1
  -6   3  -6 15976.2 1240.97   6
   6  -3   6 14443.7 1161.05   5
  -6   3  -7 1261.57 259.393   1
  -6   3  -7 1093.96 332.543   6
   6  -3   7 1279.24 350.584   5
  -6   3  -8 6214.91 802.002   6
   6  -3   8 5591.15 745.500   5
  -6   3  -9 409.030 212.285   6
   6  -3   9 306.856 178.362   5
  -6   3 -10 2130.82 500.161   6
   6  -3  10 2519.79 526.134   5
  -6   3 -11-19.3725 307.572   8
  -6   3 -11 9.06468 118.061   6
   6  -3  11 99.2404 145.389   5
  -6   3 -12 502.653 462.264   8
  -6   3 -12 280.595 207.430   6
   6  -3  12 243.107 180.182   5
   6  -2  -9-13.0997 162.251   2
   6  -2  -8 785.480 350.302   2
  -6   2   8 853.266 269.170   4
   6  -2  -8 1327.75 372.241   3
   6  -2  -7 121.806 223.306   2
  -6   2   7 76.0555 72.8191   4
  -6   2   6 3171.06 507.867   4
   6  -2  -6 2107.32 529.257   2
   6  -2  -6 2213.98 641.067   3
   6  -2  -5 1157.73 379.224   2
  -6   2   5 612.772 202.525   4
  -6   2   5 1094.40 204.440   7
   6  -2  -5 404.405 311.102   3
  -6   2   4 6459.04 673.326   4
  -6   2   4 8224.03 522.039   7
   6  -2  -4 6965.46 842.587   2
   6  -2  -3 506.000 330.086   3
  -6   2   3 106.941 189.008   1
  -6   2   3 205.460 111.944   4
   6  -2  -3 499.866 246.132   2
  -6   2   3 343.751 91.4243   7
   6  -2  -2 214.928 198.142   3
   6  -2  -2 521.784 161.303   4
  -6   2   2 453.259 232.112   1
  -6   2   2 716.566 126.447   7
   6  -2  -1-110.584 140.910   3
   6  -2  -1-85.1305 72.5615   4
  -6   2   1-63.4700 174.377   1
  -6   2   0 5460.43 792.838   1
   6  -2   0 5381.40 462.566   4
   6  -2   0 5417.79 710.562   3
   6  -2   1 195.136 161.978   3
  -6   2  -1 354.798 217.587   1
   6  -2   1 119.767 103.341   8
   6  -2   1 329.128 104.543   4
   6  -2   2 13042.9 608.458   4
   6  -2   2 12870.0 1251.40   8
   6  -2   2 13364.0 1083.81   3
  -6   2  -2 13862.9 1037.47   1
   6  -2   3 79.8004 145.668   3
   6  -2   3 17.1545 22.5678   4
   6  -2   3-163.087 138.107   8
  -6   2  -3-114.767 94.6808   1
   6  -2   3-33.7489 50.9616   7
   6  -2   3-126.672 119.701   5
   6  -2   4 7354.37 264.768   4
   6  -2   4 7762.63 289.536   4
   6  -2   4 7313.82 593.965   7
  -6   2  -4 7198.13 792.442   6
  -6   2  -4 8642.52 705.467   1
   6  -2   4 8629.50 874.669   3
   6  -2   4 7155.28 820.668   5
   6  -2   5 525.241 176.451   7
  -6   2  -5 660.579 224.361   6
  -6   2  -5 764.617 201.356   1
   6  -2   5 506.894 195.089   5
   6  -2   6 7664.02 747.270   7
  -6   2  -6 9612.16 678.822   1
  -6   2  -6 8657.57 904.557   6
   6  -2   6 9387.16 937.905   5
  -6   2  -7 1270.77 237.777   1
  -6   2  -7 1129.98 336.951   6
   6  -2   7 1251.59 350.331   5
  -6   2  -8 12861.0 1166.08   6
   6  -2   8 11863.0 1089.60   5
  -6   2  -9 135.591 142.168   6
   6  -2   9-35.3700 111.892   5
  -6   2 -10 3053.54 873.939   8
  -6   2 -10 2168.59 526.227   6
   6  -2  10 2574.78 543.747   5
  -6   2 -11-203.729 247.079   8
  -6   2 -11-63.3030 111.095   6
   6  -2  11 95.5572 165.713   5
  -6   2 -12 1534.71 673.262   8
  -6   2 -12 1565.07 482.863   6
   6  -2  12 1602.31 471.630   5
  -6   2 -13 328.331 504.388   8
   6  -1  -9 501.377 385.141   2
   6  -1  -8 914.079 380.113   2
  -6   1   8 681.385 246.227   4
   6  -1  -7 571.521 318.103   2
  -6   1   7 514.293 206.805   4
   6  -1  -7 214.626 152.525   3
   6  -1  -6 921.898 360.611   2
  -6   1   6 1606.62 329.580   4
   6  -1  -6 1001.02 388.185   3
   6  -1  -5 693.501 346.403   2
  -6   1   5 910.079 248.328   4
   6  -1  -5 605.707 314.147   3
   6  -1  -4 1381.71 399.775   2
  -6   1   4 1289.08 265.684   4
   6  -1  -4 524.388 199.847   3
   6  -1  -3-210.501 232.891   2
  -6   1   3-48.1400 98.7126   4
  -6   1   2 11589.3 808.873   4
   6  -1  -2 15010.5 950.998   4
   6  -1  -2 14110.6 1209.08   3
   6  -1  -1 62.7470 96.4196   3
  -6   1   1 162.701 63.9082   4
   6  -1  -1 110.431 67.1396   4
  -6   1   0 11610.6 731.499   4
  -6   1   0 12842.2 1240.42   1
   6  -1   0 11098.1 700.471   4
   6  -1   0 10196.4 902.130   3
   6  -1   1 529.252 201.414   3
  -6   1  -1 387.944 209.513   1
   6  -1   1 591.048 142.825   4
  -6   1  -2 3344.43 517.060   1
   6  -1   2 3066.02 280.647   4
   6  -1   2 3126.40 507.287   3
   6  -1   2 2554.43 492.940   5
   6  -1   3 74.0196 88.7755   3
   6  -1   3 223.041 59.2918   4
   6  -1   3 256.918 83.4343   7
  -6   1  -3 119.883 121.243   6
  -6   1  -3 166.243 71.8876   1
   6  -1   3 206.680 160.437   5
   6  -1   4 8273.96 599.108   7
  -6   1  -4 8951.21 879.725   6
  -6   1  -4 8766.95 668.964   1
   6  -1   4 7923.39 854.451   5
   6  -1   5-15.3914 63.9958   7
  -6   1  -5-31.7320 106.565   6
   6  -1   5-8.74610 111.272   5
  -6   1  -5 102.488 65.7228   1
   6  -1   6 7173.55 690.193   7
  -6   1  -6 8675.79 569.317   1
  -6   1  -6 9041.98 924.011   6
   6  -1   6 8216.26 867.905   5
  -6   1  -7 258.696 94.6599   1
   6  -1   7 101.796 69.8574   7
  -6   1  -7 216.171 149.769   6
   6  -1   7 190.894 114.391   5
  -6   1  -8 9353.57 1010.36   6
   6  -1   8 9573.61 985.515   5
  -6   1  -9 110.741 206.399   8
  -6   1  -9-43.1352 93.6550   6
   6  -1   9 77.7136 97.0506   5
  -6   1 -10 6681.33 1196.59   8
  -6   1 -10 8439.95 1022.28   6
   6  -1  10 6942.15 898.618   5
  -6   1 -11 343.943 415.098   8
  -6   1 -11 76.2921 173.269   6
   6  -1  11-74.9827 127.081   5
  -6   1 -12 975.169 505.657   8
  -6   1 -12 1115.17 381.498   6
   6  -1  12 644.914 293.687   5
  -6   1 -13-30.1668 232.571   8
  -6   1 -13-44.3103 132.904   6
  -6   0   8 1156.17 303.391   4
   6   0  -8 129.013 132.141   2
   6   0  -7 446.428 303.187   2
  -6   0   7 323.786 166.383   4
   6   0  -7 163.664 125.453   3
   6   0  -6 2239.53 607.811   2
  -6   0   6 2474.76 404.525   4
   6   0  -6 2173.21 421.234   3
   6   0  -5 1081.42 377.593   2
  -6   0   5 1540.26 314.555   4
   6   0  -5 782.171 317.779   3
  -6   0   4 12184.6 843.684   4
   6   0  -4 10545.7 1072.70   2
   6   0  -4 8920.73 1118.27   3
  -6   0   3 3179.37 427.722   4
   6   0  -3 3023.40 554.605   2
   6   0  -3 2169.40 537.577   3
   6   0  -2 2536.93 481.234   3
  -6   0   2 2603.04 358.433   4
   6   0  -2 2956.89 425.663   4
   6   0  -2 2914.91 522.028   2
   6   0  -1-68.5425 154.254   3
  -6   0   1 130.815 112.307   4
   6   0  -1-109.921 106.945   4
   6   0   0 1936.42 402.611   3
  -6   0   0 898.711 180.007   4
   6   0   0 1434.70 251.385   4
  -6   0  -1 12259.4 674.068   4
   6   0   1 12913.3 714.971   4
   6   0   1 11790.6 1020.77   8
   6   0   1 14307.3 993.462   3
  -6   0  -2 24793.6 1512.40   1
   6   0   2 26298.1 963.723   4
   6   0   2 22873.3 1229.35   8
  -6   0  -2 22778.1 1375.71   6
   6   0   2 23004.8 1295.95   3
   6   0   2 21002.9 1464.84   5
   6   0   3 118.239 53.4632   7
  -6   0  -3-9.60231 66.4388   6
  -6   0  -3-73.9807 79.0023   1
   6   0   3-0.69184 94.7780   5
   6   0   4 5285.15 439.249   7
  -6   0  -4 5267.12 672.071   6
   6   0   4 5225.63 687.275   5
  -6   0  -4 5152.15 485.150   1
  -6   0  -5 126.155 91.6714   1
   6   0   5 224.758 98.9568   7
  -6   0  -5 150.843 142.282   6
   6   0   5 94.1958 102.987   5
   6   0   6 5166.13 553.080   7
  -6   0  -6 5447.52 718.175   6
  -6   0  -6 5653.99 402.188   1
   6   0   6 6138.46 757.961   5
  -6   0  -7 594.589 113.203   1
   6   0   7 644.654 204.029   7
  -6   0  -7 752.303 266.728   6
   6   0   7 667.107 222.079   5
  -6   0  -8 7233.30 1053.62   8
  -6   0  -8 7432.49 886.712   6
   6   0   8 6462.29 808.092   5
  -6   0  -9 540.720 376.003   8
  -6   0  -9 193.507 145.034   6
   6   0   9 341.427 217.454   5
  -6   0 -10 6060.11 1057.69   8
  -6   0 -10 7058.06 946.084   6
   6   0  10 6224.36 891.423   5
  -6   0 -11-20.2590 168.358   8
  -6   0 -11-225.430 206.531   6
   6   0  11-42.8508 125.674   5
   6   0  12 1477.70 432.236   5
  -6   0 -12 1400.08 561.453   8
  -6   0 -12 1258.04 454.400   6
  -6   0 -13-299.965 244.898   8
  -6   0 -13 155.561 183.252   6
  -6   0 -14 1781.25 784.176   8
  -6  -1   8 1911.03 373.021   4
   6   1  -8 1310.46 479.178   2
   6   1  -7 316.006 228.611   2
  -6  -1   7 189.655 135.033   4
   6   1  -6 1776.07 549.067   2
  -6  -1   6 1870.55 342.707   4
   6   1  -5 2001.91 535.003   2
  -6  -1   5 2275.75 376.593   4
   6   1  -5 1853.33 340.306   3
  -6  -1   4 1980.24 341.919   4
   6   1  -4 1429.97 399.979   2
   6   1  -4 989.304 343.121   3
   6   1  -3 937.805 349.027   2
  -6  -1   3 816.777 202.579   4
   6   1  -3 145.717 131.373   3
  -6  -1   2 12164.5 756.291   4
   6   1  -2 11083.2 885.907   4
   6   1  -2 10177.1 1033.35   2
   6   1  -2 9814.32 891.276   3
  -6  -1   1 9559.44 647.204   4
   6   1  -1 10130.1 787.673   4
   6   1  -1 9427.09 784.787   3
   6   1   0 21638.0 1107.29   4
   6   1   0 19471.0 1090.46   3
   6   1   1 228.254 133.934   3
  -6  -1  -1 247.405 89.0227   4
   6   1   1 393.278 152.063   8
   6   1   1 527.798 154.889   4
   6   1   2 192.236 69.5752   3
  -6  -1  -2 264.140 88.3570   4
   6   1   2 351.545 94.6173   4
  -6  -1  -2 348.332 179.421   6
   6   1   2 157.312 158.792   5
  -6  -1  -3 3013.90 232.298   4
  -6  -1  -3 3105.91 489.246   1
   6   1   3 2618.90 208.498   7
  -6  -1  -3 3106.90 492.435   6
   6   1   3 3021.27 549.196   5
  -6  -1  -4 25350.6 1144.50   1
   6   1   4 21267.6 884.838   7
  -6  -1  -4 22392.0 1408.09   6
   6   1   4 23594.1 1513.55   5
   6   1   5 1368.95 240.828   7
  -6  -1  -5 1602.43 376.386   6
  -6  -1  -5 1607.42 220.845   1
   6   1   5 1618.55 374.074   5
  -6  -1  -6 3096.04 252.463   1
  -6  -1  -6 2833.40 513.003   6
   6   1   6 2667.50 504.641   5
  -6  -1  -7 4089.52 635.551   6
   6   1   7 3341.67 566.154   5
  -6  -1  -8 7931.15 1007.14   8
  -6  -1  -8 7952.66 931.176   6
   6   1   8 7234.54 886.251   5
  -6  -1  -9 533.845 266.109   8
  -6  -1  -9 604.768 265.517   6
   6   1   9 974.640 326.217   5
  -6  -1 -10 3842.97 774.052   8
  -6  -1 -10 3917.08 698.728   6
   6   1  10 4148.65 691.972   5
   6   1  11-67.9465 126.420   5
  -6  -1 -11 54.8267 162.112   8
  -6  -1 -11-178.467 213.454   6
   6   1  12 1121.66 398.102   5
  -6  -1 -12 1788.12 591.769   8
  -6  -1 -12 1897.90 540.932   6
  -6  -1 -13-104.871 143.995   8
  -6  -1 -13-328.347 317.553   6
  -6  -1 -14 50.8696 215.177   8
  -6  -2   8 857.027 255.926   4
  -6  -2   7 592.904 215.885   4
   6   2  -7 1094.90 407.543   2
   6   2  -6 1709.98 505.702   2
  -6  -2   6 1326.61 290.952   4
   6   2  -5 505.541 301.036   2
  -6  -2   5 310.088 154.721   4
  -6  -2   4 5704.54 564.015   4
   6   2  -4 5353.39 827.556   2
   6   2  -4 5706.49 448.809   3
  -6  -2   3 3472.66 425.294   4
   6   2  -3 3411.26 622.701   2
   6   2  -3 2428.91 465.447   3
  -6  -2   2 15635.5 884.622   4
   6   2  -2 18245.1 1333.27   4
   6   2  -2 16725.9 1366.55   2
   6   2  -1 1405.79 267.300   3
   6   2  -1 1872.41 415.471   2
  -6  -2   1 1529.33 252.604   4
   6   2  -1 1871.53 366.427   4
   6   2   0 383.752 142.392   3
  -6  -2   0 312.300 93.9992   4
   6   2   0 333.530 145.942   4
  -6  -2  -1 3362.94 336.632   4
   6   2   1 2636.26 346.298   4
   6   2   1 2936.30 386.084   3
  -6  -2  -2 23569.7 893.023   4
  -6  -2  -2 26662.2 1453.03   6
   6   2   2 24799.6 1615.37   5
   6   2   3 13462.5 483.161   7
  -6  -2  -3 15725.9 1132.40   6
   6   2   3 14649.2 1212.64   5
  -6  -2  -4 673.547 89.4712   4
  -6  -2  -4 1030.28 306.213   6
   6   2   4 1006.07 317.706   5
  -6  -2  -5 246.870 67.1485   1
  -6  -2  -5 158.167 99.5100   6
   6   2   5 87.1729 87.2306   5
  -6  -2  -6 12236.5 1085.36   6
  -6  -2  -6 12306.3 454.173   1
   6   2   6 12873.6 1131.24   5
  -6  -2  -7 1493.19 368.594   6
   6   2   7 1366.57 364.316   5
  -6  -2  -8 2728.27 525.631   8
  -6  -2  -8 2546.43 510.655   6
   6   2   8 2406.84 516.865   5
  -6  -2  -9 2799.26 575.546   8
  -6  -2  -9 2682.69 561.357   6
   6   2   9 2912.54 568.985   5
  -6  -2 -10 5504.77 839.921   8
  -6  -2 -10 5969.54 880.663   6
   6   2  10 5819.35 824.732   5
   6   2  11 57.0779 84.2440   5
  -6  -2 -11 51.6845 158.994   8
  -6  -2 -11-146.755 139.534   6
   6   2  12 725.295 310.391   5
  -6  -2 -12 657.940 344.047   8
  -6  -2 -12 589.883 289.698   6
  -6  -2 -13 173.901 104.980   8
  -6  -2 -13 1201.87 463.846   6
  -6  -3   7 519.809 204.893   4
   6   3  -7-172.662 281.283   2
   6   3  -6 1478.43 523.579   2
  -6  -3   6 1867.60 356.687   4
   6   3  -5 78.3041 188.992   2
  -6  -3   5 167.137 112.101   4
   6   3  -4 1045.67 392.024   2
  -6  -3   4 1574.76 311.101   4
  -6  -3   3 70.1023 55.2567   4
   6   3  -3 174.859 127.730   6
  -6  -3   2 4940.81 510.829   4
   6   3  -2 4830.28 762.717   2
   6   3  -2 4129.45 558.841   6
   6   3  -2 3286.25 375.714   3
   6   3  -1 1018.92 228.623   3
   6   3  -1 1487.66 445.198   2
  -6  -3   1 1116.11 223.703   4
   6   3  -1 998.630 259.752   4
   6   3  -1 1334.48 306.531   6
  -6  -3   0 39517.5 1442.68   4
   6   3   0 35608.0 1548.86   4
   6   3   0 41131.2 2093.07   2
   6   3   0 36304.0 1663.46   6
   6   3   0 35341.0 1274.36   3
  -6  -3  -1 4998.39 457.879   4
  -6  -3  -1 5156.29 610.450   6
   6   3   1 4506.17 570.252   6
   6   3   1 3768.03 409.345   3
  -6  -3  -2 246.992 111.813   4
  -6  -3  -2 52.4458 123.980   6
  -6  -3  -3 91.9103 43.7627   4
  -6  -3  -3 346.177 214.966   6
   6   3   3 306.078 211.422   5
  -6  -3  -4 10113.0 521.358   4
  -6  -3  -4 9549.24 894.596   6
   6   3   4 9009.64 941.656   5
  -6  -3  -5 359.179 83.1104   4
  -6  -3  -5 107.822 70.5145   6
   6   3   5 484.085 207.056   5
  -6  -3  -6 8251.49 336.139   1
  -6  -3  -6 8507.07 897.900   6
   6   3   6 9136.62 955.233   5
  -6  -3  -6 8211.20 346.689   1
  -6  -3  -7 797.559 275.447   6
   6   3   7 427.007 179.943   5
  -6  -3  -8 2861.55 489.911   8
  -6  -3  -8 3598.51 617.490   6
   6   3   8 2793.39 546.159   5
  -6  -3  -9 3481.09 550.973   8
  -6  -3  -9 3379.37 632.099   6
   6   3   9 2627.97 540.583   5
  -6  -3 -10 5683.28 768.831   8
  -6  -3 -10 7027.50 960.736   6
   6   3  10 7097.56 929.786   5
   6   3  11 1906.91 496.206   5
  -6  -3 -11 2349.88 592.831   6
   6   3  12 2944.57 647.655   5
  -6  -3 -12 3090.51 712.275   6
  -6  -4   7 149.216 110.265   4
  -6  -4   6 1022.32 287.897   4
   6   4  -6 697.071 341.467   2
   6   4  -5 947.711 392.277   2
  -6  -4   5 622.336 208.473   4
   6   4  -4 1969.55 560.503   2
  -6  -4   4 1501.53 319.208   4
   6   4  -3 1893.85 516.603   2
  -6  -4   3 1720.80 336.159   4
   6   4  -3 1827.91 356.305   6
   6   4  -2 5101.93 791.951   2
  -6  -4   2 4579.68 524.125   4
   6   4  -2 4849.57 494.272   8
   6   4  -2 4708.69 554.058   6
   6   4  -1 937.317 188.087   8
  -6  -4   1 914.504 224.001   4
   6   4  -1 925.138 230.275   6
  -6  -4   0 5685.45 561.494   4
   6   4   0 5749.65 791.470   2
   6   4   0 4400.49 322.109   3
   6   4   0 5544.84 596.255   6
   6   4   0 5462.94 378.718   3
   6   4   1 913.313 164.057   3
   6   4   1 1081.63 375.377   2
  -6  -4  -1 1082.93 232.987   4
  -6  -4  -1 878.066 239.815   6
   6   4   1 1036.62 252.015   6
   6   4   1 728.707 157.807   3
  -6  -4  -2 14066.5 822.737   4
   6   4   2 12001.5 545.643   7
   6   4   2 11755.4 762.230   3
  -6  -4  -2 13589.1 1008.67   6
   6   4   2 12609.3 900.188   6
  -6  -4  -3 5486.79 478.290   4
   6   4   3 4608.04 345.590   7
  -6  -4  -3 4895.94 619.393   6
   6   4   3 5213.67 723.633   5
  -6  -4  -4 10709.3 646.784   4
   6   4   4 8851.61 728.277   3
  -6  -4  -4 9653.15 905.016   6
   6   4   4 9545.68 980.675   5
  -6  -4  -5-27.7897 38.2357   1
  -6  -4  -5 67.5164 57.0680   4
  -6  -4  -5-68.5503 65.5080   6
   6   4   5-119.636 75.3636   3
   6   4   5-42.3125 128.786   5
  -6  -4  -6 1527.56 215.214   4
  -6  -4  -6 1482.20 155.589   1
  -6  -4  -6 1776.89 422.409   6
   6   4   6 1205.30 312.112   3
   6   4   6 1571.18 392.517   5
  -6  -4  -7 44.4132 34.5099   4
  -6  -4  -7-25.6805 27.5761   4
  -6  -4  -7-36.5523 92.5166   6
   6   4   7-33.6748 110.543   5
  -6  -4  -8 9196.61 453.838   4
  -6  -4  -8 7706.05 661.050   8
  -6  -4  -8 8937.20 1007.79   6
   6   4   8 8229.84 951.031   5
  -6  -4  -9 1506.51 313.735   8
  -6  -4  -9 2169.52 525.900   6
   6   4   9 2509.23 539.038   5
  -6  -4 -10 3733.48 710.036   6
   6   4  10 2122.85 496.253   5
  -6  -4 -11 388.407 317.513   6
   6   4  11 34.1437 142.561   5
   6   4  12 3283.09 676.262   5
  -6  -4 -12 3720.97 798.884   6
  -6  -5   6 1047.73 303.725   4
   6   5  -6 1332.00 487.626   2
  -6  -5   5 132.032 134.390   4
   6   5  -5 76.5749 186.392   2
   6   5  -4 1224.39 467.010   2
  -6  -5   4 669.107 228.613   4
   6   5  -4 664.780 243.406   8
   6   5  -3 644.573 303.910   2
   6   5  -3 636.869 241.194   8
  -6  -5   3 592.828 189.409   4
   6   5  -2 1291.93 483.843   2
   6   5  -2 1323.10 312.844   8
  -6  -5   2 1214.16 304.113   4
   6   5  -1 740.110 357.206   2
  -6  -5   1 674.610 227.763   4
   6   5  -1 559.592 173.048   6
  -6  -5   0 5854.61 618.648   4
   6   5   0 5397.24 819.881   2
   6   5   0 5069.66 537.959   6
  -6  -5  -1 3165.60 438.230   4
   6   5   1 2931.28 558.308   2
   6   5   1 2486.32 295.193   7
  -6  -5  -1 2823.92 428.142   6
   6   5   1 2517.47 353.031   3
   6   5   1 2883.53 407.674   6
   6   5   1 3082.19 269.139   3
  -6  -5  -2 14238.5 920.855   4
   6   5   2 12858.6 712.352   7
  -6  -5  -2 13574.2 1006.53   6
   6   5   2 14560.0 1273.80   2
   6   5   2 9842.98 686.238   3
   6   5   2 11030.6 801.413   6
  -6  -5  -3 632.657 195.485   4
   6   5   3 407.745 128.743   7
  -6  -5  -3 422.351 164.164   6
   6   5   3 705.183 264.648   5
  -6  -5  -4 1095.57 231.720   4
  -6  -5  -4 832.247 261.507   6
   6   5   4 570.444 194.200   3
   6   5   4 865.664 307.844   5
  -6  -5  -5 973.245 174.458   1
  -6  -5  -5 1056.94 233.213   4
  -6  -5  -5 941.263 291.747   6
   6   5   5 355.813 161.959   3
   6   5   5 906.094 304.279   5
  -6  -5  -6 12096.8 781.598   4
   6   5   6 8710.87 817.413   3
  -6  -5  -6 11000.2 527.599   1
  -6  -5  -6 10956.8 1030.27   6
   6   5   6 11635.6 1101.29   5
  -6  -5  -7-35.3154 53.9677   4
  -6  -5  -7 96.5674 131.711   6
   6   5   7-119.420 136.237   5
  -6  -5  -8 1182.99 221.064   4
  -6  -5  -8 1194.86 367.390   6
   6   5   8 1567.40 423.164   5
  -6  -5  -9-36.6393 70.1162   6
   6   5   9 28.5355 78.9795   5
  -6  -5 -10 4255.80 763.446   6
   6   5  10 3473.73 674.356   5
  -6  -5 -11 545.931 284.578   6
   6   5  11 375.485 249.731   5
  -6  -5 -12 2012.75 606.276   6
   6   5  12 2691.05 626.307   5
  -6  -6   5 304.483 162.020   4
   6   6  -5 177.407 230.770   2
  -6  -6   4 1781.56 393.886   4
   6   6  -4 2145.28 631.139   2
   6   6  -3 604.519 326.925   2
  -6  -6   3 836.360 267.787   4
   6   6  -2 802.962 379.051   2
  -6  -6   2 753.349 247.909   4
   6   6  -1 587.230 287.482   2
  -6  -6   1 874.978 282.062   4
   6   6   0 2777.50 603.907   2
  -6  -6   0 2291.31 422.636   4
   6   6   0 2212.29 325.601   6
   6   6   1 437.454 188.725   2
  -6  -6  -1 317.686 127.318   4
   6   6   1 529.864 160.444   7
  -6  -6  -1 526.156 178.972   6
   6   6   1 402.914 133.052   6
   6   6   2 2013.40 544.831   2
   6   6   2 2076.15 326.491   7
  -6  -6  -2 2136.94 383.859   4
  -6  -6  -2 2441.61 411.197   6
   6   6   2 1974.15 308.537   6
  -6  -6  -3 3040.94 456.873   4
   6   6   3 3372.30 604.579   2
  -6  -6  -3 2795.11 377.887   1
   6   6   3 2655.99 358.923   7
  -6  -6  -3 3544.54 532.803   6
   6   6   3 2520.17 523.466   3
  -6  -6  -4 7959.16 734.909   4
  -6  -6  -4 7178.93 579.521   1
   6   6   4 7076.25 595.006   7
  -6  -6  -4 7409.80 801.540   6
   6   6   4 5290.66 690.852   3
   6   6   4 7341.20 879.801   5
  -6  -6  -5 1526.66 322.397   4
  -6  -6  -5 1326.66 346.242   6
   6   6   5 1067.27 300.449   3
   6   6   5 1554.75 407.794   5
  -6  -6  -6 2594.24 431.068   4
  -6  -6  -6 1871.50 423.091   6
   6   6   6 1157.42 314.310   3
   6   6   6 1939.95 450.058   5
  -6  -6  -7 24.8654 81.1759   4
  -6  -6  -7 21.5786 84.8440   6
   6   6   7 18.2647 117.986   5
  -6  -6  -8 2896.57 413.877   4
  -6  -6  -8 3750.03 650.955   6
   6   6   8 3195.53 610.435   5
  -6  -6  -9 106.508 107.274   4
  -6  -6  -9 41.7860 81.4813   6
   6   6   9 113.592 157.445   5
  -6  -6 -10 1868.81 523.467   6
   6   6  10 1864.89 506.560   5
  -6  -6 -11 667.845 333.738   6
   6   6  11 461.642 228.145   5
   6   6  12 1888.73 521.490   5
  -6  -7   4 651.718 269.566   4
   6   7  -4 768.206 469.136   2
  -6  -7   3 234.941 156.996   4
   6   7  -3 789.236 390.219   2
   6   7  -2 510.070 288.070   2
  -6  -7   2 1930.87 430.929   4
   6   7  -1 997.790 398.167   2
  -6  -7   1 840.612 291.467   4
   6   7   0 798.115 337.670   2
  -6  -7   0 896.051 320.938   4
   6   7   0 959.030 251.180   7
   6   7   1 342.496 299.624   2
  -6  -7  -1 776.489 255.271   4
   6   7   1 720.785 216.250   7
   6   7   2 1859.28 489.178   2
   6   7   2 1992.31 362.782   7
  -6  -7  -2 2094.30 414.668   4
  -6  -7  -2 2195.82 386.042   6
   6   7   3 312.256 255.949   2
  -6  -7  -3 381.201 192.670   4
   6   7   3 526.168 196.502   7
  -6  -7  -3 415.153 176.310   6
  -6  -7  -4 3392.53 534.714   4
   6   7   4 2776.86 601.709   2
   6   7   4 2399.30 378.536   7
  -6  -7  -4 2986.49 502.709   6
   6   7   4 2924.20 578.477   5
  -6  -7  -5 1162.21 360.340   4
   6   7   5 632.319 211.152   7
  -6  -7  -5 734.681 287.485   6
   6   7   5 512.637 220.718   5
  -6  -7  -6 2244.46 423.891   4
  -6  -7  -6 1811.38 422.202   6
   6   7   6 1652.40 423.330   5
  -6  -7  -7 1016.20 274.724   4
  -6  -7  -7 777.250 320.513   6
   6   7   7 710.181 288.394   5
  -6  -7  -8 2528.42 436.758   4
  -6  -7  -8 2224.63 536.855   6
   6   7   8 2065.50 495.524   5
  -6  -7  -9 791.531 230.178   4
  -6  -7  -9 907.345 350.695   6
   6   7   9 778.741 332.315   5
  -6  -7 -10 1890.92 540.888   6
   6   7  10 1376.38 423.306   5
  -6  -7 -11 334.106 281.640   6
   6   7  11 102.189 97.5108   5
   6   8  -3 476.362 339.210   2
  -6  -8   2 1006.11 324.076   4
   6   8  -2 1295.26 595.971   2
   6   8  -1 290.000 220.282   2
  -6  -8   1 243.008 173.579   4
   6   8   0 995.896 427.382   2
  -6  -8   0 1007.48 322.484   4
   6   8   1-228.711 217.935   2
  -6  -8  -1 124.075 129.364   4
   6   8   2 1516.70 474.728   2
  -6  -8  -2 1720.96 407.919   4
   6   8   2 1754.57 385.401   7
   6   8   3 380.452 248.048   2
  -6  -8  -3 500.986 199.382   4
   6   8   3 392.551 176.905   7
  -6  -8  -3 560.874 209.776   6
   6   8   4 1162.03 361.202   2
  -6  -8  -4 850.195 282.008   4
   6   8   4 972.183 269.162   7
  -6  -8  -4 713.943 263.956   6
   6   8   5 303.385 211.194   2
  -6  -8  -5 384.717 240.236   4
   6   8   5 542.665 201.063   7
  -6  -8  -5 641.130 235.714   6
   6   8   5 531.399 246.160   5
   6   8   6 1428.46 407.394   2
  -6  -8  -6 1653.92 400.045   4
   6   8   6 1353.64 330.499   7
  -6  -8  -6 1442.48 385.438   6
   6   8   6 1644.25 433.299   5
  -6  -8  -7 74.0854 76.4047   4
  -6  -8  -7 323.836 202.297   6
   6   8   7 269.452 172.878   5
  -6  -8  -8 1126.55 324.111   4
  -6  -8  -8 1194.99 404.663   6
   6   8   8 893.346 309.092   5
  -6  -8  -9 471.730 252.630   6
   6   8   9-51.2646 103.873   5
  -6  -8 -10 1072.93 417.029   6
   6   8  10 621.580 287.167   5
   6   8  11 122.203 124.469   5
   6   9  -2 342.851 320.334   2
   6   9  -1 282.242 326.518   2
  -6  -9   0 1144.98 366.702   4
   6   9   0 1363.10 551.402   2
   6   9   1 448.162 271.163   2
  -6  -9  -1 443.202 243.707   4
   6   9   2 750.668 372.269   2
  -6  -9  -2 731.322 331.347   4
   6   9   3 356.371 266.746   2
  -6  -9  -3 984.022 322.296   4
   6   9   3 812.622 273.925   7
   6   9   4 752.584 313.554   2
  -6  -9  -4 1327.56 425.509   4
   6   9   4 1066.94 329.616   7
   6   9   5 509.940 300.974   2
  -6  -9  -5 88.9471 150.034   4
   6   9   5 99.3343 90.2288   7
  -6  -9  -5 177.589 151.571   6
  -6  -9  -6 2138.33 489.131   4
   6   9   6 1118.38 315.442   7
  -6  -9  -6 1568.30 402.628   6
   6   9   6 1342.19 412.936   5
   6   9   7-38.5839 71.7538   7
  -6  -9  -7 84.1720 88.8762   6
   6   9   7 125.312 104.933   5
  -6  -9  -8 286.864 179.066   4
  -6  -9  -8 358.812 221.301   6
   6   9   8 65.3661 108.158   5
  -6  -9  -9 430.837 275.929   6
   6   9   9 51.8336 87.9532   5
  -6  -9 -10 1190.12 467.510   6
   6   9  10 1447.19 454.706   5
   6   9  11 233.263 183.705   5
  -6 -10  -2 621.837 298.032   4
  -6 -10  -3 591.073 284.163   4
  -6 -10  -4 1537.75 484.611   4
  -6 -10  -5 177.841 172.942   4
   6  10   5 175.934 143.034   7
  -6 -10  -6 515.103 275.137   4
   6  10   6 91.6002 112.118   7
  -6 -10  -7 133.246 128.134   4
   6  10   7-35.5090 86.8691   7
  -6 -10  -8 807.750 320.236   4
   6  10   8 824.225 320.489   7
  -6 -10  -8 880.003 319.393   6
  -6 -10  -9 88.6322 72.7131   6
  -7   7  -1 1083.13 402.250   1
  -7   7  -2 322.694 219.773   1
  -7   7  -3 1489.24 454.513   1
  -7   7  -4 377.123 220.220   1
  -7   7  -5 402.770 245.172   1
   7  -6  -4 227.788 186.262   2
   7  -6  -3 1089.40 530.572   3
   7  -6  -3 1020.63 356.603   2
   7  -6  -2 31.4634 282.003   3
  -7   6   2-36.6303 131.216   1
   7  -6  -1 1128.05 535.256   3
  -7   6   1 974.626 393.489   1
   7  -6   0 182.163 331.796   3
  -7   6   0 160.906 190.346   1
  -7   6  -1 1022.08 330.629   1
   7  -6   1 671.800 360.165   3
   7  -6   2 289.063 288.289   3
  -7   6  -2 192.943 208.297   1
   7  -6   3 2430.01 622.726   3
  -7   6  -3 2116.46 493.588   1
  -7   6  -4 8.55434 70.0261   1
  -7   6  -5 1070.01 326.056   1
  -7   6  -6 110.270 162.616   1
   7  -5  -6 139.418 159.264   2
   7  -5  -6 77.3395 250.339   3
   7  -5  -5 445.736 243.551   2
   7  -5  -5 31.0271 213.400   3
  -7   5   4 147.233 103.879   1
   7  -5  -4-117.533 127.564   2
   7  -5  -4-333.043 387.664   3
   7  -5  -3 1405.55 595.674   3
   7  -5  -3 1286.65 391.892   2
  -7   5   3 1575.17 542.931   1
   7  -5  -2 1169.22 473.177   3
  -7   5   2 1205.03 441.930   1
   7  -5  -1 2029.91 618.715   3
  -7   5   1 2297.83 606.111   1
   7  -5   0 343.517 253.347   3
  -7   5   0 434.551 244.247   1
   7  -5   1 5667.23 936.914   3
  -7   5  -1 5913.50 869.781   1
  -7   5  -2 404.194 227.380   1
   7  -5   2 126.403 251.319   3
   7  -5   3 2533.41 609.671   3
  -7   5  -3 2470.08 506.330   1
   7  -5   4 114.087 206.344   3
  -7   5  -4-37.0441 91.4999   1
   7  -5   5 1813.80 508.035   3
  -7   5  -5 1725.67 396.248   1
   7  -5   6 261.355 198.243   3
  -7   5  -6 54.5998 73.6324   1
   7  -5   6-102.288 138.678   5
  -7   5  -7 1031.12 286.231   1
   7  -5   7 693.421 272.600   5
   7  -4  -7-111.166 194.728   2
   7  -4  -7 24.0698 182.871   3
   7  -4  -6 172.297 223.728   2
   7  -4  -6-65.0916 165.823   3
   7  -4  -5 1406.05 398.089   2
  -7   4   5 1331.60 527.674   1
   7  -4  -5 742.622 453.665   3
   7  -4  -4 311.377 199.137   2
  -7   4   4 410.567 297.152   1
   7  -4  -4 249.578 238.440   3
   7  -4  -3 2302.95 718.497   3
   7  -4  -3 1519.28 441.456   2
  -7   4   3 1922.13 572.957   1
   7  -4  -2 2563.47 723.424   3
  -7   4   2 1509.81 532.088   1
   7  -4  -1 3402.10 727.355   3
  -7   4   1 4025.46 779.298   1
   7  -4   0 1221.05 434.099   3
  -7   4   0 1185.51 417.489   1
   7  -4   1 1829.08 518.553   3
  -7   4  -1 1170.11 391.134   1
   7  -4   2 164.573 220.250   3
  -7   4  -2 150.101 104.985   1
  -7   4  -3 5510.45 727.328   1
   7  -4   3 5136.97 842.431   3
   7  -4   4 127.148 127.798   3
  -7   4  -4 274.341 147.960   1
  -7   4  -5 5838.78 683.648   1
   7  -4   5 5198.81 818.729   3
   7  -4   5 5048.49 744.825   5
   7  -4   6 276.247 233.840   3
  -7   4  -6 289.528 152.553   1
   7  -4   6 10.9427 61.2808   5
   7  -4   7 1537.02 476.076   3
  -7   4  -7 1663.11 345.147   1
   7  -4   7 1178.94 367.817   5
   7  -4   8 39.4759 43.2876   5
  -7   4  -9 690.615 285.402   6
   7  -4   9 667.511 275.669   5
   7  -4  10-46.0692 101.831   5
   7  -3  -7 1123.81 411.577   2
   7  -3  -7 396.368 340.411   3
   7  -3  -6 193.794 184.933   2
   7  -3  -6-87.0553 268.037   3
   7  -3  -5 1147.64 427.878   2
  -7   3   5 1168.10 475.685   1
   7  -3  -5 541.939 319.949   3
   7  -3  -4 868.928 320.948   2
  -7   3   4 332.253 231.620   1
   7  -3  -4 126.748 289.006   3
   7  -3  -3 1041.41 456.334   3
  -7   3   3 1107.63 451.378   1
   7  -3  -3 763.623 289.792   2
   7  -3  -2 882.002 400.780   3
  -7   3   2 305.697 251.114   1
   7  -3  -1 1592.91 495.659   3
  -7   3   1 1449.13 461.488   1
  -7   3   0 2059.00 494.208   1
   7  -3   0 2081.09 545.822   3
   7  -3   1 9221.62 1054.74   3
  -7   3  -1 11003.6 1134.39   1
   7  -3   2 927.563 337.524   3
  -7   3  -2 1095.38 332.731   1
   7  -3   3 5637.95 791.929   3
  -7   3  -3 6583.02 757.197   1
  -7   3  -4 354.092 166.727   1
   7  -3   4 201.753 205.334   3
   7  -3   4 213.861 167.385   5
   7  -3   5 1930.80 470.154   3
  -7   3  -5 2418.61 413.798   1
   7  -3   5 2042.81 482.614   5
   7  -3   6 2923.04 598.654   3
  -7   3  -6 2449.15 401.130   1
   7  -3   6 2155.11 492.155   5
  -7   3  -7 5180.64 557.002   1
  -7   3  -7 4382.17 705.958   6
   7  -3   7 4885.18 742.265   5
  -7   3  -8 277.782 188.340   6
   7  -3   8 126.994 144.427   5
  -7   3  -9 717.547 299.934   6
   7  -3   9 860.237 318.440   5
  -7   3 -10-151.121 166.781   6
   7  -3  10-123.274 77.6398   5
   7  -2  -7 323.807 227.861   2
  -7   2   7-84.3777 153.926   4
   7  -2  -6 87.2724 144.456   2
  -7   2   6 12.4494 102.072   4
   7  -2  -6 284.122 389.986   3
   7  -2  -5 853.665 320.130   2
  -7   2   5 658.585 227.416   4
  -7   2   5 569.576 319.887   1
   7  -2  -5 595.479 357.137   3
   7  -2  -4-91.2788 150.322   2
  -7   2   4-148.309 146.368   4
  -7   2   4-168.983 265.475   1
   7  -2  -4-155.859 223.320   3
   7  -2  -3 2362.45 637.265   3
   7  -2  -3 2694.70 582.831   2
  -7   2   3 1856.01 572.162   1
   7  -2  -2 221.500 224.083   3
  -7   2   2-216.492 145.686   1
  -7   2   1 4981.10 874.547   1
   7  -2  -1 5404.85 813.729   3
   7  -2   0 1789.08 479.656   3
  -7   2   0 1955.97 533.666   1
   7  -2   1 3028.94 566.793   3
  -7   2  -1 2871.01 584.952   1
   7  -2   1 2252.75 575.405   8
   7  -2   2-143.079 171.122   3
   7  -2   2 11.4247 89.3873   8
  -7   2  -2-119.187 139.823   1
   7  -2   3 4109.76 648.961   8
   7  -2   3 4998.37 723.849   3
  -7   2  -3 5109.38 635.492   1
  -7   2  -4 1999.62 373.716   1
   7  -2   4 1984.43 449.016   3
   7  -2   4 1783.91 447.583   5
  -7   2  -5 10501.7 1050.07   6
  -7   2  -5 10553.4 811.985   1
   7  -2   5 10196.6 1047.97   3
   7  -2   5 9831.34 1048.24   5
  -7   2  -6 586.986 184.928   1
  -7   2  -6 641.347 278.127   6
   7  -2   6 742.941 282.723   5
  -7   2  -7 2422.49 349.132   1
  -7   2  -7 2613.04 546.285   6
   7  -2   7 2158.47 492.469   5
  -7   2  -8 123.596 64.7706   6
   7  -2   8 227.479 174.837   5
  -7   2  -9 3001.24 622.357   6
   7  -2   9 3041.55 624.278   5
  -7   2 -10 102.364 145.472   6
   7  -2  10 282.519 175.162   5
  -7   2 -11 685.785 339.279   6
   7  -2  11 247.595 172.439   5
   7  -1  -7 972.068 396.207   2
  -7   1   7 609.574 222.264   4
   7  -1  -6 443.980 298.466   2
  -7   1   6-134.860 147.672   4
   7  -1  -5 865.466 382.214   2
  -7   1   5 1499.27 341.283   4
   7  -1  -5 1420.15 535.400   3
   7  -1  -4 234.980 220.692   2
  -7   1   4-10.2464 138.578   4
   7  -1  -4-76.7294 298.906   3
   7  -1  -3 2511.84 637.958   3
   7  -1  -3 1581.45 438.282   2
  -7   1   3 1313.85 297.360   4
   7  -1  -2 705.877 297.557   3
  -7   1   2 193.048 94.1652   4
   7  -1  -2 397.266 225.000   2
   7  -1  -1 774.358 299.218   3
  -7   1   1 524.292 181.658   4
   7  -1  -1 420.847 156.513   4
  -7   1   1 173.571 176.333   1
   7  -1   0 141.859 190.771   3
   7  -1   0 130.862 75.8879   4
  -7   1   0 6.70836 198.819   1
  -7   1  -1 6771.49 924.034   1
   7  -1   1 6334.67 525.618   4
   7  -1   1 5270.36 788.335   8
   7  -1   1 6943.10 809.020   3
   7  -1   2 2809.75 514.985   3
   7  -1   2 3224.00 550.185   8
  -7   1  -2 2796.31 529.405   1
   7  -1   3 17469.6 1302.61   3
   7  -1   3 16218.3 1373.17   5
  -7   1  -3 19573.2 1247.60   1
   7  -1   4 1669.05 407.716   3
  -7   1  -4 1429.50 310.147   1
  -7   1  -4 1492.40 402.462   6
   7  -1   4 1200.85 371.162   5
  -7   1  -5 1158.96 250.601   1
  -7   1  -5 1162.84 357.497   6
   7  -1   5 1382.18 383.053   5
  -7   1  -6 700.041 299.830   6
  -7   1  -6 440.412 134.773   1
   7  -1   6 480.188 220.375   5
  -7   1  -7 9474.76 611.017   1
  -7   1  -7 9751.73 1055.01   6
   7  -1   7 8354.18 972.176   5
  -7   1  -8 1118.00 382.968   6
   7  -1   8 1051.63 337.547   5
  -7   1  -9 3627.69 706.056   6
   7  -1   9 2877.18 583.235   5
  -7   1 -10 229.923 246.717   6
   7  -1  10-71.2834 116.551   5
  -7   1 -11 1258.90 434.404   6
   7  -1  11 647.274 328.962   5
  -7   1 -12-71.4086 309.632   8
  -7   0   7 222.090 135.107   4
   7   0  -6 158.632 212.715   2
  -7   0   6 76.0680 100.755   4
   7   0  -5 355.857 230.539   2
  -7   0   5 595.052 215.865   4
   7   0  -4 995.869 390.954   2
  -7   0   4 1161.12 289.941   4
   7   0  -4 213.821 193.016   3
  -7   0   3 2197.35 377.135   4
   7   0  -3 3256.21 611.699   2
   7   0  -3 2375.32 583.392   3
   7   0  -2 278.070 217.357   3
   7   0  -2-234.703 237.679   2
  -7   0   2 87.2181 73.2910   4
   7   0  -1 2801.61 511.842   3
  -7   0   1 2181.68 354.436   4
   7   0  -1 3304.53 463.445   4
  -7   0   0 1757.67 297.983   4
   7   0   0 2049.59 404.524   3
   7   0   0 2448.01 362.359   4
  -7   0  -1 3444.90 388.948   4
   7   0   1 3415.97 397.635   4
  -7   0  -1 2771.78 627.343   1
   7   0   1 2930.86 507.441   8
   7   0   1 3108.19 512.587   3
   7   0   2 334.821 191.578   3
   7   0   2 80.4824 76.6658   8
  -7   0  -2-13.2735 104.799   1
   7   0   2 193.288 92.3958   4
   7   0   3 1808.68 406.345   3
  -7   0  -3 1901.29 380.180   1
  -7   0  -3 1667.34 409.762   6
   7   0   3 1284.42 392.316   5
  -7   0  -4-33.9979 89.2548   6
  -7   0  -4 78.0623 93.9410   1
   7   0   4-30.3993 109.200   5
  -7   0  -5 21685.8 1524.68   6
  -7   0  -5 22907.0 1073.95   1
   7   0   5 23170.4 1641.37   5
  -7   0  -6 1756.90 427.561   6
  -7   0  -6 1167.47 205.113   1
   7   0   6 1618.10 439.095   5
  -7   0  -7 1668.88 218.470   1
  -7   0  -7 1738.90 444.147   6
   7   0   7 1344.12 350.448   5
  -7   0  -8 92.2003 169.395   6
   7   0   8-31.3419 153.126   5
  -7   0  -9 4806.17 790.693   6
   7   0   9 4686.50 765.252   5
  -7   0 -10 82.2478 105.398   6
   7   0  10 12.8746 93.7296   5
  -7   0 -11 1596.31 624.993   8
  -7   0 -11 1994.77 561.434   6
   7   0  11 1960.50 517.444   5
  -7  -1   7 1094.50 291.765   4
   7   1  -6 746.363 316.991   2
  -7  -1   6 303.740 173.461   4
   7   1  -5 1529.34 499.381   2
  -7  -1   5 1780.69 355.649   4
   7   1  -4 271.939 176.817   2
  -7  -1   4 690.808 224.395   4
  -7  -1   3 2912.98 421.507   4
   7   1  -3 2231.18 569.425   2
   7   1  -3 1900.77 474.718   3
   7   1  -2 270.309 182.103   3
   7   1  -2 448.056 283.299   2
  -7  -1   2 823.479 224.035   4
   7   1  -1 1508.97 369.695   3
  -7  -1   1 1361.67 261.955   4
   7   1  -1 2075.14 514.355   2
   7   1  -1 1538.68 337.783   4
   7   1   0 499.481 231.579   3
  -7  -1   0 367.919 139.735   4
   7   1   0 612.227 196.535   4
   7   1   1 154.472 87.4806   3
  -7  -1  -1 334.466 123.927   4
   7   1   1 328.531 146.534   8
   7   1   1 168.079 90.3904   4
  -7  -1  -2 4382.17 393.601   4
   7   1   2 4873.69 422.982   4
   7   1   2 5298.09 620.941   3
  -7  -1  -3 15134.2 1195.76   1
  -7  -1  -3 14207.7 1161.32   6
   7   1   3 13167.3 1026.28   3
   7   1   3 12453.9 1222.25   5
  -7  -1  -4 1853.44 351.212   1
  -7  -1  -4 1315.88 361.428   6
   7   1   4 1379.25 402.625   5
  -7  -1  -5 2629.60 537.259   6
  -7  -1  -5 2475.59 322.897   1
   7   1   5 2431.78 518.127   5
  -7  -1  -6 192.989 89.7246   1
  -7  -1  -6 298.730 247.182   6
   7   1   6 189.714 163.243   5
  -7  -1  -7 7707.84 935.472   6
   7   1   7 6621.38 880.976   5
  -7  -1  -8 1838.45 482.695   6
   7   1   8 1044.90 346.437   5
  -7  -1  -9 3614.99 695.140   6
   7   1   9 3994.84 709.202   5
  -7  -1 -10 5.37268 125.430   6
   7   1  10-371.013 221.933   5
  -7  -1 -11 1233.81 418.039   6
   7   1  11 906.923 346.531   5
  -7  -2   6 423.457 193.828   4
   7   2  -5 820.176 392.186   2
  -7  -2   5 1182.69 287.292   4
   7   2  -4 671.726 365.764   2
  -7  -2   4 276.325 169.208   4
  -7  -2   3 2594.07 393.014   4
   7   2  -3 1577.53 461.249   2
   7   2  -2 1850.21 499.257   2
  -7  -2   2 1778.85 309.335   4
   7   2  -2 1367.69 346.677   3
  -7  -2   1 4924.20 492.188   4
   7   2  -1 4539.05 755.210   2
   7   2  -1 3884.80 530.287   3
   7   2   0 916.780 231.141   3
  -7  -2   0 1086.60 212.917   4
   7   2   0 907.896 254.524   4
  -7  -2  -1 1631.06 255.770   4
   7   2   1 1783.36 334.046   3
   7   2   1 2098.15 331.732   4
  -7  -2  -2 2551.70 299.245   4
   7   2   2 3562.73 477.236   3
  -7  -2  -3 45.8986 48.0666   4
  -7  -2  -3 103.345 126.975   6
   7   2   3-89.4151 104.591   5
  -7  -2  -4-134.848 116.934   1
  -7  -2  -4 84.4093 50.8601   4
  -7  -2  -4-90.9956 78.0981   6
   7   2   4-160.312 180.316   5
  -7  -2  -5 8045.13 905.752   6
   7   2   5 7729.81 955.936   5
  -7  -2  -5 8548.41 633.494   1
  -7  -2  -6 3447.91 619.498   6
  -7  -2  -6 3510.54 300.724   1
   7   2   6 3811.80 672.614   5
  -7  -2  -7 5850.72 838.158   6
   7   2   7 6271.87 848.393   5
  -7  -2  -8 1718.44 452.833   6
   7   2   8 1246.84 392.643   5
  -7  -2  -9 1340.83 411.027   6
   7   2   9 749.374 299.047   5
  -7  -2 -10 137.342 196.600   6
   7   2  10 52.5430 89.8412   5
  -7  -2 -11 2370.88 610.962   6
   7   2  11 2566.96 599.332   5
  -7  -3   6 1.15357 51.8059   4
   7   3  -5 649.065 386.183   2
  -7  -3   5 1175.52 293.961   4
   7   3  -4 955.443 401.010   2
  -7  -3   4 1167.63 273.058   4
   7   3  -3 1022.43 408.056   2
  -7  -3   3 1458.64 297.020   4
   7   3  -2 310.117 240.824   2
  -7  -3   2 139.844 80.0533   4
   7   3  -1 2064.50 366.675   3
  -7  -3   1 2854.04 389.263   4
   7   3  -1 2720.01 559.726   2
   7   3   0 447.305 147.407   3
   7   3   0 748.699 315.327   2
  -7  -3   0 372.012 135.628   4
  -7  -3  -1 4020.88 415.641   4
   7   3   1 3477.90 430.369   3
   7   3   2 763.693 205.690   3
  -7  -3  -2 751.662 178.553   4
  -7  -3  -2 612.219 213.888   6
  -7  -3  -3 1467.56 215.112   4
  -7  -3  -3 1466.26 362.813   6
   7   3   3 1286.06 396.723   5
  -7  -3  -4 2148.65 231.101   4
  -7  -3  -4 2446.09 485.561   6
   7   3   4 2494.07 531.824   5
  -7  -3  -5 3304.90 208.730   4
  -7  -3  -5 4716.15 518.168   1
  -7  -3  -5 4428.76 670.080   6
   7   3   5 4724.02 741.723   5
   7   3   6 33.3703 76.4038   5
  -7  -3  -6 96.6293 67.9161   1
  -7  -3  -7 1646.53 442.618   6
   7   3   7 1519.65 436.617   5
  -7  -3  -8 3156.28 630.192   6
   7   3   8 3074.28 605.933   5
  -7  -3  -9 5029.02 815.844   6
   7   3   9 4573.86 806.551   5
  -7  -3 -10 1437.33 459.570   6
   7   3  10 1551.30 469.997   5
  -7  -3 -11 939.855 373.479   6
   7   3  11 1333.82 435.718   5
  -7  -4   5 1079.12 279.888   4
   7   4  -4 492.617 325.009   2
  -7  -4   4 287.894 151.913   4
   7   4  -3 447.342 332.396   2
  -7  -4   3 784.947 215.635   4
   7   4  -2 1005.56 410.644   2
  -7  -4   2 656.437 202.436   4
  -7  -4   1 4432.17 511.354   4
   7   4  -1 4434.99 768.079   2
   7   4   0 523.659 310.212   2
  -7  -4   0 422.463 146.749   4
  -7  -4  -1 3532.34 429.117   4
   7   4   1 2838.58 575.724   2
   7   4   1 2693.06 336.375   3
   7   4   2 324.202 124.337   3
  -7  -4  -2 437.950 135.671   4
  -7  -4  -2 662.247 250.752   6
  -7  -4  -3 3381.62 383.641   4
  -7  -4  -3 3274.63 542.351   6
  -7  -4  -4 405.745 133.057   4
   7   4   4 340.559 91.0204   7
  -7  -4  -4 300.610 172.261   6
   7   4   4 482.856 250.657   5
  -7  -4  -5 895.612 172.285   4
  -7  -4  -5 939.921 305.907   6
   7   4   5 1053.67 345.569   5
  -7  -4  -6 600.203 257.059   6
  -7  -4  -6 657.358 163.275   1
   7   4   6 883.936 330.663   5
  -7  -4  -7 5134.66 775.102   6
   7   4   7 5425.22 818.874   5
  -7  -4  -8 903.785 346.515   6
   7   4   8 1110.83 393.509   5
  -7  -4  -9 1212.79 405.684   6
   7   4   9 1831.33 495.101   5
  -7  -4 -10 1137.99 396.579   6
   7   4  10 604.402 285.582   5
  -7  -4 -11 2036.32 580.250   6
   7   4  11 1992.05 538.238   5
   7   5  -4 915.698 430.267   2
  -7  -5   4 217.241 133.632   4
   7   5  -3 2390.45 648.286   2
  -7  -5   3 1743.10 376.104   4
   7   5  -2 628.180 354.519   2
  -7  -5   2 194.073 120.811   4
   7   5  -1 1098.41 421.090   2
  -7  -5   1 874.503 247.187   4
   7   5   0 175.650 209.861   2
  -7  -5   0 71.0388 86.9571   4
  -7  -5  -1 3251.77 450.290   4
   7   5   1 2869.51 615.309   2
   7   5   2 1203.24 220.302   3
   7   5   2 2021.17 500.629   2
  -7  -5  -2 1609.78 302.261   4
  -7  -5  -2 1754.84 386.646   6
  -7  -5  -3 2746.55 382.474   4
  -7  -5  -3 2074.52 432.171   6
  -7  -5  -4 885.562 206.691   4
  -7  -5  -4 679.355 258.990   6
   7   5   4 661.371 320.045   5
  -7  -5  -5 2498.85 335.909   4
  -7  -5  -5 1928.05 453.209   6
   7   5   5 2557.99 565.062   5
  -7  -5  -6 6.62332 43.6059   4
  -7  -5  -6-22.4808 104.764   6
   7   5   6 108.741 140.514   5
  -7  -5  -7 2395.24 526.613   6
   7   5   7 2573.50 563.731   5
  -7  -5  -8 410.722 228.977   6
   7   5   8 442.980 231.548   5
  -7  -5  -9 2340.87 576.762   6
   7   5   9 1585.30 466.942   5
  -7  -5 -10 797.320 370.162   6
   7   5  10 623.268 336.965   5
  -7  -5 -11 1047.38 411.949   6
   7   5  11 1171.84 396.793   5
  -7  -6   4 276.051 127.053   4
   7   6  -3 934.899 441.439   2
  -7  -6   3 898.077 281.868   4
   7   6  -2 949.052 404.216   2
  -7  -6   2 266.687 153.998   4
   7   6  -1 1188.64 458.605   2
  -7  -6   1 1335.44 328.793   4
   7   6   0 586.075 311.275   2
  -7  -6   0 507.005 190.226   4
   7   6   1 992.336 347.030   2
  -7  -6  -1 1761.66 364.313   4
   7   6   2 309.333 232.628   2
  -7  -6  -2 92.2432 95.2732   4
  -7  -6  -2 288.913 150.034   6
   7   6   3 2007.08 528.318   2
  -7  -6  -3 1859.13 362.028   4
  -7  -6  -3 1622.76 373.330   6
  -7  -6  -4 323.536 165.734   4
  -7  -6  -4 548.801 237.626   6
   7   6   4 549.880 273.418   5
  -7  -6  -5 2937.98 421.247   4
  -7  -6  -5 3004.04 550.690   6
   7   6   5 2660.71 576.699   5
  -7  -6  -6 397.093 162.403   4
  -7  -6  -6 457.812 242.998   6
   7   6   6 189.445 170.097   5
  -7  -6  -7 831.061 302.850   6
   7   6   7 1364.25 411.575   5
  -7  -6  -8 159.702 140.208   6
   7   6   8 916.325 346.375   5
  -7  -6  -9 1799.12 484.797   6
   7   6   9 1784.13 525.566   5
  -7  -6 -10 835.304 356.526   6
   7   6  10 613.376 303.523   5
   7   7  -2 626.993 369.836   2
  -7  -7   2 335.990 207.505   4
   7   7  -1 1207.81 486.457   2
  -7  -7   1 951.570 292.394   4
   7   7   0 298.351 251.196   2
  -7  -7   0 352.873 190.433   4
   7   7   1 1238.43 408.012   2
  -7  -7  -1 1266.32 340.241   4
   7   7   2 364.152 307.145   2
  -7  -7  -2 797.854 257.694   4
  -7  -7  -2 568.334 198.568   6
   7   7   3 1734.89 525.394   2
  -7  -7  -3 946.919 276.202   4
  -7  -7  -3 1513.71 359.248   6
   7   7   4 112.262 168.157   2
  -7  -7  -4 404.769 195.510   4
  -7  -7  -4 748.480 265.787   6
  -7  -7  -5 1148.70 305.254   4
  -7  -7  -5 1117.85 339.778   6
   7   7   5 640.999 292.680   5
  -7  -7  -6 306.060 159.479   4
  -7  -7  -6 281.919 234.815   6
   7   7   6 159.320 129.216   5
  -7  -7  -7 1320.06 395.382   6
   7   7   7 1251.22 397.222   5
  -7  -7  -8 358.644 242.706   6
   7   7   8 683.388 335.721   5
  -7  -7  -9 2033.11 532.953   6
   7   7   9 1490.91 457.540   5
  -7  -7 -10 400.993 231.724   6
   7   7  10 246.311 183.251   5
   7   8  -1 1329.81 560.942   2
  -7  -8   1 1158.03 365.240   4
   7   8   0 860.524 435.585   2
  -7  -8   0 290.411 166.804   4
   7   8   1 831.729 363.350   2
  -7  -8  -1 423.078 207.795   4
   7   8   2-177.032 214.823   2
  -7  -8  -2 285.986 192.895   4
   7   8   3 332.506 140.772   2
  -7  -8  -3 990.075 303.770   4
  -7  -8  -4 100.947 81.7925   4
  -7  -8  -4 69.0408 57.1645   6
   7   8   5 834.034 387.833   2
  -7  -8  -5 805.388 273.811   4
  -7  -8  -5 449.426 238.067   6
   7   8   6-31.4443 142.845   2
  -7  -8  -6 203.234 143.652   6
   7   8   6-4.25401 69.8520   5
  -7  -8  -7 860.784 327.981   6
   7   8   7 1481.76 473.319   5
  -7  -8  -8-142.910 158.952   6
   7   8   8 138.646 154.818   5
  -7  -8  -9-63.5714 170.388   6
   7   8   9 156.815 160.868   5
   7   9   0-4.67179 106.206   2
   7   9   1 661.101 416.704   2
  -7  -9  -1 651.192 271.292   4
   7   9   2 642.520 381.167   2
  -7  -9  -2 349.929 170.906   4
   7   9   3 164.578 307.146   2
  -7  -9  -3 186.573 166.681   4
   7   9   4 312.541 267.714   2
  -7  -9  -4 323.640 191.721   4
  -7  -9  -5 771.475 307.371   4
  -7  -9  -7 316.376 207.725   6
   7   9   7 140.487 180.418   5
  -7  -9  -8 24.1199 88.5106   6
   7   9   8-155.067 159.981   5
  -7  -9  -9 660.300 305.393   6
   7   9   9 345.962 239.846   5
  -8   6  -3 257.604 202.166   1
  -8   6  -4 379.407 226.662   1
   8  -5  -3 133.200 164.327   2
   8  -5  -2 224.545 197.709   2
  -8   5   0 1007.00 413.736   1
  -8   5  -1-111.821 214.706   1
  -8   5  -2 918.634 389.310   1
  -8   5  -3-35.4657 146.328   1
  -8   5  -4 1853.37 461.959   1
  -8   5  -5 104.892 112.746   1
   8  -4  -5-75.5759 362.602   3
   8  -4  -4 207.809 243.276   2
   8  -4  -4 10.1476 166.287   3
   8  -4  -3 192.573 342.774   3
   8  -4  -3-7.97888 96.2323   2
   8  -4  -2 957.911 490.351   3
   8  -4  -2 322.299 222.760   2
  -8   4   2 1095.71 460.987   1
   8  -4  -1 481.139 438.729   3
  -8   4   1 136.132 199.102   1
   8  -4   0 1072.15 448.847   3
  -8   4   0 1795.35 533.620   1
   8  -4   1-80.5727 242.837   3
  -8   4  -1 87.3220 101.966   1
   8  -4   2 2073.89 601.584   3
  -8   4  -2 2470.16 560.459   1
  -8   4  -3 249.750 171.577   1
   8  -4   3 129.191 126.134   3
   8  -4   4 297.793 209.005   3
  -8   4  -4 638.312 254.147   1
  -8   4  -5-64.5085 111.621   1
   8  -4   6 690.771 301.557   5
   8  -4   7 41.4662 122.923   5
   8  -4   8 1585.70 455.101   5
   8  -3  -5 128.518 205.328   3
   8  -3  -4 1456.83 463.960   2
   8  -3  -4 1145.71 586.345   3
   8  -3  -3 269.141 353.364   3
   8  -3  -3 103.392 102.599   2
  -8   3   3-58.7823 137.400   1
   8  -3  -2 1034.94 446.036   3
   8  -3  -2 1218.38 432.406   2
  -8   3   2 976.035 444.375   1
   8  -3  -1 643.392 350.639   3
  -8   3   1 744.195 377.338   1
   8  -3   0 1169.15 451.155   3
  -8   3   0 2052.20 579.939   1
   8  -3   1 867.750 364.394   3
  -8   3  -1 671.062 337.887   1
   8  -3   2 1422.18 467.180   3
  -8   3  -2 1228.48 383.595   1
   8  -3   3 165.989 185.967   3
  -8   3  -3 133.080 115.986   1
  -8   3  -4 1665.29 394.305   1
   8  -3   4 1199.62 432.949   3
   8  -3   5 1328.86 423.449   3
  -8   3  -5 1789.05 382.340   1
   8  -3   5 1406.92 444.158   5
   8  -3   6 1943.10 533.861   3
   8  -3   6 1490.83 443.330   5
   8  -3   7 363.517 238.209   5
   8  -3   8 572.321 253.728   5
  -8   2   4 831.730 479.415   1
   8  -2  -4 345.188 260.437   2
   8  -2  -4-6.72943 240.465   3
   8  -2  -3 174.767 313.039   3
   8  -2  -3 311.082 209.050   2
  -8   2   3 614.024 374.784   1
   8  -2  -2 720.701 374.952   3
   8  -2  -2 1076.37 406.211   2
   8  -2  -1 1555.69 484.900   3
  -8   2   1 948.616 434.156   1
   8  -2   0 1722.07 491.169   3
  -8   2   0 2251.57 621.953   1
  -8   2  -1 363.777 218.468   1
   8  -2   1 417.347 230.029   3
   8  -2   2 4995.63 789.663   3
  -8   2  -2 4805.93 736.446   1
   8  -2   3 432.844 214.217   3
  -8   2  -3 385.873 199.044   1
   8  -2   4 1224.06 383.809   3
  -8   2  -4 1582.44 358.750   1
   8  -2   5 128.792 117.127   3
   8  -2   5 118.760 173.858   5
  -8   2  -5 404.885 188.302   1
   8  -2   6 163.517 195.117   3
   8  -2   6 101.510 73.0462   5
   8  -2   7 1008.47 383.337   3
  -8   2  -7 1506.81 447.364   6
   8  -2   7 1758.80 494.453   5
  -8   2  -8 3085.15 649.651   6
   8  -2   8 2947.28 639.789   5
   8  -2   9 13.9912 148.064   5
  -8   1   6 543.992 235.048   4
  -8   1   5-232.095 154.451   4
   8  -1  -4 1230.11 462.151   2
  -8   1   4 453.059 193.050   4
   8  -1  -3 1006.62 394.691   2
  -8   1   3 163.640 83.1363   4
  -8   1   3-33.5589 150.782   1
   8  -1  -3 706.711 424.162   3
   8  -1  -2 867.284 348.037   3
   8  -1  -2 1531.70 412.091   2
  -8   1   2 824.648 462.229   1
   8  -1  -1 488.068 285.179   3
  -8   1   1-61.1055 203.559   1
   8  -1   0 1620.88 432.491   3
  -8   1   0 1452.84 546.877   1
   8  -1   1 627.757 256.517   3
  -8   1  -1 355.567 223.343   1
   8  -1   2 4201.29 683.778   3
  -8   1  -2 4632.44 744.213   1
   8  -1   3-238.401 229.220   3
  -8   1  -3 92.0819 128.827   1
   8  -1   4 3509.65 616.728   3
  -8   1  -4 3358.30 509.166   1
  -8   1  -5 1132.23 279.939   1
   8  -1   5 1362.84 392.920   3
   8  -1   5 863.084 348.001   5
   8  -1   6 2539.02 567.926   3
  -8   1  -6 2725.59 574.622   6
   8  -1   6 2846.91 625.632   5
  -8   1  -7 1148.92 377.233   6
   8  -1   7 1013.96 374.381   5
  -8   1  -8 450.182 273.409   6
   8  -1   8 221.759 171.898   5
   8  -1   9-164.168 129.964   5
  -8   0   5-39.9724 78.8900   4
   8   0  -4 152.083 165.694   2
  -8   0   4-13.8939 98.8998   4
   8   0  -3 310.883 234.268   2
  -8   0   3 223.327 122.278   4
   8   0  -2 1658.39 486.358   3
   8   0  -2 1318.14 424.363   2
  -8   0   2 773.062 233.942   4
   8   0  -1 140.899 188.601   3
  -8   0   1 51.3275 56.0622   4
   8   0  -1-23.1025 183.965   2
   8   0   0 1308.42 368.331   3
  -8   0   0 1233.38 274.084   4
  -8   0   0 1284.18 525.960   1
   8   0   1 1449.60 393.689   3
  -8   0  -1 1353.30 498.700   1
  -8   0  -2 4157.83 747.649   1
   8   0   2 3995.10 646.080   3
   8   0   3 18.5812 72.2896   3
  -8   0  -3 449.620 209.802   1
   8   0   4 6457.79 817.265   3
   8   0   4 6726.83 959.711   5
  -8   0  -4 7922.78 767.378   1
   8   0   5-173.609 161.659   3
  -8   0  -5 145.844 116.050   1
   8   0   5 76.6297 117.734   5
  -8   0  -6 795.057 300.017   6
   8   0   6 1041.09 382.717   5
  -8   0  -7 99.8842 128.058   6
   8   0   7 336.415 224.802   5
  -8   0  -8 2120.36 556.846   6
   8   0   8 1819.40 520.596   5
  -8   0  -9 122.927 117.470   6
   8   0   9 566.525 311.039   5
  -8  -1   5 601.345 233.576   4
  -8  -1   4 1414.57 329.188   4
   8   1  -3 3.26189 134.826   2
  -8  -1   3 203.587 131.089   4
   8   1  -2 1190.54 406.510   2
  -8  -1   2 1243.85 293.246   4
   8   1  -1 832.171 338.148   3
   8   1  -1 1093.05 395.140   2
  -8  -1   1 730.178 228.050   4
   8   1   0 1164.21 346.509   3
  -8  -1   0 983.132 234.636   4
   8   1   1 222.072 177.288   3
  -8  -1  -1 149.003 63.3596   4
   8   1   2 1724.75 400.553   3
  -8  -1  -2 1404.64 474.231   1
   8   1   3 408.454 189.085   3
  -8  -1  -3 515.219 268.696   1
  -8  -1  -4 5905.49 818.664   6
   8   1   4 4271.93 629.260   3
   8   1   4 5478.39 883.062   5
  -8  -1  -4 6470.62 710.611   1
  -8  -1  -5 84.2439 99.2400   1
  -8  -1  -5 0.88997 105.689   6
   8   1   5-210.077 229.741   5
  -8  -1  -6 4491.77 753.303   6
   8   1   6 4643.13 804.667   5
  -8  -1  -7 516.328 278.301   6
   8   1   7 682.737 292.238   5
  -8  -1  -8 2122.63 539.705   6
   8   1   8 1722.76 498.385   5
  -8  -1  -9 129.044 129.007   6
   8   1   9 84.8188 78.5647   5
  -8  -2   5 285.058 161.775   4
  -8  -2   4 110.516 95.9621   4
   8   2  -3 508.424 296.335   2
  -8  -2   3 607.962 213.946   4
   8   2  -2 848.926 378.903   2
  -8  -2   2 961.308 249.698   4
   8   2  -1 53.6860 118.497   2
  -8  -2   1 458.703 192.013   4
   8   2   0 458.117 211.072   3
  -8  -2   0 817.381 220.781   4
   8   2   0 1048.66 389.938   2
   8   2   1 1081.61 313.157   3
  -8  -2  -1 808.291 197.585   4
   8   2   2 2264.70 445.574   3
   8   2   3 550.048 236.170   3
  -8  -2  -3 1158.81 350.950   1
  -8  -2  -4 2516.32 480.749   1
  -8  -2  -4 1997.00 480.269   6
   8   2   4 2080.33 520.409   5
  -8  -2  -5 489.770 161.005   1
  -8  -2  -5 164.676 115.471   6
   8   2   5 306.286 208.094   5
  -8  -2  -6 4525.85 736.693   6
   8   2   6 5163.59 844.529   5
  -8  -2  -7 684.219 306.664   6
   8   2   7 284.462 207.825   5
  -8  -2  -8 1159.39 408.359   6
   8   2   8 1757.66 492.527   5
  -8  -2  -9 906.089 363.317   6
   8   2   9-15.5688 108.639   5
  -8  -3   4 614.989 218.415   4
  -8  -3   3 512.578 192.024   4
   8   3  -2 286.899 157.264   2
  -8  -3   2 423.570 163.702   4
   8   3  -1 444.330 302.948   2
  -8  -3   1 488.355 178.220   4
   8   3   0 2283.10 544.927   2
  -8  -3   0 1710.38 305.285   4
  -8  -3  -1 536.603 164.049   4
   8   3   1 1005.79 401.912   2
   8   3   2 314.727 167.307   3
  -8  -3  -2 721.322 176.183   4
   8   3   3 523.402 194.472   3
  -8  -3  -3 390.852 203.143   6
  -8  -3  -4 1743.99 450.508   6
   8   3   4 2095.93 540.298   5
  -8  -3  -5 1371.20 405.484   6
   8   3   5 1105.63 392.430   5
  -8  -3  -6 2027.16 506.921   6
   8   3   6 1768.63 535.582   5
  -8  -3  -7 790.474 336.676   6
   8   3   7 744.689 316.541   5
  -8  -3  -8 1768.99 504.550   6
   8   3   8 1648.49 480.957   5
  -8  -3  -9 350.800 217.825   6
   8   3   9 372.470 256.624   5
  -8  -4   4 183.435 123.213   4
  -8  -4   3 211.575 132.753   4
  -8  -4   2 395.343 168.995   4
   8   4  -1 281.001 203.695   2
  -8  -4   1 339.444 161.968   4
   8   4   0 169.438 233.847   2
  -8  -4   0 228.354 116.474   4
   8   4   1 309.159 365.055   2
  -8  -4  -1 618.235 183.814   4
  -8  -4  -2 1830.40 300.610   4
   8   4   3 921.480 253.850   3
  -8  -4  -3 733.480 262.445   6
  -8  -4  -4 1180.48 367.792   6
  -8  -4  -5 5.32549 65.5678   6
   8   4   5 318.980 260.823   5
  -8  -4  -6 1653.20 448.659   6
   8   4   6 1464.06 470.281   5
  -8  -4  -7 637.860 280.388   6
   8   4   7 358.655 273.533   5
  -8  -4  -8 1521.99 460.439   6
   8   4   8 1117.55 416.003   5
  -8  -4  -9 687.048 332.297   6
   8   4   9 679.760 318.906   5
  -8  -5   3 398.861 195.885   4
  -8  -5   2 337.355 181.086   4
   8   5  -1 820.769 434.255   2
  -8  -5   1 538.763 197.369   4
   8   5   0 564.885 380.836   2
  -8  -5   0 198.952 109.937   4
   8   5   1 648.492 363.031   2
  -8  -5  -1 492.939 169.912   4
   8   5   2 1009.51 382.648   2
  -8  -5  -2 923.871 235.214   4
  -8  -5  -3 123.523 73.2039   6
  -8  -5  -4 1651.49 425.694   6
  -8  -5  -5 189.518 153.674   6
   8   5   5 257.927 207.724   5
  -8  -5  -6 1130.09 379.278   6
   8   5   6 1385.66 445.396   5
  -8  -5  -7 574.115 296.345   6
   8   5   7 935.737 384.001   5
  -8  -5  -8 880.390 348.231   6
   8   5   8 1379.87 454.545   5
  -8  -5  -9 568.919 293.381   6
  -8  -6   2 1038.25 298.506   4
  -8  -6   1-88.7326 102.293   4
   8   6   0-37.1090 197.241   2
  -8  -6   0 48.4184 77.7956   4
   8   6   1 713.741 346.813   2
  -8  -6  -1 218.287 131.631   4
   8   6   2 1207.70 448.621   2
  -8  -6  -2 885.885 244.497   4
   8   6   3 736.002 351.474   2
  -8  -6  -3 724.571 277.934   6
   8   6   4 1096.14 405.414   2
  -8  -6  -4 489.112 241.209   6
  -8  -6  -5 209.875 191.446   6
   8   6   5 458.242 276.658   5
  -8  -6  -6 1019.91 362.796   6
   8   6   6 1080.74 422.278   5
  -8  -6  -7 354.263 208.881   6
   8   6   7 519.511 279.154   5
  -8  -6  -8 840.951 361.014   6
   8   6   8 761.279 346.532   5
  -8  -7   1 364.543 192.056   4
  -8  -7   0 490.481 197.612   4
   8   7   1 489.013 314.897   2
  -8  -7  -1 205.203 151.628   4
   8   7   2-116.284 170.372   2
   8   7   3-247.325 261.083   2
  -8  -7  -3 423.917 192.535   6
   8   7   4 1011.23 420.810   2
  -8  -7  -4 948.882 319.701   6
   8   7   5 180.057 178.887   2
  -8  -7  -5 373.612 236.964   6
  -8  -7  -6 400.773 216.727   6
   8   7   6 523.089 285.272   5
  -8  -7  -7 70.7678 164.652   6
   8   7   7 250.186 215.153   5
  -8  -7  -8 746.877 362.849   6
   8   8   3 585.156 291.906   2
   8   8   4 788.478 411.822   2
   8   8   5 261.410 276.837   2
   8   8   6 877.270 419.477   2
  -8  -8  -6 563.534 277.711   6
   8   8   7 370.140 290.739   2
  -8  -8  -7 140.654 162.787   6
  -9   4  -2 93.7784 83.9040   1
  -9   4  -3 480.533 255.298   1
   9  -3  -2 123.583 207.408   3
   9  -3  -1 580.684 375.127   3
   9  -3   0 14.6270 198.524   3
  -9   3   0 130.980 204.592   1
   9  -3   1 723.911 399.258   3
  -9   3  -1 354.973 298.463   1
  -9   3  -2 31.0693 128.149   1
  -9   3  -3 667.090 293.894   1
   9  -2  -2-425.260 312.216   3
   9  -2  -1 564.968 381.140   3
  -9   2   1-1.58396 232.349   1
   9  -2   0 205.557 274.523   3
  -9   2   0 157.154 200.317   1
   9  -2   1 830.863 368.989   3
  -9   2  -1 1230.07 438.710   1
   9  -2   2-36.5247 114.197   3
  -9   2  -2 284.427 199.964   1
   9  -2   3 176.847 158.015   3
  -9   2  -3 832.411 303.644   1
   9  -2   4 375.156 301.949   3
   9  -1  -1 924.954 426.673   3
  -9   1   1 731.371 436.421   1
   9  -1   0-3.52217 97.6607   3
  -9   1   0 351.972 286.671   1
   9  -1   1 642.976 319.530   3
  -9   1  -1 789.941 387.236   1
  -9   1  -2 488.359 256.061   1
   9  -1   2 135.783 130.147   3
   9  -1   3 886.190 341.381   3
  -9   1  -3 1679.08 458.173   1
   9  -1   4 22.4889 135.779   3
   9  -1   5 228.494 189.762   3
   9  -1   6 351.464 227.495   3
  -9   0   2-170.303 208.347   1
  -9   0   1 351.198 323.574   1
  -9   0   0 149.482 181.870   1
  -9   0  -1 1638.55 568.958   1
   9   0   1 1184.19 408.307   3
   9   0   2 297.657 220.831   3
  -9   0  -2 208.585 233.199   1
  -9   0  -3 1176.22 367.695   1
   9   0   3 1204.25 379.658   3
   9   0   4 155.802 154.818   3
   9   0   5 827.533 329.578   3
   9   0   6 202.602 111.478   3
  -9  -1   0 883.658 449.485   1
  -9  -1  -1 1176.73 505.261   1
   9   1   2-4.10766 78.4508   3
  -9  -1  -2 192.568 204.501   1
   9   1   3 1381.96 389.564   3
  -9  -1  -3 2288.77 525.016   1
   9   1   4-94.6300 103.625   3
   9   1   5 348.648 190.685   3
   9   1   6 11.0464 119.648   3
  -9  -2  -2 539.939 367.393   1
   9   2   3 1038.26 316.218   3
   9   2   4 171.435 130.476   3
   9   2   5 1247.96 366.774   3
  -9  -2  -5 1664.85 472.972   6
   9   3   5 540.128 253.544   3
  -9  -3  -5 786.193 352.302   6
  -9  -4  -5 837.461 343.131   6
  -9  -5  -4-42.0459 69.4446   6
  -9  -5  -5-134.225 142.420   6
  -9  -6  -4 244.345 187.471   6
  -9  -6  -5 917.644 346.688   6
   0   0   0    0.00    0.00   0

TITL exp_1283 in P-1
REM P-1 (#2 in standard setting)
CELL 0.71073   7.202376   9.175977  11.662574  77.2560  77.1580  84.0121
ZERR    2.00   0.000389   0.000459   0.000710   0.0047   0.0049   0.0043
LATT  1
SFAC C H F Fe
UNIT 32.00 20.00 12.00 2.00
TREF
HKLF 4
END
;
_shelx_hkl_checksum              96150
_olex2_date_sample_data_collection 2018-11-21
_olex2_exptl_crystal_mounting_method 'Inside 1.0 mm X-ray capillary'
_olex2_submission_special_instructions 'No special instructions were received'
_oxdiff_exptl_absorpt_empirical_details
;
Empirical correction (ABSPACK) includes:
- Absorption correction using spherical harmonics
- Frame scaling
;
_oxdiff_exptl_absorpt_empirical_full_max 3.889
_oxdiff_exptl_absorpt_empirical_full_min 0.549
loop_
_space_group_symop_operation_xyz
'x, y, z'
'-x, -y, -z'
loop_
_atom_site_label
_atom_site_type_symbol
_atom_site_fract_x
_atom_site_fract_y
_atom_site_fract_z
_atom_site_U_iso_or_equiv
_atom_site_adp_type
_atom_site_occupancy
_atom_site_site_symmetry_order
_atom_site_calc_flag
Fe1 Fe 0.24075(3) 0.49645(2) 0.25186(2) 0.04523(14) Uani 1 1 d
C7 C 0.3130(5) 0.6778(3) 0.1222(3) 0.0911(11) Uani 1 1 d
H7 H 0.423(4) 0.706(3) 0.098(3) 0.095(10) Uiso 1 1 d
C8 C 0.2388(5) 0.5729(3) 0.0758(2) 0.0764(8) Uani 1 1 d
H8 H 0.298(4) 0.528(3) 0.019(2) 0.089(9) Uiso 1 1 d
C9 C 0.0550(4) 0.5512(3) 0.1388(2) 0.0676(7) Uani 1 1 d
H9 H -0.030(4) 0.482(3) 0.129(3) 0.107(10) Uiso 1 1 d
C10 C 0.0132(4) 0.6401(3) 0.2252(2) 0.0691(7) Uani 1 1 d
H10 H -0.108(4) 0.641(3) 0.284(3) 0.105(10) Uiso 1 1 d
C11 C 0.1713(5) 0.7185(3) 0.2148(3) 0.0783(8) Uani 1 1 d
H11 H 0.186(4) 0.781(3) 0.263(2) 0.096(9) Uiso 1 1 d
C12 C 0.4728(4) 0.4077(4) 0.3184(3) 0.0846(10) Uani 1 1 d
H12 H 0.583(4) 0.446(3) 0.294(2) 0.082(8) Uiso 1 1 d
C13 C 0.4048(4) 0.3033(3) 0.2684(3) 0.0757(8) Uani 1 1 d
H13 H 0.467(4) 0.263(3) 0.206(2) 0.086(9) Uiso 1 1 d
C14 C 0.2202(4) 0.2766(3) 0.3296(2) 0.0653(6) Uani 1 1 d
H14 H 0.140(3) 0.213(3) 0.315(2) 0.080(8) Uiso 1 1 d
C15 C 0.1721(4) 0.3632(3) 0.4180(2) 0.0621(6) Uani 1 1 d
H15 H 0.053(3) 0.367(3) 0.468(2) 0.085(8) Uiso 1 1 d
C16 C 0.3274(4) 0.4449(3) 0.4107(3) 0.0711(7) Uani 1 1 d
H16 H 0.333(4) 0.514(3) 0.453(2) 0.087(8) Uiso 1 1 d
F1 F 0.3696(2) 0.99809(19) -0.11332(16) 0.0970(5) Uani 1 1 d
F2 F 0.1325(2) 0.81474(16) -0.15450(14) 0.0865(5) Uani 1 1 d
F3 F -0.2360(3) 0.81595(19) -0.04072(18) 0.1006(5) Uani 1 1 d
C1 C 0.1863(3) 0.9993(3) -0.0577(2) 0.0619(6) Uani 1 1 d
C2 C 0.0666(4) 0.9068(2) -0.0784(2) 0.0589(6) Uani 1 1 d
C3 C -0.1187(3) 0.9074(2) -0.0210(2) 0.0609(6) Uani 1 1 d
F4 F 0.7941(3) 0.1537(2) 0.50766(19) 0.1113(6) Uani 1 1 d
F5 F 0.4472(3) 0.20278(18) 0.64237(15) 0.0996(5) Uani 1 1 d
F6 F 0.1524(2) 0.0498(2) 0.63406(15) 0.0997(6) Uani 1 1 d
C4 C 0.6480(3) 0.0772(3) 0.5037(2) 0.0639(6) Uani 1 1 d
C5 C 0.4736(4) 0.1019(2) 0.5722(2) 0.0606(6) Uani 1 1 d
C6 C 0.3251(3) 0.0247(3) 0.5682(2) 0.0610(6) Uani 1 1 d
loop_
_atom_site_aniso_label
_atom_site_aniso_U_11
_atom_site_aniso_U_22
_atom_site_aniso_U_33
_atom_site_aniso_U_23
_atom_site_aniso_U_13
_atom_site_aniso_U_12
Fe1 0.0500(2) 0.04131(19) 0.0437(2) -0.00463(13) -0.01429(14) 0.00190(13)
C7 0.0715(19) 0.0755(19) 0.107(3) 0.0393(19) -0.0280(19) -0.0186(16)
C8 0.097(2) 0.0766(18) 0.0443(14) -0.0022(13) -0.0148(14) 0.0225(16)
C9 0.0766(17) 0.0665(15) 0.0658(16) -0.0072(12) -0.0368(14) 0.0029(13)
C10 0.0675(16) 0.0724(16) 0.0630(15) -0.0096(13) -0.0204(13) 0.0226(13)
C11 0.117(3) 0.0439(13) 0.085(2) -0.0114(13) -0.052(2) 0.0108(14)
C12 0.0537(16) 0.088(2) 0.101(2) 0.0210(18) -0.0328(16) -0.0021(15)
C13 0.084(2) 0.0667(16) 0.0641(16) -0.0078(13) -0.0121(15) 0.0329(15)
C14 0.0857(18) 0.0435(12) 0.0665(16) -0.0037(11) -0.0236(14) -0.0020(12)
C15 0.0692(16) 0.0594(14) 0.0501(13) 0.0009(11) -0.0107(12) 0.0012(12)
C16 0.097(2) 0.0606(15) 0.0661(16) -0.0086(12) -0.0460(16) 0.0020(14)
F1 0.0627(9) 0.1094(12) 0.1025(12) -0.0152(10) 0.0089(8) -0.0004(8)
F2 0.1153(12) 0.0724(9) 0.0698(9) -0.0278(7) -0.0112(9) 0.0163(8)
F3 0.0980(12) 0.0928(11) 0.1235(14) -0.0298(10) -0.0314(11) -0.0272(9)
C1 0.0555(13) 0.0569(13) 0.0623(14) 0.0010(11) -0.0063(11) 0.0060(10)
C2 0.0778(16) 0.0458(12) 0.0495(12) -0.0085(9) -0.0129(11) 0.0102(11)
C3 0.0651(14) 0.0511(12) 0.0654(15) -0.0048(11) -0.0177(12) -0.0045(10)
F4 0.0929(12) 0.1094(13) 0.1425(17) -0.0171(11) -0.0398(12) -0.0395(10)
F5 0.1478(16) 0.0771(10) 0.0852(11) -0.0377(8) -0.0358(11) 0.0131(10)
F6 0.0713(10) 0.1113(12) 0.0894(11) 0.0003(9) 0.0091(8) 0.0174(9)
C4 0.0636(15) 0.0559(13) 0.0718(16) 0.0035(12) -0.0255(13) -0.0125(11)
C5 0.0837(17) 0.0459(12) 0.0530(13) -0.0080(10) -0.0225(13) 0.0070(11)
C6 0.0578(13) 0.0579(13) 0.0547(13) 0.0037(11) -0.0055(11) 0.0079(11)
loop_
_atom_type_symbol
_atom_type_description
_atom_type_scat_dispersion_real
_atom_type_scat_dispersion_imag
_atom_type_scat_source
C C 0.0033 0.0016 'International Tables Vol C Tables 4.2.6.8 and 6.1.1.4'
H H 0.0000 0.0000 'International Tables Vol C Tables 4.2.6.8 and 6.1.1.4'
F F 0.0171 0.0103 'International Tables Vol C Tables 4.2.6.8 and 6.1.1.4'
Fe Fe 0.3463 0.8444 'International Tables Vol C Tables 4.2.6.8 and 6.1.1.4'
loop_
_exptl_crystal_face_index_h
_exptl_crystal_face_index_k
_exptl_crystal_face_index_l
_exptl_crystal_face_perp_dist
-1 -11 6 0.2621
-9 -6 -1 0.4328
-3 11 -2 0.4683
1 -7 -14 0.0951
1 12 -2 0.3372
1 -10 7 0.2143
-1 7 14 0.1918
1 11 -6 0.3635
9 7 1 0.2402
10 1 5 0.2353
4 -5 -12 0.0590
0 13 3 0.3343
-4 -9 -14 0.1983
4 7 15 0.2183
3 11 12 0.2560
1 1 16 0.1300
7 -2 -8 0.0951
-2 -8 -15 0.1475
-10 -2 -4 0.5268
loop_
_geom_angle_atom_site_label_1
_geom_angle_atom_site_label_2
_geom_angle_atom_site_label_3
_geom_angle
_geom_angle_site_symmetry_3
C7 Fe1 C8 40.74(13) .
C7 Fe1 C9 67.35(12) .
C7 Fe1 C10 67.54(12) .
C7 Fe1 C11 40.59(13) .
C7 Fe1 C12 109.10(12) .
C7 Fe1 C13 123.24(15) .
C7 Fe1 C14 157.94(16) .
C7 Fe1 C15 160.59(15) .
C7 Fe1 C16 124.99(13) .
C8 Fe1 C9 39.66(11) .
C8 Fe1 C10 67.53(11) .
C8 Fe1 C13 108.15(12) .
C8 Fe1 C14 121.88(13) .
C8 Fe1 C15 157.05(13) .
C8 Fe1 C16 161.59(13) .
C9 Fe1 C15 122.48(11) .
C10 Fe1 C9 40.20(11) .
C10 Fe1 C15 108.15(11) .
C11 Fe1 C8 68.10(13) .
C11 Fe1 C9 67.28(11) .
C11 Fe1 C10 39.79(12) .
C11 Fe1 C13 159.28(14) .
C11 Fe1 C14 159.67(14) .
C11 Fe1 C15 124.02(13) .
C11 Fe1 C16 108.60(12) .
C12 Fe1 C8 125.02(14) .
C12 Fe1 C9 160.41(15) .
C12 Fe1 C10 158.20(14) .
C12 Fe1 C11 123.53(13) .
C12 Fe1 C13 40.67(12) .
C12 Fe1 C14 67.54(11) .
C12 Fe1 C15 67.42(11) .
C12 Fe1 C16 40.47(12) .
C13 Fe1 C9 123.73(13) .
C13 Fe1 C10 159.48(14) .
C13 Fe1 C14 39.86(11) .
C13 Fe1 C15 67.52(11) .
C13 Fe1 C16 68.13(12) .
C14 Fe1 C9 108.05(11) .
C14 Fe1 C10 123.89(12) .
C14 Fe1 C15 40.30(10) .
C14 Fe1 C16 67.64(11) .
C16 Fe1 C9 157.48(13) .
C16 Fe1 C10 122.37(12) .
C16 Fe1 C15 39.92(11) .
Fe1 C7 H7 124.0(18) .
C8 C7 Fe1 69.98(15) .
C8 C7 H7 124(2) .
C11 C7 Fe1 70.04(16) .
C11 C7 H7 129(2) .
C11 C7 C8 107.7(3) .
Fe1 C8 H8 124.1(17) .
C7 C8 Fe1 69.28(16) .
C7 C8 H8 126.5(19) .
C9 C8 Fe1 70.61(15) .
C9 C8 C7 107.6(3) .
C9 C8 H8 125.8(19) .
Fe1 C9 H9 123.7(15) .
C8 C9 Fe1 69.73(15) .
C8 C9 H9 126.7(18) .
C8 C9 C10 108.6(3) .
C10 C9 Fe1 69.76(14) .
C10 C9 H9 124.6(18) .
Fe1 C10 H10 123.8(15) .
C9 C10 Fe1 70.04(14) .
C9 C10 H10 124.3(17) .
C11 C10 Fe1 69.79(14) .
C11 C10 C9 108.1(3) .
C11 C10 H10 127.6(17) .
Fe1 C11 H11 122.3(15) .
C7 C11 Fe1 69.37(15) .
C7 C11 H11 125.1(18) .
C10 C11 Fe1 70.42(14) .
C10 C11 C7 108.0(3) .
C10 C11 H11 126.8(18) .
Fe1 C12 H12 123.2(16) .
C13 C12 Fe1 69.81(15) .
C13 C12 H12 126.3(19) .
C16 C12 Fe1 70.14(14) .
C16 C12 H12 125.6(19) .
C16 C12 C13 108.0(3) .
Fe1 C13 H13 123.5(15) .
C12 C13 Fe1 69.52(15) .
C12 C13 H13 126.9(17) .
C14 C13 Fe1 70.27(14) .
C14 C13 C12 107.7(3) .
C14 C13 H13 125.3(17) .
Fe1 C14 H14 125.5(14) .
C13 C14 Fe1 69.87(14) .
C13 C14 H14 126.7(16) .
C13 C14 C15 108.4(3) .
C15 C14 Fe1 70.21(13) .
C15 C14 H14 124.9(16) .
Fe1 C15 H15 123.4(15) .
C14 C15 Fe1 69.49(14) .
C14 C15 H15 123.9(16) .
C16 C15 Fe1 69.70(14) .
C16 C15 C14 108.1(3) .
C16 C15 H15 127.9(16) .
Fe1 C16 H16 122.5(16) .
C12 C16 Fe1 69.39(15) .
C12 C16 H16 125.0(18) .
C15 C16 Fe1 70.37(14) .
C15 C16 C12 107.7(3) .
C15 C16 H16 127.2(18) .
F1 C1 C2 120.1(2) .
F1 C1 C3 120.0(2) 2_575
C2 C1 C3 119.9(2) 2_575
F2 C2 C1 120.0(2) .
F2 C2 C3 120.1(2) .
C3 C2 C1 119.9(2) .
F3 C3 C1 119.9(2) 2_575
F3 C3 C2 119.9(2) .
C2 C3 C1 120.2(2) 2_575
F4 C4 C5 119.5(2) .
F4 C4 C6 120.1(2) 2_656
C5 C4 C6 120.5(2) 2_656
F5 C5 C4 120.4(2) .
F5 C5 C6 120.1(2) .
C4 C5 C6 119.6(2) .
F6 C6 C4 120.1(2) 2_656
F6 C6 C5 120.0(2) .
C5 C6 C4 120.0(2) 2_656
loop_
_geom_bond_atom_site_label_1
_geom_bond_atom_site_label_2
_geom_bond_distance
_geom_bond_site_symmetry_2
Fe1 C7 2.012(3) .
Fe1 C8 2.021(2) .
Fe1 C9 2.032(2) .
Fe1 C10 2.029(2) .
Fe1 C11 2.020(2) .
Fe1 C12 2.018(2) .
Fe1 C13 2.022(2) .
Fe1 C14 2.027(2) .
Fe1 C15 2.036(2) .
Fe1 C16 2.028(2) .
C7 H7 0.83(3) .
C7 C8 1.404(4) .
C7 C11 1.399(5) .
C8 H8 0.86(3) .
C8 C9 1.375(4) .
C9 H9 0.97(3) .
C9 C10 1.396(4) .
C10 H10 0.98(3) .
C10 C11 1.378(4) .
C11 H11 0.92(3) .
C12 H12 0.86(3) .
C12 C13 1.404(4) .
C12 C16 1.399(4) .
C13 H13 0.90(3) .
C13 C14 1.380(4) .
C14 H14 0.93(2) .
C14 C15 1.400(4) .
C15 H15 0.92(3) .
C15 C16 1.387(4) .
C16 H16 0.89(3) .
F1 C1 1.336(3) .
F2 C2 1.337(3) .
F3 C3 1.338(3) .
C1 C2 1.363(3) .
C1 C3 1.368(3) 2_575
C2 C3 1.353(3) .
C3 C1 1.368(3) 2_575
F4 C4 1.339(3) .
F5 C5 1.338(3) .
F6 C6 1.336(3) .
C4 C5 1.357(3) .
C4 C6 1.360(3) 2_656
C5 C6 1.358(3) .
C6 C4 1.360(3) 2_656
loop_
_geom_torsion_atom_site_label_1
_geom_torsion_atom_site_label_2
_geom_torsion_atom_site_label_3
_geom_torsion_atom_site_label_4
_geom_torsion
_geom_torsion_site_symmetry_1
_geom_torsion_site_symmetry_4
Fe1 C7 C8 C9 60.49(17) . .
Fe1 C7 C11 C10 -60.10(18) . .
Fe1 C8 C9 C10 59.08(17) . .
Fe1 C9 C10 C11 59.65(17) . .
Fe1 C10 C11 C7 59.44(18) . .
Fe1 C12 C13 C14 -60.16(17) . .
Fe1 C12 C16 C15 60.23(17) . .
Fe1 C13 C14 C15 -59.85(16) . .
Fe1 C14 C15 C16 -59.18(17) . .
Fe1 C15 C16 C12 -59.61(17) . .
C7 C8 C9 Fe1 -59.65(17) . .
C7 C8 C9 C10 -0.6(3) . .
C8 C7 C11 Fe1 60.12(17) . .
C8 C7 C11 C10 0.0(3) . .
C8 C9 C10 Fe1 -59.07(17) . .
C8 C9 C10 C11 0.6(3) . .
C9 C10 C11 Fe1 -59.81(17) . .
C9 C10 C11 C7 -0.4(3) . .
C11 C7 C8 Fe1 -60.15(18) . .
C11 C7 C8 C9 0.3(3) . .
C12 C13 C14 Fe1 59.68(17) . .
C12 C13 C14 C15 -0.2(3) . .
C13 C12 C16 Fe1 -59.77(17) . .
C13 C12 C16 C15 0.5(3) . .
C13 C14 C15 Fe1 59.63(17) . .
C13 C14 C15 C16 0.5(3) . .
C14 C15 C16 Fe1 59.05(16) . .
C14 C15 C16 C12 -0.6(3) . .
C16 C12 C13 Fe1 59.98(17) . .
C16 C12 C13 C14 -0.2(3) . .
F1 C1 C2 F2 -0.1(3) . .
F1 C1 C2 C3 179.41(19) . .
F2 C2 C3 F3 -0.1(3) . .
F2 C2 C3 C1 179.49(19) . 2_575
C1 C2 C3 F3 -179.6(2) . .
C1 C2 C3 C1 0.0(4) . 2_575
C3 C1 C2 F2 -179.49(19) 2_575 .
C3 C1 C2 C3 0.0(4) 2_575 .
F4 C4 C5 F5 0.6(3) . .
F4 C4 C5 C6 179.9(2) . .
F5 C5 C6 F6 0.3(3) . .
F5 C5 C6 C4 179.65(19) . 2_656
C4 C5 C6 F6 -179.08(19) . .
C4 C5 C6 C4 0.3(4) . 2_656
C6 C4 C5 F5 -179.7(2) 2_656 .
C6 C4 C5 C6 -0.3(4) 2_656 .
loop_
_exptl_oxdiff_crystal_face_indexfrac_h
_exptl_oxdiff_crystal_face_indexfrac_k
_exptl_oxdiff_crystal_face_indexfrac_l
_exptl_oxdiff_crystal_face_x
_exptl_oxdiff_crystal_face_y
_exptl_oxdiff_crystal_face_z
-1.0027 -10.9936 6.0065 0.0795 -0.3797 -0.9537
-9.1266 -6.1864 -1.3013 0.2643 -0.9510 -0.1605
-2.9187 11.4697 -2.1358 0.3417 0.0968 0.9348
0.6256 -7.2615 -14.4883 -0.9631 -0.2679 0.0265
1.0328 12.0105 -2.4477 0.1275 0.4372 0.8903
0.5816 -10.2534 6.9008 0.0594 -0.2204 -0.9736
-0.6750 7.4261 14.3598 0.9634 0.2680 -0.0092
1.0744 10.5173 -6.1149 -0.1012 0.3703 0.9234
8.8063 6.7529 0.7539 -0.2606 0.9383 0.2273
10.0904 0.9395 5.2168 -0.2500 0.8957 -0.3677
4.2342 -5.0148 -12.4294 -0.9935 0.1123 0.0188
0.2239 12.8887 2.9492 0.4702 0.4335 0.7688
-3.9149 -8.9414 -13.7526 -0.7248 -0.6889 -0.0090
4.1576 7.3950 14.8670 0.7292 0.6690 -0.1442
3.0581 10.7085 11.8416 0.7181 0.6597 0.2215
1.0259 0.9181 16.1534 0.7969 0.2207 -0.5623
7.4508 -1.7353 -8.1416 -0.8620 0.5068 0.0082
-2.0295 -8.4404 -14.5143 -0.8522 -0.5232 0.0092
-10.1260 -2.1701 -4.4494 0.2596 -0.9313 0.2556
