#------------------------------------------------------------------------------
#$Date: 2019-11-26 07:05:07 +0200 (Tue, 26 Nov 2019) $
#$Revision: 242905 $
#$URL: file:///home/coder/svn-repositories/cod/cif/4/13/30/4133058.cif $
#------------------------------------------------------------------------------
#
# This file is available in the Crystallography Open Database (COD),
# http://www.crystallography.net/
#
# All data on this site have been placed in the public domain by the
# contributors.
#
data_4133058
loop_
_publ_author_name
'Hua, Xiu-Ni'
'Liao, Wei-Qiang'
'Tang, Yuan-Yuan'
'Li, Peng-Fei'
'Shi, Ping-Ping'
'Zhao, Dewei'
'Xiong, Ren-Gen'
_publ_section_title
;
 A Room-Temperature Hybrid Lead Iodide Perovskite Ferroelectric.
;
_journal_issue                   38
_journal_name_full               'Journal of the American Chemical Society'
_journal_page_first              12296
_journal_page_last               12302
_journal_paper_doi               10.1021/jacs.8b08286
_journal_volume                  140
_journal_year                    2018
_chemical_formula_moiety         '[(ClCH2)(CH3)3N)], PbI3'
_chemical_formula_sum            'C4 H11 Cl I3 N Pb'
_chemical_formula_weight         696.48
_space_group_crystal_system      hexagonal
_space_group_IT_number           194
_space_group_name_Hall           '-P 6c 2c'
_space_group_name_H-M_alt        'P 63/m m c'
_atom_sites_solution_hydrogens   difmap
_audit_creation_method           SHELXL-2014/7
_cell_angle_alpha                90
_cell_angle_beta                 90
_cell_angle_gamma                120
_cell_formula_units_Z            2
_cell_length_a                   10.0295(4)
_cell_length_b                   10.0295(4)
_cell_length_c                   8.0329(4)
_cell_measurement_reflns_used    1475
_cell_measurement_temperature    298(2)
_cell_measurement_theta_max      31.4610
_cell_measurement_theta_min      3.4290
_cell_volume                     699.78(5)
_computing_structure_refinement  'SHELXL-2014/7 (Sheldrick, 2014)'
_diffrn_ambient_temperature      298(2)
_diffrn_measured_fraction_theta_full 1.000
_diffrn_measured_fraction_theta_max 0.901
_diffrn_measurement_device_type  'XtaLAB Synergy R, DW system, HyPix'
_diffrn_radiation_type           MoK\a
_diffrn_radiation_wavelength     0.71073
_diffrn_reflns_av_R_equivalents  0.0255
_diffrn_reflns_av_unetI/netI     0.0166
_diffrn_reflns_Laue_measured_fraction_full 1.000
_diffrn_reflns_Laue_measured_fraction_max 0.901
_diffrn_reflns_limit_h_max       10
_diffrn_reflns_limit_h_min       -13
_diffrn_reflns_limit_k_max       12
_diffrn_reflns_limit_k_min       -13
_diffrn_reflns_limit_l_max       10
_diffrn_reflns_limit_l_min       -11
_diffrn_reflns_number            3587
_diffrn_reflns_point_group_measured_fraction_full 1.000
_diffrn_reflns_point_group_measured_fraction_max 0.901
_diffrn_reflns_theta_full        25.242
_diffrn_reflns_theta_max         31.433
_diffrn_reflns_theta_min         2.345
_exptl_absorpt_coefficient_mu    18.817
_exptl_absorpt_correction_T_max  0.016
_exptl_absorpt_correction_T_min  0.015
_exptl_absorpt_correction_type   multi-scan
_exptl_crystal_colour            'light yellow'
_exptl_crystal_density_diffrn    3.305
_exptl_crystal_description       block
_exptl_crystal_F_000             600
_exptl_crystal_size_max          0.24
_exptl_crystal_size_mid          0.22
_exptl_crystal_size_min          0.22
_refine_diff_density_max         1.070
_refine_diff_density_min         -0.976
_refine_diff_density_rms         0.112
_refine_ls_extinction_method     none
_refine_ls_goodness_of_fit_ref   1.096
_refine_ls_hydrogen_treatment    constr
_refine_ls_matrix_type           full
_refine_ls_number_parameters     18
_refine_ls_number_reflns         429
_refine_ls_number_restraints     17
_refine_ls_restrained_S_all      1.134
_refine_ls_R_factor_all          0.0541
_refine_ls_R_factor_gt           0.0329
_refine_ls_shift/su_max          0.000
_refine_ls_shift/su_mean         0.000
_refine_ls_structure_factor_coef Fsqd
_refine_ls_weighting_details
'w=1/[\s^2^(Fo^2^)+(0.0727P)^2^+0.3205P] where P=(Fo^2^+2Fc^2^)/3'
_refine_ls_weighting_scheme      calc
_refine_ls_wR_factor_gt          0.1158
_refine_ls_wR_factor_ref         0.1270
_reflns_Friedel_coverage         0.000
_reflns_number_gt                290
_reflns_number_total             429
_reflns_threshold_expression     'I > 2\s(I)'
_cod_data_source_file            ja8b08286_si_004.cif
_cod_data_source_block           1
_cod_depositor_comments
;
The following automatic conversions were performed:

data item '_exptl_absorpt_correction_type' value 'Multi-scan' was
changed to 'multi-scan' in accordance with the
/home/saulius/struct/COD-crude-data/automatic-downloads/DataCite-retrospective/ACS/depositions/lib/dictionaries/cif_core.dic
dictionary named 'cif_core.dic' version 2.4.2 last updated on
2011-04-26.

Automatic conversion script
Id: cif_fix_values 6909 2019-04-08 15:41:33Z antanas 
;
_cod_original_cell_volume        699.78(7)
_cod_database_code               4133058
_shelx_shelxl_version_number     2014/7
_shelx_space_group_comment
;
The symmetry employed for this shelxl refinement is uniquely defined
by the following loop, which should always be used as a source of
symmetry information in preference to the above space-group names.
They are only intended as comments.
;
_shelx_res_file
;

    1.res created by SHELXL-2014/7


TITL 1 in P6(3)/mmc
CELL 0.71073  10.0295  10.0295   8.0329  90.000  90.000 120.000
ZERR    2.00   0.0004   0.0004   0.0004   0.000   0.000   0.000
LATT 1
SYMM -Y, X-Y, Z
SYMM -X+Y, -X, Z
SYMM -X, -Y, 0.5+Z
SYMM Y, -X+Y, 0.5+Z
SYMM X-Y, X, 0.5+Z
SYMM Y, X, -Z
SYMM X-Y, -Y, -Z
SYMM -X, -X+Y, -Z
SYMM -Y, -X, 0.5-Z
SYMM -X+Y, Y, 0.5-Z
SYMM X, X-Y, 0.5-Z
SFAC C  H  N  Cl I  Pb
UNIT 8 22 2 2 6 2
L.S. 8
ACTA
BOND
FMAP 2
PLAN 20
SIMU 0.04 N1 C1 Cl1
DELU 0.04 N1 C1 Cl1
DFIX 1.75 0.02 Cl1 C1
DFIX 1.55 0.02 N1 C1
SIMU 0.02 N1 C1
DELU 0.02 N1 C1
TEMP 25
WGHT    0.072700    0.320500
FVAR       0.13175
N1    3    0.666667    0.333333    0.750000    10.08333    0.17554    0.17554 =
         0.20313    0.00000    0.00000    0.08777
PB1   6    1.000000    0.000000    0.000000    10.08333    0.09728    0.09728 =
         0.04988    0.00000    0.00000    0.04864
I1    5    0.855022    0.144978    0.250000    10.25000    0.15834    0.15834 =
         0.09957    0.00000    0.00000    0.11240
CL1   4    0.666667    0.333333    1.007509    10.08333    0.35424    0.35424 =
         0.23502    0.00000    0.00000    0.17712
C1    1    0.816558    0.408279    0.856480    10.33333    0.22711    0.24128 =
         0.23194   -0.00997   -0.01994    0.11356
AFIX   3
H1A   2    0.877858    0.516420    0.851260    10.66667   -1.20000
H1B   2    0.877858    0.357340    0.851260    10.25000   -1.20000

AFIX   0
HKLF 4

REM  1 in P6(3)/mmc
REM R1 =  0.0329 for     290 Fo > 4sig(Fo)  and  0.0541 for all     429 data
REM     18 parameters refined using     17 restraints

END

WGHT      0.0594      0.9615

REM Highest difference peak  1.070,  deepest hole -0.976,  1-sigma level  0.112
Q1    1   0.7581  0.2419  0.7500  10.25000  0.05    0.50
Q2    1   0.8384  0.3186  0.7500  10.50000  0.05    0.50
Q3    1   0.9663  0.4832  0.7500  10.25000  0.05    0.47
Q4    1   1.0000  0.0000  0.1492  10.16667  0.05    0.35
Q5    1   0.6667  0.3333  1.2500  10.08333  0.05    0.33
Q6    1   0.8177  0.1823  0.2500  10.25000  0.05    0.30
Q7    1   0.8328  0.0555  0.2500  10.50000  0.05    0.29
Q8    1   1.0778  0.6176  0.7500  10.50000  0.05    0.28
Q9    1   0.9800  0.3201  0.7500  10.50000  0.05    0.27
Q10   1   0.5342  0.3187  0.9980  11.00000  0.05    0.25
Q11   1   1.1390  0.5695  0.7500  10.25000  0.05    0.22
Q12   1   1.0000  0.0000  0.2500  10.08333  0.05    0.22
Q13   1   0.7387  0.2613  0.8964  10.50000  0.05    0.20
Q14   1   0.7830  0.2170  0.8414  10.50000  0.05    0.19
Q15   1   0.7670  0.2330  0.9600  10.50000  0.05    0.18
Q16   1   0.8850  0.2547  0.9961  11.00000  0.05    0.17
Q17   1   1.0537  0.1957  0.2500  10.50000  0.05    0.17
Q18   1   1.0396  0.0792  0.2121  10.50000  0.05    0.16
Q19   1   0.7066  0.4133  1.2500  10.25000  0.05    0.16
Q20   1   0.8809  0.1191  0.1564  10.50000  0.05    0.14
;
_shelx_res_checksum              69360
_shelx_hkl_file
;
   0   0  -1   -0.03    0.03
   0   0   1    0.24    0.04
   0   0  -2  246.71    5.66
   0   0  -2  256.76    5.70
   0   0  -3    0.50    0.11
   0   0  -3    0.03    0.10
   0   0  -4 1072.39   23.97
   0   0  -5    0.26    0.18
   0   0  -6    0.89    0.26
   0   0  -7    0.02    0.28
   0   0  -8   64.23    1.87
   0   0  -9    0.25    0.38
   0   0 -10    2.38    0.55
  -1   0   0  698.32   15.54
   1  -1   1    6.64    0.23
   1   0  -1    6.06    0.17
   0   1  -1    6.05    0.22
  -1   0  -1    5.69    0.17
   1   0  -2   57.01    1.29
   0   1  -2   60.02    1.38
   1   0   2   55.99    1.29
   1   0   2   55.78    1.34
  -1   0  -2   55.43    1.29
   0   1   2   58.33    1.40
  -1   0   2   56.76    1.29
   1  -1  -2   57.62    1.40
   1  -1   2   55.74    1.39
   0  -1  -2   54.97    1.29
  -1   0   3   19.59    0.47
   0   1  -3   20.33    0.63
   1   0  -3   20.35    0.64
  -1   1  -3   19.91    0.62
   0   1  -3   21.45    0.63
   0   1   3   19.26    0.63
   1   0   3   20.37    0.57
  -1   0  -3   19.39    0.47
   0   1  -3   19.20    0.47
   0   1   3   19.23    0.47
   1  -1   3   20.37    0.61
  -1   0  -3   20.91    0.58
   0  -1  -3   19.50    0.53
   1  -1  -3   21.09    0.65
   0   1  -4  307.43    6.90
  -1   1  -4  300.45    6.91
  -1   0  -4  328.08    7.08
   0  -1  -4  318.75    7.03
   0   1   4  301.67    7.17
   0   1  -4  320.69    7.15
   1   0  -4  319.25    7.19
   1  -1   4  333.43    7.16
   1  -1  -4  314.75    7.18
  -1   1  -4  322.98    7.14
   0   1  -4  331.27    7.16
   1  -1  -5    5.13    0.32
   0   1  -5    6.68    0.41
   1   0  -5    6.49    0.38
   1   0  -5    6.31    0.40
   1  -1  -5    6.13    0.40
  -1   0  -5    6.82    0.35
   0  -1  -5    6.08    0.32
   1  -1   5    6.77    0.39
  -1   1  -5    5.68    0.38
   1   0  -6   26.82    0.95
   1  -1  -6   27.21    0.91
   0   1  -6   28.67    1.00
  -1   1  -6   28.58    0.95
   1  -1   6   27.57    0.95
   0  -1  -6   27.96    0.86
   1   0  -6   27.13    1.00
  -1   0  -6   27.87    0.90
   0  -1  -7    0.54    0.26
   1   0   7    0.42    0.27
   0   1  -7    0.62    0.33
  -1   1  -7    1.08    0.33
   1  -1  -7    1.03    0.30
   1   0  -7    0.56    0.32
  -1   0  -7    1.06    0.30
   1  -1   7    0.72    0.28
   1   0  -8   28.38    1.12
   1   0   8   28.32    1.10
  -1   1  -8   26.77    1.06
   1  -1  -8   27.64    1.02
   0  -1  -8   26.35    0.95
   0   1  -8   28.73    1.12
  -1   1  -9    1.10    0.43
   1  -1  -9    0.06    0.40
   0   1  -9    0.64    0.46
   0  -1  -9    0.34    0.36
   1   0  -9    0.29    0.45
   0   1 -10    4.38    0.69
   1  -1 -10    3.75    0.57
   1   0 -10    3.67    0.65
  -2   1   0  185.44    4.18
   1   1   0  198.89    4.17
  -1  -1   0  188.94    4.25
   1  -2   1   -0.14    0.10
   1   1  -1    0.03    0.05
  -1  -1  -1   -0.01    0.04
  -1   2  -1   -0.01    0.09
   1  -2   1    0.03    0.03
  -2   1  -1    0.12    0.06
  -1   2   1   -0.02    0.05
   1  -2   2  616.47   13.74
  -2   1  -2  610.86   13.63
  -1   2   2  618.05   13.71
  -2   1   2  609.79   13.63
   1  -2   2  601.05   13.66
   1   1   2  617.11   13.62
   1   1  -2  610.48   13.62
   1   1   3    0.00    0.05
   1   1   3    0.10    0.06
   1   1  -3    0.00    0.05
  -2   1  -3    0.08    0.05
  -1   2   3    0.06    0.11
   1  -2   3   -0.03    0.08
   1  -2   3    0.01    0.14
  -2   1   3    0.03    0.05
   2  -1   3    0.02    0.12
  -1   2  -4   60.65    1.58
   2  -1   4   57.15    1.49
   1   1  -4   62.26    1.57
  -2   1  -4   54.82    1.35
  -1   2   4   55.63    1.54
   1   1   4   56.94    1.34
   1   1   4   58.41    1.58
   2  -1  -4   57.73    1.58
  -2   1   4   58.82    1.33
   1  -2   4   59.24    1.51
   1   1  -4   56.55    1.34
   1   1  -4   60.64    1.57
   2  -1  -5   -0.05    0.21
  -1   2  -5   -0.05    0.23
   1   1   5   -0.07    0.19
   2  -1   5   -0.11    0.19
  -1   2   5    0.05    0.17
   1   1  -5   -0.02    0.22
   1   1   5    0.04    0.06
  -2   1   5   -0.01    0.05
  -2   1  -5    0.09    0.06
   1  -2  -5    0.05    0.14
   1   1  -5    0.05    0.21
   2  -1   5    0.11    0.18
   1   1  -5   -0.02    0.06
   1  -2   5   -0.15    0.17
   2  -1   6   93.11    2.54
   1   1  -6   96.70    2.55
   1  -2  -6   92.69    2.34
   1   1  -6   97.53    2.56
   2  -1  -6   94.15    2.57
  -1   2  -6  100.72    2.56
   1   1  -7   -0.03    0.32
   2  -1   7    0.25    0.26
   2  -1  -7    0.07    0.31
  -1   2  -7    0.38    0.35
   1  -2  -7   -0.18    0.25
   2  -1  -7    0.25    0.29
   2  -1  -8   11.73    0.69
   1  -2  -8   11.00    0.57
   2  -1   8   12.65    0.71
  -1   2  -8   12.16    0.75
   1   1  -8   12.89    0.79
   2  -1   9    0.39    0.39
   2  -1  -9   -0.40    0.46
   1  -2  -9    0.09    0.32
  -1   2  -9    0.12    0.44
   1   1  -9   -0.25    0.47
   2  -1 -10    6.12    0.71
   1   1 -10    6.01    0.80
   1   1 -11    1.03    0.68
  -2   0   0    5.24    0.18
   2   0   0    4.71    0.18
   0   2   0    4.99    0.20
   0   2  -1  674.25   15.40
   2   0  -1  687.18   15.32
   0   2   1  703.87   15.30
   0   2  -1  685.27   15.43
  -2   0  -1  677.01   15.33
   2  -2   2  711.69   16.03
  -2   0   2  727.04   15.90
   0   2  -2  751.70   16.03
   0   2  -2  716.78   15.94
   2   0   2  690.06   15.90
   2   0  -2  706.07   15.90
  -2   0  -2  717.62   15.90
   2   0   3  300.50    6.79
   0   2   3  303.00    6.95
  -2   0  -3  300.96    6.80
   2  -2   3  312.25    6.96
  -2   0   3  301.08    6.79
   0   2  -3  311.02    6.91
   2   0  -3  302.99    6.80
   2   0   3  302.79    6.87
  -2   0  -4   14.39    0.40
   0   2   4   14.67    0.58
   0   2  -4   14.25    0.55
   2  -2   4   14.76    0.55
   0   2  -4   15.28    0.41
   2  -2   4   14.35    0.56
   0   2   4   15.05    0.40
  -2   0   4   14.15    0.39
   2   0   4   15.03    0.50
  -2   2  -4   15.68    0.60
   2   0  -4   15.10    0.60
   0  -2  -4   13.77    0.40
   0   2  -4   16.36    0.62
   2  -2   5   74.10    1.94
  -2   2   5   73.42    1.70
   0   2  -5   75.36    2.03
   2   0   5   75.31    1.85
   0   2  -5   71.91    1.96
  -2   2  -5   77.18    2.01
   0   2   5   74.50    1.70
   2   0  -5   74.31    2.02
   0  -2  -5   71.44    1.77
  -2   2  -5   75.74    1.73
   0   2  -5   71.84    1.72
   0   2   5   75.82    2.02
   2  -2  -5   72.75    2.02
   2  -2   5   79.37    1.98
   2  -2  -6  110.01    2.89
   2   0  -6  110.84    2.91
   0   2   6  106.59    2.86
   0   2  -6  118.18    2.93
   0  -2  -6  109.25    2.61
  -2   2  -6  110.08    2.48
  -2   2  -6  116.63    2.86
   2  -2   6  109.32    2.81
   2   0  -6  112.50    2.85
   0   2  -6  108.01    2.47
   2  -2  -7   14.93    0.66
   0  -2  -7   15.17    0.55
   2   0  -7   13.78    0.75
   2   0  -7   14.94    0.78
   0   2  -7   14.94    0.79
  -2   2  -7   16.42    0.77
   2  -2   7   15.88    0.71
   0   2   7   14.32    0.72
   2   0   7   12.70    0.72
   2   0   8    8.20    0.62
   2  -2   8    7.61    0.56
   0   2  -8    8.83    0.69
   2   0  -8    8.63    0.67
   2  -2  -8    7.56    0.54
   2   0  -9    1.40    0.55
   2  -2  -9    0.80    0.41
   2   0   9    1.42    0.43
   0   2  -9    1.57    0.54
   2   0 -10    6.31    0.80
   2  -2 -10    5.40    0.61
   0   2 -10    4.56    0.78
   0   2 -11    0.25    0.70
   2   0 -11   -0.24    0.68
   3  -1   0   97.43    2.25
  -3   1   0   97.31    2.26
   1   2   0  100.64    2.25
   1  -3   0   92.36    2.28
   2  -3   0   94.18    2.21
  -3   2   0   96.62    2.22
  -3   1   0   95.01    2.29
  -2  -1   0   98.58    2.24
   1  -3   0   93.72    2.28
  -1   3   0   96.89    2.18
   2   1   0   98.40    2.25
  -2  -1   0   94.20    2.35
  -1   3   0   95.41    2.30
   1   2  -1  141.43    3.10
   1   2  -1  136.78    3.24
  -2  -1  -1  132.61    3.09
   3  -1  -1  132.20    3.17
  -1   3   1  129.42    3.09
   2  -3  -1  135.27    3.10
  -1   3  -1  131.97    3.18
   1  -3  -1  131.77    3.10
  -1   3  -1  137.31    3.19
  -3   1  -1  136.28    3.10
   2   1  -1  136.76    3.09
   2  -3  -2  307.22    7.09
  -3   1   2  312.52    7.00
   1  -3   2  315.31    7.13
   2  -3   2  311.26    7.14
   2   1  -2  309.04    7.00
  -2  -1   2  314.52    7.00
   1   2   2  311.15    7.00
  -1   3  -2  302.95    7.14
  -1   3   2  310.48    7.07
   1   2  -2  311.61    7.01
   2   1   2  311.03    7.00
  -3   1  -2  310.19    7.01
  -2  -1  -2  312.87    7.00
   2  -3   3   56.74    1.52
   1   2   3   55.05    1.34
   2   1   3   56.75    1.35
   2   1  -3   56.89    1.35
  -2  -1   3   55.56    1.34
   1  -3   3   56.96    1.51
   3  -2   3   56.32    1.51
  -3   1  -3   56.65    1.36
   2  -3   3   57.66    1.41
  -3   1   3   55.69    1.34
   2  -3  -3   58.45    1.50
  -2  -1  -3   55.62    1.35
  -1   3   3   53.23    1.47
  -3   2   3   56.97    1.37
   1   2  -3   54.07    1.35
  -3   1   4   60.98    1.46
   2   1   4   61.52    1.46
  -3   2  -4   61.44    1.50
  -1   3   4   60.71    1.66
  -1   3  -4   62.60    1.72
   2   1   4   62.72    1.50
   1   2  -4   62.63    1.65
  -3   2   4   60.57    1.47
   1   2  -4   59.89    1.47
   2  -3   4   68.43    1.61
   3  -1   4   61.56    1.62
   2  -3   4   58.54    1.67
  -2   3  -4   65.06    1.72
   3  -2   4   60.14    1.65
  -3   1  -4   61.94    1.48
   2   1  -4   61.01    1.47
   1   2   4   60.09    1.46
   3  -1   5   19.03    0.69
   3  -2   5   20.61    0.75
   3  -2  -5   18.10    0.76
   1   2  -5   18.44    0.75
   1   2  -5   19.58    0.79
  -1   3   5   18.32    0.72
   2   1   5   19.54    0.53
   1   2   5   19.32    0.51
  -3   2   5   18.42    0.51
  -3   2  -5   19.45    0.54
  -3   1   5   18.83    0.51
  -1   3  -5   19.99    0.81
  -3   1  -5   19.00    0.53
   3  -2   5   19.26    0.72
   2  -3   5   19.12    0.73
   2   1  -5   18.79    0.53
   2   1  -5   18.70    0.76
   2  -3   5   19.94    0.68
   1  -3  -5   16.85    0.52
  -2   3  -5   19.83    0.79
   1   2   5   17.72    0.75
   3  -1  -5   16.97    0.75
   1   2  -5   18.85    0.53
  -3   1   6   59.12    1.37
  -1   3   6   58.45    1.37
  -1   3  -6   57.97    1.40
   1   2  -6   57.26    1.71
   2   1  -6   57.60    1.74
   1  -3  -6   54.65    1.45
   3  -2   6   60.92    1.72
   2  -3   6   57.93    1.63
   1   2   6   59.99    1.38
  -3   2   6   58.42    1.37
   3  -2  -6   60.43    1.78
   3  -1  -6   58.39    1.78
   1   2   6   57.25    1.76
   1   2  -6   59.77    1.79
  -1   3  -6   58.32    1.78
   3  -1   6   60.69    1.76
  -3   1  -6   56.90    1.40
   3  -2   6   57.15    1.65
  -1   3   6   58.07    1.72
  -2   3  -6   63.02    1.79
   1   2  -6   59.43    1.40
   3  -1   6   60.71    1.62
   2   1  -6   59.16    1.76
  -3   2  -6   57.51    1.40
  -2   3  -7    2.56    0.11
   3  -2   7    2.71    0.38
   3  -1  -7    2.20    0.44
   1   2   7    1.92    0.38
   3  -2  -7    3.17    0.47
  -2   3  -7    2.53    0.45
  -1   3  -7    2.39    0.10
   2   1  -7    2.22    0.44
   1  -3  -7    1.94    0.24
   2   1  -7    2.45    0.43
  -3   2  -7    2.33    0.11
   1   2  -7    2.43    0.45
  -1   3  -7    2.15    0.42
  -2   3  -7    2.22    0.11
   1   2  -7    2.48    0.41
   2  -3  -7    2.49    0.30
   3  -1   7    2.00    0.39
   1   2  -8   13.62    0.86
   2  -3  -8   10.63    0.56
  -1   3  -8   14.16    0.85
   3  -2   8   12.20    0.70
   1  -3  -8   10.32    0.48
   3  -1   8   12.91    0.75
  -2   3  -8   11.43    0.75
   3  -2  -8   12.25    0.72
   3  -1  -8   13.12    0.77
   2   1  -8   11.14    0.79
   1   2   8   11.37    0.73
   2  -3  -9    0.48    0.34
   3  -1   9    0.55    0.42
   2   1  -9    0.29    0.57
   3  -2   9    0.31    0.37
   3  -2  -9    0.21    0.44
   2   1   9    0.49    0.42
   3  -1  -9    0.86    0.50
   1   2  -9   -0.24    0.56
  -1   3  -9    0.72    0.54
  -1   3 -10    5.13    0.78
   2   1 -10    4.32    0.79
   2   1  10    5.16    0.66
   3  -1  10    4.84    0.65
   1   2 -10    3.14    0.77
   3  -2 -10    4.28    0.69
   3  -1 -10    4.45    0.74
   2   1 -11    0.28    0.74
   1   2 -11    0.98    0.77
  -3   0   0   48.90    1.22
   0   3   0   52.08    1.27
   3   0   0   49.18    1.22
  -3   0   0   49.95    1.33
   0   3  -1  136.55    3.31
   3   0  -1  136.31    3.17
   0   3  -1  135.70    3.25
   0   3   1  138.65    3.16
  -3   0  -1  139.45    3.18
   3  -3   2  408.82    9.29
  -3   0  -2  395.59    9.13
   3   0   2  405.06    9.12
   3   0  -2  405.93    9.13
   0   3  -2  413.75    9.27
  -3   0   2  413.47    9.12
   0   3   3   79.48    2.02
   3  -3  -3   79.31    2.04
   3  -3   3   81.40    2.07
   0   3  -3   79.19    1.96
   3   0  -3   79.01    1.90
   3   0   3   80.53    1.90
  -3   0  -3   79.35    1.90
  -3   0   3   80.43    1.89
   0   3   4   33.95    1.03
   3  -3   4   36.35    1.07
   3   0   4   34.68    0.86
   3   0   4   35.93    0.96
  -3   0  -4   36.23    0.87
   3   0  -4   35.49    0.87
   0   3   4   33.90    0.84
   0   3  -4   35.23    0.99
   0   3   5   21.54    0.59
   0   3  -5   20.61    0.77
  -3   0  -5   22.62    0.62
   3   0   5   21.96    0.72
   0   3  -5   21.32    0.61
   3  -3   5   22.42    0.83
  -3   0   5   22.41    0.60
   3  -3   5   22.24    0.78
   0   3  -5   22.25    0.88
   0   3   5   22.29    0.83
   3   0  -5   21.80    0.85
   3   0  -6   65.00    1.96
   3  -3   6   67.93    1.87
  -3   3  -6   67.63    1.63
   3  -3   6   62.69    1.88
   3   0   6   69.05    1.74
   0   3   6   67.46    1.58
   0   3  -6   67.25    1.60
  -3   3   6   65.64    1.59
   0   3   6   64.71    1.93
   0   3  -6   67.49    2.00
   0   3   7    3.25    0.41
   3   0   7    4.31    0.47
   3  -3   7    4.30    0.42
  -3   3   7    3.61    0.14
   0   3  -7    3.98    0.18
   3   0  -7    2.98    0.46
   0   3  -7    4.06    0.53
   3   0  -7    3.56    0.45
  -3   3  -7    4.10    0.19
   0   3   7    3.54    0.16
   3   0  -8    7.04    0.65
   3  -3  -8    8.02    0.56
   0   3   8    8.46    0.64
   0   3  -8    7.89    0.73
   3  -3   8    8.77    0.59
   3   0   8   10.04    0.70
   3   0   9    0.68    0.44
   0   3  -9    0.69    0.58
   3   0  -9    0.58    0.52
   3  -3  -9    0.37    0.41
   0   3 -10    4.13    0.81
   3   0 -10    3.74    0.79
   3  -3 -10    2.93    0.53
   3   0  10    3.77    0.61
   3   0 -11    0.50    0.76
   0   3 -11   -0.76    0.80
  -4   2   0  953.42   20.85
   2  -4   0  943.82   20.90
   2  -4   0  938.24   20.83
  -4   2   0  925.36   20.86
   2   2   0  919.02   20.83
  -2  -2   0  922.03   20.97
  -4   2  -1    0.03    0.09
   2   2  -1   -0.04    0.09
   4  -2  -1   -0.01    0.11
  -2   4  -1   -0.05    0.11
   2  -4  -1    0.01    0.07
   2  -4   2    9.06    0.44
   2   2  -2    9.64    0.48
  -2   4  -2    8.54    0.44
   2   2   2    9.45    0.33
   2   2  -2    8.83    0.33
   2  -4  -2    9.15    0.37
  -4   2   2    9.42    0.34
  -4   2  -2   10.11    0.37
   2  -4   3    0.13    0.09
  -4   2  -3   -0.04    0.11
  -4   2   3   -0.01    0.09
   2   2   3   -0.03    0.09
   2  -4   3    0.06    0.17
   2   2  -3    0.01    0.09
   2  -4   4  317.57    7.27
   2   2   4  310.03    7.03
  -4   2  -4  318.96    7.07
   2   2  -4  317.11    7.04
   4  -2   4  319.33    7.25
   2   2   4  304.23    6.95
  -4   2   4  310.58    7.04
   2   2  -5    0.14    0.26
  -4   2   5    0.03    0.10
   2   2   5    0.03    0.11
   4  -2  -5    0.03    0.25
  -4   2  -5   -0.01    0.12
   2   2  -5    0.13    0.25
   4  -2   5    0.07    0.27
   2  -4   5   -0.05    0.26
   2   2  -5    0.08    0.13
  -2   4  -5    0.03    0.29
   2   2   6    3.46    0.42
   2   2  -6    2.99    0.42
   4  -2   6    2.56    0.37
   4  -2  -6    2.52    0.40
   2   2  -6    3.24    0.21
   2   2  -6    2.46    0.44
   2  -4  -6    2.39    0.22
  -4   2   6    3.07    0.19
  -4   2  -6    3.00    0.21
  -2   4  -6    2.56    0.46
   2   2   6    2.92    0.20
  -2   4   7    0.12    0.10
   2   2   7    0.31    0.31
   2  -4  -7   -0.15    0.19
   2   2  -7    0.08    0.15
  -4   2  -7    0.11    0.13
   2   2  -7   -0.26    0.37
  -4   2   7   -0.03    0.10
  -2   4  -7   -0.04    0.40
   4  -2   7    0.17    0.33
   4  -2   7   -0.16    0.30
   2   2  -7    0.27    0.39
  -2   4  -8   24.61    1.13
   2   2  -8   23.34    1.12
   4  -2   8   24.81    1.07
   2  -4  -8   21.00    0.71
   2   2   8   24.38    1.10
   4  -2   9    0.43    0.46
   2   2  -9    0.72    0.58
   4  -2  -9   -0.60    0.50
   2  -4  -9    0.08    0.25
   2   2 -10    2.12    0.77
   4  -2 -10    1.68    0.65
   4  -2  10    2.12    0.56
   2   2 -11    0.06    0.79
   1  -4   0  329.08    7.45
   4  -1   0  318.83    7.39
  -1   4   0  325.83    7.45
   1  -4   0  332.29    7.44
   3   1   0  330.43    7.38
  -4   1   0  324.96    7.39
  -3  -1   0  328.74    7.55
  -3  -1   0  326.79    7.39
  -4   1   0  325.62    7.48
   1  -4  -1    1.58    0.15
   4  -1  -1    1.45    0.19
   4  -1  -1    1.14    0.13
  -3  -1  -1    1.17    0.13
   1   3   1    1.26    0.12
  -1   4   1    1.08    0.11
  -4   1  -1    1.41    0.13
   3   1  -1    1.43    0.14
   1   3  -1    1.26    0.23
  -1   4  -1    1.51    0.20
   3  -4  -2   48.48    1.30
  -1   4  -2   49.88    1.19
   4  -1  -2   49.01    1.26
  -3  -1   2   49.33    1.24
   3   1  -2   50.61    1.25
   3   1   2   50.68    1.24
   1   3  -2   51.38    1.27
   1   3  -2   47.02    1.35
  -4   1  -2   52.01    1.27
  -1   4  -2   53.25    1.42
   1   3   2   49.72    1.26
  -4   1   2   49.84    1.25
  -1   4   2   48.97    1.30
   1   3  -2   48.91    1.44
   3  -4   2   49.70    1.40
  -3  -1  -2   51.31    1.26
   1  -4  -2   48.29    1.22
   1   3   2   49.48    1.19
   1   3  -3    0.20    0.10
   4  -3   3    0.59    0.24
  -1   4  -3    0.23    0.20
   1   3  -3    0.29    0.18
  -4   1   3    0.58    0.11
   3   1  -3    0.53    0.12
   1   3   3    0.39    0.11
  -3  -1  -3    0.36    0.11
   1  -4  -3    0.36    0.08
  -4   1  -3    0.48    0.12
  -3  -1   3    0.36    0.10
  -1   4  -3    0.17    0.10
   3   1   3    0.62    0.12
   1  -4   3    0.53    0.19
  -1   4   3    0.68    0.17
   3  -4   3    0.37    0.24
  -4   1  -4  117.93    2.81
  -4   1   4  118.90    2.78
   3   1  -4  119.80    2.80
   3  -4   4  117.90    3.02
  -3  -1   4  117.39    2.78
  -3  -1  -4  122.47    2.81
  -1   4   4  115.50    2.96
   1   3   4  118.48    2.78
   3  -4  -4  122.06    2.99
   1   3  -4  121.38    2.96
   4  -3   4  119.32    3.01
   3  -4   4  119.73    2.87
   3   1   4  118.53    2.83
  -4   3   4  120.44    2.82
   1   3  -4  118.03    2.79
   4  -1   4  117.30    2.94
   3   1   4  120.13    2.79
   3  -4  -5    0.40    0.27
  -4   1   5    0.32    0.12
  -4   3   5    0.50    0.14
   1   3  -5    0.66    0.26
   1   3   5    0.33    0.13
   3  -4   5    1.25    0.33
  -4   3  -5    0.38    0.15
  -1   4   5    0.40    0.22
  -4   1  -5    0.38    0.13
   1   3  -5    0.50    0.29
   4  -3   5    0.54    0.31
   3   1   5    0.44    0.17
   1   3  -5    0.33    0.14
   3   1  -5    0.39    0.14
  -1   4  -5    0.47    0.32
   4  -1   5    0.63    0.26
   3  -4   5    1.17    0.21
   1   3   5    0.64    0.25
   3   1   5    0.41    0.14
  -1   4   6   19.04    0.55
  -4   3   6   17.80    0.54
   3   1  -6   18.64    0.87
   3  -4   6   19.50    0.73
   4  -1   6   19.87    0.74
   1   3   6   17.57    0.82
   1   3  -6   19.79    0.82
   1   3  -6   18.50    0.87
  -4   1   6   18.41    0.54
   3  -4   6   19.08    0.82
  -1   4  -6   20.95    0.93
  -4   1  -6   18.72    0.57
  -4   3  -6   18.24    0.59
   3  -4  -6   18.04    0.83
  -1   4   6   18.80    0.81
   4  -3   6   18.26    0.79
   1   3   6   18.61    0.54
   3   1  -6   18.60    0.59
   4  -3   6   18.75    0.81
   4  -1  -6   17.25    0.83
   1   3  -6   19.11    0.57
  -3   4   7    0.11    0.12
   4  -1   7   -0.23    0.32
   3   1  -7    0.32    0.35
   3   1  -7    0.23    0.37
   1   3  -7   -0.20    0.39
   1   3   7   -0.02    0.12
   4  -3   7    0.13    0.29
  -1   4  -7    0.07    0.13
   1   3  -7    0.03    0.34
  -4   3   7    0.14    0.11
   3  -4   7   -0.15    0.27
  -4   3  -7    0.07    0.14
   4  -3   7    0.56    0.35
  -1   4  -7    0.08    0.39
   4  -1   7    0.27    0.29
  -1   4   7    0.24    0.11
   1   3  -7    0.19    0.14
  -3   4  -7    0.09    0.15
   1   3   7    0.26    0.34
  -1   4  -8   13.25    0.91
   4  -1   8   13.45    0.80
   3  -4  -8   12.36    0.61
   4  -3   8   14.69    0.79
   3   1  -8   14.82    0.88
  -4   3  -8   13.04    0.36
   1   3   8   12.47    0.77
  -3   4  -8   12.65    0.36
   1   3  -8   13.34    0.92
   4  -1  -9    0.47    0.52
   1   3   9    0.50    0.41
   4  -1   9   -0.14    0.44
   1   3  -9    0.21    0.57
  -1   4  -9    0.56    0.59
   4  -3  -9    0.43    0.49
   3  -4  -9   -0.08    0.35
   4  -3   9    0.04    0.37
   3   1  -9    0.62    0.56
   4  -1  10    1.89    0.57
   4  -3 -10    1.94    0.59
   4  -1 -10    3.06    0.75
  -1   4 -10    1.62    0.73
   3   1 -10    2.44    0.76
   1   3 -10    1.70    0.80
   4  -1 -11   -0.16    0.77
   3   1 -11   -0.12    0.78
   0  -4   0   25.90    0.83
   0   4   0   24.84    0.77
   4   0   0   24.20    0.73
  -4   0   0   25.85    0.84
   4   0  -1  115.65    2.84
   0   4   1  121.12    2.85
   0   4  -1  122.79    2.94
   4   0  -1  123.75    3.00
   0   4  -1  119.77    3.01
  -4   0  -1  123.03    2.84
   4   0  -2  233.20    5.31
  -4   0   2  233.82    5.30
   4  -4   2  229.77    5.48
   4   0   2  226.68    5.30
   0   4  -2  235.15    5.45
  -4   0  -2  234.98    5.31
   0   4  -2  229.15    5.49
   4   0  -2  230.48    5.49
   4   0  -3   70.15    1.76
   0   4  -3   66.15    1.91
   4  -4   3   75.29    1.97
   4   0   3   71.74    1.75
  -4   0   3   73.51    1.75
  -4   0  -3   71.86    1.76
   0   4  -3   69.42    1.78
   0   4   3   73.35    1.87
   0   4   4   21.31    0.78
   4   0  -4   22.41    0.67
  -4   0   4   22.19    0.64
  -4   0  -4   21.80    0.66
   0   4  -4   22.41    0.73
   4  -4   4   20.79    0.83
   4   0   4   21.49    0.65
   4  -4  -4   22.01    0.83
   4  -4   5   17.93    0.68
   0   4   5   17.16    0.55
   0   4   5   16.22    0.72
   4  -4   5   16.38    0.78
   0   4  -5   18.71    0.70
   0   4  -5   18.35    0.58
  -4   0   5   18.44    0.55
   4  -4  -5   19.12    0.79
   4   0   5   18.66    0.67
  -4   0  -5   17.09    0.56
   0   4  -6   40.34    1.30
  -4   4   6   43.74    1.13
   4  -4  -6   42.88    1.44
   4  -4   6   41.25    1.31
   0   4   6   43.61    1.10
  -4   0  -6   43.68    1.13
   0   4  -6   41.53    1.11
  -4   4  -6   41.66    1.16
   0   4  -6   42.34    1.48
   4   0  -6   42.39    1.45
   0   4   6   41.38    1.39
   4   0   6   42.93    1.23
   4  -4   6   42.78    1.39
   4  -4   7    3.48    0.47
   0   4  -7    3.24    0.55
  -4   4  -7    3.31    0.26
  -4   4   7    3.25    0.21
   4   0   7    3.58    0.35
   0   4   7    3.04    0.44
   0   4  -7    3.62    0.24
   4  -4   7    3.43    0.40
   4   0   7    3.77    0.52
   0   4   7    3.72    0.21
   4   0   8    6.14    0.62
   0   4   8    4.72    0.55
  -4   4   8    5.26    0.20
   0   4  -8    4.58    0.69
   0   4   8    5.67    0.22
   4  -4   8    6.19    0.53
  -4   4  -8    6.91    0.28
   4   0  -8    4.77    0.55
   4   0   9    0.25    0.48
   4  -4  -9    0.56    0.43
   0   4  -9    0.81    0.61
   4   0  -9    0.26    0.51
   4  -4   9    0.22    0.39
   0   4 -10    2.24    0.82
   4   0 -10    2.53    0.71
   4   0 -11    0.06    0.78
  -5   2   0  448.39   10.12
   2   3   0  438.81   10.09
  -3  -2   0  449.58   10.28
   2  -5   0  450.38   10.17
  -3  -2   0  454.22   10.10
   3  -5   0  437.79   10.19
  -5   2   0  447.98   10.16
   3   2   0  434.85   10.08
   3  -5   0  451.21    9.98
   2  -5   0  453.45   10.12
   3   2  -1    2.06    0.18
   5  -2  -1    2.44    0.22
  -2   5  -1    1.78    0.21
  -3  -2   1    1.43    0.26
   2  -5  -1    2.22    0.21
  -3   5  -1    2.05    0.18
  -3  -2  -1    1.95    0.17
   2   3  -1    2.19    0.29
   2  -5   1    2.15    0.26
   3  -5  -1    1.96    0.15
   2   3  -1    2.16    0.19
  -5   2  -1    2.01    0.19
  -2   5  -1    2.64    0.28
   5  -3  -1    2.25    0.18
   3   2  -2    1.65    0.17
   3   2   2    1.34    0.16
  -5   3   2    1.12    0.16
  -3  -2  -2    1.54    0.16
   2   3  -2    1.24    0.27
   5  -2  -2    0.91    0.20
   3  -5  -2    1.38    0.18
  -5   2   2    1.23    0.15
  -5   2  -2    1.53    0.17
   2   3   2    1.21    0.16
  -3  -2   2    0.98    0.13
   3  -5   2    1.51    0.09
  -2   5  -2    1.26    0.22
  -5   3  -2    1.53    0.18
  -2   5  -2    1.58    0.26
   2   3  -2    1.39    0.16
   2  -5  -2    1.97    0.19
   2  -5  -3    1.67    0.17
   3   2  -3    1.11    0.16
   3  -5   3    1.37    0.13
  -2   5   3    1.57    0.21
   2   3   3    1.72    0.17
   3  -5  -3    1.32    0.21
  -5   3   3    1.52    0.18
   3  -5   3    1.03    0.29
   2   3  -3    1.46    0.18
  -2   5  -3    1.61    0.31
   2   3  -3    1.25    0.31
  -5   2   3    1.65    0.17
   3   2   3    1.50    0.17
  -5   3  -3    1.48    0.18
   2  -5   3    1.47    0.28
  -5   2  -3    1.04    0.16
   3   2  -4  164.34    3.88
  -5   3   4  168.77    3.90
  -5   3  -4  164.31    3.92
   3  -5  -4  171.68    4.05
   2   3   4  165.74    3.87
   2   3  -4  168.14    3.89
  -5   2   4  167.73    3.87
   3   2   4  167.49    3.87
   3  -5   4  161.31    4.11
   5  -3   4  168.59    4.12
  -5   2  -4  164.17    3.90
   2  -5   4  163.83    4.09
   3  -5   4  168.79    3.88
  -5   3   5    0.13    0.14
   2   3   5    0.10    0.14
   5  -2   5    0.15    0.30
   2   3  -5    0.08    0.27
  -5   2   5    0.26    0.13
  -5   2  -5    0.05    0.15
   3   2   5    0.05    0.12
   3  -5   5    0.06    0.16
   3   2  -5    0.18    0.16
  -5   3  -5    0.03    0.16
   2   3  -5    0.07    0.15
   3   2   5   -0.02    0.14
   3  -5   5    0.29    0.32
  -2   5  -5    0.03    0.33
   5  -3   5    0.55    0.31
   3   2   6    3.56    0.24
  -2   5  -6    3.30    0.48
   3  -5   6    2.26    0.40
   3   2  -6    3.81    0.46
   5  -2   6    3.56    0.40
   2   3   6    3.49    0.44
   2   3   6    3.62    0.23
   5  -2  -6    3.69    0.45
   2   3  -6    3.06    0.44
   3   2  -6    3.28    0.43
   2   3  -6    3.30    0.48
  -5   2   6    4.01    0.23
  -5   2  -6    3.89    0.27
   5  -3   6    3.40    0.43
   2   3  -6    3.46    0.25
  -5   3   6    3.46    0.22
  -5   3  -6    3.45    0.26
   3   2  -6    3.25    0.25
   2   3   7    0.21    0.16
   5  -2   7   -0.19    0.37
   2   3   7    0.08    0.36
   3   2   7   -0.04    0.38
   3  -5  -7    0.28    0.22
   5  -2   7   -0.11    0.34
  -2   5  -7    0.52    0.44
   5  -3   7   -0.14    0.34
  -5   2   7    0.05    0.14
   2   3  -7   -0.41    0.42
   3   2  -7   -0.38    0.37
   5  -3   7    0.25    0.37
   2   3  -7    0.29    0.42
  -5   2  -7    0.24    0.17
  -2   5   7    0.21    0.15
   3   2   7   -0.03    0.17
   3   2  -7    0.04    0.40
  -5   3  -7    0.28    0.18
   3   2  -7    0.16    0.19
   2   3  -7    0.03    0.17
  -5   3   7    0.03    0.14
   2   3   8   15.79    0.92
  -3   5   8   14.86    0.45
  -2   5  -8   16.88    0.98
   3  -5  -8   11.66    0.52
   3   2   8   17.29    0.96
   5  -3   8   16.85    0.86
  -3   5   8   14.58    0.44
  -5   2  -8   13.88    0.48
   5  -2   8   15.52    0.89
   3   2  -8   14.62    0.89
   2   3  -8   15.49    0.98
  -5   3  -8   14.52    0.50
   5  -3   8   14.93    0.79
   5  -2   8   15.25    0.76
  -5   3   8   13.84    0.42
  -2   5   8   14.54    0.43
  -3   5  -8   13.32    0.51
   5  -3   9    0.35    0.43
   5  -2   9    0.05    0.46
   5  -2  -9    0.50    0.49
   2   3   9   -0.05    0.45
   3   2  -9   -0.69    0.57
   2   3  -9    1.30    0.66
   5  -3  -9    0.26    0.46
  -2   5  -9    0.16    0.60
   5  -2  10    1.30    0.59
   5  -3  10    1.28    0.54
   5  -3 -10    0.96    0.63
   3   2 -10    0.06    0.72
   2   3 -10    0.72    0.78
   5  -2 -10    1.16    0.61
  -4  -1   0   60.05    1.48
  -1   5   0   56.91    1.55
   4   1   0   57.77    1.47
  -4  -1   0   56.99    1.63
  -5   1   0   59.52    1.60
   5  -1   0   59.06    1.49
  -5   1   0   57.85    1.48
   1  -5   0   58.29    1.53
   1   4   0   54.66    1.50
   1  -5   0   60.90    1.57
   1   4   1   56.11    1.36
  -1   5  -1   52.80    1.48
  -1   5   1   50.76    1.31
   4   1  -1   53.13    1.35
   1  -5  -1   53.88    1.36
   1   4  -1   49.46    1.41
   5  -4  -1   51.84    1.26
  -1   5  -1   55.28    1.48
  -4  -1  -1   52.51    1.35
   1  -5   1   54.59    1.45
  -5   1  -1   53.23    1.37
   5  -1  -1   53.29    1.37
   1   4  -1   52.74    1.54
   4   1  -1   53.74    1.54
   5  -1  -1   51.77    1.45
  -4   5  -1   50.92    1.26
   5  -1  -2  109.42    2.74
   5  -1   2  105.91    2.58
  -1   5   2  106.84    2.60
   1   4  -2  107.32    2.80
  -1   5  -2  106.27    2.46
   4  -5   2  104.71    2.75
   1  -5  -2  106.13    2.53
   1   4  -2  109.15    2.59
   1   4   2  107.70    2.58
   5  -1  -2  105.69    2.59
  -1   5  -2  107.75    2.74
   1   4  -2  106.40    2.70
  -4  -1  -2  113.08    2.59
  -1   5  -2  106.50    2.72
  -4  -1   2  107.79    2.57
   4  -5  -2  105.37    2.62
   1   4   2  110.59    2.53
  -5   1   2  108.22    2.57
  -5   1  -2  105.29    2.58
   4   1  -2  110.53    2.58
   4   1   2  108.54    2.57
   4   1  -2  105.85    2.79
   4  -5  -3   24.90    0.84
  -1   5  -3   25.98    0.94
   4   1  -3   24.82    0.97
   1   4  -3   25.54    0.98
   1   4  -3   23.99    0.89
  -4  -1  -3   25.94    0.76
  -1   5  -3   24.13    0.70
   1   4  -3   26.84    0.78
  -4  -1   3   27.32    0.75
  -5   1   3   25.31    0.74
   4   1   3   24.93    0.74
  -5   1  -3   26.31    0.77
   5  -4   3   25.37    0.94
  -1   5   3   29.11    0.86
   4  -5   3   24.27    0.94
   4   1  -3   26.00    0.76
   1   4   3   25.74    0.76
   4  -5   4   30.49    0.91
   4  -5  -4   33.11    1.07
   4   1  -4   31.26    0.89
   1   4  -4   30.25    1.09
  -1   5   4   30.30    1.01
  -4  -1  -4   31.95    0.89
  -4  -1   4   31.83    0.88
  -1   5  -4   30.21    1.11
   1   4   4   30.74    0.87
  -5   1   4   31.06    0.87
   4  -5   4   31.40    1.12
  -5   1  -4   30.78    0.89
   5  -4   4   33.80    1.14
   1   4  -4   32.37    0.90
   4   1   4   30.45    0.88
   4   1  -5    7.87    0.37
   4  -5   5    7.93    0.41
   4  -5   5    7.33    0.54
  -5   4  -5    6.73    0.38
   5  -1   5    7.52    0.48
  -5   1  -5    6.96    0.35
  -4  -1  -5    7.58    0.36
   5  -4   5    8.15    0.57
   1   4  -5    8.21    0.36
  -1   5   5    7.60    0.48
  -5   1   5    7.88    0.34
  -5   4   5    8.36    0.38
   4  -5  -5    6.68    0.50
   1   4   5    7.75    0.34
   4   1   5    7.31    0.40
   1   4   5    7.64    0.52
   5  -4  -5    7.19    0.53
   4   1   5    8.36    0.37
   1   4  -5    7.25    0.48
   1   4  -6   24.24    0.74
  -5   4  -6   23.65    0.78
   4   1  -6   26.60    0.79
   1   4   6   24.75    1.02
  -5   1  -6   25.35    0.76
  -1   5   6   22.18    0.94
   1   4   6   24.20    0.72
   4   1   6   26.51    0.75
  -1   5  -6   23.23    1.08
   5  -4   6   23.25    0.93
   4  -5   6   24.83    1.01
   1   4  -6   24.63    1.07
  -5   4   6   24.66    0.74
   5  -1   6   23.79    0.90
   4   1   6   24.97    0.77
  -5   1   6   24.89    0.72
  -1   5   6   23.98    0.72
   1   4  -6   23.57    0.95
   4  -5  -6   23.72    1.00
   5  -4  -6   25.38    1.04
   5  -4   6   24.78    1.01
   4  -5   6   23.80    0.86
  -5   4  -7    1.59    0.24
   1   4   7    1.54    0.42
  -5   1  -7    1.24    0.21
  -5   1   7    1.66    0.19
   1   4  -7    2.05    0.55
   1   4  -7    1.80    0.22
   4  -5   7    1.81    0.32
  -1   5  -7    1.19    0.22
  -1   5   7    1.53    0.20
   5  -4   7    1.64    0.37
   5  -1   7    1.28    0.36
  -5   4   7    1.34    0.19
  -1   5   7    1.22    0.37
   1   4  -7    1.16    0.41
   5  -4   7    1.20    0.43
   1   4   7    1.36    0.19
  -1   5  -7    2.80    0.56
  -4   5  -8    4.32    0.32
   5  -4   8    6.08    0.55
   1   4   8    4.94    0.26
   5  -1   8    6.62    0.64
   1   4   8    4.96    0.58
  -1   5   8    5.07    0.25
  -4   5   8    4.37    0.25
   4   1  -8    4.54    0.57
  -5   4   8    4.98    0.24
   1   4  -8    5.47    0.72
  -5   4  -8    4.86    0.31
  -1   5  -8    4.67    0.72
   1   4   9    0.05    0.44
   5  -4   9    0.43    0.41
   5  -1  -9   -0.23    0.45
   4   1  -9    0.49    0.51
   5  -1   9    0.05    0.50
   4  -5  -9    0.13    0.35
   1   4  -9    0.45    0.63
  -1   5  -9    0.06    0.62
  -1   5 -10    2.91    0.83
   1   4 -10    1.93    0.85
   5  -4  10    1.27    0.54
   4   1 -10    1.77    0.67
   5  -1 -10    0.71    0.63
   5  -1 -11    0.11    0.70
   0   5   0    5.70    0.35
   5   0   0    7.31    0.33
  -5   0   0    6.10    0.41
  -5   0   0    6.77    0.32
   0  -5   0    6.48    0.39
  -5   0  -1   65.72    1.68
   0   5   1   67.05    1.70
   5   0  -1   66.08    1.68
   0   5  -1   66.60    1.78
   5   0  -2  162.21    3.83
   5   0   2  165.24    3.82
   0   5  -2  161.14    3.98
  -5   0  -2  165.39    3.83
  -5   0   2  162.84    3.82
   5   0  -2  158.52    4.02
   0   5  -2  162.38    4.03
   5   0  -3   31.71    1.14
   5   0   3   32.17    0.93
   0   5  -3   32.51    1.11
   0   5  -3   32.48    1.14
   5   0  -3   32.72    0.94
  -5   0   3   32.40    0.91
  -5   0  -3   32.96    0.94
   0   5   3   35.76    1.04
   5  -5   3   30.01    1.11
   0   5  -4    5.67    0.49
   5   0  -4    6.76    0.35
   5   0   4    6.40    0.34
   0   5  -4    6.95    0.37
   5  -5   4    6.08    0.51
   5  -5  -4    6.03    0.43
  -5   0   4    6.22    0.32
   0   5   4    6.65    0.43
  -5   0  -4    6.97    0.34
   0   5   5   10.75    0.59
  -5   0   5   10.95    0.43
   0   5   5   11.35    0.44
   5  -5   5   11.32    0.68
   5   0   5   10.33    0.54
  -5   0  -5   11.31    0.46
   0   5  -5   11.31    0.47
   5  -5  -5   12.10    0.65
   0   5  -5   10.74    0.51
   5   0   6   27.72    0.97
   5  -5  -6   31.59    1.17
   5  -5   6   32.55    1.05
  -5   0   6   30.74    0.86
  -5   0  -6   29.63    0.90
   0   5  -6   30.82    1.24
   0   5  -6   30.35    0.89
   0   5   6   29.46    1.12
   0   5  -6   27.88    0.99
   5  -5   6   28.10    1.13
   0   5   6   29.44    0.85
  -5   5   7    1.91    0.24
   0   5  -7    2.06    0.56
   5   0   7    2.48    0.35
   0   5  -7    1.90    0.25
  -5   5  -7    1.98    0.27
   0   5   7    1.74    0.21
   5  -5   7    2.03    0.38
   0   5   7    2.30    0.45
  -5   5   8    2.80    0.23
   5   0   8    2.65    0.54
   0   5   8    3.16    0.51
   5  -5   8    2.17    0.40
   0   5  -8    3.32    0.65
   0   5   8    2.81    0.23
  -5   5  -8    2.58    0.28
   5  -5   9    0.49    0.39
   0   5  -9    0.93    0.65
   5   0   9    0.54    0.54
   5  -5  -9   -0.33    0.44
   5   0  -9   -0.19    0.46
   5   0 -10    0.82    0.59
  -6   3   0   68.34    1.76
  -3  -3   0   63.95    1.89
   3  -6   0   69.48    1.71
   3   3   0   67.48    1.71
   3  -6   0   65.82    1.80
  -6   3  -1    0.02    0.16
  -3  -3  -1    0.18    0.20
  -6   3  -1    0.14    0.14
  -3  -3   1   -0.37    0.23
   3  -6   1   -0.15    0.21
   3   3  -1    0.05    0.16
   3  -6  -1    0.38    0.21
   6  -3  -2   53.02    1.38
  -6   3   2   50.40    1.35
  -6   3  -2   48.38    1.36
   3  -6  -2   46.73    1.33
   3   3  -2   50.30    1.32
   3   3   2   51.37    1.32
   3   3  -2   49.71    1.56
  -3   6  -2   48.15    1.37
  -6   3   3   -0.03    0.17
  -6   3  -3   -0.02    0.16
   3   3  -3   -0.30    0.32
   3   3  -3    0.01    0.16
   3   3   3    0.01    0.15
   3   3  -4   29.06    1.17
   3  -6   4   30.13    1.07
   3   3  -4   30.03    0.88
   3   3   4   29.58    0.86
  -6   3   4   29.96    0.88
  -6   3  -4   28.78    0.91
   3  -6   5    0.03    0.32
  -6   3   5   -0.04    0.17
   3   3   5    0.14    0.17
  -6   3  -5    0.03    0.18
   3   3  -5    0.11    0.18
   6  -3   5    0.51    0.36
   3   3  -6   12.50    0.73
   6  -3   6   12.49    0.72
   3   3  -6   12.71    0.75
  -6   3  -6   13.22    0.55
  -3   6  -6   13.18    0.85
  -6   3   6   13.85    0.50
   3   3  -6   13.89    0.53
   3   3   6   13.73    0.50
  -6   3  -7    0.03    0.21
   3   3  -7   -0.03    0.21
   3   3   7    0.14    0.42
   3   3   7    0.09    0.19
   3  -6  -7    0.19    0.14
   3   3  -7    0.29    0.42
   6  -3   7   -0.30    0.46
  -6   3   7    0.01    0.18
   3   3   8    3.67    0.60
   3   3   8    4.65    0.31
   6  -3   8    4.60    0.59
  -3   6   8    3.91    0.27
  -6   3   8    4.09    0.26
   6  -3   8    4.17    0.54
   3   3  -8    3.88    0.62
  -6   3  -8    3.89    0.32
   3   3   9   -0.06    0.55
   3   3  -9   -0.41    0.58
   6  -3   9   -0.24    0.48
   6  -3 -10    0.26    0.58
   2  -6   0   20.69    0.71
  -6   2   0   20.76    0.74
   2  -6   0   19.76    0.71
   4  -6   0   20.96    0.77
  -4  -2   0   20.62    0.65
   2   4   0   21.11    0.67
   4  -6   0   19.46    0.54
   4   2   0   21.21    0.66
  -4  -2   0   18.20    0.79
  -6   2   0   19.46    0.66
  -6   2  -1   20.17    0.66
  -4  -2   1   19.43    0.82
   2   4  -1   20.60    0.65
  -6   4  -1   18.48    0.57
   4  -6  -1   18.89    0.58
   2  -6  -1   18.70    0.65
  -2   6  -1   19.56    0.75
   2  -6   1   19.92    0.73
  -4  -2  -1   20.05    0.63
   2  -6  -1   19.14    0.66
   4   2  -1   20.33    0.63
   4  -6   1   20.25    0.77
   4  -6  -1   17.30    0.54
  -4  -2  -1   18.03    0.76
  -6   2  -1   18.91    0.69
  -4   6  -2   90.09    2.27
   6  -4  -2   89.42    2.25
  -2   6  -2   93.14    2.46
  -2   6   2   92.21    2.25
   4  -6  -2   96.28    2.29
   2   4   2   89.61    2.26
  -4  -2  -2   98.19    2.29
   2  -6  -2   91.50    2.26
   2  -6   2   95.52    2.42
   2   4   2   88.55    2.20
  -4  -2   2   92.35    2.26
   2   4  -2   90.48    2.27
   4   2  -2   93.49    2.27
   4   2   2   91.03    2.25
  -6   2   2   94.06    2.28
  -6   2  -2   92.80    2.29
   2   4  -2   92.01    2.52
  -2   6  -2   93.87    2.40
   6  -2  -2   96.06    2.38
   2   4  -3   10.65    0.65
  -2   6  -3   10.38    0.55
   6  -2  -3    9.60    0.54
  -4  -2  -3   11.16    0.43
   4  -6  -3   10.27    0.48
  -6   4   3   10.60    0.47
  -6   4  -3   10.15    0.47
   2   4  -3   10.35    0.55
   4  -6   3   11.61    0.36
   2  -6  -3    9.62    0.39
  -2   6  -3   10.00    0.60
   2   4  -3   10.26    0.44
   2   4   3   10.59    0.43
  -2   6   3    9.93    0.46
   4  -6   3    9.89    0.59
   2   4   3   10.14    0.35
   4   2  -3   10.83    0.44
   4   2   3   10.67    0.42
  -6   2   3   10.38    0.43
  -6   2  -3   10.24    0.44
   2   4  -4   12.64    0.74
  -2   6   4   13.07    0.58
   4  -6   4   13.18    0.68
  -6   4  -4   12.54    0.54
   4  -6  -4   14.68    0.63
   2  -6   4   12.99    0.65
   2  -6  -4   11.16    0.39
  -2   6  -4   12.82    0.74
   6  -4   4   11.56    0.68
   2   4   4   13.08    0.49
   4  -6   4   12.97    0.46
  -6   4   4   13.80    0.54
  -6   2   4   12.84    0.49
   4   2  -4   13.60    0.50
   2   4  -4   12.62    0.67
   4   2   4   13.66    0.48
   2   4  -4   13.11    0.50
  -6   2  -4   13.02    0.51
  -6   4   5    2.71    0.25
  -6   4  -5    2.48    0.27
   4  -6   5    3.01    0.25
   4   2   5    3.09    0.25
   4   2   5    2.93    0.25
   4  -6  -5    2.36    0.36
  -6   2  -5    2.44    0.26
   2   4  -5    2.69    0.26
   4  -6   5    2.40    0.43
   2   4   5    2.90    0.25
  -6   2   5    2.69    0.24
   6  -4   5    3.36    0.45
   6  -2   5    2.23    0.38
   4   2  -5    3.26    0.27
   4   2  -6   19.74    0.68
   4   2   6   21.28    0.67
   4   2   6   19.34    0.57
   2   4   6   19.98    0.97
   2   4   6   19.85    0.64
  -6   2   6   19.10    0.65
   2   4  -6   17.80    0.97
   2   4  -6   19.77    0.88
   6  -2   6   17.90    0.84
  -2   6  -6   20.38    1.03
   6  -4   6   19.83    0.92
  -6   2  -6   20.43    0.70
   2   4  -6   20.52    0.67
  -6   4   6   19.90    0.66
  -6   4  -6   18.79    0.70
   4   2  -7    0.52    0.27
   6  -4   7    0.76    0.38
   2   4  -7    0.51    0.39
   2   4  -7    0.91    0.24
   2   4   7    0.66    0.41
  -6   4  -7    0.63    0.23
   4   2  -7    0.43    0.38
  -6   2   7    0.35    0.19
  -2   6   7    0.20    0.19
  -6   2  -7    0.86    0.23
   4   2   7    0.48    0.22
   2   4  -7    1.24    0.47
   6  -2   7    0.63    0.38
  -6   4   7    0.41    0.19
   6  -4   7    0.39    0.42
  -2   6  -7    1.23    0.50
   2   4   7    0.63    0.20
   2   4   8    3.25    0.27
   6  -2   8    3.84    0.57
   2   4   8    3.85    0.61
   4   2   8    3.73    0.59
   6  -4   8    3.62    0.52
   2   4  -8    2.99    0.64
  -2   6   8    3.42    0.26
   4  -6  -8    2.77    0.34
  -6   4   8    3.47    0.26
   4   2  -8    3.10    0.52
  -2   6  -8    3.02    0.69
  -6   2   8    3.07    0.25
   2   4   9   -0.26    0.51
   4   2   9   -0.63    0.54
   6  -4   9   -0.17    0.49
   6  -2   9   -0.81    0.56
   4   2  -9   -0.18    0.51
   2   4  -9    0.06    0.62
  -2   6  -9    0.17    0.69
   6  -4  10    1.59    0.58
   6  -4 -10    2.16    0.63
   6  -2 -10    0.81    0.58
   1  -6   0   14.90    0.62
   6  -1   0   16.43    0.58
  -6   1   0   15.99    0.69
   1  -6   0   16.40    0.61
   1   5   0   15.76    0.60
  -1   6   0   16.17    0.65
  -5  -1   0   15.73    0.56
  -6   1   0   16.46    0.57
   5   1   0   16.66    0.56
  -1  -5   0   13.88    0.68
  -5  -1   0   14.18    0.68
   1   5   1    1.31    0.21
  -1  -5  -1    2.29    0.30
   1  -6  -1    1.81    0.25
  -5  -1  -1    1.33    0.27
  -6   1  -1    1.53    0.27
  -6   1  -1    1.74    0.20
  -1   6   1    1.20    0.15
  -5  -1  -1    2.00    0.20
   1   5  -1    1.35    0.25
   6  -1  -1    1.37    0.21
   5   1  -1    1.53    0.21
  -1   6  -1    1.71    0.29
   6  -1  -2   77.02    1.98
   6  -1   2   79.65    1.97
  -1   6  -2   78.45    2.14
   1   5   2   84.43    1.94
  -1   6   2   78.39    1.97
   1   5  -2   81.65    2.00
   1   5   2   78.66    1.99
   1   5  -2   72.39    2.06
  -5  -1   2   78.91    1.95
  -5  -1  -2   85.18    1.99
   6  -1  -2   81.73    2.15
  -1   6  -2   74.50    1.79
  -6   1   2   77.07    1.96
  -6   1  -2   78.07    1.98
   5   1  -2   76.10    1.96
   5   1   2   77.42    1.96
   1   5  -2   79.49    2.21
   5   1  -2   77.38    2.19
  -1   6  -2   78.92    2.15
   5   1  -3    0.55    0.20
  -6   1   3    0.56    0.17
   5   1   3    0.55    0.19
  -5  -1   3    0.71    0.17
  -6   1  -3    0.54    0.18
  -1   6  -3    0.62    0.28
   5  -6  -3    0.78    0.24
   1   5  -3    0.29    0.18
  -1   6  -3    0.56    0.12
   1   5  -3    1.02    0.33
   6  -1  -3    0.61    0.30
  -5  -1  -3    0.60    0.18
   5   1  -3    0.80    0.35
   1   5  -3    0.68    0.28
  -1   6  -3    0.42    0.30
  -1   6   3    0.93    0.21
   5  -6   3    0.86    0.34
   1   5   3    0.50    0.18
   6  -5   3    0.28    0.33
   5   1  -4   11.56    0.48
   5   1   4   11.50    0.47
   1   5  -4   11.59    0.71
   5   1  -4   10.33    0.69
  -1   6  -4   10.86    0.66
   5  -6   4   10.29    0.64
  -1   6   4    9.19    0.51
   1   5   4   11.06    0.46
   5  -6  -4   11.66    0.59
   1   5  -4   11.83    0.65
  -5  -1   4   10.89    0.45
   1   5  -4   10.67    0.47
  -5  -1  -4   11.42    0.47
  -1   6  -4   10.41    0.65
   6  -5   4   11.52    0.68
  -6   1   4   10.65    0.44
  -6   1  -4   11.70    0.48
   5   1   5    0.37    0.21
   1   5   5    0.50    0.18
  -5  -1   5    0.63    0.19
  -5  -1  -5    0.27    0.19
  -6   5  -5    0.43    0.24
   6  -5  -5    0.32    0.33
   1   5   5    0.19    0.28
  -1   6   5    0.24    0.26
   5  -6  -5    0.62    0.31
   1   5  -5    0.26    0.20
   1   5  -5    0.21    0.36
   5  -6   5    0.53    0.21
   5  -6   5   -0.17    0.38
  -6   5   5    0.61    0.23
  -6   1   5    0.33    0.18
   6  -5   5    0.07    0.35
   1   5  -5    0.02    0.26
  -6   1  -5    0.14    0.18
   5   1   5    0.58    0.25
   5   1  -5    0.31    0.23
  -6   5  -6   14.67    0.64
  -6   5   6   16.60    0.63
  -1   6   6   15.41    0.77
   1   5  -6   17.16    0.76
   5   1  -6   18.36    0.66
   1   5   6   17.89    0.86
   5  -6  -6   16.47    0.84
  -1   6   6   16.65    0.60
   6  -5   6   14.24    0.82
   5   1   6   15.69    0.63
   6  -1   6   14.55    0.73
  -6   1  -6   16.07    0.63
   1   5  -6   17.56    0.62
   1   5   6   17.15    0.59
  -6   1   6   17.19    0.59
   5   1   6   16.84    0.61
   5  -6   6   18.14    0.70
   1   5   7    0.34    0.20
  -6   5   7    0.04    0.20
  -1   6   7    0.07    0.35
   1   5   7    0.21    0.36
  -6   5  -7    0.04    0.23
   6  -5   7   -0.06    0.34
  -6   1  -7    0.23    0.21
  -1   6   7    0.07    0.19
  -6   1   7    0.13    0.19
   5   1   7   -0.02    0.25
   6  -1   7    0.03    0.33
   1   5  -7    0.10    0.49
  -1   6  -7    0.39    0.49
   5  -6   7   -0.12    0.27
   1   5  -7   -0.43    0.36
  -1   6  -7    0.16    0.22
   1   5  -7    0.33    0.23
   6  -5   8    3.19    0.51
   6  -1   8    3.40    0.59
   1   5   8    3.07    0.52
  -6   5   8    2.74    0.26
   5   1  -8    1.88    0.43
   1   5  -8    3.14    0.63
  -1   6  -8    1.86    0.65
  -5   6   8    2.19    0.27
   1   5   9    0.69    0.49
   5   1  -9    0.04    0.45
   6  -1   9    0.16    0.54
   1   5  -9    1.00    0.68
  -1   6  -9    0.54    0.69
   6  -5   9    0.31    0.45
   6  -5  10    1.77    0.56
   6  -1 -10    0.95    0.56
  -6   0   0   76.27    2.16
   6   0   0   79.92    1.99
   0   6   0   75.50    2.05
  -6   0   0   78.86    1.99
   0  -6   0   79.18    2.12
   0  -6  -1    0.37    0.23
  -6   0  -1    0.39    0.25
   6   0  -1    0.80    0.21
   0   6  -1    0.30    0.26
   0   6   1    0.98    0.24
  -6   0  -1    0.77    0.18
   6   0  -2    8.12    0.41
   6   0   2    7.97    0.39
  -6   0   2    8.11    0.38
  -6   0  -2    7.54    0.38
   0   6  -2    8.07    0.55
   6   0  -2    8.38    0.54
   6   0  -3    0.66    0.32
   0   6   3    0.21    0.20
   6   0  -3    0.33    0.21
   0   6  -3    0.57    0.33
   6   0   3    0.48    0.21
   0   6  -3    0.09    0.33
  -6   0   3    0.09    0.16
  -6   0  -3    0.47    0.19
   6  -6   3    0.19    0.34
   0   6  -4   33.46    1.28
   6   0  -4   35.36    1.29
   0   6  -4   31.20    1.00
   6  -6  -4   36.23    1.19
   6   0  -4   34.50    1.04
   0   6   4   36.12    1.15
  -6   0   4   35.62    1.02
   6  -6   4   34.28    1.26
  -6   0  -4   34.32    1.03
   0   6  -4   34.97    1.27
   6   0   4   36.70    1.03
   0   6   5    0.02    0.20
   0   6  -5    0.02    0.23
   0   6  -5    0.49    0.23
   6  -6  -5    0.57    0.38
   6   0  -5   -0.08    0.43
  -6   0   5    0.09    0.19
  -6   0  -5    0.28    0.21
   0   6  -5    0.04    0.47
   0   6  -5    0.19    0.35
   6  -6   5   -0.04    0.42
   0   6   5    0.09    0.29
   6  -6   6    3.79    0.39
  -6   0   6    4.68    0.33
  -6   0  -6    4.23    0.35
   0   6  -6    4.13    0.33
   0   6   6    4.24    0.32
   6   0   6    4.06    0.42
   0   6   6    4.24    0.49
  -6   6  -7   -0.29    0.28
   0   6  -7   -0.05    0.51
   6  -6   7   -0.11    0.32
  -6   6   7   -0.05    0.24
   0   6  -7    0.07    0.24
   0   6   7   -0.04    0.21
   0   6   7    0.27    0.36
   0   6   8    3.23    0.56
   6  -6   8    4.20    0.49
   0   6  -8    3.58    0.70
  -6   6   8    3.79    0.31
   6  -6   9    0.64    0.43
   6   0  -9   -0.10    0.38
   0   6  -9    0.43    0.71
   4   3   0    2.16    0.24
  -7   3   0    1.73    0.23
   3  -7   0    2.03    0.25
   3   4   0    2.27    0.24
   3  -7   0    2.55    0.33
  -7   4   0    1.71    0.26
  -4  -3   0    2.03    0.33
   4  -7   0    2.28    0.33
  -7   3  -1   12.63    0.53
  -4  -3   1   13.21    0.69
  -7   4  -1   12.70    0.55
   3  -7   1   12.18    0.60
   4  -7   1   12.55    0.62
   4  -7  -1   11.88    0.57
   3   4  -1   13.35    0.52
   4   3  -1   11.99    0.50
   3  -7  -1   12.39    0.56
  -4  -3  -1   13.00    0.66
   3  -7  -1   11.69    0.50
  -7   3  -1   11.90    0.55
   4  -7  -1   12.60    0.46
  -7   4  -1   12.21    0.49
   3   4   2   79.22    2.05
   3  -7   2   83.55    2.21
   4  -7   2   80.93    2.23
   3  -7  -2   77.67    2.06
   4  -7  -2   73.74    2.08
   3   4  -2   81.21    2.06
  -7   4  -2   80.08    2.12
   4   3  -2   83.06    2.06
   4   3   2   80.83    2.04
  -7   4   2   84.10    2.12
   3   4  -2   81.33    2.32
  -3   7  -2   83.94    2.16
   7  -3  -2   83.72    2.12
  -4   7  -2   82.17    2.09
   7  -4  -2   80.75    2.05
  -7   3   2   83.16    2.09
  -7   3  -2   81.04    2.10
  -3   7  -3    6.93    0.47
   7  -3  -3    6.46    0.45
  -4   7  -3    6.30    0.42
   7  -4  -3    6.58    0.40
  -7   4   3    6.41    0.39
  -7   4  -3    5.99    0.39
   4   3   3    6.95    0.37
   3  -7  -3    5.67    0.36
   3   4  -3    6.73    0.37
   3   4   3    6.58    0.37
   4   3  -3    6.99    0.38
  -7   3   3    6.30    0.37
  -7   3  -3    6.44    0.39
   3   4  -3    6.72    0.57
   3   4  -4    2.81    0.49
  -7   4   4    2.58    0.28
   3   4   4    2.71    0.17
  -7   4  -4    2.96    0.30
   3   4  -4    2.63    0.40
   3  -7   4    2.80    0.41
   3   4  -4    2.95    0.28
   4  -7   4    2.91    0.42
   3   4   4    3.32    0.28
   3  -7  -4    2.65    0.25
   4   3  -4    2.94    0.27
   4   3   4    3.07    0.26
  -7   3   4    3.05    0.27
  -7   3  -4    3.21    0.29
  -7   4  -5    2.41    0.31
   3   4  -5    2.23    0.27
   3   4   5    2.70    0.27
   4   3  -5    2.60    0.28
  -7   3   5    1.76    0.23
  -7   3  -5    1.80    0.28
   3   4  -5    1.75    0.40
   4   3   5    2.13    0.25
   3  -7  -5    1.82    0.20
   4   3   5    2.08    0.19
   7  -4   5    1.46    0.43
   7  -3   5    2.10    0.42
  -7   4   5    1.85    0.25
   7  -4   6   14.56    0.83
   7  -3   6   14.46    0.80
   3   4  -6   14.55    0.79
  -3   7  -6   15.39    0.95
  -7   3   6   14.99    0.58
  -7   3  -6   16.15    0.65
   3   4  -6   16.75    0.62
   3   4   6   14.74    0.57
  -7   4   6   15.96    0.59
  -7   4  -6   15.09    0.63
   4   3  -6   15.75    0.62
   4   3   6   16.02    0.59
  -7   4   7    0.58    0.24
   4   3  -7    0.12    0.42
   4   3  -7    0.53    0.27
   4   3   7    0.52    0.23
   3   4  -7    0.31    0.42
   3   4  -7    0.47    0.26
   7  -3   7    0.48    0.42
  -7   4  -7    0.33    0.25
   3   4   7    0.39    0.46
   3   4   7    0.61    0.23
  -7   3   7    0.60    0.22
  -7   3  -7    0.37    0.27
   3   4   8    1.40    0.52
  -7   3   8    1.68    0.24
   4   3  -8    1.19    0.51
   3   4  -8    0.91    0.52
   4   3   8    2.12    0.60
  -7   4   8    1.41    0.25
   7  -3   8    0.28    0.46
   7  -4   8    1.85    0.51
   7  -3   9    0.20    0.54
   4   3  -9    0.50    0.52
   3   4  -9   -0.53    0.61
   7  -4   9   -0.23    0.52
   2  -7   0   10.72    0.53
  -7   2   0   10.74    0.56
   2   5   0    9.66    0.47
   2  -7   0   10.06    0.52
  -5  -2   0   10.46    0.45
   2   5   0   11.04    0.48
   5  -7   0    9.09    0.55
   5   2   0   10.57    0.45
  -7   2   0    9.93    0.46
  -5  -2   0   10.66    0.62
   5  -7  -1   28.51    0.77
  -7   5  -1   30.43    0.79
  -5  -2   1   30.33    1.14
   5  -7  -1   27.26    0.84
  -5  -2  -1   32.54    0.93
   2   5  -1   28.26    0.96
   2  -7   1   31.49    1.02
   2  -7  -1   30.60    0.95
   2   5  -1   32.17    0.94
   5  -7   1   27.81    1.04
  -2   7  -1   28.17    1.05
   2   5   1   29.67    0.90
   5   2  -1   30.95    0.91
  -7   2  -1   30.50    0.94
  -5  -2  -1   30.77    1.12
   2  -7  -1   29.48    0.96
  -7   2  -1   30.65    1.02
  -5  -2   2   45.58    1.26
   2   5   2   45.50    1.27
  -5  -2  -2   46.84    1.28
   2  -7   2   49.87    1.43
   2  -7  -2   43.65    1.25
   2   5   2   47.83    1.24
   2   5  -2   44.63    1.29
  -2   7  -2   48.07    1.49
  -2   7   2   44.84    1.22
   5  -7  -2   46.00    1.25
   2   5  -2   40.31    1.34
  -7   2   2   45.01    1.27
  -7   2  -2   45.38    1.29
   5   2  -2   46.77    1.28
   5   2   2   45.83    1.26
   2   5  -2   45.55    1.52
   5   2  -2   45.18    1.51
  -2   7  -2   44.50    1.40
   7  -2  -2   45.55    1.37
  -5   7  -2   45.02    1.22
   7  -5  -2   45.36    1.19
   2   5   3   18.53    0.55
  -7   5   3   17.95    0.69
  -2   7   3   16.71    0.63
   5  -7  -3   17.23    0.66
   5  -7   3   16.59    0.49
   2  -7  -3   15.26    0.55
   2   5  -3   17.26    0.77
  -5  -2   3   16.60    0.61
  -5  -2  -3   16.28    0.62
   5  -7   3   15.30    0.80
   2   5  -3   17.18    0.62
   2   5   3   16.03    0.61
  -2   7  -3   17.13    0.84
   2  -7   3   15.67    0.73
  -7   2   3   16.60    0.61
  -7   2  -3   17.16    0.64
   5   2  -3   17.17    0.63
   5   2   3   16.08    0.59
  -7   5  -3   14.82    0.66
   2   5  -3   15.77    0.83
   5   2  -3   17.29    0.86
  -2   7  -3   16.94    0.76
   7  -2  -3   15.97    0.74
   2   5  -4    7.59    0.64
   5   2  -4    6.30    0.59
  -2   7  -4    7.34    0.56
   7  -2  -4    6.72    0.53
  -2   7   4    7.08    0.44
   5  -7   4    6.36    0.31
  -7   5   4    6.24    0.41
  -7   5  -4    6.07    0.42
   2   5  -4    7.33    0.57
   5  -7   4    6.57    0.57
  -2   7  -4    8.44    0.62
   7  -5   4    7.69    0.61
   2   5  -4    6.56    0.39
   2   5   4    6.88    0.38
  -7   2   4    6.74    0.37
  -7   2  -4    7.16    0.41
   5  -7  -4    6.88    0.46
   5   2  -4    6.89    0.39
   5   2   4    7.11    0.38
   5   2   5    5.80    0.36
  -7   5   5    5.47    0.38
  -7   5  -5    4.55    0.38
   5  -7  -5    4.67    0.47
  -2   7  -5    6.65    0.61
   2   5  -5    4.83    0.36
   2   5   5    4.86    0.33
   2   5  -5    4.83    0.54
  -7   2   5    5.07    0.34
  -7   2  -5    5.48    0.37
   7  -5   5    4.80    0.55
   5  -7   5    4.91    0.31
   5   2  -5    5.09    0.37
  -7   5   6   10.04    0.49
  -7   5  -6    9.44    0.52
   5   2  -6   11.64    0.53
   2   5   6   10.86    0.74
   5   2   6   10.79    0.50
   2   5  -6   10.08    0.63
   5   2   6   10.60    0.45
   7  -2   6    8.41    0.64
  -7   2   6    9.86    0.47
  -7   2  -6   10.01    0.51
   2   5  -6   10.59    0.50
   2   5   6   10.13    0.46
   5   2   7    1.38    0.29
   2   5   7    1.60    0.27
   2   5  -7    0.37    0.40
   7  -5   7    0.98    0.42
  -7   2   7    0.91    0.23
  -7   2  -7    1.09    0.29
   2   5  -7    1.34    0.54
   2   5   7    1.02    0.46
  -7   5   7    1.10    0.25
   7  -2   7    0.63    0.40
  -7   5  -7    0.67    0.27
  -2   7   7    1.25    0.26
  -2   7  -7    1.08    0.55
  -7   5   8    1.26    0.25
   2   5   8    2.77    0.62
  -7   2   8    1.27    0.25
   5   2   8    1.25    0.60
   7  -5   8    1.70    0.49
   5   2  -8    1.32    0.43
   2   5  -8    1.34    0.61
  -2   7  -8    1.53    0.68
   7  -5   9    0.56    0.52
   7  -2   9   -0.59    0.59
   5   2  -9    0.12    0.45
  -2   7  -9    0.25    0.73
  -1  -6   0   55.10    1.67
  -6  -1   0   56.82    1.73
   1  -7   0   58.49    1.64
  -7   1   0   55.41    1.68
   7  -1   0   56.64    1.52
   1   6   0   62.85    1.56
   1   6   0   55.21    1.57
  -6  -1   0   55.48    1.50
  -7   1   0   55.28    1.51
  -1   7   0   51.42    1.34
  -1   7   0   61.67    1.66
   6   1   0   53.33    1.49
   1   6  -1    5.35    0.38
   1   6  -1    5.30    0.41
   1   6   1    5.35    0.38
  -1   7  -1    5.61    0.45
  -6  -1  -1    5.00    0.33
   6  -7   1    5.81    0.51
  -1   7   1    5.35    0.28
  -7   1  -1    5.04    0.34
   7  -1  -1    5.95    0.37
  -1  -6  -1    5.17    0.45
  -6  -1  -1    4.69    0.46
   1  -7  -1    5.25    0.41
  -7   1  -1    5.63    0.47
   6   1  -1    4.94    0.34
  -1   7  -2    4.42    0.46
   6   1  -2    3.61    0.45
   7  -1  -2    3.80    0.33
   7  -1   2    4.59    0.34
   1   6   2    4.83    0.34
  -1   7   2    3.78    0.29
   1   6  -2    4.17    0.35
   1   6   2    3.91    0.32
   1   6  -2    3.70    0.39
  -6  -1   2    4.09    0.29
  -6  -1  -2    4.06    0.31
  -7   1   2    3.84    0.30
  -7   1  -2    5.24    0.33
  -1   7  -2    3.74    0.41
   1   6  -2    4.92    0.51
   7  -1  -2    4.08    0.43
  -6   7  -2    4.35    0.23
   7  -6  -2    4.07    0.21
   6   1  -2    4.00    0.32
   6   1   2    3.85    0.30
   6   1  -3    3.27    0.31
   6   1   3    3.01    0.28
   1   6  -3    2.41    0.46
   6   1  -3    3.34    0.47
  -1   7  -3    3.21    0.42
   7  -1  -3    4.38    0.46
   6  -7  -3    3.05    0.33
   1   6   3    2.91    0.29
   1   6  -3    3.34    0.33
  -6  -1   3    3.35    0.28
  -6  -1  -3    3.53    0.29
  -7   1   3    3.27    0.27
   1   6  -3    3.01    0.40
  -7   1  -3    3.60    0.31
  -1   7  -3    2.84    0.44
   6  -7   3    3.02    0.45
  -1   7   3    3.05    0.30
   7  -6   3    3.28    0.50
  -1   7  -4   24.34    1.04
   7  -1  -4   22.27    0.99
   6   1  -4   24.27    0.81
   6   1   4   24.59    0.81
  -1   7   4   24.30    0.89
   6  -7  -4   25.61    0.93
   1   6  -4   22.96    0.99
  -6  -1   4   24.75    0.79
   1   6  -4   25.13    0.83
  -6  -1  -4   23.18    0.81
   6  -7   4   24.85    1.05
  -1   7  -4   22.69    1.02
   7  -6   4   22.96    1.05
   1   6   4   23.51    0.79
  -7   1   4   23.77    0.79
  -7   1  -4   22.42    0.81
   1   6  -4   25.54    1.09
   6   1  -4   23.68    1.09
   7  -1  -5    0.56    0.42
  -1   7   5    0.64    0.30
   6  -7   5    0.84    0.24
   7  -6  -5    0.72    0.37
  -7   1   5    0.62    0.22
  -6  -1   5    1.27    0.23
   1   6   5    0.95    0.37
   6   1   5    0.84    0.25
   1   6  -5    1.17    0.25
   1   6   5    0.87    0.23
   6   1  -5    1.63    0.30
   1   6  -5    0.83    0.29
   1   6  -5    0.79    0.43
   6  -7  -5    0.40    0.36
  -7   1  -5    1.25    0.26
  -6  -1  -5    1.15    0.26
  -1   7  -5    0.62    0.48
  -1   7  -5    1.64    0.47
  -1   7  -6    1.80    0.30
   6   1   6    1.76    0.30
  -1   7   6    2.78    0.41
   6  -7   6    3.22    0.35
   1   6  -6    2.65    0.38
   6   1  -6    2.25    0.33
  -7   1   6    2.52    0.28
  -7   1  -6    2.24    0.32
  -7   6   6    2.53    0.34
  -1   7   6    2.26    0.29
   1   6  -6    2.15    0.31
   1   6   6    2.24    0.45
   1   6   6    1.73    0.27
   6   1   6    1.78    0.34
   7  -1   6    1.95    0.40
  -7   6  -6    1.83    0.33
  -1   7   7    0.70    0.37
   6  -7   7    0.53    0.30
   1   6   7    0.35    0.41
   1   6  -7    0.29    0.35
  -7   1   7   -0.15    0.23
  -7   6   7    0.30    0.24
  -7   1  -7    0.30    0.26
  -1   7   7    0.05    0.23
   7  -6   7    0.10    0.36
  -7   6  -7    0.38    0.28
   1   6  -7    1.11    0.55
  -1   7  -7   -0.10    0.56
   1   6   7    0.11    0.23
   7  -6   8    3.47    0.53
   1   6   8    2.80    0.59
  -6   7   8    3.47    0.37
  -7   6   8    3.01    0.32
   1   6  -8    2.51    0.72
  -1   7  -8    2.76    0.73
   7  -6   9    0.75    0.47
   6   1  -9   -0.03    0.40
   7  -6  10    0.12    0.53
   0  -7   0   73.06    2.08
  -7   0   0   74.11    2.16
   7   0   0   74.96    1.92
   0   7   0   72.91    2.02
  -7   0   0   71.22    1.92
   7   0  -1    0.02    0.22
   0  -7  -1   -0.09    0.31
  -7   0  -1   -0.10    0.32
   0   7  -1    0.46    0.30
  -7   0  -1    0.10    0.19
   0   7   1    0.02    0.28
  -7   0  -2    0.23    0.19
   7   0  -2    0.29    0.23
   7   0   2    0.49    0.24
  -7   0   2    0.69    0.20
   0   7  -2    0.15    0.33
   0   7  -3   -0.07    0.37
   7   0  -3    0.17    0.39
   0   7   3    0.29    0.24
   0   7  -3   -0.11    0.17
  -7   0   3    0.09    0.19
   7   0  -3    0.02    0.24
  -7   0  -3    0.10    0.19
   0   7  -3   -0.10    0.35
   7   0   3    0.18    0.24
   7  -7   3    0.04    0.40
   7  -7  -4   31.93    1.10
   0   7  -4   27.37    0.86
   7   0  -4   29.22    0.97
   0   7   4   28.55    1.03
   7   0   4   30.20    0.95
   0   7   4   28.35    0.93
   0   7  -4   25.69    1.13
  -7   0   4   29.18    0.92
  -7   0  -4   29.18    0.95
   0   7  -4   29.86    1.20
   7   0  -4   30.32    1.20
   0   7   5    0.09    0.33
   0   7  -5   -0.17    0.26
   0   7  -5    0.06    0.22
   0   7   5    0.19    0.25
  -7   0   5    0.31    0.21
  -7   0  -5    0.10    0.23
   7  -7  -5   -0.13    0.38
   0   7  -5    0.98    0.47
   7  -7   6    0.57    0.30
  -7   0   6    0.74    0.27
  -7   0  -6    0.48    0.27
   0   7  -6    0.42    0.26
   0   7   6    0.72    0.26
   0   7  -6    0.88    0.51
   0   7   6    0.25    0.36
   7   0   6    0.41    0.36
  -7   7   7   -0.04    0.28
   0   7   7    0.32    0.41
   7  -7   7   -0.03    0.32
  -7   7  -7   -0.29    0.31
   0   7   7   -0.05    0.25
   0   7   8    3.02    0.58
  -7   7   8    2.63    0.36
   7  -7   8    3.11    0.48
   0   7  -8    3.36    0.76
   7  -7   9   -0.16    0.43
  -8   4   0   24.46    0.85
   4  -8   0   22.45    0.89
   4   4   0   23.84    0.80
  -4  -4   0   23.48    0.99
  -4  -4  -1   -0.04    0.30
   4  -8  -1    0.17    0.19
  -8   4  -1    0.10    0.22
  -4  -4   1   -0.08    0.33
  -8   4  -1    0.25    0.23
   4  -8   1    0.14    0.32
   4  -8  -1    0.02    0.30
   4   4  -1    0.02    0.20
  -8   4   2    9.09    0.50
  -8   4  -2    8.42    0.48
   4  -8   2   10.46    0.60
   4  -8  -2    8.28    0.50
   4   4  -2    9.73    0.48
   4   4   2    8.77    0.44
   4   4  -3   -0.02    0.24
   4   4   3    0.16    0.20
   4   4  -3    0.12    0.38
  -8   4  -3    0.18    0.23
  -4   8  -3    0.05    0.27
   8  -4  -3    0.15    0.25
  -8   4   3   -0.02    0.22
   4  -8   3   -0.22    0.32
   4  -8  -3    0.09    0.25
  -4   8  -4    9.48    0.59
   8  -4  -4   10.26    0.57
   4  -8  -4    9.91    0.49
   4   4  -4   11.88    0.52
   4   4   4   10.85    0.49
  -8   4   4   10.86    0.52
  -8   4  -4   10.15    0.52
   4   4  -5    0.32    0.24
   4   4   5    0.10    0.22
   4   4  -5   -0.11    0.36
  -8   4   5    0.13    0.23
  -8   4  -5    0.23    0.26
   4  -8  -5    0.15    0.24
   8  -4   5   -0.50    0.45
  -8   4  -6    2.54    0.35
   4   4   6    2.88    0.32
   4  -8  -6    2.29    0.25
  -8   4   6    3.22    0.33
   4   4   7    0.45    0.26
  -8   4   7    0.02    0.24
  -8   4  -7    0.24    0.27
   4   4  -7    0.65    0.47
   4   4   8    2.01    0.62
   4   4  -8    0.82    0.51
  -8   4   8    1.90    0.30
   8  -4   9    0.05    0.55
  -5  -3   0   16.33    0.82
  -8   5   0   14.98    0.67
   3  -8   0   16.46    0.70
   5  -8   0   16.86    0.76
   3   5   0   14.99    0.63
   5   3   0   15.17    0.61
  -8   3   0   15.33    0.64
   5   3  -1    1.85    0.26
  -5  -3  -1    1.32    0.36
   3  -8  -1    1.94    0.29
  -8   5  -1    1.51    0.29
   5  -8  -1    1.73    0.19
  -8   3  -1    1.29    0.30
   3  -8   1    1.83    0.34
   3   5  -1    1.73    0.27
   3  -8  -1    1.58    0.31
   5  -8   1    1.82    0.38
  -8   3  -1    1.49    0.25
   5  -8  -1    2.46    0.38
  -8   5   2   12.83    0.61
  -8   5  -2   12.58    0.61
   3   5  -2   11.66    0.62
   3   5   2   12.35    0.50
   3  -8   2   12.61    0.66
   3  -8  -2   13.21    0.58
   5  -8   2   13.60    0.71
   5  -8  -2   12.16    0.61
   3   5  -2   13.35    0.57
   3   5   2   13.11    0.56
   5   3  -2   13.41    0.56
   5   3   2   13.51    0.54
  -8   3   2   12.64    0.56
  -8   3  -2   12.36    0.57
  -8   3  -2   12.37    0.61
  -8   5  -2   13.38    0.52
  -8   5   3    1.33    0.28
  -8   5  -3    1.28    0.28
   3   5  -3    1.32    0.46
  -3   8  -3    0.61    0.34
   8  -3  -3    0.65    0.30
   8  -5  -3    0.91    0.24
  -5   8  -3    1.01    0.28
   5   3  -3    0.84    0.23
   5   3   3    1.01    0.24
  -8   3   3    1.02    0.23
   3   5  -3    0.69    0.32
   3  -8   3    1.24    0.37
  -8   3  -3    1.03    0.24
   3   5   3    0.93    0.21
   3  -8  -3    0.81    0.25
   3   5  -3    0.73    0.25
   3   5   3    0.97    0.24
  -3   8  -4    7.74    0.57
   8  -3  -4    7.87    0.53
  -5   8  -4    6.45    0.46
  -8   5   4    8.10    0.49
  -8   5  -4    7.38    0.46
   3   5  -4    7.77    0.62
   3  -8  -4    7.88    0.38
   3   5   4    6.15    0.27
  -3   8  -4    7.55    0.67
   3   5  -4    7.82    0.44
   3   5   4    8.63    0.43
  -8   3   4    7.35    0.42
  -8   3  -4    7.12    0.45
   5   3  -4    7.87    0.44
   5   3   4    6.95    0.41
   3   5   5    0.49    0.24
  -8   5  -5    0.60    0.28
  -8   3  -5    0.38    0.24
   8  -3  -5    0.28    0.38
  -8   3   5    0.39    0.23
   3   5  -5    0.45    0.40
  -8   5   5    0.29    0.27
   5   3  -5    0.27    0.26
  -3   8  -5    0.23    0.44
   5   3   5    0.52    0.25
  -3   8  -5    0.55    0.49
   3   5  -5    0.25    0.25
   5   3   6    4.06    0.36
   5   3  -6    3.91    0.38
   3   5  -6    3.79    0.45
  -8   3   6    4.05    0.34
  -8   3  -6    3.74    0.38
   3   5  -6    3.99    0.37
   3   5   6    4.08    0.35
   8  -3   6    3.86    0.54
  -8   5  -6    3.14    0.36
  -8   5   6    3.63    0.36
   3   5   7    0.36    0.49
  -8   5   7   -0.02    0.25
  -8   5  -7    0.27    0.31
   3   5   7    0.03    0.26
   5   3  -7   -0.07    0.36
  -8   3   7    0.29    0.25
  -8   3  -7    0.20    0.28
   5   3   7    0.18    0.27
  -8   5   8    1.23    0.30
   3   5   8    2.10    0.65
   8  -5   8    1.81    0.53
   5   3   8    2.53    0.67
  -8   3   8    1.18    0.28
   5   3  -8    0.93    0.45
   3   5  -8    1.54    0.62
   8  -5   9    0.18    0.52
  -2  -6   0   17.11    0.80
  -6  -2   0   15.89    0.82
   2  -8   0   15.46    0.69
  -8   2   0   15.78    0.74
   2  -8   0   16.47    0.69
   2   6   0   13.29    0.62
  -6  -2   0   14.83    0.61
   2   6   0   15.56    0.64
   6  -8   0   14.27    0.74
  -8   2   0   14.74    0.63
   6   2   0   13.93    0.60
  -2  -6  -1    0.62    0.34
  -6  -2  -1    0.30    0.35
   2  -8  -1    0.33    0.28
  -8   2  -1    0.06    0.30
  -8   2  -1    0.25    0.20
  -6  -2  -1    0.21    0.20
   2   6  -1    0.52    0.24
   6  -8  -1    0.45    0.17
   2  -8   1    0.15    0.29
   2  -8  -1    0.06    0.26
   2   6  -1    0.24    0.27
   2   6   1    0.27    0.23
   6   2  -1    0.68    0.24
   6  -8   1    0.25    0.39
  -2   8  -1    0.51    0.36
   6  -8  -2   10.87    0.47
   2   6  -2    9.39    0.57
  -6  -2   2   11.09    0.49
  -6  -2  -2   10.85    0.50
   2   6   2   12.22    0.52
   2   6  -2   11.07    0.53
   2   6   2   10.84    0.51
   6  -8   2    9.89    0.67
  -2   8  -2    9.21    0.66
  -8   2   2    9.78    0.49
  -8   2  -2    9.35    0.50
   6   2  -2   11.30    0.51
   6   2   2    9.64    0.46
   2  -8  -2    9.57    0.55
  -2  -6  -2   10.20    0.66
   6  -8  -2    9.28    0.35
  -6  -2  -2   10.03    0.67
  -8   2  -2    8.62    0.58
  -8   6  -2   10.67    0.39
   2   6  -3   -0.20    0.40
   6   2  -3    0.20    0.39
  -2   8  -3    0.28    0.33
   8  -2  -3    0.46    0.34
  -8   2   3    0.56    0.22
  -8   2  -3    0.85    0.25
  -2   8   3    0.22    0.20
  -6   8  -3    0.31    0.22
   8  -6  -3    0.09    0.19
  -6  -2  -3    0.25    0.22
   6  -8  -3    0.55    0.26
  -6  -2   3    0.17    0.20
   2   6  -3    0.51    0.25
   2   6   3    0.45    0.23
   6  -8   3    0.29    0.13
  -8   6   3    0.23    0.27
   2   6  -3    0.19    0.30
   2   6   3    0.46    0.22
  -2   8  -3    0.19    0.39
   6   2  -3    0.44    0.24
   6   2   3    0.23    0.22
   6  -8   4    7.94    0.34
  -8   6  -4    6.10    0.47
   6  -8  -4    7.66    0.51
   2   6  -4    6.88    0.61
  -2   8  -4    7.90    0.69
   2   6  -4    7.39    0.45
   2   6   4    7.46    0.43
  -8   2   4    7.47    0.42
  -8   6   4    8.25    0.50
  -8   2  -4    6.74    0.44
   6   2  -4    6.93    0.45
  -2   8  -4    6.72    0.59
   8  -2  -4    8.26    0.60
   6   2   4    7.79    0.43
  -8   6   5    0.05    0.27
   2   6  -5   -0.05    0.29
   6  -8   5    0.09    0.19
  -2   8  -5    0.37    0.47
   8  -2  -5   -0.04    0.41
   6  -8  -5   -0.31    0.34
  -8   6  -5   -0.05    0.29
   6   2  -5    0.37    0.26
   6   2   5   -0.04    0.27
   2   6  -5   -0.04    0.42
   2   6  -5   -0.02    0.26
   2   6   5    0.11    0.25
  -2   8  -5    0.49    0.47
  -8   2   5    0.38    0.24
  -8   2  -5    0.07    0.25
   6   2  -6    3.43    0.39
   6   2   6    3.87    0.37
   2   6   6    2.59    0.52
  -8   6   6    3.24    0.37
  -8   2   6    3.69    0.34
  -8   6  -6    2.92    0.39
   2   6  -6    2.88    0.58
  -8   2  -6    3.08    0.37
   2   6  -6    3.03    0.36
   8  -2   6    2.49    0.48
   2   6   6    3.08    0.33
   2   6  -6    2.86    0.42
  -8   6  -7   -0.15    0.29
   2   6   7    0.11    0.27
   2   6   7   -0.44    0.53
  -8   2   7   -0.07    0.23
  -8   2  -7   -0.23    0.30
  -2   8   7   -0.13    0.27
  -8   6   7   -0.28    0.26
   6   2   7   -0.02    0.29
   2   6   8    1.40    0.58
  -8   2   8    1.83    0.32
   8  -6   8    1.56    0.52
  -8   6   8    1.24    0.31
   6   2  -8    0.60    0.35
   2   6  -8    1.30    0.65
  -2   8  -8    1.98    0.74
   8  -6   9   -0.25    0.52
   7   1   0   18.20    0.70
  -1  -7   0   19.56    0.89
  -7  -1   0   17.41    0.90
   1  -8   0   19.77    0.82
  -8   1   0   18.52    0.88
  -1   8   0   16.32    0.52
   8  -1   0   19.05    0.71
   1   7   0   20.99    0.77
   1   7   0   18.21    0.78
  -7  -1   0   18.58    0.70
  -1   8   0   19.81    0.85
  -8   1   0   19.09    0.72
  -1  -7  -1    2.06    0.39
  -7  -1  -1    1.81    0.40
   1  -8  -1    1.25    0.33
  -8   1  -1    1.23    0.37
   1   7  -1    1.87    0.32
  -1   8   1    1.68    0.19
   7   1  -1    1.51    0.28
  -7  -1  -1    1.79    0.26
   1   7  -1    1.30    0.34
   1   7   1    1.44    0.32
   8  -1  -1    1.66    0.29
  -1   8  -1    2.12    0.42
   7  -8   1    2.33    0.43
  -8   1  -1    1.37    0.25
   7   1   2    3.36    0.32
  -1  -7  -2    3.14    0.43
  -7  -1  -2    3.08    0.43
  -8   1  -2    3.22    0.43
  -1   8   2    3.61    0.29
   7  -8  -2    3.16    0.31
   1   7  -2    3.34    0.37
   1   7   2    3.26    0.35
   7   1  -2    3.16    0.32
  -7  -1   2    3.47    0.31
  -7  -1  -2    3.10    0.31
  -8   1   2    3.20    0.31
  -8   1  -2    3.55    0.33
   1   7  -2    3.14    0.41
  -1   8  -2    3.22    0.47
   1   7   2    3.56    0.36
   1  -8  -2    4.13    0.42
   1   7  -3    1.47    0.41
  -1   8  -3    0.73    0.39
   7   1  -3    0.42    0.42
   8  -1  -3    0.82    0.37
   7  -8  -3    0.96    0.30
  -7   8  -3    1.05    0.22
  -1   8   3    0.79    0.26
   8  -7  -3    0.81    0.18
   1   7  -3    1.04    0.29
   1   7   3    0.68    0.26
  -7  -1   3    1.01    0.24
  -7  -1  -3    0.72    0.25
   7   1  -3    1.35    0.29
   1   7  -3    0.93    0.35
   7   1   3    1.26    0.27
  -1   8  -3    1.24    0.39
  -8   1   3    1.06    0.24
  -8   1  -3    0.96    0.26
   7   1  -4    9.43    0.53
   7   1   4    9.84    0.50
   1   7  -4    8.71    0.45
   7  -8  -4    9.82    0.59
   1   7   4    8.63    0.59
  -1   8   4    8.61    0.51
  -7  -1   4    9.03    0.48
   1   7  -4    7.44    0.66
  -7  -1  -4    7.94    0.48
   1   7  -4    9.50    0.52
   1   7   4    8.30    0.47
  -1   8  -4    6.92    0.66
  -8   1   4    8.31    0.47
  -8   1  -4    8.01    0.50
  -1   8  -4    8.56    0.67
   8  -1  -4    9.33    0.66
   7   1   5    0.64    0.29
   1   7   5    0.50    0.37
  -1   8   5    0.45    0.31
   1   7  -5    0.14    0.25
   7  -8   5    0.37    0.24
  -8   7   5    0.68    0.31
   1   7  -5    0.39    0.27
   1   7   5    0.14    0.25
  -7  -1  -5    0.49    0.26
   7  -8  -5   -0.19    0.40
  -8   1   5    0.02    0.24
  -8   1  -5    0.50    0.29
  -7  -1   5    0.65    0.26
   1   7  -5    0.60    0.45
  -1   8  -5    0.04    0.44
   7   1  -5    0.27    0.30
  -8   7  -6    1.13    0.35
  -1   8   6    1.90    0.41
   7  -8   6    1.85    0.31
  -1   8  -6    1.15    0.33
   1   7   6    2.11    0.48
  -1   8   6    1.23    0.30
  -8   1   6    1.62    0.29
  -8   1  -6    1.90    0.34
   1   7  -6    1.67    0.33
   1   7   6    1.85    0.32
   1   7  -6    1.78    0.59
  -8   7   6    1.30    0.35
  -1   8  -6    2.71    0.61
   8  -1   6    1.50    0.44
   1   7   7   -0.46    0.50
   8  -7   7    0.16    0.38
  -8   1   7    0.24    0.27
  -8   1  -7    0.18    0.31
  -1   8   7    0.04    0.41
  -1   8   7    0.02    0.28
  -8   7   7    0.14    0.30
   7  -8   7   -0.11    0.28
  -8   7  -7    0.28    0.33
   1   7   7    0.34    0.29
   1   7   8    0.79    0.56
   8  -7   8    1.04    0.46
  -7   8   8    1.34    0.38
  -8   7   8    1.46    0.34
   8  -7   9    0.50    0.48
  -8   0   0    5.43    0.55
   8   0   0    4.99    0.39
   0  -8   0    5.00    0.50
   0   8   0    4.63    0.46
  -8   0   0    3.84    0.34
   0  -8  -1    0.56    0.32
  -8   0  -1   -0.08    0.34
   8   0  -1    0.17    0.26
  -8   0  -1    0.45    0.24
   0   8  -1    0.68    0.36
   0   8   1    0.14    0.33
   8   0  -2    6.71    0.46
   0   8   2    6.36    0.40
   0   8  -2    6.53    0.55
  -8   0   2    7.60    0.44
  -8   0  -2    7.54    0.46
   0  -8  -2    6.19    0.54
  -8   0  -2    6.76    0.58
   0   8  -3    0.50    0.44
   8   0  -3    0.26    0.42
  -8   8  -3    0.14    0.14
   0   8  -3   -0.01    0.15
   8  -8  -3    0.08    0.14
   0   8   3    0.28    0.26
  -8   0   3    0.17    0.23
  -8   0  -3    0.16    0.25
   0   8  -3   -0.39    0.38
   8  -8  -4    2.72    0.43
   0   8   4    3.10    0.39
   0   8  -4    2.10    0.23
  -8   0   4    3.01    0.33
  -8   0  -4    2.32    0.33
   0   8  -4    1.85    0.48
   0   8   5   -0.06    0.34
  -8   0   5    0.08    0.26
  -8   0  -5    0.10    0.27
   0   8  -5   -0.04    0.45
   0   8   6    2.18    0.47
  -8   0   6    1.97    0.34
   8  -8   6    2.21    0.37
  -8   0  -6    2.67    0.40
   0   8  -6    1.38    0.58
  -8   8   7    0.52    0.38
   0   8   7    0.41    0.45
   8  -8   7   -0.21    0.36
  -8   8  -7   -0.24    0.37
   0   8   8    0.41    0.51
   8  -8   8    0.85    0.40
  -5  -4   0   26.65    1.13
  -9   5   0   24.79    0.96
   4  -9   0   27.11    1.01
   5  -9   0   26.98    1.03
   4   5   0   27.65    0.93
   5   4   0   27.39    0.92
  -9   4   0   26.39    0.96
   5   4  -1    0.75    0.25
   4  -9  -1    0.66    0.26
  -5  -4  -1    0.50    0.38
  -9   4  -1    0.63    0.29
   4  -9   1    0.81    0.36
   4  -9  -1    1.13    0.36
  -9   5  -1    0.61    0.28
   5  -9   1    0.43    0.37
   5  -9  -1    0.82    0.37
   4   5  -1    0.76    0.27
  -9   4  -1    0.45    0.25
  -5  -4  -2    0.91    0.40
   4  -9  -2    0.27    0.23
   5  -9  -2    0.69    0.22
  -9   4  -2    0.30    0.27
  -9   5  -2    0.42    0.27
   5   4  -2    0.60    0.25
   5   4   2    0.28    0.23
  -9   5   2   -0.03    0.26
  -9   5  -2    0.72    0.28
   4  -9   2    0.09    0.36
   5  -9   2    0.26    0.37
   4  -9  -2    0.38    0.30
   5  -9  -2    0.07    0.31
  -9   4   2   -0.07    0.25
  -9   4  -2    0.02    0.23
   4   5  -2    0.57    0.25
   4   5   2    0.28    0.24
  -4   9  -3    0.27    0.35
  -5   9  -3    0.48    0.30
   9  -4  -3   -0.14    0.30
   9  -5  -3    0.36    0.26
   5   4  -3    0.66    0.26
   5   4   3    0.56    0.27
  -9   5   3    0.20    0.27
  -9   5  -3    0.39    0.27
   4   5   3    0.26    0.20
   4  -9  -3    0.14    0.28
  -9   4   3    0.16    0.23
  -9   4  -3    0.42    0.25
   5  -9  -3    0.41    0.32
   4   5  -3    0.23    0.25
   4   5   3    0.57    0.25
   4   5  -4   11.48    0.75
   4   5   4   11.26    0.44
   4  -9  -4   10.16    0.52
   5  -9  -4    9.91    0.57
   4   5  -4   11.77    0.57
   4   5   4   11.16    0.55
   5   4  -4   11.14    0.57
   5   4   4   11.24    0.54
  -9   4   4   10.97    0.55
  -9   4  -4   10.63    0.59
  -9   5   4   11.67    0.58
  -4   9  -4   12.53    0.69
   9  -4  -4   11.54    0.63
  -9   5  -4    9.58    0.57
  -5   9  -4   10.82    0.62
   9  -5  -4    9.89    0.56
  -4   9  -5    0.10    0.41
   9  -4  -5   -0.12    0.37
  -5   9  -5   -0.15    0.41
   9  -5  -5    0.10    0.35
  -9   4   5    0.30    0.27
  -9   4  -5    0.20    0.28
   4   5  -5    0.47    0.44
   4  -9  -5    0.22    0.23
   5  -9  -5    0.28    0.30
  -9   5   5    0.14    0.28
  -9   5  -5    0.05    0.28
  -9   4   6    0.47    0.29
  -9   4  -6    0.72    0.33
  -9   5   6    0.77    0.31
   5   4  -6    0.19    0.39
  -9   5  -6    0.21    0.31
   4   5  -6    1.22    0.50
   5  -9  -6    0.32    0.27
  -9   4  -7    0.44    0.33
  -9   5   7    0.15    0.28
  -9   5  -7   -0.03    0.32
   4   5   7   -0.40    0.55
  -9   4   7   -0.02    0.29
  -3  -6   0    8.70    0.65
  -6  -3   0    9.12    0.69
  -9   6   0    7.68    0.54
   3   6   0    8.76    0.49
   3  -9   0    9.48    0.58
   6  -9   0    8.28    0.62
   3   6   0    8.21    0.51
   6   3   0    8.70    0.49
  -9   3   0    9.69    0.53
  -3  -6  -1    3.67    0.50
  -6  -3  -1    4.53    0.52
  -9   3  -1    3.85    0.43
   3   6   1    3.78    0.36
  -9   6  -1    3.18    0.39
   3   6  -1    4.04    0.38
   3  -9   1    3.99    0.46
   3   6  -1    3.00    0.38
   3  -9  -1    3.89    0.41
   6  -9   1    3.79    0.50
   3  -9  -1    3.80    0.38
  -9   3  -1    3.46    0.36
   6   3  -1    4.28    0.36
   6  -9  -1    3.03    0.45
  -3  -6  -2    4.96    0.55
  -6  -3  -2    3.75    0.51
  -9   6  -2    3.85    0.40
   3  -9  -2    4.60    0.40
   3   6   2    4.28    0.36
  -9   3  -2    3.40    0.36
   6  -9  -2    4.60    0.48
   3   6  -2    3.63    0.37
   3   6   2    4.40    0.36
   3  -9   2    4.30    0.49
   3   6  -2    4.21    0.45
   6  -9   2    4.22    0.50
  -9   6   2    3.87    0.41
  -9   3   2    3.70    0.36
   6   3  -2    3.64    0.36
   6   3   2    3.73    0.36
   3  -9  -2    4.11    0.40
  -9   3  -2    4.23    0.45
   6  -9  -2    3.40    0.25
  -9   6  -2    3.76    0.29
  -3   9  -3    2.32    0.44
   9  -3  -3    2.14    0.38
  -6   9  -3    1.78    0.32
   9  -6  -3    1.81    0.28
  -9   6   3    2.01    0.37
  -9   3   3    2.07    0.30
  -9   3  -3    1.76    0.31
  -9   6  -3    2.49    0.36
   3  -9  -3    2.21    0.31
   3   6  -3    1.65    0.42
   6   3  -3    2.43    0.33
   3   6   3    1.93    0.29
   3   6  -3    2.12    0.32
   3   6   3    2.34    0.31
   6  -9  -3    2.45    0.41
  -9   6  -4    4.56    0.44
  -3   9  -4    4.96    0.55
   9  -3  -4    4.70    0.49
   9  -6  -4    3.33    0.36
   3   6  -4    5.91    0.60
  -9   3   4    3.74    0.37
  -9   3  -4    4.36    0.40
  -9   6   4    4.13    0.42
  -6   9  -4    4.37    0.41
  -9   3   5    0.75    0.25
  -9   3  -5    0.69    0.29
  -3   9  -5    0.34    0.46
   9  -3  -5    1.13    0.45
  -9   6   5    0.42    0.31
  -6   9  -5    0.38    0.35
  -9   6  -5    0.53    0.30
   3   6  -5    0.93    0.50
  -9   6  -6    1.57    0.36
   3   6  -6    1.20    0.49
  -9   3   6    1.62    0.32
  -9   3  -6    1.21    0.35
  -9   6   6    1.32    0.33
   3   6   7   -0.06    0.57
  -9   6   7    0.42    0.32
  -9   3   7    0.25    0.29
  -9   6  -7    0.64    0.33
  -9   3  -7    0.14    0.34
   9  -6   8    1.14    0.54
   7  -9   0    1.87    0.19
  -9   2   0    1.30    0.28
  -2  -7   0    1.64    0.43
  -7  -2   0    1.83    0.29
  -7  -2   0    1.31    0.44
   2   7   0    1.42    0.33
   7  -9   0    1.69    0.43
   7  -9  -1    3.89    0.28
  -2  -7  -1    3.56    0.48
  -7  -2  -1    3.16    0.52
   2  -9  -1    2.99    0.39
  -9   2  -1    3.81    0.46
  -7  -2  -1    3.27    0.33
   2   7   1    4.01    0.39
   2   7  -1    2.49    0.38
  -9   2  -1    3.45    0.36
   7  -9   1    3.46    0.53
   7  -9  -2    9.75    0.47
   2   7  -2    7.85    0.57
  -7  -2   2    9.55    0.50
  -7  -2  -2    8.75    0.51
   2   7   2   10.74    0.56
  -2   9  -2    8.78    0.69
  -9   2   2    8.36    0.50
  -9   2  -2    9.73    0.53
  -2  -7  -2   10.55    0.73
  -7  -2  -2    8.43    0.70
   2  -9  -2    8.99    0.59
  -9   2  -2    8.42    0.65
  -9   2   3    2.24    0.31
  -9   2  -3    2.23    0.33
   9  -2  -3    1.81    0.42
   9  -7  -3    2.05    0.22
   7  -9   3    1.88    0.16
  -7  -2   3    1.69    0.29
  -7  -2  -3    1.86    0.30
   7  -9  -3    2.16    0.33
  -9   7   3    2.08    0.37
   2   7  -3    1.90    0.43
  -9   7  -3    1.66    0.35
   2   7   3    2.56    0.33
  -2   9  -3    2.72    0.53
  -2   9  -4    1.10    0.44
   9  -2  -4    1.34    0.44
   7  -9   4    1.41    0.17
  -7   9  -4    1.10    0.28
   9  -7  -4    0.79    0.26
   7  -9  -4    1.24    0.33
  -9   7   4    1.03    0.35
   2   7  -4    1.25    0.44
  -9   7  -4    1.19    0.34
  -2   9  -4    1.40    0.48
  -9   2   4    1.16    0.30
  -9   2  -4    1.34    0.30
   7  -9   5    0.64    0.19
  -9   7   5    0.99    0.35
   2   7   5    0.62    0.41
  -9   7  -5    0.50    0.32
   2   7  -5    0.72    0.46
  -9   2   5    0.54    0.29
  -9   2  -5    0.53    0.31
  -2   9  -5    1.42    0.58
   2   7   6    2.27    0.58
  -9   7   6    2.25    0.39
  -9   2   6    1.76    0.34
  -9   2  -6    2.56    0.40
   2   7  -6    2.22    0.65
  -9   7  -6    1.70    0.37
  -2   9  -6    2.54    0.65
  -9   7   7    0.32    0.35
  -9   7  -7   -0.23    0.36
   2   7   7   -0.10    0.53
  -9   2   7    0.23    0.30
  -9   2  -7   -0.03    0.36
   2   7  -7   -0.11    0.63
   9  -7   8    0.76    0.52
   9  -7   9   -0.52    0.55
  -1   9   0    0.43    0.13
  -1  -8   0    0.50    0.38
  -8  -1   0    0.45    0.41
   1  -9   0    0.06    0.34
  -8  -1   0    0.50    0.24
   1   8   0    0.73    0.35
  -9   1   0    0.24    0.23
  -1   9   0    0.37    0.39
  -1  -8  -1    0.56    0.40
  -8  -1  -1    0.17    0.39
   1  -9  -1    0.03    0.36
  -1   9   1    0.25    0.17
  -9   1  -1   -0.04    0.39
  -8  -1  -1   -0.35    0.25
   1   8  -1    0.34    0.35
   1   8   1    0.03    0.36
  -9   1  -1    0.22    0.26
  -1   9  -1    0.35    0.42
   8  -9  -2    9.44    0.50
  -1   9   2    7.54    0.42
   1   8  -2    7.57    0.61
  -8  -1   2    9.23    0.51
  -8  -1  -2    8.41    0.51
  -1   9  -2    7.24    0.67
   1   8   2   10.44    0.60
  -9   1   2    8.83    0.51
  -9   1  -2    8.69    0.52
  -1  -8  -2    9.38    0.69
  -8  -1  -2    9.40    0.72
   1  -9  -2   10.36    0.66
  -9   1  -2    7.82    0.67
   1  -9  -3    0.17    0.38
  -1  -8  -3    0.08    0.40
  -8  -1  -3    0.22    0.41
  -9   1  -3    0.23    0.40
   8  -9  -3   -0.09    0.31
  -1   9   3   -0.20    0.24
  -8  -1   3   -0.18    0.24
  -8  -1  -3    0.02    0.27
   1   8  -3   -0.36    0.38
  -9   1   3    0.02    0.26
  -9   1  -3    0.28    0.26
  -1   9  -3    0.12    0.42
  -1   9   4    0.48    0.28
   8  -9  -4    0.53    0.35
   9  -8  -4    0.40    0.21
   1   8   4    0.61    0.35
  -8  -1   4    0.23    0.27
  -8  -1  -4    0.46    0.28
  -9   1   4    0.36    0.26
  -9   1  -4    0.61    0.29
   1   8  -4    1.21    0.47
  -1   9  -4    0.60    0.46
  -9   8   5    0.06    0.36
  -1   9   5    0.17    0.30
  -8  -1   5    0.02    0.26
  -8  -1  -5    0.18    0.32
   8  -9   5    0.15    0.24
   1   8   5   -0.29    0.41
  -9   8  -5    0.27    0.34
  -9   1   5    0.02    0.27
  -9   1  -5    0.25    0.30
   1   8  -5   -0.27    0.48
  -1   9  -5    0.75    0.51
  -9   8  -6    1.50    0.43
  -1   9   6    1.98    0.45
   8  -9   6    2.26    0.34
   1   8   6    2.36    0.51
  -9   1   6    2.03    0.35
  -9   1  -6    2.15    0.42
  -9   8   6    2.66    0.43
   1   8  -6    2.13    0.62
  -1   9  -6    1.95    0.66
   1   8   7    0.18    0.52
  -9   1   7   -0.37    0.33
   9  -8   7   -0.15    0.41
  -9   1  -7    0.15    0.36
  -9   8   7    0.88    0.39
  -9   8  -7    0.19    0.37
   0  -9   0   -0.29    0.42
  -9   0   0   -0.13    0.45
  -9   0   0    0.43    0.27
   0   9   0    0.30    0.42
   0  -9  -1    0.55    0.40
  -9   0  -1    0.80    0.45
   0   9   1    0.86    0.23
  -9   0  -1    1.35    0.33
   0   9  -1    0.67    0.43
   0   9   1    1.09    0.43
  -9   0  -2    4.65    0.61
   0   9   2    5.40    0.39
  -9   0   2    5.38    0.43
  -9   0  -2    5.65    0.45
   0   9  -2    5.32    0.59
   0  -9  -2    6.16    0.61
   0  -9  -3    0.54    0.43
  -9   0  -3    0.82    0.45
   9  -9  -3    1.05    0.38
   0   9   3    0.55    0.29
  -9   0   3    0.35    0.26
  -9   0  -3    0.42    0.27
   0   9  -3    0.66    0.46
   0   9   4    0.89    0.35
   9  -9  -4    0.17    0.18
  -9   0   4    0.49    0.27
  -9   0  -4    0.43    0.31
   0   9  -4    0.63    0.43
   0   9   5    0.13    0.37
  -9   0   5    0.05    0.30
  -9   0  -5    0.23    0.33
   0   9  -5    0.09    0.48
   0   9   6    1.34    0.45
  -9   0   6    0.86    0.35
   9  -9   6    1.41    0.36
  -9   0  -6    1.73    0.41
   0   9  -6    1.52    0.63
   0   9   7    0.16    0.47
  -9   9  -7   -0.31    0.41
  -9   9   7    0.65    0.43
  -5  -5   0    6.90    0.65
   5 -10   0    6.64    0.58
 -10   5   0    6.92    0.51
 -10   5  -1    0.17    0.29
  -5  -5  -1    0.05    0.40
   5 -10   1   -0.10    0.40
   5 -10  -1    0.03    0.38
 -10   5  -2    1.41    0.34
  -5  -5  -2    1.83    0.48
   5 -10  -2    1.07    0.27
 -10   5  -2    0.89    0.32
   5 -10  -2    0.50    0.37
 -10   5   2    0.56    0.31
  -5  -5  -3    0.66    0.44
   5 -10  -3    0.46    0.28
 -10   5  -3   -0.02    0.30
   5 -10  -3    0.07    0.35
 -10   5   3    0.05    0.30
 -10   5  -3    0.26    0.27
  -5  10  -4    2.75    0.46
  10  -5  -4    2.75    0.41
   5   5   4    3.00    0.31
 -10   5   4    3.19    0.41
   5 -10  -4    2.87    0.40
 -10   5  -4    2.52    0.39
  10  -5  -5    0.26    0.34
 -10   5   5    0.35    0.32
 -10   5  -5    0.17    0.31
   5   5  -5   -0.21    0.44
   5 -10  -5   -0.24    0.30
 -10   5   6    0.44    0.34
 -10   5  -6    0.27    0.36
   5   5  -6    0.31    0.45
 -10   5   7   -0.19    0.31
 -10   5  -7    0.06    0.37
  -6  -4   0    3.86    0.56
   4   6   0    3.25    0.37
   4 -10   0    3.61    0.48
 -10   4   0    3.51    0.39
   6 -10   0    3.12    0.49
 -10   6   0    3.30    0.43
  -6  -4  -1    0.79    0.41
   4 -10  -1   -0.09    0.28
   4   6  -1   -0.03    0.31
   4   6   1   -0.15    0.26
 -10   4  -1    0.58    0.28
   4 -10   1   -0.03    0.39
   4 -10  -1    0.47    0.34
   6 -10  -1   -0.24    0.39
 -10   6  -1    0.06    0.29
  -6  -4  -2    1.52    0.48
   4 -10  -2    2.66    0.38
 -10   4  -2    2.34    0.41
   6 -10  -2    2.44    0.26
 -10   6  -2    2.38    0.32
 -10   4   2    2.63    0.36
 -10   4  -2    2.04    0.35
   4   6  -2    1.74    0.42
   4   6   2    1.81    0.32
 -10   6   2    1.93    0.38
   4 -10  -2    2.03    0.38
 -10   6  -2    2.04    0.38
   6 -10  -2    1.96    0.45
  -6  -4  -3    0.57    0.43
   4 -10  -3    0.31    0.33
   6 -10  -3    0.33    0.23
 -10   4  -3    0.18    0.35
 -10   6  -3    0.64    0.28
 -10   6   3    0.23    0.33
 -10   6  -3    0.18    0.28
 -10   4   3   -0.05    0.28
 -10   4  -3    0.19    0.29
   4   6  -3    0.26    0.41
   4 -10  -3    0.14    0.31
   4   6   3    0.26    0.27
   6 -10  -3   -0.03    0.37
  -4  10  -4    2.40    0.47
  10  -4  -4    1.49    0.39
  10  -6  -4    1.83    0.33
 -10   6   4    1.81    0.37
 -10   6  -4    1.44    0.37
 -10   4   4    1.95    0.34
 -10   4  -4    2.41    0.37
   4 -10  -4    1.85    0.32
   4   6  -4    2.27    0.48
   6 -10  -4    1.32    0.38
  -4  10  -5    0.41    0.44
 -10   4   5   -0.02    0.29
  10  -4  -5   -0.06    0.38
 -10   4  -5    0.52    0.33
  10  -6  -5    0.31    0.34
   4   6  -5   -0.05    0.43
   6 -10  -5    0.17    0.34
 -10   6   5    0.40    0.32
 -10   6  -5    0.12    0.34
 -10   4   6    0.76    0.33
 -10   4  -6    0.45    0.36
   6   4  -6    0.71    0.39
 -10   6   6    0.38    0.34
   4   6  -6    1.43    0.56
 -10   6  -6    0.42    0.35
 -10   6   7    0.10    0.34
   4   6   7    0.49    0.68
 -10   6  -7    0.09    0.37
 -10   4   7   -0.23    0.32
 -10   4  -7   -0.34    0.38
 -10   3   0    0.54    0.28
  -3  -7   0    0.61    0.43
  -7  -3   0    0.38    0.45
 -10   7   0    0.92    0.37
   3   7   0    0.78    0.32
  -3  -7  -1   -0.09    0.42
  -7  -3  -1   -0.33    0.44
 -10   3  -1    0.33    0.28
 -10   7  -1   -0.03    0.31
   3 -10  -1    0.48    0.34
 -10   3  -1    0.07    0.38
   3   7  -1    0.26    0.34
   3   7   1    0.61    0.31
   7 -10  -1    0.63    0.44
  -3  -7  -2    5.12    0.62
  -7  -3  -2    4.28    0.60
   3 -10  -2    3.95    0.46
 -10   3  -2    3.56    0.48
 -10   3  -2    4.18    0.42
   3   7   2    5.23    0.47
   3   7  -2    4.26    0.50
 -10   7   2    4.48    0.48
 -10   3   2    4.59    0.44
   7 -10  -2    4.72    0.55
 -10   7  -2    3.87    0.45
  -3  -7  -3    0.32    0.43
  -7  -3  -3    0.43    0.49
   3 -10  -3    0.20    0.34
 -10   3  -3   -0.03    0.37
   7 -10  -3    0.29    0.20
 -10   3   3   -0.13    0.30
 -10   3  -3    0.53    0.31
 -10   7  -3    0.05    0.23
 -10   7   3    0.34    0.36
 -10   7  -3    0.10    0.32
   3   7  -3    1.11    0.43
   3   7   3    0.37    0.31
   7 -10  -3    1.02    0.42
 -10   3   4    1.23    0.32
  -3  10  -4    0.81    0.45
 -10   3  -4    1.04    0.32
  10  -3  -4    1.20    0.42
  10  -7  -4    0.47    0.27
   3   7  -4    2.45    0.52
   7 -10  -4    1.01    0.42
 -10   7   4    0.85    0.38
 -10   7  -4    0.66    0.35
 -10   7   5    0.03    0.34
 -10   7  -5    0.06    0.34
   3   7  -5    0.61    0.50
   7 -10  -5    0.25    0.40
 -10   3   5    0.32    0.30
 -10   3  -5    0.06    0.31
 -10   7   6    1.46    0.40
 -10   7  -6    0.89    0.39
   3   7   6    0.26    0.60
   3   7  -6    1.61    0.61
 -10   3   6    1.08    0.35
 -10   3  -6    1.06    0.39
   3   7   7   -0.17    0.64
 -10   3   7   -0.07    0.33
 -10   3  -7   -0.38    0.40
 -10   7   7    0.18    0.35
 -10   7  -7   -0.19    0.35
  10  -7   8    0.66    0.57
 -10   2   0    0.46    0.28
   8 -10   0    1.11    0.20
  -8  -2   0    1.23    0.30
  -2  -8   0    1.03    0.45
  -8  -2   0    0.93    0.47
   2   8   0    0.81    0.37
 -10   2  -1    0.52    0.29
   8 -10   1    0.12    0.14
  -2  -8  -1   -0.08    0.43
  -8  -2  -1   -0.05    0.42
   8 -10  -1   -0.04    0.22
   2 -10  -1    0.09    0.38
 -10   2  -1   -0.04    0.41
  -8  -2  -1    0.23    0.28
   2   8  -1    0.31    0.38
   2   8   1    0.34    0.35
  -2  -8  -2    4.06    0.59
  -8  -2  -2    3.15    0.55
   2 -10  -2    3.30    0.47
 -10   2  -2    2.45    0.51
  -8  -2   2    3.21    0.36
   8 -10  -2    2.56    0.32
  -8  -2  -2    3.13    0.38
   2   8  -2    2.38    0.47
   2   8   2    3.50    0.47
 -10   2   2    2.50    0.38
 -10   2  -2    3.44    0.40
  -2  -8  -3    0.75    0.46
  -8  -2  -3   -0.24    0.44
   2 -10  -3    0.43    0.39
 -10   2  -3    0.27    0.41
  -8  -2   3    0.19    0.28
  -8  -2  -3   -0.10    0.29
   8 -10   3    0.11    0.10
   8 -10  -3   -0.06    0.29
 -10   8   3    0.07    0.38
   2   8  -3    0.04    0.42
 -10   8  -3    0.28    0.35
 -10   2   3    0.03    0.27
  -2  10  -3    0.04    0.47
 -10   2  -3    0.08    0.28
  10  -8  -4    0.69    0.21
   8 -10  -4    0.55    0.37
 -10   8   4    0.19    0.37
 -10   8  -4    0.71    0.39
   2   8  -4    1.10    0.51
 -10   2   4    0.87    0.29
 -10   2  -4    0.75    0.33
  -2  10  -4    0.42    0.48
 -10   8   5   -0.03    0.38
   2   8   5   -0.04    0.46
 -10   8  -5    0.42    0.39
 -10   2   5    0.42    0.32
   2   8  -5   -0.10    0.52
 -10   2  -5   -0.03    0.33
  -2  10  -5   -0.10    0.56
   2   8   6    0.62    0.57
 -10   2   6    0.95    0.36
 -10   2  -6    1.12    0.41
 -10   8   6    0.30    0.41
   2   8  -6    1.01    0.66
 -10   8  -6    0.34    0.39
  -2  10  -6    1.30    0.61
 -10   8   7   -0.08    0.39
 -10   8  -7    0.20    0.37
   2   8   7    0.05    0.62
  10  -8   7    0.24    0.46
 -10   2   7    0.27    0.35
 -10   2  -7    0.13    0.42
  -1  -9   0    0.58    0.44
  -9  -1   0    0.20    0.45
  -9  -1   0    1.44    0.32
 -10   1   0    1.30    0.34
   1   9   0    1.49    0.45
  -1  10   1    0.38    0.16
  -1  -9  -1   -0.04    0.43
  -9  -1  -1    0.25    0.45
   1 -10  -1    0.83    0.45
 -10   1  -1   -0.09    0.46
  -9  -1  -1    0.53    0.31
 -10   1  -1    0.47    0.30
   1   9  -1    0.86    0.44
   1   9   1    1.24    0.46
  -1  10  -1    0.95    0.50
  -1  -9  -2    1.33    0.48
  -9  -1  -2    1.46    0.52
   1 -10  -2    1.72    0.47
 -10   1  -2    0.97    0.48
   9 -10  -2    1.60    0.31
  -1  10   2    0.78    0.22
  -9  -1   2    0.73    0.30
  -9  -1  -2    1.87    0.34
 -10   1   2    0.58    0.28
 -10   1  -2    1.67    0.35
   1   9  -2    1.29    0.46
  -1  10  -2    1.43    0.52
  -1  -9  -3    0.61    0.49
  -9  -1  -3    0.15    0.50
   1 -10  -3    0.08    0.43
 -10   1  -3    0.44    0.47
  -1  10   3    0.48    0.26
   9 -10  -3    0.26    0.32
   1   9   3    0.03    0.31
  -9  -1   3    0.83    0.32
  -9  -1  -3    0.36    0.30
 -10   1   3    0.31    0.29
 -10   1  -3    0.23    0.31
   1   9  -3    0.31    0.44
  -1  10  -3    0.56    0.51
   1 -10  -4    0.78    0.44
  -1  -9  -4    0.34    0.48
  -9  -1  -4    0.43    0.50
 -10   1  -4    1.33    0.49
  -1  10   4    0.60    0.30
  -9  -1   4    0.76    0.33
   1   9   4    0.70    0.38
  -9  -1  -4    0.46    0.33
   9 -10   4    0.84    0.24
 -10   1   4    0.82    0.32
 -10   1  -4    0.91    0.37
   1   9  -4    0.34    0.49
  -1  10  -4    0.32    0.48
 -10   9   5    0.33    0.44
  -1  10   5    0.22    0.32
  -9  -1   5   -0.05    0.30
  -9  -1  -5    0.18    0.34
   1   9   5   -0.29    0.43
 -10   9  -5    0.46    0.45
 -10   1   5    0.07    0.30
 -10   1  -5    0.27    0.34
   1   9  -5    0.14    0.55
  -1  10  -5    0.29    0.55
   1   9   6    0.50    0.50
 -10   1   6    0.46    0.33
 -10   1  -6    0.51    0.44
 -10   9   6    0.58    0.44
 -10   9  -6    0.37    0.44
   1   9   7   -0.05    0.51
 -10   1   7   -0.05    0.35
 -10   9   7   -0.18    0.45
 -10   0   0    1.43    0.37
   0  10   0    2.42    0.58
   0  10   1    0.20    0.21
   0 -10  -1   -0.08    0.47
 -10   0  -1    0.15    0.50
 -10   0  -1    0.11    0.30
   0  10  -1    0.12    0.46
   0 -10  -2    0.78    0.48
 -10   0  -2    0.34    0.49
   0  10   2    0.58    0.26
 -10   0   2    0.32    0.30
 -10   0  -2    0.49    0.32
   0  10  -2    0.68    0.48
   0 -10  -3    0.04    0.50
 -10   0  -3    0.05    0.51
   0  10   3    0.07    0.28
 -10   0   3    0.24    0.31
 -10   0  -3    0.35    0.32
   0  10  -3    0.04    0.46
   0 -10  -4    0.62    0.51
 -10   0  -4    0.81    0.55
   0  10   4    0.81    0.34
 -10   0   4    0.66    0.35
 -10   0  -4    0.61    0.37
   0  10  -4    0.82    0.53
   0  10   5   -0.03    0.38
 -10   0   5    0.08    0.35
 -10   0  -5    0.64    0.39
   0  10  -5   -0.05    0.57
 -10   0   6    0.05    0.35
   0  10   6    0.28    0.42
 -10   0  -6    0.07    0.41
 -10  10  -6    0.75    0.47
 -10  10   6    0.41    0.48
 -10  10   7    0.56    0.48
 -11   6   0    0.23    0.31
  -6  -5   0   -0.21    0.48
   5   6   0    0.53    0.33
 -11   5   0    0.37    0.33
 -11   6  -1   -0.23    0.32
  -6  -5  -1    0.41    0.48
   5   6  -1    0.15    0.35
   5   6   1   -0.09    0.29
   5 -11  -1    0.58    0.41
   6 -11  -1   -0.03    0.44
 -11   5  -1    0.03    0.29
 -11   6   2    2.22    0.41
 -11   6  -2    1.82    0.40
  -6  -5  -2    4.08    0.64
   5 -11  -2    2.67    0.37
 -11   5  -2    3.10    0.45
   5   6  -2    2.99    0.48
   5   6   2    2.09    0.35
 -11   5   2    2.86    0.42
   5 -11  -2    2.21    0.47
 -11   5  -2    2.60    0.41
   6 -11  -2    2.08    0.48
  -6  -5  -3    0.11    0.49
   5 -11  -3    0.13    0.33
 -11   5  -3   -0.06    0.36
   6 -11  -3    0.62    0.30
 -11   6  -3    0.02    0.32
 -11   5   3    0.24    0.34
 -11   5  -3    0.22    0.33
   5   6  -3   -0.04    0.43
   5   6   3    0.23    0.30
   5 -11  -3    0.09    0.37
   6 -11  -3    0.03    0.40
 -11   6   3   -0.28    0.36
 -11   6  -3   -0.10    0.32
  -6  -5  -4   -0.05    0.51
 -11   5  -4    0.09    0.35
 -11   5   4    0.28    0.32
 -11   5  -4   -0.16    0.33
   5   6  -4    0.39    0.48
   6 -11  -4   -0.33    0.39
 -11   6   4   -0.24    0.35
 -11   6  -4   -0.03    0.32
 -11   5   5    0.03    0.34
 -11   5  -5    0.35    0.37
   6   5  -5   -0.44    0.45
 -11   6   5    0.20    0.37
   5   6  -5   -0.28    0.48
 -11   6  -5   -0.10    0.35
 -11   5   6    0.19    0.35
 -11   5  -6    0.72    0.38
 -11   6   6    0.64    0.39
 -11   6  -6    0.56    0.40
 -11   6   7   -0.38    0.40
 -11   5   7    0.11    0.37
  -4  -7   0    0.49    0.48
  -7  -4   0    1.14    0.49
 -11   4   0    0.06    0.32
   4   7   0    0.67    0.35
 -11   7   0    0.24    0.34
  -4  -7  -1    0.39    0.49
  -7  -4  -1   -0.37    0.49
 -11   4  -1    0.58    0.32
   4 -11  -1    0.14    0.40
   4   7  -1    0.24    0.35
   4   7   1    0.52    0.33
 -11   7  -1    0.45    0.35
  -4  -7  -2    1.82    0.54
  -7  -4  -2    1.74    0.60
   4 -11  -2    0.97    0.37
 -11   4  -2    2.30    0.48
 -11   4   2    1.23    0.38
 -11   4  -2    1.71    0.38
   4 -11  -2    1.16    0.40
   4   7  -2    1.56    0.44
 -11   7   2    1.64    0.40
   4   7   2    1.61    0.36
 -11   7  -2    1.38    0.39
  -4  -7  -3   -0.05    0.50
  -7  -4  -3    0.16    0.48
   4 -11  -3    0.24    0.38
 -11   4  -3   -0.03    0.38
 -11   4   3    0.26    0.32
   7 -11  -3    0.27    0.22
 -11   4  -3    0.21    0.32
 -11   7   3    0.07    0.35
 -11   7  -3    0.31    0.36
   4   7  -3    0.08    0.44
   7 -11  -3    0.29    0.44
   4 -11  -4    0.08    0.38
  -4  -7  -4    0.30    0.53
  -7  -4  -4    0.58    0.50
   7 -11  -4    0.24    0.26
 -11   4  -4    0.40    0.38
 -11   4   4    0.25    0.34
 -11   4  -4    0.16    0.30
 -11   7   4    0.16    0.37
 -11   7  -4    0.17    0.35
   4   7  -4    0.13    0.50
   7 -11  -4   -0.11    0.42
 -11   7  -5    0.07    0.38
 -11   4   5    0.03    0.34
 -11   4  -5    0.13    0.36
   4   7  -5   -0.15    0.51
 -11   7   5    0.27    0.38
 -11   7   6    0.35    0.44
 -11   7  -6    0.54    0.41
 -11   4   6    0.51    0.36
 -11   4  -6    0.40    0.39
 -11   7   7   -0.03    0.39
 -11   4   7    0.10    0.37
 -11   8   0    1.59    0.44
 -11   3   0    0.97    0.35
  -3  -8   0    1.81    0.55
  -8  -3   0    1.54    0.54
   3   8   0    0.85    0.39
 -11   3  -1    0.15    0.31
  -3  -8  -1    0.05    0.45
  -8  -3  -1    0.48    0.53
   3   8  -1    0.22    0.37
   3   8   1    0.51    0.38
 -11   8  -1    0.93    0.41
 -11   3   2    0.32    0.32
 -11   3  -2    0.43    0.33
  -3  -8  -2    0.59    0.51
  -8  -3  -2    0.53    0.50
   3 -11  -2    0.66    0.39
 -11   3  -2    1.14    0.47
 -11   8   2    0.53    0.40
 -11   8  -2    0.71    0.40
   3   8  -2    0.17    0.39
   3   8   2    0.60    0.40
 -11   3  -3    0.24    0.32
 -11   8   3    0.31    0.41
  -3  -8  -3    0.30    0.52
  -8  -3  -3    0.80    0.50
   3 -11  -3    0.10    0.38
 -11   3  -3    0.08    0.43
 -11   8  -3    0.22    0.38
   3   8  -3    1.36    0.48
 -11   3   3    0.03    0.32
  -3  -8  -4    1.38    0.57
  -8  -3  -4    0.42    0.52
   3 -11  -4    0.99    0.43
 -11   3  -4    0.42    0.43
   3   8  -4    0.85    0.54
 -11   8   4    0.85    0.41
 -11   3   4    0.22    0.33
 -11   3  -4    0.87    0.39
 -11   8  -4    0.78    0.40
 -11   8   5    0.06    0.38
 -11   8  -5    0.04    0.41
   3   8  -5   -0.10    0.56
 -11   3   5    0.03    0.33
 -11   3  -5    0.06    0.34
 -11   8   6    0.09    0.43
 -11   8  -6    0.53    0.42
   3   8   6    0.48    0.63
 -11   3   6    0.35    0.38
 -11   3  -6    0.10    0.41
 -11   3   7   -0.05    0.37
 -11   8   7   -0.17    0.41
   9 -11   0    1.35    0.23
  -9  -2   0    1.92    0.37
   2   9   0    1.82    0.49
 -11   2   0    1.86    0.39
  -9  -2  -1    0.11    0.31
   9 -11  -1   -0.03    0.24
  -2  -9  -1    1.18    0.52
  -9  -2  -1    0.54    0.52
   2 -11  -1    0.38    0.43
 -11   2  -1    0.31    0.47
 -11   9   1   -0.08    0.41
   2   9  -1    0.27    0.42
   2   9   1    0.03    0.43
 -11   2  -1    0.12    0.32
 -11   9  -2    0.08    0.40
  -2  -9  -2   -0.05    0.52
  -9  -2  -2    0.37    0.49
  -9  -2   2    0.24    0.29
  -9  -2  -2    0.63    0.32
   2 -11  -2   -0.07    0.42
 -11   2  -2   -0.18    0.49
   9 -11  -2    0.07    0.27
   2   9  -2    0.36    0.44
 -11   2   2    0.50    0.33
 -11   2  -2    0.03    0.32
   2   9   2    0.43    0.47
 -11   9   2    0.30    0.38
 -11   9  -3    0.43    0.44
  -2  -9  -3    0.97    0.55
  -9  -2  -3    0.11    0.53
   2 -11  -3    0.07    0.45
 -11   2  -3   -0.26    0.48
  -9  -2  -3    0.38    0.33
   2   9  -3    0.04    0.47
 -11   2   3    0.40    0.33
 -11   2  -3    0.06    0.34
 -11   9   3    0.88    0.43
  -2  -9  -4    1.95    0.60
 -11   9  -4    1.91    0.50
  -9  -2  -4    1.15    0.54
   2 -11  -4    0.94    0.48
 -11   2  -4    0.64    0.50
   2   9   4    1.50    0.49
 -11   2   4    1.37    0.39
 -11   2  -4    0.57    0.39
   2   9  -4    1.43    0.56
 -11   9   4    1.12    0.49
 -11   9   5   -0.10    0.42
 -11   9  -5   -0.35    0.43
   2   9   5    0.42    0.50
 -11   2   5    0.55    0.36
 -11   2  -5   -0.10    0.35
   2   9   6    0.81    0.57
 -11   2   6    0.03    0.36
 -11   2  -6    0.27    0.41
 -11   9   6    0.36    0.47
 -11   9  -6    0.11    0.44
 -11   9   7    0.25    0.46
 -11   2   7    0.14    0.40
 -10  -1   0    1.63    0.39
 -11   1   0    2.00    0.42
   1  10   0    1.10    0.55
  -1 -10  -1   -0.37    0.51
 -10  -1  -1   -0.38    0.54
   1 -11  -1   -0.31    0.47
 -11   1  -1   -0.20    0.54
 -10  -1   1   -0.15    0.33
 -10  -1  -1   -0.03    0.32
 -11   1   1   -0.09    0.33
 -11   1  -1    0.35    0.36
   1  10  -1   -0.08    0.48
   1  10   1    0.41    0.54
  -1 -10  -2   -0.32    0.52
 -10  -1  -2   -0.27    0.55
   1 -11  -2    0.28    0.50
 -11   1  -2    0.10    0.50
 -10  -1   2   -0.37    0.33
 -10  -1  -2    0.12    0.33
 -11   1   2    0.03    0.33
 -11   1  -2   -0.10    0.35
   1  10  -2   -0.04    0.46
  -1  11  -2    0.36    0.54
  -1 -10  -3   -0.05    0.53
 -10  -1  -3    0.05    0.54
   1 -11  -3   -0.12    0.51
 -11   1  -3    0.05    0.51
 -10  -1   3   -0.06    0.33
 -10  -1  -3    0.34    0.37
 -11   1   3    0.67    0.34
 -11   1  -3    0.67    0.37
   1  10  -3    0.33    0.48
  -1  11  -3    1.14    0.57
  -1 -10  -4    0.42    0.54
   1 -11  -4    0.60    0.49
 -10  -1  -4    0.63    0.56
 -11   1  -4    0.52    0.55
 -10  -1   4    0.58    0.34
 -10  -1  -4    0.91    0.42
 -11   1   4    0.36    0.35
 -11   1  -4    0.64    0.39
 -11  10  -4    0.93    0.51
   1  10  -4    1.35    0.58
 -11  10   4    0.42    0.48
  -1  11  -4    1.87    0.63
   1 -11  -5    0.04    0.51
 -11   1  -5   -0.05    0.53
 -11   1   5    0.11    0.34
 -11   1  -5   -0.03    0.36
 -11  10   5    0.44    0.50
 -11  10  -5    0.38    0.53
 -11  10   6   -0.28    0.49
 -11   1   6   -0.28    0.38
 -11   0   0    0.74    0.36
   0 -11  -1    0.09    0.55
 -11   0  -1    0.48    0.56
 -11   0   1    0.03    0.36
 -11   0  -1    0.38    0.35
   0  11  -1    1.03    0.58
   0 -11  -2   -0.22    0.57
 -11   0  -2   -0.05    0.57
 -11   0   2   -0.09    0.35
 -11   0  -2    0.77    0.36
   0  11  -2   -0.09    0.52
   0 -11  -3    0.13    0.56
 -11   0  -3    0.57    0.58
 -11   0   3    0.09    0.36
 -11   0  -3    0.16    0.38
   0  11  -3    0.13    0.56
   0 -11  -4    0.94    0.59
 -11   0  -4    0.88    0.61
  -6  -6   0    0.05    0.49
 -12   6   0    0.48    0.36
  -6  -6  -1   -0.17    0.53
 -12   6   1   -0.24    0.38
 -12   6  -1    0.14    0.36
  -6  -6  -2    1.13    0.59
   6   6  -2    1.50    0.47
   6   6   2    0.35    0.33
 -12   6   2    0.64    0.37
 -12   6  -2    0.69    0.37
   6 -12  -3    0.02    0.31
   6   6  -3   -0.36    0.45
 -12   6   3   -0.10    0.37
 -12   6  -3    0.21    0.37
  -6  -6  -4    0.79    0.59
   6 -12  -4    0.15    0.33
 -12   6   4   -0.13    0.36
 -12   6  -4   -0.24    0.40
   6   6  -4   -0.13    0.46
 -12   6   5    0.25    0.41
 -12   6  -5    0.24    0.39
 -12   6   6    0.15    0.41
 -12   6  -6    0.57    0.44
 -12   7   0    0.36    0.39
  -7  -5   0   -0.06    0.53
 -12   5   0    0.03    0.37
   5   7   0    0.29    0.38
 -12   7   1   -0.07    0.37
 -12   7  -1    0.18    0.37
  -7  -5  -1   -0.11    0.53
 -12   5   1    0.27    0.38
 -12   5  -1    0.47    0.36
   5   7  -1    0.33    0.39
   5   7   1   -0.10    0.35
 -12   7   2    0.57    0.42
 -12   7  -2    1.38    0.42
  -7  -5  -2    0.17    0.55
 -12   5   2    0.72    0.39
 -12   5  -2    0.74    0.38
   5 -12  -2    0.73    0.45
   5   7  -2    0.45    0.45
   5   7   2    0.58    0.36
  -7  -5  -3   -0.52    0.58
   5 -12  -3    0.24    0.35
 -12   5   3    0.61    0.38
 -12   5  -3    0.20    0.35
   5   7  -3    0.42    0.50
 -12   7   3    0.27    0.39
 -12   7  -3    0.18    0.37
  -7  -5  -4   -0.34    0.57
   5 -12  -4   -0.10    0.37
 -12   5   4   -0.19    0.36
 -12   5  -4   -0.17    0.39
   5   7  -4    0.41    0.52
 -12   7   4   -0.07    0.39
 -12   7  -4   -0.07    0.37
   5 -12  -5    0.08    0.39
 -12   5   5   -0.40    0.38
 -12   5  -5    0.07    0.38
 -12   7   5   -0.10    0.40
 -12   7  -5   -0.21    0.41
 -12   7   6    0.25    0.41
 -12   5   6    0.36    0.39
 -12   4   0    0.78    0.38
   4   8   0    0.75    0.40
 -12   8   0    1.00    0.45
 -12   4   1    0.13    0.37
 -12   4  -1   -0.24    0.37
  -4  -8  -1    0.43    0.52
  -8  -4  -1    0.12    0.56
   4   8  -1   -0.13    0.37
   4   8   1    0.37    0.41
 -12   8   1    0.08    0.42
 -12   8  -1    0.31    0.41
 -12   4   2    0.45    0.35
 -12   4  -2    0.13    0.35
  -4  -8  -2   -0.49    0.58
  -8  -4  -2   -0.06    0.58
   4 -12  -2    0.03    0.39
 -12   4  -2   -0.19    0.47
 -12   8   2    0.26    0.42
 -12   8  -2   -0.31    0.39
   4   8  -2    0.22    0.42
 -12   4   3    0.16    0.35
 -12   4  -3   -0.03    0.36
  -4  -8  -3    0.50    0.59
  -8  -4  -3    0.29    0.54
   4 -12  -3    0.49    0.42
 -12   8   3    0.32    0.43
 -12   8  -3   -0.08    0.39
   4   8  -3   -0.08    0.46
 -12   4  -4    0.10    0.38
   4 -12  -4   -0.18    0.43
 -12   8   4    0.63    0.42
 -12   8  -4   -0.08    0.41
   4   8  -4   -0.09    0.52
 -12   4   4    0.40    0.40
 -12   8  -5    0.19    0.42
   4 -12  -5   -0.28    0.44
 -12   4   5   -0.30    0.41
 -12   4  -5   -0.24    0.40
 -12   8   5    0.13    0.44
 -12   8   6   -0.36    0.44
 -12   4   6    0.15    0.40
 -12   9   0    0.81    0.44
   3   9   0    0.73    0.45
 -12   3   0    1.11    0.40
  -3  -9  -1   -0.47    0.57
  -9  -3  -1    0.23    0.60
 -12   9   1    0.40    0.43
 -12   9  -1   -0.20    0.42
   3   9  -1    0.24    0.43
   3   9   1   -0.20    0.46
 -12   3   1    0.63    0.37
 -12   3  -1    0.03    0.37
  -3  -9  -2    0.32    0.57
  -9  -3  -2   -0.57    0.61
 -12   9   2    0.67    0.45
   3 -12  -2   -0.43    0.43
 -12   3  -2    0.30    0.52
 -12   9  -2    0.16    0.42
   3   9  -2    0.19    0.47
 -12   3   2    0.03    0.35
 -12   3  -2    0.03    0.35
 -12   9   3    0.81    0.50
 -12   9  -3   -0.45    0.45
  -3  -9  -3    0.48    0.57
  -9  -3  -3    0.23    0.59
   3 -12  -3    0.27    0.45
 -12   3  -3   -0.58    0.52
   3   9  -3   -0.21    0.49
 -12   3   3   -0.03    0.35
 -12   3  -3    0.51    0.38
   3 -12  -4    0.42    0.48
 -12   3  -4    0.42    0.51
   3   9  -4   -0.75    0.62
 -12   9   4    0.30    0.48
 -12   3   4    1.04    0.40
 -12   3  -4    0.31    0.42
 -12   9  -4    0.41    0.45
   3 -12  -5   -0.31    0.49
   3   9   5   -0.24    0.58
 -10  -2   0    0.66    0.37
 -12  10   0    1.36    0.50
 -12   2   0    0.84    0.39
   2  10   0    0.49    0.53
 -12  10   1    1.22    0.48
 -10  -2   1    0.15    0.32
 -10  -2  -1    0.52    0.35
 -12  10  -1    0.47    0.47
  -2 -10  -1    0.20    0.57
 -10  -2  -1   -0.41    0.62
 -12   2   1    0.10    0.37
 -12   2  -1    0.34    0.37
   2  10  -1   -0.38    0.48
  -2 -10  -2   -0.36    0.62
 -10  -2  -2   -0.64    0.62
   2 -12  -2   -0.11    0.54
 -12   2  -2   -0.43    0.57
 -12   2   2    0.06    0.35
 -12   2  -2   -0.07    0.37
   2  10  -2    0.12    0.49
 -12  10   2    0.29    0.46
 -12  10  -2    0.82    0.48
  -2 -10  -3   -0.05    0.59
 -10  -2  -3   -0.68    0.59
   2 -12  -3    0.73    0.54
 -12   2  -3   -0.23    0.57
   2  10  -3   -0.08    0.52
   2 -12  -4   -0.19    0.54
 -12   2  -4    0.19    0.55
   2 -12  -5   -0.04    0.52
   1  11   0   -0.30    0.55
  -1 -11  -1    0.53    0.61
   1  11  -1   -0.08    0.56
  -1 -11  -2    1.04    0.63
 -11  -1  -2    0.41    0.65
   1 -12  -2    0.99    0.58
 -12   1  -2    0.16    0.60
   1  11  -2    0.13    0.56
   1 -12  -3   -0.47    0.56
 -12   1  -3   -0.46    0.61
   1 -12  -4    0.38    0.58
 -12   1  -4    0.25    0.60
   0  12  -2    0.19    0.61
 -13   6   0    0.37    0.42
   6   7   0    0.09    0.42
 -13   7   0    0.19    0.40
 -13   6   1   -0.18    0.41
   6   7  -1    0.04    0.44
   6   7   1   -0.08    0.38
   7   6  -2   -0.08    0.43
   6   7  -2    0.04    0.46
   7   6  -3   -0.89    0.50
   6   7  -3    0.17    0.52
   5   8   0    0.37    0.40
   5   8  -1   -0.03    0.44
   5   8  -2    0.08    0.48
   5   8  -3    0.13    0.50
   4   9   0    0.37    0.46
   4   9  -1    0.21    0.46
   4   9  -2   -0.47    0.54
   3  10  -1    0.04    0.49
   3  10  -2   -0.35    0.52
   3 -13  -3   -0.40    0.52
   2 -13  -3   -0.08    0.57
   7   7  -1   -0.45    0.53
   6   8  -1   -0.30    0.51
   0   0   0    0.00    0.00
;
_shelx_hkl_checksum              37827
loop_
_space_group_symop_operation_xyz
'x, y, z'
'-y, x-y, z'
'-x+y, -x, z'
'-x, -y, z+1/2'
'y, -x+y, z+1/2'
'x-y, x, z+1/2'
'y, x, -z'
'x-y, -y, -z'
'-x, -x+y, -z'
'-y, -x, -z+1/2'
'-x+y, y, -z+1/2'
'x, x-y, -z+1/2'
'-x, -y, -z'
'y, -x+y, -z'
'x-y, x, -z'
'x, y, -z-1/2'
'-y, x-y, -z-1/2'
'-x+y, -x, -z-1/2'
'-y, -x, z'
'-x+y, y, z'
'x, x-y, z'
'y, x, z-1/2'
'x-y, -y, z-1/2'
'-x, -x+y, z-1/2'
loop_
_atom_site_label
_atom_site_type_symbol
_atom_site_fract_x
_atom_site_fract_y
_atom_site_fract_z
_atom_site_U_iso_or_equiv
_atom_site_adp_type
_atom_site_occupancy
_atom_site_site_symmetry_order
_atom_site_calc_flag
_atom_site_refinement_flags_posn
_atom_site_refinement_flags_adp
_atom_site_refinement_flags_occupancy
N1 N 0.6667 0.3333 0.7500 0.185(12) Uani 1 12 d DS TU P
Pb1 Pb 1.0000 0.0000 0.0000 0.0815(4) Uani 1 12 d S T P
I1 I 0.85502(7) 0.14498(7) 0.2500 0.1240(6) Uani 1 4 d S T P
Cl1 Cl 0.6667 0.3333 1.008(3) 0.315(17) Uani 0.5 6 d DS TU P
C1 C 0.817(2) 0.4083(11) 0.856(3) 0.235(12) Uani 0.6667 2 d DS TU P
H1A H 0.8779 0.5164 0.8513 0.282 Uiso 0.6667 1 d R U P
H1B H 0.8779 0.3573 0.8513 0.282 Uiso 0.25 1 d R U P
loop_
_atom_site_aniso_label
_atom_site_aniso_U_11
_atom_site_aniso_U_22
_atom_site_aniso_U_33
_atom_site_aniso_U_23
_atom_site_aniso_U_13
_atom_site_aniso_U_12
N1 0.176(17) 0.176(17) 0.20(3) 0.000 0.000 0.088(8)
Pb1 0.0973(5) 0.0973(5) 0.0499(5) 0.000 0.000 0.0486(3)
I1 0.1583(11) 0.1583(11) 0.0996(9) 0.000 0.000 0.1124(10)
Cl1 0.35(2) 0.35(2) 0.24(3) 0.000 0.000 0.177(12)
C1 0.23(2) 0.241(19) 0.23(3) -0.010(6) -0.020(13) 0.114(10)
loop_
_atom_type_symbol
_atom_type_description
_atom_type_scat_dispersion_real
_atom_type_scat_dispersion_imag
_atom_type_scat_source
C C 0.0033 0.0016 'International Tables Vol C Tables 4.2.6.8 and 6.1.1.4'
H H 0.0000 0.0000 'International Tables Vol C Tables 4.2.6.8 and 6.1.1.4'
N N 0.0061 0.0033 'International Tables Vol C Tables 4.2.6.8 and 6.1.1.4'
Cl Cl 0.1484 0.1585 'International Tables Vol C Tables 4.2.6.8 and 6.1.1.4'
I I -0.4742 1.8119 'International Tables Vol C Tables 4.2.6.8 and 6.1.1.4'
Pb Pb -3.3944 10.1111 'International Tables Vol C Tables 4.2.6.8 and 6.1.1.4'
loop_
_geom_angle_atom_site_label_1
_geom_angle_atom_site_label_2
_geom_angle_atom_site_label_3
_geom_angle
_geom_angle_site_symmetry_1
_geom_angle_site_symmetry_3
C1 N1 C1 130.6(5) . 18_667
C1 N1 C1 92.7(12) . 3_665
C1 N1 C1 66.6(17) 18_667 3_665
C1 N1 C1 66.6(17) . 16_557
C1 N1 C1 92.7(12) 18_667 16_557
C1 N1 C1 130.6(5) 3_665 16_557
C1 N1 C1 130.6(5) . 17_657
C1 N1 C1 92.7(12) 18_667 17_657
C1 N1 C1 130.6(5) 3_665 17_657
C1 N1 C1 92.7(12) 16_557 17_657
C1 N1 C1 92.7(12) . 2_655
C1 N1 C1 130.6(5) 18_667 2_655
C1 N1 C1 92.7(12) 3_665 2_655
C1 N1 C1 130.6(5) 16_557 2_655
C1 N1 C1 66.6(17) 17_657 2_655
C1 N1 Cl1 123.3(9) . 16_557
C1 N1 Cl1 56.7(9) 18_667 16_557
C1 N1 Cl1 123.3(9) 3_665 16_557
C1 N1 Cl1 56.7(9) 16_557 16_557
C1 N1 Cl1 56.7(9) 17_657 16_557
C1 N1 Cl1 123.3(9) 2_655 16_557
C1 N1 Cl1 56.7(9) . .
C1 N1 Cl1 123.3(9) 18_667 .
C1 N1 Cl1 56.7(9) 3_665 .
C1 N1 Cl1 123.3(9) 16_557 .
C1 N1 Cl1 123.3(9) 17_657 .
C1 N1 Cl1 56.7(9) 2_655 .
Cl1 N1 Cl1 180.0 16_557 .
I1 Pb1 I1 180.000(12) 15_545 3_765
I1 Pb1 I1 85.24(2) 15_545 14_665
I1 Pb1 I1 94.76(2) 3_765 14_665
I1 Pb1 I1 94.76(2) 15_545 2_645
I1 Pb1 I1 85.24(2) 3_765 2_645
I1 Pb1 I1 180.00(4) 14_665 2_645
I1 Pb1 I1 94.76(2) 15_545 .
I1 Pb1 I1 85.24(2) 3_765 .
I1 Pb1 I1 94.76(2) 14_665 .
I1 Pb1 I1 85.24(2) 2_645 .
I1 Pb1 I1 85.24(2) 15_545 13_755
I1 Pb1 I1 94.76(2) 3_765 13_755
I1 Pb1 I1 85.24(2) 14_665 13_755
I1 Pb1 I1 94.76(2) 2_645 13_755
I1 Pb1 I1 180.0 . 13_755
Pb1 I1 Pb1 77.14(3) 4_755 .
C1 Cl1 C1 78.6(13) 3_665 2_655
C1 Cl1 C1 78.6(13) 3_665 .
C1 Cl1 C1 78.6(13) 2_655 .
C1 Cl1 N1 47.0(8) 3_665 .
C1 Cl1 N1 47.0(8) 2_655 .
C1 Cl1 N1 47.0(8) . .
N1 C1 C1 56.7(9) . 16_557
N1 C1 Cl1 76.3(14) . .
C1 C1 Cl1 133.0(9) 16_557 .
loop_
_geom_bond_atom_site_label_1
_geom_bond_atom_site_label_2
_geom_bond_distance
_geom_bond_site_symmetry_2
N1 C1 1.558(17) .
N1 C1 1.558(17) 18_667
N1 C1 1.558(17) 3_665
N1 C1 1.558(17) 16_557
N1 C1 1.558(17) 17_657
N1 C1 1.558(17) 2_655
N1 Cl1 2.07(3) 16_557
N1 Cl1 2.07(3) .
Pb1 I1 3.2211(9) 15_545
Pb1 I1 3.2211(9) 3_765
Pb1 I1 3.2211(9) 14_665
Pb1 I1 3.2211(9) 2_645
Pb1 I1 3.2212(9) .
Pb1 I1 3.2212(9) 13_755
I1 Pb1 3.2212(9) 4_755
Cl1 C1 1.780(18) 3_665
Cl1 C1 1.780(18) 2_655
Cl1 C1 1.780(18) .
C1 C1 1.71(4) 16_557
